0
                    3D
 Structure written by MMmdl.
160168  0  0  1  0            999 V2000
  -30.6006  -14.8472   20.4300 C   0  0  0  0  0  0
  -30.4369  -12.5239   19.4806 C   0  0  0  0  0  0
  -29.5157  -12.5132   18.2416 C   0  0  0  0  0  0
  -28.0472  -12.3190   18.6629 C   0  0  0  0  0  0
  -27.6354  -13.2431   19.8395 C   0  0  2  0  0  0
  -28.6826  -13.2452   20.9745 C   0  0  0  0  0  0
  -25.2490  -13.8215   20.5714 C   0  0  0  0  0  0
  -24.1803  -13.0440   20.9229 C   0  0  0  0  0  0
  -24.6417  -11.6920   20.8761 C   0  0  0  0  0  0
  -23.9100  -10.4290   21.0418 C   0  0  0  0  0  0
  -24.3637   -9.4196   21.9195 C   0  0  0  0  0  0
  -23.6296   -8.2238   22.0759 C   0  0  0  0  0  0
  -22.4273   -8.0289   21.3554 C   0  0  0  0  0  0
  -21.9925   -9.0269   20.4652 C   0  0  0  0  0  0
  -22.7271  -10.2143   20.3066 C   0  0  0  0  0  0
  -21.6850   -6.0744   22.5283 C   0  0  0  0  0  0
  -21.4016   -6.5643   23.8218 C   0  0  0  0  0  0
  -21.3659   -5.6795   24.9178 C   0  0  0  0  0  0
  -21.6045   -4.3059   24.7226 C   0  0  0  0  0  0
  -21.8813   -3.8155   23.4338 C   0  0  0  0  0  0
  -21.9184   -4.6976   22.3396 C   0  0  0  0  0  0
  -22.7820  -13.5216   21.1877 C   0  0  0  0  0  0
  -22.1654   -4.2158   21.0977 F   0  0  0  0  0  0
  -21.5624   -3.4538   25.7733 F   0  0  0  0  0  0
  -29.9695  -13.6148   20.3736 N   0  0  0  0  0  0
  -26.2919  -12.9441   20.3258 N   0  0  0  0  0  0
  -25.9347  -11.6575   20.5751 N   0  0  0  0  0  0
  -22.0451  -12.8218   22.0431 N   0  0  0  0  0  0
  -25.4132  -15.1943   20.4137 N   0  0  0  0  0  0
  -31.8045  -14.8878   20.1636 O   0  0  0  0  0  0
  -21.6632   -6.8888   21.4247 O   0  0  0  0  0  0
  -22.3515  -14.5516   20.6704 O   0  0  0  0  0  0
  -24.6393  -31.8518   23.1937 C   0  0  0  0  0  0
  -25.9186  -32.4734   23.8306 C   0  0  1  0  0  0
  -27.2133  -27.1961   20.1154 C   0  0  0  0  0  0
  -25.5975  -33.8533   24.2239 N   0  0  0  0  0  0
  -23.4377  -30.4757   21.5417 C   0  0  2  0  0  0
  -24.8829  -28.9196   20.1072 C   0  0  0  0  0  0
  -22.7537  -29.4587   22.4893 C   0  0  0  0  0  0
  -18.0308  -28.1375   22.8489 C   0  0  0  0  0  0
  -24.1496  -36.7244   23.2642 C   0  0  0  0  0  0
  -25.9933  -30.7389   21.3889 C   0  0  0  0  0  0
  -26.0630  -29.3596   20.7213 C   0  0  0  0  0  0
  -27.2291  -28.5115   20.7165 C   0  0  0  0  0  0
  -25.9902  -26.8378   19.4970 C   0  0  0  0  0  0
  -24.8557  -27.6675   19.4847 C   0  0  0  0  0  0
  -23.6577  -29.8145   20.1574 C   0  0  0  0  0  0
  -25.4131  -36.3055   24.0323 C   0  0  1  0  0  0
  -20.5920  -28.3697   23.1255 C   0  0  2  0  0  0
  -20.6790  -26.9409   22.5400 C   0  0  0  0  0  0
  -19.5760  -26.6374   21.5212 C   0  0  0  0  0  0
  -18.1946  -26.7920   22.1630 C   0  0  0  0  0  0
  -19.1565  -28.8856   23.2868 C   0  0  0  0  0  0
  -18.9477  -30.1453   23.8881 C   0  0  0  0  0  0
  -17.6474  -30.6581   24.0554 C   0  0  0  0  0  0
  -25.9081  -34.9427   23.5086 C   0  0  0  0  0  0
  -16.5363  -29.9066   23.6339 C   0  0  0  0  0  0
  -16.7293  -28.6483   23.0368 C   0  0  0  0  0  0
  -26.4521  -31.6565   25.0715 C   0  0  0  0  0  0
  -25.3704  -31.3725   26.1406 C   0  0  0  0  0  0
  -27.0380  -30.2974   24.6251 C   0  0  0  0  0  0
  -27.6083  -32.4306   25.7477 C   0  0  0  0  0  0
  -27.5586  -37.1785   24.8476 C   0  0  0  0  0  0
  -21.4242  -29.3038   22.3633 N   0  0  0  0  0  0
  -26.4306  -37.3759   23.9410 N   0  0  0  0  0  0
  -24.7099  -31.0407   22.0967 N   0  0  0  0  0  0
  -23.4212  -28.8141   23.3026 O   0  0  0  0  0  0
  -28.2593  -26.2149   20.1826 O   0  0  0  0  0  0
  -26.5653  -34.8918   22.4652 O   0  0  0  0  0  0
  -23.5522  -32.1392   23.7183 O   0  0  0  0  0  0
  -31.0901  -20.2647   20.8475 C   0  0  0  0  0  0
  -31.5296  -17.8433   20.9818 C   0  0  0  0  0  0
  -29.3426  -18.6580   20.3253 C   0  0  0  0  0  0
  -31.9702  -19.1820   21.0970 C   0  0  0  0  0  0
  -29.7530  -20.0713   20.4394 C   0  0  0  0  0  0
  -30.2145  -17.4973   20.5940 C   0  0  0  0  0  0
  -28.1930  -25.0419   19.3524 C   0  0  0  0  0  0
  -28.4664  -23.6547   19.3749 C   0  0  0  0  0  0
  -29.0740  -22.6720   20.3694 C   0  0  0  0  0  0
  -34.3284  -21.4433   20.3516 C   0  0  0  0  0  0
  -34.7127  -22.9076   20.5218 C   0  0  0  0  0  0
  -33.4302  -19.4143   21.4930 C   0  0  0  0  0  0
  -28.9509  -21.2958   20.0636 N   0  0  0  0  0  0
  -29.8379  -16.0291   20.5342 N   0  0  0  0  0  0
  -33.8845  -20.8026   21.4395 N   0  0  0  0  0  0
  -29.6514  -23.0379   21.3936 O   0  0  0  0  0  0
  -34.4193  -20.9108   19.2446 O   0  0  0  0  0  0
  -28.1628  -23.0629   18.2073 O   0  0  0  0  0  0
  -31.4737  -12.6618   19.1688 H   0  0  0  0  0  0
  -30.4036  -11.5645   19.9986 H   0  0  0  0  0  0
  -29.8159  -11.7205   17.5541 H   0  0  0  0  0  0
  -29.6243  -13.4512   17.6929 H   0  0  0  0  0  0
  -27.9309  -11.2761   18.9611 H   0  0  0  0  0  0
  -27.3847  -12.4683   17.8099 H   0  0  0  0  0  0
  -27.6074  -14.2513   19.4256 H   0  0  0  0  0  0
  -28.7451  -12.2699   21.4571 H   0  0  0  0  0  0
  -28.4025  -13.9600   21.7500 H   0  0  0  0  0  0
  -25.2778   -9.5655   22.4786 H   0  0  0  0  0  0
  -23.9987   -7.4624   22.7489 H   0  0  0  0  0  0
  -21.0847   -8.8815   19.8961 H   0  0  0  0  0  0
  -22.3741  -10.9695   19.6182 H   0  0  0  0  0  0
  -21.2015   -7.6155   23.9726 H   0  0  0  0  0  0
  -21.1491   -6.0524   25.9083 H   0  0  0  0  0  0
  -22.0589   -2.7611   23.2839 H   0  0  0  0  0  0
  -22.4047  -11.9884   22.4846 H   0  0  0  0  0  0
  -21.1078  -13.1280   22.2622 H   0  0  0  0  0  0
  -24.6370  -15.8389   20.5166 H   0  0  0  0  0  0
  -26.2501  -15.6400   20.0631 H   0  0  0  0  0  0
  -26.7246  -32.5351   23.1023 H   0  0  0  0  0  0
  -25.0098  -33.9649   25.0373 H   0  0  0  0  0  0
  -22.7370  -31.3005   21.3961 H   0  0  0  0  0  0
  -23.3785  -35.9552   23.3310 H   0  0  0  0  0  0
  -24.3583  -36.8857   22.2058 H   0  0  0  0  0  0
  -23.7222  -37.6430   23.6660 H   0  0  0  0  0  0
  -26.1518  -31.5018   20.6257 H   0  0  0  0  0  0
  -26.8622  -30.7775   22.0337 H   0  0  0  0  0  0
  -28.1262  -28.8402   21.2226 H   0  0  0  0  0  0
  -25.8536  -25.8664   19.0465 H   0  0  0  0  0  0
  -23.9491  -27.3133   19.0132 H   0  0  0  0  0  0
  -23.7833  -30.5945   19.4056 H   0  0  0  0  0  0
  -22.7734  -29.2533   19.8526 H   0  0  0  0  0  0
  -25.1319  -36.1892   25.0816 H   0  0  0  0  0  0
  -21.0012  -28.3269   24.1377 H   0  0  0  0  0  0
  -20.5696  -26.2301   23.3608 H   0  0  0  0  0  0
  -21.6656  -26.7425   22.1195 H   0  0  0  0  0  0
  -19.6919  -25.6286   21.1241 H   0  0  0  0  0  0
  -19.6695  -27.3187   20.6741 H   0  0  0  0  0  0
  -17.4216  -26.6678   21.4032 H   0  0  0  0  0  0
  -18.0344  -26.0061   22.9024 H   0  0  0  0  0  0
  -19.7951  -30.7281   24.2247 H   0  0  0  0  0  0
  -17.5023  -31.6270   24.5137 H   0  0  0  0  0  0
  -15.5360  -30.2956   23.7672 H   0  0  0  0  0  0
  -15.8700  -28.0784   22.7098 H   0  0  0  0  0  0
  -24.5900  -30.7066   25.7700 H   0  0  0  0  0  0
  -24.8864  -32.2892   26.4792 H   0  0  0  0  0  0
  -25.7985  -30.8912   27.0207 H   0  0  0  0  0  0
  -26.2989  -29.6700   24.1259 H   0  0  0  0  0  0
  -27.4031  -29.7265   25.4796 H   0  0  0  0  0  0
  -27.8885  -30.4242   23.9546 H   0  0  0  0  0  0
  -27.2723  -33.3632   26.2013 H   0  0  0  0  0  0
  -28.3902  -32.6809   25.0295 H   0  0  0  0  0  0
  -28.0735  -31.8441   26.5410 H   0  0  0  0  0  0
  -28.2615  -38.0073   24.7533 H   0  0  0  0  0  0
  -28.1077  -36.2608   24.6310 H   0  0  0  0  0  0
  -27.2300  -37.1436   25.8878 H   0  0  0  0  0  0
  -20.9430  -29.8747   21.6824 H   0  0  0  0  0  0
  -26.0185  -38.2832   24.1403 H   0  0  0  0  0  0
  -31.4611  -21.2744   20.9372 H   0  0  0  0  0  0
  -32.2438  -17.0670   21.2103 H   0  0  0  0  0  0
  -28.3273  -18.4599   20.0135 H   0  0  0  0  0  0
  -27.8177  -25.3799   18.3962 H   0  0  0  0  0  0
  -34.7568  -23.1936   21.5727 H   0  0  0  0  0  0
  -33.9814  -23.5455   20.0255 H   0  0  0  0  0  0
  -35.6906  -23.0987   20.0814 H   0  0  0  0  0  0
  -34.0728  -18.7889   20.8704 H   0  0  0  0  0  0
  -33.5679  -19.0562   22.5144 H   0  0  0  0  0  0
  -28.2050  -21.1061   19.4074 H   0  0  0  0  0  0
  -28.8465  -15.8494   20.5703 H   0  0  0  0  0  0
  -33.8635  -21.3180   22.3089 H   0  0  0  0  0  0
  -28.6585  -22.2545   18.1678 H   0  0  0  0  0  0
  1 25  1  0  0  0
  1 30  2  0  0  0
  1 84  1  0  0  0
  2  3  1  0  0  0
  2 25  1  0  0  0
  2 89  1  0  0  0
  2 90  1  0  0  0
  3  4  1  0  0  0
  3 91  1  0  0  0
  3 92  1  0  0  0
  4  5  1  0  0  0
  4 93  1  0  0  0
  4 94  1  0  0  0
  5  6  1  0  0  0
  5 26  1  0  0  0
  5 95  1  0  0  0
  6 25  1  0  0  0
  6 96  1  0  0  0
  6 97  1  0  0  0
  7  8  2  0  0  0
  7 26  1  0  0  0
  7 29  1  0  0  0
  8  9  1  0  0  0
  8 22  1  0  0  0
  9 10  1  0  0  0
  9 27  2  0  0  0
 10 11  2  0  0  0
 10 15  1  0  0  0
 11 12  1  0  0  0
 11 98  1  0  0  0
 12 13  2  0  0  0
 12 99  1  0  0  0
 13 14  1  0  0  0
 13 31  1  0  0  0
 14 15  2  0  0  0
 14100  1  0  0  0
 15101  1  0  0  0
 16 17  2  0  0  0
 16 21  1  0  0  0
 16 31  1  0  0  0
 17 18  1  0  0  0
 17102  1  0  0  0
 18 19  2  0  0  0
 18103  1  0  0  0
 19 20  1  0  0  0
 19 24  1  0  0  0
 20 21  2  0  0  0
 20104  1  0  0  0
 21 23  1  0  0  0
 22 28  1  0  0  0
 22 32  2  0  0  0
 26 27  1  0  0  0
 28105  1  0  0  0
 28106  1  0  0  0
 29107  1  0  0  0
 29108  1  0  0  0
 33 34  1  0  0  0
 33 66  1  0  0  0
 33 70  2  0  0  0
 34 36  1  0  0  0
 34 59  1  0  0  0
 34109  1  0  0  0
 35 44  2  0  0  0
 35 45  1  0  0  0
 35 68  1  0  0  0
 36 56  1  0  0  0
 36110  1  0  0  0
 37 39  1  0  0  0
 37 47  1  0  0  0
 37 66  1  0  0  0
 37111  1  0  0  0
 38 43  2  0  0  0
 38 46  1  0  0  0
 38 47  1  0  0  0
 39 64  1  0  0  0
 39 67  2  0  0  0
 40 52  1  0  0  0
 40 53  2  0  0  0
 40 58  1  0  0  0
 41112  1  0  0  0
 41113  1  0  0  0
 41114  1  0  0  0
 41 48  1  0  0  0
 42 43  1  0  0  0
 42 66  1  0  0  0
 42115  1  0  0  0
 42116  1  0  0  0
 43 44  1  0  0  0
 44117  1  0  0  0
 45 46  2  0  0  0
 45118  1  0  0  0
 46119  1  0  0  0
 47120  1  0  0  0
 47121  1  0  0  0
 48 56  1  0  0  0
 48 65  1  0  0  0
 48122  1  0  0  0
 49 50  1  0  0  0
 49 53  1  0  0  0
 49 64  1  0  0  0
 49123  1  0  0  0
 50 51  1  0  0  0
 50124  1  0  0  0
 50125  1  0  0  0
 51 52  1  0  0  0
 51126  1  0  0  0
 51127  1  0  0  0
 52128  1  0  0  0
 52129  1  0  0  0
 53 54  1  0  0  0
 54 55  2  0  0  0
 54130  1  0  0  0
 55 57  1  0  0  0
 55131  1  0  0  0
 56 69  2  0  0  0
 57 58  2  0  0  0
 57132  1  0  0  0
 58133  1  0  0  0
 59 60  1  0  0  0
 59 61  1  0  0  0
 59 62  1  0  0  0
 60134  1  0  0  0
 60135  1  0  0  0
 60136  1  0  0  0
 61137  1  0  0  0
 61138  1  0  0  0
 61139  1  0  0  0
 62140  1  0  0  0
 62141  1  0  0  0
 62142  1  0  0  0
 63 65  1  0  0  0
 63143  1  0  0  0
 63144  1  0  0  0
 63145  1  0  0  0
 64146  1  0  0  0
 65147  1  0  0  0
 68 77  1  0  0  0
 71 74  2  0  0  0
 71 75  1  0  0  0
 71148  1  0  0  0
 72 74  1  0  0  0
 72 76  2  0  0  0
 72149  1  0  0  0
 73 75  2  0  0  0
 73 76  1  0  0  0
 73150  1  0  0  0
 74 82  1  0  0  0
 75 83  1  0  0  0
 76 84  1  0  0  0
 77 78  2  0  0  0
 77151  1  0  0  0
 78 79  1  0  0  0
 78 88  1  0  0  0
 79 83  1  0  0  0
 79 86  2  0  0  0
 80 81  1  0  0  0
 80 85  1  0  0  0
 80 87  2  0  0  0
 81152  1  0  0  0
 81153  1  0  0  0
 81154  1  0  0  0
 82 85  1  0  0  0
 82155  1  0  0  0
 82156  1  0  0  0
 83157  1  0  0  0
 84158  1  0  0  0
 85159  1  0  0  0
 88160  1  0  0  0
M  ISO  4   1 100  68 101  77 101  84 100
M  END
> <chiral flag>
0

> <version>
0

> <s_m_source_file>
/data/baiqing/PycharmProjects/Reinvent-master-3.2/result/LINK_invent/BTK/process_docking_weight1_custom_product_contain_oxygen_bond_distance_aromatic_linkinvent_7_9_3/rearranged_h_0172.sdf

> <i_m_source_file_index>
1

> <r_mmod_Potential_Energy-OPLS-2005>
207.530731201172

> <r_mmod_Stretch_Energy-OPLS-2005>
175.443878173828

> <r_mmod_Bend_Energy-OPLS-2005>
249.979919433594

> <r_mmod_Torsional_Energy-OPLS-2005>
234.703659057617

> <r_mmod_Improper_Torsional_Energy-OPLS-2005>
6.61931180953979

> <r_mmod_Van_der_Waal_Energy-OPLS-2005>
154.9365234375

> <r_mmod_Electrostatic_Energy-OPLS-2005>
-471.10546875

> <r_mmod_Solvation_Energy-OPLS-2005>
-282.494049072266

> <b_mmod_Minimization_Converged-OPLS-2005>
0

> <r_mmod_RMS_Derivative-OPLS-2005>
1.75970077514648

$$$$
1
                    3D
 Structure written by MMmdl.
161169  0  0  1  0            999 V2000
  -30.6860  -14.4456   20.4468 C   0  0  0  0  0  0
  -30.4195  -12.2473   19.4342 C   0  0  0  0  0  0
  -29.4981  -12.4426   18.2117 C   0  0  0  0  0  0
  -28.0121  -12.3434   18.6211 C   0  0  0  0  0  0
  -27.6561  -13.1839   19.8792 C   0  0  2  0  0  0
  -28.7073  -12.9940   20.9987 C   0  0  0  0  0  0
  -25.2583  -13.8087   20.5706 C   0  0  0  0  0  0
  -24.1811  -13.0400   20.9193 C   0  0  0  0  0  0
  -24.6341  -11.6862   20.8766 C   0  0  0  0  0  0
  -23.9008  -10.4266   21.0422 C   0  0  0  0  0  0
  -24.3578   -9.4186   21.9194 C   0  0  0  0  0  0
  -23.6262   -8.2220   22.0757 C   0  0  0  0  0  0
  -22.4250   -8.0258   21.3535 C   0  0  0  0  0  0
  -21.9871   -9.0232   20.4645 C   0  0  0  0  0  0
  -22.7190  -10.2115   20.3061 C   0  0  0  0  0  0
  -21.6844   -6.0718   22.5277 C   0  0  0  0  0  0
  -21.4013   -6.5629   23.8209 C   0  0  0  0  0  0
  -21.3654   -5.6785   24.9169 C   0  0  0  0  0  0
  -21.6040   -4.3047   24.7225 C   0  0  0  0  0  0
  -21.8821   -3.8136   23.4348 C   0  0  0  0  0  0
  -21.9192   -4.6947   22.3402 C   0  0  0  0  0  0
  -22.7843  -13.5228   21.1838 C   0  0  0  0  0  0
  -22.1662   -4.2136   21.0977 F   0  0  0  0  0  0
  -21.5625   -3.4529   25.7736 F   0  0  0  0  0  0
  -30.0400  -13.2554   20.4282 N   0  0  0  0  0  0
  -26.2993  -12.9200   20.3430 N   0  0  0  0  0  0
  -25.9261  -11.6394   20.5832 N   0  0  0  0  0  0
  -22.0466  -12.8248   22.0399 N   0  0  0  0  0  0
  -25.4305  -15.1811   20.4091 N   0  0  0  0  0  0
  -31.8800  -14.5923   20.1725 O   0  0  0  0  0  0
  -21.6619   -6.8854   21.4237 O   0  0  0  0  0  0
  -22.3552  -14.5537   20.6674 O   0  0  0  0  0  0
  -24.6069  -31.8702   23.2136 C   0  0  0  0  0  0
  -25.8983  -32.4839   23.8416 C   0  0  1  0  0  0
  -27.2474  -27.4873   20.0862 C   0  0  0  0  0  0
  -25.5855  -33.8638   24.2341 N   0  0  0  0  0  0
  -23.3927  -30.4917   21.5512 C   0  0  2  0  0  0
  -24.8405  -28.9576   20.1168 C   0  0  0  0  0  0
  -22.7362  -29.4663   22.5014 C   0  0  0  0  0  0
  -18.0263  -28.1361   22.8501 C   0  0  0  0  0  0
  -24.1485  -36.7340   23.2633 C   0  0  0  0  0  0
  -25.9131  -30.8517   21.3570 C   0  0  0  0  0  0
  -25.9913  -29.4870   20.7100 C   0  0  0  0  0  0
  -27.1915  -28.7549   20.6955 C   0  0  0  0  0  0
  -26.0805  -26.9512   19.4941 C   0  0  0  0  0  0
  -24.8770  -27.6873   19.5104 C   0  0  0  0  0  0
  -23.5983  -29.8175   20.1665 C   0  0  0  0  0  0
  -25.4098  -36.3124   24.0336 C   0  0  1  0  0  0
  -20.5847  -28.3640   23.1339 C   0  0  2  0  0  0
  -20.6755  -26.9379   22.5426 C   0  0  0  0  0  0
  -19.5738  -26.6378   21.5214 C   0  0  0  0  0  0
  -18.1916  -26.7911   22.1625 C   0  0  0  0  0  0
  -19.1508  -28.8816   23.2926 C   0  0  0  0  0  0
  -18.9441  -30.1428   23.8929 C   0  0  0  0  0  0
  -17.6446  -30.6573   24.0565 C   0  0  0  0  0  0
  -25.9020  -34.9485   23.5136 C   0  0  0  0  0  0
  -16.5338  -29.9079   23.6320 C   0  0  0  0  0  0
  -16.7255  -28.6493   23.0345 C   0  0  0  0  0  0
  -26.4447  -31.6608   25.0723 C   0  0  0  0  0  0
  -25.3742  -31.3693   26.1497 C   0  0  0  0  0  0
  -27.0259  -30.3058   24.6053 C   0  0  0  0  0  0
  -27.6048  -32.4304   25.7473 C   0  0  0  0  0  0
  -27.5580  -37.1815   24.8451 C   0  0  0  0  0  0
  -21.4100  -29.3016   22.3748 N   0  0  0  0  0  0
  -26.4286  -37.3805   23.9408 N   0  0  0  0  0  0
  -24.6555  -31.0846   22.1006 N   0  0  0  0  0  0
  -23.4156  -28.8204   23.3038 O   0  0  0  0  0  0
  -28.4707  -26.8701   20.0985 O   0  0  0  0  0  0
  -26.5593  -34.8926   22.4705 O   0  0  0  0  0  0
  -23.5278  -32.1427   23.7566 O   0  0  0  0  0  0
  -29.9878  -18.2884   17.2560 C   0  0  0  0  0  0
  -29.1703  -16.2052   18.2005 C   0  0  0  0  0  0
  -30.6548  -17.6247   19.5162 C   0  0  0  0  0  0
  -29.2255  -17.1141   17.1288 C   0  0  0  0  0  0
  -30.6772  -18.5640   18.4560 C   0  0  0  0  0  0
  -29.8984  -16.4408   19.3914 C   0  0  0  0  0  0
  -31.5062  -22.0859   19.1930 C   0  0  0  0  0  0
  -31.3550  -20.6327   19.5946 C   0  0  0  0  0  0
  -29.8745  -24.9996   20.3955 C   0  0  0  0  0  0
  -32.1689  -22.3914   17.8449 C   0  0  0  0  0  0
  -30.9586  -24.3690   19.5187 C   0  0  0  0  0  0
  -28.6066  -25.5152   19.7117 C   0  0  0  0  0  0
  -31.0289  -22.9874   19.9588 N   0  0  0  0  0  0
  -28.5182  -16.8558   15.9542 N   0  0  0  0  0  0
  -31.3435  -19.8102   18.5362 N   0  0  0  0  0  0
  -29.8558  -15.4957   20.4514 N   0  0  0  0  0  0
  -31.2125  -20.2850   20.7729 O   0  0  0  0  0  0
  -30.0219  -25.0960   21.6209 O   0  0  0  0  0  0
  -31.4675  -12.3272   19.1388 H   0  0  0  0  0  0
  -30.2991  -11.2463   19.8518 H   0  0  0  0  0  0
  -29.7218  -11.6882   17.4563 H   0  0  0  0  0  0
  -29.7022  -13.4027   17.7396 H   0  0  0  0  0  0
  -27.8025  -11.2913   18.8169 H   0  0  0  0  0  0
  -27.3713  -12.6255   17.7852 H   0  0  0  0  0  0
  -27.6695  -14.2259   19.5852 H   0  0  0  0  0  0
  -28.6695  -11.9763   21.3904 H   0  0  0  0  0  0
  -28.4998  -13.6498   21.8466 H   0  0  0  0  0  0
  -25.2726   -9.5662   22.4761 H   0  0  0  0  0  0
  -23.9972   -7.4607   22.7473 H   0  0  0  0  0  0
  -21.0806   -8.8744   19.8950 H   0  0  0  0  0  0
  -22.3652  -10.9653   19.6167 H   0  0  0  0  0  0
  -21.2015   -7.6138   23.9709 H   0  0  0  0  0  0
  -21.1470   -6.0512   25.9069 H   0  0  0  0  0  0
  -22.0611   -2.7598   23.2851 H   0  0  0  0  0  0
  -22.4063  -11.9913   22.4807 H   0  0  0  0  0  0
  -21.1087  -13.1297   22.2590 H   0  0  0  0  0  0
  -24.6594  -15.8320   20.5123 H   0  0  0  0  0  0
  -26.2739  -15.6245   20.0695 H   0  0  0  0  0  0
  -26.7056  -32.5577   23.1192 H   0  0  0  0  0  0
  -24.9982  -33.9819   25.0466 H   0  0  0  0  0  0
  -22.6787  -31.3058   21.4108 H   0  0  0  0  0  0
  -23.3731  -35.9690   23.3298 H   0  0  0  0  0  0
  -24.3582  -36.8957   22.2048 H   0  0  0  0  0  0
  -23.7263  -37.6554   23.6653 H   0  0  0  0  0  0
  -26.0115  -31.6171   20.5860 H   0  0  0  0  0  0
  -26.8059  -30.9125   21.9678 H   0  0  0  0  0  0
  -28.0846  -29.1636   21.1480 H   0  0  0  0  0  0
  -26.0889  -25.9862   19.0079 H   0  0  0  0  0  0
  -23.9885  -27.2774   19.0504 H   0  0  0  0  0  0
  -23.6967  -30.5885   19.4013 H   0  0  0  0  0  0
  -22.7251  -29.2294   19.8775 H   0  0  0  0  0  0
  -25.1274  -36.1992   25.0829 H   0  0  0  0  0  0
  -20.9951  -28.3202   24.1454 H   0  0  0  0  0  0
  -20.5651  -26.2239   23.3602 H   0  0  0  0  0  0
  -21.6629  -26.7427   22.1216 H   0  0  0  0  0  0
  -19.6900  -25.6299   21.1223 H   0  0  0  0  0  0
  -19.6686  -27.3203   20.6757 H   0  0  0  0  0  0
  -17.4189  -26.6665   21.4025 H   0  0  0  0  0  0
  -18.0314  -26.0041   22.9008 H   0  0  0  0  0  0
  -19.7918  -30.7233   24.2310 H   0  0  0  0  0  0
  -17.5002  -31.6257   24.5152 H   0  0  0  0  0  0
  -15.5340  -30.2991   23.7618 H   0  0  0  0  0  0
  -15.8657  -28.0823   22.7041 H   0  0  0  0  0  0
  -24.5903  -30.7048   25.7844 H   0  0  0  0  0  0
  -24.8943  -32.2837   26.4993 H   0  0  0  0  0  0
  -25.8119  -30.8833   27.0226 H   0  0  0  0  0  0
  -26.2772  -29.6848   24.1118 H   0  0  0  0  0  0
  -27.4052  -29.7271   25.4487 H   0  0  0  0  0  0
  -27.8605  -30.4390   23.9164 H   0  0  0  0  0  0
  -27.2683  -33.3581   26.2119 H   0  0  0  0  0  0
  -28.3824  -32.6900   25.0275 H   0  0  0  0  0  0
  -28.0755  -31.8380   26.5334 H   0  0  0  0  0  0
  -28.2588  -38.0123   24.7511 H   0  0  0  0  0  0
  -28.1084  -36.2655   24.6248 H   0  0  0  0  0  0
  -27.2301  -37.1426   25.8855 H   0  0  0  0  0  0
  -20.9237  -29.8737   21.6986 H   0  0  0  0  0  0
  -26.0177  -38.2881   24.1425 H   0  0  0  0  0  0
  -30.0161  -18.9997   16.4419 H   0  0  0  0  0  0
  -28.5816  -15.3128   18.0757 H   0  0  0  0  0  0
  -31.2033  -17.8053   20.4295 H   0  0  0  0  0  0
  -32.9248  -21.6463   17.5936 H   0  0  0  0  0  0
  -32.6901  -23.3477   17.8633 H   0  0  0  0  0  0
  -31.4224  -22.4181   17.0503 H   0  0  0  0  0  0
  -31.9043  -24.8871   19.6831 H   0  0  0  0  0  0
  -30.6873  -24.4639   18.4662 H   0  0  0  0  0  0
  -27.7606  -24.9149   20.0474 H   0  0  0  0  0  0
  -28.6833  -25.4327   18.6272 H   0  0  0  0  0  0
  -28.7332  -17.3706   15.1053 H   0  0  0  0  0  0
  -28.1484  -15.9262   15.7793 H   0  0  0  0  0  0
  -31.5064  -20.2828   17.6584 H   0  0  0  0  0  0
  -28.9275  -15.2304   20.7421 H   0  0  0  0  0  0
  1 25  1  0  0  0
  1 30  2  0  0  0
  1 86  1  0  0  0
  2  3  1  0  0  0
  2 25  1  0  0  0
  2 89  1  0  0  0
  2 90  1  0  0  0
  3  4  1  0  0  0
  3 91  1  0  0  0
  3 92  1  0  0  0
  4  5  1  0  0  0
  4 93  1  0  0  0
  4 94  1  0  0  0
  5  6  1  0  0  0
  5 26  1  0  0  0
  5 95  1  0  0  0
  6 25  1  0  0  0
  6 96  1  0  0  0
  6 97  1  0  0  0
  7  8  2  0  0  0
  7 26  1  0  0  0
  7 29  1  0  0  0
  8  9  1  0  0  0
  8 22  1  0  0  0
  9 10  1  0  0  0
  9 27  2  0  0  0
 10 11  2  0  0  0
 10 15  1  0  0  0
 11 12  1  0  0  0
 11 98  1  0  0  0
 12 13  2  0  0  0
 12 99  1  0  0  0
 13 14  1  0  0  0
 13 31  1  0  0  0
 14 15  2  0  0  0
 14100  1  0  0  0
 15101  1  0  0  0
 16 17  2  0  0  0
 16 21  1  0  0  0
 16 31  1  0  0  0
 17 18  1  0  0  0
 17102  1  0  0  0
 18 19  2  0  0  0
 18103  1  0  0  0
 19 20  1  0  0  0
 19 24  1  0  0  0
 20 21  2  0  0  0
 20104  1  0  0  0
 21 23  1  0  0  0
 22 28  1  0  0  0
 22 32  2  0  0  0
 26 27  1  0  0  0
 28105  1  0  0  0
 28106  1  0  0  0
 29107  1  0  0  0
 29108  1  0  0  0
 33 34  1  0  0  0
 33 66  1  0  0  0
 33 70  2  0  0  0
 34 36  1  0  0  0
 34 59  1  0  0  0
 34109  1  0  0  0
 35 44  2  0  0  0
 35 45  1  0  0  0
 35 68  1  0  0  0
 36 56  1  0  0  0
 36110  1  0  0  0
 37 39  1  0  0  0
 37 47  1  0  0  0
 37 66  1  0  0  0
 37111  1  0  0  0
 38 43  2  0  0  0
 38 46  1  0  0  0
 38 47  1  0  0  0
 39 64  1  0  0  0
 39 67  2  0  0  0
 40 52  1  0  0  0
 40 53  2  0  0  0
 40 58  1  0  0  0
 41112  1  0  0  0
 41113  1  0  0  0
 41114  1  0  0  0
 41 48  1  0  0  0
 42 43  1  0  0  0
 42 66  1  0  0  0
 42115  1  0  0  0
 42116  1  0  0  0
 43 44  1  0  0  0
 44117  1  0  0  0
 45 46  2  0  0  0
 45118  1  0  0  0
 46119  1  0  0  0
 47120  1  0  0  0
 47121  1  0  0  0
 48 56  1  0  0  0
 48 65  1  0  0  0
 48122  1  0  0  0
 49 50  1  0  0  0
 49 53  1  0  0  0
 49 64  1  0  0  0
 49123  1  0  0  0
 50 51  1  0  0  0
 50124  1  0  0  0
 50125  1  0  0  0
 51 52  1  0  0  0
 51126  1  0  0  0
 51127  1  0  0  0
 52128  1  0  0  0
 52129  1  0  0  0
 53 54  1  0  0  0
 54 55  2  0  0  0
 54130  1  0  0  0
 55 57  1  0  0  0
 55131  1  0  0  0
 56 69  2  0  0  0
 57 58  2  0  0  0
 57132  1  0  0  0
 58133  1  0  0  0
 59 60  1  0  0  0
 59 61  1  0  0  0
 59 62  1  0  0  0
 60134  1  0  0  0
 60135  1  0  0  0
 60136  1  0  0  0
 61137  1  0  0  0
 61138  1  0  0  0
 61139  1  0  0  0
 62140  1  0  0  0
 62141  1  0  0  0
 62142  1  0  0  0
 63 65  1  0  0  0
 63143  1  0  0  0
 63144  1  0  0  0
 63145  1  0  0  0
 64146  1  0  0  0
 65147  1  0  0  0
 68 82  1  0  0  0
 71 74  2  0  0  0
 71 75  1  0  0  0
 71148  1  0  0  0
 72 74  1  0  0  0
 72 76  2  0  0  0
 72149  1  0  0  0
 73 75  2  0  0  0
 73 76  1  0  0  0
 73150  1  0  0  0
 74 84  1  0  0  0
 75 85  1  0  0  0
 76 86  1  0  0  0
 77 78  1  0  0  0
 77 80  1  0  0  0
 77 83  2  0  0  0
 78 85  1  0  0  0
 78 87  2  0  0  0
 79 81  1  0  0  0
 79 82  1  0  0  0
 79 88  2  0  0  0
 80151  1  0  0  0
 80152  1  0  0  0
 80153  1  0  0  0
 81 83  1  0  0  0
 81154  1  0  0  0
 81155  1  0  0  0
 82156  1  0  0  0
 82157  1  0  0  0
 84158  1  0  0  0
 84159  1  0  0  0
 85160  1  0  0  0
 86161  1  0  0  0
M  ISO  4   1 100  68 101  82 101  86 100
M  END
> <chiral flag>
0

> <version>
0

> <s_m_source_file>
/data/baiqing/PycharmProjects/Reinvent-master-3.2/result/LINK_invent/BTK/process_docking_weight1_custom_product_contain_oxygen_bond_distance_aromatic_linkinvent_7_9_3/rearranged_h_0172.sdf

> <i_m_source_file_index>
2

> <r_mmod_Potential_Energy-OPLS-2005>
126.596794128418

> <r_mmod_Stretch_Energy-OPLS-2005>
33.2305335998535

> <r_mmod_Bend_Energy-OPLS-2005>
114.936004638672

> <r_mmod_Torsional_Energy-OPLS-2005>
297.734191894531

> <r_mmod_Improper_Torsional_Energy-OPLS-2005>
16.5378093719482

> <r_mmod_Van_der_Waal_Energy-OPLS-2005>
163.368011474609

> <r_mmod_Electrostatic_Energy-OPLS-2005>
-214.953918457031

> <r_mmod_Solvation_Energy-OPLS-2005>
-303.902954101562

> <b_mmod_Minimization_Converged-OPLS-2005>
0

> <r_mmod_RMS_Derivative-OPLS-2005>
1.11559391021729

$$$$
2
                    3D
 Structure written by MMmdl.
158166  0  0  1  0            999 V2000
  -30.6790  -14.5860   20.4756 C   0  0  0  0  0  0
  -30.4073  -12.3623   19.4349 C   0  0  0  0  0  0
  -29.4840  -12.5034   18.2067 C   0  0  0  0  0  0
  -28.0085  -12.3595   18.6246 C   0  0  0  0  0  0
  -27.6448  -13.2260   19.8610 C   0  0  2  0  0  0
  -28.6948  -13.0955   20.9881 C   0  0  0  0  0  0
  -25.2506  -13.8193   20.5681 C   0  0  0  0  0  0
  -24.1801  -13.0430   20.9219 C   0  0  0  0  0  0
  -24.6392  -11.6914   20.8758 C   0  0  0  0  0  0
  -23.9068  -10.4297   21.0415 C   0  0  0  0  0  0
  -24.3619   -9.4208   21.9192 C   0  0  0  0  0  0
  -23.6294   -8.2237   22.0760 C   0  0  0  0  0  0
  -22.4284   -8.0274   21.3539 C   0  0  0  0  0  0
  -21.9916   -9.0254   20.4650 C   0  0  0  0  0  0
  -22.7242  -10.2136   20.3061 C   0  0  0  0  0  0
  -21.6857   -6.0726   22.5272 C   0  0  0  0  0  0
  -21.4023   -6.5639   23.8205 C   0  0  0  0  0  0
  -21.3660   -5.6791   24.9171 C   0  0  0  0  0  0
  -21.6042   -4.3056   24.7227 C   0  0  0  0  0  0
  -21.8818   -3.8144   23.4353 C   0  0  0  0  0  0
  -21.9195   -4.6953   22.3409 C   0  0  0  0  0  0
  -22.7817  -13.5199   21.1876 C   0  0  0  0  0  0
  -22.1663   -4.2126   21.0984 F   0  0  0  0  0  0
  -21.5624   -3.4555   25.7751 F   0  0  0  0  0  0
  -30.0049  -13.4002   20.4022 N   0  0  0  0  0  0
  -26.2951  -12.9402   20.3350 N   0  0  0  0  0  0
  -25.9324  -11.6539   20.5787 N   0  0  0  0  0  0
  -22.0495  -12.8162   22.0433 N   0  0  0  0  0  0
  -25.4171  -15.1910   20.4078 N   0  0  0  0  0  0
  -31.8535  -14.6667   20.1125 O   0  0  0  0  0  0
  -21.6652   -6.8873   21.4234 O   0  0  0  0  0  0
  -22.3505  -14.5521   20.6750 O   0  0  0  0  0  0
  -24.6168  -31.8678   23.2080 C   0  0  0  0  0  0
  -25.9051  -32.4812   23.8388 C   0  0  1  0  0  0
  -27.2105  -27.3967   20.1003 C   0  0  0  0  0  0
  -25.5898  -33.8602   24.2324 N   0  0  0  0  0  0
  -23.4036  -30.4891   21.5540 C   0  0  2  0  0  0
  -24.8453  -28.9531   20.1117 C   0  0  0  0  0  0
  -22.7428  -29.4641   22.5035 C   0  0  0  0  0  0
  -18.0257  -28.1362   22.8486 C   0  0  0  0  0  0
  -24.1485  -36.7322   23.2631 C   0  0  0  0  0  0
  -25.9340  -30.8214   21.3625 C   0  0  0  0  0  0
  -26.0103  -29.4524   20.7094 C   0  0  0  0  0  0
  -27.2018  -28.6831   20.6965 C   0  0  0  0  0  0
  -26.0316  -26.9231   19.4903 C   0  0  0  0  0  0
  -24.8523  -27.6908   19.4955 C   0  0  0  0  0  0
  -23.6078  -29.8237   20.1674 C   0  0  0  0  0  0
  -25.4096  -36.3108   24.0347 C   0  0  1  0  0  0
  -20.5847  -28.3649   23.1342 C   0  0  2  0  0  0
  -20.6760  -26.9402   22.5427 C   0  0  0  0  0  0
  -19.5749  -26.6379   21.5230 C   0  0  0  0  0  0
  -18.1908  -26.7905   22.1620 C   0  0  0  0  0  0
  -19.1508  -28.8824   23.2894 C   0  0  0  0  0  0
  -18.9438  -30.1420   23.8925 C   0  0  0  0  0  0
  -17.6450  -30.6576   24.0560 C   0  0  0  0  0  0
  -25.9039  -34.9466   23.5139 C   0  0  0  0  0  0
  -16.5337  -29.9081   23.6326 C   0  0  0  0  0  0
  -16.7252  -28.6489   23.0362 C   0  0  0  0  0  0
  -26.4460  -31.6581   25.0710 C   0  0  0  0  0  0
  -25.3701  -31.3663   26.1450 C   0  0  0  0  0  0
  -27.0305  -30.3039   24.6059 C   0  0  0  0  0  0
  -27.6069  -32.4264   25.7452 C   0  0  0  0  0  0
  -27.5603  -37.1773   24.8438 C   0  0  0  0  0  0
  -21.4163  -29.3023   22.3763 N   0  0  0  0  0  0
  -26.4277  -37.3812   23.9434 N   0  0  0  0  0  0
  -24.6707  -31.0719   22.1016 N   0  0  0  0  0  0
  -23.4198  -28.8190   23.3077 O   0  0  0  0  0  0
  -28.3312  -26.5894   20.1085 O   0  0  0  0  0  0
  -26.5631  -34.8936   22.4721 O   0  0  0  0  0  0
  -23.5364  -32.1459   23.7470 O   0  0  0  0  0  0
  -31.4675  -19.7434   21.0154 C   0  0  0  0  0  0
  -31.7612  -17.3400   21.2612 C   0  0  0  0  0  0
  -30.1354  -19.5718   20.5760 C   0  0  0  0  0  0
  -30.4481  -17.0881   20.7983 C   0  0  0  0  0  0
  -32.2687  -18.6451   21.3579 C   0  0  0  0  0  0
  -29.6325  -18.2258   20.4640 C   0  0  0  0  0  0
  -29.3539  -20.8349   20.3651 C   0  0  0  0  0  0
  -28.3500  -24.0493   20.1577 C   0  0  0  0  0  0
  -28.1986  -25.3961   20.9238 C   0  0  0  0  0  0
  -29.7787  -23.4413   20.0284 C   0  0  2  0  0  0
  -30.5365  -24.1754   18.9020 C   0  0  0  0  0  0
  -29.9536  -15.7162   20.7321 N   0  0  0  0  0  0
  -29.9442  -21.9471   19.8470 N   0  0  0  0  0  0
  -28.0910  -20.9428   20.7741 N   0  3  0  0  0  0
  -27.3416  -23.4633   19.7456 O   0  0  0  0  0  0
  -33.5327  -18.8452   21.8005 F   0  0  0  0  0  0
  -28.3585  -18.0186   20.0525 F   0  0  0  0  0  0
  -30.7424  -25.4546   19.2130 F   0  0  0  0  0  0
  -29.8547  -24.1202   17.7564 F   0  0  0  0  0  0
  -31.7232  -23.5942   18.7160 F   0  0  0  0  0  0
  -31.4515  -12.4499   19.1297 H   0  0  0  0  0  0
  -30.3075  -11.3697   19.8781 H   0  0  0  0  0  0
  -29.7316  -11.7539   17.4538 H   0  0  0  0  0  0
  -29.6360  -13.4745   17.7317 H   0  0  0  0  0  0
  -27.8283  -11.3076   18.8428 H   0  0  0  0  0  0
  -27.3542  -12.6130   17.7895 H   0  0  0  0  0  0
  -27.6574  -14.2621   19.5201 H   0  0  0  0  0  0
  -28.6943  -12.0866   21.4033 H   0  0  0  0  0  0
  -28.4619  -13.7651   21.8175 H   0  0  0  0  0  0
  -25.2761   -9.5683   22.4776 H   0  0  0  0  0  0
  -23.9997   -7.4638   22.7489 H   0  0  0  0  0  0
  -21.0838   -8.8776   19.8970 H   0  0  0  0  0  0
  -22.3693  -10.9676   19.6184 H   0  0  0  0  0  0
  -21.2032   -7.6150   23.9693 H   0  0  0  0  0  0
  -21.1478   -6.0542   25.9063 H   0  0  0  0  0  0
  -22.0601   -2.7605   23.2873 H   0  0  0  0  0  0
  -22.4144  -11.9807   22.4742 H   0  0  0  0  0  0
  -21.1123  -13.1170   22.2698 H   0  0  0  0  0  0
  -24.6405  -15.8361   20.5113 H   0  0  0  0  0  0
  -26.2454  -15.6333   20.0302 H   0  0  0  0  0  0
  -26.7114  -32.5524   23.1145 H   0  0  0  0  0  0
  -24.9950  -33.9755   25.0408 H   0  0  0  0  0  0
  -22.6943  -31.3070   21.4202 H   0  0  0  0  0  0
  -23.3780  -35.9626   23.3215 H   0  0  0  0  0  0
  -24.3594  -36.9027   22.2054 H   0  0  0  0  0  0
  -23.7190  -37.6475   23.6720 H   0  0  0  0  0  0
  -26.0366  -31.5849   20.5897 H   0  0  0  0  0  0
  -26.8238  -30.8833   21.9748 H   0  0  0  0  0  0
  -28.1002  -29.0530   21.1686 H   0  0  0  0  0  0
  -26.0227  -25.9527   19.0143 H   0  0  0  0  0  0
  -23.9572  -27.3039   19.0265 H   0  0  0  0  0  0
  -23.7026  -30.6012   19.4082 H   0  0  0  0  0  0
  -22.7301  -29.2402   19.8803 H   0  0  0  0  0  0
  -25.1243  -36.1973   25.0837 H   0  0  0  0  0  0
  -20.9901  -28.3223   24.1482 H   0  0  0  0  0  0
  -20.5690  -26.2270   23.3608 H   0  0  0  0  0  0
  -21.6620  -26.7472   22.1204 H   0  0  0  0  0  0
  -19.6935  -25.6306   21.1225 H   0  0  0  0  0  0
  -19.6683  -27.3212   20.6778 H   0  0  0  0  0  0
  -17.4182  -26.6660   21.3995 H   0  0  0  0  0  0
  -18.0287  -26.0034   22.8996 H   0  0  0  0  0  0
  -19.7929  -30.7186   24.2348 H   0  0  0  0  0  0
  -17.5020  -31.6277   24.5127 H   0  0  0  0  0  0
  -15.5345  -30.2988   23.7645 H   0  0  0  0  0  0
  -15.8650  -28.0809   22.7111 H   0  0  0  0  0  0
  -24.5920  -30.6969   25.7743 H   0  0  0  0  0  0
  -24.8819  -32.2779   26.4881 H   0  0  0  0  0  0
  -25.8005  -30.8824   27.0224 H   0  0  0  0  0  0
  -26.2836  -29.6770   24.1167 H   0  0  0  0  0  0
  -27.4138  -29.7300   25.4505 H   0  0  0  0  0  0
  -27.8644  -30.4381   23.9178 H   0  0  0  0  0  0
  -27.2781  -33.3620   26.1997 H   0  0  0  0  0  0
  -28.3893  -32.6701   25.0242 H   0  0  0  0  0  0
  -28.0728  -31.8365   26.5362 H   0  0  0  0  0  0
  -28.2505  -38.0178   24.7642 H   0  0  0  0  0  0
  -28.1205  -36.2707   24.6060 H   0  0  0  0  0  0
  -27.2347  -37.1174   25.8839 H   0  0  0  0  0  0
  -20.9357  -29.8746   21.6969 H   0  0  0  0  0  0
  -26.0175  -38.2880   24.1511 H   0  0  0  0  0  0
  -31.8893  -20.7309   21.1367 H   0  0  0  0  0  0
  -32.4108  -16.5371   21.5681 H   0  0  0  0  0  0
  -28.9420  -25.4337   21.7187 H   0  0  0  0  0  0
  -27.2303  -25.3802   21.4268 H   0  0  0  0  0  0
  -30.3052  -23.6731   20.9552 H   0  0  0  0  0  0
  -28.9578  -15.5981   20.8380 H   0  0  0  0  0  0
  -30.7803  -21.7581   19.3064 H   0  0  0  0  0  0
  -27.5911  -20.1289   21.0960 H   0  0  0  0  0  0
  -27.5656  -21.7718   20.5132 H   0  0  0  0  0  0
  1 25  1  0  0  0
  1 30  2  0  0  0
  1 82  1  0  0  0
  2  3  1  0  0  0
  2 25  1  0  0  0
  2 91  1  0  0  0
  2 92  1  0  0  0
  3  4  1  0  0  0
  3 93  1  0  0  0
  3 94  1  0  0  0
  4  5  1  0  0  0
  4 95  1  0  0  0
  4 96  1  0  0  0
  5  6  1  0  0  0
  5 26  1  0  0  0
  5 97  1  0  0  0
  6 25  1  0  0  0
  6 98  1  0  0  0
  6 99  1  0  0  0
  7  8  2  0  0  0
  7 26  1  0  0  0
  7 29  1  0  0  0
  8  9  1  0  0  0
  8 22  1  0  0  0
  9 10  1  0  0  0
  9 27  2  0  0  0
 10 11  2  0  0  0
 10 15  1  0  0  0
 11 12  1  0  0  0
 11100  1  0  0  0
 12 13  2  0  0  0
 12101  1  0  0  0
 13 14  1  0  0  0
 13 31  1  0  0  0
 14 15  2  0  0  0
 14102  1  0  0  0
 15103  1  0  0  0
 16 17  2  0  0  0
 16 21  1  0  0  0
 16 31  1  0  0  0
 17 18  1  0  0  0
 17104  1  0  0  0
 18 19  2  0  0  0
 18105  1  0  0  0
 19 20  1  0  0  0
 19 24  1  0  0  0
 20 21  2  0  0  0
 20106  1  0  0  0
 21 23  1  0  0  0
 22 28  1  0  0  0
 22 32  2  0  0  0
 26 27  1  0  0  0
 28107  1  0  0  0
 28108  1  0  0  0
 29109  1  0  0  0
 29110  1  0  0  0
 33 34  1  0  0  0
 33 66  1  0  0  0
 33 70  2  0  0  0
 34 36  1  0  0  0
 34 59  1  0  0  0
 34111  1  0  0  0
 35 44  2  0  0  0
 35 45  1  0  0  0
 35 68  1  0  0  0
 36 56  1  0  0  0
 36112  1  0  0  0
 37 39  1  0  0  0
 37 47  1  0  0  0
 37 66  1  0  0  0
 37113  1  0  0  0
 38 43  2  0  0  0
 38 46  1  0  0  0
 38 47  1  0  0  0
 39 64  1  0  0  0
 39 67  2  0  0  0
 40 52  1  0  0  0
 40 53  2  0  0  0
 40 58  1  0  0  0
 41114  1  0  0  0
 41115  1  0  0  0
 41116  1  0  0  0
 41 48  1  0  0  0
 42 43  1  0  0  0
 42 66  1  0  0  0
 42117  1  0  0  0
 42118  1  0  0  0
 43 44  1  0  0  0
 44119  1  0  0  0
 45 46  2  0  0  0
 45120  1  0  0  0
 46121  1  0  0  0
 47122  1  0  0  0
 47123  1  0  0  0
 48 56  1  0  0  0
 48 65  1  0  0  0
 48124  1  0  0  0
 49 50  1  0  0  0
 49 53  1  0  0  0
 49 64  1  0  0  0
 49125  1  0  0  0
 50 51  1  0  0  0
 50126  1  0  0  0
 50127  1  0  0  0
 51 52  1  0  0  0
 51128  1  0  0  0
 51129  1  0  0  0
 52130  1  0  0  0
 52131  1  0  0  0
 53 54  1  0  0  0
 54 55  2  0  0  0
 54132  1  0  0  0
 55 57  1  0  0  0
 55133  1  0  0  0
 56 69  2  0  0  0
 57 58  2  0  0  0
 57134  1  0  0  0
 58135  1  0  0  0
 59 60  1  0  0  0
 59 61  1  0  0  0
 59 62  1  0  0  0
 60136  1  0  0  0
 60137  1  0  0  0
 60138  1  0  0  0
 61139  1  0  0  0
 61140  1  0  0  0
 61141  1  0  0  0
 62142  1  0  0  0
 62143  1  0  0  0
 62144  1  0  0  0
 63 65  1  0  0  0
 63145  1  0  0  0
 63146  1  0  0  0
 63147  1  0  0  0
 64148  1  0  0  0
 65149  1  0  0  0
 68 79  1  0  0  0
 71 73  2  0  0  0
 71 75  1  0  0  0
 71150  1  0  0  0
 72 74  1  0  0  0
 72 75  2  0  0  0
 72151  1  0  0  0
 73 76  1  0  0  0
 73 77  1  0  0  0
 74 76  2  0  0  0
 74 82  1  0  0  0
 75 86  1  0  0  0
 76 87  1  0  0  0
 77 83  1  0  0  0
 77 84  2  0  0  0
 78 79  1  0  0  0
 78 80  1  0  0  0
 78 85  2  0  0  0
 79152  1  0  0  0
 79153  1  0  0  0
 80 81  1  0  0  0
 80 83  1  0  0  0
 80154  1  0  0  0
 81 88  1  0  0  0
 81 89  1  0  0  0
 81 90  1  0  0  0
 82155  1  0  0  0
 83156  1  0  0  0
 84157  1  0  0  0
 84158  1  0  0  0
M  CHG  1  84   1
M  ISO  4   1 100  68 101  79 101  82 100
M  END
> <chiral flag>
0

> <version>
0

> <s_m_source_file>
/data/baiqing/PycharmProjects/Reinvent-master-3.2/result/LINK_invent/BTK/process_docking_weight1_custom_product_contain_oxygen_bond_distance_aromatic_linkinvent_7_9_3/rearranged_h_0172.sdf

> <i_m_source_file_index>
3

> <r_mmod_Potential_Energy-OPLS-2005>
-385.992980957031

> <r_mmod_Stretch_Energy-OPLS-2005>
58.4987945556641

> <r_mmod_Bend_Energy-OPLS-2005>
127.099197387695

> <r_mmod_Torsional_Energy-OPLS-2005>
262.402862548828

> <r_mmod_Improper_Torsional_Energy-OPLS-2005>
8.08608531951904

> <r_mmod_Van_der_Waal_Energy-OPLS-2005>
160.133636474609

> <r_mmod_Electrostatic_Energy-OPLS-2005>
-596.065795898438

> <r_mmod_Solvation_Energy-OPLS-2005>
-437.225311279297

> <b_mmod_Minimization_Converged-OPLS-2005>
0

> <r_mmod_RMS_Derivative-OPLS-2005>
3.61847805976868

$$$$
3
                    3D
 Structure written by MMmdl.
160168  0  0  1  0            999 V2000
  -29.4843  -15.5224   20.6927 C   0  0  0  0  0  0
  -30.3084  -13.1197   19.6987 C   0  0  0  0  0  0
  -29.5279  -12.6977   18.4076 C   0  0  0  0  0  0
  -28.0849  -12.2737   18.7398 C   0  0  0  0  0  0
  -27.5131  -13.2057   19.8292 C   0  0  2  0  0  0
  -28.4042  -13.2732   21.0636 C   0  0  0  0  0  0
  -25.1856  -13.8006   20.5508 C   0  0  0  0  0  0
  -24.1298  -13.0279   20.9251 C   0  0  0  0  0  0
  -24.5907  -11.6766   20.8744 C   0  0  0  0  0  0
  -23.8742  -10.4184   21.0480 C   0  0  0  0  0  0
  -24.3425   -9.4130   21.9208 C   0  0  0  0  0  0
  -23.6179   -8.2127   22.0747 C   0  0  0  0  0  0
  -22.4167   -8.0150   21.3538 C   0  0  0  0  0  0
  -21.9737   -9.0086   20.4644 C   0  0  0  0  0  0
  -22.6980  -10.1997   20.3083 C   0  0  0  0  0  0
  -21.6807   -6.0647   22.5295 C   0  0  0  0  0  0
  -21.3980   -6.5583   23.8217 C   0  0  0  0  0  0
  -21.3655   -5.6752   24.9190 C   0  0  0  0  0  0
  -21.6045   -4.3015   24.7257 C   0  0  0  0  0  0
  -21.8821   -3.8090   23.4388 C   0  0  0  0  0  0
  -21.9184   -4.6887   22.3432 C   0  0  0  0  0  0
  -22.7428  -13.5136   21.2020 C   0  0  0  0  0  0
  -22.1661   -4.2077   21.1008 F   0  0  0  0  0  0
  -21.5642   -3.4516   25.7778 F   0  0  0  0  0  0
  -29.4825  -14.0775   20.5883 N   0  0  0  0  0  0
  -26.1922  -12.9030   20.2635 N   0  0  0  0  0  0
  -25.8673  -11.6245   20.5403 N   0  0  0  0  0  0
  -22.0133  -12.8150   22.0633 N   0  0  0  0  0  0
  -25.3648  -15.1741   20.4025 N   0  0  0  0  0  0
  -30.6535  -15.8352   20.3203 O   0  0  0  0  0  0
  -21.6575   -6.8743   21.4236 O   0  0  0  0  0  0
  -22.3175  -14.5467   20.6877 O   0  0  0  0  0  0
  -24.6530  -31.9619   23.2159 C   0  0  0  0  0  0
  -25.9492  -32.5133   23.8548 C   0  0  1  0  0  0
  -25.3173  -27.2140   20.7885 C   0  0  0  0  0  0
  -25.6428  -33.8872   24.2567 N   0  0  0  0  0  0
  -23.4469  -30.5813   21.5986 C   0  0  2  0  0  0
  -24.8619  -29.3933   19.7170 C   0  0  0  0  0  0
  -23.1468  -29.5028   22.6796 C   0  0  0  0  0  0
  -18.9514  -27.6641   22.2850 C   0  0  0  0  0  0
  -24.1518  -36.7372   23.2598 C   0  0  0  0  0  0
  -25.9598  -30.8498   21.4136 C   0  0  0  0  0  0
  -25.8364  -29.5354   20.6924 C   0  0  0  0  0  0
  -26.1973  -28.2954   21.2273 C   0  0  0  0  0  0
  -25.6336  -27.1053   19.4344 C   0  0  0  0  0  0
  -24.9440  -28.2202   18.8921 C   0  0  0  0  0  0
  -23.5693  -30.1084   20.0777 C   0  0  0  0  0  0
  -25.4147  -36.3234   24.0317 C   0  0  1  0  0  0
  -21.5964  -27.8813   23.5609 C   0  0  2  0  0  0
  -22.8140  -26.2313   22.7442 C   0  0  0  0  0  0
  -21.2982  -25.3355   20.8862 C   0  0  0  0  0  0
  -19.4609  -26.3885   21.0968 C   0  0  0  0  0  0
  -19.9019  -28.3253   23.2449 C   0  0  0  0  0  0
  -19.3710  -29.5317   23.9252 C   0  0  0  0  0  0
  -18.0440  -30.0574   23.8975 C   0  0  0  0  0  0
  -25.9167  -34.9650   23.5134 C   0  0  0  0  0  0
  -17.0879  -29.3127   23.2002 C   0  0  0  0  0  0
  -17.5441  -28.1712   22.4365 C   0  0  0  0  0  0
  -26.4590  -31.6697   25.0870 C   0  0  0  0  0  0
  -25.3686  -31.3792   26.1446 C   0  0  0  0  0  0
  -27.0452  -30.3128   24.6341 C   0  0  0  0  0  0
  -27.6144  -32.4288   25.7792 C   0  0  0  0  0  0
  -27.5613  -37.1884   24.8453 C   0  0  0  0  0  0
  -21.9398  -29.2564   23.0952 N   0  0  0  0  0  0
  -26.4316  -37.3931   23.9416 N   0  0  0  0  0  0
  -24.6992  -31.2209   22.0775 N   0  0  0  0  0  0
  -24.0167  -28.8600   23.2394 O   0  0  0  0  0  0
  -23.7504  -27.1411   20.6715 O   0  0  0  0  0  0
  -26.5538  -34.9058   22.4575 O   0  0  0  0  0  0
  -23.5735  -32.2284   23.7691 O   0  0  0  0  0  0
  -26.2115  -18.8577   21.9635 C   0  0  0  0  0  0
  -26.2408  -19.5127   19.4165 C   0  0  0  0  0  0
  -27.2539  -17.9118   21.0910 C   0  0  0  0  0  0
  -25.2232  -20.1488   21.6600 C   0  0  0  0  0  0
  -27.1174  -18.4325   19.7794 C   0  0  0  0  0  0
  -25.3851  -20.3148   20.2541 C   0  0  0  0  0  0
  -20.6904  -25.5241   23.0927 C   0  0  0  0  0  0
  -20.4180  -22.7758   22.8153 C   0  0  0  0  0  0
  -21.8971  -23.4891   24.6084 C   0  0  0  0  0  0
  -21.7962  -27.4313   21.2575 C   0  0  0  0  0  0
  -23.1423  -22.6939   22.2253 C   0  0  0  0  0  0
  -21.6172  -23.7307   23.1024 C   0  0  0  0  0  0
  -28.2634  -16.4452   21.2124 N   0  0  0  0  0  0
  -24.1591  -21.2105   22.4240 N   0  0  0  0  0  0
  -19.8135  -25.6735   23.9562 O   0  0  0  0  0  0
  -27.8083  -17.8247   18.7840 F   0  0  0  0  0  0
  -24.6509  -21.2786   19.6405 F   0  0  0  0  0  0
  -31.2441  -13.5943   19.4001 H   0  0  0  0  0  0
  -30.6145  -12.2392   20.2668 H   0  0  0  0  0  0
  -30.0565  -11.9050   17.8724 H   0  0  0  0  0  0
  -29.4937  -13.5530   17.7282 H   0  0  0  0  0  0
  -28.0951  -11.2450   19.1009 H   0  0  0  0  0  0
  -27.4639  -12.2800   17.8450 H   0  0  0  0  0  0
  -27.4439  -14.1821   19.3450 H   0  0  0  0  0  0
  -28.7019  -12.2822   21.4119 H   0  0  0  0  0  0
  -27.9017  -13.7602   21.9019 H   0  0  0  0  0  0
  -25.2566   -9.5652   22.4773 H   0  0  0  0  0  0
  -23.9930   -7.4506   22.7438 H   0  0  0  0  0  0
  -21.0676   -8.8535   19.8947 H   0  0  0  0  0  0
  -22.3395  -10.9524   19.6204 H   0  0  0  0  0  0
  -21.1945   -7.6087   23.9701 H   0  0  0  0  0  0
  -21.1494   -6.0489   25.9090 H   0  0  0  0  0  0
  -22.0617   -2.7556   23.2912 H   0  0  0  0  0  0
  -22.3714  -11.9764   22.4966 H   0  0  0  0  0  0
  -21.0779  -13.1212   22.2927 H   0  0  0  0  0  0
  -24.5792  -15.8062   20.5065 H   0  0  0  0  0  0
  -26.1480  -15.5959   19.9206 H   0  0  0  0  0  0
  -26.7618  -32.5619   23.1323 H   0  0  0  0  0  0
  -25.0705  -34.0017   25.0809 H   0  0  0  0  0  0
  -22.6308  -31.3042   21.6290 H   0  0  0  0  0  0
  -23.3818  -35.9662   23.3238 H   0  0  0  0  0  0
  -24.3645  -36.9009   22.2021 H   0  0  0  0  0  0
  -23.7199  -37.6543   23.6612 H   0  0  0  0  0  0
  -26.2196  -31.6266   20.6910 H   0  0  0  0  0  0
  -26.8108  -30.7484   22.0764 H   0  0  0  0  0  0
  -26.7388  -28.2244   22.1585 H   0  0  0  0  0  0
  -25.4286  -26.1873   18.9043 H   0  0  0  0  0  0
  -24.2862  -28.0744   18.0469 H   0  0  0  0  0  0
  -23.5215  -30.9922   19.4423 H   0  0  0  0  0  0
  -22.7167  -29.4991   19.7837 H   0  0  0  0  0  0
  -25.1291  -36.2109   25.0805 H   0  0  0  0  0  0
  -21.7297  -27.8748   24.6441 H   0  0  0  0  0  0
  -23.0588  -25.5661   23.5697 H   0  0  0  0  0  0
  -23.8801  -26.4048   22.6417 H   0  0  0  0  0  0
  -21.1398  -24.2610   20.8177 H   0  0  0  0  0  0
  -21.7296  -25.4585   19.8880 H   0  0  0  0  0  0
  -19.2547  -26.8247   20.1193 H   0  0  0  0  0  0
  -18.6837  -25.6244   21.1653 H   0  0  0  0  0  0
  -20.0489  -30.0652   24.5790 H   0  0  0  0  0  0
  -17.7707  -30.9375   24.4619 H   0  0  0  0  0  0
  -16.0495  -29.6155   23.1859 H   0  0  0  0  0  0
  -16.7929  -27.6761   21.8395 H   0  0  0  0  0  0
  -24.5882  -30.7212   25.7599 H   0  0  0  0  0  0
  -24.8875  -32.2948   26.4893 H   0  0  0  0  0  0
  -25.7885  -30.8860   27.0221 H   0  0  0  0  0  0
  -26.3088  -29.6942   24.1242 H   0  0  0  0  0  0
  -27.3981  -29.7315   25.4868 H   0  0  0  0  0  0
  -27.9026  -30.4406   23.9729 H   0  0  0  0  0  0
  -27.2790  -33.3561   26.2451 H   0  0  0  0  0  0
  -28.4024  -32.6869   25.0701 H   0  0  0  0  0  0
  -28.0723  -31.8298   26.5675 H   0  0  0  0  0  0
  -28.2568  -38.0250   24.7624 H   0  0  0  0  0  0
  -28.1183  -36.2786   24.6138 H   0  0  0  0  0  0
  -27.2347  -37.1361   25.8861 H   0  0  0  0  0  0
  -21.1725  -29.8364   22.7806 H   0  0  0  0  0  0
  -26.0198  -38.2982   24.1523 H   0  0  0  0  0  0
  -26.1400  -18.5292   22.9898 H   0  0  0  0  0  0
  -26.2068  -19.7410   18.3633 H   0  0  0  0  0  0
  -19.4517  -23.2493   22.9937 H   0  0  0  0  0  0
  -20.4261  -21.8800   23.4361 H   0  0  0  0  0  0
  -20.4048  -22.4207   21.7871 H   0  0  0  0  0  0
  -21.0215  -23.7086   25.2225 H   0  0  0  0  0  0
  -22.7212  -24.0780   25.0037 H   0  0  0  0  0  0
  -22.1591  -22.4449   24.7896 H   0  0  0  0  0  0
  -21.3796  -28.4297   21.2008 H   0  0  0  0  0  0
  -21.3799  -27.4013   20.2436 H   0  0  0  0  0  0
  -23.9010  -23.4673   22.0868 H   0  0  0  0  0  0
  -22.7752  -22.5566   21.2017 H   0  0  0  0  0  0
  -27.7518  -15.8152   21.8139 H   0  0  0  0  0  0
  -24.2413  -21.0407   23.4259 H   0  0  0  0  0  0
  1 25  1  0  0  0
  1 30  2  0  0  0
  1 83  1  0  0  0
  2  3  1  0  0  0
  2 25  1  0  0  0
  2 88  1  0  0  0
  2 89  1  0  0  0
  3  4  1  0  0  0
  3 90  1  0  0  0
  3 91  1  0  0  0
  4  5  1  0  0  0
  4 92  1  0  0  0
  4 93  1  0  0  0
  5  6  1  0  0  0
  5 26  1  0  0  0
  5 94  1  0  0  0
  6 25  1  0  0  0
  6 95  1  0  0  0
  6 96  1  0  0  0
  7  8  2  0  0  0
  7 26  1  0  0  0
  7 29  1  0  0  0
  8  9  1  0  0  0
  8 22  1  0  0  0
  9 10  1  0  0  0
  9 27  2  0  0  0
 10 11  2  0  0  0
 10 15  1  0  0  0
 11 12  1  0  0  0
 11 97  1  0  0  0
 12 13  2  0  0  0
 12 98  1  0  0  0
 13 14  1  0  0  0
 13 31  1  0  0  0
 14 15  2  0  0  0
 14 99  1  0  0  0
 15100  1  0  0  0
 16 17  2  0  0  0
 16 21  1  0  0  0
 16 31  1  0  0  0
 17 18  1  0  0  0
 17101  1  0  0  0
 18 19  2  0  0  0
 18102  1  0  0  0
 19 20  1  0  0  0
 19 24  1  0  0  0
 20 21  2  0  0  0
 20103  1  0  0  0
 21 23  1  0  0  0
 22 28  1  0  0  0
 22 32  2  0  0  0
 26 27  1  0  0  0
 28104  1  0  0  0
 28105  1  0  0  0
 29106  1  0  0  0
 29107  1  0  0  0
 33 34  1  0  0  0
 33 66  1  0  0  0
 33 70  2  0  0  0
 34 36  1  0  0  0
 34 59  1  0  0  0
 34108  1  0  0  0
 35 44  2  0  0  0
 35 45  1  0  0  0
 35 68  1  0  0  0
 36 56  1  0  0  0
 36109  1  0  0  0
 37 39  1  0  0  0
 37 47  1  0  0  0
 37 66  1  0  0  0
 37110  1  0  0  0
 38 43  2  0  0  0
 38 46  1  0  0  0
 38 47  1  0  0  0
 39 64  1  0  0  0
 39 67  2  0  0  0
 40 52  1  0  0  0
 40 53  2  0  0  0
 40 58  1  0  0  0
 41111  1  0  0  0
 41112  1  0  0  0
 41113  1  0  0  0
 41 48  1  0  0  0
 42 43  1  0  0  0
 42 66  1  0  0  0
 42114  1  0  0  0
 42115  1  0  0  0
 43 44  1  0  0  0
 44116  1  0  0  0
 45 46  2  0  0  0
 45117  1  0  0  0
 46118  1  0  0  0
 47119  1  0  0  0
 47120  1  0  0  0
 48 56  1  0  0  0
 48 65  1  0  0  0
 48121  1  0  0  0
 49 50  1  0  0  0
 49 53  1  0  0  0
 49 64  1  0  0  0
 49122  1  0  0  0
 50 51  1  0  0  0
 50123  1  0  0  0
 50124  1  0  0  0
 51 52  1  0  0  0
 51125  1  0  0  0
 51126  1  0  0  0
 52127  1  0  0  0
 52128  1  0  0  0
 53 54  1  0  0  0
 54 55  2  0  0  0
 54129  1  0  0  0
 55 57  1  0  0  0
 55130  1  0  0  0
 56 69  2  0  0  0
 57 58  2  0  0  0
 57131  1  0  0  0
 58132  1  0  0  0
 59 60  1  0  0  0
 59 61  1  0  0  0
 59 62  1  0  0  0
 60133  1  0  0  0
 60134  1  0  0  0
 60135  1  0  0  0
 61136  1  0  0  0
 61137  1  0  0  0
 61138  1  0  0  0
 62139  1  0  0  0
 62140  1  0  0  0
 62141  1  0  0  0
 63 65  1  0  0  0
 63142  1  0  0  0
 63143  1  0  0  0
 63144  1  0  0  0
 64145  1  0  0  0
 65146  1  0  0  0
 68 80  1  0  0  0
 71 73  2  0  0  0
 71 74  1  0  0  0
 71147  1  0  0  0
 72 75  2  0  0  0
 72 76  1  0  0  0
 72148  1  0  0  0
 73 75  1  0  0  0
 73 83  1  0  0  0
 74 76  2  0  0  0
 74 84  1  0  0  0
 75 86  1  0  0  0
 76 87  1  0  0  0
 77 80  1  0  0  0
 77 82  1  0  0  0
 77 85  2  0  0  0
 78149  1  0  0  0
 78150  1  0  0  0
 78151  1  0  0  0
 78 82  1  0  0  0
 79 82  1  0  0  0
 79152  1  0  0  0
 79153  1  0  0  0
 79154  1  0  0  0
 80155  1  0  0  0
 80156  1  0  0  0
 81 82  1  0  0  0
 81 84  1  0  0  0
 81157  1  0  0  0
 81158  1  0  0  0
 83159  1  0  0  0
 84160  1  0  0  0
M  ISO  4   1 100  68 101  80 101  83 100
M  END
> <chiral flag>
0

> <version>
0

> <s_m_source_file>
/data/baiqing/PycharmProjects/Reinvent-master-3.2/result/LINK_invent/BTK/process_docking_weight1_custom_product_contain_oxygen_bond_distance_aromatic_linkinvent_7_9_3/rearranged_h_0172.sdf

> <i_m_source_file_index>
4

> <r_mmod_Potential_Energy-OPLS-2005>
16689.291015625

> <r_mmod_Stretch_Energy-OPLS-2005>
7179.40234375

> <r_mmod_Bend_Energy-OPLS-2005>
1383.14050292969

> <r_mmod_Torsional_Energy-OPLS-2005>
607.235717773438

> <r_mmod_Improper_Torsional_Energy-OPLS-2005>
60.5957794189453

> <r_mmod_Van_der_Waal_Energy-OPLS-2005>
2156.11743164062

> <r_mmod_Electrostatic_Energy-OPLS-2005>
-385.585571289062

> <r_mmod_Solvation_Energy-OPLS-2005>
-220.561447143555

> <b_mmod_Minimization_Converged-OPLS-2005>
0

> <r_mmod_RMS_Derivative-OPLS-2005>
8.9466028213501

$$$$
4
                    3D
 Structure written by MMmdl.
151159  0  0  1  0            999 V2000
  -30.5680  -14.8394   20.4480 C   0  0  0  0  0  0
  -30.4441  -12.5215   19.4642 C   0  0  0  0  0  0
  -29.5125  -12.5106   18.2317 C   0  0  0  0  0  0
  -28.0425  -12.3149   18.6554 C   0  0  0  0  0  0
  -27.6341  -13.2333   19.8376 C   0  0  2  0  0  0
  -28.6843  -13.2132   20.9673 C   0  0  0  0  0  0
  -25.2492  -13.8188   20.5704 C   0  0  0  0  0  0
  -24.1794  -13.0428   20.9223 C   0  0  0  0  0  0
  -24.6392  -11.6909   20.8755 C   0  0  0  0  0  0
  -23.9070  -10.4287   21.0411 C   0  0  0  0  0  0
  -24.3620   -9.4202   21.9187 C   0  0  0  0  0  0
  -23.6294   -8.2238   22.0755 C   0  0  0  0  0  0
  -22.4276   -8.0279   21.3544 C   0  0  0  0  0  0
  -21.9913   -9.0253   20.4647 C   0  0  0  0  0  0
  -22.7244  -10.2131   20.3058 C   0  0  0  0  0  0
  -21.6852   -6.0735   22.5279 C   0  0  0  0  0  0
  -21.4014   -6.5639   23.8212 C   0  0  0  0  0  0
  -21.3659   -5.6792   24.9175 C   0  0  0  0  0  0
  -21.6044   -4.3055   24.7226 C   0  0  0  0  0  0
  -21.8819   -3.8146   23.4347 C   0  0  0  0  0  0
  -21.9193   -4.6962   22.3403 C   0  0  0  0  0  0
  -22.7815  -13.5210   21.1878 C   0  0  0  0  0  0
  -22.1662   -4.2148   21.0980 F   0  0  0  0  0  0
  -21.5628   -3.4539   25.7738 F   0  0  0  0  0  0
  -29.9653  -13.5982   20.3627 N   0  0  0  0  0  0
  -26.2909  -12.9394   20.3247 N   0  0  0  0  0  0
  -25.9319  -11.6537   20.5742 N   0  0  0  0  0  0
  -22.0461  -12.8201   22.0433 N   0  0  0  0  0  0
  -25.4147  -15.1919   20.4125 N   0  0  0  0  0  0
  -31.7837  -14.9279   20.2511 O   0  0  0  0  0  0
  -21.6639   -6.8877   21.4241 O   0  0  0  0  0  0
  -22.3500  -14.5515   20.6722 O   0  0  0  0  0  0
  -24.6366  -31.8508   23.1942 C   0  0  0  0  0  0
  -25.9167  -32.4733   23.8311 C   0  0  1  0  0  0
  -27.2213  -27.2084   20.1496 C   0  0  0  0  0  0
  -25.5940  -33.8536   24.2230 N   0  0  0  0  0  0
  -23.4378  -30.4704   21.5386 C   0  0  2  0  0  0
  -24.8887  -28.9020   20.1218 C   0  0  0  0  0  0
  -22.7532  -29.4580   22.4897 C   0  0  0  0  0  0
  -18.0298  -28.1392   22.8482 C   0  0  0  0  0  0
  -24.1490  -36.7274   23.2641 C   0  0  0  0  0  0
  -25.9884  -30.7451   21.3851 C   0  0  0  0  0  0
  -26.0633  -29.3582   20.7374 C   0  0  0  0  0  0
  -27.2367  -28.5243   20.7410 C   0  0  0  0  0  0
  -26.0254  -26.8290   19.5114 C   0  0  0  0  0  0
  -24.8758  -27.6447   19.4987 C   0  0  0  0  0  0
  -23.6631  -29.7983   20.1588 C   0  0  0  0  0  0
  -25.4118  -36.3056   24.0322 C   0  0  1  0  0  0
  -20.5905  -28.3711   23.1253 C   0  0  2  0  0  0
  -20.6783  -26.9422   22.5405 C   0  0  0  0  0  0
  -19.5758  -26.6384   21.5211 C   0  0  0  0  0  0
  -18.1940  -26.7932   22.1625 C   0  0  0  0  0  0
  -19.1553  -28.8869   23.2861 C   0  0  0  0  0  0
  -18.9471  -30.1467   23.8883 C   0  0  0  0  0  0
  -17.6468  -30.6590   24.0561 C   0  0  0  0  0  0
  -25.9063  -34.9429   23.5082 C   0  0  0  0  0  0
  -16.5360  -29.9085   23.6334 C   0  0  0  0  0  0
  -16.7284  -28.6503   23.0355 C   0  0  0  0  0  0
  -26.4513  -31.6576   25.0723 C   0  0  0  0  0  0
  -25.3715  -31.3744   26.1428 C   0  0  0  0  0  0
  -27.0371  -30.2982   24.6256 C   0  0  0  0  0  0
  -27.6052  -32.4330   25.7504 C   0  0  0  0  0  0
  -27.5577  -37.1793   24.8466 C   0  0  0  0  0  0
  -21.4233  -29.3049   22.3636 N   0  0  0  0  0  0
  -26.4289  -37.3760   23.9408 N   0  0  0  0  0  0
  -24.7068  -31.0419   22.0951 N   0  0  0  0  0  0
  -23.4201  -28.8126   23.3026 O   0  0  0  0  0  0
  -28.2777  -26.2611   20.0667 O   0  0  0  0  0  0
  -26.5642  -34.8913   22.4656 O   0  0  0  0  0  0
  -23.5500  -32.1358   23.7197 O   0  0  0  0  0  0
  -30.0215  -20.0262   22.0664 C   0  0  0  0  0  0
  -30.3352  -18.8559   22.7924 C   0  0  0  0  0  0
  -29.6392  -19.9854   20.7067 C   0  0  0  0  0  0
  -29.9119  -17.3912   20.8644 C   0  0  0  0  0  0
  -30.2944  -17.5715   22.2107 C   0  0  0  0  0  0
  -29.5693  -18.6241   20.1332 C   0  0  0  0  0  0
  -28.4580  -25.2429   21.0507 C   0  0  0  0  0  0
  -28.6495  -23.8434   21.1008 C   0  0  0  0  0  0
  -28.5807  -22.6817   20.0620 C   0  0  0  0  0  0
  -29.6131  -21.4084   19.9095 C   0  0  0  0  0  0
  -29.7499  -15.9752   20.3859 N   0  0  0  0  0  0
  -27.6641  -22.7277   19.2349 O   0  0  0  0  0  0
  -28.8501  -23.3731   22.3418 O   0  0  0  0  0  0
  -30.5867  -16.4948   22.9813 F   0  0  0  0  0  0
  -29.1935  -18.4840   18.8393 F   0  0  0  0  0  0
  -30.8368  -21.9037   20.1041 F   0  0  0  0  0  0
  -29.5802  -21.0575   18.6228 F   0  0  0  0  0  0
  -31.4771  -12.6826   19.1510 H   0  0  0  0  0  0
  -30.4283  -11.5578   19.9756 H   0  0  0  0  0  0
  -29.8104  -11.7226   17.5387 H   0  0  0  0  0  0
  -29.6140  -13.4509   17.6874 H   0  0  0  0  0  0
  -27.9215  -11.2701   18.9441 H   0  0  0  0  0  0
  -27.3783  -12.4731   17.8049 H   0  0  0  0  0  0
  -27.6089  -14.2435   19.4295 H   0  0  0  0  0  0
  -28.7506  -12.2260   21.4269 H   0  0  0  0  0  0
  -28.4092  -13.9092   21.7620 H   0  0  0  0  0  0
  -25.2764   -9.5677   22.4764 H   0  0  0  0  0  0
  -24.0002   -7.4628   22.7473 H   0  0  0  0  0  0
  -21.0844   -8.8774   19.8952 H   0  0  0  0  0  0
  -22.3703  -10.9671   19.6168 H   0  0  0  0  0  0
  -21.2007   -7.6147   23.9716 H   0  0  0  0  0  0
  -21.1481   -6.0522   25.9078 H   0  0  0  0  0  0
  -22.0599   -2.7608   23.2848 H   0  0  0  0  0  0
  -22.4081  -11.9865   22.4824 H   0  0  0  0  0  0
  -21.1077  -13.1220   22.2636 H   0  0  0  0  0  0
  -24.6412  -15.8382   20.5256 H   0  0  0  0  0  0
  -26.2525  -15.6397   20.0669 H   0  0  0  0  0  0
  -26.7234  -32.5373   23.1049 H   0  0  0  0  0  0
  -25.0072  -33.9663   25.0366 H   0  0  0  0  0  0
  -22.7373  -31.2940   21.3853 H   0  0  0  0  0  0
  -23.3754  -35.9604   23.3298 H   0  0  0  0  0  0
  -24.3577  -36.8907   22.2057 H   0  0  0  0  0  0
  -23.7242  -37.6470   23.6675 H   0  0  0  0  0  0
  -26.1323  -31.4980   20.6089 H   0  0  0  0  0  0
  -26.8634  -30.8004   22.0209 H   0  0  0  0  0  0
  -28.1419  -28.8738   21.2172 H   0  0  0  0  0  0
  -25.9792  -25.8629   19.0282 H   0  0  0  0  0  0
  -23.9787  -27.2885   19.0111 H   0  0  0  0  0  0
  -23.7976  -30.5712   19.4012 H   0  0  0  0  0  0
  -22.7801  -29.2362   19.8496 H   0  0  0  0  0  0
  -25.1303  -36.1896   25.0814 H   0  0  0  0  0  0
  -20.9997  -28.3296   24.1374 H   0  0  0  0  0  0
  -20.5679  -26.2324   23.3618 H   0  0  0  0  0  0
  -21.6650  -26.7436   22.1201 H   0  0  0  0  0  0
  -19.6919  -25.6290   21.1251 H   0  0  0  0  0  0
  -19.6692  -27.3185   20.6733 H   0  0  0  0  0  0
  -17.4206  -26.6676   21.4031 H   0  0  0  0  0  0
  -18.0343  -26.0077   22.9025 H   0  0  0  0  0  0
  -19.7947  -30.7288   24.2245 H   0  0  0  0  0  0
  -17.5022  -31.6269   24.5165 H   0  0  0  0  0  0
  -15.5359  -30.2981   23.7666 H   0  0  0  0  0  0
  -15.8685  -28.0816   22.7078 H   0  0  0  0  0  0
  -24.5898  -30.7086   25.7751 H   0  0  0  0  0  0
  -24.8898  -32.2919   26.4818 H   0  0  0  0  0  0
  -25.8014  -30.8943   27.0228 H   0  0  0  0  0  0
  -26.2976  -29.6715   24.1258 H   0  0  0  0  0  0
  -27.4004  -29.7265   25.4806 H   0  0  0  0  0  0
  -27.8874  -30.4236   23.9548 H   0  0  0  0  0  0
  -27.2649  -33.3640   26.2049 H   0  0  0  0  0  0
  -28.3881  -32.6873   25.0348 H   0  0  0  0  0  0
  -28.0698  -31.8476   26.5450 H   0  0  0  0  0  0
  -28.2591  -38.0093   24.7509 H   0  0  0  0  0  0
  -28.1077  -36.2623   24.6295 H   0  0  0  0  0  0
  -27.2294  -37.1445   25.8869 H   0  0  0  0  0  0
  -20.9435  -29.8763   21.6822 H   0  0  0  0  0  0
  -26.0164  -38.2833   24.1407 H   0  0  0  0  0  0
  -30.1472  -20.9784   22.5605 H   0  0  0  0  0  0
  -30.6345  -18.9449   23.8269 H   0  0  0  0  0  0
  -28.4933  -25.7522   22.0044 H   0  0  0  0  0  0
  -28.8020  -15.7574   20.1285 H   0  0  0  0  0  0
  -28.6561  -22.4454   22.3370 H   0  0  0  0  0  0
  1 25  1  0  0  0
  1 30  2  0  0  0
  1 81  1  0  0  0
  2  3  1  0  0  0
  2 25  1  0  0  0
  2 88  1  0  0  0
  2 89  1  0  0  0
  3  4  1  0  0  0
  3 90  1  0  0  0
  3 91  1  0  0  0
  4  5  1  0  0  0
  4 92  1  0  0  0
  4 93  1  0  0  0
  5  6  1  0  0  0
  5 26  1  0  0  0
  5 94  1  0  0  0
  6 25  1  0  0  0
  6 95  1  0  0  0
  6 96  1  0  0  0
  7  8  2  0  0  0
  7 26  1  0  0  0
  7 29  1  0  0  0
  8  9  1  0  0  0
  8 22  1  0  0  0
  9 10  1  0  0  0
  9 27  2  0  0  0
 10 11  2  0  0  0
 10 15  1  0  0  0
 11 12  1  0  0  0
 11 97  1  0  0  0
 12 13  2  0  0  0
 12 98  1  0  0  0
 13 14  1  0  0  0
 13 31  1  0  0  0
 14 15  2  0  0  0
 14 99  1  0  0  0
 15100  1  0  0  0
 16 17  2  0  0  0
 16 21  1  0  0  0
 16 31  1  0  0  0
 17 18  1  0  0  0
 17101  1  0  0  0
 18 19  2  0  0  0
 18102  1  0  0  0
 19 20  1  0  0  0
 19 24  1  0  0  0
 20 21  2  0  0  0
 20103  1  0  0  0
 21 23  1  0  0  0
 22 28  1  0  0  0
 22 32  2  0  0  0
 26 27  1  0  0  0
 28104  1  0  0  0
 28105  1  0  0  0
 29106  1  0  0  0
 29107  1  0  0  0
 33 34  1  0  0  0
 33 66  1  0  0  0
 33 70  2  0  0  0
 34 36  1  0  0  0
 34 59  1  0  0  0
 34108  1  0  0  0
 35 44  2  0  0  0
 35 45  1  0  0  0
 35 68  1  0  0  0
 36 56  1  0  0  0
 36109  1  0  0  0
 37 39  1  0  0  0
 37 47  1  0  0  0
 37 66  1  0  0  0
 37110  1  0  0  0
 38 43  2  0  0  0
 38 46  1  0  0  0
 38 47  1  0  0  0
 39 64  1  0  0  0
 39 67  2  0  0  0
 40 52  1  0  0  0
 40 53  2  0  0  0
 40 58  1  0  0  0
 41111  1  0  0  0
 41112  1  0  0  0
 41113  1  0  0  0
 41 48  1  0  0  0
 42 43  1  0  0  0
 42 66  1  0  0  0
 42114  1  0  0  0
 42115  1  0  0  0
 43 44  1  0  0  0
 44116  1  0  0  0
 45 46  2  0  0  0
 45117  1  0  0  0
 46118  1  0  0  0
 47119  1  0  0  0
 47120  1  0  0  0
 48 56  1  0  0  0
 48 65  1  0  0  0
 48121  1  0  0  0
 49 50  1  0  0  0
 49 53  1  0  0  0
 49 64  1  0  0  0
 49122  1  0  0  0
 50 51  1  0  0  0
 50123  1  0  0  0
 50124  1  0  0  0
 51 52  1  0  0  0
 51125  1  0  0  0
 51126  1  0  0  0
 52127  1  0  0  0
 52128  1  0  0  0
 53 54  1  0  0  0
 54 55  2  0  0  0
 54129  1  0  0  0
 55 57  1  0  0  0
 55130  1  0  0  0
 56 69  2  0  0  0
 57 58  2  0  0  0
 57131  1  0  0  0
 58132  1  0  0  0
 59 60  1  0  0  0
 59 61  1  0  0  0
 59 62  1  0  0  0
 60133  1  0  0  0
 60134  1  0  0  0
 60135  1  0  0  0
 61136  1  0  0  0
 61137  1  0  0  0
 61138  1  0  0  0
 62139  1  0  0  0
 62140  1  0  0  0
 62141  1  0  0  0
 63 65  1  0  0  0
 63142  1  0  0  0
 63143  1  0  0  0
 63144  1  0  0  0
 64145  1  0  0  0
 65146  1  0  0  0
 68 77  1  0  0  0
 71 72  2  0  0  0
 71 73  1  0  0  0
 71147  1  0  0  0
 72 75  1  0  0  0
 72148  1  0  0  0
 73 76  2  0  0  0
 73 80  1  0  0  0
 74 75  2  0  0  0
 74 76  1  0  0  0
 74 81  1  0  0  0
 75 84  1  0  0  0
 76 85  1  0  0  0
 77 78  2  0  0  0
 77149  1  0  0  0
 78 79  1  0  0  0
 78 83  1  0  0  0
 79 80  1  0  0  0
 79 82  2  0  0  0
 80 86  1  0  0  0
 80 87  1  0  0  0
 81150  1  0  0  0
 83151  1  0  0  0
M  ISO  4   1 100  68 101  77 101  81 100
M  END
> <chiral flag>
0

> <version>
0

> <s_m_source_file>
/data/baiqing/PycharmProjects/Reinvent-master-3.2/result/LINK_invent/BTK/process_docking_weight1_custom_product_contain_oxygen_bond_distance_aromatic_linkinvent_7_9_3/rearranged_h_0172.sdf

> <i_m_source_file_index>
5

> <r_mmod_Potential_Energy-OPLS-2005>
444.351470947266

> <r_mmod_Stretch_Energy-OPLS-2005>
169.304626464844

> <r_mmod_Bend_Energy-OPLS-2005>
257.989868164062

> <r_mmod_Torsional_Energy-OPLS-2005>
291.584564208984

> <r_mmod_Improper_Torsional_Energy-OPLS-2005>
13.4936141967773

> <r_mmod_Van_der_Waal_Energy-OPLS-2005>
125.932899475098

> <r_mmod_Electrostatic_Energy-OPLS-2005>
-321.710479736328

> <r_mmod_Solvation_Energy-OPLS-2005>
-222.909759521484

> <b_mmod_Minimization_Converged-OPLS-2005>
0

> <r_mmod_RMS_Derivative-OPLS-2005>
0.172096267342567

$$$$
5
                    3D
 Structure written by MMmdl.
158166  0  0  1  0            999 V2000
  -30.6874  -14.5286   20.5024 C   0  0  0  0  0  0
  -30.4265  -12.3183   19.4465 C   0  0  0  0  0  0
  -29.5074  -12.4982   18.2194 C   0  0  0  0  0  0
  -28.0211  -12.3904   18.6155 C   0  0  0  0  0  0
  -27.6625  -13.2244   19.8739 C   0  0  2  0  0  0
  -28.7067  -13.0377   21.0002 C   0  0  0  0  0  0
  -25.2577  -13.8211   20.5688 C   0  0  0  0  0  0
  -24.1840  -13.0461   20.9169 C   0  0  0  0  0  0
  -24.6423  -11.6940   20.8732 C   0  0  0  0  0  0
  -23.9103  -10.4312   21.0390 C   0  0  0  0  0  0
  -24.3651   -9.4217   21.9166 C   0  0  0  0  0  0
  -23.6316   -8.2254   22.0742 C   0  0  0  0  0  0
  -22.4290   -8.0298   21.3536 C   0  0  0  0  0  0
  -21.9933   -9.0282   20.4640 C   0  0  0  0  0  0
  -22.7280  -10.2149   20.3041 C   0  0  0  0  0  0
  -21.6850   -6.0751   22.5279 C   0  0  0  0  0  0
  -21.4023   -6.5651   23.8215 C   0  0  0  0  0  0
  -21.3659   -5.6792   24.9168 C   0  0  0  0  0  0
  -21.6036   -4.3051   24.7212 C   0  0  0  0  0  0
  -21.8822   -3.8154   23.4331 C   0  0  0  0  0  0
  -21.9201   -4.6980   22.3395 C   0  0  0  0  0  0
  -22.7859  -13.5234   21.1840 C   0  0  0  0  0  0
  -22.1661   -4.2169   21.0970 F   0  0  0  0  0  0
  -21.5640   -3.4533   25.7723 F   0  0  0  0  0  0
  -30.0362  -13.3312   20.4430 N   0  0  0  0  0  0
  -26.3036  -12.9421   20.3366 N   0  0  0  0  0  0
  -25.9359  -11.6560   20.5766 N   0  0  0  0  0  0
  -22.0495  -12.8205   22.0368 N   0  0  0  0  0  0
  -25.4264  -15.1935   20.4115 N   0  0  0  0  0  0
  -31.8429  -14.6753   20.0959 O   0  0  0  0  0  0
  -21.6637   -6.8906   21.4244 O   0  0  0  0  0  0
  -22.3550  -14.5546   20.6704 O   0  0  0  0  0  0
  -24.6195  -31.8634   23.2024 C   0  0  0  0  0  0
  -25.9060  -32.4800   23.8348 C   0  0  1  0  0  0
  -27.2407  -27.3784   20.1154 C   0  0  0  0  0  0
  -25.5889  -33.8592   24.2291 N   0  0  0  0  0  0
  -23.4090  -30.4835   21.5443 C   0  0  2  0  0  0
  -24.8560  -28.9373   20.1110 C   0  0  0  0  0  0
  -22.7448  -29.4625   22.4968 C   0  0  0  0  0  0
  -18.0269  -28.1381   22.8495 C   0  0  0  0  0  0
  -24.1480  -36.7305   23.2641 C   0  0  0  0  0  0
  -25.9395  -30.8152   21.3563 C   0  0  0  0  0  0
  -26.0152  -29.4414   20.7102 C   0  0  0  0  0  0
  -27.2040  -28.6704   20.7064 C   0  0  0  0  0  0
  -26.0560  -26.8973   19.5098 C   0  0  0  0  0  0
  -24.8738  -27.6678   19.5057 C   0  0  0  0  0  0
  -23.6189  -29.8097   20.1604 C   0  0  0  0  0  0
  -25.4094  -36.3090   24.0346 C   0  0  1  0  0  0
  -20.5869  -28.3661   23.1325 C   0  0  2  0  0  0
  -20.6744  -26.9386   22.5441 C   0  0  0  0  0  0
  -19.5732  -26.6378   21.5227 C   0  0  0  0  0  0
  -18.1909  -26.7931   22.1625 C   0  0  0  0  0  0
  -19.1522  -28.8838   23.2907 C   0  0  0  0  0  0
  -18.9445  -30.1446   23.8909 C   0  0  0  0  0  0
  -17.6444  -30.6583   24.0558 C   0  0  0  0  0  0
  -25.9029  -34.9460   23.5120 C   0  0  0  0  0  0
  -16.5334  -29.9085   23.6323 C   0  0  0  0  0  0
  -16.7257  -28.6507   23.0341 C   0  0  0  0  0  0
  -26.4470  -31.6588   25.0694 C   0  0  0  0  0  0
  -25.3737  -31.3687   26.1451 C   0  0  0  0  0  0
  -27.0284  -30.3032   24.6046 C   0  0  0  0  0  0
  -27.6036  -32.4307   25.7475 C   0  0  0  0  0  0
  -27.5575  -37.1798   24.8455 C   0  0  0  0  0  0
  -21.4165  -29.3020   22.3727 N   0  0  0  0  0  0
  -26.4266  -37.3791   23.9428 N   0  0  0  0  0  0
  -24.6753  -31.0695   22.0938 N   0  0  0  0  0  0
  -23.4209  -28.8189   23.3026 O   0  0  0  0  0  0
  -28.4264  -26.6528   20.1631 O   0  0  0  0  0  0
  -26.5607  -34.8927   22.4690 O   0  0  0  0  0  0
  -23.5380  -32.1393   23.7408 O   0  0  0  0  0  0
  -29.6503  -16.6831   18.6497 C   0  0  0  0  0  0
  -29.8124  -18.1171   20.6012 C   0  0  0  0  0  0
  -29.4998  -17.8039   17.8058 C   0  0  0  0  0  0
  -29.8330  -16.8080   20.0405 C   0  0  0  0  0  0
  -29.6305  -19.2819   19.7919 C   0  0  0  0  0  0
  -29.5208  -19.1124   18.3773 C   0  0  0  0  0  0
  -29.3314  -17.5621   16.3431 C   0  0  0  0  0  0
  -28.4315  -24.2346   20.8740 C   0  0  0  0  0  0
  -28.9571  -21.7245   20.1947 C   0  0  0  0  0  0
  -29.4125  -23.0204   20.9223 C   0  0  0  0  0  0
  -28.5339  -25.2687   19.7167 C   0  0  0  0  0  0
  -29.1818  -16.4305   15.7882 N   0  0  0  0  0  0
  -29.4784  -20.2437   17.5550 N   0  0  0  0  0  0
  -29.6828  -20.5901   20.4216 N   0  0  0  0  0  0
  -29.9415  -15.6091   20.8387 N   0  0  0  0  0  0
  -27.6143  -24.4050   21.7879 O   0  0  0  0  0  0
  -27.9814  -21.7497   19.4396 O   0  0  0  0  0  0
  -31.4738  -12.4063   19.1516 H   0  0  0  0  0  0
  -30.3229  -11.3144   19.8624 H   0  0  0  0  0  0
  -29.7412  -11.7521   17.4593 H   0  0  0  0  0  0
  -29.6981  -13.4661   17.7565 H   0  0  0  0  0  0
  -27.7956  -11.3386   18.7904 H   0  0  0  0  0  0
  -27.3922  -12.7020   17.7807 H   0  0  0  0  0  0
  -27.6931  -14.2697   19.5670 H   0  0  0  0  0  0
  -28.6840  -12.0133   21.3752 H   0  0  0  0  0  0
  -28.4769  -13.6744   21.8544 H   0  0  0  0  0  0
  -25.2799   -9.5683   22.4746 H   0  0  0  0  0  0
  -24.0027   -7.4636   22.7443 H   0  0  0  0  0  0
  -21.0878   -8.8819   19.8947 H   0  0  0  0  0  0
  -22.3753  -10.9694   19.6157 H   0  0  0  0  0  0
  -21.2004   -7.6157   23.9732 H   0  0  0  0  0  0
  -21.1478   -6.0509   25.9080 H   0  0  0  0  0  0
  -22.0599   -2.7624   23.2805 H   0  0  0  0  0  0
  -22.4097  -11.9843   22.4711 H   0  0  0  0  0  0
  -21.1126  -13.1240   22.2602 H   0  0  0  0  0  0
  -24.6591  -15.8477   20.5212 H   0  0  0  0  0  0
  -26.2842  -15.6365   20.1082 H   0  0  0  0  0  0
  -26.7134  -32.5494   23.1115 H   0  0  0  0  0  0
  -25.0034  -33.9728   25.0433 H   0  0  0  0  0  0
  -22.6985  -31.3008   21.4027 H   0  0  0  0  0  0
  -23.3738  -35.9638   23.3276 H   0  0  0  0  0  0
  -24.3592  -36.8942   22.2062 H   0  0  0  0  0  0
  -23.7223  -37.6501   23.6666 H   0  0  0  0  0  0
  -26.0421  -31.5702   20.5746 H   0  0  0  0  0  0
  -26.8337  -30.8830   21.9651 H   0  0  0  0  0  0
  -28.0969  -29.0582   21.1761 H   0  0  0  0  0  0
  -26.0116  -25.9243   19.0458 H   0  0  0  0  0  0
  -23.9822  -27.2706   19.0409 H   0  0  0  0  0  0
  -23.7273  -30.5823   19.3989 H   0  0  0  0  0  0
  -22.7415  -29.2317   19.8672 H   0  0  0  0  0  0
  -25.1266  -36.1939   25.0838 H   0  0  0  0  0  0
  -20.9953  -28.3203   24.1450 H   0  0  0  0  0  0
  -20.5605  -26.2267   23.3635 H   0  0  0  0  0  0
  -21.6618  -26.7387   22.1256 H   0  0  0  0  0  0
  -19.6877  -25.6287   21.1255 H   0  0  0  0  0  0
  -19.6687  -27.3186   20.6758 H   0  0  0  0  0  0
  -17.4192  -26.6702   21.4013 H   0  0  0  0  0  0
  -18.0268  -26.0070   22.9015 H   0  0  0  0  0  0
  -19.7919  -30.7261   24.2285 H   0  0  0  0  0  0
  -17.4994  -31.6261   24.5165 H   0  0  0  0  0  0
  -15.5332  -30.2978   23.7648 H   0  0  0  0  0  0
  -15.8664  -28.0830   22.7034 H   0  0  0  0  0  0
  -24.5958  -30.6968   25.7820 H   0  0  0  0  0  0
  -24.8871  -32.2828   26.4857 H   0  0  0  0  0  0
  -25.8122  -30.8929   27.0233 H   0  0  0  0  0  0
  -26.2810  -29.6824   24.1099 H   0  0  0  0  0  0
  -27.4068  -29.7236   25.4473 H   0  0  0  0  0  0
  -27.8636  -30.4366   23.9168 H   0  0  0  0  0  0
  -27.2651  -33.3624   26.2020 H   0  0  0  0  0  0
  -28.3869  -32.6838   25.0319 H   0  0  0  0  0  0
  -28.0668  -31.8449   26.5420 H   0  0  0  0  0  0
  -28.2560  -38.0127   24.7524 H   0  0  0  0  0  0
  -28.1098  -36.2656   24.6218 H   0  0  0  0  0  0
  -27.2321  -37.1374   25.8865 H   0  0  0  0  0  0
  -20.9331  -29.8747   21.6955 H   0  0  0  0  0  0
  -26.0145  -38.2868   24.1431 H   0  0  0  0  0  0
  -29.6329  -15.6954   18.2154 H   0  0  0  0  0  0
  -29.9490  -18.2304   21.6673 H   0  0  0  0  0  0
  -29.3338  -18.4464   15.7031 H   0  0  0  0  0  0
  -29.5957  -22.7806   21.9706 H   0  0  0  0  0  0
  -30.3756  -23.3263   20.5128 H   0  0  0  0  0  0
  -27.8249  -25.0162   18.9323 H   0  0  0  0  0  0
  -29.5198  -25.1558   19.2664 H   0  0  0  0  0  0
  -29.1824  -15.6739   16.4616 H   0  0  0  0  0  0
  -29.1026  -20.1289   16.6216 H   0  0  0  0  0  0
  -29.0611  -21.0516   18.0132 H   0  0  0  0  0  0
  -30.3575  -20.6727   21.1688 H   0  0  0  0  0  0
  -29.1318  -15.3994   21.4032 H   0  0  0  0  0  0
  1 25  1  0  0  0
  1 30  2  0  0  0
  1 85  1  0  0  0
  2  3  1  0  0  0
  2 25  1  0  0  0
  2 88  1  0  0  0
  2 89  1  0  0  0
  3  4  1  0  0  0
  3 90  1  0  0  0
  3 91  1  0  0  0
  4  5  1  0  0  0
  4 92  1  0  0  0
  4 93  1  0  0  0
  5  6  1  0  0  0
  5 26  1  0  0  0
  5 94  1  0  0  0
  6 25  1  0  0  0
  6 95  1  0  0  0
  6 96  1  0  0  0
  7  8  2  0  0  0
  7 26  1  0  0  0
  7 29  1  0  0  0
  8  9  1  0  0  0
  8 22  1  0  0  0
  9 10  1  0  0  0
  9 27  2  0  0  0
 10 11  2  0  0  0
 10 15  1  0  0  0
 11 12  1  0  0  0
 11 97  1  0  0  0
 12 13  2  0  0  0
 12 98  1  0  0  0
 13 14  1  0  0  0
 13 31  1  0  0  0
 14 15  2  0  0  0
 14 99  1  0  0  0
 15100  1  0  0  0
 16 17  2  0  0  0
 16 21  1  0  0  0
 16 31  1  0  0  0
 17 18  1  0  0  0
 17101  1  0  0  0
 18 19  2  0  0  0
 18102  1  0  0  0
 19 20  1  0  0  0
 19 24  1  0  0  0
 20 21  2  0  0  0
 20103  1  0  0  0
 21 23  1  0  0  0
 22 28  1  0  0  0
 22 32  2  0  0  0
 26 27  1  0  0  0
 28104  1  0  0  0
 28105  1  0  0  0
 29106  1  0  0  0
 29107  1  0  0  0
 33 34  1  0  0  0
 33 66  1  0  0  0
 33 70  2  0  0  0
 34 36  1  0  0  0
 34 59  1  0  0  0
 34108  1  0  0  0
 35 44  2  0  0  0
 35 45  1  0  0  0
 35 68  1  0  0  0
 36 56  1  0  0  0
 36109  1  0  0  0
 37 39  1  0  0  0
 37 47  1  0  0  0
 37 66  1  0  0  0
 37110  1  0  0  0
 38 43  2  0  0  0
 38 46  1  0  0  0
 38 47  1  0  0  0
 39 64  1  0  0  0
 39 67  2  0  0  0
 40 52  1  0  0  0
 40 53  2  0  0  0
 40 58  1  0  0  0
 41111  1  0  0  0
 41112  1  0  0  0
 41113  1  0  0  0
 41 48  1  0  0  0
 42 43  1  0  0  0
 42 66  1  0  0  0
 42114  1  0  0  0
 42115  1  0  0  0
 43 44  1  0  0  0
 44116  1  0  0  0
 45 46  2  0  0  0
 45117  1  0  0  0
 46118  1  0  0  0
 47119  1  0  0  0
 47120  1  0  0  0
 48 56  1  0  0  0
 48 65  1  0  0  0
 48121  1  0  0  0
 49 50  1  0  0  0
 49 53  1  0  0  0
 49 64  1  0  0  0
 49122  1  0  0  0
 50 51  1  0  0  0
 50123  1  0  0  0
 50124  1  0  0  0
 51 52  1  0  0  0
 51125  1  0  0  0
 51126  1  0  0  0
 52127  1  0  0  0
 52128  1  0  0  0
 53 54  1  0  0  0
 54 55  2  0  0  0
 54129  1  0  0  0
 55 57  1  0  0  0
 55130  1  0  0  0
 56 69  2  0  0  0
 57 58  2  0  0  0
 57131  1  0  0  0
 58132  1  0  0  0
 59 60  1  0  0  0
 59 61  1  0  0  0
 59 62  1  0  0  0
 60133  1  0  0  0
 60134  1  0  0  0
 60135  1  0  0  0
 61136  1  0  0  0
 61137  1  0  0  0
 61138  1  0  0  0
 62139  1  0  0  0
 62140  1  0  0  0
 62141  1  0  0  0
 63 65  1  0  0  0
 63142  1  0  0  0
 63143  1  0  0  0
 63144  1  0  0  0
 64145  1  0  0  0
 65146  1  0  0  0
 68 81  1  0  0  0
 71 73  2  0  0  0
 71 74  1  0  0  0
 71147  1  0  0  0
 72 74  2  0  0  0
 72 75  1  0  0  0
 72148  1  0  0  0
 73 76  1  0  0  0
 73 77  1  0  0  0
 74 85  1  0  0  0
 75 76  2  0  0  0
 75 84  1  0  0  0
 76 83  1  0  0  0
 77 82  2  0  0  0
 77149  1  0  0  0
 78 80  1  0  0  0
 78 81  1  0  0  0
 78 86  2  0  0  0
 79 80  1  0  0  0
 79 84  1  0  0  0
 79 87  2  0  0  0
 80150  1  0  0  0
 80151  1  0  0  0
 81152  1  0  0  0
 81153  1  0  0  0
 82154  1  0  0  0
 83155  1  0  0  0
 83156  1  0  0  0
 84157  1  0  0  0
 85158  1  0  0  0
M  ISO  4   1 100  68 101  81 101  85 100
M  END
> <chiral flag>
0

> <version>
0

> <s_m_source_file>
/data/baiqing/PycharmProjects/Reinvent-master-3.2/result/LINK_invent/BTK/process_docking_weight1_custom_product_contain_oxygen_bond_distance_aromatic_linkinvent_7_9_3/rearranged_h_0172.sdf

> <i_m_source_file_index>
6

> <r_mmod_Potential_Energy-OPLS-2005>
-48.7556419372559

> <r_mmod_Stretch_Energy-OPLS-2005>
57.9832611083984

> <r_mmod_Bend_Energy-OPLS-2005>
125.502212524414

> <r_mmod_Torsional_Energy-OPLS-2005>
278.505523681641

> <r_mmod_Improper_Torsional_Energy-OPLS-2005>
12.1460256576538

> <r_mmod_Van_der_Waal_Energy-OPLS-2005>
160.049926757812

> <r_mmod_Electrostatic_Energy-OPLS-2005>
-427.490844726562

> <r_mmod_Solvation_Energy-OPLS-2005>
-278.334381103516

> <b_mmod_Minimization_Converged-OPLS-2005>
0

> <r_mmod_RMS_Derivative-OPLS-2005>
2.64674711227417

$$$$
6
                    3D
 Structure written by MMmdl.
164173  0  0  1  0            999 V2000
  -30.5621  -14.7668   20.5029 C   0  0  0  0  0  0
  -30.4518  -12.4861   19.4383 C   0  0  0  0  0  0
  -29.5126  -12.5482   18.2100 C   0  0  0  0  0  0
  -28.0378  -12.3512   18.6234 C   0  0  0  0  0  0
  -27.6460  -13.2229   19.8448 C   0  0  2  0  0  0
  -28.7013  -13.0960   20.9650 C   0  0  0  0  0  0
  -25.2500  -13.8190   20.5606 C   0  0  0  0  0  0
  -24.1776  -13.0445   20.9154 C   0  0  0  0  0  0
  -24.6377  -11.6920   20.8731 C   0  0  0  0  0  0
  -23.9059  -10.4278   21.0394 C   0  0  0  0  0  0
  -24.3620   -9.4171   21.9170 C   0  0  0  0  0  0
  -23.6297   -8.2215   22.0745 C   0  0  0  0  0  0
  -22.4267   -8.0260   21.3543 C   0  0  0  0  0  0
  -21.9899   -9.0233   20.4643 C   0  0  0  0  0  0
  -22.7240  -10.2114   20.3044 C   0  0  0  0  0  0
  -21.6838   -6.0702   22.5267 C   0  0  0  0  0  0
  -21.4011   -6.5611   23.8196 C   0  0  0  0  0  0
  -21.3657   -5.6752   24.9163 C   0  0  0  0  0  0
  -21.6034   -4.3017   24.7209 C   0  0  0  0  0  0
  -21.8808   -3.8117   23.4325 C   0  0  0  0  0  0
  -21.9182   -4.6928   22.3383 C   0  0  0  0  0  0
  -22.7791  -13.5243   21.1851 C   0  0  0  0  0  0
  -22.1645   -4.2111   21.0962 F   0  0  0  0  0  0
  -21.5620   -3.4502   25.7718 F   0  0  0  0  0  0
  -29.9893  -13.5152   20.3965 N   0  0  0  0  0  0
  -26.2930  -12.9385   20.3212 N   0  0  0  0  0  0
  -25.9302  -11.6529   20.5651 N   0  0  0  0  0  0
  -22.0438  -12.8280   22.0419 N   0  0  0  0  0  0
  -25.4130  -15.1933   20.4003 N   0  0  0  0  0  0
  -31.7547  -14.9273   20.2259 O   0  0  0  0  0  0
  -21.6639   -6.8858   21.4224 O   0  0  0  0  0  0
  -22.3465  -14.5557   20.6709 O   0  0  0  0  0  0
  -24.6365  -31.8532   23.1926 C   0  0  0  0  0  0
  -25.9190  -32.4722   23.8304 C   0  0  1  0  0  0
  -27.2423  -27.2380   20.1328 C   0  0  0  0  0  0
  -25.5971  -33.8522   24.2237 N   0  0  0  0  0  0
  -23.4357  -30.4705   21.5368 C   0  0  2  0  0  0
  -24.8896  -28.9126   20.1112 C   0  0  0  0  0  0
  -22.7556  -29.4590   22.4892 C   0  0  0  0  0  0
  -18.0306  -28.1376   22.8475 C   0  0  0  0  0  0
  -24.1501  -36.7295   23.2637 C   0  0  0  0  0  0
  -25.9830  -30.7585   21.3762 C   0  0  0  0  0  0
  -26.0599  -29.3756   20.7252 C   0  0  0  0  0  0
  -27.2361  -28.5515   20.7252 C   0  0  0  0  0  0
  -26.0429  -26.8525   19.4861 C   0  0  0  0  0  0
  -24.8879  -27.6593   19.4814 C   0  0  0  0  0  0
  -23.6581  -29.7993   20.1542 C   0  0  0  0  0  0
  -25.4116  -36.3046   24.0322 C   0  0  1  0  0  0
  -20.5916  -28.3710   23.1262 C   0  0  2  0  0  0
  -20.6787  -26.9419   22.5415 C   0  0  0  0  0  0
  -19.5756  -26.6386   21.5219 C   0  0  0  0  0  0
  -18.1940  -26.7932   22.1621 C   0  0  0  0  0  0
  -19.1558  -28.8862   23.2860 C   0  0  0  0  0  0
  -18.9471  -30.1463   23.8861 C   0  0  0  0  0  0
  -17.6475  -30.6569   24.0566 C   0  0  0  0  0  0
  -25.9061  -34.9423   23.5085 C   0  0  0  0  0  0
  -16.5370  -29.9059   23.6319 C   0  0  0  0  0  0
  -16.7304  -28.6486   23.0320 C   0  0  0  0  0  0
  -26.4528  -31.6527   25.0698 C   0  0  0  0  0  0
  -25.3750  -31.3709   26.1425 C   0  0  0  0  0  0
  -27.0360  -30.2927   24.6199 C   0  0  0  0  0  0
  -27.6085  -32.4252   25.7475 C   0  0  0  0  0  0
  -27.5602  -37.1778   24.8445 C   0  0  0  0  0  0
  -21.4260  -29.3059   22.3669 N   0  0  0  0  0  0
  -26.4281  -37.3753   23.9446 N   0  0  0  0  0  0
  -24.7041  -31.0454   22.0910 N   0  0  0  0  0  0
  -23.4259  -28.8176   23.3030 O   0  0  0  0  0  0
  -28.3352  -26.3271   20.2001 O   0  0  0  0  0  0
  -26.5628  -34.8905   22.4655 O   0  0  0  0  0  0
  -23.5499  -32.1396   23.7185 O   0  0  0  0  0  0
  -29.3923  -19.9540   22.1332 C   0  0  0  0  0  0
  -29.9344  -18.4194   20.3283 C   0  0  0  0  0  0
  -29.3640  -17.4994   22.5261 C   0  0  0  0  0  0
  -29.7365  -19.7972   20.7849 C   0  0  0  0  0  0
  -29.2355  -18.8497   22.9981 C   0  0  0  0  0  0
  -29.7492  -17.2383   21.1660 C   0  0  0  0  0  0
  -30.8573  -21.0446   19.0002 C   0  0  0  0  0  0
  -28.9167  -16.3791   23.4212 C   0  0  0  0  0  0
  -29.1650  -23.7153   20.2525 C   0  0  0  0  0  0
  -30.4485  -21.9374   17.8454 C   0  0  0  0  0  0
  -28.9737  -22.1978   18.1635 C   0  0  0  0  0  0
  -28.9350  -22.1818   19.7041 C   0  0  1  0  0  0
  -29.6444  -16.1669   24.7478 C   0  0  0  0  0  0
  -28.0671  -24.8603   19.9322 C   0  0  0  0  0  0
  -29.9306  -21.0364   19.9784 N   0  0  0  0  0  0
  -28.9095  -19.1743   24.3225 N   0  0  0  0  0  0
  -29.6796  -15.8365   20.6360 N   0  0  0  0  0  0
  -31.9225  -20.4195   18.9909 O   0  0  0  0  0  0
  -27.9767  -15.6346   23.1352 O   0  0  0  0  0  0
  -30.1728  -24.0183   20.8976 O   0  0  0  0  0  0
  -31.4846  -12.6567   19.1348 H   0  0  0  0  0  0
  -30.4291  -11.4956   19.8941 H   0  0  0  0  0  0
  -29.8087  -11.8036   17.4710 H   0  0  0  0  0  0
  -29.6208  -13.5188   17.7197 H   0  0  0  0  0  0
  -27.8977  -11.2954   18.8663 H   0  0  0  0  0  0
  -27.3732  -12.5614   17.7836 H   0  0  0  0  0  0
  -27.6542  -14.2503   19.4893 H   0  0  0  0  0  0
  -28.7565  -12.0657   21.3143 H   0  0  0  0  0  0
  -28.4392  -13.6758   21.8418 H   0  0  0  0  0  0
  -25.2762   -9.5633   22.4770 H   0  0  0  0  0  0
  -23.9941   -7.4590   22.7511 H   0  0  0  0  0  0
  -21.0783   -8.8765   19.9027 H   0  0  0  0  0  0
  -22.3671  -10.9637   19.6169 H   0  0  0  0  0  0
  -21.2024   -7.6129   23.9688 H   0  0  0  0  0  0
  -21.1510   -6.0494   25.9064 H   0  0  0  0  0  0
  -22.0617   -2.7586   23.2820 H   0  0  0  0  0  0
  -22.4083  -12.0043   22.4930 H   0  0  0  0  0  0
  -21.1085  -13.1411   22.2618 H   0  0  0  0  0  0
  -24.6309  -15.8288   20.5105 H   0  0  0  0  0  0
  -26.2350  -15.6445   20.0192 H   0  0  0  0  0  0
  -26.7283  -32.5352   23.1062 H   0  0  0  0  0  0
  -25.0126  -33.9638   25.0384 H   0  0  0  0  0  0
  -22.7324  -31.2921   21.3831 H   0  0  0  0  0  0
  -23.3749  -35.9636   23.3232 H   0  0  0  0  0  0
  -24.3636  -36.8985   22.2076 H   0  0  0  0  0  0
  -23.7249  -37.6474   23.6700 H   0  0  0  0  0  0
  -26.1178  -31.5132   20.5996 H   0  0  0  0  0  0
  -26.8598  -30.8144   22.0093 H   0  0  0  0  0  0
  -28.1264  -28.9006   21.2307 H   0  0  0  0  0  0
  -25.9595  -25.8987   18.9881 H   0  0  0  0  0  0
  -23.9938  -27.2982   18.9913 H   0  0  0  0  0  0
  -23.7867  -30.5719   19.3937 H   0  0  0  0  0  0
  -22.7774  -29.2306   19.8481 H   0  0  0  0  0  0
  -25.1274  -36.1874   25.0796 H   0  0  0  0  0  0
  -20.9988  -28.3282   24.1399 H   0  0  0  0  0  0
  -20.5671  -26.2341   23.3643 H   0  0  0  0  0  0
  -21.6657  -26.7436   22.1228 H   0  0  0  0  0  0
  -19.6934  -25.6292   21.1258 H   0  0  0  0  0  0
  -19.6688  -27.3192   20.6743 H   0  0  0  0  0  0
  -17.4244  -26.6712   21.3991 H   0  0  0  0  0  0
  -18.0310  -26.0049   22.8975 H   0  0  0  0  0  0
  -19.7934  -30.7281   24.2220 H   0  0  0  0  0  0
  -17.5006  -31.6218   24.5214 H   0  0  0  0  0  0
  -15.5345  -30.2943   23.7620 H   0  0  0  0  0  0
  -15.8722  -28.0793   22.7008 H   0  0  0  0  0  0
  -24.5938  -30.7008   25.7795 H   0  0  0  0  0  0
  -24.8900  -32.2880   26.4783 H   0  0  0  0  0  0
  -25.8068  -30.8967   27.0254 H   0  0  0  0  0  0
  -26.2926  -29.6654   24.1257 H   0  0  0  0  0  0
  -27.4074  -29.7188   25.4704 H   0  0  0  0  0  0
  -27.8800  -30.4163   23.9410 H   0  0  0  0  0  0
  -27.2709  -33.3575   26.2011 H   0  0  0  0  0  0
  -28.3917  -32.6770   25.0313 H   0  0  0  0  0  0
  -28.0741  -31.8401   26.5419 H   0  0  0  0  0  0
  -28.2524  -38.0154   24.7554 H   0  0  0  0  0  0
  -28.1158  -36.2688   24.6115 H   0  0  0  0  0  0
  -27.2366  -37.1265   25.8847 H   0  0  0  0  0  0
  -20.9489  -29.8823   21.6873 H   0  0  0  0  0  0
  -26.0140  -38.2818   24.1426 H   0  0  0  0  0  0
  -29.2760  -20.9619   22.5149 H   0  0  0  0  0  0
  -30.1944  -18.2554   19.2929 H   0  0  0  0  0  0
  -30.5825  -21.4249   16.8916 H   0  0  0  0  0  0
  -31.0487  -22.8473   17.8539 H   0  0  0  0  0  0
  -28.3611  -21.3871   17.7585 H   0  0  0  0  0  0
  -28.6301  -23.1261   17.7066 H   0  0  0  0  0  0
  -27.9381  -21.8687   20.0188 H   0  0  0  0  0  0
  -30.6629  -16.5498   24.7074 H   0  0  0  0  0  0
  -29.6856  -15.1060   24.9916 H   0  0  0  0  0  0
  -29.0989  -16.6682   25.5489 H   0  0  0  0  0  0
  -27.1715  -24.5751   20.4853 H   0  0  0  0  0  0
  -27.8130  -24.7652   18.8792 H   0  0  0  0  0  0
  -28.9401  -20.1559   24.5900 H   0  0  0  0  0  0
  -29.2200  -18.5705   25.0794 H   0  0  0  0  0  0
  -28.7339  -15.4842   20.6319 H   0  0  0  0  0  0
  1 25  1  0  0  0
  1 30  2  0  0  0
  1 87  1  0  0  0
  2  3  1  0  0  0
  2 25  1  0  0  0
  2 91  1  0  0  0
  2 92  1  0  0  0
  3  4  1  0  0  0
  3 93  1  0  0  0
  3 94  1  0  0  0
  4  5  1  0  0  0
  4 95  1  0  0  0
  4 96  1  0  0  0
  5  6  1  0  0  0
  5 26  1  0  0  0
  5 97  1  0  0  0
  6 25  1  0  0  0
  6 98  1  0  0  0
  6 99  1  0  0  0
  7  8  2  0  0  0
  7 26  1  0  0  0
  7 29  1  0  0  0
  8  9  1  0  0  0
  8 22  1  0  0  0
  9 10  1  0  0  0
  9 27  2  0  0  0
 10 11  2  0  0  0
 10 15  1  0  0  0
 11 12  1  0  0  0
 11100  1  0  0  0
 12 13  2  0  0  0
 12101  1  0  0  0
 13 14  1  0  0  0
 13 31  1  0  0  0
 14 15  2  0  0  0
 14102  1  0  0  0
 15103  1  0  0  0
 16 17  2  0  0  0
 16 21  1  0  0  0
 16 31  1  0  0  0
 17 18  1  0  0  0
 17104  1  0  0  0
 18 19  2  0  0  0
 18105  1  0  0  0
 19 20  1  0  0  0
 19 24  1  0  0  0
 20 21  2  0  0  0
 20106  1  0  0  0
 21 23  1  0  0  0
 22 28  1  0  0  0
 22 32  2  0  0  0
 26 27  1  0  0  0
 28107  1  0  0  0
 28108  1  0  0  0
 29109  1  0  0  0
 29110  1  0  0  0
 33 34  1  0  0  0
 33 66  1  0  0  0
 33 70  2  0  0  0
 34 36  1  0  0  0
 34 59  1  0  0  0
 34111  1  0  0  0
 35 44  2  0  0  0
 35 45  1  0  0  0
 35 68  1  0  0  0
 36 56  1  0  0  0
 36112  1  0  0  0
 37 39  1  0  0  0
 37 47  1  0  0  0
 37 66  1  0  0  0
 37113  1  0  0  0
 38 43  2  0  0  0
 38 46  1  0  0  0
 38 47  1  0  0  0
 39 64  1  0  0  0
 39 67  2  0  0  0
 40 52  1  0  0  0
 40 53  2  0  0  0
 40 58  1  0  0  0
 41114  1  0  0  0
 41115  1  0  0  0
 41116  1  0  0  0
 41 48  1  0  0  0
 42 43  1  0  0  0
 42 66  1  0  0  0
 42117  1  0  0  0
 42118  1  0  0  0
 43 44  1  0  0  0
 44119  1  0  0  0
 45 46  2  0  0  0
 45120  1  0  0  0
 46121  1  0  0  0
 47122  1  0  0  0
 47123  1  0  0  0
 48 56  1  0  0  0
 48 65  1  0  0  0
 48124  1  0  0  0
 49 50  1  0  0  0
 49 53  1  0  0  0
 49 64  1  0  0  0
 49125  1  0  0  0
 50 51  1  0  0  0
 50126  1  0  0  0
 50127  1  0  0  0
 51 52  1  0  0  0
 51128  1  0  0  0
 51129  1  0  0  0
 52130  1  0  0  0
 52131  1  0  0  0
 53 54  1  0  0  0
 54 55  2  0  0  0
 54132  1  0  0  0
 55 57  1  0  0  0
 55133  1  0  0  0
 56 69  2  0  0  0
 57 58  2  0  0  0
 57134  1  0  0  0
 58135  1  0  0  0
 59 60  1  0  0  0
 59 61  1  0  0  0
 59 62  1  0  0  0
 60136  1  0  0  0
 60137  1  0  0  0
 60138  1  0  0  0
 61139  1  0  0  0
 61140  1  0  0  0
 61141  1  0  0  0
 62142  1  0  0  0
 62143  1  0  0  0
 62144  1  0  0  0
 63 65  1  0  0  0
 63145  1  0  0  0
 63146  1  0  0  0
 63147  1  0  0  0
 64148  1  0  0  0
 65149  1  0  0  0
 68 84  1  0  0  0
 71 74  2  0  0  0
 71 75  1  0  0  0
 71150  1  0  0  0
 72 74  1  0  0  0
 72 76  2  0  0  0
 72151  1  0  0  0
 73 75  2  0  0  0
 73 76  1  0  0  0
 73 78  1  0  0  0
 74 85  1  0  0  0
 75 86  1  0  0  0
 76 87  1  0  0  0
 77 80  1  0  0  0
 77 85  1  0  0  0
 77 88  2  0  0  0
 78 83  1  0  0  0
 78 89  2  0  0  0
 79 84  1  0  0  0
 79 90  2  0  0  0
 79 82  1  0  0  0
 80 81  1  0  0  0
 80152  1  0  0  0
 80153  1  0  0  0
 81 82  1  0  0  0
 81154  1  0  0  0
 81155  1  0  0  0
 82 85  1  0  0  0
 82156  1  0  0  0
 83157  1  0  0  0
 83158  1  0  0  0
 83159  1  0  0  0
 84160  1  0  0  0
 84161  1  0  0  0
 86162  1  0  0  0
 86163  1  0  0  0
 87164  1  0  0  0
M  ISO  4   1 100  68 101  84 101  87 100
M  END
> <chiral flag>
0

> <version>
0

> <s_m_source_file>
/data/baiqing/PycharmProjects/Reinvent-master-3.2/result/LINK_invent/BTK/process_docking_weight1_custom_product_contain_oxygen_bond_distance_aromatic_linkinvent_7_9_3/rearranged_h_0172.sdf

> <i_m_source_file_index>
7

> <r_mmod_Potential_Energy-OPLS-2005>
515.244445800781

> <r_mmod_Stretch_Energy-OPLS-2005>
159.18391418457

> <r_mmod_Bend_Energy-OPLS-2005>
225.826858520508

> <r_mmod_Torsional_Energy-OPLS-2005>
367.610534667969

> <r_mmod_Improper_Torsional_Energy-OPLS-2005>
15.106915473938

> <r_mmod_Van_der_Waal_Energy-OPLS-2005>
135.41633605957

> <r_mmod_Electrostatic_Energy-OPLS-2005>
-219.582717895508

> <r_mmod_Solvation_Energy-OPLS-2005>
-266.990692138672

> <b_mmod_Minimization_Converged-OPLS-2005>
0

> <r_mmod_RMS_Derivative-OPLS-2005>
5.7424144744873

$$$$
7
                    3D
 Structure written by MMmdl.
155163  0  0  1  0            999 V2000
  -30.6491  -14.5598   20.4618 C   0  0  0  0  0  0
  -30.4261  -12.3402   19.4418 C   0  0  0  0  0  0
  -29.5043  -12.4959   18.2135 C   0  0  0  0  0  0
  -28.0236  -12.3533   18.6189 C   0  0  0  0  0  0
  -27.6520  -13.2132   19.8584 C   0  0  2  0  0  0
  -28.6932  -13.0512   20.9856 C   0  0  0  0  0  0
  -25.2544  -13.8168   20.5599 C   0  0  0  0  0  0
  -24.1797  -13.0456   20.9141 C   0  0  0  0  0  0
  -24.6345  -11.6908   20.8676 C   0  0  0  0  0  0
  -23.9025  -10.4299   21.0379 C   0  0  0  0  0  0
  -24.3591   -9.4226   21.9175 C   0  0  0  0  0  0
  -23.6292   -8.2242   22.0735 C   0  0  0  0  0  0
  -22.4259   -8.0271   21.3543 C   0  0  0  0  0  0
  -21.9859   -9.0233   20.4647 C   0  0  0  0  0  0
  -22.7173  -10.2122   20.3070 C   0  0  0  0  0  0
  -21.6845   -6.0712   22.5265 C   0  0  0  0  0  0
  -21.4017   -6.5616   23.8198 C   0  0  0  0  0  0
  -21.3669   -5.6775   24.9162 C   0  0  0  0  0  0
  -21.6042   -4.3037   24.7209 C   0  0  0  0  0  0
  -21.8831   -3.8130   23.4329 C   0  0  0  0  0  0
  -21.9194   -4.6950   22.3390 C   0  0  0  0  0  0
  -22.7837  -13.5264   21.1823 C   0  0  0  0  0  0
  -22.1663   -4.2138   21.0968 F   0  0  0  0  0  0
  -21.5643   -3.4522   25.7723 F   0  0  0  0  0  0
  -30.0178  -13.3537   20.4284 N   0  0  0  0  0  0
  -26.2956  -12.9324   20.3246 N   0  0  0  0  0  0
  -25.9270  -11.6480   20.5679 N   0  0  0  0  0  0
  -22.0479  -12.8292   22.0406 N   0  0  0  0  0  0
  -25.4336  -15.1873   20.4011 N   0  0  0  0  0  0
  -31.8333  -14.6853   20.1409 O   0  0  0  0  0  0
  -21.6634   -6.8851   21.4224 O   0  0  0  0  0  0
  -22.3533  -14.5602   20.6708 O   0  0  0  0  0  0
  -24.6221  -31.8662   23.2087 C   0  0  0  0  0  0
  -25.9096  -32.4795   23.8389 C   0  0  1  0  0  0
  -27.2072  -27.3725   20.0951 C   0  0  0  0  0  0
  -25.5934  -33.8593   24.2328 N   0  0  0  0  0  0
  -23.4085  -30.4931   21.5515 C   0  0  2  0  0  0
  -24.8451  -28.9532   20.1140 C   0  0  0  0  0  0
  -22.7446  -29.4662   22.4984 C   0  0  0  0  0  0
  -18.0290  -28.1371   22.8471 C   0  0  0  0  0  0
  -24.1493  -36.7312   23.2638 C   0  0  0  0  0  0
  -25.9447  -30.8104   21.3707 C   0  0  0  0  0  0
  -26.0123  -29.4426   20.7119 C   0  0  0  0  0  0
  -27.1962  -28.6610   20.6941 C   0  0  0  0  0  0
  -26.0129  -26.9098   19.4980 C   0  0  0  0  0  0
  -24.8423  -27.6883   19.5073 C   0  0  0  0  0  0
  -23.6156  -29.8325   20.1644 C   0  0  0  0  0  0
  -25.4107  -36.3097   24.0334 C   0  0  1  0  0  0
  -20.5883  -28.3677   23.1303 C   0  0  2  0  0  0
  -20.6775  -26.9398   22.5442 C   0  0  0  0  0  0
  -19.5764  -26.6370   21.5220 C   0  0  0  0  0  0
  -18.1927  -26.7930   22.1586 C   0  0  0  0  0  0
  -19.1534  -28.8842   23.2883 C   0  0  0  0  0  0
  -18.9465  -30.1443   23.8899 C   0  0  0  0  0  0
  -17.6460  -30.6573   24.0569 C   0  0  0  0  0  0
  -25.9038  -34.9460   23.5127 C   0  0  0  0  0  0
  -16.5359  -29.9073   23.6322 C   0  0  0  0  0  0
  -16.7278  -28.6496   23.0341 C   0  0  0  0  0  0
  -26.4506  -31.6567   25.0724 C   0  0  0  0  0  0
  -25.3767  -31.3725   26.1481 C   0  0  0  0  0  0
  -27.0304  -30.2978   24.6150 C   0  0  0  0  0  0
  -27.6112  -32.4266   25.7458 C   0  0  0  0  0  0
  -27.5598  -37.1798   24.8454 C   0  0  0  0  0  0
  -21.4173  -29.3035   22.3706 N   0  0  0  0  0  0
  -26.4300  -37.3781   23.9409 N   0  0  0  0  0  0
  -24.6765  -31.0733   22.0997 N   0  0  0  0  0  0
  -23.4206  -28.8199   23.3028 O   0  0  0  0  0  0
  -28.3720  -26.6145   20.1013 O   0  0  0  0  0  0
  -26.5598  -34.8918   22.4685 O   0  0  0  0  0  0
  -23.5399  -32.1447   23.7458 O   0  0  0  0  0  0
  -30.0562  -19.4525   18.6594 C   0  0  0  0  0  0
  -30.6475  -17.0903   18.7775 C   0  0  0  0  0  0
  -29.2583  -18.0852   20.5164 C   0  0  0  0  0  0
  -30.6997  -18.3288   18.1090 C   0  0  0  0  0  0
  -29.3269  -19.3586   19.8707 C   0  0  0  0  0  0
  -29.9408  -16.9396   19.9992 C   0  0  0  0  0  0
  -27.6880  -22.7662   20.7086 C   0  0  0  0  0  0
  -28.8462  -21.8299   20.1969 C   0  0  0  0  0  0
  -27.9392  -24.2826   20.9679 C   0  0  0  0  0  0
  -28.3462  -25.1949   19.7715 C   0  0  0  0  0  0
  -31.3733  -18.4382   16.8919 N   0  0  0  0  0  0
  -28.6054  -20.5020   20.3848 N   0  0  0  0  0  0
  -29.8519  -15.6489   20.6569 N   0  0  0  0  0  0
  -26.5761  -22.2940   20.9753 O   0  0  0  0  0  0
  -29.8763  -22.2948   19.6940 O   0  0  0  0  0  0
  -31.4719  -12.4443   19.1429 H   0  0  0  0  0  0
  -30.3420  -11.3426   19.8737 H   0  0  0  0  0  0
  -29.7536  -11.7548   17.4533 H   0  0  0  0  0  0
  -29.6654  -13.4706   17.7500 H   0  0  0  0  0  0
  -27.8307  -11.3002   18.8282 H   0  0  0  0  0  0
  -27.3850  -12.6219   17.7779 H   0  0  0  0  0  0
  -27.6761  -14.2502   19.5222 H   0  0  0  0  0  0
  -28.6780  -12.0289   21.3635 H   0  0  0  0  0  0
  -28.4576  -13.6931   21.8371 H   0  0  0  0  0  0
  -25.2731   -9.5721   22.4761 H   0  0  0  0  0  0
  -23.9996   -7.4622   22.7452 H   0  0  0  0  0  0
  -21.0776   -8.8761   19.8961 H   0  0  0  0  0  0
  -22.3616  -10.9663   19.6203 H   0  0  0  0  0  0
  -21.2014   -7.6127   23.9696 H   0  0  0  0  0  0
  -21.1486   -6.0505   25.9066 H   0  0  0  0  0  0
  -22.0612   -2.7589   23.2835 H   0  0  0  0  0  0
  -22.4016  -11.9942   22.4837 H   0  0  0  0  0  0
  -21.1136  -13.1425   22.2659 H   0  0  0  0  0  0
  -24.6814  -15.8584   20.5094 H   0  0  0  0  0  0
  -26.2863  -15.6045   20.0532 H   0  0  0  0  0  0
  -26.7162  -32.5482   23.1135 H   0  0  0  0  0  0
  -25.0122  -33.9749   25.0506 H   0  0  0  0  0  0
  -22.6979  -31.3115   21.4164 H   0  0  0  0  0  0
  -23.3753  -35.9646   23.3297 H   0  0  0  0  0  0
  -24.3621  -36.8941   22.2059 H   0  0  0  0  0  0
  -23.7254  -37.6512   23.6666 H   0  0  0  0  0  0
  -26.0755  -31.5769   20.6058 H   0  0  0  0  0  0
  -26.8266  -30.8552   21.9980 H   0  0  0  0  0  0
  -28.0983  -29.0347   21.1583 H   0  0  0  0  0  0
  -25.9456  -25.9460   19.0209 H   0  0  0  0  0  0
  -23.9406  -27.3064   19.0497 H   0  0  0  0  0  0
  -23.7335  -30.6104   19.4085 H   0  0  0  0  0  0
  -22.7345  -29.2621   19.8655 H   0  0  0  0  0  0
  -25.1282  -36.1961   25.0827 H   0  0  0  0  0  0
  -20.9955  -28.3259   24.1430 H   0  0  0  0  0  0
  -20.5646  -26.2295   23.3649 H   0  0  0  0  0  0
  -21.6661  -26.7412   22.1276 H   0  0  0  0  0  0
  -19.6927  -25.6275   21.1272 H   0  0  0  0  0  0
  -19.6713  -27.3175   20.6743 H   0  0  0  0  0  0
  -17.4222  -26.6722   21.3957 H   0  0  0  0  0  0
  -18.0264  -26.0061   22.8950 H   0  0  0  0  0  0
  -19.7943  -30.7265   24.2261 H   0  0  0  0  0  0
  -17.5019  -31.6251   24.5167 H   0  0  0  0  0  0
  -15.5364  -30.2967   23.7636 H   0  0  0  0  0  0
  -15.8684  -28.0814   22.7043 H   0  0  0  0  0  0
  -24.5964  -30.7012   25.7877 H   0  0  0  0  0  0
  -24.8916  -32.2886   26.4862 H   0  0  0  0  0  0
  -25.8121  -30.8984   27.0289 H   0  0  0  0  0  0
  -26.2835  -29.6736   24.1225 H   0  0  0  0  0  0
  -27.4059  -29.7228   25.4632 H   0  0  0  0  0  0
  -27.8698  -30.4257   23.9311 H   0  0  0  0  0  0
  -27.2774  -33.3560   26.2094 H   0  0  0  0  0  0
  -28.3867  -32.6832   25.0222 H   0  0  0  0  0  0
  -28.0840  -31.8349   26.5314 H   0  0  0  0  0  0
  -28.2613  -38.0096   24.7498 H   0  0  0  0  0  0
  -28.1093  -36.2636   24.6243 H   0  0  0  0  0  0
  -27.2356  -37.1430   25.8871 H   0  0  0  0  0  0
  -20.9340  -29.8770   21.6935 H   0  0  0  0  0  0
  -26.0192  -38.2863   24.1397 H   0  0  0  0  0  0
  -30.1004  -20.3879   18.1241 H   0  0  0  0  0  0
  -31.1361  -16.2433   18.3193 H   0  0  0  0  0  0
  -28.6786  -17.9864   21.4241 H   0  0  0  0  0  0
  -28.6740  -24.3749   21.7675 H   0  0  0  0  0  0
  -27.0065  -24.6760   21.3731 H   0  0  0  0  0  0
  -27.7654  -24.9759   18.8762 H   0  0  0  0  0  0
  -29.3652  -24.9398   19.4860 H   0  0  0  0  0  0
  -31.1046  -19.1972   16.2718 H   0  0  0  0  0  0
  -31.5825  -17.5854   16.3801 H   0  0  0  0  0  0
  -27.7676  -20.3103   20.9210 H   0  0  0  0  0  0
  -28.9791  -15.4553   21.1217 H   0  0  0  0  0  0
  1 25  1  0  0  0
  1 30  2  0  0  0
  1 83  1  0  0  0
  2  3  1  0  0  0
  2 25  1  0  0  0
  2 86  1  0  0  0
  2 87  1  0  0  0
  3  4  1  0  0  0
  3 88  1  0  0  0
  3 89  1  0  0  0
  4  5  1  0  0  0
  4 90  1  0  0  0
  4 91  1  0  0  0
  5  6  1  0  0  0
  5 26  1  0  0  0
  5 92  1  0  0  0
  6 25  1  0  0  0
  6 93  1  0  0  0
  6 94  1  0  0  0
  7  8  2  0  0  0
  7 26  1  0  0  0
  7 29  1  0  0  0
  8  9  1  0  0  0
  8 22  1  0  0  0
  9 10  1  0  0  0
  9 27  2  0  0  0
 10 11  2  0  0  0
 10 15  1  0  0  0
 11 12  1  0  0  0
 11 95  1  0  0  0
 12 13  2  0  0  0
 12 96  1  0  0  0
 13 14  1  0  0  0
 13 31  1  0  0  0
 14 15  2  0  0  0
 14 97  1  0  0  0
 15 98  1  0  0  0
 16 17  2  0  0  0
 16 21  1  0  0  0
 16 31  1  0  0  0
 17 18  1  0  0  0
 17 99  1  0  0  0
 18 19  2  0  0  0
 18100  1  0  0  0
 19 20  1  0  0  0
 19 24  1  0  0  0
 20 21  2  0  0  0
 20101  1  0  0  0
 21 23  1  0  0  0
 22 28  1  0  0  0
 22 32  2  0  0  0
 26 27  1  0  0  0
 28102  1  0  0  0
 28103  1  0  0  0
 29104  1  0  0  0
 29105  1  0  0  0
 33 34  1  0  0  0
 33 66  1  0  0  0
 33 70  2  0  0  0
 34 36  1  0  0  0
 34 59  1  0  0  0
 34106  1  0  0  0
 35 44  2  0  0  0
 35 45  1  0  0  0
 35 68  1  0  0  0
 36 56  1  0  0  0
 36107  1  0  0  0
 37 39  1  0  0  0
 37 47  1  0  0  0
 37 66  1  0  0  0
 37108  1  0  0  0
 38 43  2  0  0  0
 38 46  1  0  0  0
 38 47  1  0  0  0
 39 64  1  0  0  0
 39 67  2  0  0  0
 40 52  1  0  0  0
 40 53  2  0  0  0
 40 58  1  0  0  0
 41109  1  0  0  0
 41110  1  0  0  0
 41111  1  0  0  0
 41 48  1  0  0  0
 42 43  1  0  0  0
 42 66  1  0  0  0
 42112  1  0  0  0
 42113  1  0  0  0
 43 44  1  0  0  0
 44114  1  0  0  0
 45 46  2  0  0  0
 45115  1  0  0  0
 46116  1  0  0  0
 47117  1  0  0  0
 47118  1  0  0  0
 48 56  1  0  0  0
 48 65  1  0  0  0
 48119  1  0  0  0
 49 50  1  0  0  0
 49 53  1  0  0  0
 49 64  1  0  0  0
 49120  1  0  0  0
 50 51  1  0  0  0
 50121  1  0  0  0
 50122  1  0  0  0
 51 52  1  0  0  0
 51123  1  0  0  0
 51124  1  0  0  0
 52125  1  0  0  0
 52126  1  0  0  0
 53 54  1  0  0  0
 54 55  2  0  0  0
 54127  1  0  0  0
 55 57  1  0  0  0
 55128  1  0  0  0
 56 69  2  0  0  0
 57 58  2  0  0  0
 57129  1  0  0  0
 58130  1  0  0  0
 59 60  1  0  0  0
 59 61  1  0  0  0
 59 62  1  0  0  0
 60131  1  0  0  0
 60132  1  0  0  0
 60133  1  0  0  0
 61134  1  0  0  0
 61135  1  0  0  0
 61136  1  0  0  0
 62137  1  0  0  0
 62138  1  0  0  0
 62139  1  0  0  0
 63 65  1  0  0  0
 63140  1  0  0  0
 63141  1  0  0  0
 63142  1  0  0  0
 64143  1  0  0  0
 65144  1  0  0  0
 68 80  1  0  0  0
 71 74  2  0  0  0
 71 75  1  0  0  0
 71145  1  0  0  0
 72 74  1  0  0  0
 72 76  2  0  0  0
 72146  1  0  0  0
 73 75  2  0  0  0
 73 76  1  0  0  0
 73147  1  0  0  0
 74 81  1  0  0  0
 75 82  1  0  0  0
 76 83  1  0  0  0
 77 78  1  0  0  0
 77 79  1  0  0  0
 77 84  2  0  0  0
 78 82  1  0  0  0
 78 85  2  0  0  0
 79 80  1  0  0  0
 79148  1  0  0  0
 79149  1  0  0  0
 80150  1  0  0  0
 80151  1  0  0  0
 81152  1  0  0  0
 81153  1  0  0  0
 82154  1  0  0  0
 83155  1  0  0  0
M  ISO  4   1 100  68 101  80 101  83 100
M  END
> <chiral flag>
0

> <version>
0

> <s_m_source_file>
/data/baiqing/PycharmProjects/Reinvent-master-3.2/result/LINK_invent/BTK/process_docking_weight1_custom_product_contain_oxygen_bond_distance_aromatic_linkinvent_7_9_3/rearranged_h_0172.sdf

> <i_m_source_file_index>
8

> <r_mmod_Potential_Energy-OPLS-2005>
35.4996337890625

> <r_mmod_Stretch_Energy-OPLS-2005>
54.9469795227051

> <r_mmod_Bend_Energy-OPLS-2005>
118.689247131348

> <r_mmod_Torsional_Energy-OPLS-2005>
246.286911010742

> <r_mmod_Improper_Torsional_Energy-OPLS-2005>
10.0411729812622

> <r_mmod_Van_der_Waal_Energy-OPLS-2005>
153.383407592773

> <r_mmod_Electrostatic_Energy-OPLS-2005>
-326.913879394531

> <r_mmod_Solvation_Energy-OPLS-2005>
-250.211837768555

> <b_mmod_Minimization_Converged-OPLS-2005>
0

> <r_mmod_RMS_Derivative-OPLS-2005>
4.31941747665405

$$$$
8
                    3D
 Structure written by MMmdl.
155163  0  0  1  0            999 V2000
  -30.6877  -14.5877   20.5172 C   0  0  0  0  0  0
  -30.4175  -12.3680   19.4512 C   0  0  0  0  0  0
  -29.4972  -12.4952   18.2203 C   0  0  0  0  0  0
  -28.0219  -12.3419   18.6352 C   0  0  0  0  0  0
  -27.6487  -13.2232   19.8577 C   0  0  2  0  0  0
  -28.6917  -13.0993   20.9902 C   0  0  0  0  0  0
  -25.2537  -13.8191   20.5685 C   0  0  0  0  0  0
  -24.1815  -13.0449   20.9197 C   0  0  0  0  0  0
  -24.6391  -11.6921   20.8743 C   0  0  0  0  0  0
  -23.9067  -10.4298   21.0405 C   0  0  0  0  0  0
  -24.3619   -9.4212   21.9182 C   0  0  0  0  0  0
  -23.6294   -8.2247   22.0753 C   0  0  0  0  0  0
  -22.4276   -8.0282   21.3546 C   0  0  0  0  0  0
  -21.9911   -9.0255   20.4648 C   0  0  0  0  0  0
  -22.7240  -10.2136   20.3055 C   0  0  0  0  0  0
  -21.6855   -6.0734   22.5278 C   0  0  0  0  0  0
  -21.4016   -6.5638   23.8211 C   0  0  0  0  0  0
  -21.3658   -5.6791   24.9173 C   0  0  0  0  0  0
  -21.6044   -4.3054   24.7225 C   0  0  0  0  0  0
  -21.8819   -3.8146   23.4346 C   0  0  0  0  0  0
  -21.9194   -4.6962   22.3402 C   0  0  0  0  0  0
  -22.7837  -13.5234   21.1856 C   0  0  0  0  0  0
  -22.1663   -4.2147   21.0981 F   0  0  0  0  0  0
  -21.5627   -3.4539   25.7738 F   0  0  0  0  0  0
  -30.0075  -13.4065   20.4166 N   0  0  0  0  0  0
  -26.2966  -12.9389   20.3307 N   0  0  0  0  0  0
  -25.9320  -11.6536   20.5761 N   0  0  0  0  0  0
  -22.0483  -12.8222   22.0411 N   0  0  0  0  0  0
  -25.4253  -15.1910   20.4088 N   0  0  0  0  0  0
  -31.8581  -14.6774   20.1390 O   0  0  0  0  0  0
  -21.6642   -6.8877   21.4241 O   0  0  0  0  0  0
  -22.3518  -14.5540   20.6702 O   0  0  0  0  0  0
  -24.6208  -31.8632   23.2059 C   0  0  0  0  0  0
  -25.9075  -32.4798   23.8377 C   0  0  1  0  0  0
  -27.2265  -27.3671   20.1160 C   0  0  0  0  0  0
  -25.5909  -33.8596   24.2306 N   0  0  0  0  0  0
  -23.4140  -30.4861   21.5462 C   0  0  2  0  0  0
  -24.8637  -28.9439   20.1143 C   0  0  0  0  0  0
  -22.7454  -29.4633   22.4948 C   0  0  0  0  0  0
  -18.0283  -28.1383   22.8493 C   0  0  0  0  0  0
  -24.1489  -36.7304   23.2638 C   0  0  0  0  0  0
  -25.9493  -30.8082   21.3709 C   0  0  0  0  0  0
  -26.0276  -29.4357   20.7217 C   0  0  0  0  0  0
  -27.2160  -28.6543   20.7233 C   0  0  0  0  0  0
  -26.0502  -26.9121   19.4917 C   0  0  0  0  0  0
  -24.8726  -27.6835   19.4934 C   0  0  0  0  0  0
  -23.6285  -29.8186   20.1617 C   0  0  0  0  0  0
  -25.4108  -36.3095   24.0336 C   0  0  1  0  0  0
  -20.5880  -28.3678   23.1297 C   0  0  2  0  0  0
  -20.6768  -26.9405   22.5412 C   0  0  0  0  0  0
  -19.5743  -26.6388   21.5212 C   0  0  0  0  0  0
  -18.1925  -26.7929   22.1628 C   0  0  0  0  0  0
  -19.1534  -28.8848   23.2894 C   0  0  0  0  0  0
  -18.9458  -30.1454   23.8903 C   0  0  0  0  0  0
  -17.6457  -30.6584   24.0568 C   0  0  0  0  0  0
  -25.9038  -34.9461   23.5118 C   0  0  0  0  0  0
  -16.5349  -29.9083   23.6329 C   0  0  0  0  0  0
  -16.7273  -28.6500   23.0352 C   0  0  0  0  0  0
  -26.4479  -31.6588   25.0722 C   0  0  0  0  0  0
  -25.3735  -31.3711   26.1466 C   0  0  0  0  0  0
  -27.0314  -30.3023   24.6128 C   0  0  0  0  0  0
  -27.6056  -32.4308   25.7483 C   0  0  0  0  0  0
  -27.5580  -37.1806   24.8465 C   0  0  0  0  0  0
  -21.4172  -29.3036   22.3696 N   0  0  0  0  0  0
  -26.4291  -37.3784   23.9409 N   0  0  0  0  0  0
  -24.6798  -31.0684   22.0987 N   0  0  0  0  0  0
  -23.4200  -28.8173   23.3012 O   0  0  0  0  0  0
  -28.3134  -26.5046   20.0952 O   0  0  0  0  0  0
  -26.5606  -34.8919   22.4684 O   0  0  0  0  0  0
  -23.5383  -32.1409   23.7411 O   0  0  0  0  0  0
  -28.6480  -20.2131   19.8484 C   0  0  0  0  0  0
  -28.9625  -18.7958   19.7794 C   0  0  0  0  0  0
  -29.8438  -18.3764   20.7658 C   0  0  0  0  0  0
  -29.2492  -20.9051   20.8765 C   0  0  0  0  0  0
  -28.6353  -25.8727   21.2828 C   0  0  0  0  0  0
  -28.4487  -17.9245   18.7180 C   0  0  0  0  0  0
  -28.8710  -24.5495   21.5651 C   0  0  0  0  0  0
  -28.7909  -23.3828   20.6424 C   0  0  0  0  0  0
  -27.2170  -18.4268   17.9736 C   0  0  0  0  0  0
  -30.6266  -17.0640   21.0113 C   0  0  0  0  0  0
  -29.1812  -22.2287   21.2616 N   0  0  0  0  0  0
  -30.0021  -15.7075   20.8923 N   0  0  0  0  0  0
  -28.9099  -16.8277   18.3950 O   0  0  0  0  0  0
  -28.4198  -23.4187   19.4675 O   0  0  0  0  0  0
  -29.2073  -24.2793   22.8406 O   0  0  0  0  0  0
  -30.2038  -19.7563   21.8063 S   0  0  0  0  0  0
  -31.4623  -12.4605   19.1489 H   0  0  0  0  0  0
  -30.3263  -11.3784   19.9015 H   0  0  0  0  0  0
  -29.7561  -11.7407   17.4762 H   0  0  0  0  0  0
  -29.6480  -13.4644   17.7418 H   0  0  0  0  0  0
  -27.8578  -11.2906   18.8748 H   0  0  0  0  0  0
  -27.3665  -12.5666   17.7930 H   0  0  0  0  0  0
  -27.6650  -14.2556   19.5071 H   0  0  0  0  0  0
  -28.6922  -12.0913   21.4077 H   0  0  0  0  0  0
  -28.4479  -13.7686   21.8167 H   0  0  0  0  0  0
  -25.2762   -9.5687   22.4756 H   0  0  0  0  0  0
  -24.0004   -7.4637   22.7470 H   0  0  0  0  0  0
  -21.0842   -8.8773   19.8952 H   0  0  0  0  0  0
  -22.3695  -10.9674   19.6163 H   0  0  0  0  0  0
  -21.2010   -7.6147   23.9713 H   0  0  0  0  0  0
  -21.1478   -6.0522   25.9076 H   0  0  0  0  0  0
  -22.0601   -2.7608   23.2848 H   0  0  0  0  0  0
  -22.4104  -11.9890   22.4805 H   0  0  0  0  0  0
  -21.1098  -13.1240   22.2614 H   0  0  0  0  0  0
  -24.6588  -15.8461   20.5155 H   0  0  0  0  0  0
  -26.2741  -15.6231   20.0695 H   0  0  0  0  0  0
  -26.7144  -32.5504   23.1139 H   0  0  0  0  0  0
  -25.0064  -33.9745   25.0453 H   0  0  0  0  0  0
  -22.7046  -31.3039   21.4037 H   0  0  0  0  0  0
  -23.3744  -35.9645   23.3307 H   0  0  0  0  0  0
  -24.3579  -36.8909   22.2050 H   0  0  0  0  0  0
  -23.7247  -37.6512   23.6649 H   0  0  0  0  0  0
  -26.0704  -31.5692   20.5985 H   0  0  0  0  0  0
  -26.8336  -30.8640   21.9937 H   0  0  0  0  0  0
  -28.1132  -29.0254   21.1990 H   0  0  0  0  0  0
  -26.0446  -25.9397   19.0198 H   0  0  0  0  0  0
  -23.9802  -27.2996   19.0186 H   0  0  0  0  0  0
  -23.7443  -30.5937   19.4030 H   0  0  0  0  0  0
  -22.7508  -29.2429   19.8622 H   0  0  0  0  0  0
  -25.1285  -36.1955   25.0830 H   0  0  0  0  0  0
  -20.9980  -28.3249   24.1415 H   0  0  0  0  0  0
  -20.5664  -26.2284   23.3604 H   0  0  0  0  0  0
  -21.6639  -26.7433   22.1209 H   0  0  0  0  0  0
  -19.6895  -25.6301   21.1235 H   0  0  0  0  0  0
  -19.6680  -27.3203   20.6747 H   0  0  0  0  0  0
  -17.4192  -26.6685   21.4029 H   0  0  0  0  0  0
  -18.0323  -26.0065   22.9020 H   0  0  0  0  0  0
  -19.7931  -30.7277   24.2267 H   0  0  0  0  0  0
  -17.5007  -31.6265   24.5173 H   0  0  0  0  0  0
  -15.5347  -30.2988   23.7645 H   0  0  0  0  0  0
  -15.8673  -28.0825   22.7057 H   0  0  0  0  0  0
  -24.5912  -30.7048   25.7806 H   0  0  0  0  0  0
  -24.8922  -32.2871   26.4907 H   0  0  0  0  0  0
  -25.8083  -30.8891   27.0232 H   0  0  0  0  0  0
  -26.2869  -29.6781   24.1172 H   0  0  0  0  0  0
  -27.4052  -29.7263   25.4603 H   0  0  0  0  0  0
  -27.8721  -30.4320   23.9309 H   0  0  0  0  0  0
  -27.2684  -33.3604   26.2079 H   0  0  0  0  0  0
  -28.3860  -32.6870   25.0303 H   0  0  0  0  0  0
  -28.0734  -31.8419   26.5381 H   0  0  0  0  0  0
  -28.2607  -38.0096   24.7510 H   0  0  0  0  0  0
  -28.1068  -36.2628   24.6297 H   0  0  0  0  0  0
  -27.2302  -37.1467   25.8871 H   0  0  0  0  0  0
  -20.9333  -29.8765   21.6922 H   0  0  0  0  0  0
  -26.0177  -38.2862   24.1410 H   0  0  0  0  0  0
  -27.9946  -20.6860   19.1290 H   0  0  0  0  0  0
  -28.7098  -26.6140   22.0672 H   0  0  0  0  0  0
  -26.4776  -18.8116   18.6755 H   0  0  0  0  0  0
  -26.7583  -17.6172   17.4070 H   0  0  0  0  0  0
  -27.4918  -19.2208   17.2802 H   0  0  0  0  0  0
  -31.0517  -17.1022   22.0153 H   0  0  0  0  0  0
  -31.4955  -17.1075   20.3528 H   0  0  0  0  0  0
  -29.5037  -22.4255   22.2020 H   0  0  0  0  0  0
  -29.0306  -15.6055   21.1411 H   0  0  0  0  0  0
  -29.2180  -25.0998   23.3158 H   0  0  0  0  0  0
  1 25  1  0  0  0
  1 30  2  0  0  0
  1 82  1  0  0  0
  2  3  1  0  0  0
  2 25  1  0  0  0
  2 87  1  0  0  0
  2 88  1  0  0  0
  3  4  1  0  0  0
  3 89  1  0  0  0
  3 90  1  0  0  0
  4  5  1  0  0  0
  4 91  1  0  0  0
  4 92  1  0  0  0
  5  6  1  0  0  0
  5 26  1  0  0  0
  5 93  1  0  0  0
  6 25  1  0  0  0
  6 94  1  0  0  0
  6 95  1  0  0  0
  7  8  2  0  0  0
  7 26  1  0  0  0
  7 29  1  0  0  0
  8  9  1  0  0  0
  8 22  1  0  0  0
  9 10  1  0  0  0
  9 27  2  0  0  0
 10 11  2  0  0  0
 10 15  1  0  0  0
 11 12  1  0  0  0
 11 96  1  0  0  0
 12 13  2  0  0  0
 12 97  1  0  0  0
 13 14  1  0  0  0
 13 31  1  0  0  0
 14 15  2  0  0  0
 14 98  1  0  0  0
 15 99  1  0  0  0
 16 17  2  0  0  0
 16 21  1  0  0  0
 16 31  1  0  0  0
 17 18  1  0  0  0
 17100  1  0  0  0
 18 19  2  0  0  0
 18101  1  0  0  0
 19 20  1  0  0  0
 19 24  1  0  0  0
 20 21  2  0  0  0
 20102  1  0  0  0
 21 23  1  0  0  0
 22 28  1  0  0  0
 22 32  2  0  0  0
 26 27  1  0  0  0
 28103  1  0  0  0
 28104  1  0  0  0
 29105  1  0  0  0
 29106  1  0  0  0
 33 34  1  0  0  0
 33 66  1  0  0  0
 33 70  2  0  0  0
 34 36  1  0  0  0
 34 59  1  0  0  0
 34107  1  0  0  0
 35 44  2  0  0  0
 35 45  1  0  0  0
 35 68  1  0  0  0
 36 56  1  0  0  0
 36108  1  0  0  0
 37 39  1  0  0  0
 37 47  1  0  0  0
 37 66  1  0  0  0
 37109  1  0  0  0
 38 43  2  0  0  0
 38 46  1  0  0  0
 38 47  1  0  0  0
 39 64  1  0  0  0
 39 67  2  0  0  0
 40 52  1  0  0  0
 40 53  2  0  0  0
 40 58  1  0  0  0
 41110  1  0  0  0
 41111  1  0  0  0
 41112  1  0  0  0
 41 48  1  0  0  0
 42 43  1  0  0  0
 42 66  1  0  0  0
 42113  1  0  0  0
 42114  1  0  0  0
 43 44  1  0  0  0
 44115  1  0  0  0
 45 46  2  0  0  0
 45116  1  0  0  0
 46117  1  0  0  0
 47118  1  0  0  0
 47119  1  0  0  0
 48 56  1  0  0  0
 48 65  1  0  0  0
 48120  1  0  0  0
 49 50  1  0  0  0
 49 53  1  0  0  0
 49 64  1  0  0  0
 49121  1  0  0  0
 50 51  1  0  0  0
 50122  1  0  0  0
 50123  1  0  0  0
 51 52  1  0  0  0
 51124  1  0  0  0
 51125  1  0  0  0
 52126  1  0  0  0
 52127  1  0  0  0
 53 54  1  0  0  0
 54 55  2  0  0  0
 54128  1  0  0  0
 55 57  1  0  0  0
 55129  1  0  0  0
 56 69  2  0  0  0
 57 58  2  0  0  0
 57130  1  0  0  0
 58131  1  0  0  0
 59 60  1  0  0  0
 59 61  1  0  0  0
 59 62  1  0  0  0
 60132  1  0  0  0
 60133  1  0  0  0
 60134  1  0  0  0
 61135  1  0  0  0
 61136  1  0  0  0
 61137  1  0  0  0
 62138  1  0  0  0
 62139  1  0  0  0
 62140  1  0  0  0
 63 65  1  0  0  0
 63141  1  0  0  0
 63142  1  0  0  0
 63143  1  0  0  0
 64144  1  0  0  0
 65145  1  0  0  0
 68 75  1  0  0  0
 71 72  1  0  0  0
 71 74  2  0  0  0
 71146  1  0  0  0
 72 73  2  0  0  0
 72 76  1  0  0  0
 73 80  1  0  0  0
 73 86  1  0  0  0
 74 81  1  0  0  0
 74 86  1  0  0  0
 75 77  2  0  0  0
 75147  1  0  0  0
 76 79  1  0  0  0
 76 83  2  0  0  0
 77 78  1  0  0  0
 77 85  1  0  0  0
 78 81  1  0  0  0
 78 84  2  0  0  0
 79148  1  0  0  0
 79149  1  0  0  0
 79150  1  0  0  0
 80 82  1  0  0  0
 80151  1  0  0  0
 80152  1  0  0  0
 81153  1  0  0  0
 82154  1  0  0  0
 85155  1  0  0  0
M  ISO  4   1 100  68 101  75 101  82 100
M  END
> <chiral flag>
0

> <version>
0

> <s_m_source_file>
/data/baiqing/PycharmProjects/Reinvent-master-3.2/result/LINK_invent/BTK/process_docking_weight1_custom_product_contain_oxygen_bond_distance_aromatic_linkinvent_7_9_3/rearranged_h_0172.sdf

> <i_m_source_file_index>
9

> <r_mmod_Potential_Energy-OPLS-2005>
-96.5154724121094

> <r_mmod_Stretch_Energy-OPLS-2005>
57.4353942871094

> <r_mmod_Bend_Energy-OPLS-2005>
158.790969848633

> <r_mmod_Torsional_Energy-OPLS-2005>
235.835952758789

> <r_mmod_Improper_Torsional_Energy-OPLS-2005>
3.91931438446045

> <r_mmod_Van_der_Waal_Energy-OPLS-2005>
124.684646606445

> <r_mmod_Electrostatic_Energy-OPLS-2005>
-472.197784423828

> <r_mmod_Solvation_Energy-OPLS-2005>
-240.818893432617

> <b_mmod_Minimization_Converged-OPLS-2005>
0

> <r_mmod_RMS_Derivative-OPLS-2005>
0.684195637702942

$$$$
9
                    3D
 Structure written by MMmdl.
162170  0  0  1  0            999 V2000
  -30.7177  -14.4209   20.6752 C   0  0  0  0  0  0
  -30.4333  -12.3196   19.3938 C   0  0  0  0  0  0
  -29.4897  -12.5363   18.1942 C   0  0  0  0  0  0
  -28.0142  -12.3842   18.6112 C   0  0  0  0  0  0
  -27.6680  -13.1996   19.8840 C   0  0  2  0  0  0
  -28.7074  -12.9259   20.9925 C   0  0  0  0  0  0
  -25.2608  -13.8144   20.5678 C   0  0  0  0  0  0
  -24.1845  -13.0431   20.9156 C   0  0  0  0  0  0
  -24.6387  -11.6891   20.8721 C   0  0  0  0  0  0
  -23.9044  -10.4288   21.0400 C   0  0  0  0  0  0
  -24.3600   -9.4205   21.9180 C   0  0  0  0  0  0
  -23.6276   -8.2239   22.0757 C   0  0  0  0  0  0
  -22.4258   -8.0274   21.3543 C   0  0  0  0  0  0
  -21.9893   -9.0250   20.4646 C   0  0  0  0  0  0
  -22.7219  -10.2129   20.3051 C   0  0  0  0  0  0
  -21.6853   -6.0721   22.5274 C   0  0  0  0  0  0
  -21.4013   -6.5630   23.8202 C   0  0  0  0  0  0
  -21.3661   -5.6791   24.9172 C   0  0  0  0  0  0
  -21.6046   -4.3051   24.7231 C   0  0  0  0  0  0
  -21.8817   -3.8135   23.4354 C   0  0  0  0  0  0
  -21.9190   -4.6948   22.3404 C   0  0  0  0  0  0
  -22.7867  -13.5234   21.1832 C   0  0  0  0  0  0
  -22.1655   -4.2128   21.0982 F   0  0  0  0  0  0
  -21.5637   -3.4538   25.7745 F   0  0  0  0  0  0
  -30.0471  -13.2560   20.4600 N   0  0  0  0  0  0
  -26.3047  -12.9306   20.3395 N   0  0  0  0  0  0
  -25.9307  -11.6469   20.5752 N   0  0  0  0  0  0
  -22.0498  -12.8238   22.0395 N   0  0  0  0  0  0
  -25.4356  -15.1869   20.4116 N   0  0  0  0  0  0
  -31.7575  -14.7283   20.0814 O   0  0  0  0  0  0
  -21.6632   -6.8863   21.4230 O   0  0  0  0  0  0
  -22.3551  -14.5546   20.6685 O   0  0  0  0  0  0
  -24.6159  -31.8660   23.2102 C   0  0  0  0  0  0
  -25.9041  -32.4818   23.8400 C   0  0  1  0  0  0
  -27.2450  -27.4342   20.0784 C   0  0  0  0  0  0
  -25.5891  -33.8617   24.2340 N   0  0  0  0  0  0
  -23.4029  -30.4899   21.5544 C   0  0  2  0  0  0
  -24.8481  -28.9581   20.1140 C   0  0  0  0  0  0
  -22.7435  -29.4628   22.5032 C   0  0  0  0  0  0
  -18.0270  -28.1342   22.8494 C   0  0  0  0  0  0
  -24.1481  -36.7312   23.2638 C   0  0  0  0  0  0
  -25.9319  -30.8306   21.3609 C   0  0  0  0  0  0
  -26.0090  -29.4627   20.7116 C   0  0  0  0  0  0
  -27.2074  -28.7101   20.6914 C   0  0  0  0  0  0
  -26.0606  -26.9492   19.4728 C   0  0  0  0  0  0
  -24.8693  -27.7009   19.4887 C   0  0  0  0  0  0
  -23.6078  -29.8227   20.1673 C   0  0  0  0  0  0
  -25.4094  -36.3103   24.0336 C   0  0  1  0  0  0
  -20.5865  -28.3605   23.1340 C   0  0  2  0  0  0
  -20.6741  -26.9339   22.5432 C   0  0  0  0  0  0
  -19.5717  -26.6348   21.5209 C   0  0  0  0  0  0
  -18.1904  -26.7895   22.1619 C   0  0  0  0  0  0
  -19.1524  -28.8800   23.2902 C   0  0  0  0  0  0
  -18.9437  -30.1418   23.8883 C   0  0  0  0  0  0
  -17.6434  -30.6538   24.0550 C   0  0  0  0  0  0
  -25.9022  -34.9469   23.5135 C   0  0  0  0  0  0
  -16.5331  -29.9035   23.6309 C   0  0  0  0  0  0
  -16.7265  -28.6464   23.0313 C   0  0  0  0  0  0
  -26.4465  -31.6588   25.0714 C   0  0  0  0  0  0
  -25.3718  -31.3650   26.1450 C   0  0  0  0  0  0
  -27.0299  -30.3052   24.6050 C   0  0  0  0  0  0
  -27.6081  -32.4268   25.7452 C   0  0  0  0  0  0
  -27.5575  -37.1805   24.8464 C   0  0  0  0  0  0
  -21.4167  -29.2967   22.3768 N   0  0  0  0  0  0
  -26.4277  -37.3785   23.9414 N   0  0  0  0  0  0
  -24.6694  -31.0762   22.0998 N   0  0  0  0  0  0
  -23.4232  -28.8169   23.3061 O   0  0  0  0  0  0
  -28.4317  -26.7151   20.0857 O   0  0  0  0  0  0
  -26.5598  -34.8910   22.4707 O   0  0  0  0  0  0
  -23.5349  -32.1415   23.7498 O   0  0  0  0  0  0
  -31.0463  -19.0105   23.2366 C   0  0  0  0  0  0
  -30.8240  -17.5744   21.2784 C   0  0  0  0  0  0
  -30.7196  -17.9384   24.0947 C   0  0  0  0  0  0
  -30.4522  -16.6593   23.5314 C   0  0  0  0  0  0
  -31.0676  -18.8528   21.8388 C   0  0  0  0  0  0
  -30.5247  -16.4741   22.1245 C   0  0  0  0  0  0
  -30.7399  -22.1608   20.1091 C   0  0  0  0  0  0
  -30.4276  -20.6394   20.2836 C   0  0  0  0  0  0
  -30.0660  -15.4692   24.4108 C   0  0  0  0  0  0
  -29.5713  -23.0562   19.6529 C   0  0  0  0  0  0
  -29.6939  -24.5683   19.9940 C   0  0  0  0  0  0
  -28.3909  -25.3373   19.6771 C   0  0  0  0  0  0
  -30.6307  -18.2028   25.6008 C   0  0  0  0  0  0
  -31.3278  -20.0139   21.0612 N   0  0  0  0  0  0
  -30.1459  -15.2013   21.6082 N   0  0  0  0  0  0
  -31.8616  -22.6333   20.3378 O   0  0  0  0  0  0
  -29.4601  -20.0845   19.7493 O   0  0  0  0  0  0
  -30.8097  -19.4928   25.8933 F   0  0  0  0  0  0
  -29.4308  -17.8575   26.0712 F   0  0  0  0  0  0
  -31.5690  -17.5100   26.2471 F   0  0  0  0  0  0
  -31.4730  -12.4517   19.0860 H   0  0  0  0  0  0
  -30.3619  -11.2925   19.7551 H   0  0  0  0  0  0
  -29.7257  -11.8299   17.3978 H   0  0  0  0  0  0
  -29.6519  -13.5318   17.7782 H   0  0  0  0  0  0
  -27.8262  -11.3247   18.7895 H   0  0  0  0  0  0
  -27.3586  -12.6758   17.7902 H   0  0  0  0  0  0
  -27.7287  -14.2559   19.6197 H   0  0  0  0  0  0
  -28.6854  -11.8716   21.2719 H   0  0  0  0  0  0
  -28.4382  -13.4595   21.9048 H   0  0  0  0  0  0
  -25.2743   -9.5685   22.4764 H   0  0  0  0  0  0
  -23.9979   -7.4637   22.7492 H   0  0  0  0  0  0
  -21.0818   -8.8762   19.8967 H   0  0  0  0  0  0
  -22.3663  -10.9666   19.6166 H   0  0  0  0  0  0
  -21.2000   -7.6138   23.9701 H   0  0  0  0  0  0
  -21.1491   -6.0523   25.9076 H   0  0  0  0  0  0
  -22.0598   -2.7593   23.2862 H   0  0  0  0  0  0
  -22.4090  -11.9877   22.4764 H   0  0  0  0  0  0
  -21.1129  -13.1290   22.2616 H   0  0  0  0  0  0
  -24.6748  -15.8480   20.5269 H   0  0  0  0  0  0
  -26.3003  -15.6273   20.1228 H   0  0  0  0  0  0
  -26.7138  -32.5539   23.1187 H   0  0  0  0  0  0
  -25.0034  -33.9786   25.0475 H   0  0  0  0  0  0
  -22.6896  -31.3049   21.4200 H   0  0  0  0  0  0
  -23.3704  -35.9673   23.3308 H   0  0  0  0  0  0
  -24.3606  -36.8942   22.2060 H   0  0  0  0  0  0
  -23.7278  -37.6529   23.6658 H   0  0  0  0  0  0
  -26.0353  -31.5913   20.5868 H   0  0  0  0  0  0
  -26.8261  -30.8966   21.9700 H   0  0  0  0  0  0
  -28.1037  -29.1063   21.1484 H   0  0  0  0  0  0
  -26.0348  -25.9961   18.9670 H   0  0  0  0  0  0
  -23.9815  -27.3171   19.0050 H   0  0  0  0  0  0
  -23.7155  -30.5973   19.4073 H   0  0  0  0  0  0
  -22.7305  -29.2410   19.8732 H   0  0  0  0  0  0
  -25.1272  -36.1988   25.0829 H   0  0  0  0  0  0
  -20.9932  -28.3165   24.1469 H   0  0  0  0  0  0
  -20.5626  -26.2200   23.3612 H   0  0  0  0  0  0
  -21.6612  -26.7364   22.1226 H   0  0  0  0  0  0
  -19.6843  -25.6257   21.1219 H   0  0  0  0  0  0
  -19.6652  -27.3156   20.6736 H   0  0  0  0  0  0
  -17.4168  -26.6641   21.4021 H   0  0  0  0  0  0
  -18.0302  -26.0027   22.9011 H   0  0  0  0  0  0
  -19.7917  -30.7241   24.2225 H   0  0  0  0  0  0
  -17.4985  -31.6218   24.5141 H   0  0  0  0  0  0
  -15.5329  -30.2916   23.7615 H   0  0  0  0  0  0
  -15.8679  -28.0792   22.6972 H   0  0  0  0  0  0
  -24.5948  -30.6937   25.7791 H   0  0  0  0  0  0
  -24.8778  -32.2750   26.4843 H   0  0  0  0  0  0
  -25.8062  -30.8877   27.0240 H   0  0  0  0  0  0
  -26.2832  -29.6809   24.1126 H   0  0  0  0  0  0
  -27.4152  -29.7313   25.4491 H   0  0  0  0  0  0
  -27.8625  -30.4414   23.9147 H   0  0  0  0  0  0
  -27.2785  -33.3618   26.1971 H   0  0  0  0  0  0
  -28.3888  -32.6726   25.0253 H   0  0  0  0  0  0
  -28.0696  -31.8380   26.5389 H   0  0  0  0  0  0
  -28.2586  -38.0103   24.7516 H   0  0  0  0  0  0
  -28.1084  -36.2645   24.6279 H   0  0  0  0  0  0
  -27.2308  -37.1471   25.8868 H   0  0  0  0  0  0
  -20.9342  -29.8770   21.7058 H   0  0  0  0  0  0
  -26.0161  -38.2864   24.1395 H   0  0  0  0  0  0
  -31.2357  -19.9869   23.6587 H   0  0  0  0  0  0
  -30.8275  -17.4513   20.2040 H   0  0  0  0  0  0
  -30.2565  -15.6272   25.4696 H   0  0  0  0  0  0
  -30.6331  -14.5807   24.1307 H   0  0  0  0  0  0
  -29.0044  -15.2437   24.2975 H   0  0  0  0  0  0
  -28.6637  -22.6595   20.1096 H   0  0  0  0  0  0
  -29.4556  -22.9249   18.5784 H   0  0  0  0  0  0
  -30.5247  -25.0108   19.4425 H   0  0  0  0  0  0
  -29.9336  -24.6826   21.0519 H   0  0  0  0  0  0
  -27.5679  -24.8270   20.1811 H   0  0  0  0  0  0
  -28.1994  -25.2824   18.6044 H   0  0  0  0  0  0
  -32.0649  -20.6319   21.3799 H   0  0  0  0  0  0
  -29.3880  -14.7464   22.0931 H   0  0  0  0  0  0
  1 25  1  0  0  0
  1 30  2  0  0  0
  1 85  1  0  0  0
  2  3  1  0  0  0
  2 25  1  0  0  0
  2 91  1  0  0  0
  2 92  1  0  0  0
  3  4  1  0  0  0
  3 93  1  0  0  0
  3 94  1  0  0  0
  4  5  1  0  0  0
  4 95  1  0  0  0
  4 96  1  0  0  0
  5  6  1  0  0  0
  5 26  1  0  0  0
  5 97  1  0  0  0
  6 25  1  0  0  0
  6 98  1  0  0  0
  6 99  1  0  0  0
  7  8  2  0  0  0
  7 26  1  0  0  0
  7 29  1  0  0  0
  8  9  1  0  0  0
  8 22  1  0  0  0
  9 10  1  0  0  0
  9 27  2  0  0  0
 10 11  2  0  0  0
 10 15  1  0  0  0
 11 12  1  0  0  0
 11100  1  0  0  0
 12 13  2  0  0  0
 12101  1  0  0  0
 13 14  1  0  0  0
 13 31  1  0  0  0
 14 15  2  0  0  0
 14102  1  0  0  0
 15103  1  0  0  0
 16 17  2  0  0  0
 16 21  1  0  0  0
 16 31  1  0  0  0
 17 18  1  0  0  0
 17104  1  0  0  0
 18 19  2  0  0  0
 18105  1  0  0  0
 19 20  1  0  0  0
 19 24  1  0  0  0
 20 21  2  0  0  0
 20106  1  0  0  0
 21 23  1  0  0  0
 22 28  1  0  0  0
 22 32  2  0  0  0
 26 27  1  0  0  0
 28107  1  0  0  0
 28108  1  0  0  0
 29109  1  0  0  0
 29110  1  0  0  0
 33 34  1  0  0  0
 33 66  1  0  0  0
 33 70  2  0  0  0
 34 36  1  0  0  0
 34 59  1  0  0  0
 34111  1  0  0  0
 35 44  2  0  0  0
 35 45  1  0  0  0
 35 68  1  0  0  0
 36 56  1  0  0  0
 36112  1  0  0  0
 37 39  1  0  0  0
 37 47  1  0  0  0
 37 66  1  0  0  0
 37113  1  0  0  0
 38 43  2  0  0  0
 38 46  1  0  0  0
 38 47  1  0  0  0
 39 64  1  0  0  0
 39 67  2  0  0  0
 40 52  1  0  0  0
 40 53  2  0  0  0
 40 58  1  0  0  0
 41114  1  0  0  0
 41115  1  0  0  0
 41116  1  0  0  0
 41 48  1  0  0  0
 42 43  1  0  0  0
 42 66  1  0  0  0
 42117  1  0  0  0
 42118  1  0  0  0
 43 44  1  0  0  0
 44119  1  0  0  0
 45 46  2  0  0  0
 45120  1  0  0  0
 46121  1  0  0  0
 47122  1  0  0  0
 47123  1  0  0  0
 48 56  1  0  0  0
 48 65  1  0  0  0
 48124  1  0  0  0
 49 50  1  0  0  0
 49 53  1  0  0  0
 49 64  1  0  0  0
 49125  1  0  0  0
 50 51  1  0  0  0
 50126  1  0  0  0
 50127  1  0  0  0
 51 52  1  0  0  0
 51128  1  0  0  0
 51129  1  0  0  0
 52130  1  0  0  0
 52131  1  0  0  0
 53 54  1  0  0  0
 54 55  2  0  0  0
 54132  1  0  0  0
 55 57  1  0  0  0
 55133  1  0  0  0
 56 69  2  0  0  0
 57 58  2  0  0  0
 57134  1  0  0  0
 58135  1  0  0  0
 59 60  1  0  0  0
 59 61  1  0  0  0
 59 62  1  0  0  0
 60136  1  0  0  0
 60137  1  0  0  0
 60138  1  0  0  0
 61139  1  0  0  0
 61140  1  0  0  0
 61141  1  0  0  0
 62142  1  0  0  0
 62143  1  0  0  0
 62144  1  0  0  0
 63 65  1  0  0  0
 63145  1  0  0  0
 63146  1  0  0  0
 63147  1  0  0  0
 64148  1  0  0  0
 65149  1  0  0  0
 68 82  1  0  0  0
 71 73  2  0  0  0
 71 75  1  0  0  0
 71150  1  0  0  0
 72 75  2  0  0  0
 72 76  1  0  0  0
 72151  1  0  0  0
 73 74  1  0  0  0
 73 83  1  0  0  0
 74 76  2  0  0  0
 74 79  1  0  0  0
 75 84  1  0  0  0
 76 85  1  0  0  0
 77 78  1  0  0  0
 77 80  1  0  0  0
 77 86  2  0  0  0
 78 84  1  0  0  0
 78 87  2  0  0  0
 79152  1  0  0  0
 79153  1  0  0  0
 79154  1  0  0  0
 80 81  1  0  0  0
 80155  1  0  0  0
 80156  1  0  0  0
 81 82  1  0  0  0
 81157  1  0  0  0
 81158  1  0  0  0
 82159  1  0  0  0
 82160  1  0  0  0
 83 88  1  0  0  0
 83 89  1  0  0  0
 83 90  1  0  0  0
 84161  1  0  0  0
 85162  1  0  0  0
M  ISO  4   1 100  68 101  82 101  85 100
M  END
> <chiral flag>
0

> <version>
0

> <s_m_source_file>
/data/baiqing/PycharmProjects/Reinvent-master-3.2/result/LINK_invent/BTK/process_docking_weight1_custom_product_contain_oxygen_bond_distance_aromatic_linkinvent_7_9_3/rearranged_h_0172.sdf

> <i_m_source_file_index>
10

> <r_mmod_Potential_Energy-OPLS-2005>
-5.27605247497559

> <r_mmod_Stretch_Energy-OPLS-2005>
41.7547798156738

> <r_mmod_Bend_Energy-OPLS-2005>
107.11848449707

> <r_mmod_Torsional_Energy-OPLS-2005>
246.861587524414

> <r_mmod_Improper_Torsional_Energy-OPLS-2005>
4.09591341018677

> <r_mmod_Van_der_Waal_Energy-OPLS-2005>
163.964019775391

> <r_mmod_Electrostatic_Energy-OPLS-2005>
-351.864471435547

> <r_mmod_Solvation_Energy-OPLS-2005>
-227.22492980957

> <b_mmod_Minimization_Converged-OPLS-2005>
0

> <r_mmod_RMS_Derivative-OPLS-2005>
2.51558876037598

$$$$
10
                    3D
 Structure written by MMmdl.
166174  0  0  1  0            999 V2000
  -30.6401  -14.5530   20.5103 C   0  0  0  0  0  0
  -30.4311  -12.3271   19.4656 C   0  0  0  0  0  0
  -29.5164  -12.4834   18.2307 C   0  0  0  0  0  0
  -28.0301  -12.3551   18.6246 C   0  0  0  0  0  0
  -27.6566  -13.2070   19.8684 C   0  0  2  0  0  0
  -28.6917  -13.0242   21.0012 C   0  0  0  0  0  0
  -25.2558  -13.8139   20.5600 C   0  0  0  0  0  0
  -24.1819  -13.0422   20.9129 C   0  0  0  0  0  0
  -24.6384  -11.6886   20.8710 C   0  0  0  0  0  0
  -23.9056  -10.4278   21.0397 C   0  0  0  0  0  0
  -24.3598   -9.4202   21.9188 C   0  0  0  0  0  0
  -23.6272   -8.2237   22.0756 C   0  0  0  0  0  0
  -22.4253   -8.0284   21.3543 C   0  0  0  0  0  0
  -21.9895   -9.0258   20.4638 C   0  0  0  0  0  0
  -22.7229  -10.2133   20.3049 C   0  0  0  0  0  0
  -21.6848   -6.0744   22.5278 C   0  0  0  0  0  0
  -21.4019   -6.5635   23.8217 C   0  0  0  0  0  0
  -21.3661   -5.6783   24.9172 C   0  0  0  0  0  0
  -21.6039   -4.3049   24.7212 C   0  0  0  0  0  0
  -21.8818   -3.8150   23.4331 C   0  0  0  0  0  0
  -21.9188   -4.6975   22.3394 C   0  0  0  0  0  0
  -22.7851  -13.5251   21.1817 C   0  0  0  0  0  0
  -22.1653   -4.2166   21.0966 F   0  0  0  0  0  0
  -21.5623   -3.4520   25.7723 F   0  0  0  0  0  0
  -30.0225  -13.3382   20.4562 N   0  0  0  0  0  0
  -26.2993  -12.9310   20.3295 N   0  0  0  0  0  0
  -25.9307  -11.6475   20.5728 N   0  0  0  0  0  0
  -22.0472  -12.8254   22.0368 N   0  0  0  0  0  0
  -25.4265  -15.1851   20.3965 N   0  0  0  0  0  0
  -31.7775  -14.7376   20.0647 O   0  0  0  0  0  0
  -21.6620   -6.8882   21.4239 O   0  0  0  0  0  0
  -22.3562  -14.5592   20.6716 O   0  0  0  0  0  0
  -24.6223  -31.8619   23.2055 C   0  0  0  0  0  0
  -25.9093  -32.4791   23.8360 C   0  0  1  0  0  0
  -27.2280  -27.3812   20.1012 C   0  0  0  0  0  0
  -25.5917  -33.8586   24.2279 N   0  0  0  0  0  0
  -23.4124  -30.4867   21.5454 C   0  0  2  0  0  0
  -24.8556  -28.9459   20.1118 C   0  0  0  0  0  0
  -22.7456  -29.4639   22.4949 C   0  0  0  0  0  0
  -18.0287  -28.1411   22.8497 C   0  0  0  0  0  0
  -24.1467  -36.7269   23.2644 C   0  0  0  0  0  0
  -25.9468  -30.8128   21.3657 C   0  0  0  0  0  0
  -26.0203  -29.4443   20.7086 C   0  0  0  0  0  0
  -27.2103  -28.6723   20.6944 C   0  0  0  0  0  0
  -26.0419  -26.9128   19.4929 C   0  0  0  0  0  0
  -24.8639  -27.6829   19.4978 C   0  0  0  0  0  0
  -23.6225  -29.8197   20.1602 C   0  0  0  0  0  0
  -25.4095  -36.3079   24.0335 C   0  0  1  0  0  0
  -20.5886  -28.3686   23.1306 C   0  0  2  0  0  0
  -20.6767  -26.9413   22.5425 C   0  0  0  0  0  0
  -19.5731  -26.6403   21.5235 C   0  0  0  0  0  0
  -18.1913  -26.7960   22.1640 C   0  0  0  0  0  0
  -19.1544  -28.8869   23.2896 C   0  0  0  0  0  0
  -18.9469  -30.1474   23.8898 C   0  0  0  0  0  0
  -17.6469  -30.6610   24.0583 C   0  0  0  0  0  0
  -25.9044  -34.9452   23.5106 C   0  0  0  0  0  0
  -16.5358  -29.9105   23.6361 C   0  0  0  0  0  0
  -16.7277  -28.6534   23.0369 C   0  0  0  0  0  0
  -26.4497  -31.6607   25.0721 C   0  0  0  0  0  0
  -25.3751  -31.3743   26.1461 C   0  0  0  0  0  0
  -27.0340  -30.3043   24.6153 C   0  0  0  0  0  0
  -27.6039  -32.4359   25.7491 C   0  0  0  0  0  0
  -27.5563  -37.1789   24.8473 C   0  0  0  0  0  0
  -21.4181  -29.3037   22.3697 N   0  0  0  0  0  0
  -26.4261  -37.3787   23.9430 N   0  0  0  0  0  0
  -24.6784  -31.0700   22.0958 N   0  0  0  0  0  0
  -23.4206  -28.8184   23.3024 O   0  0  0  0  0  0
  -28.3798  -26.6049   20.1281 O   0  0  0  0  0  0
  -26.5608  -34.8921   22.4673 O   0  0  0  0  0  0
  -23.5401  -32.1372   23.7438 O   0  0  0  0  0  0
  -29.0865  -16.6146   18.8405 C   0  0  0  0  0  0
  -29.4321  -18.0617   20.7457 C   0  0  0  0  0  0
  -28.4833  -17.6754   18.1228 C   0  0  0  0  0  0
  -28.2943  -18.9511   18.7462 C   0  0  0  0  0  0
  -29.5091  -16.7607   20.1752 C   0  0  0  0  0  0
  -28.8952  -19.1803   20.0310 C   0  0  0  0  0  0
  -28.0495  -17.4033   16.7256 C   0  0  0  0  0  0
  -29.2420  -21.6909   20.2102 C   0  0  0  0  0  0
  -29.7499  -25.1316   22.1319 C   0  0  0  0  0  0
  -30.6847  -24.5480   19.9012 C   0  0  0  0  0  0
  -29.1376  -22.8900   21.1995 C   0  0  0  0  0  0
  -28.2295  -25.1538   20.1380 C   0  0  0  0  0  0
  -27.3703  -19.9923   18.0605 C   0  0  0  0  0  0
  -29.4386  -24.4035   20.8024 C   0  0  0  0  0  0
  -27.8562  -16.2555   16.2226 N   0  0  0  0  0  0
  -28.9116  -20.4650   20.7004 N   0  0  0  0  0  0
  -29.8793  -15.5923   20.9425 N   0  0  0  0  0  0
  -29.6351  -21.8505   19.0554 O   0  0  0  0  0  0
  -26.2972  -19.4072   17.5248 F   0  0  0  0  0  0
  -26.8498  -20.8917   18.8962 F   0  0  0  0  0  0
  -28.0151  -20.6304   17.0834 F   0  0  0  0  0  0
  -31.4819  -12.4206   19.1825 H   0  0  0  0  0  0
  -30.3290  -11.3269   19.8912 H   0  0  0  0  0  0
  -29.7701  -11.7275   17.4862 H   0  0  0  0  0  0
  -29.6958  -13.4478   17.7548 H   0  0  0  0  0  0
  -27.8346  -11.3024   18.8283 H   0  0  0  0  0  0
  -27.3977  -12.6210   17.7773 H   0  0  0  0  0  0
  -27.6841  -14.2481   19.5537 H   0  0  0  0  0  0
  -28.6743  -11.9960   21.3663 H   0  0  0  0  0  0
  -28.4404  -13.6439   21.8624 H   0  0  0  0  0  0
  -25.2738   -9.5680   22.4778 H   0  0  0  0  0  0
  -23.9973   -7.4628   22.7479 H   0  0  0  0  0  0
  -21.0835   -8.8800   19.8941 H   0  0  0  0  0  0
  -22.3709  -10.9683   19.6161 H   0  0  0  0  0  0
  -21.2033   -7.6148   23.9738 H   0  0  0  0  0  0
  -21.1477   -6.0495   25.9080 H   0  0  0  0  0  0
  -22.0601   -2.7619   23.2808 H   0  0  0  0  0  0
  -22.4047  -11.9905   22.4770 H   0  0  0  0  0  0
  -21.1131  -13.1368   22.2628 H   0  0  0  0  0  0
  -24.6444  -15.8276   20.4626 H   0  0  0  0  0  0
  -26.2800  -15.6286   20.0840 H   0  0  0  0  0  0
  -26.7164  -32.5473   23.1109 H   0  0  0  0  0  0
  -25.0073  -33.9720   25.0432 H   0  0  0  0  0  0
  -22.7053  -31.3068   21.4061 H   0  0  0  0  0  0
  -23.3739  -35.9598   23.3320 H   0  0  0  0  0  0
  -24.3556  -36.8878   22.2059 H   0  0  0  0  0  0
  -23.7208  -37.6465   23.6657 H   0  0  0  0  0  0
  -26.0772  -31.5792   20.5995 H   0  0  0  0  0  0
  -26.8277  -30.8572   21.9936 H   0  0  0  0  0  0
  -28.1071  -29.0507   21.1627 H   0  0  0  0  0  0
  -26.0105  -25.9466   19.0104 H   0  0  0  0  0  0
  -23.9692  -27.2979   19.0277 H   0  0  0  0  0  0
  -23.7429  -30.5920   19.3998 H   0  0  0  0  0  0
  -22.7435  -29.2454   19.8617 H   0  0  0  0  0  0
  -25.1288  -36.1908   25.0829 H   0  0  0  0  0  0
  -21.0003  -28.3255   24.1417 H   0  0  0  0  0  0
  -20.5695  -26.2292   23.3621 H   0  0  0  0  0  0
  -21.6629  -26.7460   22.1201 H   0  0  0  0  0  0
  -19.6873  -25.6318   21.1253 H   0  0  0  0  0  0
  -19.6661  -27.3224   20.6771 H   0  0  0  0  0  0
  -17.4192  -26.6749   21.4023 H   0  0  0  0  0  0
  -18.0270  -26.0107   22.9033 H   0  0  0  0  0  0
  -19.7940  -30.7312   24.2247 H   0  0  0  0  0  0
  -17.5024  -31.6284   24.5194 H   0  0  0  0  0  0
  -15.5357  -30.3013   23.7694 H   0  0  0  0  0  0
  -15.8676  -28.0865   22.7076 H   0  0  0  0  0  0
  -24.5898  -30.7122   25.7796 H   0  0  0  0  0  0
  -24.8977  -32.2916   26.4912 H   0  0  0  0  0  0
  -25.8098  -30.8895   27.0211 H   0  0  0  0  0  0
  -26.2893  -29.6784   24.1215 H   0  0  0  0  0  0
  -27.4094  -29.7317   25.4644 H   0  0  0  0  0  0
  -27.8742  -30.4342   23.9327 H   0  0  0  0  0  0
  -27.2617  -33.3646   26.2064 H   0  0  0  0  0  0
  -28.3841  -32.6948   25.0324 H   0  0  0  0  0  0
  -28.0713  -31.8502   26.5411 H   0  0  0  0  0  0
  -28.2598  -38.0074   24.7541 H   0  0  0  0  0  0
  -28.1045  -36.2611   24.6275 H   0  0  0  0  0  0
  -27.2297  -37.1426   25.8883 H   0  0  0  0  0  0
  -20.9365  -29.8715   21.6862 H   0  0  0  0  0  0
  -26.0132  -38.2849   24.1477 H   0  0  0  0  0  0
  -29.1793  -15.6481   18.3674 H   0  0  0  0  0  0
  -29.7867  -18.2062   21.7568 H   0  0  0  0  0  0
  -27.8956  -18.2761   16.0857 H   0  0  0  0  0  0
  -30.6013  -24.6843   22.6480 H   0  0  0  0  0  0
  -28.8975  -25.1041   22.8119 H   0  0  0  0  0  0
  -30.0004  -26.1811   21.9752 H   0  0  0  0  0  0
  -31.5189  -23.9481   20.2677 H   0  0  0  0  0  0
  -31.0220  -25.5835   19.8527 H   0  0  0  0  0  0
  -30.4810  -24.2424   18.8749 H   0  0  0  0  0  0
  -29.8263  -22.6146   21.9989 H   0  0  0  0  0  0
  -28.1494  -22.8410   21.6583 H   0  0  0  0  0  0
  -27.3260  -24.8856   20.6876 H   0  0  0  0  0  0
  -28.0890  -24.7986   19.1162 H   0  0  0  0  0  0
  -28.0135  -15.5090   16.8891 H   0  0  0  0  0  0
  -28.7335  -20.4415   21.6950 H   0  0  0  0  0  0
  -29.1540  -15.2942   21.5790 H   0  0  0  0  0  0
  1 25  1  0  0  0
  1 30  2  0  0  0
  1 87  1  0  0  0
  2  3  1  0  0  0
  2 25  1  0  0  0
  2 92  1  0  0  0
  2 93  1  0  0  0
  3  4  1  0  0  0
  3 94  1  0  0  0
  3 95  1  0  0  0
  4  5  1  0  0  0
  4 96  1  0  0  0
  4 97  1  0  0  0
  5  6  1  0  0  0
  5 26  1  0  0  0
  5 98  1  0  0  0
  6 25  1  0  0  0
  6 99  1  0  0  0
  6100  1  0  0  0
  7  8  2  0  0  0
  7 26  1  0  0  0
  7 29  1  0  0  0
  8  9  1  0  0  0
  8 22  1  0  0  0
  9 10  1  0  0  0
  9 27  2  0  0  0
 10 11  2  0  0  0
 10 15  1  0  0  0
 11 12  1  0  0  0
 11101  1  0  0  0
 12 13  2  0  0  0
 12102  1  0  0  0
 13 14  1  0  0  0
 13 31  1  0  0  0
 14 15  2  0  0  0
 14103  1  0  0  0
 15104  1  0  0  0
 16 17  2  0  0  0
 16 21  1  0  0  0
 16 31  1  0  0  0
 17 18  1  0  0  0
 17105  1  0  0  0
 18 19  2  0  0  0
 18106  1  0  0  0
 19 20  1  0  0  0
 19 24  1  0  0  0
 20 21  2  0  0  0
 20107  1  0  0  0
 21 23  1  0  0  0
 22 28  1  0  0  0
 22 32  2  0  0  0
 26 27  1  0  0  0
 28108  1  0  0  0
 28109  1  0  0  0
 29110  1  0  0  0
 29111  1  0  0  0
 33 34  1  0  0  0
 33 66  1  0  0  0
 33 70  2  0  0  0
 34 36  1  0  0  0
 34 59  1  0  0  0
 34112  1  0  0  0
 35 44  2  0  0  0
 35 45  1  0  0  0
 35 68  1  0  0  0
 36 56  1  0  0  0
 36113  1  0  0  0
 37 39  1  0  0  0
 37 47  1  0  0  0
 37 66  1  0  0  0
 37114  1  0  0  0
 38 43  2  0  0  0
 38 46  1  0  0  0
 38 47  1  0  0  0
 39 64  1  0  0  0
 39 67  2  0  0  0
 40 52  1  0  0  0
 40 53  2  0  0  0
 40 58  1  0  0  0
 41115  1  0  0  0
 41116  1  0  0  0
 41117  1  0  0  0
 41 48  1  0  0  0
 42 43  1  0  0  0
 42 66  1  0  0  0
 42118  1  0  0  0
 42119  1  0  0  0
 43 44  1  0  0  0
 44120  1  0  0  0
 45 46  2  0  0  0
 45121  1  0  0  0
 46122  1  0  0  0
 47123  1  0  0  0
 47124  1  0  0  0
 48 56  1  0  0  0
 48 65  1  0  0  0
 48125  1  0  0  0
 49 50  1  0  0  0
 49 53  1  0  0  0
 49 64  1  0  0  0
 49126  1  0  0  0
 50 51  1  0  0  0
 50127  1  0  0  0
 50128  1  0  0  0
 51 52  1  0  0  0
 51129  1  0  0  0
 51130  1  0  0  0
 52131  1  0  0  0
 52132  1  0  0  0
 53 54  1  0  0  0
 54 55  2  0  0  0
 54133  1  0  0  0
 55 57  1  0  0  0
 55134  1  0  0  0
 56 69  2  0  0  0
 57 58  2  0  0  0
 57135  1  0  0  0
 58136  1  0  0  0
 59 60  1  0  0  0
 59 61  1  0  0  0
 59 62  1  0  0  0
 60137  1  0  0  0
 60138  1  0  0  0
 60139  1  0  0  0
 61140  1  0  0  0
 61141  1  0  0  0
 61142  1  0  0  0
 62143  1  0  0  0
 62144  1  0  0  0
 62145  1  0  0  0
 63 65  1  0  0  0
 63146  1  0  0  0
 63147  1  0  0  0
 63148  1  0  0  0
 64149  1  0  0  0
 65150  1  0  0  0
 68 82  1  0  0  0
 71 73  2  0  0  0
 71 75  1  0  0  0
 71151  1  0  0  0
 72 75  2  0  0  0
 72 76  1  0  0  0
 72152  1  0  0  0
 73 74  1  0  0  0
 73 77  1  0  0  0
 74 76  2  0  0  0
 74 83  1  0  0  0
 75 87  1  0  0  0
 76 86  1  0  0  0
 77 85  2  0  0  0
 77153  1  0  0  0
 78 81  1  0  0  0
 78 86  1  0  0  0
 78 88  2  0  0  0
 79154  1  0  0  0
 79155  1  0  0  0
 79156  1  0  0  0
 79 84  1  0  0  0
 80 84  1  0  0  0
 80157  1  0  0  0
 80158  1  0  0  0
 80159  1  0  0  0
 81 84  1  0  0  0
 81160  1  0  0  0
 81161  1  0  0  0
 82 84  1  0  0  0
 82162  1  0  0  0
 82163  1  0  0  0
 83 89  1  0  0  0
 83 90  1  0  0  0
 83 91  1  0  0  0
 85164  1  0  0  0
 86165  1  0  0  0
 87166  1  0  0  0
M  ISO  4   1 100  68 101  82 101  87 100
M  END
> <chiral flag>
0

> <version>
0

> <s_m_source_file>
/data/baiqing/PycharmProjects/Reinvent-master-3.2/result/LINK_invent/BTK/process_docking_weight1_custom_product_contain_oxygen_bond_distance_aromatic_linkinvent_7_9_3/rearranged_h_0172.sdf

> <i_m_source_file_index>
11

> <r_mmod_Potential_Energy-OPLS-2005>
62.4037742614746

> <r_mmod_Stretch_Energy-OPLS-2005>
63.8498268127441

> <r_mmod_Bend_Energy-OPLS-2005>
135.057815551758

> <r_mmod_Torsional_Energy-OPLS-2005>
284.313140869141

> <r_mmod_Improper_Torsional_Energy-OPLS-2005>
7.39249610900879

> <r_mmod_Van_der_Waal_Energy-OPLS-2005>
162.925979614258

> <r_mmod_Electrostatic_Energy-OPLS-2005>
-369.304107666016

> <r_mmod_Solvation_Energy-OPLS-2005>
-247.66796875

> <b_mmod_Minimization_Converged-OPLS-2005>
0

> <r_mmod_RMS_Derivative-OPLS-2005>
2.434166431427

$$$$
11
                    3D
 Structure written by MMmdl.
156164  0  0  1  0            999 V2000
  -30.7686  -14.5607   20.5917 C   0  0  0  0  0  0
  -30.4291  -12.3799   19.4601 C   0  0  0  0  0  0
  -29.5032  -12.5071   18.2350 C   0  0  0  0  0  0
  -28.0329  -12.3428   18.6549 C   0  0  0  0  0  0
  -27.6607  -13.2284   19.8721 C   0  0  2  0  0  0
  -28.7076  -13.1204   21.0079 C   0  0  0  0  0  0
  -25.2599  -13.8224   20.5736 C   0  0  0  0  0  0
  -24.1855  -13.0461   20.9205 C   0  0  0  0  0  0
  -24.6440  -11.6931   20.8755 C   0  0  0  0  0  0
  -23.9096  -10.4312   21.0403 C   0  0  0  0  0  0
  -24.3628   -9.4211   21.9184 C   0  0  0  0  0  0
  -23.6295   -8.2250   22.0757 C   0  0  0  0  0  0
  -22.4282   -8.0300   21.3542 C   0  0  0  0  0  0
  -21.9923   -9.0272   20.4651 C   0  0  0  0  0  0
  -22.7258  -10.2144   20.3050 C   0  0  0  0  0  0
  -21.6851   -6.0741   22.5266 C   0  0  0  0  0  0
  -21.4022   -6.5646   23.8202 C   0  0  0  0  0  0
  -21.3641   -5.6792   24.9168 C   0  0  0  0  0  0
  -21.6048   -4.3059   24.7224 C   0  0  0  0  0  0
  -21.8816   -3.8146   23.4348 C   0  0  0  0  0  0
  -21.9210   -4.6968   22.3406 C   0  0  0  0  0  0
  -22.7881  -13.5265   21.1849 C   0  0  0  0  0  0
  -22.1670   -4.2158   21.0981 F   0  0  0  0  0  0
  -21.5623   -3.4535   25.7730 F   0  0  0  0  0  0
  -30.0365  -13.4146   20.4424 N   0  0  0  0  0  0
  -26.3050  -12.9406   20.3402 N   0  0  0  0  0  0
  -25.9373  -11.6549   20.5792 N   0  0  0  0  0  0
  -22.0487  -12.8252   22.0394 N   0  0  0  0  0  0
  -25.4348  -15.1939   20.4153 N   0  0  0  0  0  0
  -31.8914  -14.6573   20.0904 O   0  0  0  0  0  0
  -21.6641   -6.8883   21.4228 O   0  0  0  0  0  0
  -22.3547  -14.5539   20.6664 O   0  0  0  0  0  0
  -24.6252  -31.8608   23.1962 C   0  0  0  0  0  0
  -25.9070  -32.4809   23.8320 C   0  0  1  0  0  0
  -27.2575  -27.3590   20.1399 C   0  0  0  0  0  0
  -25.5876  -33.8604   24.2235 N   0  0  0  0  0  0
  -23.4228  -30.4809   21.5346 C   0  0  2  0  0  0
  -24.8790  -28.9314   20.1164 C   0  0  0  0  0  0
  -22.7527  -29.4604   22.4865 C   0  0  0  0  0  0
  -18.0307  -28.1398   22.8547 C   0  0  0  0  0  0
  -24.1464  -36.7327   23.2651 C   0  0  0  0  0  0
  -25.9583  -30.8055   21.3604 C   0  0  0  0  0  0
  -26.0411  -29.4289   20.7202 C   0  0  0  0  0  0
  -27.2361  -28.6597   20.7207 C   0  0  0  0  0  0
  -26.0752  -26.8890   19.5310 C   0  0  0  0  0  0
  -24.8961  -27.6617   19.5098 C   0  0  0  0  0  0
  -23.6456  -29.8129   20.1492 C   0  0  0  0  0  0
  -25.4087  -36.3102   24.0349 C   0  0  1  0  0  0
  -20.5942  -28.3652   23.1314 C   0  0  2  0  0  0
  -20.6779  -26.9377   22.5410 C   0  0  0  0  0  0
  -19.5724  -26.6397   21.5233 C   0  0  0  0  0  0
  -18.1918  -26.7964   22.1668 C   0  0  0  0  0  0
  -19.1577  -28.8863   23.2934 C   0  0  0  0  0  0
  -18.9469  -30.1494   23.8914 C   0  0  0  0  0  0
  -17.6461  -30.6589   24.0615 C   0  0  0  0  0  0
  -25.9043  -34.9485   23.5107 C   0  0  0  0  0  0
  -16.5357  -29.9069   23.6371 C   0  0  0  0  0  0
  -16.7301  -28.6512   23.0364 C   0  0  0  0  0  0
  -26.4452  -31.6636   25.0703 C   0  0  0  0  0  0
  -25.3671  -31.3820   26.1421 C   0  0  0  0  0  0
  -27.0294  -30.3081   24.6143 C   0  0  0  0  0  0
  -27.6023  -32.4361   25.7494 C   0  0  0  0  0  0
  -27.5568  -37.1814   24.8463 C   0  0  0  0  0  0
  -21.4225  -29.3031   22.3699 N   0  0  0  0  0  0
  -26.4248  -37.3802   23.9434 N   0  0  0  0  0  0
  -24.6864  -31.0702   22.0849 N   0  0  0  0  0  0
  -23.4290  -28.8091   23.2876 O   0  0  0  0  0  0
  -28.3917  -26.5505   20.0989 O   0  0  0  0  0  0
  -26.5626  -34.8960   22.4675 O   0  0  0  0  0  0
  -23.5426  -32.1316   23.7333 O   0  0  0  0  0  0
  -32.7533  -18.2370   22.2380 C   0  0  0  0  0  0
  -32.0135  -19.4337   22.1862 C   0  0  0  0  0  0
  -32.1647  -17.0104   21.8740 C   0  0  0  0  0  0
  -30.0685  -18.1692   21.4206 C   0  0  0  0  0  0
  -30.6699  -19.4304   21.7481 C   0  0  0  0  0  0
  -30.8067  -16.9399   21.4684 C   0  0  0  0  0  0
  -29.3072  -22.9699   21.3882 C   0  0  0  0  0  0
  -29.0178  -24.0567   20.5803 C   0  0  0  0  0  0
  -29.8223  -21.6591   20.8758 C   0  0  0  0  0  0
  -29.0978  -23.0649   22.9015 C   0  0  0  0  0  0
  -28.4584  -25.4448   21.0566 C   0  0  0  0  0  0
  -29.9468  -20.6816   21.8179 N   0  0  0  0  0  0
  -30.1893  -15.6525   21.1719 N   0  0  0  0  0  0
  -30.0986  -21.4402   19.6908 O   0  0  0  0  0  0
  -29.1687  -24.0626   19.2414 O   0  0  0  0  0  0
  -31.4689  -12.4773   19.1457 H   0  0  0  0  0  0
  -30.3535  -11.3913   19.9103 H   0  0  0  0  0  0
  -29.7678  -11.7540   17.4922 H   0  0  0  0  0  0
  -29.6506  -13.4776   17.7578 H   0  0  0  0  0  0
  -27.8834  -11.2911   18.9035 H   0  0  0  0  0  0
  -27.3716  -12.5521   17.8160 H   0  0  0  0  0  0
  -27.6761  -14.2595   19.5185 H   0  0  0  0  0  0
  -28.7022  -12.1200   21.4413 H   0  0  0  0  0  0
  -28.4522  -13.7998   21.8208 H   0  0  0  0  0  0
  -25.2765   -9.5687   22.4764 H   0  0  0  0  0  0
  -24.0009   -7.4643   22.7470 H   0  0  0  0  0  0
  -21.0861   -8.8781   19.8958 H   0  0  0  0  0  0
  -22.3715  -10.9673   19.6159 H   0  0  0  0  0  0
  -21.1993   -7.6146   23.9709 H   0  0  0  0  0  0
  -21.1464   -6.0522   25.9071 H   0  0  0  0  0  0
  -22.0613   -2.7611   23.2838 H   0  0  0  0  0  0
  -22.4083  -11.9911   22.4778 H   0  0  0  0  0  0
  -21.1087  -13.1253   22.2541 H   0  0  0  0  0  0
  -24.6731  -15.8553   20.5213 H   0  0  0  0  0  0
  -26.2948  -15.6233   20.0957 H   0  0  0  0  0  0
  -26.7183  -32.5484   23.1114 H   0  0  0  0  0  0
  -24.9978  -33.9710   25.0366 H   0  0  0  0  0  0
  -22.7131  -31.2992   21.3932 H   0  0  0  0  0  0
  -23.3731  -35.9653   23.3286 H   0  0  0  0  0  0
  -24.3569  -36.8926   22.2067 H   0  0  0  0  0  0
  -23.7214  -37.6532   23.6665 H   0  0  0  0  0  0
  -26.0908  -31.5614   20.5834 H   0  0  0  0  0  0
  -26.8406  -30.8616   21.9864 H   0  0  0  0  0  0
  -28.1355  -29.0550   21.1772 H   0  0  0  0  0  0
  -26.0763  -25.9122   19.0699 H   0  0  0  0  0  0
  -24.0136  -27.2767   19.0188 H   0  0  0  0  0  0
  -23.7731  -30.5933   19.3934 H   0  0  0  0  0  0
  -22.7683  -29.2409   19.8402 H   0  0  0  0  0  0
  -25.1265  -36.1945   25.0845 H   0  0  0  0  0  0
  -21.0108  -28.3162   24.1404 H   0  0  0  0  0  0
  -20.5694  -26.2223   23.3575 H   0  0  0  0  0  0
  -21.6627  -26.7353   22.1187 H   0  0  0  0  0  0
  -19.6791  -25.6301   21.1224 H   0  0  0  0  0  0
  -19.6666  -27.3268   20.6811 H   0  0  0  0  0  0
  -17.4206  -26.6839   21.4038 H   0  0  0  0  0  0
  -18.0255  -26.0054   22.9013 H   0  0  0  0  0  0
  -19.7902  -30.7398   24.2214 H   0  0  0  0  0  0
  -17.4946  -31.6249   24.5231 H   0  0  0  0  0  0
  -15.5349  -30.2948   23.7650 H   0  0  0  0  0  0
  -15.8730  -28.0842   22.6978 H   0  0  0  0  0  0
  -24.5826  -30.7200   25.7733 H   0  0  0  0  0  0
  -24.8928  -32.3039   26.4795 H   0  0  0  0  0  0
  -25.7963  -30.9014   27.0224 H   0  0  0  0  0  0
  -26.2861  -29.6840   24.1167 H   0  0  0  0  0  0
  -27.4033  -29.7326   25.4610 H   0  0  0  0  0  0
  -27.8694  -30.4420   23.9335 H   0  0  0  0  0  0
  -27.2649  -33.3685   26.2042 H   0  0  0  0  0  0
  -28.3881  -32.6841   25.0350 H   0  0  0  0  0  0
  -28.0640  -31.8499   26.5438 H   0  0  0  0  0  0
  -28.2588  -38.0102   24.7544 H   0  0  0  0  0  0
  -28.1061  -36.2660   24.6251 H   0  0  0  0  0  0
  -27.2342  -37.1424   25.8873 H   0  0  0  0  0  0
  -20.9335  -29.8847   21.7048 H   0  0  0  0  0  0
  -26.0129  -38.2880   24.1433 H   0  0  0  0  0  0
  -33.7797  -18.2521   22.5802 H   0  0  0  0  0  0
  -32.4840  -20.3532   22.5100 H   0  0  0  0  0  0
  -32.7751  -16.1200   21.9410 H   0  0  0  0  0  0
  -29.0260  -18.1516   21.1383 H   0  0  0  0  0  0
  -29.0221  -24.0930   23.2433 H   0  0  0  0  0  0
  -29.9360  -22.6402   23.4529 H   0  0  0  0  0  0
  -28.1846  -22.5416   23.1980 H   0  0  0  0  0  0
  -29.0906  -25.8039   21.8684 H   0  0  0  0  0  0
  -27.4864  -25.2580   21.5106 H   0  0  0  0  0  0
  -29.7397  -21.0073   22.7558 H   0  0  0  0  0  0
  -29.2091  -15.5676   21.3959 H   0  0  0  0  0  0
  -29.4816  -23.1994   18.9805 H   0  0  0  0  0  0
  1 25  1  0  0  0
  1 30  2  0  0  0
  1 83  1  0  0  0
  2  3  1  0  0  0
  2 25  1  0  0  0
  2 86  1  0  0  0
  2 87  1  0  0  0
  3  4  1  0  0  0
  3 88  1  0  0  0
  3 89  1  0  0  0
  4  5  1  0  0  0
  4 90  1  0  0  0
  4 91  1  0  0  0
  5  6  1  0  0  0
  5 26  1  0  0  0
  5 92  1  0  0  0
  6 25  1  0  0  0
  6 93  1  0  0  0
  6 94  1  0  0  0
  7  8  2  0  0  0
  7 26  1  0  0  0
  7 29  1  0  0  0
  8  9  1  0  0  0
  8 22  1  0  0  0
  9 10  1  0  0  0
  9 27  2  0  0  0
 10 11  2  0  0  0
 10 15  1  0  0  0
 11 12  1  0  0  0
 11 95  1  0  0  0
 12 13  2  0  0  0
 12 96  1  0  0  0
 13 14  1  0  0  0
 13 31  1  0  0  0
 14 15  2  0  0  0
 14 97  1  0  0  0
 15 98  1  0  0  0
 16 17  2  0  0  0
 16 21  1  0  0  0
 16 31  1  0  0  0
 17 18  1  0  0  0
 17 99  1  0  0  0
 18 19  2  0  0  0
 18100  1  0  0  0
 19 20  1  0  0  0
 19 24  1  0  0  0
 20 21  2  0  0  0
 20101  1  0  0  0
 21 23  1  0  0  0
 22 28  1  0  0  0
 22 32  2  0  0  0
 26 27  1  0  0  0
 28102  1  0  0  0
 28103  1  0  0  0
 29104  1  0  0  0
 29105  1  0  0  0
 33 34  1  0  0  0
 33 66  1  0  0  0
 33 70  2  0  0  0
 34 36  1  0  0  0
 34 59  1  0  0  0
 34106  1  0  0  0
 35 44  2  0  0  0
 35 45  1  0  0  0
 35 68  1  0  0  0
 36 56  1  0  0  0
 36107  1  0  0  0
 37 39  1  0  0  0
 37 47  1  0  0  0
 37 66  1  0  0  0
 37108  1  0  0  0
 38 43  2  0  0  0
 38 46  1  0  0  0
 38 47  1  0  0  0
 39 64  1  0  0  0
 39 67  2  0  0  0
 40 52  1  0  0  0
 40 53  2  0  0  0
 40 58  1  0  0  0
 41109  1  0  0  0
 41110  1  0  0  0
 41111  1  0  0  0
 41 48  1  0  0  0
 42 43  1  0  0  0
 42 66  1  0  0  0
 42112  1  0  0  0
 42113  1  0  0  0
 43 44  1  0  0  0
 44114  1  0  0  0
 45 46  2  0  0  0
 45115  1  0  0  0
 46116  1  0  0  0
 47117  1  0  0  0
 47118  1  0  0  0
 48 56  1  0  0  0
 48 65  1  0  0  0
 48119  1  0  0  0
 49 50  1  0  0  0
 49 53  1  0  0  0
 49 64  1  0  0  0
 49120  1  0  0  0
 50 51  1  0  0  0
 50121  1  0  0  0
 50122  1  0  0  0
 51 52  1  0  0  0
 51123  1  0  0  0
 51124  1  0  0  0
 52125  1  0  0  0
 52126  1  0  0  0
 53 54  1  0  0  0
 54 55  2  0  0  0
 54127  1  0  0  0
 55 57  1  0  0  0
 55128  1  0  0  0
 56 69  2  0  0  0
 57 58  2  0  0  0
 57129  1  0  0  0
 58130  1  0  0  0
 59 60  1  0  0  0
 59 61  1  0  0  0
 59 62  1  0  0  0
 60131  1  0  0  0
 60132  1  0  0  0
 60133  1  0  0  0
 61134  1  0  0  0
 61135  1  0  0  0
 61136  1  0  0  0
 62137  1  0  0  0
 62138  1  0  0  0
 62139  1  0  0  0
 63 65  1  0  0  0
 63140  1  0  0  0
 63141  1  0  0  0
 63142  1  0  0  0
 64143  1  0  0  0
 65144  1  0  0  0
 68 81  1  0  0  0
 71 72  2  0  0  0
 71 73  1  0  0  0
 71145  1  0  0  0
 72 75  1  0  0  0
 72146  1  0  0  0
 73 76  2  0  0  0
 73147  1  0  0  0
 74 75  2  0  0  0
 74 76  1  0  0  0
 74148  1  0  0  0
 75 82  1  0  0  0
 76 83  1  0  0  0
 77 78  2  0  0  0
 77 79  1  0  0  0
 77 80  1  0  0  0
 78 81  1  0  0  0
 78 85  1  0  0  0
 79 82  1  0  0  0
 79 84  2  0  0  0
 80149  1  0  0  0
 80150  1  0  0  0
 80151  1  0  0  0
 81152  1  0  0  0
 81153  1  0  0  0
 82154  1  0  0  0
 83155  1  0  0  0
 85156  1  0  0  0
M  ISO  4   1 100  68 101  81 101  83 100
M  END
> <chiral flag>
0

> <version>
0

> <s_m_source_file>
/data/baiqing/PycharmProjects/Reinvent-master-3.2/result/LINK_invent/BTK/process_docking_weight1_custom_product_contain_oxygen_bond_distance_aromatic_linkinvent_7_9_3/rearranged_h_0172.sdf

> <i_m_source_file_index>
12

> <r_mmod_Potential_Energy-OPLS-2005>
65.8863143920898

> <r_mmod_Stretch_Energy-OPLS-2005>
71.9377899169922

> <r_mmod_Bend_Energy-OPLS-2005>
122.923767089844

> <r_mmod_Torsional_Energy-OPLS-2005>
273.547637939453

> <r_mmod_Improper_Torsional_Energy-OPLS-2005>
4.61740398406982

> <r_mmod_Van_der_Waal_Energy-OPLS-2005>
157.978729248047

> <r_mmod_Electrostatic_Energy-OPLS-2005>
-364.020599365234

> <r_mmod_Solvation_Energy-OPLS-2005>
-233.94059753418

> <b_mmod_Minimization_Converged-OPLS-2005>
0

> <r_mmod_RMS_Derivative-OPLS-2005>
6.29328966140747

$$$$
12
                    3D
 Structure written by MMmdl.
164172  0  0  1  0            999 V2000
  -30.7178  -14.4940   20.5703 C   0  0  0  0  0  0
  -30.4192  -12.3200   19.4321 C   0  0  0  0  0  0
  -29.4960  -12.4997   18.2105 C   0  0  0  0  0  0
  -28.0176  -12.3566   18.6237 C   0  0  0  0  0  0
  -27.6580  -13.2121   19.8687 C   0  0  2  0  0  0
  -28.7017  -13.0270   20.9942 C   0  0  0  0  0  0
  -25.2575  -13.8171   20.5679 C   0  0  0  0  0  0
  -24.1833  -13.0441   20.9182 C   0  0  0  0  0  0
  -24.6393  -11.6906   20.8736 C   0  0  0  0  0  0
  -23.9056  -10.4290   21.0399 C   0  0  0  0  0  0
  -24.3609   -9.4208   21.9182 C   0  0  0  0  0  0
  -23.6285   -8.2242   22.0759 C   0  0  0  0  0  0
  -22.4268   -8.0277   21.3546 C   0  0  0  0  0  0
  -21.9903   -9.0243   20.4647 C   0  0  0  0  0  0
  -22.7228  -10.2125   20.3049 C   0  0  0  0  0  0
  -21.6851   -6.0729   22.5279 C   0  0  0  0  0  0
  -21.4009   -6.5635   23.8213 C   0  0  0  0  0  0
  -21.3659   -5.6788   24.9175 C   0  0  0  0  0  0
  -21.6049   -4.3052   24.7226 C   0  0  0  0  0  0
  -21.8819   -3.8141   23.4348 C   0  0  0  0  0  0
  -21.9194   -4.6957   22.3402 C   0  0  0  0  0  0
  -22.7857  -13.5240   21.1837 C   0  0  0  0  0  0
  -22.1663   -4.2143   21.0980 F   0  0  0  0  0  0
  -21.5628   -3.4536   25.7739 F   0  0  0  0  0  0
  -30.0290  -13.3264   20.4342 N   0  0  0  0  0  0
  -26.3011  -12.9352   20.3349 N   0  0  0  0  0  0
  -25.9323  -11.6504   20.5768 N   0  0  0  0  0  0
  -22.0490  -12.8231   22.0393 N   0  0  0  0  0  0
  -25.4292  -15.1893   20.4067 N   0  0  0  0  0  0
  -31.8531  -14.6411   20.1105 O   0  0  0  0  0  0
  -21.6640   -6.8868   21.4238 O   0  0  0  0  0  0
  -22.3542  -14.5542   20.6680 O   0  0  0  0  0  0
  -24.6174  -31.8659   23.2107 C   0  0  0  0  0  0
  -25.9058  -32.4811   23.8392 C   0  0  1  0  0  0
  -27.2236  -27.4013   20.0918 C   0  0  0  0  0  0
  -25.5914  -33.8610   24.2330 N   0  0  0  0  0  0
  -23.4064  -30.4930   21.5514 C   0  0  2  0  0  0
  -24.8504  -28.9674   20.1094 C   0  0  0  0  0  0
  -22.7429  -29.4648   22.4972 C   0  0  0  0  0  0
  -18.0267  -28.1386   22.8482 C   0  0  0  0  0  0
  -24.1482  -36.7293   23.2638 C   0  0  0  0  0  0
  -25.9418  -30.8222   21.3710 C   0  0  0  0  0  0
  -26.0152  -29.4571   20.7126 C   0  0  0  0  0  0
  -27.2035  -28.6818   20.7028 C   0  0  0  0  0  0
  -26.0364  -26.9538   19.4593 C   0  0  0  0  0  0
  -24.8581  -27.7164   19.4785 C   0  0  0  0  0  0
  -23.6138  -29.8346   20.1634 C   0  0  0  0  0  0
  -25.4109  -36.3101   24.0335 C   0  0  1  0  0  0
  -20.5866  -28.3656   23.1308 C   0  0  2  0  0  0
  -20.6767  -26.9384   22.5417 C   0  0  0  0  0  0
  -19.5745  -26.6379   21.5215 C   0  0  0  0  0  0
  -18.1914  -26.7940   22.1609 C   0  0  0  0  0  0
  -19.1521  -28.8835   23.2897 C   0  0  0  0  0  0
  -18.9458  -30.1445   23.8902 C   0  0  0  0  0  0
  -17.6460  -30.6593   24.0548 C   0  0  0  0  0  0
  -25.9036  -34.9467   23.5126 C   0  0  0  0  0  0
  -16.5341  -29.9089   23.6334 C   0  0  0  0  0  0
  -16.7254  -28.6504   23.0355 C   0  0  0  0  0  0
  -26.4482  -31.6599   25.0728 C   0  0  0  0  0  0
  -25.3739  -31.3716   26.1466 C   0  0  0  0  0  0
  -27.0324  -30.3041   24.6121 C   0  0  0  0  0  0
  -27.6045  -32.4332   25.7504 C   0  0  0  0  0  0
  -27.5579  -37.1807   24.8471 C   0  0  0  0  0  0
  -21.4147  -29.3030   22.3721 N   0  0  0  0  0  0
  -26.4290  -37.3797   23.9411 N   0  0  0  0  0  0
  -24.6737  -31.0749   22.1018 N   0  0  0  0  0  0
  -23.4196  -28.8180   23.3012 O   0  0  0  0  0  0
  -28.3635  -26.6049   20.1377 O   0  0  0  0  0  0
  -26.5590  -34.8924   22.4682 O   0  0  0  0  0  0
  -23.5361  -32.1408   23.7485 O   0  0  0  0  0  0
  -29.6477  -17.9964   21.0007 C   0  0  0  0  0  0
  -31.7936  -17.1500   21.7705 C   0  0  0  0  0  0
  -30.0799  -19.3457   21.1784 C   0  0  0  0  0  0
  -30.4979  -16.8891   21.2693 C   0  0  0  0  0  0
  -32.2353  -18.4729   21.9701 C   0  0  0  0  0  0
  -31.3944  -19.5644   21.6653 C   0  0  0  0  0  0
  -29.1312  -20.4953   20.8714 C   0  0  0  0  0  0
  -29.1891  -24.2381   20.5247 C   0  0  0  0  0  0
  -29.4048  -23.4247   23.6440 C   0  0  0  0  0  0
  -27.2691  -22.1323   23.2516 C   0  0  0  0  0  0
  -28.1270  -25.1886   19.9239 C   0  0  0  0  0  0
  -28.6342  -22.9537   21.2205 C   0  0  2  0  0  0
  -28.2084  -23.2155   22.6948 C   0  0  0  0  0  0
  -33.5125  -18.7144   22.4823 N   0  0  0  0  0  0
  -30.0284  -15.5414   21.0831 N   0  0  0  0  0  0
  -29.5163  -21.7637   21.1366 N   0  0  0  0  0  0
  -28.0052  -20.2491   20.4306 O   0  0  0  0  0  0
  -30.3944  -24.5005   20.4438 O   0  0  0  0  0  0
  -31.8768  -20.8185   21.8636 F   0  0  0  0  0  0
  -31.4655  -12.4049   19.1344 H   0  0  0  0  0  0
  -30.3116  -11.3173   19.8481 H   0  0  0  0  0  0
  -29.7425  -11.7649   17.4431 H   0  0  0  0  0  0
  -29.6612  -13.4806   17.7610 H   0  0  0  0  0  0
  -27.8371  -11.3016   18.8345 H   0  0  0  0  0  0
  -27.3647  -12.6132   17.7886 H   0  0  0  0  0  0
  -27.6921  -14.2549   19.5518 H   0  0  0  0  0  0
  -28.6845  -12.0006   21.3649 H   0  0  0  0  0  0
  -28.4646  -13.6540   21.8551 H   0  0  0  0  0  0
  -25.2754   -9.5687   22.4757 H   0  0  0  0  0  0
  -23.9998   -7.4635   22.7479 H   0  0  0  0  0  0
  -21.0838   -8.8742   19.8952 H   0  0  0  0  0  0
  -22.3680  -10.9648   19.6150 H   0  0  0  0  0  0
  -21.1996   -7.6142   23.9711 H   0  0  0  0  0  0
  -21.1486   -6.0522   25.9079 H   0  0  0  0  0  0
  -22.0601   -2.7601   23.2847 H   0  0  0  0  0  0
  -22.4094  -11.9887   22.4773 H   0  0  0  0  0  0
  -21.1109  -13.1258   22.2584 H   0  0  0  0  0  0
  -24.6585  -15.8419   20.5004 H   0  0  0  0  0  0
  -26.2768  -15.6251   20.0666 H   0  0  0  0  0  0
  -26.7114  -32.5501   23.1139 H   0  0  0  0  0  0
  -25.0098  -33.9774   25.0496 H   0  0  0  0  0  0
  -22.6965  -31.3112   21.4155 H   0  0  0  0  0  0
  -23.3757  -35.9616   23.3316 H   0  0  0  0  0  0
  -24.3573  -36.8892   22.2054 H   0  0  0  0  0  0
  -23.7234  -37.6499   23.6639 H   0  0  0  0  0  0
  -26.0654  -31.5910   20.6069 H   0  0  0  0  0  0
  -26.8265  -30.8668   21.9940 H   0  0  0  0  0  0
  -28.0970  -29.0508   21.1869 H   0  0  0  0  0  0
  -25.9833  -26.0078   18.9414 H   0  0  0  0  0  0
  -23.9645  -27.3390   18.9995 H   0  0  0  0  0  0
  -23.7210  -30.6112   19.4058 H   0  0  0  0  0  0
  -22.7372  -29.2558   19.8653 H   0  0  0  0  0  0
  -25.1303  -36.1951   25.0833 H   0  0  0  0  0  0
  -20.9945  -28.3202   24.1434 H   0  0  0  0  0  0
  -20.5683  -26.2244   23.3600 H   0  0  0  0  0  0
  -21.6636  -26.7439   22.1197 H   0  0  0  0  0  0
  -19.6892  -25.6299   21.1223 H   0  0  0  0  0  0
  -19.6698  -27.3203   20.6767 H   0  0  0  0  0  0
  -17.4199  -26.6676   21.3997 H   0  0  0  0  0  0
  -18.0294  -26.0089   22.9015 H   0  0  0  0  0  0
  -19.7932  -30.7251   24.2273 H   0  0  0  0  0  0
  -17.5022  -31.6280   24.5147 H   0  0  0  0  0  0
  -15.5345  -30.2996   23.7703 H   0  0  0  0  0  0
  -15.8642  -28.0836   22.7094 H   0  0  0  0  0  0
  -24.5912  -30.7059   25.7810 H   0  0  0  0  0  0
  -24.8918  -32.2874   26.4891 H   0  0  0  0  0  0
  -25.8081  -30.8902   27.0231 H   0  0  0  0  0  0
  -26.2876  -29.6798   24.1166 H   0  0  0  0  0  0
  -27.4100  -29.7284   25.4580 H   0  0  0  0  0  0
  -27.8709  -30.4386   23.9284 H   0  0  0  0  0  0
  -27.2650  -33.3629   26.2088 H   0  0  0  0  0  0
  -28.3856  -32.6900   25.0336 H   0  0  0  0  0  0
  -28.0701  -31.8445   26.5417 H   0  0  0  0  0  0
  -28.2614  -38.0091   24.7525 H   0  0  0  0  0  0
  -28.1064  -36.2628   24.6300 H   0  0  0  0  0  0
  -27.2289  -37.1466   25.8872 H   0  0  0  0  0  0
  -20.9295  -29.8766   21.6959 H   0  0  0  0  0  0
  -26.0168  -38.2868   24.1424 H   0  0  0  0  0  0
  -28.6466  -17.8096   20.6381 H   0  0  0  0  0  0
  -32.4513  -16.3284   22.0154 H   0  0  0  0  0  0
  -29.0669  -23.6811   24.6484 H   0  0  0  0  0  0
  -30.0525  -24.2350   23.3063 H   0  0  0  0  0  0
  -30.0186  -22.5272   23.7271 H   0  0  0  0  0  0
  -26.8797  -22.4202   24.2291 H   0  0  0  0  0  0
  -27.7788  -21.1769   23.3729 H   0  0  0  0  0  0
  -26.4137  -21.9752   22.5937 H   0  0  0  0  0  0
  -27.1763  -24.9030   20.3747 H   0  0  0  0  0  0
  -28.0541  -24.9933   18.8539 H   0  0  0  0  0  0
  -27.7187  -22.7153   20.6770 H   0  0  0  0  0  0
  -27.6340  -24.1441   22.7057 H   0  0  0  0  0  0
  -34.2240  -17.9937   22.4143 H   0  0  0  0  0  0
  -33.8746  -19.6587   22.3963 H   0  0  0  0  0  0
  -29.0537  -15.3650   21.2735 H   0  0  0  0  0  0
  -30.4723  -21.8889   21.4488 H   0  0  0  0  0  0
  1 25  1  0  0  0
  1 30  2  0  0  0
  1 85  1  0  0  0
  2  3  1  0  0  0
  2 25  1  0  0  0
  2 90  1  0  0  0
  2 91  1  0  0  0
  3  4  1  0  0  0
  3 92  1  0  0  0
  3 93  1  0  0  0
  4  5  1  0  0  0
  4 94  1  0  0  0
  4 95  1  0  0  0
  5  6  1  0  0  0
  5 26  1  0  0  0
  5 96  1  0  0  0
  6 25  1  0  0  0
  6 97  1  0  0  0
  6 98  1  0  0  0
  7  8  2  0  0  0
  7 26  1  0  0  0
  7 29  1  0  0  0
  8  9  1  0  0  0
  8 22  1  0  0  0
  9 10  1  0  0  0
  9 27  2  0  0  0
 10 11  2  0  0  0
 10 15  1  0  0  0
 11 12  1  0  0  0
 11 99  1  0  0  0
 12 13  2  0  0  0
 12100  1  0  0  0
 13 14  1  0  0  0
 13 31  1  0  0  0
 14 15  2  0  0  0
 14101  1  0  0  0
 15102  1  0  0  0
 16 17  2  0  0  0
 16 21  1  0  0  0
 16 31  1  0  0  0
 17 18  1  0  0  0
 17103  1  0  0  0
 18 19  2  0  0  0
 18104  1  0  0  0
 19 20  1  0  0  0
 19 24  1  0  0  0
 20 21  2  0  0  0
 20105  1  0  0  0
 21 23  1  0  0  0
 22 28  1  0  0  0
 22 32  2  0  0  0
 26 27  1  0  0  0
 28106  1  0  0  0
 28107  1  0  0  0
 29108  1  0  0  0
 29109  1  0  0  0
 33 34  1  0  0  0
 33 66  1  0  0  0
 33 70  2  0  0  0
 34 36  1  0  0  0
 34 59  1  0  0  0
 34110  1  0  0  0
 35 44  2  0  0  0
 35 45  1  0  0  0
 35 68  1  0  0  0
 36 56  1  0  0  0
 36111  1  0  0  0
 37 39  1  0  0  0
 37 47  1  0  0  0
 37 66  1  0  0  0
 37112  1  0  0  0
 38 43  2  0  0  0
 38 46  1  0  0  0
 38 47  1  0  0  0
 39 64  1  0  0  0
 39 67  2  0  0  0
 40 52  1  0  0  0
 40 53  2  0  0  0
 40 58  1  0  0  0
 41113  1  0  0  0
 41114  1  0  0  0
 41115  1  0  0  0
 41 48  1  0  0  0
 42 43  1  0  0  0
 42 66  1  0  0  0
 42116  1  0  0  0
 42117  1  0  0  0
 43 44  1  0  0  0
 44118  1  0  0  0
 45 46  2  0  0  0
 45119  1  0  0  0
 46120  1  0  0  0
 47121  1  0  0  0
 47122  1  0  0  0
 48 56  1  0  0  0
 48 65  1  0  0  0
 48123  1  0  0  0
 49 50  1  0  0  0
 49 53  1  0  0  0
 49 64  1  0  0  0
 49124  1  0  0  0
 50 51  1  0  0  0
 50125  1  0  0  0
 50126  1  0  0  0
 51 52  1  0  0  0
 51127  1  0  0  0
 51128  1  0  0  0
 52129  1  0  0  0
 52130  1  0  0  0
 53 54  1  0  0  0
 54 55  2  0  0  0
 54131  1  0  0  0
 55 57  1  0  0  0
 55132  1  0  0  0
 56 69  2  0  0  0
 57 58  2  0  0  0
 57133  1  0  0  0
 58134  1  0  0  0
 59 60  1  0  0  0
 59 61  1  0  0  0
 59 62  1  0  0  0
 60135  1  0  0  0
 60136  1  0  0  0
 60137  1  0  0  0
 61138  1  0  0  0
 61139  1  0  0  0
 61140  1  0  0  0
 62141  1  0  0  0
 62142  1  0  0  0
 62143  1  0  0  0
 63 65  1  0  0  0
 63144  1  0  0  0
 63145  1  0  0  0
 63146  1  0  0  0
 64147  1  0  0  0
 65148  1  0  0  0
 68 81  1  0  0  0
 71 73  2  0  0  0
 71 74  1  0  0  0
 71149  1  0  0  0
 72 74  2  0  0  0
 72 75  1  0  0  0
 72150  1  0  0  0
 73 76  1  0  0  0
 73 77  1  0  0  0
 74 85  1  0  0  0
 75 76  2  0  0  0
 75 84  1  0  0  0
 76 89  1  0  0  0
 77 86  1  0  0  0
 77 87  2  0  0  0
 78 81  1  0  0  0
 78 82  1  0  0  0
 78 88  2  0  0  0
 79151  1  0  0  0
 79152  1  0  0  0
 79153  1  0  0  0
 79 83  1  0  0  0
 80 83  1  0  0  0
 80154  1  0  0  0
 80155  1  0  0  0
 80156  1  0  0  0
 81157  1  0  0  0
 81158  1  0  0  0
 82 83  1  0  0  0
 82 86  1  0  0  0
 82159  1  0  0  0
 83160  1  0  0  0
 84161  1  0  0  0
 84162  1  0  0  0
 85163  1  0  0  0
 86164  1  0  0  0
M  ISO  4   1 100  68 101  81 101  85 100
M  END
> <chiral flag>
0

> <version>
0

> <s_m_source_file>
/data/baiqing/PycharmProjects/Reinvent-master-3.2/result/LINK_invent/BTK/process_docking_weight1_custom_product_contain_oxygen_bond_distance_aromatic_linkinvent_7_9_3/rearranged_h_0172.sdf

> <i_m_source_file_index>
13

> <r_mmod_Potential_Energy-OPLS-2005>
-77.6614456176758

> <r_mmod_Stretch_Energy-OPLS-2005>
48.852653503418

> <r_mmod_Bend_Energy-OPLS-2005>
108.909675598145

> <r_mmod_Torsional_Energy-OPLS-2005>
243.066711425781

> <r_mmod_Improper_Torsional_Energy-OPLS-2005>
7.0548415184021

> <r_mmod_Van_der_Waal_Energy-OPLS-2005>
165.965515136719

> <r_mmod_Electrostatic_Energy-OPLS-2005>
-436.230834960938

> <r_mmod_Solvation_Energy-OPLS-2005>
-234.829681396484

> <b_mmod_Minimization_Converged-OPLS-2005>
0

> <r_mmod_RMS_Derivative-OPLS-2005>
1.68834817409515

$$$$
13
                    3D
 Structure written by MMmdl.
151159  0  0  1  0            999 V2000
  -30.6927  -14.4924   20.5598 C   0  0  0  0  0  0
  -30.4277  -12.3095   19.4329 C   0  0  0  0  0  0
  -29.5002  -12.4951   18.2136 C   0  0  0  0  0  0
  -28.0204  -12.3571   18.6222 C   0  0  0  0  0  0
  -27.6634  -13.2051   19.8723 C   0  0  2  0  0  0
  -28.7041  -12.9916   20.9957 C   0  0  0  0  0  0
  -25.2598  -13.8155   20.5678 C   0  0  0  0  0  0
  -24.1842  -13.0441   20.9168 C   0  0  0  0  0  0
  -24.6384  -11.6902   20.8709 C   0  0  0  0  0  0
  -23.9042  -10.4288   21.0394 C   0  0  0  0  0  0
  -24.3604   -9.4210   21.9171 C   0  0  0  0  0  0
  -23.6287   -8.2242   22.0740 C   0  0  0  0  0  0
  -22.4267   -8.0268   21.3537 C   0  0  0  0  0  0
  -21.9890   -9.0243   20.4647 C   0  0  0  0  0  0
  -22.7208  -10.2130   20.3055 C   0  0  0  0  0  0
  -21.6847   -6.0727   22.5276 C   0  0  0  0  0  0
  -21.4017   -6.5637   23.8209 C   0  0  0  0  0  0
  -21.3663   -5.6787   24.9169 C   0  0  0  0  0  0
  -21.6048   -4.3051   24.7222 C   0  0  0  0  0  0
  -21.8820   -3.8141   23.4342 C   0  0  0  0  0  0
  -21.9192   -4.6954   22.3397 C   0  0  0  0  0  0
  -22.7866  -13.5249   21.1834 C   0  0  0  0  0  0
  -22.1662   -4.2141   21.0973 F   0  0  0  0  0  0
  -21.5624   -3.4539   25.7738 F   0  0  0  0  0  0
  -30.0384  -13.3004   20.4488 N   0  0  0  0  0  0
  -26.3032  -12.9323   20.3338 N   0  0  0  0  0  0
  -25.9317  -11.6485   20.5742 N   0  0  0  0  0  0
  -22.0505  -12.8255   22.0404 N   0  0  0  0  0  0
  -25.4337  -15.1872   20.4120 N   0  0  0  0  0  0
  -31.8130  -14.6749   20.0726 O   0  0  0  0  0  0
  -21.6628   -6.8870   21.4239 O   0  0  0  0  0  0
  -22.3547  -14.5543   20.6655 O   0  0  0  0  0  0
  -24.6183  -31.8665   23.2094 C   0  0  0  0  0  0
  -25.9055  -32.4821   23.8396 C   0  0  1  0  0  0
  -27.2340  -27.4110   20.0920 C   0  0  0  0  0  0
  -25.5881  -33.8621   24.2313 N   0  0  0  0  0  0
  -23.4074  -30.4922   21.5511 C   0  0  2  0  0  0
  -24.8528  -28.9610   20.1142 C   0  0  0  0  0  0
  -22.7427  -29.4665   22.4980 C   0  0  0  0  0  0
  -18.0275  -28.1395   22.8493 C   0  0  0  0  0  0
  -24.1484  -36.7322   23.2641 C   0  0  0  0  0  0
  -25.9418  -30.8257   21.3662 C   0  0  0  0  0  0
  -26.0183  -29.4608   20.7089 C   0  0  0  0  0  0
  -27.2120  -28.6964   20.6913 C   0  0  0  0  0  0
  -26.0440  -26.9410   19.4827 C   0  0  0  0  0  0
  -24.8628  -27.7011   19.4971 C   0  0  0  0  0  0
  -23.6164  -29.8289   20.1659 C   0  0  0  0  0  0
  -25.4108  -36.3110   24.0338 C   0  0  1  0  0  0
  -20.5871  -28.3678   23.1309 C   0  0  2  0  0  0
  -20.6764  -26.9409   22.5413 C   0  0  0  0  0  0
  -19.5742  -26.6398   21.5215 C   0  0  0  0  0  0
  -18.1922  -26.7940   22.1628 C   0  0  0  0  0  0
  -19.1527  -28.8856   23.2901 C   0  0  0  0  0  0
  -18.9449  -30.1459   23.8910 C   0  0  0  0  0  0
  -17.6449  -30.6595   24.0579 C   0  0  0  0  0  0
  -25.9029  -34.9476   23.5127 C   0  0  0  0  0  0
  -16.5341  -29.9098   23.6336 C   0  0  0  0  0  0
  -16.7262  -28.6522   23.0345 C   0  0  0  0  0  0
  -26.4471  -31.6610   25.0737 C   0  0  0  0  0  0
  -25.3727  -31.3744   26.1486 C   0  0  0  0  0  0
  -27.0303  -30.3038   24.6147 C   0  0  0  0  0  0
  -27.6044  -32.4351   25.7485 C   0  0  0  0  0  0
  -27.5583  -37.1812   24.8462 C   0  0  0  0  0  0
  -21.4150  -29.3048   22.3712 N   0  0  0  0  0  0
  -26.4288  -37.3796   23.9410 N   0  0  0  0  0  0
  -24.6745  -31.0759   22.0999 N   0  0  0  0  0  0
  -23.4187  -28.8192   23.3025 O   0  0  0  0  0  0
  -28.3845  -26.6331   20.1223 O   0  0  0  0  0  0
  -26.5608  -34.8927   22.4699 O   0  0  0  0  0  0
  -23.5361  -32.1419   23.7454 O   0  0  0  0  0  0
  -29.8391  -19.3810   21.1582 C   0  0  0  0  0  0
  -30.7716  -18.9379   20.2343 C   0  0  0  0  0  0
  -30.1014  -16.8955   21.0380 C   0  0  0  0  0  0
  -29.3672  -20.7157   21.6622 C   0  0  0  0  0  0
  -29.3560  -24.3292   20.4363 C   0  0  0  0  0  0
  -29.0680  -23.1564   21.3976 C   0  0  0  0  0  0
  -28.1594  -25.2061   20.0079 C   0  0  0  0  0  0
  -30.8848  -17.5398   20.1616 N   0  0  0  0  0  0
  -31.5849  -19.7059   19.3947 N   0  0  0  0  0  0
  -29.9949  -15.4728   21.1688 N   0  0  0  0  0  0
  -29.5615  -21.8387   20.9383 N   0  0  0  0  0  0
  -28.7716  -20.7798   22.7415 O   0  0  0  0  0  0
  -30.4975  -24.5319   20.0076 O   0  0  0  0  0  0
  -29.1227  -18.0006   21.9903 S   0  0  0  0  0  0
  -31.4730  -12.4053   19.1322 H   0  0  0  0  0  0
  -30.3308  -11.3010   19.8398 H   0  0  0  0  0  0
  -29.7440  -11.7616   17.4451 H   0  0  0  0  0  0
  -29.6699  -13.4755   17.7659 H   0  0  0  0  0  0
  -27.8347  -11.3025   18.8297 H   0  0  0  0  0  0
  -27.3712  -12.6202   17.7869 H   0  0  0  0  0  0
  -27.7079  -14.2509   19.5684 H   0  0  0  0  0  0
  -28.6828  -11.9561   21.3382 H   0  0  0  0  0  0
  -28.4568  -13.5906   21.8730 H   0  0  0  0  0  0
  -25.2758   -9.5684   22.4730 H   0  0  0  0  0  0
  -24.0000   -7.4633   22.7460 H   0  0  0  0  0  0
  -21.0808   -8.8762   19.8964 H   0  0  0  0  0  0
  -22.3656  -10.9667   19.6158 H   0  0  0  0  0  0
  -21.2014   -7.6145   23.9713 H   0  0  0  0  0  0
  -21.1483   -6.0514   25.9072 H   0  0  0  0  0  0
  -22.0597   -2.7603   23.2839 H   0  0  0  0  0  0
  -22.4127  -11.9953   22.4847 H   0  0  0  0  0  0
  -21.1124  -13.1291   22.2606 H   0  0  0  0  0  0
  -24.6684  -15.8442   20.5201 H   0  0  0  0  0  0
  -26.2853  -15.6251   20.0842 H   0  0  0  0  0  0
  -26.7131  -32.5523   23.1163 H   0  0  0  0  0  0
  -24.9993  -33.9783   25.0426 H   0  0  0  0  0  0
  -22.6973  -31.3107   21.4141 H   0  0  0  0  0  0
  -23.3730  -35.9668   23.3311 H   0  0  0  0  0  0
  -24.3571  -36.8930   22.2051 H   0  0  0  0  0  0
  -23.7244  -37.6535   23.6650 H   0  0  0  0  0  0
  -26.0607  -31.5925   20.5991 H   0  0  0  0  0  0
  -26.8265  -30.8735   21.9889 H   0  0  0  0  0  0
  -28.1101  -29.0808   21.1551 H   0  0  0  0  0  0
  -25.9976  -25.9834   18.9845 H   0  0  0  0  0  0
  -23.9694  -27.3122   19.0298 H   0  0  0  0  0  0
  -23.7224  -30.6051   19.4074 H   0  0  0  0  0  0
  -22.7391  -29.2500   19.8717 H   0  0  0  0  0  0
  -25.1281  -36.1986   25.0828 H   0  0  0  0  0  0
  -20.9975  -28.3250   24.1428 H   0  0  0  0  0  0
  -20.5666  -26.2282   23.3599 H   0  0  0  0  0  0
  -21.6633  -26.7451   22.1208 H   0  0  0  0  0  0
  -19.6891  -25.6315   21.1237 H   0  0  0  0  0  0
  -19.6684  -27.3217   20.6754 H   0  0  0  0  0  0
  -17.4184  -26.6685   21.4034 H   0  0  0  0  0  0
  -18.0319  -26.0083   22.9030 H   0  0  0  0  0  0
  -19.7921  -30.7283   24.2271 H   0  0  0  0  0  0
  -17.5004  -31.6272   24.5186 H   0  0  0  0  0  0
  -15.5341  -30.3009   23.7659 H   0  0  0  0  0  0
  -15.8660  -28.0862   22.7041 H   0  0  0  0  0  0
  -24.5857  -30.7143   25.7825 H   0  0  0  0  0  0
  -24.8966  -32.2913   26.4972 H   0  0  0  0  0  0
  -25.8062  -30.8873   27.0224 H   0  0  0  0  0  0
  -26.2862  -29.6811   24.1166 H   0  0  0  0  0  0
  -27.4003  -29.7289   25.4643 H   0  0  0  0  0  0
  -27.8729  -30.4346   23.9355 H   0  0  0  0  0  0
  -27.2648  -33.3626   26.2115 H   0  0  0  0  0  0
  -28.3806  -32.6968   25.0280 H   0  0  0  0  0  0
  -28.0766  -31.8453   26.5349 H   0  0  0  0  0  0
  -28.2616  -38.0097   24.7502 H   0  0  0  0  0  0
  -28.1061  -36.2630   24.6288 H   0  0  0  0  0  0
  -27.2300  -37.1475   25.8864 H   0  0  0  0  0  0
  -20.9291  -29.8772   21.6946 H   0  0  0  0  0  0
  -26.0181  -38.2875   24.1404 H   0  0  0  0  0  0
  -27.9961  -23.0942   21.5870 H   0  0  0  0  0  0
  -29.5343  -23.3967   22.3542 H   0  0  0  0  0  0
  -27.2967  -24.9230   20.6107 H   0  0  0  0  0  0
  -27.9311  -24.9568   18.9714 H   0  0  0  0  0  0
  -31.8164  -20.6571   19.6571 H   0  0  0  0  0  0
  -32.3436  -19.2364   18.9098 H   0  0  0  0  0  0
  -29.1800  -15.1509   21.6667 H   0  0  0  0  0  0
  -30.0220  -21.7884   20.0401 H   0  0  0  0  0  0
  1 25  1  0  0  0
  1 30  2  0  0  0
  1 80  1  0  0  0
  2  3  1  0  0  0
  2 25  1  0  0  0
  2 85  1  0  0  0
  2 86  1  0  0  0
  3  4  1  0  0  0
  3 87  1  0  0  0
  3 88  1  0  0  0
  4  5  1  0  0  0
  4 89  1  0  0  0
  4 90  1  0  0  0
  5  6  1  0  0  0
  5 26  1  0  0  0
  5 91  1  0  0  0
  6 25  1  0  0  0
  6 92  1  0  0  0
  6 93  1  0  0  0
  7  8  2  0  0  0
  7 26  1  0  0  0
  7 29  1  0  0  0
  8  9  1  0  0  0
  8 22  1  0  0  0
  9 10  1  0  0  0
  9 27  2  0  0  0
 10 11  2  0  0  0
 10 15  1  0  0  0
 11 12  1  0  0  0
 11 94  1  0  0  0
 12 13  2  0  0  0
 12 95  1  0  0  0
 13 14  1  0  0  0
 13 31  1  0  0  0
 14 15  2  0  0  0
 14 96  1  0  0  0
 15 97  1  0  0  0
 16 17  2  0  0  0
 16 21  1  0  0  0
 16 31  1  0  0  0
 17 18  1  0  0  0
 17 98  1  0  0  0
 18 19  2  0  0  0
 18 99  1  0  0  0
 19 20  1  0  0  0
 19 24  1  0  0  0
 20 21  2  0  0  0
 20100  1  0  0  0
 21 23  1  0  0  0
 22 28  1  0  0  0
 22 32  2  0  0  0
 26 27  1  0  0  0
 28101  1  0  0  0
 28102  1  0  0  0
 29103  1  0  0  0
 29104  1  0  0  0
 33 34  1  0  0  0
 33 66  1  0  0  0
 33 70  2  0  0  0
 34 36  1  0  0  0
 34 59  1  0  0  0
 34105  1  0  0  0
 35 44  2  0  0  0
 35 45  1  0  0  0
 35 68  1  0  0  0
 36 56  1  0  0  0
 36106  1  0  0  0
 37 39  1  0  0  0
 37 47  1  0  0  0
 37 66  1  0  0  0
 37107  1  0  0  0
 38 43  2  0  0  0
 38 46  1  0  0  0
 38 47  1  0  0  0
 39 64  1  0  0  0
 39 67  2  0  0  0
 40 52  1  0  0  0
 40 53  2  0  0  0
 40 58  1  0  0  0
 41108  1  0  0  0
 41109  1  0  0  0
 41110  1  0  0  0
 41 48  1  0  0  0
 42 43  1  0  0  0
 42 66  1  0  0  0
 42111  1  0  0  0
 42112  1  0  0  0
 43 44  1  0  0  0
 44113  1  0  0  0
 45 46  2  0  0  0
 45114  1  0  0  0
 46115  1  0  0  0
 47116  1  0  0  0
 47117  1  0  0  0
 48 56  1  0  0  0
 48 65  1  0  0  0
 48118  1  0  0  0
 49 50  1  0  0  0
 49 53  1  0  0  0
 49 64  1  0  0  0
 49119  1  0  0  0
 50 51  1  0  0  0
 50120  1  0  0  0
 50121  1  0  0  0
 51 52  1  0  0  0
 51122  1  0  0  0
 51123  1  0  0  0
 52124  1  0  0  0
 52125  1  0  0  0
 53 54  1  0  0  0
 54 55  2  0  0  0
 54126  1  0  0  0
 55 57  1  0  0  0
 55127  1  0  0  0
 56 69  2  0  0  0
 57 58  2  0  0  0
 57128  1  0  0  0
 58129  1  0  0  0
 59 60  1  0  0  0
 59 61  1  0  0  0
 59 62  1  0  0  0
 60130  1  0  0  0
 60131  1  0  0  0
 60132  1  0  0  0
 61133  1  0  0  0
 61134  1  0  0  0
 61135  1  0  0  0
 62136  1  0  0  0
 62137  1  0  0  0
 62138  1  0  0  0
 63 65  1  0  0  0
 63139  1  0  0  0
 63140  1  0  0  0
 63141  1  0  0  0
 64142  1  0  0  0
 65143  1  0  0  0
 68 77  1  0  0  0
 71 72  2  0  0  0
 71 74  1  0  0  0
 71 84  1  0  0  0
 72 78  1  0  0  0
 72 79  1  0  0  0
 73 78  2  0  0  0
 73 80  1  0  0  0
 73 84  1  0  0  0
 74 81  1  0  0  0
 74 82  2  0  0  0
 75 76  1  0  0  0
 75 77  1  0  0  0
 75 83  2  0  0  0
 76 81  1  0  0  0
 76144  1  0  0  0
 76145  1  0  0  0
 77146  1  0  0  0
 77147  1  0  0  0
 79148  1  0  0  0
 79149  1  0  0  0
 80150  1  0  0  0
 81151  1  0  0  0
M  ISO  4   1 100  68 101  77 101  80 100
M  END
> <chiral flag>
0

> <version>
0

> <s_m_source_file>
/data/baiqing/PycharmProjects/Reinvent-master-3.2/result/LINK_invent/BTK/process_docking_weight1_custom_product_contain_oxygen_bond_distance_aromatic_linkinvent_7_9_3/rearranged_h_0172.sdf

> <i_m_source_file_index>
14

> <r_mmod_Potential_Energy-OPLS-2005>
-195.077835083008

> <r_mmod_Stretch_Energy-OPLS-2005>
42.0819091796875

> <r_mmod_Bend_Energy-OPLS-2005>
110.597007751465

> <r_mmod_Torsional_Energy-OPLS-2005>
224.130294799805

> <r_mmod_Improper_Torsional_Energy-OPLS-2005>
6.04280376434326

> <r_mmod_Van_der_Waal_Energy-OPLS-2005>
138.806610107422

> <r_mmod_Electrostatic_Energy-OPLS-2005>
-458.007293701172

> <r_mmod_Solvation_Energy-OPLS-2005>
-275.021667480469

> <b_mmod_Minimization_Converged-OPLS-2005>
0

> <r_mmod_RMS_Derivative-OPLS-2005>
1.96812427043915

$$$$
14
                    3D
 Structure written by MMmdl.
152160  0  0  1  0            999 V2000
  -30.5869  -14.6394   20.4732 C   0  0  0  0  0  0
  -30.4404  -12.3829   19.4462 C   0  0  0  0  0  0
  -29.5143  -12.5097   18.2168 C   0  0  0  0  0  0
  -28.0359  -12.3362   18.6291 C   0  0  0  0  0  0
  -27.6500  -13.2057   19.8556 C   0  0  2  0  0  0
  -28.6916  -13.0628   20.9874 C   0  0  0  0  0  0
  -25.2559  -13.8137   20.5649 C   0  0  0  0  0  0
  -24.1814  -13.0431   20.9172 C   0  0  0  0  0  0
  -24.6359  -11.6895   20.8703 C   0  0  0  0  0  0
  -23.9024  -10.4293   21.0399 C   0  0  0  0  0  0
  -24.3594   -9.4222   21.9184 C   0  0  0  0  0  0
  -23.6276   -8.2259   22.0759 C   0  0  0  0  0  0
  -22.4247   -8.0284   21.3560 C   0  0  0  0  0  0
  -21.9882   -9.0258   20.4654 C   0  0  0  0  0  0
  -22.7202  -10.2138   20.3047 C   0  0  0  0  0  0
  -21.6856   -6.0729   22.5282 C   0  0  0  0  0  0
  -21.4020   -6.5625   23.8208 C   0  0  0  0  0  0
  -21.3667   -5.6790   24.9172 C   0  0  0  0  0  0
  -21.6042   -4.3050   24.7221 C   0  0  0  0  0  0
  -21.8818   -3.8137   23.4344 C   0  0  0  0  0  0
  -21.9201   -4.6961   22.3409 C   0  0  0  0  0  0
  -22.7846  -13.5267   21.1831 C   0  0  0  0  0  0
  -22.1665   -4.2145   21.0984 F   0  0  0  0  0  0
  -21.5642   -3.4531   25.7734 F   0  0  0  0  0  0
  -30.0079  -13.4015   20.4187 N   0  0  0  0  0  0
  -26.2952  -12.9303   20.3208 N   0  0  0  0  0  0
  -25.9265  -11.6468   20.5657 N   0  0  0  0  0  0
  -22.0465  -12.8273   22.0394 N   0  0  0  0  0  0
  -25.4201  -15.1887   20.4123 N   0  0  0  0  0  0
  -31.7739  -14.8198   20.1832 O   0  0  0  0  0  0
  -21.6632   -6.8861   21.4240 O   0  0  0  0  0  0
  -22.3538  -14.5591   20.6709 O   0  0  0  0  0  0
  -24.6277  -31.8618   23.2056 C   0  0  0  0  0  0
  -25.9132  -32.4777   23.8372 C   0  0  1  0  0  0
  -27.2261  -27.3315   20.1168 C   0  0  0  0  0  0
  -25.5960  -33.8582   24.2307 N   0  0  0  0  0  0
  -23.4198  -30.4886   21.5467 C   0  0  2  0  0  0
  -24.8655  -28.9500   20.1088 C   0  0  0  0  0  0
  -22.7487  -29.4648   22.4932 C   0  0  0  0  0  0
  -18.0297  -28.1377   22.8483 C   0  0  0  0  0  0
  -24.1496  -36.7297   23.2635 C   0  0  0  0  0  0
  -25.9613  -30.7948   21.3755 C   0  0  0  0  0  0
  -26.0342  -29.4263   20.7145 C   0  0  0  0  0  0
  -27.2164  -28.6292   20.7119 C   0  0  0  0  0  0
  -26.0308  -26.9109   19.4801 C   0  0  0  0  0  0
  -24.8652  -27.6947   19.4833 C   0  0  0  0  0  0
  -23.6337  -29.8305   20.1590 C   0  0  0  0  0  0
  -25.4107  -36.3087   24.0345 C   0  0  1  0  0  0
  -20.5909  -28.3682   23.1269 C   0  0  2  0  0  0
  -20.6793  -26.9404   22.5392 C   0  0  0  0  0  0
  -19.5771  -26.6385   21.5201 C   0  0  0  0  0  0
  -18.1946  -26.7913   22.1608 C   0  0  0  0  0  0
  -19.1549  -28.8853   23.2877 C   0  0  0  0  0  0
  -18.9468  -30.1455   23.8894 C   0  0  0  0  0  0
  -17.6462  -30.6581   24.0564 C   0  0  0  0  0  0
  -25.9053  -34.9456   23.5118 C   0  0  0  0  0  0
  -16.5356  -29.9075   23.6329 C   0  0  0  0  0  0
  -16.7278  -28.6497   23.0342 C   0  0  0  0  0  0
  -26.4514  -31.6567   25.0737 C   0  0  0  0  0  0
  -25.3758  -31.3697   26.1470 C   0  0  0  0  0  0
  -27.0358  -30.2995   24.6182 C   0  0  0  0  0  0
  -27.6074  -32.4296   25.7510 C   0  0  0  0  0  0
  -27.5596  -37.1788   24.8450 C   0  0  0  0  0  0
  -21.4209  -29.3058   22.3685 N   0  0  0  0  0  0
  -26.4278  -37.3789   23.9438 N   0  0  0  0  0  0
  -24.6879  -31.0640   22.0998 N   0  0  0  0  0  0
  -23.4204  -28.8189   23.3025 O   0  0  0  0  0  0
  -28.3355  -26.4728   20.1878 O   0  0  0  0  0  0
  -26.5599  -34.8926   22.4675 O   0  0  0  0  0  0
  -23.5439  -32.1427   23.7385 O   0  0  0  0  0  0
  -28.6546  -19.2427   19.9048 C   0  0  0  0  0  0
  -30.8376  -17.9014   21.0691 C   0  0  0  0  0  0
  -28.7199  -17.8164   19.9067 C   0  0  0  0  0  0
  -29.6775  -20.0369   20.4940 C   0  0  0  0  0  0
  -29.8009  -17.1142   20.5058 C   0  0  0  0  0  0
  -30.7747  -19.3273   21.0555 C   0  0  0  0  0  0
  -29.1085  -23.9677   20.4571 C   0  0  0  0  0  0
  -28.6965  -22.4224   20.3122 C   0  0  0  0  0  0
  -28.0419  -25.0332   20.0031 C   0  0  0  0  0  0
  -27.7008  -17.0818   19.2940 N   0  0  0  0  0  0
  -29.6903  -21.5025   20.5228 N   0  0  0  0  0  0
  -29.6976  -15.6668   20.6112 N   0  0  0  0  0  0
  -30.2072  -24.3098   20.9168 O   0  0  0  0  0  0
  -27.5339  -22.1076   20.0386 O   0  0  0  0  0  0
  -31.7875  -20.0371   21.6059 F   0  0  0  0  0  0
  -31.4867  -12.5098   19.1576 H   0  0  0  0  0  0
  -30.3601  -11.3871   19.8807 H   0  0  0  0  0  0
  -29.7876  -11.7747   17.4588 H   0  0  0  0  0  0
  -29.6594  -13.4902   17.7551 H   0  0  0  0  0  0
  -27.8779  -11.2818   18.8623 H   0  0  0  0  0  0
  -27.3846  -12.5637   17.7829 H   0  0  0  0  0  0
  -27.6622  -14.2343   19.5031 H   0  0  0  0  0  0
  -28.6990  -12.0445   21.3810 H   0  0  0  0  0  0
  -28.4359  -13.7082   21.8294 H   0  0  0  0  0  0
  -25.2732   -9.5720   22.4739 H   0  0  0  0  0  0
  -24.0009   -7.4648   22.7463 H   0  0  0  0  0  0
  -21.0816   -8.8750   19.8939 H   0  0  0  0  0  0
  -22.3651  -10.9671   19.6141 H   0  0  0  0  0  0
  -21.1997   -7.6120   23.9711 H   0  0  0  0  0  0
  -21.1490   -6.0505   25.9082 H   0  0  0  0  0  0
  -22.0584   -2.7591   23.2840 H   0  0  0  0  0  0
  -22.4066  -11.9942   22.4828 H   0  0  0  0  0  0
  -21.1061  -13.1308   22.2537 H   0  0  0  0  0  0
  -24.6355  -15.8224   20.5164 H   0  0  0  0  0  0
  -26.2594  -15.6723   20.0918 H   0  0  0  0  0  0
  -26.7209  -32.5441   23.1122 H   0  0  0  0  0  0
  -25.0139  -33.9720   25.0474 H   0  0  0  0  0  0
  -22.7155  -31.3112   21.4084 H   0  0  0  0  0  0
  -23.3771  -35.9614   23.3266 H   0  0  0  0  0  0
  -24.3619  -36.8942   22.2059 H   0  0  0  0  0  0
  -23.7225  -37.6490   23.6657 H   0  0  0  0  0  0
  -26.0955  -31.5644   20.6131 H   0  0  0  0  0  0
  -26.8378  -30.8346   22.0093 H   0  0  0  0  0  0
  -28.1078  -28.9883   21.2050 H   0  0  0  0  0  0
  -25.9599  -25.9548   18.9832 H   0  0  0  0  0  0
  -23.9678  -27.3238   19.0057 H   0  0  0  0  0  0
  -23.7608  -30.6112   19.4080 H   0  0  0  0  0  0
  -22.7512  -29.2674   19.8497 H   0  0  0  0  0  0
  -25.1267  -36.1938   25.0831 H   0  0  0  0  0  0
  -20.9983  -28.3251   24.1403 H   0  0  0  0  0  0
  -20.5699  -26.2301   23.3596 H   0  0  0  0  0  0
  -21.6659  -26.7451   22.1204 H   0  0  0  0  0  0
  -19.6927  -25.6301   21.1246 H   0  0  0  0  0  0
  -19.6684  -27.3201   20.6738 H   0  0  0  0  0  0
  -17.4211  -26.6673   21.4010 H   0  0  0  0  0  0
  -18.0332  -26.0053   22.8999 H   0  0  0  0  0  0
  -19.7949  -30.7274   24.2244 H   0  0  0  0  0  0
  -17.5025  -31.6249   24.5175 H   0  0  0  0  0  0
  -15.5363  -30.2963   23.7658 H   0  0  0  0  0  0
  -15.8692  -28.0816   22.7031 H   0  0  0  0  0  0
  -24.5927  -30.7040   25.7821 H   0  0  0  0  0  0
  -24.8946  -32.2850   26.4924 H   0  0  0  0  0  0
  -25.8100  -30.8871   27.0231 H   0  0  0  0  0  0
  -26.2922  -29.6737   24.1224 H   0  0  0  0  0  0
  -27.4092  -29.7259   25.4675 H   0  0  0  0  0  0
  -27.8783  -30.4302   23.9384 H   0  0  0  0  0  0
  -27.2679  -33.3586   26.2100 H   0  0  0  0  0  0
  -28.3868  -32.6858   25.0324 H   0  0  0  0  0  0
  -28.0748  -31.8407   26.5412 H   0  0  0  0  0  0
  -28.2542  -38.0157   24.7610 H   0  0  0  0  0  0
  -28.1159  -36.2701   24.6106 H   0  0  0  0  0  0
  -27.2351  -37.1252   25.8857 H   0  0  0  0  0  0
  -20.9385  -29.8778   21.6897 H   0  0  0  0  0  0
  -26.0162  -38.2862   24.1464 H   0  0  0  0  0  0
  -27.8183  -19.7298   19.4281 H   0  0  0  0  0  0
  -31.6805  -17.4174   21.5384 H   0  0  0  0  0  0
  -27.1277  -24.7948   20.5481 H   0  0  0  0  0  0
  -27.8457  -24.8511   18.9489 H   0  0  0  0  0  0
  -27.0172  -17.6498   18.8052 H   0  0  0  0  0  0
  -28.0411  -16.3560   18.6721 H   0  0  0  0  0  0
  -30.5773  -21.9129   20.7887 H   0  0  0  0  0  0
  -28.7366  -15.3568   20.6193 H   0  0  0  0  0  0
  1 25  1  0  0  0
  1 30  2  0  0  0
  1 82  1  0  0  0
  2  3  1  0  0  0
  2 25  1  0  0  0
  2 86  1  0  0  0
  2 87  1  0  0  0
  3  4  1  0  0  0
  3 88  1  0  0  0
  3 89  1  0  0  0
  4  5  1  0  0  0
  4 90  1  0  0  0
  4 91  1  0  0  0
  5  6  1  0  0  0
  5 26  1  0  0  0
  5 92  1  0  0  0
  6 25  1  0  0  0
  6 93  1  0  0  0
  6 94  1  0  0  0
  7  8  2  0  0  0
  7 26  1  0  0  0
  7 29  1  0  0  0
  8  9  1  0  0  0
  8 22  1  0  0  0
  9 10  1  0  0  0
  9 27  2  0  0  0
 10 11  2  0  0  0
 10 15  1  0  0  0
 11 12  1  0  0  0
 11 95  1  0  0  0
 12 13  2  0  0  0
 12 96  1  0  0  0
 13 14  1  0  0  0
 13 31  1  0  0  0
 14 15  2  0  0  0
 14 97  1  0  0  0
 15 98  1  0  0  0
 16 17  2  0  0  0
 16 21  1  0  0  0
 16 31  1  0  0  0
 17 18  1  0  0  0
 17 99  1  0  0  0
 18 19  2  0  0  0
 18100  1  0  0  0
 19 20  1  0  0  0
 19 24  1  0  0  0
 20 21  2  0  0  0
 20101  1  0  0  0
 21 23  1  0  0  0
 22 28  1  0  0  0
 22 32  2  0  0  0
 26 27  1  0  0  0
 28102  1  0  0  0
 28103  1  0  0  0
 29104  1  0  0  0
 29105  1  0  0  0
 33 34  1  0  0  0
 33 66  1  0  0  0
 33 70  2  0  0  0
 34 36  1  0  0  0
 34 59  1  0  0  0
 34106  1  0  0  0
 35 44  2  0  0  0
 35 45  1  0  0  0
 35 68  1  0  0  0
 36 56  1  0  0  0
 36107  1  0  0  0
 37 39  1  0  0  0
 37 47  1  0  0  0
 37 66  1  0  0  0
 37108  1  0  0  0
 38 43  2  0  0  0
 38 46  1  0  0  0
 38 47  1  0  0  0
 39 64  1  0  0  0
 39 67  2  0  0  0
 40 52  1  0  0  0
 40 53  2  0  0  0
 40 58  1  0  0  0
 41109  1  0  0  0
 41110  1  0  0  0
 41111  1  0  0  0
 41 48  1  0  0  0
 42 43  1  0  0  0
 42 66  1  0  0  0
 42112  1  0  0  0
 42113  1  0  0  0
 43 44  1  0  0  0
 44114  1  0  0  0
 45 46  2  0  0  0
 45115  1  0  0  0
 46116  1  0  0  0
 47117  1  0  0  0
 47118  1  0  0  0
 48 56  1  0  0  0
 48 65  1  0  0  0
 48119  1  0  0  0
 49 50  1  0  0  0
 49 53  1  0  0  0
 49 64  1  0  0  0
 49120  1  0  0  0
 50 51  1  0  0  0
 50121  1  0  0  0
 50122  1  0  0  0
 51 52  1  0  0  0
 51123  1  0  0  0
 51124  1  0  0  0
 52125  1  0  0  0
 52126  1  0  0  0
 53 54  1  0  0  0
 54 55  2  0  0  0
 54127  1  0  0  0
 55 57  1  0  0  0
 55128  1  0  0  0
 56 69  2  0  0  0
 57 58  2  0  0  0
 57129  1  0  0  0
 58130  1  0  0  0
 59 60  1  0  0  0
 59 61  1  0  0  0
 59 62  1  0  0  0
 60131  1  0  0  0
 60132  1  0  0  0
 60133  1  0  0  0
 61134  1  0  0  0
 61135  1  0  0  0
 61136  1  0  0  0
 62137  1  0  0  0
 62138  1  0  0  0
 62139  1  0  0  0
 63 65  1  0  0  0
 63140  1  0  0  0
 63141  1  0  0  0
 63142  1  0  0  0
 64143  1  0  0  0
 65144  1  0  0  0
 68 79  1  0  0  0
 71 73  2  0  0  0
 71 74  1  0  0  0
 71145  1  0  0  0
 72 75  2  0  0  0
 72 76  1  0  0  0
 72146  1  0  0  0
 73 75  1  0  0  0
 73 80  1  0  0  0
 74 76  2  0  0  0
 74 81  1  0  0  0
 75 82  1  0  0  0
 76 85  1  0  0  0
 77 78  1  0  0  0
 77 79  1  0  0  0
 77 83  2  0  0  0
 78 81  1  0  0  0
 78 84  2  0  0  0
 79147  1  0  0  0
 79148  1  0  0  0
 80149  1  0  0  0
 80150  1  0  0  0
 81151  1  0  0  0
 82152  1  0  0  0
M  ISO  4   1 100  68 101  79 101  82 100
M  END
> <chiral flag>
0

> <version>
0

> <s_m_source_file>
/data/baiqing/PycharmProjects/Reinvent-master-3.2/result/LINK_invent/BTK/process_docking_weight1_custom_product_contain_oxygen_bond_distance_aromatic_linkinvent_7_9_3/rearranged_h_0172.sdf

> <i_m_source_file_index>
15

> <r_mmod_Potential_Energy-OPLS-2005>
-40.1431007385254

> <r_mmod_Stretch_Energy-OPLS-2005>
75.6060485839844

> <r_mmod_Bend_Energy-OPLS-2005>
134.995742797852

> <r_mmod_Torsional_Energy-OPLS-2005>
241.494857788086

> <r_mmod_Improper_Torsional_Energy-OPLS-2005>
12.6646776199341

> <r_mmod_Van_der_Waal_Energy-OPLS-2005>
150.986724853516

> <r_mmod_Electrostatic_Energy-OPLS-2005>
-477.946472167969

> <r_mmod_Solvation_Energy-OPLS-2005>
-229.36994934082

> <b_mmod_Minimization_Converged-OPLS-2005>
0

> <r_mmod_RMS_Derivative-OPLS-2005>
4.21744346618652

$$$$
15
                    3D
 Structure written by MMmdl.
153161  0  0  1  0            999 V2000
  -30.6505  -14.6099   20.5085 C   0  0  0  0  0  0
  -30.4309  -12.3804   19.4415 C   0  0  0  0  0  0
  -29.5008  -12.4981   18.2156 C   0  0  0  0  0  0
  -28.0257  -12.3370   18.6328 C   0  0  0  0  0  0
  -27.6505  -13.2151   19.8563 C   0  0  2  0  0  0
  -28.6950  -13.0781   20.9853 C   0  0  0  0  0  0
  -25.2557  -13.8164   20.5665 C   0  0  0  0  0  0
  -24.1826  -13.0434   20.9184 C   0  0  0  0  0  0
  -24.6392  -11.6903   20.8730 C   0  0  0  0  0  0
  -23.9058  -10.4292   21.0396 C   0  0  0  0  0  0
  -24.3610   -9.4207   21.9174 C   0  0  0  0  0  0
  -23.6291   -8.2241   22.0748 C   0  0  0  0  0  0
  -22.4271   -8.0277   21.3539 C   0  0  0  0  0  0
  -21.9904   -9.0249   20.4640 C   0  0  0  0  0  0
  -22.7232  -10.2131   20.3048 C   0  0  0  0  0  0
  -21.6856   -6.0731   22.5275 C   0  0  0  0  0  0
  -21.4018   -6.5637   23.8209 C   0  0  0  0  0  0
  -21.3657   -5.6788   24.9177 C   0  0  0  0  0  0
  -21.6040   -4.3049   24.7229 C   0  0  0  0  0  0
  -21.8822   -3.8141   23.4346 C   0  0  0  0  0  0
  -21.9201   -4.6956   22.3406 C   0  0  0  0  0  0
  -22.7847  -13.5227   21.1849 C   0  0  0  0  0  0
  -22.1666   -4.2139   21.0980 F   0  0  0  0  0  0
  -21.5628   -3.4537   25.7745 F   0  0  0  0  0  0
  -30.0092  -13.4057   20.4138 N   0  0  0  0  0  0
  -26.2975  -12.9347   20.3285 N   0  0  0  0  0  0
  -25.9316  -11.6502   20.5739 N   0  0  0  0  0  0
  -22.0493  -12.8226   22.0406 N   0  0  0  0  0  0
  -25.4271  -15.1886   20.4058 N   0  0  0  0  0  0
  -31.8223  -14.7453   20.1468 O   0  0  0  0  0  0
  -21.6641   -6.8868   21.4234 O   0  0  0  0  0  0
  -22.3538  -14.5535   20.6693 O   0  0  0  0  0  0
  -24.6215  -31.8628   23.2032 C   0  0  0  0  0  0
  -25.9087  -32.4798   23.8344 C   0  0  1  0  0  0
  -27.2327  -27.3566   20.1110 C   0  0  0  0  0  0
  -25.5925  -33.8590   24.2296 N   0  0  0  0  0  0
  -23.4153  -30.4828   21.5448 C   0  0  2  0  0  0
  -24.8664  -28.9371   20.1170 C   0  0  0  0  0  0
  -22.7462  -29.4612   22.4944 C   0  0  0  0  0  0
  -18.0293  -28.1377   22.8488 C   0  0  0  0  0  0
  -24.1489  -36.7280   23.2626 C   0  0  0  0  0  0
  -25.9522  -30.8018   21.3708 C   0  0  0  0  0  0
  -26.0321  -29.4279   20.7230 C   0  0  0  0  0  0
  -27.2219  -28.6452   20.7188 C   0  0  0  0  0  0
  -26.0506  -26.9027   19.4972 C   0  0  0  0  0  0
  -24.8738  -27.6757   19.5005 C   0  0  0  0  0  0
  -23.6319  -29.8133   20.1621 C   0  0  0  0  0  0
  -25.4116  -36.3076   24.0329 C   0  0  1  0  0  0
  -20.5882  -28.3664   23.1293 C   0  0  2  0  0  0
  -20.6773  -26.9383   22.5407 C   0  0  0  0  0  0
  -19.5743  -26.6367   21.5210 C   0  0  0  0  0  0
  -18.1927  -26.7927   22.1624 C   0  0  0  0  0  0
  -19.1538  -28.8843   23.2892 C   0  0  0  0  0  0
  -18.9462  -30.1452   23.8894 C   0  0  0  0  0  0
  -17.6457  -30.6571   24.0561 C   0  0  0  0  0  0
  -25.9049  -34.9452   23.5109 C   0  0  0  0  0  0
  -16.5357  -29.9056   23.6326 C   0  0  0  0  0  0
  -16.7279  -28.6481   23.0340 C   0  0  0  0  0  0
  -26.4503  -31.6585   25.0686 C   0  0  0  0  0  0
  -25.3768  -31.3732   26.1433 C   0  0  0  0  0  0
  -27.0324  -30.3004   24.6106 C   0  0  0  0  0  0
  -27.6067  -32.4297   25.7477 C   0  0  0  0  0  0
  -27.5589  -37.1784   24.8461 C   0  0  0  0  0  0
  -21.4173  -29.3026   22.3697 N   0  0  0  0  0  0
  -26.4292  -37.3771   23.9414 N   0  0  0  0  0  0
  -24.6812  -31.0653   22.0973 N   0  0  0  0  0  0
  -23.4218  -28.8150   23.2994 O   0  0  0  0  0  0
  -28.3327  -26.5078   20.0567 O   0  0  0  0  0  0
  -26.5584  -34.8923   22.4654 O   0  0  0  0  0  0
  -23.5375  -32.1399   23.7369 O   0  0  0  0  0  0
  -28.5627  -20.5089   18.8194 C   0  0  0  0  0  0
  -28.5329  -19.1985   18.2955 C   0  0  0  0  0  0
  -29.6600  -18.2990   20.2813 C   0  0  0  0  0  0
  -29.1389  -20.7641   20.0851 C   0  0  0  0  0  0
  -29.0720  -18.1082   19.0092 C   0  0  0  0  0  0
  -29.6820  -19.6423   20.7987 C   0  0  0  0  0  0
  -28.5960  -25.7222   21.1705 C   0  0  0  0  0  0
  -28.8496  -24.3754   21.2897 C   0  0  0  0  0  0
  -28.8524  -23.3459   20.2153 C   0  0  0  0  0  0
  -30.3296  -17.1131   21.0600 C   0  0  0  0  0  0
  -29.1478  -22.0921   20.6871 N   0  0  0  0  0  0
  -29.8919  -15.6881   20.8600 N   0  0  0  0  0  0
  -28.6257  -23.5806   19.0268 O   0  0  0  0  0  0
  -29.1198  -23.9344   22.5322 O   0  0  0  0  0  0
  -29.0282  -16.8749   18.4484 F   0  0  0  0  0  0
  -30.2434  -19.8707   22.0114 F   0  0  0  0  0  0
  -31.4719  -12.4999   19.1351 H   0  0  0  0  0  0
  -30.3621  -11.3866   19.8865 H   0  0  0  0  0  0
  -29.7622  -11.7457   17.4704 H   0  0  0  0  0  0
  -29.6441  -13.4678   17.7352 H   0  0  0  0  0  0
  -27.8668  -11.2850   18.8722 H   0  0  0  0  0  0
  -27.3680  -12.5581   17.7915 H   0  0  0  0  0  0
  -27.6690  -14.2485   19.5090 H   0  0  0  0  0  0
  -28.7027  -12.0619   21.3814 H   0  0  0  0  0  0
  -28.4461  -13.7260   21.8270 H   0  0  0  0  0  0
  -25.2756   -9.5689   22.4749 H   0  0  0  0  0  0
  -24.0005   -7.4633   22.7465 H   0  0  0  0  0  0
  -21.0838   -8.8761   19.8944 H   0  0  0  0  0  0
  -22.3681  -10.9666   19.6158 H   0  0  0  0  0  0
  -21.2004   -7.6144   23.9709 H   0  0  0  0  0  0
  -21.1476   -6.0519   25.9075 H   0  0  0  0  0  0
  -22.0603   -2.7599   23.2859 H   0  0  0  0  0  0
  -22.4110  -11.9890   22.4803 H   0  0  0  0  0  0
  -21.1104  -13.1243   22.2596 H   0  0  0  0  0  0
  -24.6539  -15.8384   20.4974 H   0  0  0  0  0  0
  -26.2663  -15.6218   20.0420 H   0  0  0  0  0  0
  -26.7149  -32.5508   23.1089 H   0  0  0  0  0  0
  -25.0164  -33.9746   25.0503 H   0  0  0  0  0  0
  -22.7052  -31.2996   21.4010 H   0  0  0  0  0  0
  -23.3761  -35.9598   23.3295 H   0  0  0  0  0  0
  -24.3578  -36.8882   22.2031 H   0  0  0  0  0  0
  -23.7236  -37.6489   23.6639 H   0  0  0  0  0  0
  -26.0740  -31.5631   20.5981 H   0  0  0  0  0  0
  -26.8362  -30.8580   21.9945 H   0  0  0  0  0  0
  -28.1237  -29.0188   21.1839 H   0  0  0  0  0  0
  -26.0428  -25.9312   19.0226 H   0  0  0  0  0  0
  -23.9804  -27.2919   19.0298 H   0  0  0  0  0  0
  -23.7467  -30.5872   19.4021 H   0  0  0  0  0  0
  -22.7541  -29.2365   19.8640 H   0  0  0  0  0  0
  -25.1286  -36.1922   25.0816 H   0  0  0  0  0  0
  -20.9992  -28.3225   24.1401 H   0  0  0  0  0  0
  -20.5658  -26.2251   23.3594 H   0  0  0  0  0  0
  -21.6641  -26.7387   22.1201 H   0  0  0  0  0  0
  -19.6888  -25.6282   21.1207 H   0  0  0  0  0  0
  -19.6681  -27.3199   20.6760 H   0  0  0  0  0  0
  -17.4188  -26.6678   21.4036 H   0  0  0  0  0  0
  -18.0323  -26.0080   22.9021 H   0  0  0  0  0  0
  -19.7935  -30.7282   24.2235 H   0  0  0  0  0  0
  -17.5004  -31.6254   24.5154 H   0  0  0  0  0  0
  -15.5352  -30.2945   23.7663 H   0  0  0  0  0  0
  -15.8689  -28.0806   22.7035 H   0  0  0  0  0  0
  -24.5926  -30.7085   25.7792 H   0  0  0  0  0  0
  -24.8992  -32.2905   26.4871 H   0  0  0  0  0  0
  -25.8105  -30.8911   27.0197 H   0  0  0  0  0  0
  -26.2870  -29.6771   24.1146 H   0  0  0  0  0  0
  -27.4057  -29.7227   25.4574 H   0  0  0  0  0  0
  -27.8729  -30.4288   23.9284 H   0  0  0  0  0  0
  -27.2685  -33.3585   26.2083 H   0  0  0  0  0  0
  -28.3893  -32.6870   25.0330 H   0  0  0  0  0  0
  -28.0730  -31.8406   26.5384 H   0  0  0  0  0  0
  -28.2576  -38.0112   24.7543 H   0  0  0  0  0  0
  -28.1120  -36.2638   24.6244 H   0  0  0  0  0  0
  -27.2312  -37.1380   25.8867 H   0  0  0  0  0  0
  -20.9328  -29.8757   21.6934 H   0  0  0  0  0  0
  -26.0176  -38.2833   24.1463 H   0  0  0  0  0  0
  -28.1228  -21.3023   18.2336 H   0  0  0  0  0  0
  -28.0900  -19.0267   17.3245 H   0  0  0  0  0  0
  -28.6026  -26.3520   22.0491 H   0  0  0  0  0  0
  -30.2128  -17.3201   22.1247 H   0  0  0  0  0  0
  -31.4026  -17.1867   20.8763 H   0  0  0  0  0  0
  -29.3916  -22.1118   21.6702 H   0  0  0  0  0  0
  -28.9279  -15.4865   21.0786 H   0  0  0  0  0  0
  -29.1122  -24.6843   23.1116 H   0  0  0  0  0  0
  1 25  1  0  0  0
  1 30  2  0  0  0
  1 82  1  0  0  0
  2  3  1  0  0  0
  2 25  1  0  0  0
  2 87  1  0  0  0
  2 88  1  0  0  0
  3  4  1  0  0  0
  3 89  1  0  0  0
  3 90  1  0  0  0
  4  5  1  0  0  0
  4 91  1  0  0  0
  4 92  1  0  0  0
  5  6  1  0  0  0
  5 26  1  0  0  0
  5 93  1  0  0  0
  6 25  1  0  0  0
  6 94  1  0  0  0
  6 95  1  0  0  0
  7  8  2  0  0  0
  7 26  1  0  0  0
  7 29  1  0  0  0
  8  9  1  0  0  0
  8 22  1  0  0  0
  9 10  1  0  0  0
  9 27  2  0  0  0
 10 11  2  0  0  0
 10 15  1  0  0  0
 11 12  1  0  0  0
 11 96  1  0  0  0
 12 13  2  0  0  0
 12 97  1  0  0  0
 13 14  1  0  0  0
 13 31  1  0  0  0
 14 15  2  0  0  0
 14 98  1  0  0  0
 15 99  1  0  0  0
 16 17  2  0  0  0
 16 21  1  0  0  0
 16 31  1  0  0  0
 17 18  1  0  0  0
 17100  1  0  0  0
 18 19  2  0  0  0
 18101  1  0  0  0
 19 20  1  0  0  0
 19 24  1  0  0  0
 20 21  2  0  0  0
 20102  1  0  0  0
 21 23  1  0  0  0
 22 28  1  0  0  0
 22 32  2  0  0  0
 26 27  1  0  0  0
 28103  1  0  0  0
 28104  1  0  0  0
 29105  1  0  0  0
 29106  1  0  0  0
 33 34  1  0  0  0
 33 66  1  0  0  0
 33 70  2  0  0  0
 34 36  1  0  0  0
 34 59  1  0  0  0
 34107  1  0  0  0
 35 44  2  0  0  0
 35 45  1  0  0  0
 35 68  1  0  0  0
 36 56  1  0  0  0
 36108  1  0  0  0
 37 39  1  0  0  0
 37 47  1  0  0  0
 37 66  1  0  0  0
 37109  1  0  0  0
 38 43  2  0  0  0
 38 46  1  0  0  0
 38 47  1  0  0  0
 39 64  1  0  0  0
 39 67  2  0  0  0
 40 52  1  0  0  0
 40 53  2  0  0  0
 40 58  1  0  0  0
 41110  1  0  0  0
 41111  1  0  0  0
 41112  1  0  0  0
 41 48  1  0  0  0
 42 43  1  0  0  0
 42 66  1  0  0  0
 42113  1  0  0  0
 42114  1  0  0  0
 43 44  1  0  0  0
 44115  1  0  0  0
 45 46  2  0  0  0
 45116  1  0  0  0
 46117  1  0  0  0
 47118  1  0  0  0
 47119  1  0  0  0
 48 56  1  0  0  0
 48 65  1  0  0  0
 48120  1  0  0  0
 49 50  1  0  0  0
 49 53  1  0  0  0
 49 64  1  0  0  0
 49121  1  0  0  0
 50 51  1  0  0  0
 50122  1  0  0  0
 50123  1  0  0  0
 51 52  1  0  0  0
 51124  1  0  0  0
 51125  1  0  0  0
 52126  1  0  0  0
 52127  1  0  0  0
 53 54  1  0  0  0
 54 55  2  0  0  0
 54128  1  0  0  0
 55 57  1  0  0  0
 55129  1  0  0  0
 56 69  2  0  0  0
 57 58  2  0  0  0
 57130  1  0  0  0
 58131  1  0  0  0
 59 60  1  0  0  0
 59 61  1  0  0  0
 59 62  1  0  0  0
 60132  1  0  0  0
 60133  1  0  0  0
 60134  1  0  0  0
 61135  1  0  0  0
 61136  1  0  0  0
 61137  1  0  0  0
 62138  1  0  0  0
 62139  1  0  0  0
 62140  1  0  0  0
 63 65  1  0  0  0
 63141  1  0  0  0
 63142  1  0  0  0
 63143  1  0  0  0
 64144  1  0  0  0
 65145  1  0  0  0
 68 77  1  0  0  0
 71 72  2  0  0  0
 71 74  1  0  0  0
 71146  1  0  0  0
 72 75  1  0  0  0
 72147  1  0  0  0
 73 75  2  0  0  0
 73 76  1  0  0  0
 73 80  1  0  0  0
 74 76  2  0  0  0
 74 81  1  0  0  0
 75 85  1  0  0  0
 76 86  1  0  0  0
 77 78  2  0  0  0
 77148  1  0  0  0
 78 79  1  0  0  0
 78 84  1  0  0  0
 79 81  1  0  0  0
 79 83  2  0  0  0
 80 82  1  0  0  0
 80149  1  0  0  0
 80150  1  0  0  0
 81151  1  0  0  0
 82152  1  0  0  0
 84153  1  0  0  0
M  ISO  4   1 100  68 101  77 101  82 100
M  END
> <chiral flag>
0

> <version>
0

> <s_m_source_file>
/data/baiqing/PycharmProjects/Reinvent-master-3.2/result/LINK_invent/BTK/process_docking_weight1_custom_product_contain_oxygen_bond_distance_aromatic_linkinvent_7_9_3/rearranged_h_0172.sdf

> <i_m_source_file_index>
16

> <r_mmod_Potential_Energy-OPLS-2005>
-74.1375045776367

> <r_mmod_Stretch_Energy-OPLS-2005>
66.2415084838867

> <r_mmod_Bend_Energy-OPLS-2005>
141.270584106445

> <r_mmod_Torsional_Energy-OPLS-2005>
210.344146728516

> <r_mmod_Improper_Torsional_Energy-OPLS-2005>
3.94405674934387

> <r_mmod_Van_der_Waal_Energy-OPLS-2005>
145.728408813477

> <r_mmod_Electrostatic_Energy-OPLS-2005>
-453.482299804688

> <r_mmod_Solvation_Energy-OPLS-2005>
-226.119720458984

> <b_mmod_Minimization_Converged-OPLS-2005>
0

> <r_mmod_RMS_Derivative-OPLS-2005>
2.12119674682617

$$$$
16
                    3D
 Structure written by MMmdl.
157165  0  0  1  0            999 V2000
  -30.6642  -14.5664   20.5190 C   0  0  0  0  0  0
  -30.4292  -12.3510   19.4400 C   0  0  0  0  0  0
  -29.5013  -12.4995   18.2153 C   0  0  0  0  0  0
  -28.0238  -12.3473   18.6287 C   0  0  0  0  0  0
  -27.6552  -13.2115   19.8645 C   0  0  2  0  0  0
  -28.6997  -13.0468   20.9920 C   0  0  0  0  0  0
  -25.2576  -13.8162   20.5688 C   0  0  0  0  0  0
  -24.1835  -13.0437   20.9188 C   0  0  0  0  0  0
  -24.6390  -11.6903   20.8734 C   0  0  0  0  0  0
  -23.9059  -10.4291   21.0400 C   0  0  0  0  0  0
  -24.3613   -9.4209   21.9178 C   0  0  0  0  0  0
  -23.6290   -8.2244   22.0749 C   0  0  0  0  0  0
  -22.4271   -8.0281   21.3542 C   0  0  0  0  0  0
  -21.9902   -9.0255   20.4647 C   0  0  0  0  0  0
  -22.7229  -10.2132   20.3053 C   0  0  0  0  0  0
  -21.6853   -6.0734   22.5282 C   0  0  0  0  0  0
  -21.4018   -6.5640   23.8215 C   0  0  0  0  0  0
  -21.3658   -5.6792   24.9176 C   0  0  0  0  0  0
  -21.6042   -4.3053   24.7226 C   0  0  0  0  0  0
  -21.8819   -3.8148   23.4349 C   0  0  0  0  0  0
  -21.9194   -4.6963   22.3404 C   0  0  0  0  0  0
  -22.7861  -13.5244   21.1849 C   0  0  0  0  0  0
  -22.1665   -4.2149   21.0980 F   0  0  0  0  0  0
  -21.5622   -3.4539   25.7742 F   0  0  0  0  0  0
  -30.0211  -13.3647   20.4290 N   0  0  0  0  0  0
  -26.2996  -12.9335   20.3323 N   0  0  0  0  0  0
  -25.9318  -11.6493   20.5753 N   0  0  0  0  0  0
  -22.0493  -12.8245   22.0403 N   0  0  0  0  0  0
  -25.4287  -15.1883   20.4106 N   0  0  0  0  0  0
  -31.8277  -14.7096   20.1326 O   0  0  0  0  0  0
  -21.6636   -6.8880   21.4243 O   0  0  0  0  0  0
  -22.3557  -14.5553   20.6695 O   0  0  0  0  0  0
  -24.6201  -31.8639   23.2057 C   0  0  0  0  0  0
  -25.9078  -32.4793   23.8367 C   0  0  1  0  0  0
  -27.2299  -27.3842   20.1091 C   0  0  0  0  0  0
  -25.5917  -33.8590   24.2299 N   0  0  0  0  0  0
  -23.4115  -30.4868   21.5468 C   0  0  2  0  0  0
  -24.8615  -28.9512   20.1081 C   0  0  0  0  0  0
  -22.7446  -29.4634   22.4955 C   0  0  0  0  0  0
  -18.0284  -28.1383   22.8484 C   0  0  0  0  0  0
  -24.1490  -36.7304   23.2635 C   0  0  0  0  0  0
  -25.9460  -30.8144   21.3674 C   0  0  0  0  0  0
  -26.0258  -29.4472   20.7107 C   0  0  0  0  0  0
  -27.2173  -28.6726   20.7065 C   0  0  0  0  0  0
  -26.0510  -26.9205   19.4894 C   0  0  0  0  0  0
  -24.8723  -27.6896   19.4895 C   0  0  0  0  0  0
  -23.6236  -29.8212   20.1609 C   0  0  0  0  0  0
  -25.4108  -36.3088   24.0332 C   0  0  1  0  0  0
  -20.5876  -28.3675   23.1297 C   0  0  2  0  0  0
  -20.6771  -26.9402   22.5414 C   0  0  0  0  0  0
  -19.5749  -26.6382   21.5210 C   0  0  0  0  0  0
  -18.1927  -26.7930   22.1616 C   0  0  0  0  0  0
  -19.1533  -28.8847   23.2886 C   0  0  0  0  0  0
  -18.9462  -30.1457   23.8891 C   0  0  0  0  0  0
  -17.6461  -30.6579   24.0567 C   0  0  0  0  0  0
  -25.9044  -34.9456   23.5114 C   0  0  0  0  0  0
  -16.5353  -29.9078   23.6326 C   0  0  0  0  0  0
  -16.7273  -28.6500   23.0335 C   0  0  0  0  0  0
  -26.4490  -31.6580   25.0709 C   0  0  0  0  0  0
  -25.3751  -31.3720   26.1460 C   0  0  0  0  0  0
  -27.0316  -30.3004   24.6124 C   0  0  0  0  0  0
  -27.6047  -32.4317   25.7483 C   0  0  0  0  0  0
  -27.5582  -37.1802   24.8460 C   0  0  0  0  0  0
  -21.4165  -29.3035   22.3698 N   0  0  0  0  0  0
  -26.4291  -37.3776   23.9410 N   0  0  0  0  0  0
  -24.6774  -31.0702   22.0976 N   0  0  0  0  0  0
  -23.4198  -28.8174   23.3013 O   0  0  0  0  0  0
  -28.3234  -26.5305   20.1572 O   0  0  0  0  0  0
  -26.5600  -34.8916   22.4672 O   0  0  0  0  0  0
  -23.5379  -32.1419   23.7418 O   0  0  0  0  0  0
  -31.3459  -17.6556   20.7285 C   0  0  0  0  0  0
  -31.2513  -19.0927   20.7116 C   0  0  0  0  0  0
  -30.1448  -16.9820   20.8043 C   0  0  0  0  0  0
  -29.9585  -19.5598   20.7909 C   0  0  0  0  0  0
  -28.1235  -25.3794   20.9180 C   0  0  0  0  0  0
  -28.6809  -24.1408   20.7550 C   0  0  0  0  0  0
  -28.3202  -23.0403   21.7271 C   0  0  0  0  0  0
  -28.9147  -21.5764   21.8180 C   0  0  0  0  0  0
  -32.4527  -19.9878   20.6479 C   0  0  0  0  0  0
  -29.2493  -19.8489   23.7218 C   0  0  0  0  0  0
  -29.5165  -20.9118   20.7857 N   0  0  0  0  0  0
  -29.8843  -15.6276   20.8683 N   0  0  0  0  0  0
  -28.7615  -21.0698   23.0656 N   0  3  0  0  0  0
  -27.4883  -23.2774   22.6151 O   0  0  0  0  0  0
  -29.5487  -23.8711   19.7702 O   0  0  0  0  0  0
  -28.8494  -18.1848   20.8245 S   0  0  0  0  0  0
  -31.4727  -12.4566   19.1380 H   0  0  0  0  0  0
  -30.3438  -11.3520   19.8690 H   0  0  0  0  0  0
  -29.7541  -11.7569   17.4569 H   0  0  0  0  0  0
  -29.6556  -13.4747   17.7506 H   0  0  0  0  0  0
  -27.8508  -11.2933   18.8499 H   0  0  0  0  0  0
  -27.3712  -12.5905   17.7892 H   0  0  0  0  0  0
  -27.6807  -14.2494   19.5324 H   0  0  0  0  0  0
  -28.6952  -12.0234   21.3701 H   0  0  0  0  0  0
  -28.4558  -13.6785   21.8477 H   0  0  0  0  0  0
  -25.2754   -9.5689   22.4754 H   0  0  0  0  0  0
  -24.0001   -7.4636   22.7465 H   0  0  0  0  0  0
  -21.0830   -8.8776   19.8955 H   0  0  0  0  0  0
  -22.3684  -10.9673   19.6168 H   0  0  0  0  0  0
  -21.2015   -7.6148   23.9723 H   0  0  0  0  0  0
  -21.1475   -6.0516   25.9076 H   0  0  0  0  0  0
  -22.0598   -2.7609   23.2851 H   0  0  0  0  0  0
  -22.4104  -11.9910   22.4803 H   0  0  0  0  0  0
  -21.1108  -13.1273   22.2593 H   0  0  0  0  0  0
  -24.6565  -15.8377   20.5142 H   0  0  0  0  0  0
  -26.2705  -15.6285   20.0619 H   0  0  0  0  0  0
  -26.7147  -32.5498   23.1122 H   0  0  0  0  0  0
  -25.0085  -33.9743   25.0460 H   0  0  0  0  0  0
  -22.7021  -31.3049   21.4060 H   0  0  0  0  0  0
  -23.3739  -35.9651   23.3303 H   0  0  0  0  0  0
  -24.3591  -36.8914   22.2049 H   0  0  0  0  0  0
  -23.7255  -37.6515   23.6652 H   0  0  0  0  0  0
  -26.0696  -31.5808   20.6010 H   0  0  0  0  0  0
  -26.8286  -30.8638   21.9931 H   0  0  0  0  0  0
  -28.1119  -29.0414   21.1892 H   0  0  0  0  0  0
  -26.0401  -25.9438   19.0264 H   0  0  0  0  0  0
  -23.9797  -27.3011   19.0189 H   0  0  0  0  0  0
  -23.7338  -30.5983   19.4039 H   0  0  0  0  0  0
  -22.7459  -29.2451   19.8616 H   0  0  0  0  0  0
  -25.1283  -36.1943   25.0823 H   0  0  0  0  0  0
  -20.9979  -28.3257   24.1414 H   0  0  0  0  0  0
  -20.5664  -26.2284   23.3609 H   0  0  0  0  0  0
  -21.6643  -26.7433   22.1211 H   0  0  0  0  0  0
  -19.6908  -25.6294   21.1230 H   0  0  0  0  0  0
  -19.6684  -27.3199   20.6747 H   0  0  0  0  0  0
  -17.4196  -26.6676   21.4021 H   0  0  0  0  0  0
  -18.0327  -26.0073   22.9012 H   0  0  0  0  0  0
  -19.7941  -30.7281   24.2242 H   0  0  0  0  0  0
  -17.5013  -31.6253   24.5176 H   0  0  0  0  0  0
  -15.5353  -30.2972   23.7654 H   0  0  0  0  0  0
  -15.8675  -28.0824   22.7033 H   0  0  0  0  0  0
  -24.5917  -30.7064   25.7824 H   0  0  0  0  0  0
  -24.8957  -32.2890   26.4896 H   0  0  0  0  0  0
  -25.8107  -30.8910   27.0227 H   0  0  0  0  0  0
  -26.2869  -29.6766   24.1161 H   0  0  0  0  0  0
  -27.4043  -29.7240   25.4602 H   0  0  0  0  0  0
  -27.8729  -30.4288   23.9307 H   0  0  0  0  0  0
  -27.2635  -33.3600   26.2081 H   0  0  0  0  0  0
  -28.3850  -32.6908   25.0314 H   0  0  0  0  0  0
  -28.0726  -31.8436   26.5390 H   0  0  0  0  0  0
  -28.2592  -38.0106   24.7511 H   0  0  0  0  0  0
  -28.1084  -36.2636   24.6272 H   0  0  0  0  0  0
  -27.2310  -37.1446   25.8866 H   0  0  0  0  0  0
  -20.9328  -29.8769   21.6925 H   0  0  0  0  0  0
  -26.0173  -38.2853   24.1410 H   0  0  0  0  0  0
  -32.3110  -17.1692   20.6946 H   0  0  0  0  0  0
  -27.4274  -25.5767   21.7252 H   0  0  0  0  0  0
  -33.3803  -19.4160   20.6793 H   0  0  0  0  0  0
  -32.4746  -20.6820   21.4886 H   0  0  0  0  0  0
  -32.4637  -20.5768   19.7306 H   0  0  0  0  0  0
  -29.1893  -19.9654   24.8040 H   0  0  0  0  0  0
  -30.2913  -19.6505   23.4723 H   0  0  0  0  0  0
  -28.6419  -18.9849   23.4567 H   0  0  0  0  0  0
  -29.7839  -21.4435   19.9682 H   0  0  0  0  0  0
  -28.9341  -15.3767   21.0957 H   0  0  0  0  0  0
  -28.2225  -21.6984   23.6515 H   0  0  0  0  0  0
  -29.6636  -24.6755   19.2783 H   0  0  0  0  0  0
  1 25  1  0  0  0
  1 30  2  0  0  0
  1 82  1  0  0  0
  2  3  1  0  0  0
  2 25  1  0  0  0
  2 87  1  0  0  0
  2 88  1  0  0  0
  3  4  1  0  0  0
  3 89  1  0  0  0
  3 90  1  0  0  0
  4  5  1  0  0  0
  4 91  1  0  0  0
  4 92  1  0  0  0
  5  6  1  0  0  0
  5 26  1  0  0  0
  5 93  1  0  0  0
  6 25  1  0  0  0
  6 94  1  0  0  0
  6 95  1  0  0  0
  7  8  2  0  0  0
  7 26  1  0  0  0
  7 29  1  0  0  0
  8  9  1  0  0  0
  8 22  1  0  0  0
  9 10  1  0  0  0
  9 27  2  0  0  0
 10 11  2  0  0  0
 10 15  1  0  0  0
 11 12  1  0  0  0
 11 96  1  0  0  0
 12 13  2  0  0  0
 12 97  1  0  0  0
 13 14  1  0  0  0
 13 31  1  0  0  0
 14 15  2  0  0  0
 14 98  1  0  0  0
 15 99  1  0  0  0
 16 17  2  0  0  0
 16 21  1  0  0  0
 16 31  1  0  0  0
 17 18  1  0  0  0
 17100  1  0  0  0
 18 19  2  0  0  0
 18101  1  0  0  0
 19 20  1  0  0  0
 19 24  1  0  0  0
 20 21  2  0  0  0
 20102  1  0  0  0
 21 23  1  0  0  0
 22 28  1  0  0  0
 22 32  2  0  0  0
 26 27  1  0  0  0
 28103  1  0  0  0
 28104  1  0  0  0
 29105  1  0  0  0
 29106  1  0  0  0
 33 34  1  0  0  0
 33 66  1  0  0  0
 33 70  2  0  0  0
 34 36  1  0  0  0
 34 59  1  0  0  0
 34107  1  0  0  0
 35 44  2  0  0  0
 35 45  1  0  0  0
 35 68  1  0  0  0
 36 56  1  0  0  0
 36108  1  0  0  0
 37 39  1  0  0  0
 37 47  1  0  0  0
 37 66  1  0  0  0
 37109  1  0  0  0
 38 43  2  0  0  0
 38 46  1  0  0  0
 38 47  1  0  0  0
 39 64  1  0  0  0
 39 67  2  0  0  0
 40 52  1  0  0  0
 40 53  2  0  0  0
 40 58  1  0  0  0
 41110  1  0  0  0
 41111  1  0  0  0
 41112  1  0  0  0
 41 48  1  0  0  0
 42 43  1  0  0  0
 42 66  1  0  0  0
 42113  1  0  0  0
 42114  1  0  0  0
 43 44  1  0  0  0
 44115  1  0  0  0
 45 46  2  0  0  0
 45116  1  0  0  0
 46117  1  0  0  0
 47118  1  0  0  0
 47119  1  0  0  0
 48 56  1  0  0  0
 48 65  1  0  0  0
 48120  1  0  0  0
 49 50  1  0  0  0
 49 53  1  0  0  0
 49 64  1  0  0  0
 49121  1  0  0  0
 50 51  1  0  0  0
 50122  1  0  0  0
 50123  1  0  0  0
 51 52  1  0  0  0
 51124  1  0  0  0
 51125  1  0  0  0
 52126  1  0  0  0
 52127  1  0  0  0
 53 54  1  0  0  0
 54 55  2  0  0  0
 54128  1  0  0  0
 55 57  1  0  0  0
 55129  1  0  0  0
 56 69  2  0  0  0
 57 58  2  0  0  0
 57130  1  0  0  0
 58131  1  0  0  0
 59 60  1  0  0  0
 59 61  1  0  0  0
 59 62  1  0  0  0
 60132  1  0  0  0
 60133  1  0  0  0
 60134  1  0  0  0
 61135  1  0  0  0
 61136  1  0  0  0
 61137  1  0  0  0
 62138  1  0  0  0
 62139  1  0  0  0
 62140  1  0  0  0
 63 65  1  0  0  0
 63141  1  0  0  0
 63142  1  0  0  0
 63143  1  0  0  0
 64144  1  0  0  0
 65145  1  0  0  0
 68 75  1  0  0  0
 71 72  1  0  0  0
 71 73  2  0  0  0
 71146  1  0  0  0
 72 74  2  0  0  0
 72 79  1  0  0  0
 73 82  1  0  0  0
 73 86  1  0  0  0
 74 81  1  0  0  0
 74 86  1  0  0  0
 75 76  2  0  0  0
 75147  1  0  0  0
 76 77  1  0  0  0
 76 85  1  0  0  0
 77 78  1  0  0  0
 77 84  2  0  0  0
 78 81  1  0  0  0
 78 83  2  0  0  0
 79148  1  0  0  0
 79149  1  0  0  0
 79150  1  0  0  0
 80 83  1  0  0  0
 80151  1  0  0  0
 80152  1  0  0  0
 80153  1  0  0  0
 81154  1  0  0  0
 82155  1  0  0  0
 83156  1  0  0  0
 85157  1  0  0  0
M  CHG  1  83   1
M  ISO  4   1 100  68 101  75 101  82 100
M  END
> <chiral flag>
0

> <version>
0

> <s_m_source_file>
/data/baiqing/PycharmProjects/Reinvent-master-3.2/result/LINK_invent/BTK/process_docking_weight1_custom_product_contain_oxygen_bond_distance_aromatic_linkinvent_7_9_3/rearranged_h_0172.sdf

> <i_m_source_file_index>
17

> <r_mmod_Potential_Energy-OPLS-2005>
-93.5351333618164

> <r_mmod_Stretch_Energy-OPLS-2005>
55.5004501342773

> <r_mmod_Bend_Energy-OPLS-2005>
144.820266723633

> <r_mmod_Torsional_Energy-OPLS-2005>
231.073196411133

> <r_mmod_Improper_Torsional_Energy-OPLS-2005>
5.16920566558838

> <r_mmod_Van_der_Waal_Energy-OPLS-2005>
137.198059082031

> <r_mmod_Electrostatic_Energy-OPLS-2005>
-285.236938476562

> <r_mmod_Solvation_Energy-OPLS-2005>
-412.425598144531

> <b_mmod_Minimization_Converged-OPLS-2005>
0

> <r_mmod_RMS_Derivative-OPLS-2005>
1.07480764389038

$$$$
17
                    3D
 Structure written by MMmdl.
155163  0  0  1  0            999 V2000
  -30.6083  -14.5415   20.4470 C   0  0  0  0  0  0
  -30.4213  -12.3167   19.4032 C   0  0  0  0  0  0
  -29.4850  -12.4795   18.1878 C   0  0  0  0  0  0
  -28.0024  -12.3413   18.6003 C   0  0  0  0  0  0
  -27.6485  -13.1921   19.8491 C   0  0  2  0  0  0
  -28.6940  -13.0105   20.9745 C   0  0  0  0  0  0
  -25.2560  -13.8120   20.5586 C   0  0  0  0  0  0
  -24.1823  -13.0408   20.9160 C   0  0  0  0  0  0
  -24.6381  -11.6873   20.8723 C   0  0  0  0  0  0
  -23.9038  -10.4278   21.0402 C   0  0  0  0  0  0
  -24.3609   -9.4229   21.9214 C   0  0  0  0  0  0
  -23.6293   -8.2255   22.0779 C   0  0  0  0  0  0
  -22.4278   -8.0291   21.3526 C   0  0  0  0  0  0
  -21.9876   -9.0271   20.4636 C   0  0  0  0  0  0
  -22.7187  -10.2155   20.3058 C   0  0  0  0  0  0
  -21.6852   -6.0700   22.5292 C   0  0  0  0  0  0
  -21.4017   -6.5641   23.8211 C   0  0  0  0  0  0
  -21.3659   -5.6800   24.9183 C   0  0  0  0  0  0
  -21.6013   -4.3053   24.7244 C   0  0  0  0  0  0
  -21.8808   -3.8146   23.4374 C   0  0  0  0  0  0
  -21.9195   -4.6930   22.3428 C   0  0  0  0  0  0
  -22.7838  -13.5219   21.1821 C   0  0  0  0  0  0
  -22.1655   -4.2104   21.0994 F   0  0  0  0  0  0
  -21.5623   -3.4558   25.7776 F   0  0  0  0  0  0
  -30.0141  -13.3237   20.3950 N   0  0  0  0  0  0
  -26.2974  -12.9265   20.3250 N   0  0  0  0  0  0
  -25.9316  -11.6457   20.5726 N   0  0  0  0  0  0
  -22.0488  -12.8253   22.0397 N   0  0  0  0  0  0
  -25.4199  -15.1840   20.3994 N   0  0  0  0  0  0
  -31.7897  -14.7393   20.1308 O   0  0  0  0  0  0
  -21.6617   -6.8873   21.4256 O   0  0  0  0  0  0
  -22.3567  -14.5520   20.6635 O   0  0  0  0  0  0
  -24.6172  -31.8732   23.2058 C   0  0  0  0  0  0
  -25.9107  -32.4838   23.8369 C   0  0  1  0  0  0
  -27.2068  -27.3861   20.1136 C   0  0  0  0  0  0
  -25.5938  -33.8632   24.2323 N   0  0  0  0  0  0
  -23.4123  -30.4875   21.5548 C   0  0  2  0  0  0
  -24.8540  -28.9602   20.1057 C   0  0  0  0  0  0
  -22.7457  -29.4582   22.5018 C   0  0  0  0  0  0
  -18.0287  -28.1352   22.8528 C   0  0  0  0  0  0
  -24.1478  -36.7284   23.2640 C   0  0  0  0  0  0
  -25.9433  -30.8226   21.3685 C   0  0  0  0  0  0
  -26.0192  -29.4544   20.7099 C   0  0  0  0  0  0
  -27.2044  -28.6752   20.7065 C   0  0  0  0  0  0
  -26.0386  -26.9449   19.4592 C   0  0  0  0  0  0
  -24.8624  -27.7116   19.4657 C   0  0  0  0  0  0
  -23.6175  -29.8305   20.1667 C   0  0  0  0  0  0
  -25.4108  -36.3103   24.0356 C   0  0  1  0  0  0
  -20.5866  -28.3614   23.1312 C   0  0  2  0  0  0
  -20.6749  -26.9381   22.5366 C   0  0  0  0  0  0
  -19.5699  -26.6388   21.5202 C   0  0  0  0  0  0
  -18.1920  -26.7914   22.1653 C   0  0  0  0  0  0
  -19.1538  -28.8780   23.2906 C   0  0  0  0  0  0
  -18.9500  -30.1393   23.8914 C   0  0  0  0  0  0
  -17.6485  -30.6560   24.0565 C   0  0  0  0  0  0
  -25.9053  -34.9466   23.5133 C   0  0  0  0  0  0
  -16.5378  -29.9076   23.6324 C   0  0  0  0  0  0
  -16.7268  -28.6484   23.0389 C   0  0  0  0  0  0
  -26.4447  -31.6619   25.0718 C   0  0  0  0  0  0
  -25.3648  -31.3764   26.1433 C   0  0  0  0  0  0
  -27.0310  -30.3057   24.6143 C   0  0  0  0  0  0
  -27.6035  -32.4300   25.7459 C   0  0  0  0  0  0
  -27.5563  -37.1808   24.8484 C   0  0  0  0  0  0
  -21.4173  -29.3020   22.3789 N   0  0  0  0  0  0
  -26.4277  -37.3814   23.9398 N   0  0  0  0  0  0
  -24.6794  -31.0727   22.0996 N   0  0  0  0  0  0
  -23.4183  -28.8135   23.3123 O   0  0  0  0  0  0
  -28.3043  -26.5420   20.1431 O   0  0  0  0  0  0
  -26.5605  -34.8934   22.4680 O   0  0  0  0  0  0
  -23.5352  -32.1465   23.7411 O   0  0  0  0  0  0
  -30.5763  -18.4915   22.6830 C   0  0  0  0  0  0
  -29.9138  -19.5435   22.0191 C   0  0  0  0  0  0
  -30.6028  -17.1977   22.1326 C   0  0  0  0  0  0
  -29.2834  -17.9934   20.2406 C   0  0  0  0  0  0
  -29.3057  -19.3252   20.7602 C   0  0  0  0  0  0
  -29.9188  -16.9205   20.9324 C   0  0  0  0  0  0
  -29.2345  -21.9090   20.2102 C   0  0  0  0  0  0
  -29.1598  -24.2116   20.5370 C   0  0  0  0  0  0
  -26.8213  -24.8514   21.4544 C   0  0  0  0  0  0
  -28.6225  -20.5003   20.0259 C   0  0  0  0  0  0
  -28.2272  -25.3715   21.0220 C   0  0  2  0  0  0
  -28.5285  -22.9735   20.3427 N   0  0  0  0  0  0
  -29.7197  -15.5604   20.5354 N   0  0  0  0  0  0
  -30.3647  -24.4535   20.4100 O   0  0  0  0  0  0
  -31.4629  -12.4302   19.0989 H   0  0  0  0  0  0
  -30.3326  -11.3170   19.8290 H   0  0  0  0  0  0
  -29.7284  -11.7311   17.4267 H   0  0  0  0  0  0
  -29.6440  -13.4540   17.7293 H   0  0  0  0  0  0
  -27.7996  -11.2876   18.7971 H   0  0  0  0  0  0
  -27.3600  -12.6187   17.7629 H   0  0  0  0  0  0
  -27.6631  -14.2247   19.5143 H   0  0  0  0  0  0
  -28.6864  -11.9852   21.3483 H   0  0  0  0  0  0
  -28.4555  -13.6341   21.8434 H   0  0  0  0  0  0
  -25.2738   -9.5687   22.4788 H   0  0  0  0  0  0
  -23.9955   -7.4617   22.7527 H   0  0  0  0  0  0
  -21.0768   -8.8744   19.9000 H   0  0  0  0  0  0
  -22.3590  -10.9679   19.6171 H   0  0  0  0  0  0
  -21.2022   -7.6145   23.9689 H   0  0  0  0  0  0
  -21.1479   -6.0544   25.9052 H   0  0  0  0  0  0
  -22.0590   -2.7613   23.2892 H   0  0  0  0  0  0
  -22.4098  -11.9957   22.4833 H   0  0  0  0  0  0
  -21.1147  -13.1350   22.2590 H   0  0  0  0  0  0
  -24.6430  -15.8232   20.5141 H   0  0  0  0  0  0
  -26.2565  -15.6449   20.0663 H   0  0  0  0  0  0
  -26.7180  -32.5519   23.1151 H   0  0  0  0  0  0
  -25.0067  -33.9810   25.0432 H   0  0  0  0  0  0
  -22.6997  -31.3052   21.4201 H   0  0  0  0  0  0
  -23.3764  -35.9603   23.3343 H   0  0  0  0  0  0
  -24.3526  -36.8846   22.2037 H   0  0  0  0  0  0
  -23.7232  -37.6501   23.6612 H   0  0  0  0  0  0
  -26.0549  -31.5891   20.5992 H   0  0  0  0  0  0
  -26.8239  -30.8707   21.9958 H   0  0  0  0  0  0
  -28.1041  -29.0407   21.1781 H   0  0  0  0  0  0
  -26.0274  -25.9719   18.9877 H   0  0  0  0  0  0
  -23.9728  -27.3346   18.9820 H   0  0  0  0  0  0
  -23.7192  -30.6074   19.4060 H   0  0  0  0  0  0
  -22.7412  -29.2518   19.8719 H   0  0  0  0  0  0
  -25.1284  -36.1973   25.0861 H   0  0  0  0  0  0
  -20.9900  -28.3117   24.1435 H   0  0  0  0  0  0
  -20.5682  -26.2237   23.3546 H   0  0  0  0  0  0
  -21.6584  -26.7434   22.1097 H   0  0  0  0  0  0
  -19.6866  -25.6310   21.1215 H   0  0  0  0  0  0
  -19.6658  -27.3149   20.6699 H   0  0  0  0  0  0
  -17.4170  -26.6611   21.4097 H   0  0  0  0  0  0
  -18.0340  -26.0047   22.9003 H   0  0  0  0  0  0
  -19.7975  -30.7176   24.2286 H   0  0  0  0  0  0
  -17.5091  -31.6226   24.5175 H   0  0  0  0  0  0
  -15.5382  -30.3008   23.7660 H   0  0  0  0  0  0
  -15.8651  -28.0801   22.7116 H   0  0  0  0  0  0
  -24.5836  -30.7119   25.7704 H   0  0  0  0  0  0
  -24.8823  -32.2961   26.4766 H   0  0  0  0  0  0
  -25.7939  -30.8965   27.0262 H   0  0  0  0  0  0
  -26.2931  -29.6816   24.1112 H   0  0  0  0  0  0
  -27.3973  -29.7277   25.4639 H   0  0  0  0  0  0
  -27.8770  -30.4345   23.9392 H   0  0  0  0  0  0
  -27.2727  -33.3655   26.2000 H   0  0  0  0  0  0
  -28.3875  -32.6807   25.0277 H   0  0  0  0  0  0
  -28.0705  -31.8447   26.5411 H   0  0  0  0  0  0
  -28.2647  -38.0034   24.7481 H   0  0  0  0  0  0
  -28.1006  -36.2583   24.6402 H   0  0  0  0  0  0
  -27.2264  -37.1560   25.8884 H   0  0  0  0  0  0
  -20.9320  -29.8789   21.7039 H   0  0  0  0  0  0
  -26.0190  -38.2900   24.1379 H   0  0  0  0  0  0
  -31.0385  -18.6562   23.6411 H   0  0  0  0  0  0
  -29.8604  -20.5141   22.4915 H   0  0  0  0  0  0
  -31.0918  -16.4136   22.6900 H   0  0  0  0  0  0
  -28.7551  -17.7879   19.3198 H   0  0  0  0  0  0
  -30.3260  -21.9114   20.2107 H   0  0  0  0  0  0
  -26.3135  -24.2991   20.6544 H   0  0  0  0  0  0
  -26.1524  -25.6378   21.7953 H   0  0  0  0  0  0
  -26.9222  -24.1819   22.3062 H   0  0  0  0  0  0
  -27.5807  -20.5226   20.3659 H   0  0  0  0  0  0
  -28.5952  -20.2963   18.9562 H   0  0  0  0  0  0
  -28.6801  -25.7253   21.9484 H   0  0  0  0  0  0
  -28.7579  -15.2501   20.5335 H   0  0  0  0  0  0
  1 25  1  0  0  0
  1 30  2  0  0  0
  1 83  1  0  0  0
  2  3  1  0  0  0
  2 25  1  0  0  0
  2 85  1  0  0  0
  2 86  1  0  0  0
  3  4  1  0  0  0
  3 87  1  0  0  0
  3 88  1  0  0  0
  4  5  1  0  0  0
  4 89  1  0  0  0
  4 90  1  0  0  0
  5  6  1  0  0  0
  5 26  1  0  0  0
  5 91  1  0  0  0
  6 25  1  0  0  0
  6 92  1  0  0  0
  6 93  1  0  0  0
  7  8  2  0  0  0
  7 26  1  0  0  0
  7 29  1  0  0  0
  8  9  1  0  0  0
  8 22  1  0  0  0
  9 10  1  0  0  0
  9 27  2  0  0  0
 10 11  2  0  0  0
 10 15  1  0  0  0
 11 12  1  0  0  0
 11 94  1  0  0  0
 12 13  2  0  0  0
 12 95  1  0  0  0
 13 14  1  0  0  0
 13 31  1  0  0  0
 14 15  2  0  0  0
 14 96  1  0  0  0
 15 97  1  0  0  0
 16 17  2  0  0  0
 16 21  1  0  0  0
 16 31  1  0  0  0
 17 18  1  0  0  0
 17 98  1  0  0  0
 18 19  2  0  0  0
 18 99  1  0  0  0
 19 20  1  0  0  0
 19 24  1  0  0  0
 20 21  2  0  0  0
 20100  1  0  0  0
 21 23  1  0  0  0
 22 28  1  0  0  0
 22 32  2  0  0  0
 26 27  1  0  0  0
 28101  1  0  0  0
 28102  1  0  0  0
 29103  1  0  0  0
 29104  1  0  0  0
 33 34  1  0  0  0
 33 66  1  0  0  0
 33 70  2  0  0  0
 34 36  1  0  0  0
 34 59  1  0  0  0
 34105  1  0  0  0
 35 44  2  0  0  0
 35 45  1  0  0  0
 35 68  1  0  0  0
 36 56  1  0  0  0
 36106  1  0  0  0
 37 39  1  0  0  0
 37 47  1  0  0  0
 37 66  1  0  0  0
 37107  1  0  0  0
 38 43  2  0  0  0
 38 46  1  0  0  0
 38 47  1  0  0  0
 39 64  1  0  0  0
 39 67  2  0  0  0
 40 52  1  0  0  0
 40 53  2  0  0  0
 40 58  1  0  0  0
 41108  1  0  0  0
 41109  1  0  0  0
 41110  1  0  0  0
 41 48  1  0  0  0
 42 43  1  0  0  0
 42 66  1  0  0  0
 42111  1  0  0  0
 42112  1  0  0  0
 43 44  1  0  0  0
 44113  1  0  0  0
 45 46  2  0  0  0
 45114  1  0  0  0
 46115  1  0  0  0
 47116  1  0  0  0
 47117  1  0  0  0
 48 56  1  0  0  0
 48 65  1  0  0  0
 48118  1  0  0  0
 49 50  1  0  0  0
 49 53  1  0  0  0
 49 64  1  0  0  0
 49119  1  0  0  0
 50 51  1  0  0  0
 50120  1  0  0  0
 50121  1  0  0  0
 51 52  1  0  0  0
 51122  1  0  0  0
 51123  1  0  0  0
 52124  1  0  0  0
 52125  1  0  0  0
 53 54  1  0  0  0
 54 55  2  0  0  0
 54126  1  0  0  0
 55 57  1  0  0  0
 55127  1  0  0  0
 56 69  2  0  0  0
 57 58  2  0  0  0
 57128  1  0  0  0
 58129  1  0  0  0
 59 60  1  0  0  0
 59 61  1  0  0  0
 59 62  1  0  0  0
 60130  1  0  0  0
 60131  1  0  0  0
 60132  1  0  0  0
 61133  1  0  0  0
 61134  1  0  0  0
 61135  1  0  0  0
 62136  1  0  0  0
 62137  1  0  0  0
 62138  1  0  0  0
 63 65  1  0  0  0
 63139  1  0  0  0
 63140  1  0  0  0
 63141  1  0  0  0
 64142  1  0  0  0
 65143  1  0  0  0
 68 81  1  0  0  0
 71 72  2  0  0  0
 71 73  1  0  0  0
 71144  1  0  0  0
 72 75  1  0  0  0
 72145  1  0  0  0
 73 76  2  0  0  0
 73146  1  0  0  0
 74 75  2  0  0  0
 74 76  1  0  0  0
 74147  1  0  0  0
 75 80  1  0  0  0
 76 83  1  0  0  0
 77 80  1  0  0  0
 77 82  2  0  0  0
 77148  1  0  0  0
 78 81  1  0  0  0
 78 82  1  0  0  0
 78 84  2  0  0  0
 79149  1  0  0  0
 79150  1  0  0  0
 79151  1  0  0  0
 79 81  1  0  0  0
 80152  1  0  0  0
 80153  1  0  0  0
 81154  1  0  0  0
 83155  1  0  0  0
M  ISO  4   1 100  68 101  81 101  83 100
M  END
> <chiral flag>
0

> <version>
0

> <s_m_source_file>
/data/baiqing/PycharmProjects/Reinvent-master-3.2/result/LINK_invent/BTK/process_docking_weight1_custom_product_contain_oxygen_bond_distance_aromatic_linkinvent_7_9_3/rearranged_h_0172.sdf

> <i_m_source_file_index>
18

> <r_mmod_Potential_Energy-OPLS-2005>
68.9608459472656

> <r_mmod_Stretch_Energy-OPLS-2005>
51.6312294006348

> <r_mmod_Bend_Energy-OPLS-2005>
114.503059387207

> <r_mmod_Torsional_Energy-OPLS-2005>
266.124267578125

> <r_mmod_Improper_Torsional_Energy-OPLS-2005>
10.6088209152222

> <r_mmod_Van_der_Waal_Energy-OPLS-2005>
165.007934570312

> <r_mmod_Electrostatic_Energy-OPLS-2005>
-359.128753662109

> <r_mmod_Solvation_Energy-OPLS-2005>
-211.447494506836

> <b_mmod_Minimization_Converged-OPLS-2005>
0

> <r_mmod_RMS_Derivative-OPLS-2005>
10.5338878631592

$$$$
18
                    3D
 Structure written by MMmdl.
159167  0  0  1  0            999 V2000
  -30.7210  -14.5216   20.5516 C   0  0  0  0  0  0
  -30.4156  -12.3349   19.4334 C   0  0  0  0  0  0
  -29.4951  -12.5100   18.2102 C   0  0  0  0  0  0
  -28.0183  -12.3660   18.6258 C   0  0  0  0  0  0
  -27.6587  -13.2184   19.8732 C   0  0  2  0  0  0
  -28.7050  -13.0479   20.9991 C   0  0  0  0  0  0
  -25.2584  -13.8176   20.5692 C   0  0  0  0  0  0
  -24.1853  -13.0454   20.9192 C   0  0  0  0  0  0
  -24.6412  -11.6915   20.8729 C   0  0  0  0  0  0
  -23.9082  -10.4293   21.0402 C   0  0  0  0  0  0
  -24.3626   -9.4201   21.9177 C   0  0  0  0  0  0
  -23.6292   -8.2246   22.0758 C   0  0  0  0  0  0
  -22.4268   -8.0283   21.3569 C   0  0  0  0  0  0
  -21.9913   -9.0255   20.4664 C   0  0  0  0  0  0
  -22.7248  -10.2131   20.3060 C   0  0  0  0  0  0
  -21.6857   -6.0725   22.5271 C   0  0  0  0  0  0
  -21.4015   -6.5622   23.8208 C   0  0  0  0  0  0
  -21.3681   -5.6788   24.9182 C   0  0  0  0  0  0
  -21.6045   -4.3052   24.7229 C   0  0  0  0  0  0
  -21.8825   -3.8136   23.4357 C   0  0  0  0  0  0
  -21.9197   -4.6953   22.3403 C   0  0  0  0  0  0
  -22.7881  -13.5230   21.1866 C   0  0  0  0  0  0
  -22.1666   -4.2133   21.0985 F   0  0  0  0  0  0
  -21.5644   -3.4542   25.7746 F   0  0  0  0  0  0
  -30.0312  -13.3491   20.4326 N   0  0  0  0  0  0
  -26.3028  -12.9369   20.3371 N   0  0  0  0  0  0
  -25.9346  -11.6516   20.5758 N   0  0  0  0  0  0
  -22.0537  -12.8209   22.0408 N   0  0  0  0  0  0
  -25.4293  -15.1903   20.4116 N   0  0  0  0  0  0
  -31.8494  -14.6621   20.0724 O   0  0  0  0  0  0
  -21.6655   -6.8868   21.4229 O   0  0  0  0  0  0
  -22.3560  -14.5543   20.6730 O   0  0  0  0  0  0
  -24.6202  -31.8654   23.2057 C   0  0  0  0  0  0
  -25.9084  -32.4806   23.8357 C   0  0  1  0  0  0
  -27.2362  -27.3882   20.0841 C   0  0  0  0  0  0
  -25.5936  -33.8600   24.2295 N   0  0  0  0  0  0
  -23.4099  -30.4893   21.5483 C   0  0  2  0  0  0
  -24.8559  -28.9501   20.1157 C   0  0  0  0  0  0
  -22.7443  -29.4654   22.4968 C   0  0  0  0  0  0
  -18.0277  -28.1373   22.8473 C   0  0  0  0  0  0
  -24.1505  -36.7305   23.2633 C   0  0  0  0  0  0
  -25.9456  -30.8156   21.3657 C   0  0  0  0  0  0
  -26.0225  -29.4474   20.7075 C   0  0  0  0  0  0
  -27.2147  -28.6765   20.6834 C   0  0  0  0  0  0
  -26.0381  -26.9169   19.4945 C   0  0  0  0  0  0
  -24.8606  -27.6854   19.5081 C   0  0  0  0  0  0
  -23.6222  -29.8246   20.1635 C   0  0  0  0  0  0
  -25.4124  -36.3092   24.0324 C   0  0  1  0  0  0
  -20.5873  -28.3675   23.1300 C   0  0  2  0  0  0
  -20.6780  -26.9405   22.5419 C   0  0  0  0  0  0
  -19.5764  -26.6380   21.5216 C   0  0  0  0  0  0
  -18.1935  -26.7914   22.1610 C   0  0  0  0  0  0
  -19.1528  -28.8838   23.2882 C   0  0  0  0  0  0
  -18.9452  -30.1440   23.8897 C   0  0  0  0  0  0
  -17.6458  -30.6576   24.0564 C   0  0  0  0  0  0
  -25.9055  -34.9460   23.5106 C   0  0  0  0  0  0
  -16.5348  -29.9084   23.6320 C   0  0  0  0  0  0
  -16.7269  -28.6504   23.0332 C   0  0  0  0  0  0
  -26.4492  -31.6574   25.0686 C   0  0  0  0  0  0
  -25.3745  -31.3698   26.1424 C   0  0  0  0  0  0
  -27.0314  -30.3008   24.6070 C   0  0  0  0  0  0
  -27.6053  -32.4295   25.7464 C   0  0  0  0  0  0
  -27.5587  -37.1806   24.8455 C   0  0  0  0  0  0
  -21.4164  -29.3042   22.3710 N   0  0  0  0  0  0
  -26.4303  -37.3783   23.9396 N   0  0  0  0  0  0
  -24.6770  -31.0714   22.0982 N   0  0  0  0  0  0
  -23.4195  -28.8192   23.3017 O   0  0  0  0  0  0
  -28.4037  -26.6293   20.0887 O   0  0  0  0  0  0
  -26.5609  -34.8922   22.4661 O   0  0  0  0  0  0
  -23.5385  -32.1434   23.7425 O   0  0  0  0  0  0
  -31.1271  -19.7183   21.4427 C   0  0  0  0  0  0
  -29.6234  -17.9692   20.6729 C   0  0  0  0  0  0
  -29.9348  -19.3598   20.7800 C   0  0  0  0  0  0
  -31.6592  -17.3555   21.8841 C   0  0  0  0  0  0
  -31.9775  -18.7358   21.9793 C   0  0  0  0  0  0
  -30.4719  -16.9517   21.2007 C   0  0  0  0  0  0
  -29.0233  -20.4183   20.1921 C   0  0  0  0  0  0
  -29.1546  -21.9529   20.5522 C   0  0  0  0  0  0
  -32.6039  -16.3407   22.5233 C   0  0  0  0  0  0
  -28.3210  -25.2061   19.7859 C   0  0  0  0  0  0
  -29.6960  -24.4714   19.8459 C   0  0  1  0  0  0
  -29.7366  -22.9334   19.4966 C   0  0  0  0  0  0
  -33.1493  -19.1653   22.5984 N   0  0  0  0  0  0
  -30.0527  -15.5703   21.0944 N   0  0  0  0  0  0
  -28.0897  -20.0952   19.4486 O   0  0  0  0  0  0
  -28.8149  -22.3560   21.6728 O   0  0  0  0  0  0
  -30.4825  -25.0995   18.9636 F   0  0  0  0  0  0
  -31.0236  -22.6106   19.3431 F   0  0  0  0  0  0
  -29.1229  -22.7554   18.3248 F   0  0  0  0  0  0
  -31.4612  -12.4142   19.1306 H   0  0  0  0  0  0
  -30.3002  -11.3335   19.8507 H   0  0  0  0  0  0
  -29.7403  -11.7711   17.4458 H   0  0  0  0  0  0
  -29.6609  -13.4876   17.7514 H   0  0  0  0  0  0
  -27.8394  -11.3105   18.8363 H   0  0  0  0  0  0
  -27.3654  -12.6259   17.7909 H   0  0  0  0  0  0
  -27.6890  -14.2608   19.5551 H   0  0  0  0  0  0
  -28.6913  -12.0290   21.3889 H   0  0  0  0  0  0
  -28.4624  -13.6872   21.8500 H   0  0  0  0  0  0
  -25.2776   -9.5678   22.4742 H   0  0  0  0  0  0
  -24.0015   -7.4638   22.7464 H   0  0  0  0  0  0
  -21.0858   -8.8774   19.8948 H   0  0  0  0  0  0
  -22.3708  -10.9679   19.6170 H   0  0  0  0  0  0
  -21.1991   -7.6132   23.9702 H   0  0  0  0  0  0
  -21.1509   -6.0525   25.9080 H   0  0  0  0  0  0
  -22.0581   -2.7596   23.2866 H   0  0  0  0  0  0
  -22.4151  -11.9854   22.4763 H   0  0  0  0  0  0
  -21.1157  -13.1226   22.2642 H   0  0  0  0  0  0
  -24.6614  -15.8429   20.5180 H   0  0  0  0  0  0
  -26.2788  -15.6309   20.0818 H   0  0  0  0  0  0
  -26.7146  -32.5509   23.1105 H   0  0  0  0  0  0
  -25.0117  -33.9760   25.0460 H   0  0  0  0  0  0
  -22.7007  -31.3073   21.4079 H   0  0  0  0  0  0
  -23.3770  -35.9637   23.3296 H   0  0  0  0  0  0
  -24.3609  -36.8929   22.2050 H   0  0  0  0  0  0
  -23.7265  -37.6507   23.6655 H   0  0  0  0  0  0
  -26.0664  -31.5813   20.5982 H   0  0  0  0  0  0
  -26.8300  -30.8658   21.9889 H   0  0  0  0  0  0
  -28.1166  -29.0620   21.1386 H   0  0  0  0  0  0
  -25.9798  -25.9525   19.0138 H   0  0  0  0  0  0
  -23.9617  -27.2930   19.0520 H   0  0  0  0  0  0
  -23.7415  -30.6015   19.4076 H   0  0  0  0  0  0
  -22.7424  -29.2524   19.8620 H   0  0  0  0  0  0
  -25.1310  -36.1944   25.0819 H   0  0  0  0  0  0
  -20.9958  -28.3244   24.1427 H   0  0  0  0  0  0
  -20.5715  -26.2277   23.3610 H   0  0  0  0  0  0
  -21.6651  -26.7467   22.1203 H   0  0  0  0  0  0
  -19.6947  -25.6300   21.1239 H   0  0  0  0  0  0
  -19.6713  -27.3196   20.6752 H   0  0  0  0  0  0
  -17.4223  -26.6662   21.3999 H   0  0  0  0  0  0
  -18.0322  -26.0048   22.8997 H   0  0  0  0  0  0
  -19.7931  -30.7243   24.2281 H   0  0  0  0  0  0
  -17.5018  -31.6261   24.5162 H   0  0  0  0  0  0
  -15.5351  -30.2996   23.7636 H   0  0  0  0  0  0
  -15.8662  -28.0844   22.7024 H   0  0  0  0  0  0
  -24.5918  -30.7051   25.7755 H   0  0  0  0  0  0
  -24.8949  -32.2869   26.4846 H   0  0  0  0  0  0
  -25.8090  -30.8874   27.0191 H   0  0  0  0  0  0
  -26.2856  -29.6768   24.1137 H   0  0  0  0  0  0
  -27.4097  -29.7232   25.4514 H   0  0  0  0  0  0
  -27.8687  -30.4311   23.9211 H   0  0  0  0  0  0
  -27.2649  -33.3574   26.2070 H   0  0  0  0  0  0
  -28.3848  -32.6899   25.0292 H   0  0  0  0  0  0
  -28.0735  -31.8410   26.5361 H   0  0  0  0  0  0
  -28.2590  -38.0117   24.7519 H   0  0  0  0  0  0
  -28.1102  -36.2651   24.6266 H   0  0  0  0  0  0
  -27.2307  -37.1427   25.8857 H   0  0  0  0  0  0
  -20.9325  -29.8771   21.6932 H   0  0  0  0  0  0
  -26.0188  -38.2858   24.1408 H   0  0  0  0  0  0
  -31.4117  -20.7570   21.5411 H   0  0  0  0  0  0
  -28.7092  -17.6787   20.1713 H   0  0  0  0  0  0
  -33.0655  -16.7256   23.4315 H   0  0  0  0  0  0
  -33.4040  -16.0961   21.8247 H   0  0  0  0  0  0
  -32.0982  -15.4211   22.8100 H   0  0  0  0  0  0
  -27.6243  -24.7325   20.4798 H   0  0  0  0  0  0
  -27.9176  -25.0684   18.7812 H   0  0  0  0  0  0
  -30.1536  -24.6351   20.8221 H   0  0  0  0  0  0
  -33.4847  -20.1016   22.3935 H   0  0  0  0  0  0
  -33.9039  -18.4926   22.6863 H   0  0  0  0  0  0
  -29.0867  -15.3803   21.3133 H   0  0  0  0  0  0
  1 25  1  0  0  0
  1 30  2  0  0  0
  1 84  1  0  0  0
  2  3  1  0  0  0
  2 25  1  0  0  0
  2 90  1  0  0  0
  2 91  1  0  0  0
  3  4  1  0  0  0
  3 92  1  0  0  0
  3 93  1  0  0  0
  4  5  1  0  0  0
  4 94  1  0  0  0
  4 95  1  0  0  0
  5  6  1  0  0  0
  5 26  1  0  0  0
  5 96  1  0  0  0
  6 25  1  0  0  0
  6 97  1  0  0  0
  6 98  1  0  0  0
  7  8  2  0  0  0
  7 26  1  0  0  0
  7 29  1  0  0  0
  8  9  1  0  0  0
  8 22  1  0  0  0
  9 10  1  0  0  0
  9 27  2  0  0  0
 10 11  2  0  0  0
 10 15  1  0  0  0
 11 12  1  0  0  0
 11 99  1  0  0  0
 12 13  2  0  0  0
 12100  1  0  0  0
 13 14  1  0  0  0
 13 31  1  0  0  0
 14 15  2  0  0  0
 14101  1  0  0  0
 15102  1  0  0  0
 16 17  2  0  0  0
 16 21  1  0  0  0
 16 31  1  0  0  0
 17 18  1  0  0  0
 17103  1  0  0  0
 18 19  2  0  0  0
 18104  1  0  0  0
 19 20  1  0  0  0
 19 24  1  0  0  0
 20 21  2  0  0  0
 20105  1  0  0  0
 21 23  1  0  0  0
 22 28  1  0  0  0
 22 32  2  0  0  0
 26 27  1  0  0  0
 28106  1  0  0  0
 28107  1  0  0  0
 29108  1  0  0  0
 29109  1  0  0  0
 33 34  1  0  0  0
 33 66  1  0  0  0
 33 70  2  0  0  0
 34 36  1  0  0  0
 34 59  1  0  0  0
 34110  1  0  0  0
 35 44  2  0  0  0
 35 45  1  0  0  0
 35 68  1  0  0  0
 36 56  1  0  0  0
 36111  1  0  0  0
 37 39  1  0  0  0
 37 47  1  0  0  0
 37 66  1  0  0  0
 37112  1  0  0  0
 38 43  2  0  0  0
 38 46  1  0  0  0
 38 47  1  0  0  0
 39 64  1  0  0  0
 39 67  2  0  0  0
 40 52  1  0  0  0
 40 53  2  0  0  0
 40 58  1  0  0  0
 41113  1  0  0  0
 41114  1  0  0  0
 41115  1  0  0  0
 41 48  1  0  0  0
 42 43  1  0  0  0
 42 66  1  0  0  0
 42116  1  0  0  0
 42117  1  0  0  0
 43 44  1  0  0  0
 44118  1  0  0  0
 45 46  2  0  0  0
 45119  1  0  0  0
 46120  1  0  0  0
 47121  1  0  0  0
 47122  1  0  0  0
 48 56  1  0  0  0
 48 65  1  0  0  0
 48123  1  0  0  0
 49 50  1  0  0  0
 49 53  1  0  0  0
 49 64  1  0  0  0
 49124  1  0  0  0
 50 51  1  0  0  0
 50125  1  0  0  0
 50126  1  0  0  0
 51 52  1  0  0  0
 51127  1  0  0  0
 51128  1  0  0  0
 52129  1  0  0  0
 52130  1  0  0  0
 53 54  1  0  0  0
 54 55  2  0  0  0
 54131  1  0  0  0
 55 57  1  0  0  0
 55132  1  0  0  0
 56 69  2  0  0  0
 57 58  2  0  0  0
 57133  1  0  0  0
 58134  1  0  0  0
 59 60  1  0  0  0
 59 61  1  0  0  0
 59 62  1  0  0  0
 60135  1  0  0  0
 60136  1  0  0  0
 60137  1  0  0  0
 61138  1  0  0  0
 61139  1  0  0  0
 61140  1  0  0  0
 62141  1  0  0  0
 62142  1  0  0  0
 62143  1  0  0  0
 63 65  1  0  0  0
 63144  1  0  0  0
 63145  1  0  0  0
 63146  1  0  0  0
 64147  1  0  0  0
 65148  1  0  0  0
 68 80  1  0  0  0
 71 73  2  0  0  0
 71 75  1  0  0  0
 71149  1  0  0  0
 72 73  1  0  0  0
 72 76  2  0  0  0
 72150  1  0  0  0
 73 77  1  0  0  0
 74 75  2  0  0  0
 74 76  1  0  0  0
 74 79  1  0  0  0
 75 83  1  0  0  0
 76 84  1  0  0  0
 77 78  1  0  0  0
 77 85  2  0  0  0
 78 82  1  0  0  0
 78 86  2  0  0  0
 79151  1  0  0  0
 79152  1  0  0  0
 79153  1  0  0  0
 80 81  1  0  0  0
 80154  1  0  0  0
 80155  1  0  0  0
 81 82  1  0  0  0
 81 87  1  0  0  0
 81156  1  0  0  0
 82 88  1  0  0  0
 82 89  1  0  0  0
 83157  1  0  0  0
 83158  1  0  0  0
 84159  1  0  0  0
M  ISO  4   1 100  68 101  80 101  84 100
M  END
> <chiral flag>
0

> <version>
0

> <s_m_source_file>
/data/baiqing/PycharmProjects/Reinvent-master-3.2/result/LINK_invent/BTK/process_docking_weight1_custom_product_contain_oxygen_bond_distance_aromatic_linkinvent_7_9_3/rearranged_h_0172.sdf

> <i_m_source_file_index>
19

> <r_mmod_Potential_Energy-OPLS-2005>
17.2966575622559

> <r_mmod_Stretch_Energy-OPLS-2005>
57.7561683654785

> <r_mmod_Bend_Energy-OPLS-2005>
113.558120727539

> <r_mmod_Torsional_Energy-OPLS-2005>
223.096252441406

> <r_mmod_Improper_Torsional_Energy-OPLS-2005>
7.29011249542236

> <r_mmod_Van_der_Waal_Energy-OPLS-2005>
157.179183959961

> <r_mmod_Electrostatic_Energy-OPLS-2005>
-337.183868408203

> <r_mmod_Solvation_Energy-OPLS-2005>
-224.712326049805

> <b_mmod_Minimization_Converged-OPLS-2005>
0

> <r_mmod_RMS_Derivative-OPLS-2005>
2.81996941566467

$$$$
19
                    3D
 Structure written by MMmdl.
158166  0  0  1  0            999 V2000
  -30.6986  -14.4391   20.6396 C   0  0  0  0  0  0
  -30.4315  -12.3111   19.4006 C   0  0  0  0  0  0
  -29.4889  -12.5191   18.1984 C   0  0  0  0  0  0
  -28.0103  -12.3800   18.6140 C   0  0  0  0  0  0
  -27.6653  -13.2014   19.8824 C   0  0  2  0  0  0
  -28.7061  -12.9339   20.9906 C   0  0  0  0  0  0
  -25.2593  -13.8144   20.5657 C   0  0  0  0  0  0
  -24.1843  -13.0414   20.9137 C   0  0  0  0  0  0
  -24.6398  -11.6877   20.8711 C   0  0  0  0  0  0
  -23.9082  -10.4252   21.0397 C   0  0  0  0  0  0
  -24.3618   -9.4156   21.9182 C   0  0  0  0  0  0
  -23.6259   -8.2212   22.0767 C   0  0  0  0  0  0
  -22.4248   -8.0258   21.3548 C   0  0  0  0  0  0
  -21.9889   -9.0251   20.4664 C   0  0  0  0  0  0
  -22.7247  -10.2109   20.3052 C   0  0  0  0  0  0
  -21.6835   -6.0713   22.5271 C   0  0  0  0  0  0
  -21.4021   -6.5632   23.8203 C   0  0  0  0  0  0
  -21.3653   -5.6792   24.9172 C   0  0  0  0  0  0
  -21.6036   -4.3054   24.7229 C   0  0  0  0  0  0
  -21.8824   -3.8134   23.4359 C   0  0  0  0  0  0
  -21.9180   -4.6942   22.3403 C   0  0  0  0  0  0
  -22.7863  -13.5202   21.1783 C   0  0  0  0  0  0
  -22.1656   -4.2128   21.0981 F   0  0  0  0  0  0
  -21.5603   -3.4540   25.7749 F   0  0  0  0  0  0
  -30.0370  -13.2650   20.4469 N   0  0  0  0  0  0
  -26.3042  -12.9309   20.3394 N   0  0  0  0  0  0
  -25.9324  -11.6477   20.5771 N   0  0  0  0  0  0
  -22.0530  -12.8206   22.0368 N   0  0  0  0  0  0
  -25.4296  -15.1861   20.4047 N   0  0  0  0  0  0
  -31.7960  -14.6918   20.1312 O   0  0  0  0  0  0
  -21.6618   -6.8852   21.4229 O   0  0  0  0  0  0
  -22.3543  -14.5497   20.6612 O   0  0  0  0  0  0
  -24.6117  -31.8694   23.2093 C   0  0  0  0  0  0
  -25.9008  -32.4843   23.8400 C   0  0  1  0  0  0
  -27.2469  -27.4561   20.0962 C   0  0  0  0  0  0
  -25.5874  -33.8638   24.2351 N   0  0  0  0  0  0
  -23.4000  -30.4885   21.5505 C   0  0  2  0  0  0
  -24.8489  -28.9514   20.1199 C   0  0  0  0  0  0
  -22.7403  -29.4659   22.5021 C   0  0  0  0  0  0
  -18.0268  -28.1371   22.8504 C   0  0  0  0  0  0
  -24.1482  -36.7318   23.2636 C   0  0  0  0  0  0
  -25.9242  -30.8445   21.3535 C   0  0  0  0  0  0
  -26.0069  -29.4767   20.7071 C   0  0  0  0  0  0
  -27.2100  -28.7376   20.6869 C   0  0  0  0  0  0
  -26.0736  -26.9379   19.5059 C   0  0  0  0  0  0
  -24.8763  -27.6808   19.5160 C   0  0  0  0  0  0
  -23.6067  -29.8130   20.1682 C   0  0  0  0  0  0
  -25.4099  -36.3132   24.0353 C   0  0  1  0  0  0
  -20.5858  -28.3650   23.1338 C   0  0  2  0  0  0
  -20.6759  -26.9391   22.5424 C   0  0  0  0  0  0
  -19.5738  -26.6382   21.5219 C   0  0  0  0  0  0
  -18.1913  -26.7923   22.1630 C   0  0  0  0  0  0
  -19.1516  -28.8829   23.2921 C   0  0  0  0  0  0
  -18.9443  -30.1438   23.8926 C   0  0  0  0  0  0
  -17.6445  -30.6580   24.0561 C   0  0  0  0  0  0
  -25.9020  -34.9492   23.5152 C   0  0  0  0  0  0
  -16.5338  -29.9078   23.6319 C   0  0  0  0  0  0
  -16.7260  -28.6492   23.0349 C   0  0  0  0  0  0
  -26.4440  -31.6604   25.0706 C   0  0  0  0  0  0
  -25.3723  -31.3686   26.1466 C   0  0  0  0  0  0
  -27.0243  -30.3064   24.6012 C   0  0  0  0  0  0
  -27.6039  -32.4298   25.7458 C   0  0  0  0  0  0
  -27.5594  -37.1806   24.8464 C   0  0  0  0  0  0
  -21.4134  -29.3024   22.3756 N   0  0  0  0  0  0
  -26.4297  -37.3811   23.9420 N   0  0  0  0  0  0
  -24.6638  -31.0809   22.0979 N   0  0  0  0  0  0
  -23.4186  -28.8201   23.3055 O   0  0  0  0  0  0
  -28.4294  -26.7525   20.0780 O   0  0  0  0  0  0
  -26.5583  -34.8940   22.4713 O   0  0  0  0  0  0
  -23.5313  -32.1422   23.7504 O   0  0  0  0  0  0
  -30.8444  -16.4934   23.3182 C   0  0  0  0  0  0
  -31.2868  -18.8909   23.2892 C   0  0  0  0  0  0
  -30.4984  -17.7786   21.2630 C   0  0  0  0  0  0
  -31.2482  -17.6658   23.9881 C   0  0  0  0  0  0
  -30.4888  -16.5368   21.9518 C   0  0  0  0  0  0
  -30.9010  -18.9649   21.9306 C   0  0  0  0  0  0
  -29.6724  -22.2536   20.6096 C   0  0  0  0  0  0
  -28.7534  -24.3813   19.5030 C   0  0  0  0  0  0
  -28.5210  -22.8952   19.8180 C   0  0  0  0  0  0
  -29.7298  -20.7110   20.6394 C   0  0  0  0  0  0
  -28.3686  -25.4094   20.5806 C   0  0  0  0  0  0
  -31.5969  -17.6126   25.3409 N   0  0  0  0  0  0
  -30.0008  -15.3510   21.3417 N   0  0  0  0  0  0
  -30.9483  -20.2166   21.2874 N   0  0  0  0  0  0
  -30.5095  -22.9191   21.2340 O   0  0  0  0  0  0
  -29.1947  -24.7321   18.4019 O   0  0  0  0  0  0
  -31.4706  -12.4399   19.0945 H   0  0  0  0  0  0
  -30.3550  -11.2884   19.7713 H   0  0  0  0  0  0
  -29.7187  -11.8022   17.4096 H   0  0  0  0  0  0
  -29.6577  -13.5097   17.7722 H   0  0  0  0  0  0
  -27.8109  -11.3211   18.7924 H   0  0  0  0  0  0
  -27.3608  -12.6775   17.7902 H   0  0  0  0  0  0
  -27.7240  -14.2563   19.6116 H   0  0  0  0  0  0
  -28.6831  -11.8791   21.2712 H   0  0  0  0  0  0
  -28.4592  -13.4778   21.9031 H   0  0  0  0  0  0
  -25.2766   -9.5597   22.4767 H   0  0  0  0  0  0
  -23.9936   -7.4599   22.7500 H   0  0  0  0  0  0
  -21.0808   -8.8777   19.8991 H   0  0  0  0  0  0
  -22.3715  -10.9641   19.6149 H   0  0  0  0  0  0
  -21.2060   -7.6150   23.9696 H   0  0  0  0  0  0
  -21.1457   -6.0534   25.9067 H   0  0  0  0  0  0
  -22.0617   -2.7592   23.2872 H   0  0  0  0  0  0
  -22.4172  -11.9868   22.4733 H   0  0  0  0  0  0
  -21.1179  -13.1268   22.2652 H   0  0  0  0  0  0
  -24.6588  -15.8379   20.5093 H   0  0  0  0  0  0
  -26.2841  -15.6292   20.0906 H   0  0  0  0  0  0
  -26.7088  -32.5577   23.1182 H   0  0  0  0  0  0
  -25.0053  -33.9805   25.0518 H   0  0  0  0  0  0
  -22.6876  -31.3038   21.4097 H   0  0  0  0  0  0
  -23.3758  -35.9636   23.3289 H   0  0  0  0  0  0
  -24.3594  -36.8927   22.2053 H   0  0  0  0  0  0
  -23.7208  -37.6517   23.6636 H   0  0  0  0  0  0
  -26.0206  -31.6067   20.5787 H   0  0  0  0  0  0
  -26.8184  -30.9118   21.9614 H   0  0  0  0  0  0
  -28.1076  -29.1451   21.1305 H   0  0  0  0  0  0
  -26.0849  -25.9695   19.0267 H   0  0  0  0  0  0
  -23.9863  -27.2713   19.0574 H   0  0  0  0  0  0
  -23.7073  -30.5823   19.4018 H   0  0  0  0  0  0
  -22.7330  -29.2243   19.8820 H   0  0  0  0  0  0
  -25.1266  -36.2012   25.0848 H   0  0  0  0  0  0
  -20.9958  -28.3204   24.1456 H   0  0  0  0  0  0
  -20.5657  -26.2255   23.3598 H   0  0  0  0  0  0
  -21.6626  -26.7432   22.1214 H   0  0  0  0  0  0
  -19.6886  -25.6295   21.1230 H   0  0  0  0  0  0
  -19.6673  -27.3203   20.6754 H   0  0  0  0  0  0
  -17.4183  -26.6688   21.4024 H   0  0  0  0  0  0
  -18.0304  -26.0057   22.9018 H   0  0  0  0  0  0
  -19.7914  -30.7251   24.2308 H   0  0  0  0  0  0
  -17.4990  -31.6263   24.5150 H   0  0  0  0  0  0
  -15.5334  -30.2980   23.7620 H   0  0  0  0  0  0
  -15.8668  -28.0810   22.7052 H   0  0  0  0  0  0
  -24.5907  -30.7016   25.7807 H   0  0  0  0  0  0
  -24.8886  -32.2821   26.4936 H   0  0  0  0  0  0
  -25.8089  -30.8851   27.0213 H   0  0  0  0  0  0
  -26.2754  -29.6870   24.1059 H   0  0  0  0  0  0
  -27.4042  -29.7249   25.4420 H   0  0  0  0  0  0
  -27.8576  -30.4418   23.9114 H   0  0  0  0  0  0
  -27.2695  -33.3604   26.2060 H   0  0  0  0  0  0
  -28.3829  -32.6847   25.0258 H   0  0  0  0  0  0
  -28.0722  -31.8395   26.5345 H   0  0  0  0  0  0
  -28.2594  -38.0123   24.7558 H   0  0  0  0  0  0
  -28.1108  -36.2660   24.6224 H   0  0  0  0  0  0
  -27.2325  -37.1383   25.8869 H   0  0  0  0  0  0
  -20.9285  -29.8757   21.6996 H   0  0  0  0  0  0
  -26.0194  -38.2892   24.1434 H   0  0  0  0  0  0
  -30.8007  -15.5551   23.8543 H   0  0  0  0  0  0
  -31.5955  -19.7874   23.8082 H   0  0  0  0  0  0
  -30.1971  -17.8119   20.2250 H   0  0  0  0  0  0
  -27.5998  -22.7944   20.3904 H   0  0  0  0  0  0
  -28.3843  -22.3497   18.8855 H   0  0  0  0  0  0
  -29.6817  -20.3389   19.6153 H   0  0  0  0  0  0
  -28.8432  -20.3465   21.1612 H   0  0  0  0  0  0
  -29.0747  -25.3238   21.4066 H   0  0  0  0  0  0
  -27.3850  -25.1709   20.9859 H   0  0  0  0  0  0
  -31.2720  -16.8313   25.9044 H   0  0  0  0  0  0
  -31.6532  -18.4768   25.8745 H   0  0  0  0  0  0
  -29.1038  -15.0222   21.6677 H   0  0  0  0  0  0
  -31.3818  -20.9679   21.8235 H   0  0  0  0  0  0
  1 25  1  0  0  0
  1 30  2  0  0  0
  1 83  1  0  0  0
  2  3  1  0  0  0
  2 25  1  0  0  0
  2 87  1  0  0  0
  2 88  1  0  0  0
  3  4  1  0  0  0
  3 89  1  0  0  0
  3 90  1  0  0  0
  4  5  1  0  0  0
  4 91  1  0  0  0
  4 92  1  0  0  0
  5  6  1  0  0  0
  5 26  1  0  0  0
  5 93  1  0  0  0
  6 25  1  0  0  0
  6 94  1  0  0  0
  6 95  1  0  0  0
  7  8  2  0  0  0
  7 26  1  0  0  0
  7 29  1  0  0  0
  8  9  1  0  0  0
  8 22  1  0  0  0
  9 10  1  0  0  0
  9 27  2  0  0  0
 10 11  2  0  0  0
 10 15  1  0  0  0
 11 12  1  0  0  0
 11 96  1  0  0  0
 12 13  2  0  0  0
 12 97  1  0  0  0
 13 14  1  0  0  0
 13 31  1  0  0  0
 14 15  2  0  0  0
 14 98  1  0  0  0
 15 99  1  0  0  0
 16 17  2  0  0  0
 16 21  1  0  0  0
 16 31  1  0  0  0
 17 18  1  0  0  0
 17100  1  0  0  0
 18 19  2  0  0  0
 18101  1  0  0  0
 19 20  1  0  0  0
 19 24  1  0  0  0
 20 21  2  0  0  0
 20102  1  0  0  0
 21 23  1  0  0  0
 22 28  1  0  0  0
 22 32  2  0  0  0
 26 27  1  0  0  0
 28103  1  0  0  0
 28104  1  0  0  0
 29105  1  0  0  0
 29106  1  0  0  0
 33 34  1  0  0  0
 33 66  1  0  0  0
 33 70  2  0  0  0
 34 36  1  0  0  0
 34 59  1  0  0  0
 34107  1  0  0  0
 35 44  2  0  0  0
 35 45  1  0  0  0
 35 68  1  0  0  0
 36 56  1  0  0  0
 36108  1  0  0  0
 37 39  1  0  0  0
 37 47  1  0  0  0
 37 66  1  0  0  0
 37109  1  0  0  0
 38 43  2  0  0  0
 38 46  1  0  0  0
 38 47  1  0  0  0
 39 64  1  0  0  0
 39 67  2  0  0  0
 40 52  1  0  0  0
 40 53  2  0  0  0
 40 58  1  0  0  0
 41110  1  0  0  0
 41111  1  0  0  0
 41112  1  0  0  0
 41 48  1  0  0  0
 42 43  1  0  0  0
 42 66  1  0  0  0
 42113  1  0  0  0
 42114  1  0  0  0
 43 44  1  0  0  0
 44115  1  0  0  0
 45 46  2  0  0  0
 45116  1  0  0  0
 46117  1  0  0  0
 47118  1  0  0  0
 47119  1  0  0  0
 48 56  1  0  0  0
 48 65  1  0  0  0
 48120  1  0  0  0
 49 50  1  0  0  0
 49 53  1  0  0  0
 49 64  1  0  0  0
 49121  1  0  0  0
 50 51  1  0  0  0
 50122  1  0  0  0
 50123  1  0  0  0
 51 52  1  0  0  0
 51124  1  0  0  0
 51125  1  0  0  0
 52126  1  0  0  0
 52127  1  0  0  0
 53 54  1  0  0  0
 54 55  2  0  0  0
 54128  1  0  0  0
 55 57  1  0  0  0
 55129  1  0  0  0
 56 69  2  0  0  0
 57 58  2  0  0  0
 57130  1  0  0  0
 58131  1  0  0  0
 59 60  1  0  0  0
 59 61  1  0  0  0
 59 62  1  0  0  0
 60132  1  0  0  0
 60133  1  0  0  0
 60134  1  0  0  0
 61135  1  0  0  0
 61136  1  0  0  0
 61137  1  0  0  0
 62138  1  0  0  0
 62139  1  0  0  0
 62140  1  0  0  0
 63 65  1  0  0  0
 63141  1  0  0  0
 63142  1  0  0  0
 63143  1  0  0  0
 64144  1  0  0  0
 65145  1  0  0  0
 68 81  1  0  0  0
 71 74  2  0  0  0
 71 75  1  0  0  0
 71146  1  0  0  0
 72 74  1  0  0  0
 72 76  2  0  0  0
 72147  1  0  0  0
 73 75  2  0  0  0
 73 76  1  0  0  0
 73148  1  0  0  0
 74 82  1  0  0  0
 75 83  1  0  0  0
 76 84  1  0  0  0
 77 79  1  0  0  0
 77 80  1  0  0  0
 77 85  2  0  0  0
 78 79  1  0  0  0
 78 81  1  0  0  0
 78 86  2  0  0  0
 79149  1  0  0  0
 79150  1  0  0  0
 80 84  1  0  0  0
 80151  1  0  0  0
 80152  1  0  0  0
 81153  1  0  0  0
 81154  1  0  0  0
 82155  1  0  0  0
 82156  1  0  0  0
 83157  1  0  0  0
 84158  1  0  0  0
M  ISO  4   1 100  68 101  81 101  83 100
M  END
> <chiral flag>
0

> <version>
0

> <s_m_source_file>
/data/baiqing/PycharmProjects/Reinvent-master-3.2/result/LINK_invent/BTK/process_docking_weight1_custom_product_contain_oxygen_bond_distance_aromatic_linkinvent_7_9_3/rearranged_h_0172.sdf

> <i_m_source_file_index>
20

> <r_mmod_Potential_Energy-OPLS-2005>
-19.5205860137939

> <r_mmod_Stretch_Energy-OPLS-2005>
36.7792015075684

> <r_mmod_Bend_Energy-OPLS-2005>
97.2435836791992

> <r_mmod_Torsional_Energy-OPLS-2005>
260.664764404297

> <r_mmod_Improper_Torsional_Energy-OPLS-2005>
11.3623876571655

> <r_mmod_Van_der_Waal_Energy-OPLS-2005>
149.381332397461

> <r_mmod_Electrostatic_Energy-OPLS-2005>
-310.416870117188

> <r_mmod_Solvation_Energy-OPLS-2005>
-273.786926269531

> <b_mmod_Minimization_Converged-OPLS-2005>
0

> <r_mmod_RMS_Derivative-OPLS-2005>
2.19255661964417

$$$$
20
                    3D
 Structure written by MMmdl.
161169  0  0  1  0            999 V2000
  -30.6206  -14.7446   20.4379 C   0  0  0  0  0  0
  -30.4384  -12.4424   19.4827 C   0  0  0  0  0  0
  -29.5171  -12.4733   18.2411 C   0  0  0  0  0  0
  -28.0394  -12.3140   18.6476 C   0  0  0  0  0  0
  -27.6413  -13.2226   19.8415 C   0  0  2  0  0  0
  -28.6841  -13.1671   20.9834 C   0  0  0  0  0  0
  -25.2499  -13.8177   20.5631 C   0  0  0  0  0  0
  -24.1813  -13.0424   20.9208 C   0  0  0  0  0  0
  -24.6398  -11.6906   20.8753 C   0  0  0  0  0  0
  -23.9072  -10.4295   21.0447 C   0  0  0  0  0  0
  -24.3626   -9.4199   21.9206 C   0  0  0  0  0  0
  -23.6276   -8.2246   22.0767 C   0  0  0  0  0  0
  -22.4249   -8.0297   21.3579 C   0  0  0  0  0  0
  -21.9902   -9.0283   20.4692 C   0  0  0  0  0  0
  -22.7242  -10.2150   20.3107 C   0  0  0  0  0  0
  -21.6850   -6.0745   22.5294 C   0  0  0  0  0  0
  -21.4014   -6.5653   23.8230 C   0  0  0  0  0  0
  -21.3631   -5.6804   24.9189 C   0  0  0  0  0  0
  -21.6042   -4.3066   24.7248 C   0  0  0  0  0  0
  -21.8806   -3.8154   23.4361 C   0  0  0  0  0  0
  -21.9190   -4.6973   22.3414 C   0  0  0  0  0  0
  -22.7843  -13.5235   21.1848 C   0  0  0  0  0  0
  -22.1657   -4.2158   21.0998 F   0  0  0  0  0  0
  -21.5622   -3.4548   25.7753 F   0  0  0  0  0  0
  -29.9919  -13.5137   20.4055 N   0  0  0  0  0  0
  -26.2914  -12.9366   20.3183 N   0  0  0  0  0  0
  -25.9332  -11.6524   20.5741 N   0  0  0  0  0  0
  -22.0451  -12.8281   22.0401 N   0  0  0  0  0  0
  -25.4113  -15.1907   20.4028 N   0  0  0  0  0  0
  -31.8102  -14.8147   20.0838 O   0  0  0  0  0  0
  -21.6618   -6.8888   21.4254 O   0  0  0  0  0  0
  -22.3560  -14.5550   20.6673 O   0  0  0  0  0  0
  -24.6349  -31.8521   23.1976 C   0  0  0  0  0  0
  -25.9168  -32.4735   23.8326 C   0  0  1  0  0  0
  -27.2172  -27.2641   20.1365 C   0  0  0  0  0  0
  -25.5959  -33.8534   24.2250 N   0  0  0  0  0  0
  -23.4308  -30.4774   21.5397 C   0  0  2  0  0  0
  -24.8781  -28.9184   20.1141 C   0  0  0  0  0  0
  -22.7514  -29.4594   22.4874 C   0  0  0  0  0  0
  -18.0281  -28.1418   22.8466 C   0  0  0  0  0  0
  -24.1478  -36.7270   23.2633 C   0  0  0  0  0  0
  -25.9754  -30.7728   21.3691 C   0  0  0  0  0  0
  -26.0515  -29.3939   20.7145 C   0  0  0  0  0  0
  -27.2296  -28.5812   20.7066 C   0  0  0  0  0  0
  -26.0224  -26.8483   19.5162 C   0  0  0  0  0  0
  -24.8662  -27.6540   19.5039 C   0  0  0  0  0  0
  -23.6530  -29.8107   20.1570 C   0  0  0  0  0  0
  -25.4099  -36.3046   24.0330 C   0  0  1  0  0  0
  -20.5893  -28.3727   23.1245 C   0  0  2  0  0  0
  -20.6771  -26.9436   22.5396 C   0  0  0  0  0  0
  -19.5741  -26.6404   21.5196 C   0  0  0  0  0  0
  -18.1925  -26.7959   22.1612 C   0  0  0  0  0  0
  -19.1541  -28.8887   23.2853 C   0  0  0  0  0  0
  -18.9462  -30.1485   23.8879 C   0  0  0  0  0  0
  -17.6468  -30.6607   24.0570 C   0  0  0  0  0  0
  -25.9056  -34.9425   23.5095 C   0  0  0  0  0  0
  -16.5355  -29.9109   23.6343 C   0  0  0  0  0  0
  -16.7273  -28.6537   23.0337 C   0  0  0  0  0  0
  -26.4547  -31.6570   25.0715 C   0  0  0  0  0  0
  -25.3807  -31.3706   26.1468 C   0  0  0  0  0  0
  -27.0398  -30.2991   24.6191 C   0  0  0  0  0  0
  -27.6102  -32.4313   25.7491 C   0  0  0  0  0  0
  -27.5560  -37.1788   24.8470 C   0  0  0  0  0  0
  -21.4213  -29.3065   22.3624 N   0  0  0  0  0  0
  -26.4258  -37.3755   23.9426 N   0  0  0  0  0  0
  -24.7002  -31.0515   22.0935 N   0  0  0  0  0  0
  -23.4211  -28.8119   23.2961 O   0  0  0  0  0  0
  -28.3033  -26.3675   20.1419 O   0  0  0  0  0  0
  -26.5594  -34.8907   22.4641 O   0  0  0  0  0  0
  -23.5499  -32.1316   23.7297 O   0  0  0  0  0  0
  -30.6407  -19.9706   19.3619 C   0  0  0  0  0  0
  -29.2386  -18.4446   20.6048 C   0  0  0  0  0  0
  -29.4970  -19.8102   20.1643 C   0  0  0  0  0  0
  -31.4668  -18.8683   19.0486 C   0  0  0  0  0  0
  -30.1068  -17.3155   20.2932 C   0  0  0  0  0  0
  -30.2244  -22.5244   21.6472 C   0  0  0  0  0  0
  -28.5223  -23.6814   20.0499 C   0  0  0  0  0  0
  -30.1665  -23.0460   23.0789 C   0  0  0  0  0  0
  -32.6620  -18.9740   18.1181 C   0  0  0  0  0  0
  -28.0924  -25.0356   20.8004 C   0  0  0  0  0  0
  -28.8792  -22.3481   20.9099 C   0  0  2  0  0  0
  -31.1871  -17.6369   19.5339 N   0  3  0  0  0  0
  -33.1901  -20.3175   17.9846 N   0  0  0  0  0  0
  -28.6085  -20.9386   20.3714 N   0  0  0  0  0  0
  -29.8653  -15.8900   20.6758 N   0  0  0  0  0  0
  -31.3230  -22.2931   21.1380 O   0  0  0  0  0  0
  -28.5344  -23.6644   18.8150 O   0  0  0  0  0  0
  -31.4790  -12.5575   19.1758 H   0  0  0  0  0  0
  -30.3854  -11.4721   19.9774 H   0  0  0  0  0  0
  -29.7999  -11.6754   17.5509 H   0  0  0  0  0  0
  -29.6562  -13.4104   17.6998 H   0  0  0  0  0  0
  -27.8872  -11.2647   18.9078 H   0  0  0  0  0  0
  -27.3879  -12.5039   17.7929 H   0  0  0  0  0  0
  -27.6330  -14.2407   19.4524 H   0  0  0  0  0  0
  -28.7151  -12.1694   21.4274 H   0  0  0  0  0  0
  -28.4074  -13.8452   21.7917 H   0  0  0  0  0  0
  -25.2803   -9.5641   22.4753 H   0  0  0  0  0  0
  -23.9978   -7.4644   22.7499 H   0  0  0  0  0  0
  -21.0799   -8.8837   19.9044 H   0  0  0  0  0  0
  -22.3705  -10.9697   19.6227 H   0  0  0  0  0  0
  -21.2015   -7.6168   23.9735 H   0  0  0  0  0  0
  -21.1446   -6.0540   25.9091 H   0  0  0  0  0  0
  -22.0598   -2.7614   23.2879 H   0  0  0  0  0  0
  -22.4006  -11.9940   22.4832 H   0  0  0  0  0  0
  -21.1100  -13.1407   22.2602 H   0  0  0  0  0  0
  -24.6159  -15.8133   20.5082 H   0  0  0  0  0  0
  -26.1930  -15.6299   19.9336 H   0  0  0  0  0  0
  -26.7238  -32.5414   23.1070 H   0  0  0  0  0  0
  -25.0179  -33.9657   25.0451 H   0  0  0  0  0  0
  -22.7291  -31.3007   21.3898 H   0  0  0  0  0  0
  -23.3739  -35.9606   23.3286 H   0  0  0  0  0  0
  -24.3563  -36.8889   22.2046 H   0  0  0  0  0  0
  -23.7239  -37.6475   23.6659 H   0  0  0  0  0  0
  -26.1032  -31.5306   20.5959 H   0  0  0  0  0  0
  -26.8585  -30.8321   21.9945 H   0  0  0  0  0  0
  -28.1403  -28.9407   21.1664 H   0  0  0  0  0  0
  -25.9760  -25.8763   19.0468 H   0  0  0  0  0  0
  -23.9622  -27.2853   19.0381 H   0  0  0  0  0  0
  -23.7920  -30.5876   19.4045 H   0  0  0  0  0  0
  -22.7688  -29.2543   19.8408 H   0  0  0  0  0  0
  -25.1273  -36.1869   25.0818 H   0  0  0  0  0  0
  -20.9980  -28.3320   24.1366 H   0  0  0  0  0  0
  -20.5653  -26.2335   23.3608 H   0  0  0  0  0  0
  -21.6642  -26.7448   22.1192 H   0  0  0  0  0  0
  -19.6901  -25.6305   21.1238 H   0  0  0  0  0  0
  -19.6694  -27.3207   20.6718 H   0  0  0  0  0  0
  -17.4188  -26.6678   21.4034 H   0  0  0  0  0  0
  -18.0342  -26.0128   22.9030 H   0  0  0  0  0  0
  -19.7938  -30.7289   24.2262 H   0  0  0  0  0  0
  -17.5022  -31.6286   24.5167 H   0  0  0  0  0  0
  -15.5357  -30.2999   23.7702 H   0  0  0  0  0  0
  -15.8664  -28.0868   22.7046 H   0  0  0  0  0  0
  -24.5995  -30.7011   25.7827 H   0  0  0  0  0  0
  -24.9000  -32.2872   26.4908 H   0  0  0  0  0  0
  -25.8191  -30.8908   27.0234 H   0  0  0  0  0  0
  -26.2975  -29.6715   24.1240 H   0  0  0  0  0  0
  -27.4103  -29.7265   25.4701 H   0  0  0  0  0  0
  -27.8836  -30.4244   23.9400 H   0  0  0  0  0  0
  -27.2721  -33.3623   26.2050 H   0  0  0  0  0  0
  -28.3952  -32.6855   25.0355 H   0  0  0  0  0  0
  -28.0744  -31.8459   26.5440 H   0  0  0  0  0  0
  -28.2580  -38.0081   24.7506 H   0  0  0  0  0  0
  -28.1052  -36.2617   24.6302 H   0  0  0  0  0  0
  -27.2287  -37.1440   25.8874 H   0  0  0  0  0  0
  -20.9400  -29.8802   21.6838 H   0  0  0  0  0  0
  -26.0131  -38.2809   24.1487 H   0  0  0  0  0  0
  -30.8699  -20.9419   18.9480 H   0  0  0  0  0  0
  -28.3431  -18.2578   21.1758 H   0  0  0  0  0  0
  -29.1378  -23.1956   23.4025 H   0  0  0  0  0  0
  -30.6855  -23.9995   23.1608 H   0  0  0  0  0  0
  -30.6386  -22.3393   23.7599 H   0  0  0  0  0  0
  -32.3598  -18.6159   17.1320 H   0  0  0  0  0  0
  -33.4553  -18.3122   18.4681 H   0  0  0  0  0  0
  -27.0412  -24.9240   21.0617 H   0  0  0  0  0  0
  -28.6126  -25.0711   21.7572 H   0  0  0  0  0  0
  -28.1302  -22.3779   21.7021 H   0  0  0  0  0  0
  -31.8299  -16.8756   19.2816 H   0  0  0  0  0  0
  -33.2631  -20.5217   16.9908 H   0  0  0  0  0  0
  -34.1572  -20.2876   18.2888 H   0  0  0  0  0  0
  -27.6559  -20.6501   20.5612 H   0  0  0  0  0  0
  -28.9565  -15.7064   21.0650 H   0  0  0  0  0  0
  1 25  1  0  0  0
  1 30  2  0  0  0
  1 85  1  0  0  0
  2  3  1  0  0  0
  2 25  1  0  0  0
  2 88  1  0  0  0
  2 89  1  0  0  0
  3  4  1  0  0  0
  3 90  1  0  0  0
  3 91  1  0  0  0
  4  5  1  0  0  0
  4 92  1  0  0  0
  4 93  1  0  0  0
  5  6  1  0  0  0
  5 26  1  0  0  0
  5 94  1  0  0  0
  6 25  1  0  0  0
  6 95  1  0  0  0
  6 96  1  0  0  0
  7  8  2  0  0  0
  7 26  1  0  0  0
  7 29  1  0  0  0
  8  9  1  0  0  0
  8 22  1  0  0  0
  9 10  1  0  0  0
  9 27  2  0  0  0
 10 11  2  0  0  0
 10 15  1  0  0  0
 11 12  1  0  0  0
 11 97  1  0  0  0
 12 13  2  0  0  0
 12 98  1  0  0  0
 13 14  1  0  0  0
 13 31  1  0  0  0
 14 15  2  0  0  0
 14 99  1  0  0  0
 15100  1  0  0  0
 16 17  2  0  0  0
 16 21  1  0  0  0
 16 31  1  0  0  0
 17 18  1  0  0  0
 17101  1  0  0  0
 18 19  2  0  0  0
 18102  1  0  0  0
 19 20  1  0  0  0
 19 24  1  0  0  0
 20 21  2  0  0  0
 20103  1  0  0  0
 21 23  1  0  0  0
 22 28  1  0  0  0
 22 32  2  0  0  0
 26 27  1  0  0  0
 28104  1  0  0  0
 28105  1  0  0  0
 29106  1  0  0  0
 29107  1  0  0  0
 33 34  1  0  0  0
 33 66  1  0  0  0
 33 70  2  0  0  0
 34 36  1  0  0  0
 34 59  1  0  0  0
 34108  1  0  0  0
 35 44  2  0  0  0
 35 45  1  0  0  0
 35 68  1  0  0  0
 36 56  1  0  0  0
 36109  1  0  0  0
 37 39  1  0  0  0
 37 47  1  0  0  0
 37 66  1  0  0  0
 37110  1  0  0  0
 38 43  2  0  0  0
 38 46  1  0  0  0
 38 47  1  0  0  0
 39 64  1  0  0  0
 39 67  2  0  0  0
 40 52  1  0  0  0
 40 53  2  0  0  0
 40 58  1  0  0  0
 41111  1  0  0  0
 41112  1  0  0  0
 41113  1  0  0  0
 41 48  1  0  0  0
 42 43  1  0  0  0
 42 66  1  0  0  0
 42114  1  0  0  0
 42115  1  0  0  0
 43 44  1  0  0  0
 44116  1  0  0  0
 45 46  2  0  0  0
 45117  1  0  0  0
 46118  1  0  0  0
 47119  1  0  0  0
 47120  1  0  0  0
 48 56  1  0  0  0
 48 65  1  0  0  0
 48121  1  0  0  0
 49 50  1  0  0  0
 49 53  1  0  0  0
 49 64  1  0  0  0
 49122  1  0  0  0
 50 51  1  0  0  0
 50123  1  0  0  0
 50124  1  0  0  0
 51 52  1  0  0  0
 51125  1  0  0  0
 51126  1  0  0  0
 52127  1  0  0  0
 52128  1  0  0  0
 53 54  1  0  0  0
 54 55  2  0  0  0
 54129  1  0  0  0
 55 57  1  0  0  0
 55130  1  0  0  0
 56 69  2  0  0  0
 57 58  2  0  0  0
 57131  1  0  0  0
 58132  1  0  0  0
 59 60  1  0  0  0
 59 61  1  0  0  0
 59 62  1  0  0  0
 60133  1  0  0  0
 60134  1  0  0  0
 60135  1  0  0  0
 61136  1  0  0  0
 61137  1  0  0  0
 61138  1  0  0  0
 62139  1  0  0  0
 62140  1  0  0  0
 62141  1  0  0  0
 63 65  1  0  0  0
 63142  1  0  0  0
 63143  1  0  0  0
 63144  1  0  0  0
 64145  1  0  0  0
 65146  1  0  0  0
 68 80  1  0  0  0
 71 73  2  0  0  0
 71 74  1  0  0  0
 71147  1  0  0  0
 72 73  1  0  0  0
 72 75  2  0  0  0
 72148  1  0  0  0
 73 84  1  0  0  0
 74 79  1  0  0  0
 74 82  2  0  0  0
 75 82  1  0  0  0
 75 85  1  0  0  0
 76 78  1  0  0  0
 76 81  1  0  0  0
 76 86  2  0  0  0
 77 80  1  0  0  0
 77 81  1  0  0  0
 77 87  2  0  0  0
 78149  1  0  0  0
 78150  1  0  0  0
 78151  1  0  0  0
 79 83  1  0  0  0
 79152  1  0  0  0
 79153  1  0  0  0
 80154  1  0  0  0
 80155  1  0  0  0
 81 84  1  0  0  0
 81156  1  0  0  0
 82157  1  0  0  0
 83158  1  0  0  0
 83159  1  0  0  0
 84160  1  0  0  0
 85161  1  0  0  0
M  CHG  1  82   1
M  ISO  4   1 100  68 101  80 101  85 100
M  END
> <chiral flag>
0

> <version>
0

> <s_m_source_file>
/data/baiqing/PycharmProjects/Reinvent-master-3.2/result/LINK_invent/BTK/process_docking_weight1_custom_product_contain_oxygen_bond_distance_aromatic_linkinvent_7_9_3/rearranged_h_0172.sdf

> <i_m_source_file_index>
21

> <r_mmod_Potential_Energy-OPLS-2005>
22.8772106170654

> <r_mmod_Stretch_Energy-OPLS-2005>
128.482879638672

> <r_mmod_Bend_Energy-OPLS-2005>
186.921783447266

> <r_mmod_Torsional_Energy-OPLS-2005>
249.945510864258

> <r_mmod_Improper_Torsional_Energy-OPLS-2005>
7.91313600540161

> <r_mmod_Van_der_Waal_Energy-OPLS-2005>
134.867416381836

> <r_mmod_Electrostatic_Energy-OPLS-2005>
-278.151397705078

> <r_mmod_Solvation_Energy-OPLS-2005>
-490.805847167969

> <b_mmod_Minimization_Converged-OPLS-2005>
0

> <r_mmod_RMS_Derivative-OPLS-2005>
3.94491982460022

$$$$
21
                    3D
 Structure written by MMmdl.
157165  0  0  1  0            999 V2000
  -30.6006  -14.7330   20.4561 C   0  0  0  0  0  0
  -30.4334  -12.4461   19.4796 C   0  0  0  0  0  0
  -29.5129  -12.5129   18.2395 C   0  0  0  0  0  0
  -28.0347  -12.3527   18.6437 C   0  0  0  0  0  0
  -27.6477  -13.2324   19.8627 C   0  0  2  0  0  0
  -28.6898  -13.1385   20.9995 C   0  0  0  0  0  0
  -25.2541  -13.8203   20.5719 C   0  0  0  0  0  0
  -24.1823  -13.0454   20.9213 C   0  0  0  0  0  0
  -24.6397  -11.6927   20.8746 C   0  0  0  0  0  0
  -23.9068  -10.4307   21.0408 C   0  0  0  0  0  0
  -24.3619   -9.4227   21.9180 C   0  0  0  0  0  0
  -23.6303   -8.2257   22.0747 C   0  0  0  0  0  0
  -22.4282   -8.0287   21.3539 C   0  0  0  0  0  0
  -21.9913   -9.0264   20.4645 C   0  0  0  0  0  0
  -22.7239  -10.2147   20.3063 C   0  0  0  0  0  0
  -21.6857   -6.0736   22.5278 C   0  0  0  0  0  0
  -21.4013   -6.5638   23.8213 C   0  0  0  0  0  0
  -21.3664   -5.6786   24.9173 C   0  0  0  0  0  0
  -21.6049   -4.3050   24.7225 C   0  0  0  0  0  0
  -21.8823   -3.8146   23.4345 C   0  0  0  0  0  0
  -21.9199   -4.6962   22.3402 C   0  0  0  0  0  0
  -22.7845  -13.5243   21.1876 C   0  0  0  0  0  0
  -22.1662   -4.2146   21.0980 F   0  0  0  0  0  0
  -21.5638   -3.4536   25.7738 F   0  0  0  0  0  0
  -29.9955  -13.4956   20.4306 N   0  0  0  0  0  0
  -26.2963  -12.9407   20.3321 N   0  0  0  0  0  0
  -25.9335  -11.6548   20.5769 N   0  0  0  0  0  0
  -22.0479  -12.8236   22.0427 N   0  0  0  0  0  0
  -25.4295  -15.1919   20.4141 N   0  0  0  0  0  0
  -31.7654  -14.8524   20.0643 O   0  0  0  0  0  0
  -21.6645   -6.8879   21.4242 O   0  0  0  0  0  0
  -22.3540  -14.5546   20.6717 O   0  0  0  0  0  0
  -24.6313  -31.8543   23.1979 C   0  0  0  0  0  0
  -25.9137  -32.4749   23.8319 C   0  0  1  0  0  0
  -27.2252  -27.2648   20.1247 C   0  0  0  0  0  0
  -25.5921  -33.8551   24.2245 N   0  0  0  0  0  0
  -23.4276  -30.4761   21.5409 C   0  0  2  0  0  0
  -24.8735  -28.9184   20.1091 C   0  0  0  0  0  0
  -22.7490  -29.4610   22.4917 C   0  0  0  0  0  0
  -18.0299  -28.1376   22.8496 C   0  0  0  0  0  0
  -24.1482  -36.7276   23.2645 C   0  0  0  0  0  0
  -25.9718  -30.7678   21.3768 C   0  0  0  0  0  0
  -26.0433  -29.3909   20.7154 C   0  0  0  0  0  0
  -27.2185  -28.5754   20.7114 C   0  0  0  0  0  0
  -26.0267  -26.8491   19.5033 C   0  0  0  0  0  0
  -24.8697  -27.6551   19.4938 C   0  0  0  0  0  0
  -23.6440  -29.8061   20.1575 C   0  0  0  0  0  0
  -25.4112  -36.3068   24.0337 C   0  0  1  0  0  0
  -20.5894  -28.3690   23.1269 C   0  0  2  0  0  0
  -20.6783  -26.9409   22.5413 C   0  0  0  0  0  0
  -19.5755  -26.6369   21.5224 C   0  0  0  0  0  0
  -18.1934  -26.7927   22.1628 C   0  0  0  0  0  0
  -19.1548  -28.8852   23.2875 C   0  0  0  0  0  0
  -18.9462  -30.1448   23.8895 C   0  0  0  0  0  0
  -17.6462  -30.6584   24.0557 C   0  0  0  0  0  0
  -25.9049  -34.9447   23.5098 C   0  0  0  0  0  0
  -16.5356  -29.9075   23.6322 C   0  0  0  0  0  0
  -16.7286  -28.6482   23.0366 C   0  0  0  0  0  0
  -26.4505  -31.6596   25.0730 C   0  0  0  0  0  0
  -25.3727  -31.3753   26.1450 C   0  0  0  0  0  0
  -27.0366  -30.3010   24.6250 C   0  0  0  0  0  0
  -27.6035  -32.4369   25.7504 C   0  0  0  0  0  0
  -27.5577  -37.1793   24.8468 C   0  0  0  0  0  0
  -21.4205  -29.3042   22.3661 N   0  0  0  0  0  0
  -26.4287  -37.3771   23.9412 N   0  0  0  0  0  0
  -24.6961  -31.0506   22.0946 N   0  0  0  0  0  0
  -23.4184  -28.8157   23.3033 O   0  0  0  0  0  0
  -28.3474  -26.4117   20.2138 O   0  0  0  0  0  0
  -26.5628  -34.8927   22.4671 O   0  0  0  0  0  0
  -23.5466  -32.1355   23.7287 O   0  0  0  0  0  0
  -29.3657  -18.4450   20.6756 C   0  0  0  0  0  0
  -29.9016  -17.1775   18.6895 C   0  0  0  0  0  0
  -29.0764  -19.5102   18.4952 C   0  0  0  0  0  0
  -29.7389  -17.1647   20.0853 C   0  0  0  0  0  0
  -29.0634  -19.6749   19.9256 C   0  0  0  0  0  0
  -29.5780  -18.3094   17.9209 C   0  0  0  0  0  0
  -28.4072  -23.7463   20.5391 C   0  0  0  0  0  0
  -28.0468  -20.8236   21.8781 C   0  0  0  0  0  0
  -29.1091  -22.3571   20.0842 C   0  0  0  0  0  0
  -28.4370  -25.0432   19.5939 C   0  0  0  0  0  0
  -28.4842  -20.5325   17.5057 C   0  0  0  0  0  0
  -29.8479  -15.8538   20.7884 N   0  0  0  0  0  0
  -28.6943  -20.9505   20.5681 N   0  0  0  0  0  0
  -27.8615  -23.8333   21.6434 O   0  0  0  0  0  0
  -29.7188  -18.1939   16.5764 F   0  0  0  0  0  0
  -27.4821  -21.2468   18.0222 F   0  0  0  0  0  0
  -29.4349  -21.3569   17.0602 F   0  0  0  0  0  0
  -27.9485  -19.9306   16.4423 F   0  0  0  0  0  0
  -31.4745  -12.5695   19.1770 H   0  0  0  0  0  0
  -30.3770  -11.4623   19.9489 H   0  0  0  0  0  0
  -29.7887  -11.7346   17.5266 H   0  0  0  0  0  0
  -29.6532  -13.4649   17.7255 H   0  0  0  0  0  0
  -27.8680  -11.3012   18.8780 H   0  0  0  0  0  0
  -27.3863  -12.5796   17.7961 H   0  0  0  0  0  0
  -27.6528  -14.2624   19.5051 H   0  0  0  0  0  0
  -28.7202  -12.1307   21.4175 H   0  0  0  0  0  0
  -28.4248  -13.8010   21.8242 H   0  0  0  0  0  0
  -25.2757   -9.5718   22.4762 H   0  0  0  0  0  0
  -24.0026   -7.4645   22.7456 H   0  0  0  0  0  0
  -21.0846   -8.8781   19.8942 H   0  0  0  0  0  0
  -22.3683  -10.9694   19.6188 H   0  0  0  0  0  0
  -21.1997   -7.6143   23.9712 H   0  0  0  0  0  0
  -21.1483   -6.0514   25.9072 H   0  0  0  0  0  0
  -22.0599   -2.7610   23.2840 H   0  0  0  0  0  0
  -22.4064  -11.9898   22.4840 H   0  0  0  0  0  0
  -21.1100  -13.1283   22.2610 H   0  0  0  0  0  0
  -24.6741  -15.8567   20.5362 H   0  0  0  0  0  0
  -26.2847  -15.6206   20.0852 H   0  0  0  0  0  0
  -26.7214  -32.5399   23.1066 H   0  0  0  0  0  0
  -25.0078  -33.9678   25.0397 H   0  0  0  0  0  0
  -22.7258  -31.2996   21.3946 H   0  0  0  0  0  0
  -23.3760  -35.9590   23.3310 H   0  0  0  0  0  0
  -24.3562  -36.8885   22.2053 H   0  0  0  0  0  0
  -23.7215  -37.6471   23.6670 H   0  0  0  0  0  0
  -26.1195  -31.5326   20.6124 H   0  0  0  0  0  0
  -26.8464  -30.8078   22.0147 H   0  0  0  0  0  0
  -28.1173  -28.9323   21.1965 H   0  0  0  0  0  0
  -25.9396  -25.8738   19.0525 H   0  0  0  0  0  0
  -23.9706  -27.2813   19.0243 H   0  0  0  0  0  0
  -23.7678  -30.5808   19.3991 H   0  0  0  0  0  0
  -22.7615  -29.2384   19.8546 H   0  0  0  0  0  0
  -25.1298  -36.1918   25.0832 H   0  0  0  0  0  0
  -20.9995  -28.3279   24.1383 H   0  0  0  0  0  0
  -20.5666  -26.2313   23.3623 H   0  0  0  0  0  0
  -21.6651  -26.7430   22.1212 H   0  0  0  0  0  0
  -19.6903  -25.6271   21.1260 H   0  0  0  0  0  0
  -19.6685  -27.3174   20.6749 H   0  0  0  0  0  0
  -17.4210  -26.6700   21.4024 H   0  0  0  0  0  0
  -18.0312  -26.0067   22.9011 H   0  0  0  0  0  0
  -19.7936  -30.7261   24.2275 H   0  0  0  0  0  0
  -17.5017  -31.6267   24.5145 H   0  0  0  0  0  0
  -15.5350  -30.2974   23.7636 H   0  0  0  0  0  0
  -15.8691  -28.0781   22.7106 H   0  0  0  0  0  0
  -24.5893  -30.7118   25.7776 H   0  0  0  0  0  0
  -24.8944  -32.2934   26.4878 H   0  0  0  0  0  0
  -25.8035  -30.8917   27.0228 H   0  0  0  0  0  0
  -26.2965  -29.6743   24.1266 H   0  0  0  0  0  0
  -27.4018  -29.7293   25.4793 H   0  0  0  0  0  0
  -27.8856  -30.4274   23.9528 H   0  0  0  0  0  0
  -27.2613  -33.3673   26.2058 H   0  0  0  0  0  0
  -28.3851  -32.6938   25.0340 H   0  0  0  0  0  0
  -28.0720  -31.8536   26.5439 H   0  0  0  0  0  0
  -28.2605  -38.0082   24.7515 H   0  0  0  0  0  0
  -28.1063  -36.2615   24.6301 H   0  0  0  0  0  0
  -27.2300  -37.1449   25.8873 H   0  0  0  0  0  0
  -20.9396  -29.8748   21.6845 H   0  0  0  0  0  0
  -26.0173  -38.2846   24.1407 H   0  0  0  0  0  0
  -29.3094  -18.4681   21.7523 H   0  0  0  0  0  0
  -30.2082  -16.2863   18.1622 H   0  0  0  0  0  0
  -27.6490  -19.8285   22.0810 H   0  0  0  0  0  0
  -27.1786  -21.4781   21.9500 H   0  0  0  0  0  0
  -28.7371  -21.0851   22.6819 H   0  0  0  0  0  0
  -30.1550  -22.4705   20.3733 H   0  0  0  0  0  0
  -29.1434  -22.4028   19.0047 H   0  0  0  0  0  0
  -27.7109  -24.9139   18.7946 H   0  0  0  0  0  0
  -29.4025  -25.0173   19.0892 H   0  0  0  0  0  0
  -29.0723  -15.6475   21.4016 H   0  0  0  0  0  0
  1 25  1  0  0  0
  1 30  2  0  0  0
  1 82  1  0  0  0
  2  3  1  0  0  0
  2 25  1  0  0  0
  2 89  1  0  0  0
  2 90  1  0  0  0
  3  4  1  0  0  0
  3 91  1  0  0  0
  3 92  1  0  0  0
  4  5  1  0  0  0
  4 93  1  0  0  0
  4 94  1  0  0  0
  5  6  1  0  0  0
  5 26  1  0  0  0
  5 95  1  0  0  0
  6 25  1  0  0  0
  6 96  1  0  0  0
  6 97  1  0  0  0
  7  8  2  0  0  0
  7 26  1  0  0  0
  7 29  1  0  0  0
  8  9  1  0  0  0
  8 22  1  0  0  0
  9 10  1  0  0  0
  9 27  2  0  0  0
 10 11  2  0  0  0
 10 15  1  0  0  0
 11 12  1  0  0  0
 11 98  1  0  0  0
 12 13  2  0  0  0
 12 99  1  0  0  0
 13 14  1  0  0  0
 13 31  1  0  0  0
 14 15  2  0  0  0
 14100  1  0  0  0
 15101  1  0  0  0
 16 17  2  0  0  0
 16 21  1  0  0  0
 16 31  1  0  0  0
 17 18  1  0  0  0
 17102  1  0  0  0
 18 19  2  0  0  0
 18103  1  0  0  0
 19 20  1  0  0  0
 19 24  1  0  0  0
 20 21  2  0  0  0
 20104  1  0  0  0
 21 23  1  0  0  0
 22 28  1  0  0  0
 22 32  2  0  0  0
 26 27  1  0  0  0
 28105  1  0  0  0
 28106  1  0  0  0
 29107  1  0  0  0
 29108  1  0  0  0
 33 34  1  0  0  0
 33 66  1  0  0  0
 33 70  2  0  0  0
 34 36  1  0  0  0
 34 59  1  0  0  0
 34109  1  0  0  0
 35 44  2  0  0  0
 35 45  1  0  0  0
 35 68  1  0  0  0
 36 56  1  0  0  0
 36110  1  0  0  0
 37 39  1  0  0  0
 37 47  1  0  0  0
 37 66  1  0  0  0
 37111  1  0  0  0
 38 43  2  0  0  0
 38 46  1  0  0  0
 38 47  1  0  0  0
 39 64  1  0  0  0
 39 67  2  0  0  0
 40 52  1  0  0  0
 40 53  2  0  0  0
 40 58  1  0  0  0
 41112  1  0  0  0
 41113  1  0  0  0
 41114  1  0  0  0
 41 48  1  0  0  0
 42 43  1  0  0  0
 42 66  1  0  0  0
 42115  1  0  0  0
 42116  1  0  0  0
 43 44  1  0  0  0
 44117  1  0  0  0
 45 46  2  0  0  0
 45118  1  0  0  0
 46119  1  0  0  0
 47120  1  0  0  0
 47121  1  0  0  0
 48 56  1  0  0  0
 48 65  1  0  0  0
 48122  1  0  0  0
 49 50  1  0  0  0
 49 53  1  0  0  0
 49 64  1  0  0  0
 49123  1  0  0  0
 50 51  1  0  0  0
 50124  1  0  0  0
 50125  1  0  0  0
 51 52  1  0  0  0
 51126  1  0  0  0
 51127  1  0  0  0
 52128  1  0  0  0
 52129  1  0  0  0
 53 54  1  0  0  0
 54 55  2  0  0  0
 54130  1  0  0  0
 55 57  1  0  0  0
 55131  1  0  0  0
 56 69  2  0  0  0
 57 58  2  0  0  0
 57132  1  0  0  0
 58133  1  0  0  0
 59 60  1  0  0  0
 59 61  1  0  0  0
 59 62  1  0  0  0
 60134  1  0  0  0
 60135  1  0  0  0
 60136  1  0  0  0
 61137  1  0  0  0
 61138  1  0  0  0
 61139  1  0  0  0
 62140  1  0  0  0
 62141  1  0  0  0
 62142  1  0  0  0
 63 65  1  0  0  0
 63143  1  0  0  0
 63144  1  0  0  0
 63145  1  0  0  0
 64146  1  0  0  0
 65147  1  0  0  0
 68 80  1  0  0  0
 71 74  2  0  0  0
 71 75  1  0  0  0
 71148  1  0  0  0
 72 74  1  0  0  0
 72 76  2  0  0  0
 72149  1  0  0  0
 73 75  2  0  0  0
 73 76  1  0  0  0
 73 81  1  0  0  0
 74 82  1  0  0  0
 75 83  1  0  0  0
 76 85  1  0  0  0
 77 79  1  0  0  0
 77 80  1  0  0  0
 77 84  2  0  0  0
 78 83  1  0  0  0
 78150  1  0  0  0
 78151  1  0  0  0
 78152  1  0  0  0
 79 83  1  0  0  0
 79153  1  0  0  0
 79154  1  0  0  0
 80155  1  0  0  0
 80156  1  0  0  0
 81 86  1  0  0  0
 81 87  1  0  0  0
 81 88  1  0  0  0
 82157  1  0  0  0
M  ISO  4   1 100  68 101  80 101  82 100
M  END
> <chiral flag>
0

> <version>
0

> <s_m_source_file>
/data/baiqing/PycharmProjects/Reinvent-master-3.2/result/LINK_invent/BTK/process_docking_weight1_custom_product_contain_oxygen_bond_distance_aromatic_linkinvent_7_9_3/rearranged_h_0172.sdf

> <i_m_source_file_index>
22

> <r_mmod_Potential_Energy-OPLS-2005>
436.542755126953

> <r_mmod_Stretch_Energy-OPLS-2005>
146.036041259766

> <r_mmod_Bend_Energy-OPLS-2005>
197.167572021484

> <r_mmod_Torsional_Energy-OPLS-2005>
241.158584594727

> <r_mmod_Improper_Torsional_Energy-OPLS-2005>
5.44379138946533

> <r_mmod_Van_der_Waal_Energy-OPLS-2005>
154.174789428711

> <r_mmod_Electrostatic_Energy-OPLS-2005>
-145.727279663086

> <r_mmod_Solvation_Energy-OPLS-2005>
-240.504287719727

> <b_mmod_Minimization_Converged-OPLS-2005>
0

> <r_mmod_RMS_Derivative-OPLS-2005>
2.02673959732056

$$$$
22
                    3D
 Structure written by MMmdl.
171179  0  0  1  0            999 V2000
  -30.6614  -14.5394   20.5222 C   0  0  0  0  0  0
  -30.4261  -12.3370   19.4344 C   0  0  0  0  0  0
  -29.5015  -12.5026   18.2102 C   0  0  0  0  0  0
  -28.0190  -12.3633   18.6164 C   0  0  0  0  0  0
  -27.6527  -13.2118   19.8641 C   0  0  2  0  0  0
  -28.6941  -13.0298   20.9898 C   0  0  0  0  0  0
  -25.2557  -13.8172   20.5713 C   0  0  0  0  0  0
  -24.1809  -13.0453   20.9219 C   0  0  0  0  0  0
  -24.6354  -11.6916   20.8736 C   0  0  0  0  0  0
  -23.9026  -10.4297   21.0392 C   0  0  0  0  0  0
  -24.3574   -9.4221   21.9178 C   0  0  0  0  0  0
  -23.6269   -8.2250   22.0746 C   0  0  0  0  0  0
  -22.4262   -8.0269   21.3532 C   0  0  0  0  0  0
  -21.9884   -9.0251   20.4651 C   0  0  0  0  0  0
  -22.7191  -10.2143   20.3053 C   0  0  0  0  0  0
  -21.6852   -6.0714   22.5265 C   0  0  0  0  0  0
  -21.4013   -6.5614   23.8198 C   0  0  0  0  0  0
  -21.3674   -5.6775   24.9165 C   0  0  0  0  0  0
  -21.6052   -4.3038   24.7222 C   0  0  0  0  0  0
  -21.8817   -3.8122   23.4338 C   0  0  0  0  0  0
  -21.9199   -4.6943   22.3391 C   0  0  0  0  0  0
  -22.7833  -13.5276   21.1865 C   0  0  0  0  0  0
  -22.1664   -4.2122   21.0972 F   0  0  0  0  0  0
  -21.5639   -3.4524   25.7741 F   0  0  0  0  0  0
  -30.0158  -13.3439   20.4257 N   0  0  0  0  0  0
  -26.2974  -12.9347   20.3324 N   0  0  0  0  0  0
  -25.9281  -11.6503   20.5742 N   0  0  0  0  0  0
  -22.0432  -12.8302   22.0410 N   0  0  0  0  0  0
  -25.4290  -15.1883   20.4091 N   0  0  0  0  0  0
  -31.8305  -14.6802   20.1512 O   0  0  0  0  0  0
  -21.6627   -6.8862   21.4233 O   0  0  0  0  0  0
  -22.3545  -14.5580   20.6683 O   0  0  0  0  0  0
  -24.6176  -31.8673   23.2080 C   0  0  0  0  0  0
  -25.9070  -32.4817   23.8377 C   0  0  1  0  0  0
  -27.2288  -27.3894   20.1010 C   0  0  0  0  0  0
  -25.5932  -33.8615   24.2329 N   0  0  0  0  0  0
  -23.4071  -30.4923   21.5483 C   0  0  2  0  0  0
  -24.8529  -28.9522   20.1098 C   0  0  0  0  0  0
  -22.7425  -29.4666   22.4941 C   0  0  0  0  0  0
  -18.0312  -28.1368   22.8486 C   0  0  0  0  0  0
  -24.1494  -36.7291   23.2632 C   0  0  0  0  0  0
  -25.9394  -30.8168   21.3708 C   0  0  0  0  0  0
  -26.0132  -29.4478   20.7172 C   0  0  0  0  0  0
  -27.2004  -28.6734   20.7066 C   0  0  0  0  0  0
  -26.0540  -26.9306   19.4681 C   0  0  0  0  0  0
  -24.8721  -27.6972   19.4794 C   0  0  0  0  0  0
  -23.6152  -29.8220   20.1635 C   0  0  0  0  0  0
  -25.4114  -36.3102   24.0334 C   0  0  1  0  0  0
  -20.5897  -28.3715   23.1306 C   0  0  2  0  0  0
  -20.6807  -26.9410   22.5484 C   0  0  0  0  0  0
  -19.5802  -26.6315   21.5291 C   0  0  0  0  0  0
  -18.1963  -26.7891   22.1673 C   0  0  0  0  0  0
  -19.1542  -28.8869   23.2873 C   0  0  0  0  0  0
  -18.9444  -30.1460   23.8884 C   0  0  0  0  0  0
  -17.6436  -30.6587   24.0559 C   0  0  0  0  0  0
  -25.9044  -34.9474   23.5132 C   0  0  0  0  0  0
  -16.5342  -29.9067   23.6300 C   0  0  0  0  0  0
  -16.7295  -28.6485   23.0331 C   0  0  0  0  0  0
  -26.4507  -31.6590   25.0710 C   0  0  0  0  0  0
  -25.3746  -31.3689   26.1431 C   0  0  0  0  0  0
  -27.0350  -30.3039   24.6100 C   0  0  0  0  0  0
  -27.6099  -32.4301   25.7450 C   0  0  0  0  0  0
  -27.5579  -37.1785   24.8461 C   0  0  0  0  0  0
  -21.4152  -29.3049   22.3671 N   0  0  0  0  0  0
  -26.4296  -37.3789   23.9407 N   0  0  0  0  0  0
  -24.6729  -31.0731   22.1006 N   0  0  0  0  0  0
  -23.4193  -28.8229   23.3013 O   0  0  0  0  0  0
  -28.3991  -26.6415   20.1445 O   0  0  0  0  0  0
  -26.5589  -34.8927   22.4679 O   0  0  0  0  0  0
  -23.5361  -32.1408   23.7477 O   0  0  0  0  0  0
  -29.2708  -18.0322   20.6029 C   0  0  0  0  0  0
  -31.4943  -17.4148   21.3642 C   0  0  0  0  0  0
  -30.8838  -19.7726   21.1564 C   0  0  0  0  0  0
  -30.2181  -17.0084   20.9114 C   0  0  0  0  0  0
  -29.5893  -19.4218   20.7060 C   0  0  0  0  0  0
  -31.8289  -18.7783   21.5058 C   0  0  0  0  0  0
  -32.7418  -18.8648   24.4856 C   0  0  0  0  0  0
  -28.7129  -22.8779   21.1398 C   0  0  0  0  0  0
  -32.8735  -19.3927   25.9084 C   0  0  0  0  0  0
  -26.3975  -23.8752   20.7546 C   0  0  0  0  0  0
  -28.9181  -21.8233   20.0150 C   0  0  0  0  0  0
  -28.4369  -25.2098   19.8464 C   0  0  0  0  0  0
  -33.2697  -19.7317   23.3047 C   0  0  2  0  0  0
  -27.8900  -24.2091   20.9383 C   0  0  2  0  0  0
  -32.8119  -21.2176   23.3815 C   0  0  0  0  0  0
  -29.8704  -15.6057   20.8217 N   0  0  0  0  0  0
  -28.6217  -20.4089   20.3768 N   0  0  0  0  0  0
  -33.1158  -19.0925   21.9797 N   0  0  0  0  0  0
  -32.2602  -17.7378   24.3344 O   0  0  0  0  0  0
  -29.1745  -22.6390   22.2625 O   0  0  0  0  0  0
  -27.9858  -24.8809   22.1879 O   0  0  0  0  0  0
  -33.1000  -21.8613   22.2471 F   0  0  0  0  0  0
  -31.5061  -21.3171   23.6249 F   0  0  0  0  0  0
  -33.4558  -21.8480   24.3641 F   0  0  0  0  0  0
  -31.4707  -12.4443   19.1368 H   0  0  0  0  0  0
  -30.3366  -11.3362   19.8585 H   0  0  0  0  0  0
  -29.7511  -11.7622   17.4491 H   0  0  0  0  0  0
  -29.6670  -13.4788   17.7506 H   0  0  0  0  0  0
  -27.8253  -11.3104   18.8167 H   0  0  0  0  0  0
  -27.3753  -12.6360   17.7793 H   0  0  0  0  0  0
  -27.6856  -14.2535   19.5473 H   0  0  0  0  0  0
  -28.6808  -12.0038   21.3626 H   0  0  0  0  0  0
  -28.4562  -13.6602   21.8482 H   0  0  0  0  0  0
  -25.2697   -9.5721   22.4774 H   0  0  0  0  0  0
  -23.9984   -7.4630   22.7447 H   0  0  0  0  0  0
  -21.0815   -8.8749   19.8947 H   0  0  0  0  0  0
  -22.3612  -10.9681   19.6170 H   0  0  0  0  0  0
  -21.1989   -7.6114   23.9703 H   0  0  0  0  0  0
  -21.1510   -6.0492   25.9072 H   0  0  0  0  0  0
  -22.0589   -2.7581   23.2840 H   0  0  0  0  0  0
  -22.3997  -11.9988   22.4877 H   0  0  0  0  0  0
  -21.1039  -13.1360   22.2533 H   0  0  0  0  0  0
  -24.6567  -15.8420   20.4896 H   0  0  0  0  0  0
  -26.2665  -15.6132   20.0366 H   0  0  0  0  0  0
  -26.7145  -32.5540   23.1132 H   0  0  0  0  0  0
  -25.0152  -33.9780   25.0533 H   0  0  0  0  0  0
  -22.6971  -31.3098   21.4093 H   0  0  0  0  0  0
  -23.3766  -35.9612   23.3301 H   0  0  0  0  0  0
  -24.3574  -36.8901   22.2040 H   0  0  0  0  0  0
  -23.7228  -37.6491   23.6638 H   0  0  0  0  0  0
  -26.0546  -31.5782   20.5986 H   0  0  0  0  0  0
  -26.8263  -30.8744   21.9889 H   0  0  0  0  0  0
  -28.0986  -29.0502   21.1786 H   0  0  0  0  0  0
  -26.0252  -25.9820   18.9579 H   0  0  0  0  0  0
  -23.9869  -27.3142   18.9914 H   0  0  0  0  0  0
  -23.7211  -30.5951   19.4020 H   0  0  0  0  0  0
  -22.7395  -29.2407   19.8702 H   0  0  0  0  0  0
  -25.1287  -36.1978   25.0826 H   0  0  0  0  0  0
  -20.9984  -28.3378   24.1423 H   0  0  0  0  0  0
  -20.5662  -26.2350   23.3703 H   0  0  0  0  0  0
  -21.6689  -26.7361   22.1340 H   0  0  0  0  0  0
  -19.6956  -25.6186   21.1419 H   0  0  0  0  0  0
  -19.6781  -27.3065   20.6779 H   0  0  0  0  0  0
  -17.4217  -26.6571   21.4097 H   0  0  0  0  0  0
  -18.0379  -26.0061   22.9095 H   0  0  0  0  0  0
  -19.7919  -30.7294   24.2232 H   0  0  0  0  0  0
  -17.4961  -31.6245   24.5171 H   0  0  0  0  0  0
  -15.5338  -30.2940   23.7576 H   0  0  0  0  0  0
  -15.8699  -28.0784   22.7059 H   0  0  0  0  0  0
  -24.5934  -30.7057   25.7705 H   0  0  0  0  0  0
  -24.8918  -32.2844   26.4863 H   0  0  0  0  0  0
  -25.8045  -30.8823   27.0197 H   0  0  0  0  0  0
  -26.2900  -29.6768   24.1184 H   0  0  0  0  0  0
  -27.4169  -29.7313   25.4561 H   0  0  0  0  0  0
  -27.8722  -30.4370   23.9236 H   0  0  0  0  0  0
  -27.2765  -33.3612   26.2049 H   0  0  0  0  0  0
  -28.3872  -32.6838   25.0225 H   0  0  0  0  0  0
  -28.0820  -31.8406   26.5321 H   0  0  0  0  0  0
  -28.2594  -38.0088   24.7520 H   0  0  0  0  0  0
  -28.1074  -36.2607   24.6281 H   0  0  0  0  0  0
  -27.2283  -37.1446   25.8864 H   0  0  0  0  0  0
  -20.9256  -29.8775   21.6914 H   0  0  0  0  0  0
  -26.0188  -38.2866   24.1430 H   0  0  0  0  0  0
  -28.2863  -17.7429   20.2627 H   0  0  0  0  0  0
  -32.2219  -16.6658   21.6422 H   0  0  0  0  0  0
  -31.1486  -20.8132   21.2404 H   0  0  0  0  0  0
  -33.7043  -20.0897   25.9980 H   0  0  0  0  0  0
  -33.0553  -18.5663   26.5952 H   0  0  0  0  0  0
  -31.9554  -19.8967   26.2101 H   0  0  0  0  0  0
  -26.1870  -23.5797   19.7282 H   0  0  0  0  0  0
  -25.7479  -24.7184   20.9957 H   0  0  0  0  0  0
  -26.0909  -23.0469   21.3961 H   0  0  0  0  0  0
  -29.9401  -21.9104   19.6454 H   0  0  0  0  0  0
  -28.2807  -22.1028   19.1754 H   0  0  0  0  0  0
  -27.9807  -25.0082   18.8775 H   0  0  0  0  0  0
  -29.4936  -24.9853   19.6916 H   0  0  0  0  0  0
  -34.3524  -19.7632   23.4280 H   0  0  0  0  0  0
  -28.8933  -15.3783   20.9222 H   0  0  0  0  0  0
  -27.6611  -20.1122   20.2190 H   0  0  0  0  0  0
  -33.7469  -18.3011   21.9175 H   0  0  0  0  0  0
  -28.4379  -24.2411   22.7401 H   0  0  0  0  0  0
  1 25  1  0  0  0
  1 30  2  0  0  0
  1 86  1  0  0  0
  2  3  1  0  0  0
  2 25  1  0  0  0
  2 95  1  0  0  0
  2 96  1  0  0  0
  3  4  1  0  0  0
  3 97  1  0  0  0
  3 98  1  0  0  0
  4  5  1  0  0  0
  4 99  1  0  0  0
  4100  1  0  0  0
  5  6  1  0  0  0
  5 26  1  0  0  0
  5101  1  0  0  0
  6 25  1  0  0  0
  6102  1  0  0  0
  6103  1  0  0  0
  7  8  2  0  0  0
  7 26  1  0  0  0
  7 29  1  0  0  0
  8  9  1  0  0  0
  8 22  1  0  0  0
  9 10  1  0  0  0
  9 27  2  0  0  0
 10 11  2  0  0  0
 10 15  1  0  0  0
 11 12  1  0  0  0
 11104  1  0  0  0
 12 13  2  0  0  0
 12105  1  0  0  0
 13 14  1  0  0  0
 13 31  1  0  0  0
 14 15  2  0  0  0
 14106  1  0  0  0
 15107  1  0  0  0
 16 17  2  0  0  0
 16 21  1  0  0  0
 16 31  1  0  0  0
 17 18  1  0  0  0
 17108  1  0  0  0
 18 19  2  0  0  0
 18109  1  0  0  0
 19 20  1  0  0  0
 19 24  1  0  0  0
 20 21  2  0  0  0
 20110  1  0  0  0
 21 23  1  0  0  0
 22 28  1  0  0  0
 22 32  2  0  0  0
 26 27  1  0  0  0
 28111  1  0  0  0
 28112  1  0  0  0
 29113  1  0  0  0
 29114  1  0  0  0
 33 34  1  0  0  0
 33 66  1  0  0  0
 33 70  2  0  0  0
 34 36  1  0  0  0
 34 59  1  0  0  0
 34115  1  0  0  0
 35 44  2  0  0  0
 35 45  1  0  0  0
 35 68  1  0  0  0
 36 56  1  0  0  0
 36116  1  0  0  0
 37 39  1  0  0  0
 37 47  1  0  0  0
 37 66  1  0  0  0
 37117  1  0  0  0
 38 43  2  0  0  0
 38 46  1  0  0  0
 38 47  1  0  0  0
 39 64  1  0  0  0
 39 67  2  0  0  0
 40 52  1  0  0  0
 40 53  2  0  0  0
 40 58  1  0  0  0
 41118  1  0  0  0
 41119  1  0  0  0
 41120  1  0  0  0
 41 48  1  0  0  0
 42 43  1  0  0  0
 42 66  1  0  0  0
 42121  1  0  0  0
 42122  1  0  0  0
 43 44  1  0  0  0
 44123  1  0  0  0
 45 46  2  0  0  0
 45124  1  0  0  0
 46125  1  0  0  0
 47126  1  0  0  0
 47127  1  0  0  0
 48 56  1  0  0  0
 48 65  1  0  0  0
 48128  1  0  0  0
 49 50  1  0  0  0
 49 53  1  0  0  0
 49 64  1  0  0  0
 49129  1  0  0  0
 50 51  1  0  0  0
 50130  1  0  0  0
 50131  1  0  0  0
 51 52  1  0  0  0
 51132  1  0  0  0
 51133  1  0  0  0
 52134  1  0  0  0
 52135  1  0  0  0
 53 54  1  0  0  0
 54 55  2  0  0  0
 54136  1  0  0  0
 55 57  1  0  0  0
 55137  1  0  0  0
 56 69  2  0  0  0
 57 58  2  0  0  0
 57138  1  0  0  0
 58139  1  0  0  0
 59 60  1  0  0  0
 59 61  1  0  0  0
 59 62  1  0  0  0
 60140  1  0  0  0
 60141  1  0  0  0
 60142  1  0  0  0
 61143  1  0  0  0
 61144  1  0  0  0
 61145  1  0  0  0
 62146  1  0  0  0
 62147  1  0  0  0
 62148  1  0  0  0
 63 65  1  0  0  0
 63149  1  0  0  0
 63150  1  0  0  0
 63151  1  0  0  0
 64152  1  0  0  0
 65153  1  0  0  0
 68 82  1  0  0  0
 71 74  2  0  0  0
 71 75  1  0  0  0
 71154  1  0  0  0
 72 74  1  0  0  0
 72 76  2  0  0  0
 72155  1  0  0  0
 73 75  2  0  0  0
 73 76  1  0  0  0
 73156  1  0  0  0
 74 86  1  0  0  0
 75 87  1  0  0  0
 76 88  1  0  0  0
 77 79  1  0  0  0
 77 83  1  0  0  0
 77 89  2  0  0  0
 78 81  1  0  0  0
 78 90  2  0  0  0
 78 84  1  0  0  0
 79157  1  0  0  0
 79158  1  0  0  0
 79159  1  0  0  0
 80160  1  0  0  0
 80161  1  0  0  0
 80162  1  0  0  0
 80 84  1  0  0  0
 81 87  1  0  0  0
 81163  1  0  0  0
 81164  1  0  0  0
 82 84  1  0  0  0
 82165  1  0  0  0
 82166  1  0  0  0
 83 85  1  0  0  0
 83 88  1  0  0  0
 83167  1  0  0  0
 84 91  1  0  0  0
 85 92  1  0  0  0
 85 93  1  0  0  0
 85 94  1  0  0  0
 86168  1  0  0  0
 87169  1  0  0  0
 88170  1  0  0  0
 91171  1  0  0  0
M  ISO  4   1 100  68 101  82 101  86 100
M  END
> <chiral flag>
0

> <version>
0

> <s_m_source_file>
/data/baiqing/PycharmProjects/Reinvent-master-3.2/result/LINK_invent/BTK/process_docking_weight1_custom_product_contain_oxygen_bond_distance_aromatic_linkinvent_7_9_3/rearranged_h_0172.sdf

> <i_m_source_file_index>
23

> <r_mmod_Potential_Energy-OPLS-2005>
190.649353027344

> <r_mmod_Stretch_Energy-OPLS-2005>
62.1981086730957

> <r_mmod_Bend_Energy-OPLS-2005>
157.486129760742

> <r_mmod_Torsional_Energy-OPLS-2005>
261.037750244141

> <r_mmod_Improper_Torsional_Energy-OPLS-2005>
11.3645248413086

> <r_mmod_Van_der_Waal_Energy-OPLS-2005>
156.165298461914

> <r_mmod_Electrostatic_Energy-OPLS-2005>
-207.656036376953

> <r_mmod_Solvation_Energy-OPLS-2005>
-273.579406738281

> <b_mmod_Minimization_Converged-OPLS-2005>
0

> <r_mmod_RMS_Derivative-OPLS-2005>
3.55028510093689

$$$$
23
                    3D
 Structure written by MMmdl.
150158  0  0  1  0            999 V2000
  -30.6023  -14.6861   20.4894 C   0  0  0  0  0  0
  -30.4451  -12.4195   19.4598 C   0  0  0  0  0  0
  -29.5129  -12.5131   18.2301 C   0  0  0  0  0  0
  -28.0363  -12.3433   18.6418 C   0  0  0  0  0  0
  -27.6533  -13.2194   19.8643 C   0  0  2  0  0  0
  -28.6996  -13.0894   20.9944 C   0  0  0  0  0  0
  -25.2547  -13.8164   20.5679 C   0  0  0  0  0  0
  -24.1813  -13.0424   20.9158 C   0  0  0  0  0  0
  -24.6395  -11.6902   20.8720 C   0  0  0  0  0  0
  -23.9063  -10.4286   21.0395 C   0  0  0  0  0  0
  -24.3614   -9.4205   21.9176 C   0  0  0  0  0  0
  -23.6287   -8.2243   22.0753 C   0  0  0  0  0  0
  -22.4268   -8.0279   21.3546 C   0  0  0  0  0  0
  -21.9902   -9.0251   20.4646 C   0  0  0  0  0  0
  -22.7232  -10.2129   20.3050 C   0  0  0  0  0  0
  -21.6854   -6.0728   22.5276 C   0  0  0  0  0  0
  -21.4018   -6.5632   23.8211 C   0  0  0  0  0  0
  -21.3659   -5.6785   24.9174 C   0  0  0  0  0  0
  -21.6043   -4.3049   24.7224 C   0  0  0  0  0  0
  -21.8820   -3.8140   23.4346 C   0  0  0  0  0  0
  -21.9194   -4.6955   22.3400 C   0  0  0  0  0  0
  -22.7839  -13.5221   21.1832 C   0  0  0  0  0  0
  -22.1663   -4.2142   21.0977 F   0  0  0  0  0  0
  -21.5626   -3.4535   25.7737 F   0  0  0  0  0  0
  -30.0115  -13.4467   20.4300 N   0  0  0  0  0  0
  -26.2994  -12.9356   20.3337 N   0  0  0  0  0  0
  -25.9331  -11.6505   20.5757 N   0  0  0  0  0  0
  -22.0486  -12.8226   22.0403 N   0  0  0  0  0  0
  -25.4227  -15.1888   20.4140 N   0  0  0  0  0  0
  -31.7645  -14.8538   20.1066 O   0  0  0  0  0  0
  -21.6637   -6.8873   21.4240 O   0  0  0  0  0  0
  -22.3518  -14.5527   20.6683 O   0  0  0  0  0  0
  -24.6276  -31.8579   23.2014 C   0  0  0  0  0  0
  -25.9116  -32.4768   23.8348 C   0  0  1  0  0  0
  -27.2274  -27.3013   20.1247 C   0  0  0  0  0  0
  -25.5921  -33.8569   24.2275 N   0  0  0  0  0  0
  -23.4232  -30.4800   21.5440 C   0  0  2  0  0  0
  -24.8728  -28.9313   20.1118 C   0  0  0  0  0  0
  -22.7484  -29.4610   22.4931 C   0  0  0  0  0  0
  -18.0285  -28.1389   22.8484 C   0  0  0  0  0  0
  -24.1488  -36.7292   23.2637 C   0  0  0  0  0  0
  -25.9658  -30.7819   21.3775 C   0  0  0  0  0  0
  -26.0413  -29.4065   20.7221 C   0  0  0  0  0  0
  -27.2219  -28.6016   20.7223 C   0  0  0  0  0  0
  -26.0404  -26.8865   19.4816 C   0  0  0  0  0  0
  -24.8745  -27.6763   19.4827 C   0  0  0  0  0  0
  -23.6406  -29.8135   20.1599 C   0  0  0  0  0  0
  -25.4109  -36.3076   24.0330 C   0  0  1  0  0  0
  -20.5886  -28.3692   23.1282 C   0  0  2  0  0  0
  -20.6777  -26.9412   22.5413 C   0  0  0  0  0  0
  -19.5753  -26.6383   21.5215 C   0  0  0  0  0  0
  -18.1931  -26.7931   22.1623 C   0  0  0  0  0  0
  -19.1538  -28.8858   23.2878 C   0  0  0  0  0  0
  -18.9460  -30.1458   23.8895 C   0  0  0  0  0  0
  -17.6459  -30.6589   24.0562 C   0  0  0  0  0  0
  -25.9048  -34.9446   23.5105 C   0  0  0  0  0  0
  -16.5350  -29.9087   23.6331 C   0  0  0  0  0  0
  -16.7270  -28.6505   23.0351 C   0  0  0  0  0  0
  -26.4492  -31.6582   25.0725 C   0  0  0  0  0  0
  -25.3719  -31.3737   26.1451 C   0  0  0  0  0  0
  -27.0334  -30.2998   24.6202 C   0  0  0  0  0  0
  -27.6053  -32.4317   25.7490 C   0  0  0  0  0  0
  -27.5587  -37.1788   24.8454 C   0  0  0  0  0  0
  -21.4196  -29.3039   22.3672 N   0  0  0  0  0  0
  -26.4284  -37.3776   23.9418 N   0  0  0  0  0  0
  -24.6908  -31.0570   22.0977 N   0  0  0  0  0  0
  -23.4197  -28.8149   23.3020 O   0  0  0  0  0  0
  -28.3282  -26.4251   20.1453 O   0  0  0  0  0  0
  -26.5622  -34.8917   22.4675 O   0  0  0  0  0  0
  -23.5434  -32.1388   23.7328 O   0  0  0  0  0  0
  -30.7636  -19.4068   20.0556 C   0  0  0  0  0  0
  -30.8747  -17.9815   20.1798 C   0  0  0  0  0  0
  -28.5285  -19.3341   20.9146 C   0  0  0  0  0  0
  -29.5916  -20.1389   20.4158 C   0  0  0  0  0  0
  -29.8046  -17.1891   20.6781 C   0  0  0  0  0  0
  -28.6355  -17.9136   21.0389 C   0  0  0  0  0  0
  -28.1086  -25.0501   20.4229 C   0  0  0  0  0  0
  -28.9623  -23.9902   20.1910 C   0  0  0  0  0  0
  -28.6016  -22.5679   20.5330 C   0  0  0  0  0  0
  -29.5527  -21.6116   20.2496 N   0  0  0  0  0  0
  -29.7778  -15.7258   20.8472 N   0  0  0  0  0  0
  -27.5213  -22.2598   21.0396 O   0  0  0  0  0  0
  -30.1605  -24.2319   19.6384 O   0  0  0  0  0  0
  -27.5747  -17.2173   21.5144 F   0  0  0  0  0  0
  -31.4846  -12.5543   19.1561 H   0  0  0  0  0  0
  -30.3914  -11.4270   19.9102 H   0  0  0  0  0  0
  -29.7845  -11.7571   17.4921 H   0  0  0  0  0  0
  -29.6469  -13.4789   17.7409 H   0  0  0  0  0  0
  -27.8801  -11.2906   18.8798 H   0  0  0  0  0  0
  -27.3811  -12.5644   17.7985 H   0  0  0  0  0  0
  -27.6650  -14.2522   19.5151 H   0  0  0  0  0  0
  -28.7220  -12.0694   21.3813 H   0  0  0  0  0  0
  -28.4382  -13.7223   21.8438 H   0  0  0  0  0  0
  -25.2760   -9.5682   22.4747 H   0  0  0  0  0  0
  -23.9995   -7.4636   22.7475 H   0  0  0  0  0  0
  -21.0832   -8.8770   19.8954 H   0  0  0  0  0  0
  -22.3690  -10.9666   19.6158 H   0  0  0  0  0  0
  -21.2016   -7.6141   23.9713 H   0  0  0  0  0  0
  -21.1477   -6.0516   25.9076 H   0  0  0  0  0  0
  -22.0600   -2.7603   23.2848 H   0  0  0  0  0  0
  -22.4099  -11.9892   22.4799 H   0  0  0  0  0  0
  -21.1112  -13.1270   22.2614 H   0  0  0  0  0  0
  -24.6613  -15.8414   20.5615 H   0  0  0  0  0  0
  -26.2981  -15.6516   20.2056 H   0  0  0  0  0  0
  -26.7184  -32.5435   23.1095 H   0  0  0  0  0  0
  -25.0056  -33.9710   25.0410 H   0  0  0  0  0  0
  -22.7179  -31.3010   21.3992 H   0  0  0  0  0  0
  -23.3756  -35.9616   23.3275 H   0  0  0  0  0  0
  -24.3592  -36.8934   22.2056 H   0  0  0  0  0  0
  -23.7230  -37.6482   23.6675 H   0  0  0  0  0  0
  -26.0993  -31.5440   20.6085 H   0  0  0  0  0  0
  -26.8452  -30.8325   22.0078 H   0  0  0  0  0  0
  -28.1182  -28.9590   21.2097 H   0  0  0  0  0  0
  -26.0048  -25.9256   18.9881 H   0  0  0  0  0  0
  -23.9810  -27.3082   18.9974 H   0  0  0  0  0  0
  -23.7605  -30.5898   19.4033 H   0  0  0  0  0  0
  -22.7606  -29.2433   19.8570 H   0  0  0  0  0  0
  -25.1283  -36.1925   25.0821 H   0  0  0  0  0  0
  -20.9972  -28.3269   24.1405 H   0  0  0  0  0  0
  -20.5679  -26.2297   23.3613 H   0  0  0  0  0  0
  -21.6646  -26.7447   22.1205 H   0  0  0  0  0  0
  -19.6914  -25.6293   21.1247 H   0  0  0  0  0  0
  -19.6692  -27.3190   20.6743 H   0  0  0  0  0  0
  -17.4201  -26.6675   21.4027 H   0  0  0  0  0  0
  -18.0329  -26.0077   22.9022 H   0  0  0  0  0  0
  -19.7936  -30.7276   24.2263 H   0  0  0  0  0  0
  -17.5014  -31.6272   24.5161 H   0  0  0  0  0  0
  -15.5352  -30.2988   23.7660 H   0  0  0  0  0  0
  -15.8669  -28.0822   22.7071 H   0  0  0  0  0  0
  -24.5880  -30.7101   25.7781 H   0  0  0  0  0  0
  -24.8926  -32.2912   26.4876 H   0  0  0  0  0  0
  -25.8030  -30.8910   27.0229 H   0  0  0  0  0  0
  -26.2915  -29.6748   24.1217 H   0  0  0  0  0  0
  -27.4004  -29.7258   25.4722 H   0  0  0  0  0  0
  -27.8797  -30.4271   23.9447 H   0  0  0  0  0  0
  -27.2664  -33.3614   26.2075 H   0  0  0  0  0  0
  -28.3854  -32.6884   25.0309 H   0  0  0  0  0  0
  -28.0733  -31.8439   26.5397 H   0  0  0  0  0  0
  -28.2569  -38.0122   24.7555 H   0  0  0  0  0  0
  -28.1119  -36.2657   24.6204 H   0  0  0  0  0  0
  -27.2319  -37.1346   25.8858 H   0  0  0  0  0  0
  -20.9377  -29.8755   21.6874 H   0  0  0  0  0  0
  -26.0164  -38.2842   24.1452 H   0  0  0  0  0  0
  -31.6166  -19.9458   19.6667 H   0  0  0  0  0  0
  -31.7985  -17.5059   19.8832 H   0  0  0  0  0  0
  -27.5965  -19.7889   21.2115 H   0  0  0  0  0  0
  -27.1386  -24.8862   20.8759 H   0  0  0  0  0  0
  -30.3835  -22.0286   19.8485 H   0  0  0  0  0  0
  -28.8880  -15.4006   21.1947 H   0  0  0  0  0  0
  -30.2117  -25.1691   19.4958 H   0  0  0  0  0  0
  1 25  1  0  0  0
  1 30  2  0  0  0
  1 81  1  0  0  0
  2  3  1  0  0  0
  2 25  1  0  0  0
  2 85  1  0  0  0
  2 86  1  0  0  0
  3  4  1  0  0  0
  3 87  1  0  0  0
  3 88  1  0  0  0
  4  5  1  0  0  0
  4 89  1  0  0  0
  4 90  1  0  0  0
  5  6  1  0  0  0
  5 26  1  0  0  0
  5 91  1  0  0  0
  6 25  1  0  0  0
  6 92  1  0  0  0
  6 93  1  0  0  0
  7  8  2  0  0  0
  7 26  1  0  0  0
  7 29  1  0  0  0
  8  9  1  0  0  0
  8 22  1  0  0  0
  9 10  1  0  0  0
  9 27  2  0  0  0
 10 11  2  0  0  0
 10 15  1  0  0  0
 11 12  1  0  0  0
 11 94  1  0  0  0
 12 13  2  0  0  0
 12 95  1  0  0  0
 13 14  1  0  0  0
 13 31  1  0  0  0
 14 15  2  0  0  0
 14 96  1  0  0  0
 15 97  1  0  0  0
 16 17  2  0  0  0
 16 21  1  0  0  0
 16 31  1  0  0  0
 17 18  1  0  0  0
 17 98  1  0  0  0
 18 19  2  0  0  0
 18 99  1  0  0  0
 19 20  1  0  0  0
 19 24  1  0  0  0
 20 21  2  0  0  0
 20100  1  0  0  0
 21 23  1  0  0  0
 22 28  1  0  0  0
 22 32  2  0  0  0
 26 27  1  0  0  0
 28101  1  0  0  0
 28102  1  0  0  0
 29103  1  0  0  0
 29104  1  0  0  0
 33 34  1  0  0  0
 33 66  1  0  0  0
 33 70  2  0  0  0
 34 36  1  0  0  0
 34 59  1  0  0  0
 34105  1  0  0  0
 35 44  2  0  0  0
 35 45  1  0  0  0
 35 68  1  0  0  0
 36 56  1  0  0  0
 36106  1  0  0  0
 37 39  1  0  0  0
 37 47  1  0  0  0
 37 66  1  0  0  0
 37107  1  0  0  0
 38 43  2  0  0  0
 38 46  1  0  0  0
 38 47  1  0  0  0
 39 64  1  0  0  0
 39 67  2  0  0  0
 40 52  1  0  0  0
 40 53  2  0  0  0
 40 58  1  0  0  0
 41108  1  0  0  0
 41109  1  0  0  0
 41110  1  0  0  0
 41 48  1  0  0  0
 42 43  1  0  0  0
 42 66  1  0  0  0
 42111  1  0  0  0
 42112  1  0  0  0
 43 44  1  0  0  0
 44113  1  0  0  0
 45 46  2  0  0  0
 45114  1  0  0  0
 46115  1  0  0  0
 47116  1  0  0  0
 47117  1  0  0  0
 48 56  1  0  0  0
 48 65  1  0  0  0
 48118  1  0  0  0
 49 50  1  0  0  0
 49 53  1  0  0  0
 49 64  1  0  0  0
 49119  1  0  0  0
 50 51  1  0  0  0
 50120  1  0  0  0
 50121  1  0  0  0
 51 52  1  0  0  0
 51122  1  0  0  0
 51123  1  0  0  0
 52124  1  0  0  0
 52125  1  0  0  0
 53 54  1  0  0  0
 54 55  2  0  0  0
 54126  1  0  0  0
 55 57  1  0  0  0
 55127  1  0  0  0
 56 69  2  0  0  0
 57 58  2  0  0  0
 57128  1  0  0  0
 58129  1  0  0  0
 59 60  1  0  0  0
 59 61  1  0  0  0
 59 62  1  0  0  0
 60130  1  0  0  0
 60131  1  0  0  0
 60132  1  0  0  0
 61133  1  0  0  0
 61134  1  0  0  0
 61135  1  0  0  0
 62136  1  0  0  0
 62137  1  0  0  0
 62138  1  0  0  0
 63 65  1  0  0  0
 63139  1  0  0  0
 63140  1  0  0  0
 63141  1  0  0  0
 64142  1  0  0  0
 65143  1  0  0  0
 68 77  1  0  0  0
 71 72  2  0  0  0
 71 74  1  0  0  0
 71144  1  0  0  0
 72 75  1  0  0  0
 72145  1  0  0  0
 73 74  2  0  0  0
 73 76  1  0  0  0
 73146  1  0  0  0
 74 80  1  0  0  0
 75 76  2  0  0  0
 75 81  1  0  0  0
 76 84  1  0  0  0
 77 78  2  0  0  0
 77147  1  0  0  0
 78 79  1  0  0  0
 78 83  1  0  0  0
 79 80  1  0  0  0
 79 82  2  0  0  0
 80148  1  0  0  0
 81149  1  0  0  0
 83150  1  0  0  0
M  ISO  4   1 100  68 101  77 101  81 100
M  END
> <chiral flag>
0

> <version>
0

> <s_m_source_file>
/data/baiqing/PycharmProjects/Reinvent-master-3.2/result/LINK_invent/BTK/process_docking_weight1_custom_product_contain_oxygen_bond_distance_aromatic_linkinvent_7_9_3/rearranged_h_0172.sdf

> <i_m_source_file_index>
24

> <r_mmod_Potential_Energy-OPLS-2005>
-27.2929592132568

> <r_mmod_Stretch_Energy-OPLS-2005>
88.6991806030273

> <r_mmod_Bend_Energy-OPLS-2005>
147.536422729492

> <r_mmod_Torsional_Energy-OPLS-2005>
205.766189575195

> <r_mmod_Improper_Torsional_Energy-OPLS-2005>
3.61781811714172

> <r_mmod_Van_der_Waal_Energy-OPLS-2005>
145.098480224609

> <r_mmod_Electrostatic_Energy-OPLS-2005>
-467.958587646484

> <r_mmod_Solvation_Energy-OPLS-2005>
-211.342819213867

> <b_mmod_Minimization_Converged-OPLS-2005>
0

> <r_mmod_RMS_Derivative-OPLS-2005>
0.558009803295135

$$$$
24
                    3D
 Structure written by MMmdl.
158166  0  0  1  0            999 V2000
  -30.7017  -14.5077   20.4916 C   0  0  0  0  0  0
  -30.4137  -12.3058   19.4437 C   0  0  0  0  0  0
  -29.4961  -12.4781   18.2153 C   0  0  0  0  0  0
  -28.0176  -12.3411   18.6276 C   0  0  0  0  0  0
  -27.6538  -13.2115   19.8608 C   0  0  2  0  0  0
  -28.6957  -13.0543   20.9921 C   0  0  0  0  0  0
  -25.2563  -13.8174   20.5680 C   0  0  0  0  0  0
  -24.1826  -13.0443   20.9182 C   0  0  0  0  0  0
  -24.6382  -11.6911   20.8732 C   0  0  0  0  0  0
  -23.9051  -10.4295   21.0399 C   0  0  0  0  0  0
  -24.3602   -9.4212   21.9177 C   0  0  0  0  0  0
  -23.6279   -8.2248   22.0751 C   0  0  0  0  0  0
  -22.4264   -8.0281   21.3545 C   0  0  0  0  0  0
  -21.9894   -9.0252   20.4648 C   0  0  0  0  0  0
  -22.7220  -10.2131   20.3054 C   0  0  0  0  0  0
  -21.6857   -6.0725   22.5271 C   0  0  0  0  0  0
  -21.4016   -6.5630   23.8203 C   0  0  0  0  0  0
  -21.3661   -5.6782   24.9165 C   0  0  0  0  0  0
  -21.6044   -4.3046   24.7220 C   0  0  0  0  0  0
  -21.8821   -3.8136   23.4344 C   0  0  0  0  0  0
  -21.9196   -4.6952   22.3397 C   0  0  0  0  0  0
  -22.7855  -13.5246   21.1845 C   0  0  0  0  0  0
  -22.1665   -4.2137   21.0978 F   0  0  0  0  0  0
  -21.5628   -3.4533   25.7735 F   0  0  0  0  0  0
  -30.0236  -13.3302   20.4262 N   0  0  0  0  0  0
  -26.2985  -12.9349   20.3308 N   0  0  0  0  0  0
  -25.9306  -11.6508   20.5747 N   0  0  0  0  0  0
  -22.0492  -12.8241   22.0399 N   0  0  0  0  0  0
  -25.4292  -15.1894   20.4099 N   0  0  0  0  0  0
  -31.8877  -14.5851   20.1669 O   0  0  0  0  0  0
  -21.6640   -6.8870   21.4237 O   0  0  0  0  0  0
  -22.3543  -14.5552   20.6690 O   0  0  0  0  0  0
  -24.6178  -31.8677   23.2111 C   0  0  0  0  0  0
  -25.9064  -32.4819   23.8405 C   0  0  1  0  0  0
  -27.2186  -27.3977   20.0849 C   0  0  0  0  0  0
  -25.5911  -33.8620   24.2334 N   0  0  0  0  0  0
  -23.4044  -30.4952   21.5543 C   0  0  2  0  0  0
  -24.8442  -28.9650   20.1146 C   0  0  0  0  0  0
  -22.7419  -29.4661   22.4992 C   0  0  0  0  0  0
  -18.0276  -28.1376   22.8492 C   0  0  0  0  0  0
  -24.1490  -36.7314   23.2635 C   0  0  0  0  0  0
  -25.9395  -30.8208   21.3716 C   0  0  0  0  0  0
  -26.0096  -29.4550   20.7141 C   0  0  0  0  0  0
  -27.1953  -28.6782   20.6980 C   0  0  0  0  0  0
  -26.0237  -26.9419   19.4726 C   0  0  0  0  0  0
  -24.8486  -27.7095   19.4937 C   0  0  0  0  0  0
  -23.6112  -29.8367   20.1666 C   0  0  0  0  0  0
  -25.4110  -36.3111   24.0337 C   0  0  1  0  0  0
  -20.5867  -28.3663   23.1312 C   0  0  2  0  0  0
  -20.6768  -26.9399   22.5411 C   0  0  0  0  0  0
  -19.5744  -26.6388   21.5209 C   0  0  0  0  0  0
  -18.1924  -26.7922   22.1622 C   0  0  0  0  0  0
  -19.1524  -28.8836   23.2899 C   0  0  0  0  0  0
  -18.9450  -30.1442   23.8911 C   0  0  0  0  0  0
  -17.6452  -30.6579   24.0566 C   0  0  0  0  0  0
  -25.9039  -34.9473   23.5131 C   0  0  0  0  0  0
  -16.5343  -29.9080   23.6323 C   0  0  0  0  0  0
  -16.7267  -28.6495   23.0348 C   0  0  0  0  0  0
  -26.4482  -31.6598   25.0735 C   0  0  0  0  0  0
  -25.3742  -31.3713   26.1481 C   0  0  0  0  0  0
  -27.0309  -30.3032   24.6127 C   0  0  0  0  0  0
  -27.6063  -32.4314   25.7490 C   0  0  0  0  0  0
  -27.5581  -37.1813   24.8466 C   0  0  0  0  0  0
  -21.4145  -29.3035   22.3726 N   0  0  0  0  0  0
  -26.4301  -37.3790   23.9400 N   0  0  0  0  0  0
  -24.6726  -31.0757   22.1031 N   0  0  0  0  0  0
  -23.4187  -28.8194   23.3029 O   0  0  0  0  0  0
  -28.4000  -26.6635   20.1136 O   0  0  0  0  0  0
  -26.5596  -34.8922   22.4691 O   0  0  0  0  0  0
  -23.5362  -32.1454   23.7481 O   0  0  0  0  0  0
  -31.4071  -18.6094   18.8948 C   0  0  0  0  0  0
  -30.5276  -19.6289   19.2909 C   0  0  0  0  0  0
  -31.2398  -17.2989   19.3724 C   0  0  0  0  0  0
  -29.3243  -18.0207   20.6872 C   0  0  0  0  0  0
  -29.4749  -19.3501   20.1885 C   0  0  0  0  0  0
  -30.1974  -16.9693   20.2812 C   0  0  0  0  0  0
  -28.5141  -20.4323   20.5043 C   0  0  0  0  0  0
  -28.1035  -22.9180   20.7300 C   0  0  0  0  0  0
  -29.4586  -25.2316   18.5091 C   0  0  0  0  0  0
  -28.8258  -24.2878   20.8168 C   0  0  0  0  0  0
  -28.4565  -25.2813   19.6701 C   0  0  1  0  0  0
  -29.9606  -15.6160   20.7405 N   0  0  0  0  0  0
  -28.9246  -21.7272   20.6192 N   0  0  0  0  0  0
  -27.2227  -20.0988   20.6089 N   0  3  0  0  0  0
  -26.8683  -22.8514   20.7533 O   0  0  0  0  0  0
  -31.4607  -12.3806   19.1444 H   0  0  0  0  0  0
  -30.2971  -11.3105   19.8746 H   0  0  0  0  0  0
  -29.7393  -11.7330   17.4564 H   0  0  0  0  0  0
  -29.6645  -13.4530   17.7540 H   0  0  0  0  0  0
  -27.8378  -11.2890   18.8531 H   0  0  0  0  0  0
  -27.3666  -12.5849   17.7868 H   0  0  0  0  0  0
  -27.6815  -14.2480   19.5239 H   0  0  0  0  0  0
  -28.6718  -12.0420   21.3977 H   0  0  0  0  0  0
  -28.4672  -13.7178   21.8278 H   0  0  0  0  0  0
  -25.2745   -9.5686   22.4747 H   0  0  0  0  0  0
  -23.9986   -7.4639   22.7471 H   0  0  0  0  0  0
  -21.0825   -8.8766   19.8956 H   0  0  0  0  0  0
  -22.3673  -10.9662   19.6163 H   0  0  0  0  0  0
  -21.2007   -7.6136   23.9704 H   0  0  0  0  0  0
  -21.1485   -6.0512   25.9063 H   0  0  0  0  0  0
  -22.0600   -2.7601   23.2855 H   0  0  0  0  0  0
  -22.4104  -11.9903   22.4791 H   0  0  0  0  0  0
  -21.1115  -13.1276   22.2604 H   0  0  0  0  0  0
  -24.6604  -15.8422   20.5147 H   0  0  0  0  0  0
  -26.2723  -15.6217   20.0555 H   0  0  0  0  0  0
  -26.7127  -32.5512   23.1157 H   0  0  0  0  0  0
  -25.0068  -33.9791   25.0482 H   0  0  0  0  0  0
  -22.6943  -31.3136   21.4197 H   0  0  0  0  0  0
  -23.3743  -35.9658   23.3323 H   0  0  0  0  0  0
  -24.3582  -36.8902   22.2044 H   0  0  0  0  0  0
  -23.7258  -37.6534   23.6635 H   0  0  0  0  0  0
  -26.0610  -31.5876   20.6054 H   0  0  0  0  0  0
  -26.8251  -30.8675   21.9936 H   0  0  0  0  0  0
  -28.0946  -29.0535   21.1669 H   0  0  0  0  0  0
  -25.9319  -26.0043   18.9526 H   0  0  0  0  0  0
  -23.9531  -27.3297   19.0207 H   0  0  0  0  0  0
  -23.7234  -30.6160   19.4120 H   0  0  0  0  0  0
  -22.7326  -29.2623   19.8669 H   0  0  0  0  0  0
  -25.1286  -36.1981   25.0831 H   0  0  0  0  0  0
  -20.9959  -28.3226   24.1433 H   0  0  0  0  0  0
  -20.5675  -26.2268   23.3595 H   0  0  0  0  0  0
  -21.6640  -26.7447   22.1200 H   0  0  0  0  0  0
  -19.6908  -25.6304   21.1223 H   0  0  0  0  0  0
  -19.6681  -27.3211   20.6749 H   0  0  0  0  0  0
  -17.4193  -26.6669   21.4028 H   0  0  0  0  0  0
  -18.0329  -26.0060   22.9015 H   0  0  0  0  0  0
  -19.7927  -30.7255   24.2288 H   0  0  0  0  0  0
  -17.5006  -31.6260   24.5164 H   0  0  0  0  0  0
  -15.5345  -30.2985   23.7640 H   0  0  0  0  0  0
  -15.8665  -28.0818   22.7058 H   0  0  0  0  0  0
  -24.5913  -30.7062   25.7820 H   0  0  0  0  0  0
  -24.8934  -32.2869   26.4931 H   0  0  0  0  0  0
  -25.8089  -30.8880   27.0238 H   0  0  0  0  0  0
  -26.2853  -29.6795   24.1178 H   0  0  0  0  0  0
  -27.4064  -29.7270   25.4594 H   0  0  0  0  0  0
  -27.8702  -30.4341   23.9294 H   0  0  0  0  0  0
  -27.2694  -33.3607   26.2093 H   0  0  0  0  0  0
  -28.3854  -32.6879   25.0299 H   0  0  0  0  0  0
  -28.0753  -31.8419   26.5380 H   0  0  0  0  0  0
  -28.2616  -38.0091   24.7490 H   0  0  0  0  0  0
  -28.1060  -36.2623   24.6324 H   0  0  0  0  0  0
  -27.2296  -37.1502   25.8870 H   0  0  0  0  0  0
  -20.9301  -29.8770   21.6963 H   0  0  0  0  0  0
  -26.0193  -38.2874   24.1382 H   0  0  0  0  0  0
  -32.2016  -18.8248   18.1944 H   0  0  0  0  0  0
  -30.6542  -20.6151   18.8650 H   0  0  0  0  0  0
  -31.9298  -16.5680   18.9843 H   0  0  0  0  0  0
  -28.5130  -17.8017   21.3668 H   0  0  0  0  0  0
  -29.5533  -24.2216   18.1089 H   0  0  0  0  0  0
  -30.4487  -25.5623   18.8240 H   0  0  0  0  0  0
  -29.1365  -25.8787   17.6927 H   0  0  0  0  0  0
  -29.9054  -24.1555   20.8867 H   0  0  0  0  0  0
  -28.5208  -24.7267   21.7668 H   0  0  0  0  0  0
  -27.5291  -24.9227   19.2452 H   0  0  0  0  0  0
  -29.0476  -15.4337   21.1275 H   0  0  0  0  0  0
  -29.9309  -21.7905   20.6216 H   0  0  0  0  0  0
  -26.9127  -19.1595   20.4193 H   0  0  0  0  0  0
  -26.5438  -20.8372   20.7470 H   0  0  0  0  0  0
  1 25  1  0  0  0
  1 30  2  0  0  0
  1 82  1  0  0  0
  2  3  1  0  0  0
  2 25  1  0  0  0
  2 86  1  0  0  0
  2 87  1  0  0  0
  3  4  1  0  0  0
  3 88  1  0  0  0
  3 89  1  0  0  0
  4  5  1  0  0  0
  4 90  1  0  0  0
  4 91  1  0  0  0
  5  6  1  0  0  0
  5 26  1  0  0  0
  5 92  1  0  0  0
  6 25  1  0  0  0
  6 93  1  0  0  0
  6 94  1  0  0  0
  7  8  2  0  0  0
  7 26  1  0  0  0
  7 29  1  0  0  0
  8  9  1  0  0  0
  8 22  1  0  0  0
  9 10  1  0  0  0
  9 27  2  0  0  0
 10 11  2  0  0  0
 10 15  1  0  0  0
 11 12  1  0  0  0
 11 95  1  0  0  0
 12 13  2  0  0  0
 12 96  1  0  0  0
 13 14  1  0  0  0
 13 31  1  0  0  0
 14 15  2  0  0  0
 14 97  1  0  0  0
 15 98  1  0  0  0
 16 17  2  0  0  0
 16 21  1  0  0  0
 16 31  1  0  0  0
 17 18  1  0  0  0
 17 99  1  0  0  0
 18 19  2  0  0  0
 18100  1  0  0  0
 19 20  1  0  0  0
 19 24  1  0  0  0
 20 21  2  0  0  0
 20101  1  0  0  0
 21 23  1  0  0  0
 22 28  1  0  0  0
 22 32  2  0  0  0
 26 27  1  0  0  0
 28102  1  0  0  0
 28103  1  0  0  0
 29104  1  0  0  0
 29105  1  0  0  0
 33 34  1  0  0  0
 33 66  1  0  0  0
 33 70  2  0  0  0
 34 36  1  0  0  0
 34 59  1  0  0  0
 34106  1  0  0  0
 35 44  2  0  0  0
 35 45  1  0  0  0
 35 68  1  0  0  0
 36 56  1  0  0  0
 36107  1  0  0  0
 37 39  1  0  0  0
 37 47  1  0  0  0
 37 66  1  0  0  0
 37108  1  0  0  0
 38 43  2  0  0  0
 38 46  1  0  0  0
 38 47  1  0  0  0
 39 64  1  0  0  0
 39 67  2  0  0  0
 40 52  1  0  0  0
 40 53  2  0  0  0
 40 58  1  0  0  0
 41109  1  0  0  0
 41110  1  0  0  0
 41111  1  0  0  0
 41 48  1  0  0  0
 42 43  1  0  0  0
 42 66  1  0  0  0
 42112  1  0  0  0
 42113  1  0  0  0
 43 44  1  0  0  0
 44114  1  0  0  0
 45 46  2  0  0  0
 45115  1  0  0  0
 46116  1  0  0  0
 47117  1  0  0  0
 47118  1  0  0  0
 48 56  1  0  0  0
 48 65  1  0  0  0
 48119  1  0  0  0
 49 50  1  0  0  0
 49 53  1  0  0  0
 49 64  1  0  0  0
 49120  1  0  0  0
 50 51  1  0  0  0
 50121  1  0  0  0
 50122  1  0  0  0
 51 52  1  0  0  0
 51123  1  0  0  0
 51124  1  0  0  0
 52125  1  0  0  0
 52126  1  0  0  0
 53 54  1  0  0  0
 54 55  2  0  0  0
 54127  1  0  0  0
 55 57  1  0  0  0
 55128  1  0  0  0
 56 69  2  0  0  0
 57 58  2  0  0  0
 57129  1  0  0  0
 58130  1  0  0  0
 59 60  1  0  0  0
 59 61  1  0  0  0
 59 62  1  0  0  0
 60131  1  0  0  0
 60132  1  0  0  0
 60133  1  0  0  0
 61134  1  0  0  0
 61135  1  0  0  0
 61136  1  0  0  0
 62137  1  0  0  0
 62138  1  0  0  0
 62139  1  0  0  0
 63 65  1  0  0  0
 63140  1  0  0  0
 63141  1  0  0  0
 63142  1  0  0  0
 64143  1  0  0  0
 65144  1  0  0  0
 68 81  1  0  0  0
 71 72  2  0  0  0
 71 73  1  0  0  0
 71145  1  0  0  0
 72 75  1  0  0  0
 72146  1  0  0  0
 73 76  2  0  0  0
 73147  1  0  0  0
 74 75  2  0  0  0
 74 76  1  0  0  0
 74148  1  0  0  0
 75 77  1  0  0  0
 76 82  1  0  0  0
 77 83  1  0  0  0
 77 84  2  0  0  0
 78 80  1  0  0  0
 78 83  1  0  0  0
 78 85  2  0  0  0
 79149  1  0  0  0
 79150  1  0  0  0
 79151  1  0  0  0
 79 81  1  0  0  0
 80 81  1  0  0  0
 80152  1  0  0  0
 80153  1  0  0  0
 81154  1  0  0  0
 82155  1  0  0  0
 83156  1  0  0  0
 84157  1  0  0  0
 84158  1  0  0  0
M  CHG  1  84   1
M  ISO  4   1 100  68 101  81 101  82 100
M  END
> <chiral flag>
0

> <version>
0

> <s_m_source_file>
/data/baiqing/PycharmProjects/Reinvent-master-3.2/result/LINK_invent/BTK/process_docking_weight1_custom_product_contain_oxygen_bond_distance_aromatic_linkinvent_7_9_3/rearranged_h_0172.sdf

> <i_m_source_file_index>
25

> <r_mmod_Potential_Energy-OPLS-2005>
-287.586181640625

> <r_mmod_Stretch_Energy-OPLS-2005>
47.6553497314453

> <r_mmod_Bend_Energy-OPLS-2005>
124.831665039062

> <r_mmod_Torsional_Energy-OPLS-2005>
214.02717590332

> <r_mmod_Improper_Torsional_Energy-OPLS-2005>
5.59251880645752

> <r_mmod_Van_der_Waal_Energy-OPLS-2005>
175.486053466797

> <r_mmod_Electrostatic_Energy-OPLS-2005>
-424.229461669922

> <r_mmod_Solvation_Energy-OPLS-2005>
-454.755523681641

> <b_mmod_Minimization_Converged-OPLS-2005>
0

> <r_mmod_RMS_Derivative-OPLS-2005>
1.0475857257843

$$$$
25
                    3D
 Structure written by MMmdl.
163171  0  0  1  0            999 V2000
  -30.6839  -14.4618   20.5788 C   0  0  0  0  0  0
  -30.4251  -12.2995   19.4263 C   0  0  0  0  0  0
  -29.4997  -12.5050   18.2084 C   0  0  0  0  0  0
  -28.0109  -12.4055   18.6036 C   0  0  0  0  0  0
  -27.6623  -13.2101   19.8845 C   0  0  2  0  0  0
  -28.7025  -12.9623   21.0018 C   0  0  0  0  0  0
  -25.2534  -13.8195   20.5681 C   0  0  0  0  0  0
  -24.1807  -13.0453   20.9138 C   0  0  0  0  0  0
  -24.6374  -11.6925   20.8705 C   0  0  0  0  0  0
  -23.9042  -10.4315   21.0392 C   0  0  0  0  0  0
  -24.3598   -9.4233   21.9176 C   0  0  0  0  0  0
  -23.6282   -8.2261   22.0749 C   0  0  0  0  0  0
  -22.4270   -8.0297   21.3536 C   0  0  0  0  0  0
  -21.9900   -9.0286   20.4648 C   0  0  0  0  0  0
  -22.7217  -10.2162   20.3048 C   0  0  0  0  0  0
  -21.6865   -6.0722   22.5258 C   0  0  0  0  0  0
  -21.4043   -6.5616   23.8202 C   0  0  0  0  0  0
  -21.3661   -5.6765   24.9154 C   0  0  0  0  0  0
  -21.6051   -4.3030   24.7211 C   0  0  0  0  0  0
  -21.8823   -3.8126   23.4335 C   0  0  0  0  0  0
  -21.9209   -4.6945   22.3392 C   0  0  0  0  0  0
  -22.7820  -13.5236   21.1776 C   0  0  0  0  0  0
  -22.1645   -4.2128   21.0971 F   0  0  0  0  0  0
  -21.5629   -3.4513   25.7723 F   0  0  0  0  0  0
  -30.0375  -13.2702   20.4612 N   0  0  0  0  0  0
  -26.3007  -12.9368   20.3405 N   0  0  0  0  0  0
  -25.9301  -11.6519   20.5767 N   0  0  0  0  0  0
  -22.0449  -12.8292   22.0357 N   0  0  0  0  0  0
  -25.4255  -15.1940   20.4119 N   0  0  0  0  0  0
  -31.7907  -14.6828   20.0806 O   0  0  0  0  0  0
  -21.6641   -6.8883   21.4227 O   0  0  0  0  0  0
  -22.3534  -14.5525   20.6575 O   0  0  0  0  0  0
  -24.6141  -31.8670   23.2114 C   0  0  0  0  0  0
  -25.9029  -32.4816   23.8421 C   0  0  1  0  0  0
  -27.2390  -27.4250   20.1045 C   0  0  0  0  0  0
  -25.5908  -33.8617   24.2350 N   0  0  0  0  0  0
  -23.4065  -30.4922   21.5488 C   0  0  2  0  0  0
  -24.8574  -28.9515   20.1235 C   0  0  0  0  0  0
  -22.7405  -29.4664   22.4946 C   0  0  0  0  0  0
  -18.0314  -28.1415   22.8463 C   0  0  0  0  0  0
  -24.1493  -36.7320   23.2639 C   0  0  0  0  0  0
  -25.9389  -30.8199   21.3764 C   0  0  0  0  0  0
  -26.0154  -29.4507   20.7347 C   0  0  0  0  0  0
  -27.2096  -28.6903   20.7363 C   0  0  0  0  0  0
  -26.0693  -26.9455   19.4810 C   0  0  0  0  0  0
  -24.8760  -27.6928   19.4987 C   0  0  0  0  0  0
  -23.6240  -29.8254   20.1651 C   0  0  0  0  0  0
  -25.4108  -36.3095   24.0342 C   0  0  1  0  0  0
  -20.5882  -28.3660   23.1293 C   0  0  2  0  0  0
  -20.6788  -26.9407   22.5357 C   0  0  0  0  0  0
  -19.5757  -26.6395   21.5155 C   0  0  0  0  0  0
  -18.1949  -26.7951   22.1597 C   0  0  0  0  0  0
  -19.1551  -28.8852   23.2898 C   0  0  0  0  0  0
  -18.9485  -30.1465   23.8943 C   0  0  0  0  0  0
  -17.6491  -30.6592   24.0642 C   0  0  0  0  0  0
  -25.9028  -34.9460   23.5137 C   0  0  0  0  0  0
  -16.5386  -29.9114   23.6368 C   0  0  0  0  0  0
  -16.7303  -28.6563   23.0306 C   0  0  0  0  0  0
  -26.4470  -31.6581   25.0731 C   0  0  0  0  0  0
  -25.3775  -31.3679   26.1497 C   0  0  0  0  0  0
  -27.0282  -30.3025   24.6082 C   0  0  0  0  0  0
  -27.6042  -32.4291   25.7487 C   0  0  0  0  0  0
  -27.5588  -37.1819   24.8461 C   0  0  0  0  0  0
  -21.4122  -29.3066   22.3716 N   0  0  0  0  0  0
  -26.4290  -37.3786   23.9420 N   0  0  0  0  0  0
  -24.6712  -31.0746   22.1040 N   0  0  0  0  0  0
  -23.4168  -28.8163   23.2960 O   0  0  0  0  0  0
  -28.3705  -26.6398   20.0267 O   0  0  0  0  0  0
  -26.5560  -34.8905   22.4676 O   0  0  0  0  0  0
  -23.5322  -32.1415   23.7496 O   0  0  0  0  0  0
  -29.1142  -17.7908   21.1128 C   0  0  0  0  0  0
  -29.2089  -16.5254   19.0461 C   0  0  0  0  0  0
  -28.0739  -18.7085   19.0820 C   0  0  0  0  0  0
  -29.4586  -16.5960   20.4311 C   0  0  0  0  0  0
  -28.4834  -18.8848   20.4495 C   0  0  0  0  0  0
  -28.5155  -17.5509   18.3887 C   0  0  0  0  0  0
  -28.5852  -22.5763   21.5495 C   0  0  0  0  0  0
  -27.6498  -23.7815   21.2784 C   0  0  0  0  0  0
  -28.5238  -21.3878   20.5709 C   0  0  0  0  0  0
  -28.9052  -26.0952   21.2450 C   0  0  0  0  0  0
  -27.9177  -25.1504   21.9975 C   0  0  2  0  0  0
  -27.1588  -19.6832   18.3161 C   0  0  0  0  0  0
  -29.9644  -15.4567   21.1400 N   0  0  0  0  0  0
  -28.3130  -20.0748   21.2095 N   0  0  0  0  0  0
  -28.2621  -25.0119   23.4386 N   0  3  0  0  0  0
  -29.3086  -22.5266   22.5482 O   0  0  0  0  0  0
  -28.2738  -17.3853   17.0646 F   0  0  0  0  0  0
  -26.2362  -20.2481   19.0991 F   0  0  0  0  0  0
  -27.8877  -20.6341   17.7315 F   0  0  0  0  0  0
  -26.4607  -19.0677   17.3587 F   0  0  0  0  0  0
  -31.4684  -12.4082   19.1274 H   0  0  0  0  0  0
  -30.3299  -11.2824   19.8105 H   0  0  0  0  0  0
  -29.7288  -11.7716   17.4335 H   0  0  0  0  0  0
  -29.6963  -13.4786   17.7606 H   0  0  0  0  0  0
  -27.7653  -11.3530   18.7479 H   0  0  0  0  0  0
  -27.3882  -12.7508   17.7781 H   0  0  0  0  0  0
  -27.7070  -14.2650   19.6177 H   0  0  0  0  0  0
  -28.6730  -11.9204   21.3228 H   0  0  0  0  0  0
  -28.4629  -13.5489   21.8889 H   0  0  0  0  0  0
  -25.2750   -9.5721   22.4738 H   0  0  0  0  0  0
  -24.0000   -7.4663   22.7469 H   0  0  0  0  0  0
  -21.0832   -8.8838   19.8951 H   0  0  0  0  0  0
  -22.3704  -10.9713   19.6159 H   0  0  0  0  0  0
  -21.2036   -7.6126   23.9693 H   0  0  0  0  0  0
  -21.1476   -6.0482   25.9053 H   0  0  0  0  0  0
  -22.0615   -2.7589   23.2817 H   0  0  0  0  0  0
  -22.4054  -12.0000   22.4839 H   0  0  0  0  0  0
  -21.1065  -13.1374   22.2522 H   0  0  0  0  0  0
  -24.6634  -15.8518   20.5355 H   0  0  0  0  0  0
  -26.2844  -15.6340   20.1124 H   0  0  0  0  0  0
  -26.7090  -32.5516   23.1176 H   0  0  0  0  0  0
  -25.0157  -33.9819   25.0548 H   0  0  0  0  0  0
  -22.6982  -31.3108   21.4060 H   0  0  0  0  0  0
  -23.3740  -35.9670   23.3279 H   0  0  0  0  0  0
  -24.3609  -36.8934   22.2058 H   0  0  0  0  0  0
  -23.7247  -37.6532   23.6639 H   0  0  0  0  0  0
  -26.0496  -31.5745   20.5971 H   0  0  0  0  0  0
  -26.8274  -30.8801   21.9903 H   0  0  0  0  0  0
  -28.1033  -29.0754   21.2056 H   0  0  0  0  0  0
  -26.0784  -25.9844   18.9866 H   0  0  0  0  0  0
  -23.9888  -27.3028   19.0144 H   0  0  0  0  0  0
  -23.7526  -30.6003   19.4087 H   0  0  0  0  0  0
  -22.7444  -29.2567   19.8571 H   0  0  0  0  0  0
  -25.1282  -36.1975   25.0836 H   0  0  0  0  0  0
  -21.0000  -28.3217   24.1402 H   0  0  0  0  0  0
  -20.5704  -26.2250   23.3519 H   0  0  0  0  0  0
  -21.6678  -26.7487   22.1168 H   0  0  0  0  0  0
  -19.6909  -25.6309   21.1160 H   0  0  0  0  0  0
  -19.6705  -27.3232   20.6700 H   0  0  0  0  0  0
  -17.4203  -26.6711   21.4015 H   0  0  0  0  0  0
  -18.0349  -26.0094   22.8983 H   0  0  0  0  0  0
  -19.7951  -30.7300   24.2309 H   0  0  0  0  0  0
  -17.5055  -31.6257   24.5289 H   0  0  0  0  0  0
  -15.5398  -30.3038   23.7704 H   0  0  0  0  0  0
  -15.8711  -28.0941   22.6916 H   0  0  0  0  0  0
  -24.5953  -30.6997   25.7874 H   0  0  0  0  0  0
  -24.8982  -32.2843   26.4961 H   0  0  0  0  0  0
  -25.8198  -30.8869   27.0231 H   0  0  0  0  0  0
  -26.2809  -29.6808   24.1139 H   0  0  0  0  0  0
  -27.4060  -29.7225   25.4510 H   0  0  0  0  0  0
  -27.8641  -30.4350   23.9209 H   0  0  0  0  0  0
  -27.2651  -33.3575   26.2085 H   0  0  0  0  0  0
  -28.3848  -32.6866   25.0317 H   0  0  0  0  0  0
  -28.0703  -31.8404   26.5395 H   0  0  0  0  0  0
  -28.2578  -38.0142   24.7531 H   0  0  0  0  0  0
  -28.1110  -36.2671   24.6248 H   0  0  0  0  0  0
  -27.2320  -37.1434   25.8867 H   0  0  0  0  0  0
  -20.9216  -29.8889   21.7064 H   0  0  0  0  0  0
  -26.0162  -38.2854   24.1432 H   0  0  0  0  0  0
  -29.3527  -17.8676   22.1658 H   0  0  0  0  0  0
  -29.4893  -15.6581   18.4667 H   0  0  0  0  0  0
  -26.6540  -23.4474   21.5672 H   0  0  0  0  0  0
  -27.5936  -23.9544   20.2013 H   0  0  0  0  0  0
  -29.4412  -21.3757   19.9803 H   0  0  0  0  0  0
  -27.7132  -21.6324   19.8950 H   0  0  0  0  0  0
  -29.8100  -25.5410   20.9911 H   0  0  0  0  0  0
  -29.2304  -26.9187   21.8830 H   0  0  0  0  0  0
  -26.9608  -25.6679   22.0144 H   0  0  0  0  0  0
  -29.3421  -15.1343   21.8674 H   0  0  0  0  0  0
  -28.6893  -20.0508   22.1541 H   0  0  0  0  0  0
  -29.0685  -24.4166   23.5677 H   0  0  0  0  0  0
  -27.4987  -24.5982   23.9485 H   0  0  0  0  0  0
  -28.4540  -25.9045   23.8648 H   0  0  0  0  0  0
  1 25  1  0  0  0
  1 30  2  0  0  0
  1 83  1  0  0  0
  2  3  1  0  0  0
  2 25  1  0  0  0
  2 91  1  0  0  0
  2 92  1  0  0  0
  3  4  1  0  0  0
  3 93  1  0  0  0
  3 94  1  0  0  0
  4  5  1  0  0  0
  4 95  1  0  0  0
  4 96  1  0  0  0
  5  6  1  0  0  0
  5 26  1  0  0  0
  5 97  1  0  0  0
  6 25  1  0  0  0
  6 98  1  0  0  0
  6 99  1  0  0  0
  7  8  2  0  0  0
  7 26  1  0  0  0
  7 29  1  0  0  0
  8  9  1  0  0  0
  8 22  1  0  0  0
  9 10  1  0  0  0
  9 27  2  0  0  0
 10 11  2  0  0  0
 10 15  1  0  0  0
 11 12  1  0  0  0
 11100  1  0  0  0
 12 13  2  0  0  0
 12101  1  0  0  0
 13 14  1  0  0  0
 13 31  1  0  0  0
 14 15  2  0  0  0
 14102  1  0  0  0
 15103  1  0  0  0
 16 17  2  0  0  0
 16 21  1  0  0  0
 16 31  1  0  0  0
 17 18  1  0  0  0
 17104  1  0  0  0
 18 19  2  0  0  0
 18105  1  0  0  0
 19 20  1  0  0  0
 19 24  1  0  0  0
 20 21  2  0  0  0
 20106  1  0  0  0
 21 23  1  0  0  0
 22 28  1  0  0  0
 22 32  2  0  0  0
 26 27  1  0  0  0
 28107  1  0  0  0
 28108  1  0  0  0
 29109  1  0  0  0
 29110  1  0  0  0
 33 34  1  0  0  0
 33 66  1  0  0  0
 33 70  2  0  0  0
 34 36  1  0  0  0
 34 59  1  0  0  0
 34111  1  0  0  0
 35 44  2  0  0  0
 35 45  1  0  0  0
 35 68  1  0  0  0
 36 56  1  0  0  0
 36112  1  0  0  0
 37 39  1  0  0  0
 37 47  1  0  0  0
 37 66  1  0  0  0
 37113  1  0  0  0
 38 43  2  0  0  0
 38 46  1  0  0  0
 38 47  1  0  0  0
 39 64  1  0  0  0
 39 67  2  0  0  0
 40 52  1  0  0  0
 40 53  2  0  0  0
 40 58  1  0  0  0
 41114  1  0  0  0
 41115  1  0  0  0
 41116  1  0  0  0
 41 48  1  0  0  0
 42 43  1  0  0  0
 42 66  1  0  0  0
 42117  1  0  0  0
 42118  1  0  0  0
 43 44  1  0  0  0
 44119  1  0  0  0
 45 46  2  0  0  0
 45120  1  0  0  0
 46121  1  0  0  0
 47122  1  0  0  0
 47123  1  0  0  0
 48 56  1  0  0  0
 48 65  1  0  0  0
 48124  1  0  0  0
 49 50  1  0  0  0
 49 53  1  0  0  0
 49 64  1  0  0  0
 49125  1  0  0  0
 50 51  1  0  0  0
 50126  1  0  0  0
 50127  1  0  0  0
 51 52  1  0  0  0
 51128  1  0  0  0
 51129  1  0  0  0
 52130  1  0  0  0
 52131  1  0  0  0
 53 54  1  0  0  0
 54 55  2  0  0  0
 54132  1  0  0  0
 55 57  1  0  0  0
 55133  1  0  0  0
 56 69  2  0  0  0
 57 58  2  0  0  0
 57134  1  0  0  0
 58135  1  0  0  0
 59 60  1  0  0  0
 59 61  1  0  0  0
 59 62  1  0  0  0
 60136  1  0  0  0
 60137  1  0  0  0
 60138  1  0  0  0
 61139  1  0  0  0
 61140  1  0  0  0
 61141  1  0  0  0
 62142  1  0  0  0
 62143  1  0  0  0
 62144  1  0  0  0
 63 65  1  0  0  0
 63145  1  0  0  0
 63146  1  0  0  0
 63147  1  0  0  0
 64148  1  0  0  0
 65149  1  0  0  0
 68 80  1  0  0  0
 71 74  2  0  0  0
 71 75  1  0  0  0
 71150  1  0  0  0
 72 74  1  0  0  0
 72 76  2  0  0  0
 72151  1  0  0  0
 73 75  2  0  0  0
 73 76  1  0  0  0
 73 82  1  0  0  0
 74 83  1  0  0  0
 75 84  1  0  0  0
 76 87  1  0  0  0
 77 78  1  0  0  0
 77 79  1  0  0  0
 77 86  2  0  0  0
 78 81  1  0  0  0
 78152  1  0  0  0
 78153  1  0  0  0
 79 84  1  0  0  0
 79154  1  0  0  0
 79155  1  0  0  0
 80 81  1  0  0  0
 80156  1  0  0  0
 80157  1  0  0  0
 81 85  1  0  0  0
 81158  1  0  0  0
 82 88  1  0  0  0
 82 89  1  0  0  0
 82 90  1  0  0  0
 83159  1  0  0  0
 84160  1  0  0  0
 85161  1  0  0  0
 85162  1  0  0  0
 85163  1  0  0  0
M  CHG  1  85   1
M  ISO  4   1 100  68 101  80 101  83 100
M  END
> <chiral flag>
0

> <version>
0

> <s_m_source_file>
/data/baiqing/PycharmProjects/Reinvent-master-3.2/result/LINK_invent/BTK/process_docking_weight1_custom_product_contain_oxygen_bond_distance_aromatic_linkinvent_7_9_3/rearranged_h_0172.sdf

> <i_m_source_file_index>
26

> <r_mmod_Potential_Energy-OPLS-2005>
-17.3368263244629

> <r_mmod_Stretch_Energy-OPLS-2005>
47.7593727111816

> <r_mmod_Bend_Energy-OPLS-2005>
122.658843994141

> <r_mmod_Torsional_Energy-OPLS-2005>
263.833679199219

> <r_mmod_Improper_Torsional_Energy-OPLS-2005>
10.7707290649414

> <r_mmod_Van_der_Waal_Energy-OPLS-2005>
153.075088500977

> <r_mmod_Electrostatic_Energy-OPLS-2005>
-152.453399658203

> <r_mmod_Solvation_Energy-OPLS-2005>
-475.256591796875

> <b_mmod_Minimization_Converged-OPLS-2005>
0

> <r_mmod_RMS_Derivative-OPLS-2005>
4.57686758041382

$$$$
26
                    3D
 Structure written by MMmdl.
154162  0  0  1  0            999 V2000
  -30.6622  -14.5550   20.5371 C   0  0  0  0  0  0
  -30.4269  -12.3440   19.4519 C   0  0  0  0  0  0
  -29.5090  -12.5087   18.2214 C   0  0  0  0  0  0
  -28.0270  -12.3686   18.6236 C   0  0  0  0  0  0
  -27.6589  -13.2196   19.8717 C   0  0  2  0  0  0
  -28.6940  -13.0362   21.0016 C   0  0  0  0  0  0
  -25.2551  -13.8156   20.5645 C   0  0  0  0  0  0
  -24.1807  -13.0435   20.9143 C   0  0  0  0  0  0
  -24.6391  -11.6904   20.8716 C   0  0  0  0  0  0
  -23.9075  -10.4288   21.0382 C   0  0  0  0  0  0
  -24.3618   -9.4216   21.9177 C   0  0  0  0  0  0
  -23.6314   -8.2241   22.0742 C   0  0  0  0  0  0
  -22.4306   -8.0271   21.3523 C   0  0  0  0  0  0
  -21.9916   -9.0239   20.4639 C   0  0  0  0  0  0
  -22.7236  -10.2124   20.3048 C   0  0  0  0  0  0
  -21.6861   -6.0754   22.5282 C   0  0  0  0  0  0
  -21.4028   -6.5644   23.8219 C   0  0  0  0  0  0
  -21.3657   -5.6789   24.9173 C   0  0  0  0  0  0
  -21.6041   -4.3053   24.7203 C   0  0  0  0  0  0
  -21.8813   -3.8161   23.4324 C   0  0  0  0  0  0
  -21.9186   -4.6978   22.3381 C   0  0  0  0  0  0
  -22.7828  -13.5246   21.1790 C   0  0  0  0  0  0
  -22.1652   -4.2163   21.0966 F   0  0  0  0  0  0
  -21.5624   -3.4544   25.7714 F   0  0  0  0  0  0
  -30.0236  -13.3484   20.4537 N   0  0  0  0  0  0
  -26.3004  -12.9359   20.3329 N   0  0  0  0  0  0
  -25.9325  -11.6502   20.5748 N   0  0  0  0  0  0
  -22.0455  -12.8279   22.0371 N   0  0  0  0  0  0
  -25.4293  -15.1863   20.4016 N   0  0  0  0  0  0
  -31.8130  -14.7103   20.1100 O   0  0  0  0  0  0
  -21.6653   -6.8884   21.4235 O   0  0  0  0  0  0
  -22.3530  -14.5550   20.6621 O   0  0  0  0  0  0
  -24.6193  -31.8631   23.2030 C   0  0  0  0  0  0
  -25.9066  -32.4791   23.8342 C   0  0  1  0  0  0
  -27.2420  -27.3826   20.1164 C   0  0  0  0  0  0
  -25.5893  -33.8593   24.2274 N   0  0  0  0  0  0
  -23.4098  -30.4838   21.5431 C   0  0  2  0  0  0
  -24.8582  -28.9369   20.1114 C   0  0  0  0  0  0
  -22.7418  -29.4627   22.4949 C   0  0  0  0  0  0
  -18.0274  -28.1369   22.8483 C   0  0  0  0  0  0
  -24.1491  -36.7315   23.2640 C   0  0  0  0  0  0
  -25.9410  -30.8125   21.3613 C   0  0  0  0  0  0
  -26.0156  -29.4409   20.7149 C   0  0  0  0  0  0
  -27.2030  -28.6684   20.7158 C   0  0  0  0  0  0
  -26.0632  -26.9067   19.4959 C   0  0  0  0  0  0
  -24.8794  -27.6721   19.4969 C   0  0  0  0  0  0
  -23.6216  -29.8077   20.1598 C   0  0  0  0  0  0
  -25.4110  -36.3092   24.0332 C   0  0  1  0  0  0
  -20.5872  -28.3654   23.1298 C   0  0  2  0  0  0
  -20.6768  -26.9386   22.5412 C   0  0  0  0  0  0
  -19.5748  -26.6374   21.5207 C   0  0  0  0  0  0
  -18.1922  -26.7918   22.1609 C   0  0  0  0  0  0
  -19.1531  -28.8832   23.2889 C   0  0  0  0  0  0
  -18.9444  -30.1435   23.8904 C   0  0  0  0  0  0
  -17.6452  -30.6573   24.0560 C   0  0  0  0  0  0
  -25.9042  -34.9463   23.5099 C   0  0  0  0  0  0
  -16.5344  -29.9073   23.6329 C   0  0  0  0  0  0
  -16.7269  -28.6491   23.0351 C   0  0  0  0  0  0
  -26.4478  -31.6589   25.0694 C   0  0  0  0  0  0
  -25.3720  -31.3731   26.1428 C   0  0  0  0  0  0
  -27.0297  -30.3016   24.6091 C   0  0  0  0  0  0
  -27.6024  -32.4323   25.7473 C   0  0  0  0  0  0
  -27.5578  -37.1807   24.8456 C   0  0  0  0  0  0
  -21.4141  -29.3019   22.3701 N   0  0  0  0  0  0
  -26.4288  -37.3774   23.9409 N   0  0  0  0  0  0
  -24.6756  -31.0702   22.0935 N   0  0  0  0  0  0
  -23.4167  -28.8182   23.3021 O   0  0  0  0  0  0
  -28.4201  -26.6471   20.1835 O   0  0  0  0  0  0
  -26.5609  -34.8924   22.4660 O   0  0  0  0  0  0
  -23.5375  -32.1396   23.7389 O   0  0  0  0  0  0
  -29.4898  -18.1912   18.3505 C   0  0  0  0  0  0
  -29.6038  -19.3808   19.0946 C   0  0  0  0  0  0
  -29.5899  -16.9515   18.9992 C   0  0  0  0  0  0
  -29.7855  -19.2900   20.4936 C   0  0  0  0  0  0
  -29.8501  -16.9099   20.3927 C   0  0  0  0  0  0
  -29.3335  -22.9220   20.6189 C   0  0  0  0  0  0
  -28.3023  -24.1268   20.5752 C   0  0  0  0  0  0
  -28.9277  -21.5599   21.2698 C   0  0  0  0  0  0
  -28.5623  -25.3184   19.5991 C   0  0  0  0  0  0
  -29.9174  -18.0813   21.1160 N   0  0  0  0  0  0
  -29.6196  -20.6170   18.4439 N   0  0  0  0  0  0
  -29.9323  -15.6043   21.0025 N   0  0  0  0  0  0
  -29.9415  -20.4619   21.2758 N   0  0  0  0  0  0
  -30.4684  -23.0585   20.1413 O   0  0  0  0  0  0
  -27.2904  -24.1096   21.2895 O   0  0  0  0  0  0
  -29.4314  -15.8189   18.2774 F   0  0  0  0  0  0
  -31.4736  -12.4429   19.1618 H   0  0  0  0  0  0
  -30.3286  -11.3407   19.8649 H   0  0  0  0  0  0
  -29.7616  -11.7709   17.4597 H   0  0  0  0  0  0
  -29.6790  -13.4829   17.7645 H   0  0  0  0  0  0
  -27.8455  -11.3146   18.8302 H   0  0  0  0  0  0
  -27.3784  -12.6314   17.7865 H   0  0  0  0  0  0
  -27.6932  -14.2631   19.5567 H   0  0  0  0  0  0
  -28.6732  -12.0087   21.3679 H   0  0  0  0  0  0
  -28.4477  -13.6586   21.8619 H   0  0  0  0  0  0
  -25.2728   -9.5736   22.4774 H   0  0  0  0  0  0
  -24.0008   -7.4653   22.7476 H   0  0  0  0  0  0
  -21.0830   -8.8760   19.8982 H   0  0  0  0  0  0
  -22.3651  -10.9656   19.6175 H   0  0  0  0  0  0
  -21.2057   -7.6161   23.9722 H   0  0  0  0  0  0
  -21.1482   -6.0526   25.9069 H   0  0  0  0  0  0
  -22.0603   -2.7636   23.2808 H   0  0  0  0  0  0
  -22.4041  -11.9978   22.4836 H   0  0  0  0  0  0
  -21.1065  -13.1313   22.2525 H   0  0  0  0  0  0
  -24.6564  -15.8373   20.4813 H   0  0  0  0  0  0
  -26.2800  -15.6197   20.0675 H   0  0  0  0  0  0
  -26.7129  -32.5482   23.1094 H   0  0  0  0  0  0
  -25.0041  -33.9736   25.0423 H   0  0  0  0  0  0
  -22.6999  -31.3004   21.3968 H   0  0  0  0  0  0
  -23.3728  -35.9664   23.3308 H   0  0  0  0  0  0
  -24.3590  -36.8929   22.2049 H   0  0  0  0  0  0
  -23.7271  -37.6531   23.6664 H   0  0  0  0  0  0
  -26.0543  -31.5681   20.5826 H   0  0  0  0  0  0
  -26.8310  -30.8732   21.9765 H   0  0  0  0  0  0
  -28.0914  -29.0520   21.1976 H   0  0  0  0  0  0
  -26.0322  -25.9353   19.0273 H   0  0  0  0  0  0
  -23.9888  -27.2776   19.0257 H   0  0  0  0  0  0
  -23.7293  -30.5773   19.3955 H   0  0  0  0  0  0
  -22.7473  -29.2218   19.8694 H   0  0  0  0  0  0
  -25.1291  -36.1936   25.0822 H   0  0  0  0  0  0
  -20.9961  -28.3230   24.1418 H   0  0  0  0  0  0
  -20.5652  -26.2262   23.3599 H   0  0  0  0  0  0
  -21.6638  -26.7415   22.1221 H   0  0  0  0  0  0
  -19.6912  -25.6282   21.1240 H   0  0  0  0  0  0
  -19.6713  -27.3184   20.6735 H   0  0  0  0  0  0
  -17.4201  -26.6655   21.4004 H   0  0  0  0  0  0
  -18.0323  -26.0059   22.8998 H   0  0  0  0  0  0
  -19.7932  -30.7242   24.2269 H   0  0  0  0  0  0
  -17.5015  -31.6257   24.5139 H   0  0  0  0  0  0
  -15.5347  -30.2972   23.7661 H   0  0  0  0  0  0
  -15.8660  -28.0819   22.7058 H   0  0  0  0  0  0
  -24.5865  -30.7110   25.7783 H   0  0  0  0  0  0
  -24.8944  -32.2900   26.4880 H   0  0  0  0  0  0
  -25.8050  -30.8892   27.0189 H   0  0  0  0  0  0
  -26.2846  -29.6772   24.1135 H   0  0  0  0  0  0
  -27.4047  -29.7264   25.4578 H   0  0  0  0  0  0
  -27.8704  -30.4333   23.9263 H   0  0  0  0  0  0
  -27.2604  -33.3598   26.2082 H   0  0  0  0  0  0
  -28.3817  -32.6920   25.0296 H   0  0  0  0  0  0
  -28.0700  -31.8420   26.5362 H   0  0  0  0  0  0
  -28.2590  -38.0111   24.7487 H   0  0  0  0  0  0
  -28.1075  -36.2631   24.6291 H   0  0  0  0  0  0
  -27.2295  -37.1477   25.8860 H   0  0  0  0  0  0
  -20.9304  -29.8722   21.6913 H   0  0  0  0  0  0
  -26.0169  -38.2852   24.1378 H   0  0  0  0  0  0
  -29.3428  -18.2180   17.2810 H   0  0  0  0  0  0
  -28.0047  -21.2130   20.8061 H   0  0  0  0  0  0
  -28.6818  -21.7733   22.3113 H   0  0  0  0  0  0
  -27.9521  -25.2048   18.7050 H   0  0  0  0  0  0
  -29.5904  -25.2504   19.2489 H   0  0  0  0  0  0
  -29.9638  -20.6162   17.4875 H   0  0  0  0  0  0
  -30.0889  -21.3372   18.9942 H   0  0  0  0  0  0
  -29.1083  -15.3480   21.5228 H   0  0  0  0  0  0
  -30.3461  -20.2990   22.1888 H   0  0  0  0  0  0
  1 25  1  0  0  0
  1 30  2  0  0  0
  1 82  1  0  0  0
  2  3  1  0  0  0
  2 25  1  0  0  0
  2 87  1  0  0  0
  2 88  1  0  0  0
  3  4  1  0  0  0
  3 89  1  0  0  0
  3 90  1  0  0  0
  4  5  1  0  0  0
  4 91  1  0  0  0
  4 92  1  0  0  0
  5  6  1  0  0  0
  5 26  1  0  0  0
  5 93  1  0  0  0
  6 25  1  0  0  0
  6 94  1  0  0  0
  6 95  1  0  0  0
  7  8  2  0  0  0
  7 26  1  0  0  0
  7 29  1  0  0  0
  8  9  1  0  0  0
  8 22  1  0  0  0
  9 10  1  0  0  0
  9 27  2  0  0  0
 10 11  2  0  0  0
 10 15  1  0  0  0
 11 12  1  0  0  0
 11 96  1  0  0  0
 12 13  2  0  0  0
 12 97  1  0  0  0
 13 14  1  0  0  0
 13 31  1  0  0  0
 14 15  2  0  0  0
 14 98  1  0  0  0
 15 99  1  0  0  0
 16 17  2  0  0  0
 16 21  1  0  0  0
 16 31  1  0  0  0
 17 18  1  0  0  0
 17100  1  0  0  0
 18 19  2  0  0  0
 18101  1  0  0  0
 19 20  1  0  0  0
 19 24  1  0  0  0
 20 21  2  0  0  0
 20102  1  0  0  0
 21 23  1  0  0  0
 22 28  1  0  0  0
 22 32  2  0  0  0
 26 27  1  0  0  0
 28103  1  0  0  0
 28104  1  0  0  0
 29105  1  0  0  0
 29106  1  0  0  0
 33 34  1  0  0  0
 33 66  1  0  0  0
 33 70  2  0  0  0
 34 36  1  0  0  0
 34 59  1  0  0  0
 34107  1  0  0  0
 35 44  2  0  0  0
 35 45  1  0  0  0
 35 68  1  0  0  0
 36 56  1  0  0  0
 36108  1  0  0  0
 37 39  1  0  0  0
 37 47  1  0  0  0
 37 66  1  0  0  0
 37109  1  0  0  0
 38 43  2  0  0  0
 38 46  1  0  0  0
 38 47  1  0  0  0
 39 64  1  0  0  0
 39 67  2  0  0  0
 40 52  1  0  0  0
 40 53  2  0  0  0
 40 58  1  0  0  0
 41110  1  0  0  0
 41111  1  0  0  0
 41112  1  0  0  0
 41 48  1  0  0  0
 42 43  1  0  0  0
 42 66  1  0  0  0
 42113  1  0  0  0
 42114  1  0  0  0
 43 44  1  0  0  0
 44115  1  0  0  0
 45 46  2  0  0  0
 45116  1  0  0  0
 46117  1  0  0  0
 47118  1  0  0  0
 47119  1  0  0  0
 48 56  1  0  0  0
 48 65  1  0  0  0
 48120  1  0  0  0
 49 50  1  0  0  0
 49 53  1  0  0  0
 49 64  1  0  0  0
 49121  1  0  0  0
 50 51  1  0  0  0
 50122  1  0  0  0
 50123  1  0  0  0
 51 52  1  0  0  0
 51124  1  0  0  0
 51125  1  0  0  0
 52126  1  0  0  0
 52127  1  0  0  0
 53 54  1  0  0  0
 54 55  2  0  0  0
 54128  1  0  0  0
 55 57  1  0  0  0
 55129  1  0  0  0
 56 69  2  0  0  0
 57 58  2  0  0  0
 57130  1  0  0  0
 58131  1  0  0  0
 59 60  1  0  0  0
 59 61  1  0  0  0
 59 62  1  0  0  0
 60132  1  0  0  0
 60133  1  0  0  0
 60134  1  0  0  0
 61135  1  0  0  0
 61136  1  0  0  0
 61137  1  0  0  0
 62138  1  0  0  0
 62139  1  0  0  0
 62140  1  0  0  0
 63 65  1  0  0  0
 63141  1  0  0  0
 63142  1  0  0  0
 63143  1  0  0  0
 64144  1  0  0  0
 65145  1  0  0  0
 68 79  1  0  0  0
 71 72  2  0  0  0
 71 73  1  0  0  0
 71146  1  0  0  0
 72 74  1  0  0  0
 72 81  1  0  0  0
 73 75  2  0  0  0
 73 86  1  0  0  0
 74 80  2  0  0  0
 74 83  1  0  0  0
 75 80  1  0  0  0
 75 82  1  0  0  0
 76 77  1  0  0  0
 76 78  1  0  0  0
 76 84  2  0  0  0
 77 79  1  0  0  0
 77 85  2  0  0  0
 78 83  1  0  0  0
 78147  1  0  0  0
 78148  1  0  0  0
 79149  1  0  0  0
 79150  1  0  0  0
 81151  1  0  0  0
 81152  1  0  0  0
 82153  1  0  0  0
 83154  1  0  0  0
M  ISO  4   1 100  68 101  79 101  82 100
M  END
> <chiral flag>
0

> <version>
0

> <s_m_source_file>
/data/baiqing/PycharmProjects/Reinvent-master-3.2/result/LINK_invent/BTK/process_docking_weight1_custom_product_contain_oxygen_bond_distance_aromatic_linkinvent_7_9_3/rearranged_h_0172.sdf

> <i_m_source_file_index>
27

> <r_mmod_Potential_Energy-OPLS-2005>
-153.088333129883

> <r_mmod_Stretch_Energy-OPLS-2005>
59.6751823425293

> <r_mmod_Bend_Energy-OPLS-2005>
124.960220336914

> <r_mmod_Torsional_Energy-OPLS-2005>
251.422836303711

> <r_mmod_Improper_Torsional_Energy-OPLS-2005>
13.912543296814

> <r_mmod_Van_der_Waal_Energy-OPLS-2005>
153.828491210938

> <r_mmod_Electrostatic_Energy-OPLS-2005>
-523.168334960938

> <r_mmod_Solvation_Energy-OPLS-2005>
-258.690338134766

> <b_mmod_Minimization_Converged-OPLS-2005>
0

> <r_mmod_RMS_Derivative-OPLS-2005>
3.94859886169434

$$$$
27
                    3D
 Structure written by MMmdl.
158166  0  0  1  0            999 V2000
  -30.7257  -14.5077   20.5168 C   0  0  0  0  0  0
  -30.4066  -12.3134   19.4456 C   0  0  0  0  0  0
  -29.4928  -12.4955   18.2168 C   0  0  0  0  0  0
  -28.0146  -12.3627   18.6263 C   0  0  0  0  0  0
  -27.6544  -13.2223   19.8681 C   0  0  2  0  0  0
  -28.6978  -13.0655   20.9982 C   0  0  0  0  0  0
  -25.2543  -13.8197   20.5691 C   0  0  0  0  0  0
  -24.1815  -13.0448   20.9173 C   0  0  0  0  0  0
  -24.6393  -11.6925   20.8743 C   0  0  0  0  0  0
  -23.9072  -10.4298   21.0404 C   0  0  0  0  0  0
  -24.3627   -9.4214   21.9182 C   0  0  0  0  0  0
  -23.6302   -8.2245   22.0755 C   0  0  0  0  0  0
  -22.4283   -8.0281   21.3546 C   0  0  0  0  0  0
  -21.9916   -9.0251   20.4643 C   0  0  0  0  0  0
  -22.7244  -10.2129   20.3050 C   0  0  0  0  0  0
  -21.6849   -6.0740   22.5280 C   0  0  0  0  0  0
  -21.4013   -6.5644   23.8218 C   0  0  0  0  0  0
  -21.3661   -5.6794   24.9176 C   0  0  0  0  0  0
  -21.6045   -4.3056   24.7224 C   0  0  0  0  0  0
  -21.8820   -3.8151   23.4345 C   0  0  0  0  0  0
  -21.9197   -4.6970   22.3401 C   0  0  0  0  0  0
  -22.7833  -13.5228   21.1840 C   0  0  0  0  0  0
  -22.1665   -4.2154   21.0976 F   0  0  0  0  0  0
  -21.5628   -3.4539   25.7736 F   0  0  0  0  0  0
  -30.0260  -13.3413   20.4319 N   0  0  0  0  0  0
  -26.2992  -12.9397   20.3363 N   0  0  0  0  0  0
  -25.9330  -11.6547   20.5791 N   0  0  0  0  0  0
  -22.0487  -12.8213   22.0401 N   0  0  0  0  0  0
  -25.4251  -15.1917   20.4131 N   0  0  0  0  0  0
  -31.8793  -14.5786   20.0940 O   0  0  0  0  0  0
  -21.6644   -6.8880   21.4241 O   0  0  0  0  0  0
  -22.3514  -14.5534   20.6694 O   0  0  0  0  0  0
  -24.6178  -31.8656   23.2098 C   0  0  0  0  0  0
  -25.9065  -32.4802   23.8397 C   0  0  1  0  0  0
  -27.2245  -27.4103   20.1064 C   0  0  0  0  0  0
  -25.5933  -33.8606   24.2337 N   0  0  0  0  0  0
  -23.4072  -30.4904   21.5488 C   0  0  2  0  0  0
  -24.8547  -28.9572   20.1104 C   0  0  0  0  0  0
  -22.7429  -29.4652   22.4968 C   0  0  0  0  0  0
  -18.0277  -28.1375   22.8487 C   0  0  0  0  0  0
  -24.1489  -36.7291   23.2639 C   0  0  0  0  0  0
  -25.9398  -30.8245   21.3672 C   0  0  0  0  0  0
  -26.0170  -29.4596   20.7099 C   0  0  0  0  0  0
  -27.2101  -28.6952   20.7016 C   0  0  0  0  0  0
  -26.0501  -26.9353   19.4847 C   0  0  0  0  0  0
  -24.8675  -27.6962   19.4908 C   0  0  0  0  0  0
  -23.6176  -29.8256   20.1628 C   0  0  0  0  0  0
  -25.4108  -36.3096   24.0347 C   0  0  1  0  0  0
  -20.5872  -28.3657   23.1310 C   0  0  2  0  0  0
  -20.6767  -26.9391   22.5415 C   0  0  0  0  0  0
  -19.5754  -26.6373   21.5205 C   0  0  0  0  0  0
  -18.1927  -26.7926   22.1607 C   0  0  0  0  0  0
  -19.1529  -28.8835   23.2892 C   0  0  0  0  0  0
  -18.9452  -30.1442   23.8901 C   0  0  0  0  0  0
  -17.6451  -30.6582   24.0563 C   0  0  0  0  0  0
  -25.9041  -34.9464   23.5132 C   0  0  0  0  0  0
  -16.5342  -29.9078   23.6336 C   0  0  0  0  0  0
  -16.7261  -28.6496   23.0351 C   0  0  0  0  0  0
  -26.4495  -31.6584   25.0728 C   0  0  0  0  0  0
  -25.3767  -31.3679   26.1481 C   0  0  0  0  0  0
  -27.0325  -30.3029   24.6105 C   0  0  0  0  0  0
  -27.6081  -32.4304   25.7477 C   0  0  0  0  0  0
  -27.5584  -37.1797   24.8465 C   0  0  0  0  0  0
  -21.4153  -29.3028   22.3712 N   0  0  0  0  0  0
  -26.4286  -37.3787   23.9425 N   0  0  0  0  0  0
  -24.6732  -31.0743   22.0999 N   0  0  0  0  0  0
  -23.4191  -28.8186   23.3013 O   0  0  0  0  0  0
  -28.3387  -26.5960   20.1506 O   0  0  0  0  0  0
  -26.5578  -34.8920   22.4678 O   0  0  0  0  0  0
  -23.5366  -32.1413   23.7482 O   0  0  0  0  0  0
  -32.0621  -18.7984   20.3734 C   0  0  0  0  0  0
  -31.0667  -19.7749   20.5314 C   0  0  0  0  0  0
  -31.7497  -17.4354   20.5105 C   0  0  0  0  0  0
  -29.7389  -19.4022   20.8300 C   0  0  0  0  0  0
  -30.4242  -17.0070   20.7888 C   0  0  0  0  0  0
  -29.4266  -18.0103   20.9560 C   0  0  0  0  0  0
  -28.7243  -20.4965   21.0867 C   0  0  0  0  0  0
  -26.8093  -22.7451   19.3241 C   0  0  0  0  0  0
  -28.7291  -24.1060   20.2950 C   0  0  0  0  0  0
  -25.3937  -23.1098   19.7550 C   0  0  0  0  0  0
  -28.1080  -25.3843   20.9158 C   0  0  0  0  0  0
  -27.9061  -22.7835   20.3987 C   0  0  2  0  0  0
  -30.0482  -15.6125   20.9193 N   0  0  0  0  0  0
  -28.7410  -21.5646   20.2634 N   0  0  0  0  0  0
  -27.9095  -20.3969   22.0059 O   0  0  0  0  0  0
  -27.0160  -22.4069   18.1543 O   0  0  0  0  0  0
  -29.8483  -24.1558   19.7683 O   0  0  0  0  0  0
  -28.1590  -17.6087   21.2260 F   0  0  0  0  0  0
  -31.4543  -12.3735   19.1473 H   0  0  0  0  0  0
  -30.2818  -11.3179   19.8734 H   0  0  0  0  0  0
  -29.7378  -11.7580   17.4511 H   0  0  0  0  0  0
  -29.6650  -13.4750   17.7668 H   0  0  0  0  0  0
  -27.8259  -11.3091   18.8367 H   0  0  0  0  0  0
  -27.3658  -12.6237   17.7889 H   0  0  0  0  0  0
  -27.6796  -14.2628   19.5429 H   0  0  0  0  0  0
  -28.6718  -12.0540   21.4068 H   0  0  0  0  0  0
  -28.4674  -13.7292   21.8328 H   0  0  0  0  0  0
  -25.2772   -9.5690   22.4758 H   0  0  0  0  0  0
  -24.0015   -7.4636   22.7472 H   0  0  0  0  0  0
  -21.0850   -8.8760   19.8948 H   0  0  0  0  0  0
  -22.3703  -10.9664   19.6157 H   0  0  0  0  0  0
  -21.1998   -7.6152   23.9720 H   0  0  0  0  0  0
  -21.1483   -6.0522   25.9078 H   0  0  0  0  0  0
  -22.0599   -2.7612   23.2837 H   0  0  0  0  0  0
  -22.4107  -11.9866   22.4763 H   0  0  0  0  0  0
  -21.1108  -13.1233   22.2618 H   0  0  0  0  0  0
  -24.6622  -15.8486   20.5359 H   0  0  0  0  0  0
  -26.2895  -15.6403   20.1374 H   0  0  0  0  0  0
  -26.7136  -32.5514   23.1159 H   0  0  0  0  0  0
  -25.0159  -33.9762   25.0536 H   0  0  0  0  0  0
  -22.6981  -31.3090   21.4099 H   0  0  0  0  0  0
  -23.3763  -35.9609   23.3280 H   0  0  0  0  0  0
  -24.3589  -36.8918   22.2058 H   0  0  0  0  0  0
  -23.7225  -37.6485   23.6658 H   0  0  0  0  0  0
  -26.0604  -31.5919   20.6016 H   0  0  0  0  0  0
  -26.8249  -30.8726   21.9889 H   0  0  0  0  0  0
  -28.1053  -29.0716   21.1765 H   0  0  0  0  0  0
  -26.0429  -25.9680   19.0042 H   0  0  0  0  0  0
  -23.9758  -27.3061   19.0199 H   0  0  0  0  0  0
  -23.7301  -30.6021   19.4058 H   0  0  0  0  0  0
  -22.7416  -29.2475   19.8626 H   0  0  0  0  0  0
  -25.1287  -36.1944   25.0839 H   0  0  0  0  0  0
  -20.9968  -28.3208   24.1429 H   0  0  0  0  0  0
  -20.5655  -26.2259   23.3593 H   0  0  0  0  0  0
  -21.6638  -26.7422   22.1209 H   0  0  0  0  0  0
  -19.6900  -25.6284   21.1228 H   0  0  0  0  0  0
  -19.6703  -27.3190   20.6741 H   0  0  0  0  0  0
  -17.4204  -26.6691   21.3998 H   0  0  0  0  0  0
  -18.0310  -26.0056   22.8986 H   0  0  0  0  0  0
  -19.7932  -30.7258   24.2263 H   0  0  0  0  0  0
  -17.5012  -31.6270   24.5154 H   0  0  0  0  0  0
  -15.5345  -30.2978   23.7669 H   0  0  0  0  0  0
  -15.8660  -28.0818   22.7062 H   0  0  0  0  0  0
  -24.5978  -30.6973   25.7835 H   0  0  0  0  0  0
  -24.8911  -32.2818   26.4919 H   0  0  0  0  0  0
  -25.8144  -30.8883   27.0246 H   0  0  0  0  0  0
  -26.2861  -29.6779   24.1189 H   0  0  0  0  0  0
  -27.4130  -29.7281   25.4558 H   0  0  0  0  0  0
  -27.8691  -30.4348   23.9238 H   0  0  0  0  0  0
  -27.2725  -33.3621   26.2046 H   0  0  0  0  0  0
  -28.3893  -32.6827   25.0293 H   0  0  0  0  0  0
  -28.0746  -31.8427   26.5391 H   0  0  0  0  0  0
  -28.2588  -38.0109   24.7543 H   0  0  0  0  0  0
  -28.1095  -36.2646   24.6247 H   0  0  0  0  0  0
  -27.2310  -37.1392   25.8868 H   0  0  0  0  0  0
  -20.9304  -29.8754   21.6944 H   0  0  0  0  0  0
  -26.0165  -38.2856   24.1452 H   0  0  0  0  0  0
  -33.0793  -19.0965   20.1592 H   0  0  0  0  0  0
  -31.3402  -20.8182   20.4497 H   0  0  0  0  0  0
  -32.5728  -16.7492   20.3982 H   0  0  0  0  0  0
  -25.3941  -23.9797   20.4098 H   0  0  0  0  0  0
  -24.9476  -22.2763   20.2972 H   0  0  0  0  0  0
  -24.7718  -23.3323   18.8891 H   0  0  0  0  0  0
  -28.5517  -25.5222   21.9014 H   0  0  0  0  0  0
  -27.0479  -25.2101   21.0931 H   0  0  0  0  0  0
  -27.4234  -22.7828   21.3767 H   0  0  0  0  0  0
  -29.0970  -15.4538   21.2159 H   0  0  0  0  0  0
  -29.4091  -21.5737   19.5064 H   0  0  0  0  0  0
  1 25  1  0  0  0
  1 30  2  0  0  0
  1 83  1  0  0  0
  2  3  1  0  0  0
  2 25  1  0  0  0
  2 89  1  0  0  0
  2 90  1  0  0  0
  3  4  1  0  0  0
  3 91  1  0  0  0
  3 92  1  0  0  0
  4  5  1  0  0  0
  4 93  1  0  0  0
  4 94  1  0  0  0
  5  6  1  0  0  0
  5 26  1  0  0  0
  5 95  1  0  0  0
  6 25  1  0  0  0
  6 96  1  0  0  0
  6 97  1  0  0  0
  7  8  2  0  0  0
  7 26  1  0  0  0
  7 29  1  0  0  0
  8  9  1  0  0  0
  8 22  1  0  0  0
  9 10  1  0  0  0
  9 27  2  0  0  0
 10 11  2  0  0  0
 10 15  1  0  0  0
 11 12  1  0  0  0
 11 98  1  0  0  0
 12 13  2  0  0  0
 12 99  1  0  0  0
 13 14  1  0  0  0
 13 31  1  0  0  0
 14 15  2  0  0  0
 14100  1  0  0  0
 15101  1  0  0  0
 16 17  2  0  0  0
 16 21  1  0  0  0
 16 31  1  0  0  0
 17 18  1  0  0  0
 17102  1  0  0  0
 18 19  2  0  0  0
 18103  1  0  0  0
 19 20  1  0  0  0
 19 24  1  0  0  0
 20 21  2  0  0  0
 20104  1  0  0  0
 21 23  1  0  0  0
 22 28  1  0  0  0
 22 32  2  0  0  0
 26 27  1  0  0  0
 28105  1  0  0  0
 28106  1  0  0  0
 29107  1  0  0  0
 29108  1  0  0  0
 33 34  1  0  0  0
 33 66  1  0  0  0
 33 70  2  0  0  0
 34 36  1  0  0  0
 34 59  1  0  0  0
 34109  1  0  0  0
 35 44  2  0  0  0
 35 45  1  0  0  0
 35 68  1  0  0  0
 36 56  1  0  0  0
 36110  1  0  0  0
 37 39  1  0  0  0
 37 47  1  0  0  0
 37 66  1  0  0  0
 37111  1  0  0  0
 38 43  2  0  0  0
 38 46  1  0  0  0
 38 47  1  0  0  0
 39 64  1  0  0  0
 39 67  2  0  0  0
 40 52  1  0  0  0
 40 53  2  0  0  0
 40 58  1  0  0  0
 41112  1  0  0  0
 41113  1  0  0  0
 41114  1  0  0  0
 41 48  1  0  0  0
 42 43  1  0  0  0
 42 66  1  0  0  0
 42115  1  0  0  0
 42116  1  0  0  0
 43 44  1  0  0  0
 44117  1  0  0  0
 45 46  2  0  0  0
 45118  1  0  0  0
 46119  1  0  0  0
 47120  1  0  0  0
 47121  1  0  0  0
 48 56  1  0  0  0
 48 65  1  0  0  0
 48122  1  0  0  0
 49 50  1  0  0  0
 49 53  1  0  0  0
 49 64  1  0  0  0
 49123  1  0  0  0
 50 51  1  0  0  0
 50124  1  0  0  0
 50125  1  0  0  0
 51 52  1  0  0  0
 51126  1  0  0  0
 51127  1  0  0  0
 52128  1  0  0  0
 52129  1  0  0  0
 53 54  1  0  0  0
 54 55  2  0  0  0
 54130  1  0  0  0
 55 57  1  0  0  0
 55131  1  0  0  0
 56 69  2  0  0  0
 57 58  2  0  0  0
 57132  1  0  0  0
 58133  1  0  0  0
 59 60  1  0  0  0
 59 61  1  0  0  0
 59 62  1  0  0  0
 60134  1  0  0  0
 60135  1  0  0  0
 60136  1  0  0  0
 61137  1  0  0  0
 61138  1  0  0  0
 61139  1  0  0  0
 62140  1  0  0  0
 62141  1  0  0  0
 62142  1  0  0  0
 63 65  1  0  0  0
 63143  1  0  0  0
 63144  1  0  0  0
 63145  1  0  0  0
 64146  1  0  0  0
 65147  1  0  0  0
 68 81  1  0  0  0
 71 72  2  0  0  0
 71 73  1  0  0  0
 71148  1  0  0  0
 72 74  1  0  0  0
 72149  1  0  0  0
 73 75  2  0  0  0
 73150  1  0  0  0
 74 76  2  0  0  0
 74 77  1  0  0  0
 75 76  1  0  0  0
 75 83  1  0  0  0
 76 88  1  0  0  0
 77 84  1  0  0  0
 77 85  2  0  0  0
 78 80  1  0  0  0
 78 82  1  0  0  0
 78 86  2  0  0  0
 79 81  1  0  0  0
 79 82  1  0  0  0
 79 87  2  0  0  0
 80151  1  0  0  0
 80152  1  0  0  0
 80153  1  0  0  0
 81154  1  0  0  0
 81155  1  0  0  0
 82 84  1  0  0  0
 82156  1  0  0  0
 83157  1  0  0  0
 84158  1  0  0  0
M  ISO  4   1 100  68 101  81 101  83 100
M  END
> <chiral flag>
0

> <version>
0

> <s_m_source_file>
/data/baiqing/PycharmProjects/Reinvent-master-3.2/result/LINK_invent/BTK/process_docking_weight1_custom_product_contain_oxygen_bond_distance_aromatic_linkinvent_7_9_3/rearranged_h_0172.sdf

> <i_m_source_file_index>
28

> <r_mmod_Potential_Energy-OPLS-2005>
-232.693664550781

> <r_mmod_Stretch_Energy-OPLS-2005>
47.7513771057129

> <r_mmod_Bend_Energy-OPLS-2005>
100.517486572266

> <r_mmod_Torsional_Energy-OPLS-2005>
225.973861694336

> <r_mmod_Improper_Torsional_Energy-OPLS-2005>
4.24187755584717

> <r_mmod_Van_der_Waal_Energy-OPLS-2005>
152.998580932617

> <r_mmod_Electrostatic_Energy-OPLS-2005>
-542.805053710938

> <r_mmod_Solvation_Energy-OPLS-2005>
-244.606674194336

> <b_mmod_Minimization_Converged-OPLS-2005>
0

> <r_mmod_RMS_Derivative-OPLS-2005>
1.3846435546875

$$$$
28
                    3D
 Structure written by MMmdl.
153161  0  0  1  0            999 V2000
  -30.6594  -14.5412   20.4754 C   0  0  0  0  0  0
  -30.4250  -12.3245   19.4423 C   0  0  0  0  0  0
  -29.5001  -12.4837   18.2160 C   0  0  0  0  0  0
  -28.0212  -12.3415   18.6271 C   0  0  0  0  0  0
  -27.6540  -13.2085   19.8614 C   0  0  2  0  0  0
  -28.6967  -13.0447   20.9910 C   0  0  0  0  0  0
  -25.2572  -13.8160   20.5670 C   0  0  0  0  0  0
  -24.1830  -13.0438   20.9180 C   0  0  0  0  0  0
  -24.6383  -11.6903   20.8735 C   0  0  0  0  0  0
  -23.9048  -10.4293   21.0407 C   0  0  0  0  0  0
  -24.3606   -9.4210   21.9184 C   0  0  0  0  0  0
  -23.6286   -8.2245   22.0754 C   0  0  0  0  0  0
  -22.4269   -8.0282   21.3544 C   0  0  0  0  0  0
  -21.9897   -9.0253   20.4648 C   0  0  0  0  0  0
  -22.7220  -10.2134   20.3057 C   0  0  0  0  0  0
  -21.6852   -6.0733   22.5277 C   0  0  0  0  0  0
  -21.4015   -6.5637   23.8210 C   0  0  0  0  0  0
  -21.3656   -5.6790   24.9173 C   0  0  0  0  0  0
  -21.6045   -4.3053   24.7222 C   0  0  0  0  0  0
  -21.8820   -3.8144   23.4344 C   0  0  0  0  0  0
  -21.9192   -4.6961   22.3400 C   0  0  0  0  0  0
  -22.7858  -13.5243   21.1847 C   0  0  0  0  0  0
  -22.1663   -4.2147   21.0978 F   0  0  0  0  0  0
  -21.5626   -3.4536   25.7734 F   0  0  0  0  0  0
  -30.0220  -13.3394   20.4290 N   0  0  0  0  0  0
  -26.2987  -12.9324   20.3303 N   0  0  0  0  0  0
  -25.9306  -11.6488   20.5749 N   0  0  0  0  0  0
  -22.0494  -12.8244   22.0406 N   0  0  0  0  0  0
  -25.4308  -15.1878   20.4078 N   0  0  0  0  0  0
  -31.8505  -14.6683   20.1815 O   0  0  0  0  0  0
  -21.6639   -6.8876   21.4238 O   0  0  0  0  0  0
  -22.3546  -14.5551   20.6696 O   0  0  0  0  0  0
  -24.6185  -31.8656   23.2075 C   0  0  0  0  0  0
  -25.9065  -32.4807   23.8378 C   0  0  1  0  0  0
  -27.2289  -27.3923   20.0978 C   0  0  0  0  0  0
  -25.5911  -33.8607   24.2312 N   0  0  0  0  0  0
  -23.4067  -30.4904   21.5496 C   0  0  2  0  0  0
  -24.8492  -28.9501   20.1169 C   0  0  0  0  0  0
  -22.7425  -29.4655   22.4978 C   0  0  0  0  0  0
  -18.0276  -28.1377   22.8489 C   0  0  0  0  0  0
  -24.1490  -36.7312   23.2639 C   0  0  0  0  0  0
  -25.9399  -30.8191   21.3650 C   0  0  0  0  0  0
  -26.0133  -29.4506   20.7109 C   0  0  0  0  0  0
  -27.2033  -28.6811   20.6933 C   0  0  0  0  0  0
  -26.0349  -26.9114   19.5100 C   0  0  0  0  0  0
  -24.8573  -27.6820   19.5145 C   0  0  0  0  0  0
  -23.6153  -29.8237   20.1644 C   0  0  0  0  0  0
  -25.4112  -36.3104   24.0335 C   0  0  1  0  0  0
  -20.5869  -28.3671   23.1309 C   0  0  2  0  0  0
  -20.6768  -26.9404   22.5416 C   0  0  0  0  0  0
  -19.5746  -26.6384   21.5213 C   0  0  0  0  0  0
  -18.1924  -26.7923   22.1623 C   0  0  0  0  0  0
  -19.1526  -28.8840   23.2897 C   0  0  0  0  0  0
  -18.9453  -30.1445   23.8910 C   0  0  0  0  0  0
  -17.6456  -30.6582   24.0565 C   0  0  0  0  0  0
  -25.9040  -34.9469   23.5122 C   0  0  0  0  0  0
  -16.5347  -29.9084   23.6324 C   0  0  0  0  0  0
  -16.7266  -28.6502   23.0346 C   0  0  0  0  0  0
  -26.4479  -31.6594   25.0719 C   0  0  0  0  0  0
  -25.3739  -31.3709   26.1465 C   0  0  0  0  0  0
  -27.0309  -30.3030   24.6113 C   0  0  0  0  0  0
  -27.6055  -32.4313   25.7480 C   0  0  0  0  0  0
  -27.5581  -37.1812   24.8465 C   0  0  0  0  0  0
  -21.4151  -29.3038   22.3715 N   0  0  0  0  0  0
  -26.4297  -37.3789   23.9404 N   0  0  0  0  0  0
  -24.6738  -31.0732   22.0988 N   0  0  0  0  0  0
  -23.4185  -28.8196   23.3029 O   0  0  0  0  0  0
  -28.4150  -26.6690   20.1055 O   0  0  0  0  0  0
  -26.5604  -34.8925   22.4684 O   0  0  0  0  0  0
  -23.5372  -32.1423   23.7456 O   0  0  0  0  0  0
  -29.3756  -18.0774   20.5485 C   0  0  0  0  0  0
  -29.4038  -19.3346   19.8691 C   0  0  0  0  0  0
  -29.9432  -16.8976   19.9740 C   0  0  0  0  0  0
  -29.9956  -19.3917   18.5838 C   0  0  0  0  0  0
  -30.4947  -16.9984   18.6670 C   0  0  0  0  0  0
  -30.5387  -18.2353   17.9948 C   0  0  0  0  0  0
  -27.9556  -22.8168   20.5493 C   0  0  0  0  0  0
  -29.1279  -21.7930   20.3339 C   0  0  0  0  0  0
  -28.2764  -24.2876   20.9206 C   0  0  0  0  0  0
  -28.4590  -25.2677   19.7261 C   0  0  0  0  0  0
  -28.7338  -20.4953   20.4016 N   0  0  0  0  0  0
  -29.8605  -15.6239   20.6621 N   0  0  0  0  0  0
  -26.7752  -22.4605   20.4464 O   0  0  0  0  0  0
  -30.2969  -22.1563   20.1648 O   0  0  0  0  0  0
  -29.9816  -20.5438   17.8664 F   0  0  0  0  0  0
  -30.9284  -15.8991   18.0015 F   0  0  0  0  0  0
  -31.2122  -18.3233   16.4030 Cl  0  0  0  0  0  0
  -31.4698  -12.4262   19.1430 H   0  0  0  0  0  0
  -30.3312  -11.3253   19.8703 H   0  0  0  0  0  0
  -29.7492  -11.7393   17.4586 H   0  0  0  0  0  0
  -29.6611  -13.4579   17.7511 H   0  0  0  0  0  0
  -27.8442  -11.2886   18.8509 H   0  0  0  0  0  0
  -27.3704  -12.5850   17.7866 H   0  0  0  0  0  0
  -27.6789  -14.2452   19.5260 H   0  0  0  0  0  0
  -28.6806  -12.0270   21.3838 H   0  0  0  0  0  0
  -28.4645  -13.6957   21.8356 H   0  0  0  0  0  0
  -25.2753   -9.5686   22.4753 H   0  0  0  0  0  0
  -23.9995   -7.4636   22.7471 H   0  0  0  0  0  0
  -21.0827   -8.8769   19.8955 H   0  0  0  0  0  0
  -22.3678  -10.9674   19.6166 H   0  0  0  0  0  0
  -21.2015   -7.6146   23.9713 H   0  0  0  0  0  0
  -21.1475   -6.0522   25.9076 H   0  0  0  0  0  0
  -22.0603   -2.7606   23.2846 H   0  0  0  0  0  0
  -22.4102  -11.9903   22.4799 H   0  0  0  0  0  0
  -21.1117  -13.1283   22.2610 H   0  0  0  0  0  0
  -24.6635  -15.8428   20.5142 H   0  0  0  0  0  0
  -26.2779  -15.6240   20.0679 H   0  0  0  0  0  0
  -26.7134  -32.5500   23.1136 H   0  0  0  0  0  0
  -25.0066  -33.9761   25.0461 H   0  0  0  0  0  0
  -22.6973  -31.3088   21.4105 H   0  0  0  0  0  0
  -23.3744  -35.9653   23.3315 H   0  0  0  0  0  0
  -24.3582  -36.8914   22.2050 H   0  0  0  0  0  0
  -23.7251  -37.6525   23.6646 H   0  0  0  0  0  0
  -26.0584  -31.5844   20.5967 H   0  0  0  0  0  0
  -26.8261  -30.8701   21.9862 H   0  0  0  0  0  0
  -28.1041  -29.0690   21.1484 H   0  0  0  0  0  0
  -25.9723  -25.9431   19.0404 H   0  0  0  0  0  0
  -23.9597  -27.2885   19.0572 H   0  0  0  0  0  0
  -23.7294  -30.5990   19.4058 H   0  0  0  0  0  0
  -22.7366  -29.2491   19.8658 H   0  0  0  0  0  0
  -25.1289  -36.1971   25.0829 H   0  0  0  0  0  0
  -20.9962  -28.3240   24.1429 H   0  0  0  0  0  0
  -20.5669  -26.2281   23.3606 H   0  0  0  0  0  0
  -21.6640  -26.7442   22.1212 H   0  0  0  0  0  0
  -19.6909  -25.6297   21.1234 H   0  0  0  0  0  0
  -19.6684  -27.3201   20.6749 H   0  0  0  0  0  0
  -17.4196  -26.6672   21.4023 H   0  0  0  0  0  0
  -18.0322  -26.0060   22.9014 H   0  0  0  0  0  0
  -19.7931  -30.7254   24.2285 H   0  0  0  0  0  0
  -17.5012  -31.6263   24.5165 H   0  0  0  0  0  0
  -15.5348  -30.2991   23.7639 H   0  0  0  0  0  0
  -15.8666  -28.0826   22.7052 H   0  0  0  0  0  0
  -24.5910  -30.7058   25.7804 H   0  0  0  0  0  0
  -24.8936  -32.2869   26.4914 H   0  0  0  0  0  0
  -25.8090  -30.8877   27.0223 H   0  0  0  0  0  0
  -26.2857  -29.6790   24.1165 H   0  0  0  0  0  0
  -27.4069  -29.7269   25.4578 H   0  0  0  0  0  0
  -27.8698  -30.4340   23.9273 H   0  0  0  0  0  0
  -27.2673  -33.3601   26.2088 H   0  0  0  0  0  0
  -28.3847  -32.6892   25.0296 H   0  0  0  0  0  0
  -28.0742  -31.8419   26.5370 H   0  0  0  0  0  0
  -28.2613  -38.0096   24.7497 H   0  0  0  0  0  0
  -28.1063  -36.2628   24.6309 H   0  0  0  0  0  0
  -27.2298  -37.1486   25.8869 H   0  0  0  0  0  0
  -20.9313  -29.8767   21.6942 H   0  0  0  0  0  0
  -26.0187  -38.2871   24.1391 H   0  0  0  0  0  0
  -28.9039  -18.0171   21.5187 H   0  0  0  0  0  0
  -29.1610  -24.3075   21.5563 H   0  0  0  0  0  0
  -27.4514  -24.6399   21.5386 H   0  0  0  0  0  0
  -27.8003  -25.0241   18.8949 H   0  0  0  0  0  0
  -29.4570  -25.1002   19.3201 H   0  0  0  0  0  0
  -27.7831  -20.3680   20.7238 H   0  0  0  0  0  0
  -28.9838  -15.4330   21.1214 H   0  0  0  0  0  0
  1 25  1  0  0  0
  1 30  2  0  0  0
  1 82  1  0  0  0
  2  3  1  0  0  0
  2 25  1  0  0  0
  2 88  1  0  0  0
  2 89  1  0  0  0
  3  4  1  0  0  0
  3 90  1  0  0  0
  3 91  1  0  0  0
  4  5  1  0  0  0
  4 92  1  0  0  0
  4 93  1  0  0  0
  5  6  1  0  0  0
  5 26  1  0  0  0
  5 94  1  0  0  0
  6 25  1  0  0  0
  6 95  1  0  0  0
  6 96  1  0  0  0
  7  8  2  0  0  0
  7 26  1  0  0  0
  7 29  1  0  0  0
  8  9  1  0  0  0
  8 22  1  0  0  0
  9 10  1  0  0  0
  9 27  2  0  0  0
 10 11  2  0  0  0
 10 15  1  0  0  0
 11 12  1  0  0  0
 11 97  1  0  0  0
 12 13  2  0  0  0
 12 98  1  0  0  0
 13 14  1  0  0  0
 13 31  1  0  0  0
 14 15  2  0  0  0
 14 99  1  0  0  0
 15100  1  0  0  0
 16 17  2  0  0  0
 16 21  1  0  0  0
 16 31  1  0  0  0
 17 18  1  0  0  0
 17101  1  0  0  0
 18 19  2  0  0  0
 18102  1  0  0  0
 19 20  1  0  0  0
 19 24  1  0  0  0
 20 21  2  0  0  0
 20103  1  0  0  0
 21 23  1  0  0  0
 22 28  1  0  0  0
 22 32  2  0  0  0
 26 27  1  0  0  0
 28104  1  0  0  0
 28105  1  0  0  0
 29106  1  0  0  0
 29107  1  0  0  0
 33 34  1  0  0  0
 33 66  1  0  0  0
 33 70  2  0  0  0
 34 36  1  0  0  0
 34 59  1  0  0  0
 34108  1  0  0  0
 35 44  2  0  0  0
 35 45  1  0  0  0
 35 68  1  0  0  0
 36 56  1  0  0  0
 36109  1  0  0  0
 37 39  1  0  0  0
 37 47  1  0  0  0
 37 66  1  0  0  0
 37110  1  0  0  0
 38 43  2  0  0  0
 38 46  1  0  0  0
 38 47  1  0  0  0
 39 64  1  0  0  0
 39 67  2  0  0  0
 40 52  1  0  0  0
 40 53  2  0  0  0
 40 58  1  0  0  0
 41111  1  0  0  0
 41112  1  0  0  0
 41113  1  0  0  0
 41 48  1  0  0  0
 42 43  1  0  0  0
 42 66  1  0  0  0
 42114  1  0  0  0
 42115  1  0  0  0
 43 44  1  0  0  0
 44116  1  0  0  0
 45 46  2  0  0  0
 45117  1  0  0  0
 46118  1  0  0  0
 47119  1  0  0  0
 47120  1  0  0  0
 48 56  1  0  0  0
 48 65  1  0  0  0
 48121  1  0  0  0
 49 50  1  0  0  0
 49 53  1  0  0  0
 49 64  1  0  0  0
 49122  1  0  0  0
 50 51  1  0  0  0
 50123  1  0  0  0
 50124  1  0  0  0
 51 52  1  0  0  0
 51125  1  0  0  0
 51126  1  0  0  0
 52127  1  0  0  0
 52128  1  0  0  0
 53 54  1  0  0  0
 54 55  2  0  0  0
 54129  1  0  0  0
 55 57  1  0  0  0
 55130  1  0  0  0
 56 69  2  0  0  0
 57 58  2  0  0  0
 57131  1  0  0  0
 58132  1  0  0  0
 59 60  1  0  0  0
 59 61  1  0  0  0
 59 62  1  0  0  0
 60133  1  0  0  0
 60134  1  0  0  0
 60135  1  0  0  0
 61136  1  0  0  0
 61137  1  0  0  0
 61138  1  0  0  0
 62139  1  0  0  0
 62140  1  0  0  0
 62141  1  0  0  0
 63 65  1  0  0  0
 63142  1  0  0  0
 63143  1  0  0  0
 63144  1  0  0  0
 64145  1  0  0  0
 65146  1  0  0  0
 68 80  1  0  0  0
 71 72  2  0  0  0
 71 73  1  0  0  0
 71147  1  0  0  0
 72 74  1  0  0  0
 72 81  1  0  0  0
 73 75  2  0  0  0
 73 82  1  0  0  0
 74 76  2  0  0  0
 74 85  1  0  0  0
 75 76  1  0  0  0
 75 86  1  0  0  0
 76 87  1  0  0  0
 77 78  1  0  0  0
 77 79  1  0  0  0
 77 83  2  0  0  0
 78 81  1  0  0  0
 78 84  2  0  0  0
 79 80  1  0  0  0
 79148  1  0  0  0
 79149  1  0  0  0
 80150  1  0  0  0
 80151  1  0  0  0
 81152  1  0  0  0
 82153  1  0  0  0
M  ISO  4   1 100  68 101  80 101  82 100
M  END
> <chiral flag>
0

> <version>
0

> <s_m_source_file>
/data/baiqing/PycharmProjects/Reinvent-master-3.2/result/LINK_invent/BTK/process_docking_weight1_custom_product_contain_oxygen_bond_distance_aromatic_linkinvent_7_9_3/rearranged_h_0172.sdf

> <i_m_source_file_index>
29

> <r_mmod_Potential_Energy-OPLS-2005>
-18.5247287750244

> <r_mmod_Stretch_Energy-OPLS-2005>
50.9407577514648

> <r_mmod_Bend_Energy-OPLS-2005>
110.934936523438

> <r_mmod_Torsional_Energy-OPLS-2005>
263.750183105469

> <r_mmod_Improper_Torsional_Energy-OPLS-2005>
6.98687410354614

> <r_mmod_Van_der_Waal_Energy-OPLS-2005>
155.035552978516

> <r_mmod_Electrostatic_Energy-OPLS-2005>
-377.817687988281

> <r_mmod_Solvation_Energy-OPLS-2005>
-253.372024536133

> <b_mmod_Minimization_Converged-OPLS-2005>
0

> <r_mmod_RMS_Derivative-OPLS-2005>
0.49459832906723

$$$$
29
                    3D
 Structure written by MMmdl.
161169  0  0  1  0            999 V2000
  -30.7089  -14.5182   20.5367 C   0  0  0  0  0  0
  -30.4145  -12.3270   19.4388 C   0  0  0  0  0  0
  -29.4935  -12.4916   18.2134 C   0  0  0  0  0  0
  -28.0168  -12.3482   18.6283 C   0  0  0  0  0  0
  -27.6536  -13.2145   19.8641 C   0  0  2  0  0  0
  -28.6967  -13.0558   20.9935 C   0  0  0  0  0  0
  -25.2558  -13.8179   20.5680 C   0  0  0  0  0  0
  -24.1826  -13.0446   20.9196 C   0  0  0  0  0  0
  -24.6391  -11.6914   20.8747 C   0  0  0  0  0  0
  -23.9063  -10.4298   21.0411 C   0  0  0  0  0  0
  -24.3616   -9.4210   21.9187 C   0  0  0  0  0  0
  -23.6293   -8.2244   22.0753 C   0  0  0  0  0  0
  -22.4275   -8.0284   21.3541 C   0  0  0  0  0  0
  -21.9914   -9.0259   20.4642 C   0  0  0  0  0  0
  -22.7241  -10.2139   20.3055 C   0  0  0  0  0  0
  -21.6853   -6.0738   22.5279 C   0  0  0  0  0  0
  -21.4011   -6.5641   23.8213 C   0  0  0  0  0  0
  -21.3655   -5.6793   24.9173 C   0  0  0  0  0  0
  -21.6044   -4.3056   24.7227 C   0  0  0  0  0  0
  -21.8820   -3.8149   23.4346 C   0  0  0  0  0  0
  -21.9194   -4.6966   22.3401 C   0  0  0  0  0  0
  -22.7848  -13.5238   21.1857 C   0  0  0  0  0  0
  -22.1664   -4.2153   21.0978 F   0  0  0  0  0  0
  -21.5628   -3.4539   25.7737 F   0  0  0  0  0  0
  -30.0202  -13.3476   20.4254 N   0  0  0  0  0  0
  -26.2986  -12.9361   20.3327 N   0  0  0  0  0  0
  -25.9317  -11.6517   20.5768 N   0  0  0  0  0  0
  -22.0492  -12.8221   22.0407 N   0  0  0  0  0  0
  -25.4279  -15.1899   20.4074 N   0  0  0  0  0  0
  -31.8633  -14.6279   20.1155 O   0  0  0  0  0  0
  -21.6637   -6.8881   21.4239 O   0  0  0  0  0  0
  -22.3536  -14.5548   20.6711 O   0  0  0  0  0  0
  -24.6176  -31.8663   23.2097 C   0  0  0  0  0  0
  -25.9063  -32.4814   23.8395 C   0  0  1  0  0  0
  -27.2244  -27.4066   20.1029 C   0  0  0  0  0  0
  -25.5915  -33.8613   24.2327 N   0  0  0  0  0  0
  -23.4062  -30.4913   21.5507 C   0  0  2  0  0  0
  -24.8526  -28.9587   20.1104 C   0  0  0  0  0  0
  -22.7432  -29.4644   22.4977 C   0  0  0  0  0  0
  -18.0276  -28.1373   22.8492 C   0  0  0  0  0  0
  -24.1482  -36.7299   23.2639 C   0  0  0  0  0  0
  -25.9383  -30.8262   21.3655 C   0  0  0  0  0  0
  -26.0163  -29.4596   20.7089 C   0  0  0  0  0  0
  -27.2096  -28.6938   20.6968 C   0  0  0  0  0  0
  -26.0473  -26.9360   19.4814 C   0  0  0  0  0  0
  -24.8652  -27.6989   19.4895 C   0  0  0  0  0  0
  -23.6155  -29.8285   20.1642 C   0  0  0  0  0  0
  -25.4108  -36.3107   24.0336 C   0  0  1  0  0  0
  -20.5869  -28.3667   23.1311 C   0  0  2  0  0  0
  -20.6766  -26.9401   22.5415 C   0  0  0  0  0  0
  -19.5743  -26.6386   21.5206 C   0  0  0  0  0  0
  -18.1921  -26.7923   22.1615 C   0  0  0  0  0  0
  -19.1528  -28.8835   23.2897 C   0  0  0  0  0  0
  -18.9453  -30.1439   23.8915 C   0  0  0  0  0  0
  -17.6456  -30.6584   24.0564 C   0  0  0  0  0  0
  -25.9040  -34.9470   23.5128 C   0  0  0  0  0  0
  -16.5346  -29.9087   23.6329 C   0  0  0  0  0  0
  -16.7265  -28.6496   23.0361 C   0  0  0  0  0  0
  -26.4492  -31.6596   25.0720 C   0  0  0  0  0  0
  -25.3765  -31.3668   26.1462 C   0  0  0  0  0  0
  -27.0332  -30.3051   24.6085 C   0  0  0  0  0  0
  -27.6065  -32.4318   25.7484 C   0  0  0  0  0  0
  -27.5576  -37.1800   24.8472 C   0  0  0  0  0  0
  -21.4154  -29.3029   22.3717 N   0  0  0  0  0  0
  -26.4292  -37.3792   23.9411 N   0  0  0  0  0  0
  -24.6725  -31.0753   22.1005 N   0  0  0  0  0  0
  -23.4195  -28.8182   23.3027 O   0  0  0  0  0  0
  -28.3567  -26.6123   20.1242 O   0  0  0  0  0  0
  -26.5599  -34.8924   22.4689 O   0  0  0  0  0  0
  -23.5362  -32.1421   23.7481 O   0  0  0  0  0  0
  -31.7921  -17.1794   21.6189 C   0  0  0  0  0  0
  -29.7725  -18.0927   20.6358 C   0  0  0  0  0  0
  -31.6573  -19.5907   21.1527 C   0  0  0  0  0  0
  -32.3671  -18.4638   21.6599 C   0  0  0  0  0  0
  -30.5196  -16.9567   21.0565 C   0  0  0  0  0  0
  -30.3067  -19.4175   20.6972 C   0  0  0  0  0  0
  -32.3694  -20.9095   21.0883 C   0  0  0  0  0  0
  -28.9596  -24.1815   19.9521 C   0  0  0  0  0  0
  -29.2288  -21.7123   20.7593 C   0  0  0  0  0  0
  -33.7875  -18.5679   22.2072 C   0  0  0  0  0  0
  -32.4911  -21.5471   19.7093 C   0  0  0  0  0  0
  -28.3942  -22.7344   19.9480 C   0  0  0  0  0  0
  -28.1458  -25.2834   20.6733 C   0  0  0  0  0  0
  -29.4835  -20.4999   20.1988 N   0  0  0  0  0  0
  -30.0101  -15.6107   20.9423 N   0  0  0  0  0  0
  -32.9048  -21.4601   22.0546 O   0  0  0  0  0  0
  -30.0120  -24.4534   19.3622 O   0  0  0  0  0  0
  -29.6003  -21.9993   21.9000 O   0  0  0  0  0  0
  -31.4605  -12.4106   19.1379 H   0  0  0  0  0  0
  -30.3093  -11.3301   19.8698 H   0  0  0  0  0  0
  -29.7418  -11.7495   17.4531 H   0  0  0  0  0  0
  -29.6550  -13.4683   17.7539 H   0  0  0  0  0  0
  -27.8403  -11.2950   18.8508 H   0  0  0  0  0  0
  -27.3640  -12.5934   17.7899 H   0  0  0  0  0  0
  -27.6802  -14.2521   19.5313 H   0  0  0  0  0  0
  -28.6809  -12.0405   21.3919 H   0  0  0  0  0  0
  -28.4611  -13.7099   21.8343 H   0  0  0  0  0  0
  -25.2763   -9.5685   22.4763 H   0  0  0  0  0  0
  -24.0005   -7.4636   22.7473 H   0  0  0  0  0  0
  -21.0848   -8.8779   19.8944 H   0  0  0  0  0  0
  -22.3707  -10.9679   19.6164 H   0  0  0  0  0  0
  -21.2000   -7.6150   23.9717 H   0  0  0  0  0  0
  -21.1474   -6.0521   25.9077 H   0  0  0  0  0  0
  -22.0602   -2.7611   23.2845 H   0  0  0  0  0  0
  -22.4111  -11.9875   22.4776 H   0  0  0  0  0  0
  -21.1106  -13.1237   22.2616 H   0  0  0  0  0  0
  -24.6596  -15.8443   20.5084 H   0  0  0  0  0  0
  -26.2747  -15.6255   20.0643 H   0  0  0  0  0  0
  -26.7132  -32.5525   23.1154 H   0  0  0  0  0  0
  -25.0083  -33.9776   25.0486 H   0  0  0  0  0  0
  -22.6947  -31.3082   21.4147 H   0  0  0  0  0  0
  -23.3750  -35.9623   23.3305 H   0  0  0  0  0  0
  -24.3572  -36.8911   22.2051 H   0  0  0  0  0  0
  -23.7223  -37.6497   23.6655 H   0  0  0  0  0  0
  -26.0542  -31.5946   20.5995 H   0  0  0  0  0  0
  -26.8244  -30.8776   21.9863 H   0  0  0  0  0  0
  -28.1078  -29.0736   21.1647 H   0  0  0  0  0  0
  -26.0360  -25.9741   18.9882 H   0  0  0  0  0  0
  -23.9736  -27.3131   19.0146 H   0  0  0  0  0  0
  -23.7240  -30.6067   19.4076 H   0  0  0  0  0  0
  -22.7379  -29.2510   19.8676 H   0  0  0  0  0  0
  -25.1282  -36.1968   25.0828 H   0  0  0  0  0  0
  -20.9956  -28.3235   24.1432 H   0  0  0  0  0  0
  -20.5670  -26.2268   23.3601 H   0  0  0  0  0  0
  -21.6636  -26.7445   22.1203 H   0  0  0  0  0  0
  -19.6906  -25.6305   21.1220 H   0  0  0  0  0  0
  -19.6687  -27.3210   20.6749 H   0  0  0  0  0  0
  -17.4196  -26.6682   21.4013 H   0  0  0  0  0  0
  -18.0311  -26.0056   22.9000 H   0  0  0  0  0  0
  -19.7932  -30.7240   24.2303 H   0  0  0  0  0  0
  -17.5017  -31.6269   24.5159 H   0  0  0  0  0  0
  -15.5351  -30.2994   23.7644 H   0  0  0  0  0  0
  -15.8658  -28.0817   22.7085 H   0  0  0  0  0  0
  -24.5989  -30.6957   25.7796 H   0  0  0  0  0  0
  -24.8895  -32.2798   26.4899 H   0  0  0  0  0  0
  -25.8140  -30.8868   27.0226 H   0  0  0  0  0  0
  -26.2867  -29.6780   24.1190 H   0  0  0  0  0  0
  -27.4179  -29.7308   25.4522 H   0  0  0  0  0  0
  -27.8668  -30.4377   23.9179 H   0  0  0  0  0  0
  -27.2699  -33.3617   26.2076 H   0  0  0  0  0  0
  -28.3869  -32.6875   25.0306 H   0  0  0  0  0  0
  -28.0740  -31.8435   26.5388 H   0  0  0  0  0  0
  -28.2606  -38.0088   24.7533 H   0  0  0  0  0  0
  -28.1063  -36.2623   24.6293 H   0  0  0  0  0  0
  -27.2293  -37.1445   25.8876 H   0  0  0  0  0  0
  -20.9321  -29.8746   21.6932 H   0  0  0  0  0  0
  -26.0179  -38.2863   24.1436 H   0  0  0  0  0  0
  -32.3642  -16.3407   21.9913 H   0  0  0  0  0  0
  -28.7788  -17.9453   20.2354 H   0  0  0  0  0  0
  -34.1927  -17.5902   22.4711 H   0  0  0  0  0  0
  -33.8111  -19.1814   23.1085 H   0  0  0  0  0  0
  -34.4601  -19.0051   21.4682 H   0  0  0  0  0  0
  -32.0708  -20.8983   18.9412 H   0  0  0  0  0  0
  -33.5397  -21.7222   19.4723 H   0  0  0  0  0  0
  -31.9664  -22.5014   19.6855 H   0  0  0  0  0  0
  -28.3187  -22.4078   18.9113 H   0  0  0  0  0  0
  -27.3802  -22.7395   20.3474 H   0  0  0  0  0  0
  -28.4508  -25.2976   21.7196 H   0  0  0  0  0  0
  -27.0958  -24.9951   20.6710 H   0  0  0  0  0  0
  -28.9773  -20.3082   19.3438 H   0  0  0  0  0  0
  -29.0210  -15.4762   21.0879 H   0  0  0  0  0  0
  1 25  1  0  0  0
  1 30  2  0  0  0
  1 85  1  0  0  0
  2  3  1  0  0  0
  2 25  1  0  0  0
  2 89  1  0  0  0
  2 90  1  0  0  0
  3  4  1  0  0  0
  3 91  1  0  0  0
  3 92  1  0  0  0
  4  5  1  0  0  0
  4 93  1  0  0  0
  4 94  1  0  0  0
  5  6  1  0  0  0
  5 26  1  0  0  0
  5 95  1  0  0  0
  6 25  1  0  0  0
  6 96  1  0  0  0
  6 97  1  0  0  0
  7  8  2  0  0  0
  7 26  1  0  0  0
  7 29  1  0  0  0
  8  9  1  0  0  0
  8 22  1  0  0  0
  9 10  1  0  0  0
  9 27  2  0  0  0
 10 11  2  0  0  0
 10 15  1  0  0  0
 11 12  1  0  0  0
 11 98  1  0  0  0
 12 13  2  0  0  0
 12 99  1  0  0  0
 13 14  1  0  0  0
 13 31  1  0  0  0
 14 15  2  0  0  0
 14100  1  0  0  0
 15101  1  0  0  0
 16 17  2  0  0  0
 16 21  1  0  0  0
 16 31  1  0  0  0
 17 18  1  0  0  0
 17102  1  0  0  0
 18 19  2  0  0  0
 18103  1  0  0  0
 19 20  1  0  0  0
 19 24  1  0  0  0
 20 21  2  0  0  0
 20104  1  0  0  0
 21 23  1  0  0  0
 22 28  1  0  0  0
 22 32  2  0  0  0
 26 27  1  0  0  0
 28105  1  0  0  0
 28106  1  0  0  0
 29107  1  0  0  0
 29108  1  0  0  0
 33 34  1  0  0  0
 33 66  1  0  0  0
 33 70  2  0  0  0
 34 36  1  0  0  0
 34 59  1  0  0  0
 34109  1  0  0  0
 35 44  2  0  0  0
 35 45  1  0  0  0
 35 68  1  0  0  0
 36 56  1  0  0  0
 36110  1  0  0  0
 37 39  1  0  0  0
 37 47  1  0  0  0
 37 66  1  0  0  0
 37111  1  0  0  0
 38 43  2  0  0  0
 38 46  1  0  0  0
 38 47  1  0  0  0
 39 64  1  0  0  0
 39 67  2  0  0  0
 40 52  1  0  0  0
 40 53  2  0  0  0
 40 58  1  0  0  0
 41112  1  0  0  0
 41113  1  0  0  0
 41114  1  0  0  0
 41 48  1  0  0  0
 42 43  1  0  0  0
 42 66  1  0  0  0
 42115  1  0  0  0
 42116  1  0  0  0
 43 44  1  0  0  0
 44117  1  0  0  0
 45 46  2  0  0  0
 45118  1  0  0  0
 46119  1  0  0  0
 47120  1  0  0  0
 47121  1  0  0  0
 48 56  1  0  0  0
 48 65  1  0  0  0
 48122  1  0  0  0
 49 50  1  0  0  0
 49 53  1  0  0  0
 49 64  1  0  0  0
 49123  1  0  0  0
 50 51  1  0  0  0
 50124  1  0  0  0
 50125  1  0  0  0
 51 52  1  0  0  0
 51126  1  0  0  0
 51127  1  0  0  0
 52128  1  0  0  0
 52129  1  0  0  0
 53 54  1  0  0  0
 54 55  2  0  0  0
 54130  1  0  0  0
 55 57  1  0  0  0
 55131  1  0  0  0
 56 69  2  0  0  0
 57 58  2  0  0  0
 57132  1  0  0  0
 58133  1  0  0  0
 59 60  1  0  0  0
 59 61  1  0  0  0
 59 62  1  0  0  0
 60134  1  0  0  0
 60135  1  0  0  0
 60136  1  0  0  0
 61137  1  0  0  0
 61138  1  0  0  0
 61139  1  0  0  0
 62140  1  0  0  0
 62141  1  0  0  0
 62142  1  0  0  0
 63 65  1  0  0  0
 63143  1  0  0  0
 63144  1  0  0  0
 63145  1  0  0  0
 64146  1  0  0  0
 65147  1  0  0  0
 68 83  1  0  0  0
 71 74  2  0  0  0
 71 75  1  0  0  0
 71148  1  0  0  0
 72 75  2  0  0  0
 72 76  1  0  0  0
 72149  1  0  0  0
 73 74  1  0  0  0
 73 76  2  0  0  0
 73 77  1  0  0  0
 74 80  1  0  0  0
 75 85  1  0  0  0
 76 84  1  0  0  0
 77 81  1  0  0  0
 77 86  2  0  0  0
 78 82  1  0  0  0
 78 83  1  0  0  0
 78 87  2  0  0  0
 79 82  1  0  0  0
 79 84  1  0  0  0
 79 88  2  0  0  0
 80150  1  0  0  0
 80151  1  0  0  0
 80152  1  0  0  0
 81153  1  0  0  0
 81154  1  0  0  0
 81155  1  0  0  0
 82156  1  0  0  0
 82157  1  0  0  0
 83158  1  0  0  0
 83159  1  0  0  0
 84160  1  0  0  0
 85161  1  0  0  0
M  ISO  4   1 100  68 101  83 101  85 100
M  END
> <chiral flag>
0

> <version>
0

> <s_m_source_file>
/data/baiqing/PycharmProjects/Reinvent-master-3.2/result/LINK_invent/BTK/process_docking_weight1_custom_product_contain_oxygen_bond_distance_aromatic_linkinvent_7_9_3/rearranged_h_0172.sdf

> <i_m_source_file_index>
30

> <r_mmod_Potential_Energy-OPLS-2005>
61.3770065307617

> <r_mmod_Stretch_Energy-OPLS-2005>
52.6427383422852

> <r_mmod_Bend_Energy-OPLS-2005>
103.710823059082

> <r_mmod_Torsional_Energy-OPLS-2005>
311.503723144531

> <r_mmod_Improper_Torsional_Energy-OPLS-2005>
5.37077331542969

> <r_mmod_Van_der_Waal_Energy-OPLS-2005>
161.475433349609

> <r_mmod_Electrostatic_Energy-OPLS-2005>
-323.626281738281

> <r_mmod_Solvation_Energy-OPLS-2005>
-271.214996337891

> <b_mmod_Minimization_Converged-OPLS-2005>
0

> <r_mmod_RMS_Derivative-OPLS-2005>
1.0062313079834

$$$$
30
                    3D
 Structure written by MMmdl.
163171  0  0  1  0            999 V2000
  -30.7316  -14.4880   20.5761 C   0  0  0  0  0  0
  -30.4200  -12.3144   19.4383 C   0  0  0  0  0  0
  -29.5030  -12.5193   18.2159 C   0  0  0  0  0  0
  -28.0240  -12.3754   18.6285 C   0  0  0  0  0  0
  -27.6644  -13.2181   19.8828 C   0  0  2  0  0  0
  -28.7077  -13.0200   21.0075 C   0  0  0  0  0  0
  -25.2593  -13.8180   20.5732 C   0  0  0  0  0  0
  -24.1843  -13.0445   20.9226 C   0  0  0  0  0  0
  -24.6422  -11.6915   20.8765 C   0  0  0  0  0  0
  -23.9084  -10.4301   21.0411 C   0  0  0  0  0  0
  -24.3623   -9.4209   21.9194 C   0  0  0  0  0  0
  -23.6289   -8.2247   22.0768 C   0  0  0  0  0  0
  -22.4282   -8.0282   21.3551 C   0  0  0  0  0  0
  -21.9920   -9.0259   20.4662 C   0  0  0  0  0  0
  -22.7257  -10.2132   20.3069 C   0  0  0  0  0  0
  -21.6858   -6.0725   22.5271 C   0  0  0  0  0  0
  -21.4008   -6.5635   23.8200 C   0  0  0  0  0  0
  -21.3664   -5.6793   24.9173 C   0  0  0  0  0  0
  -21.6053   -4.3053   24.7222 C   0  0  0  0  0  0
  -21.8819   -3.8140   23.4347 C   0  0  0  0  0  0
  -21.9195   -4.6955   22.3403 C   0  0  0  0  0  0
  -22.7862  -13.5230   21.1850 C   0  0  0  0  0  0
  -22.1665   -4.2130   21.0980 F   0  0  0  0  0  0
  -21.5637   -3.4555   25.7742 F   0  0  0  0  0  0
  -30.0418  -13.3155   20.4534 N   0  0  0  0  0  0
  -26.3044  -12.9379   20.3425 N   0  0  0  0  0  0
  -25.9354  -11.6529   20.5801 N   0  0  0  0  0  0
  -22.0492  -12.8233   22.0411 N   0  0  0  0  0  0
  -25.4279  -15.1887   20.4013 N   0  0  0  0  0  0
  -31.8356  -14.6600   20.0560 O   0  0  0  0  0  0
  -21.6653   -6.8872   21.4235 O   0  0  0  0  0  0
  -22.3571  -14.5533   20.6664 O   0  0  0  0  0  0
  -24.6183  -31.8667   23.2090 C   0  0  0  0  0  0
  -25.9055  -32.4803   23.8406 C   0  0  1  0  0  0
  -27.2244  -27.3826   20.0904 C   0  0  0  0  0  0
  -25.5909  -33.8599   24.2343 N   0  0  0  0  0  0
  -23.4063  -30.4936   21.5510 C   0  0  2  0  0  0
  -24.8541  -28.9634   20.1114 C   0  0  0  0  0  0
  -22.7417  -29.4652   22.4963 C   0  0  0  0  0  0
  -18.0298  -28.1430   22.8419 C   0  0  0  0  0  0
  -24.1488  -36.7317   23.2645 C   0  0  0  0  0  0
  -25.9444  -30.8142   21.3740 C   0  0  0  0  0  0
  -26.0195  -29.4469   20.7178 C   0  0  0  0  0  0
  -27.2030  -28.6615   20.7130 C   0  0  0  0  0  0
  -26.0362  -26.9494   19.4486 C   0  0  0  0  0  0
  -24.8622  -27.7172   19.4730 C   0  0  0  0  0  0
  -23.6183  -29.8345   20.1637 C   0  0  0  0  0  0
  -25.4107  -36.3091   24.0339 C   0  0  1  0  0  0
  -20.5871  -28.3699   23.1347 C   0  0  2  0  0  0
  -20.6721  -26.9374   22.5626 C   0  0  0  0  0  0
  -19.5851  -26.6384   21.5263 C   0  0  0  0  0  0
  -18.1917  -26.8062   22.1389 C   0  0  0  0  0  0
  -19.1526  -28.8872   23.2898 C   0  0  0  0  0  0
  -18.9427  -30.1417   23.8992 C   0  0  0  0  0  0
  -17.6433  -30.6559   24.0645 C   0  0  0  0  0  0
  -25.9037  -34.9463   23.5132 C   0  0  0  0  0  0
  -16.5333  -29.9089   23.6328 C   0  0  0  0  0  0
  -16.7270  -28.6548   23.0275 C   0  0  0  0  0  0
  -26.4497  -31.6575   25.0738 C   0  0  0  0  0  0
  -25.3765  -31.3662   26.1487 C   0  0  0  0  0  0
  -27.0340  -30.3020   24.6106 C   0  0  0  0  0  0
  -27.6051  -32.4327   25.7509 C   0  0  0  0  0  0
  -27.5579  -37.1809   24.8460 C   0  0  0  0  0  0
  -21.4147  -29.3015   22.3671 N   0  0  0  0  0  0
  -26.4289  -37.3781   23.9405 N   0  0  0  0  0  0
  -24.6741  -31.0718   22.1020 N   0  0  0  0  0  0
  -23.4173  -28.8198   23.3029 O   0  0  0  0  0  0
  -28.3765  -26.5975   20.1396 O   0  0  0  0  0  0
  -26.5590  -34.8897   22.4689 O   0  0  0  0  0  0
  -23.5376  -32.1460   23.7478 O   0  0  0  0  0  0
  -28.1443  -17.6885   21.4718 C   0  0  0  0  0  0
  -27.6019  -20.0412   21.2685 C   0  0  0  0  0  0
  -27.1810  -18.7106   21.4772 C   0  0  0  0  0  0
  -29.5037  -18.0022   21.2735 C   0  0  0  0  0  0
  -28.9689  -20.3610   21.0754 C   0  0  0  0  0  0
  -29.0826  -24.1709   20.4956 C   0  0  0  0  0  0
  -28.7077  -22.6736   20.1920 C   0  0  0  0  0  0
  -23.8657  -18.6744   23.1507 C   0  0  0  0  0  0
  -22.8533  -19.5702   23.8478 C   0  0  0  0  0  0
  -30.5850  -16.9071   21.2509 C   0  0  0  0  0  0
  -28.3105  -25.2228   19.6491 C   0  0  0  0  0  0
  -24.9238  -19.3491   22.2738 C   0  0  0  0  0  0
  -29.8581  -19.3133   21.0980 N   0  3  0  0  0  0
  -25.8347  -18.3723   21.6767 N   0  0  0  0  0  0
  -29.3691  -21.7427   20.9221 N   0  0  0  0  0  0
  -30.1034  -15.5035   21.1979 N   0  0  0  0  0  0
  -29.8970  -24.4996   21.3683 O   0  0  0  0  0  0
  -27.8567  -22.3968   19.3340 O   0  0  0  0  0  0
  -23.8392  -17.4490   23.2924 O   0  0  0  0  0  0
  -31.4682  -12.3861   19.1458 H   0  0  0  0  0  0
  -30.3015  -11.3067   19.8387 H   0  0  0  0  0  0
  -29.7440  -11.7971   17.4337 H   0  0  0  0  0  0
  -29.6799  -13.5097   17.7886 H   0  0  0  0  0  0
  -27.8395  -11.3205   18.8294 H   0  0  0  0  0  0
  -27.3728  -12.6446   17.7954 H   0  0  0  0  0  0
  -27.7083  -14.2660   19.5863 H   0  0  0  0  0  0
  -28.6795  -11.9937   21.3759 H   0  0  0  0  0  0
  -28.4720  -13.6448   21.8692 H   0  0  0  0  0  0
  -25.2758   -9.5677   22.4775 H   0  0  0  0  0  0
  -23.9996   -7.4640   22.7487 H   0  0  0  0  0  0
  -21.0851   -8.8781   19.8960 H   0  0  0  0  0  0
  -22.3720  -10.9673   19.6178 H   0  0  0  0  0  0
  -21.1998   -7.6141   23.9700 H   0  0  0  0  0  0
  -21.1492   -6.0525   25.9069 H   0  0  0  0  0  0
  -22.0594   -2.7601   23.2860 H   0  0  0  0  0  0
  -22.4095  -11.9907   22.4827 H   0  0  0  0  0  0
  -21.1094  -13.1247   22.2584 H   0  0  0  0  0  0
  -24.6062  -15.7816   20.3739 H   0  0  0  0  0  0
  -26.1932  -15.5584   19.8519 H   0  0  0  0  0  0
  -26.7126  -32.5512   23.1167 H   0  0  0  0  0  0
  -25.0031  -33.9765   25.0470 H   0  0  0  0  0  0
  -22.6983  -31.3144   21.4144 H   0  0  0  0  0  0
  -23.3732  -35.9671   23.3315 H   0  0  0  0  0  0
  -24.3580  -36.8929   22.2059 H   0  0  0  0  0  0
  -23.7267  -37.6532   23.6665 H   0  0  0  0  0  0
  -26.0637  -31.5794   20.6060 H   0  0  0  0  0  0
  -26.8312  -30.8686   21.9926 H   0  0  0  0  0  0
  -28.0965  -29.0249   21.2005 H   0  0  0  0  0  0
  -25.9584  -26.0240   18.9007 H   0  0  0  0  0  0
  -23.9707  -27.3496   18.9858 H   0  0  0  0  0  0
  -23.7294  -30.6120   19.4065 H   0  0  0  0  0  0
  -22.7406  -29.2582   19.8641 H   0  0  0  0  0  0
  -25.1289  -36.1964   25.0839 H   0  0  0  0  0  0
  -20.9970  -28.3365   24.1478 H   0  0  0  0  0  0
  -20.5336  -26.2369   23.3886 H   0  0  0  0  0  0
  -21.6658  -26.7243   22.1675 H   0  0  0  0  0  0
  -19.6975  -25.6275   21.1325 H   0  0  0  0  0  0
  -19.7004  -27.3163   20.6787 H   0  0  0  0  0  0
  -17.4390  -26.7136   21.3537 H   0  0  0  0  0  0
  -17.9938  -26.0089   22.8569 H   0  0  0  0  0  0
  -19.7898  -30.7187   24.2444 H   0  0  0  0  0  0
  -17.4981  -31.6196   24.5354 H   0  0  0  0  0  0
  -15.5334  -30.3009   23.7643 H   0  0  0  0  0  0
  -15.8666  -28.0917   22.6907 H   0  0  0  0  0  0
  -24.5903  -30.7058   25.7812 H   0  0  0  0  0  0
  -24.9004  -32.2812   26.5030 H   0  0  0  0  0  0
  -25.8132  -30.8746   27.0191 H   0  0  0  0  0  0
  -26.2872  -29.6762   24.1193 H   0  0  0  0  0  0
  -27.4158  -29.7279   25.4561 H   0  0  0  0  0  0
  -27.8702  -30.4358   23.9232 H   0  0  0  0  0  0
  -27.2624  -33.3602   26.2133 H   0  0  0  0  0  0
  -28.3838  -32.6944   25.0320 H   0  0  0  0  0  0
  -28.0753  -31.8424   26.5396 H   0  0  0  0  0  0
  -28.2593  -38.0110   24.7497 H   0  0  0  0  0  0
  -28.1078  -36.2631   24.6301 H   0  0  0  0  0  0
  -27.2283  -37.1483   25.8860 H   0  0  0  0  0  0
  -20.9315  -29.8728   21.6884 H   0  0  0  0  0  0
  -26.0175  -38.2860   24.1399 H   0  0  0  0  0  0
  -27.8296  -16.6655   21.6188 H   0  0  0  0  0  0
  -26.8693  -20.8307   21.2597 H   0  0  0  0  0  0
  -23.2242  -20.5924   23.9081 H   0  0  0  0  0  0
  -22.6625  -19.2128   24.8602 H   0  0  0  0  0  0
  -21.9106  -19.5787   23.3005 H   0  0  0  0  0  0
  -31.2239  -17.0333   22.1280 H   0  0  0  0  0  0
  -31.2086  -17.1072   20.3796 H   0  0  0  0  0  0
  -27.2932  -24.8435   19.6419 H   0  0  0  0  0  0
  -28.6798  -25.1926   18.6226 H   0  0  0  0  0  0
  -25.4616  -20.0634   22.8965 H   0  0  0  0  0  0
  -24.4234  -19.9168   21.4887 H   0  0  0  0  0  0
  -30.8564  -19.5185   20.9632 H   0  0  0  0  0  0
  -25.6213  -17.4111   21.9310 H   0  0  0  0  0  0
  -30.1278  -22.0846   21.4903 H   0  0  0  0  0  0
  -29.2277  -15.2918   21.6444 H   0  0  0  0  0  0
  1 25  1  0  0  0
  1 30  2  0  0  0
  1 86  1  0  0  0
  2  3  1  0  0  0
  2 25  1  0  0  0
  2 90  1  0  0  0
  2 91  1  0  0  0
  3  4  1  0  0  0
  3 92  1  0  0  0
  3 93  1  0  0  0
  4  5  1  0  0  0
  4 94  1  0  0  0
  4 95  1  0  0  0
  5  6  1  0  0  0
  5 26  1  0  0  0
  5 96  1  0  0  0
  6 25  1  0  0  0
  6 97  1  0  0  0
  6 98  1  0  0  0
  7  8  2  0  0  0
  7 26  1  0  0  0
  7 29  1  0  0  0
  8  9  1  0  0  0
  8 22  1  0  0  0
  9 10  1  0  0  0
  9 27  2  0  0  0
 10 11  2  0  0  0
 10 15  1  0  0  0
 11 12  1  0  0  0
 11 99  1  0  0  0
 12 13  2  0  0  0
 12100  1  0  0  0
 13 14  1  0  0  0
 13 31  1  0  0  0
 14 15  2  0  0  0
 14101  1  0  0  0
 15102  1  0  0  0
 16 17  2  0  0  0
 16 21  1  0  0  0
 16 31  1  0  0  0
 17 18  1  0  0  0
 17103  1  0  0  0
 18 19  2  0  0  0
 18104  1  0  0  0
 19 20  1  0  0  0
 19 24  1  0  0  0
 20 21  2  0  0  0
 20105  1  0  0  0
 21 23  1  0  0  0
 22 28  1  0  0  0
 22 32  2  0  0  0
 26 27  1  0  0  0
 28106  1  0  0  0
 28107  1  0  0  0
 29108  1  0  0  0
 29109  1  0  0  0
 33 34  1  0  0  0
 33 66  1  0  0  0
 33 70  2  0  0  0
 34 36  1  0  0  0
 34 59  1  0  0  0
 34110  1  0  0  0
 35 44  2  0  0  0
 35 45  1  0  0  0
 35 68  1  0  0  0
 36 56  1  0  0  0
 36111  1  0  0  0
 37 39  1  0  0  0
 37 47  1  0  0  0
 37 66  1  0  0  0
 37112  1  0  0  0
 38 43  2  0  0  0
 38 46  1  0  0  0
 38 47  1  0  0  0
 39 64  1  0  0  0
 39 67  2  0  0  0
 40 52  1  0  0  0
 40 53  2  0  0  0
 40 58  1  0  0  0
 41113  1  0  0  0
 41114  1  0  0  0
 41115  1  0  0  0
 41 48  1  0  0  0
 42 43  1  0  0  0
 42 66  1  0  0  0
 42116  1  0  0  0
 42117  1  0  0  0
 43 44  1  0  0  0
 44118  1  0  0  0
 45 46  2  0  0  0
 45119  1  0  0  0
 46120  1  0  0  0
 47121  1  0  0  0
 47122  1  0  0  0
 48 56  1  0  0  0
 48 65  1  0  0  0
 48123  1  0  0  0
 49 50  1  0  0  0
 49 53  1  0  0  0
 49 64  1  0  0  0
 49124  1  0  0  0
 50 51  1  0  0  0
 50125  1  0  0  0
 50126  1  0  0  0
 51 52  1  0  0  0
 51127  1  0  0  0
 51128  1  0  0  0
 52129  1  0  0  0
 52130  1  0  0  0
 53 54  1  0  0  0
 54 55  2  0  0  0
 54131  1  0  0  0
 55 57  1  0  0  0
 55132  1  0  0  0
 56 69  2  0  0  0
 57 58  2  0  0  0
 57133  1  0  0  0
 58134  1  0  0  0
 59 60  1  0  0  0
 59 61  1  0  0  0
 59 62  1  0  0  0
 60135  1  0  0  0
 60136  1  0  0  0
 60137  1  0  0  0
 61138  1  0  0  0
 61139  1  0  0  0
 61140  1  0  0  0
 62141  1  0  0  0
 62142  1  0  0  0
 62143  1  0  0  0
 63 65  1  0  0  0
 63144  1  0  0  0
 63145  1  0  0  0
 63146  1  0  0  0
 64147  1  0  0  0
 65148  1  0  0  0
 68 81  1  0  0  0
 71 73  2  0  0  0
 71 74  1  0  0  0
 71149  1  0  0  0
 72 73  1  0  0  0
 72 75  2  0  0  0
 72150  1  0  0  0
 73 84  1  0  0  0
 74 80  1  0  0  0
 74 83  2  0  0  0
 75 83  1  0  0  0
 75 85  1  0  0  0
 76 77  1  0  0  0
 76 81  1  0  0  0
 76 87  2  0  0  0
 77 85  1  0  0  0
 77 88  2  0  0  0
 78 79  1  0  0  0
 78 82  1  0  0  0
 78 89  2  0  0  0
 79151  1  0  0  0
 79152  1  0  0  0
 79153  1  0  0  0
 80 86  1  0  0  0
 80154  1  0  0  0
 80155  1  0  0  0
 81156  1  0  0  0
 81157  1  0  0  0
 82 84  1  0  0  0
 82158  1  0  0  0
 82159  1  0  0  0
 83160  1  0  0  0
 84161  1  0  0  0
 85162  1  0  0  0
 86163  1  0  0  0
M  CHG  1  83   1
M  ISO  4   1 100  68 101  81 101  86 100
M  END
> <chiral flag>
0

> <version>
0

> <s_m_source_file>
/data/baiqing/PycharmProjects/Reinvent-master-3.2/result/LINK_invent/BTK/process_docking_weight1_custom_product_contain_oxygen_bond_distance_aromatic_linkinvent_7_9_3/rearranged_h_0172.sdf

> <i_m_source_file_index>
31

> <r_mmod_Potential_Energy-OPLS-2005>
-364.764068603516

> <r_mmod_Stretch_Energy-OPLS-2005>
54.2032814025879

> <r_mmod_Bend_Energy-OPLS-2005>
113.934310913086

> <r_mmod_Torsional_Energy-OPLS-2005>
215.478759765625

> <r_mmod_Improper_Torsional_Energy-OPLS-2005>
8.18226051330566

> <r_mmod_Van_der_Waal_Energy-OPLS-2005>
159.432525634766

> <r_mmod_Electrostatic_Energy-OPLS-2005>
-437.77783203125

> <r_mmod_Solvation_Energy-OPLS-2005>
-497.904754638672

> <b_mmod_Minimization_Converged-OPLS-2005>
0

> <r_mmod_RMS_Derivative-OPLS-2005>
3.89636516571045

$$$$
31
                    3D
 Structure written by MMmdl.
157165  0  0  1  0            999 V2000
  -30.6458  -14.5258   20.4962 C   0  0  0  0  0  0
  -30.4320  -12.2980   19.4603 C   0  0  0  0  0  0
  -29.5078  -12.4114   18.2273 C   0  0  0  0  0  0
  -28.0194  -12.3346   18.6281 C   0  0  0  0  0  0
  -27.6584  -13.2012   19.8649 C   0  0  2  0  0  0
  -28.6940  -13.0136   20.9962 C   0  0  0  0  0  0
  -25.2587  -13.8158   20.5653 C   0  0  0  0  0  0
  -24.1829  -13.0451   20.9167 C   0  0  0  0  0  0
  -24.6372  -11.6914   20.8740 C   0  0  0  0  0  0
  -23.9040  -10.4303   21.0408 C   0  0  0  0  0  0
  -24.3600   -9.4220   21.9186 C   0  0  0  0  0  0
  -23.6284   -8.2249   22.0752 C   0  0  0  0  0  0
  -22.4267   -8.0282   21.3542 C   0  0  0  0  0  0
  -21.9898   -9.0254   20.4647 C   0  0  0  0  0  0
  -22.7215  -10.2140   20.3061 C   0  0  0  0  0  0
  -21.6852   -6.0734   22.5279 C   0  0  0  0  0  0
  -21.4011   -6.5640   23.8210 C   0  0  0  0  0  0
  -21.3659   -5.6792   24.9172 C   0  0  0  0  0  0
  -21.6043   -4.3054   24.7223 C   0  0  0  0  0  0
  -21.8820   -3.8148   23.4344 C   0  0  0  0  0  0
  -21.9191   -4.6964   22.3401 C   0  0  0  0  0  0
  -22.7858  -13.5257   21.1836 C   0  0  0  0  0  0
  -22.1660   -4.2147   21.0976 F   0  0  0  0  0  0
  -21.5629   -3.4539   25.7737 F   0  0  0  0  0  0
  -30.0232  -13.3156   20.4438 N   0  0  0  0  0  0
  -26.2997  -12.9309   20.3312 N   0  0  0  0  0  0
  -25.9290  -11.6485   20.5774 N   0  0  0  0  0  0
  -22.0497  -12.8256   22.0398 N   0  0  0  0  0  0
  -25.4344  -15.1873   20.4044 N   0  0  0  0  0  0
  -31.7953  -14.7056   20.0826 O   0  0  0  0  0  0
  -21.6636   -6.8875   21.4237 O   0  0  0  0  0  0
  -22.3547  -14.5560   20.6680 O   0  0  0  0  0  0
  -24.6144  -31.8670   23.2083 C   0  0  0  0  0  0
  -25.9038  -32.4815   23.8383 C   0  0  1  0  0  0
  -27.2356  -27.4306   20.1201 C   0  0  0  0  0  0
  -25.5903  -33.8620   24.2315 N   0  0  0  0  0  0
  -23.4033  -30.4883   21.5483 C   0  0  2  0  0  0
  -24.8510  -28.9476   20.1169 C   0  0  0  0  0  0
  -22.7411  -29.4668   22.4999 C   0  0  0  0  0  0
  -18.0300  -28.1367   22.8470 C   0  0  0  0  0  0
  -24.1487  -36.7314   23.2639 C   0  0  0  0  0  0
  -25.9296  -30.8344   21.3583 C   0  0  0  0  0  0
  -26.0084  -29.4668   20.7113 C   0  0  0  0  0  0
  -27.2054  -28.7170   20.7040 C   0  0  0  0  0  0
  -26.0680  -26.9228   19.5150 C   0  0  0  0  0  0
  -24.8764  -27.6759   19.5140 C   0  0  0  0  0  0
  -23.6112  -29.8139   20.1646 C   0  0  0  0  0  0
  -25.4107  -36.3103   24.0333 C   0  0  1  0  0  0
  -20.5879  -28.3672   23.1318 C   0  0  2  0  0  0
  -20.6806  -26.9416   22.5400 C   0  0  0  0  0  0
  -19.5793  -26.6407   21.5182 C   0  0  0  0  0  0
  -18.1969  -26.7929   22.1575 C   0  0  0  0  0  0
  -19.1536  -28.8835   23.2899 C   0  0  0  0  0  0
  -18.9451  -30.1437   23.8912 C   0  0  0  0  0  0
  -17.6445  -30.6563   24.0562 C   0  0  0  0  0  0
  -25.9031  -34.9471   23.5113 C   0  0  0  0  0  0
  -16.5347  -29.9062   23.6299 C   0  0  0  0  0  0
  -16.7287  -28.6482   23.0320 C   0  0  0  0  0  0
  -26.4464  -31.6597   25.0713 C   0  0  0  0  0  0
  -25.3734  -31.3717   26.1461 C   0  0  0  0  0  0
  -27.0303  -30.3046   24.6092 C   0  0  0  0  0  0
  -27.6041  -32.4318   25.7480 C   0  0  0  0  0  0
  -27.5577  -37.1808   24.8464 C   0  0  0  0  0  0
  -21.4143  -29.3043   22.3720 N   0  0  0  0  0  0
  -26.4292  -37.3784   23.9404 N   0  0  0  0  0  0
  -24.6675  -31.0773   22.0977 N   0  0  0  0  0  0
  -23.4169  -28.8229   23.3066 O   0  0  0  0  0  0
  -28.4057  -26.7025   20.1200 O   0  0  0  0  0  0
  -26.5600  -34.8922   22.4674 O   0  0  0  0  0  0
  -23.5336  -32.1431   23.7469 O   0  0  0  0  0  0
  -29.0352  -19.0875   18.6042 C   0  0  0  0  0  0
  -29.1114  -17.8345   17.9823 C   0  0  0  0  0  0
  -29.5679  -18.0465   20.7473 C   0  0  0  0  0  0
  -29.2807  -19.2234   19.9910 C   0  0  0  0  0  0
  -29.6623  -16.7683   20.1223 C   0  0  0  0  0  0
  -29.4226  -16.6898   18.7276 C   0  0  0  0  0  0
  -29.2955  -21.7395   20.0855 C   0  0  0  0  0  0
  -27.5945  -25.5609   22.2192 C   0  0  0  0  0  0
  -28.9762  -22.9664   20.9652 C   0  0  0  0  0  0
  -28.4471  -24.2141   20.1863 C   0  0  0  0  0  0
  -28.5168  -25.5447   20.9806 C   0  0  1  0  0  0
  -29.1779  -20.5053   20.6367 N   0  0  0  0  0  0
  -29.8739  -15.5671   20.8890 N   0  0  0  0  0  0
  -29.6948  -21.9295   18.9340 O   0  0  0  0  0  0
  -29.4323  -15.5073   18.0820 F   0  0  0  0  0  0
  -31.4755  -12.4053   19.1599 H   0  0  0  0  0  0
  -30.3532  -11.3042   19.9026 H   0  0  0  0  0  0
  -29.7343  -11.6089   17.5241 H   0  0  0  0  0  0
  -29.7151  -13.3254   17.6796 H   0  0  0  0  0  0
  -27.8040  -11.2876   18.8425 H   0  0  0  0  0  0
  -27.3850  -12.6048   17.7829 H   0  0  0  0  0  0
  -27.6924  -14.2411   19.5417 H   0  0  0  0  0  0
  -28.6704  -11.9875   21.3669 H   0  0  0  0  0  0
  -28.4507  -13.6407   21.8555 H   0  0  0  0  0  0
  -25.2747   -9.5696   22.4758 H   0  0  0  0  0  0
  -23.9997   -7.4638   22.7471 H   0  0  0  0  0  0
  -21.0831   -8.8769   19.8955 H   0  0  0  0  0  0
  -22.3671  -10.9674   19.6173 H   0  0  0  0  0  0
  -21.2005   -7.6147   23.9711 H   0  0  0  0  0  0
  -21.1477   -6.0522   25.9070 H   0  0  0  0  0  0
  -22.0599   -2.7609   23.2841 H   0  0  0  0  0  0
  -22.4106  -11.9921   22.4792 H   0  0  0  0  0  0
  -21.1118  -13.1291   22.2602 H   0  0  0  0  0  0
  -24.6705  -15.8466   20.5054 H   0  0  0  0  0  0
  -26.2879  -15.6184   20.0733 H   0  0  0  0  0  0
  -26.7118  -32.5528   23.1157 H   0  0  0  0  0  0
  -25.0059  -33.9788   25.0465 H   0  0  0  0  0  0
  -22.6921  -31.3044   21.4060 H   0  0  0  0  0  0
  -23.3737  -35.9661   23.3314 H   0  0  0  0  0  0
  -24.3582  -36.8911   22.2051 H   0  0  0  0  0  0
  -23.7253  -37.6527   23.6648 H   0  0  0  0  0  0
  -26.0361  -31.5973   20.5859 H   0  0  0  0  0  0
  -26.8199  -30.8929   21.9728 H   0  0  0  0  0  0
  -28.1011  -29.1151   21.1603 H   0  0  0  0  0  0
  -26.0828  -25.9480   19.0497 H   0  0  0  0  0  0
  -23.9870  -27.2706   19.0508 H   0  0  0  0  0  0
  -23.7175  -30.5857   19.4017 H   0  0  0  0  0  0
  -22.7361  -29.2303   19.8734 H   0  0  0  0  0  0
  -25.1285  -36.1961   25.0828 H   0  0  0  0  0  0
  -20.9976  -28.3254   24.1439 H   0  0  0  0  0  0
  -20.5724  -26.2268   23.3570 H   0  0  0  0  0  0
  -21.6684  -26.7483   22.1188 H   0  0  0  0  0  0
  -19.6748  -27.3237   20.6727 H   0  0  0  0  0  0
  -19.6973  -25.6331   21.1188 H   0  0  0  0  0  0
  -17.4276  -26.6714   21.3938 H   0  0  0  0  0  0
  -18.0359  -26.0042   22.8936 H   0  0  0  0  0  0
  -19.7914  -30.7258   24.2315 H   0  0  0  0  0  0
  -17.4981  -31.6238   24.5171 H   0  0  0  0  0  0
  -15.5345  -30.2956   23.7596 H   0  0  0  0  0  0
  -15.8702  -28.0791   22.7009 H   0  0  0  0  0  0
  -24.5885  -30.7085   25.7800 H   0  0  0  0  0  0
  -24.8953  -32.2888   26.4921 H   0  0  0  0  0  0
  -25.8078  -30.8868   27.0212 H   0  0  0  0  0  0
  -26.2862  -29.6804   24.1133 H   0  0  0  0  0  0
  -27.4068  -29.7274   25.4545 H   0  0  0  0  0  0
  -27.8685  -30.4374   23.9249 H   0  0  0  0  0  0
  -27.2657  -33.3599   26.2100 H   0  0  0  0  0  0
  -28.3835  -32.6910   25.0303 H   0  0  0  0  0  0
  -28.0740  -31.8425   26.5362 H   0  0  0  0  0  0
  -28.2601  -38.0097   24.7493 H   0  0  0  0  0  0
  -28.1061  -36.2628   24.6304 H   0  0  0  0  0  0
  -27.2301  -37.1479   25.8868 H   0  0  0  0  0  0
  -20.9321  -29.8706   21.6877 H   0  0  0  0  0  0
  -26.0173  -38.2859   24.1394 H   0  0  0  0  0  0
  -28.7634  -19.9302   17.9866 H   0  0  0  0  0  0
  -28.9076  -17.7440   16.9258 H   0  0  0  0  0  0
  -29.7179  -18.1216   21.8143 H   0  0  0  0  0  0
  -27.8452  -24.7531   22.9074 H   0  0  0  0  0  0
  -26.5449  -25.4423   21.9489 H   0  0  0  0  0  0
  -27.6939  -26.4930   22.7769 H   0  0  0  0  0  0
  -29.9002  -23.2295   21.4807 H   0  0  0  0  0  0
  -28.2628  -22.6804   21.7385 H   0  0  0  0  0  0
  -27.4248  -24.0322   19.8565 H   0  0  0  0  0  0
  -29.0315  -24.3504   19.2758 H   0  0  0  0  0  0
  -29.5357  -25.6191   21.3640 H   0  0  0  0  0  0
  -28.9947  -20.4894   21.6311 H   0  0  0  0  0  0
  -29.0811  -15.2958   21.4492 H   0  0  0  0  0  0
  1 25  1  0  0  0
  1 30  2  0  0  0
  1 83  1  0  0  0
  2  3  1  0  0  0
  2 25  1  0  0  0
  2 86  1  0  0  0
  2 87  1  0  0  0
  3  4  1  0  0  0
  3 88  1  0  0  0
  3 89  1  0  0  0
  4  5  1  0  0  0
  4 90  1  0  0  0
  4 91  1  0  0  0
  5  6  1  0  0  0
  5 26  1  0  0  0
  5 92  1  0  0  0
  6 25  1  0  0  0
  6 93  1  0  0  0
  6 94  1  0  0  0
  7  8  2  0  0  0
  7 26  1  0  0  0
  7 29  1  0  0  0
  8  9  1  0  0  0
  8 22  1  0  0  0
  9 10  1  0  0  0
  9 27  2  0  0  0
 10 11  2  0  0  0
 10 15  1  0  0  0
 11 12  1  0  0  0
 11 95  1  0  0  0
 12 13  2  0  0  0
 12 96  1  0  0  0
 13 14  1  0  0  0
 13 31  1  0  0  0
 14 15  2  0  0  0
 14 97  1  0  0  0
 15 98  1  0  0  0
 16 17  2  0  0  0
 16 21  1  0  0  0
 16 31  1  0  0  0
 17 18  1  0  0  0
 17 99  1  0  0  0
 18 19  2  0  0  0
 18100  1  0  0  0
 19 20  1  0  0  0
 19 24  1  0  0  0
 20 21  2  0  0  0
 20101  1  0  0  0
 21 23  1  0  0  0
 22 28  1  0  0  0
 22 32  2  0  0  0
 26 27  1  0  0  0
 28102  1  0  0  0
 28103  1  0  0  0
 29104  1  0  0  0
 29105  1  0  0  0
 33 34  1  0  0  0
 33 66  1  0  0  0
 33 70  2  0  0  0
 34 36  1  0  0  0
 34 59  1  0  0  0
 34106  1  0  0  0
 35 44  2  0  0  0
 35 45  1  0  0  0
 35 68  1  0  0  0
 36 56  1  0  0  0
 36107  1  0  0  0
 37 39  1  0  0  0
 37 47  1  0  0  0
 37 66  1  0  0  0
 37108  1  0  0  0
 38 43  2  0  0  0
 38 46  1  0  0  0
 38 47  1  0  0  0
 39 64  1  0  0  0
 39 67  2  0  0  0
 40 52  1  0  0  0
 40 53  2  0  0  0
 40 58  1  0  0  0
 41109  1  0  0  0
 41110  1  0  0  0
 41111  1  0  0  0
 41 48  1  0  0  0
 42 43  1  0  0  0
 42 66  1  0  0  0
 42112  1  0  0  0
 42113  1  0  0  0
 43 44  1  0  0  0
 44114  1  0  0  0
 45 46  2  0  0  0
 45115  1  0  0  0
 46116  1  0  0  0
 47117  1  0  0  0
 47118  1  0  0  0
 48 56  1  0  0  0
 48 65  1  0  0  0
 48119  1  0  0  0
 49 50  1  0  0  0
 49 53  1  0  0  0
 49 64  1  0  0  0
 49120  1  0  0  0
 50 51  1  0  0  0
 50121  1  0  0  0
 50122  1  0  0  0
 51 52  1  0  0  0
 51123  1  0  0  0
 51124  1  0  0  0
 52125  1  0  0  0
 52126  1  0  0  0
 53 54  1  0  0  0
 54 55  2  0  0  0
 54127  1  0  0  0
 55 57  1  0  0  0
 55128  1  0  0  0
 56 69  2  0  0  0
 57 58  2  0  0  0
 57129  1  0  0  0
 58130  1  0  0  0
 59 60  1  0  0  0
 59 61  1  0  0  0
 59 62  1  0  0  0
 60131  1  0  0  0
 60132  1  0  0  0
 60133  1  0  0  0
 61134  1  0  0  0
 61135  1  0  0  0
 61136  1  0  0  0
 62137  1  0  0  0
 62138  1  0  0  0
 62139  1  0  0  0
 63 65  1  0  0  0
 63140  1  0  0  0
 63141  1  0  0  0
 63142  1  0  0  0
 64143  1  0  0  0
 65144  1  0  0  0
 68 81  1  0  0  0
 71 72  2  0  0  0
 71 74  1  0  0  0
 71145  1  0  0  0
 72 76  1  0  0  0
 72146  1  0  0  0
 73 74  2  0  0  0
 73 75  1  0  0  0
 73147  1  0  0  0
 74 82  1  0  0  0
 75 76  2  0  0  0
 75 83  1  0  0  0
 76 85  1  0  0  0
 77 79  1  0  0  0
 77 82  1  0  0  0
 77 84  2  0  0  0
 78148  1  0  0  0
 78149  1  0  0  0
 78150  1  0  0  0
 78 81  1  0  0  0
 79 80  1  0  0  0
 79151  1  0  0  0
 79152  1  0  0  0
 80 81  1  0  0  0
 80153  1  0  0  0
 80154  1  0  0  0
 81155  1  0  0  0
 82156  1  0  0  0
 83157  1  0  0  0
M  ISO  4   1 100  68 101  81 101  83 100
M  END
> <chiral flag>
0

> <version>
0

> <s_m_source_file>
/data/baiqing/PycharmProjects/Reinvent-master-3.2/result/LINK_invent/BTK/process_docking_weight1_custom_product_contain_oxygen_bond_distance_aromatic_linkinvent_7_9_3/rearranged_h_0172.sdf

> <i_m_source_file_index>
32

> <r_mmod_Potential_Energy-OPLS-2005>
-90.1410140991211

> <r_mmod_Stretch_Energy-OPLS-2005>
43.8644752502441

> <r_mmod_Bend_Energy-OPLS-2005>
103.809158325195

> <r_mmod_Torsional_Energy-OPLS-2005>
284.234191894531

> <r_mmod_Improper_Torsional_Energy-OPLS-2005>
6.7640061378479

> <r_mmod_Van_der_Waal_Energy-OPLS-2005>
156.493362426758

> <r_mmod_Electrostatic_Energy-OPLS-2005>
-471.536499023438

> <r_mmod_Solvation_Energy-OPLS-2005>
-233.759857177734

> <b_mmod_Minimization_Converged-OPLS-2005>
0

> <r_mmod_RMS_Derivative-OPLS-2005>
1.51001715660095

$$$$
32
                    3D
 Structure written by MMmdl.
157165  0  0  1  0            999 V2000
  -30.5633  -14.4628   20.5358 C   0  0  0  0  0  0
  -30.4380  -12.3005   19.3778 C   0  0  0  0  0  0
  -29.4899  -12.5175   18.1785 C   0  0  0  0  0  0
  -28.0011  -12.3995   18.5794 C   0  0  0  0  0  0
  -27.6594  -13.1825   19.8762 C   0  0  2  0  0  0
  -28.7009  -12.8489   20.9683 C   0  0  0  0  0  0
  -25.2584  -13.8128   20.5645 C   0  0  0  0  0  0
  -24.1820  -13.0449   20.9118 C   0  0  0  0  0  0
  -24.6344  -11.6893   20.8673 C   0  0  0  0  0  0
  -23.9014  -10.4305   21.0357 C   0  0  0  0  0  0
  -24.3596   -9.4224   21.9137 C   0  0  0  0  0  0
  -23.6297   -8.2237   22.0734 C   0  0  0  0  0  0
  -22.4270   -8.0250   21.3553 C   0  0  0  0  0  0
  -21.9874   -9.0218   20.4661 C   0  0  0  0  0  0
  -22.7170  -10.2118   20.3045 C   0  0  0  0  0  0
  -21.6876   -6.0722   22.5304 C   0  0  0  0  0  0
  -21.4013   -6.5629   23.8229 C   0  0  0  0  0  0
  -21.3646   -5.6766   24.9192 C   0  0  0  0  0  0
  -21.6042   -4.3036   24.7218 C   0  0  0  0  0  0
  -21.8835   -3.8135   23.4351 C   0  0  0  0  0  0
  -21.9211   -4.6960   22.3405 C   0  0  0  0  0  0
  -22.7841  -13.5288   21.1760 C   0  0  0  0  0  0
  -22.1686   -4.2163   21.0970 F   0  0  0  0  0  0
  -21.5610   -3.4493   25.7718 F   0  0  0  0  0  0
  -30.0237  -13.2224   20.4392 N   0  0  0  0  0  0
  -26.2995  -12.9253   20.3329 N   0  0  0  0  0  0
  -25.9259  -11.6430   20.5691 N   0  0  0  0  0  0
  -22.0455  -12.8395   22.0359 N   0  0  0  0  0  0
  -25.4220  -15.1859   20.4084 N   0  0  0  0  0  0
  -31.6828  -14.7652   20.1104 O   0  0  0  0  0  0
  -21.6637   -6.8857   21.4261 O   0  0  0  0  0  0
  -22.3561  -14.5595   20.6574 O   0  0  0  0  0  0
  -24.6195  -31.8719   23.2078 C   0  0  0  0  0  0
  -25.9065  -32.4831   23.8394 C   0  0  1  0  0  0
  -27.1962  -27.4111   20.0731 C   0  0  0  0  0  0
  -25.5952  -33.8643   24.2360 N   0  0  0  0  0  0
  -23.4015  -30.5044   21.5536 C   0  0  2  0  0  0
  -24.8336  -28.9636   20.1265 C   0  0  0  0  0  0
  -22.7433  -29.4703   22.4955 C   0  0  0  0  0  0
  -18.0349  -28.1385   22.8518 C   0  0  0  0  0  0
  -24.1496  -36.7318   23.2625 C   0  0  0  0  0  0
  -25.9360  -30.8247   21.3648 C   0  0  0  0  0  0
  -26.0010  -29.4574   20.7126 C   0  0  0  0  0  0
  -27.1882  -28.6850   20.6949 C   0  0  0  0  0  0
  -26.0055  -26.9571   19.4626 C   0  0  0  0  0  0
  -24.8273  -27.7083   19.5106 C   0  0  0  0  0  0
  -23.6069  -29.8403   20.1684 C   0  0  0  0  0  0
  -25.4126  -36.3149   24.0335 C   0  0  1  0  0  0
  -20.5909  -28.3741   23.1354 C   0  0  2  0  0  0
  -20.6850  -26.9431   22.5580 C   0  0  0  0  0  0
  -19.5863  -26.6309   21.5371 C   0  0  0  0  0  0
  -18.2037  -26.7889   22.1729 C   0  0  0  0  0  0
  -19.1557  -28.8883   23.2904 C   0  0  0  0  0  0
  -18.9436  -30.1517   23.8847 C   0  0  0  0  0  0
  -17.6399  -30.6601   24.0516 C   0  0  0  0  0  0
  -25.9029  -34.9505   23.5145 C   0  0  0  0  0  0
  -16.5336  -29.9060   23.6273 C   0  0  0  0  0  0
  -16.7297  -28.6467   23.0329 C   0  0  0  0  0  0
  -26.4506  -31.6595   25.0715 C   0  0  0  0  0  0
  -25.3727  -31.3694   26.1430 C   0  0  0  0  0  0
  -27.0335  -30.3026   24.6126 C   0  0  0  0  0  0
  -27.6118  -32.4295   25.7414 C   0  0  0  0  0  0
  -27.5608  -37.1825   24.8448 C   0  0  0  0  0  0
  -21.4153  -29.3075   22.3674 N   0  0  0  0  0  0
  -26.4312  -37.3831   23.9413 N   0  0  0  0  0  0
  -24.6719  -31.0802   22.0996 N   0  0  0  0  0  0
  -23.4203  -28.8228   23.2954 O   0  0  0  0  0  0
  -28.3585  -26.6611   20.0927 O   0  0  0  0  0  0
  -26.5553  -34.8958   22.4670 O   0  0  0  0  0  0
  -23.5355  -32.1491   23.7462 O   0  0  0  0  0  0
  -29.1692  -17.7062   21.3944 C   0  0  0  0  0  0
  -29.3703  -16.6388   20.5056 C   0  0  0  0  0  0
  -28.8481  -18.9821   20.8948 C   0  0  0  0  0  0
  -28.6302  -19.1477   19.5062 C   0  0  0  0  0  0
  -29.1366  -16.8808   19.1293 C   0  0  0  0  0  0
  -28.2666  -20.5012   18.9295 C   0  0  0  0  0  0
  -27.6038  -21.6231   19.7972 C   0  0  0  0  0  0
  -28.4125  -25.5291   17.9159 C   0  0  0  0  0  0
  -27.5868  -24.1932   20.0447 C   0  0  0  0  0  0
  -28.4503  -25.3639   19.4535 C   0  0  1  0  0  0
  -28.7776  -18.0945   18.6451 N   0  0  0  0  0  0
  -26.6215  -21.3536   20.7016 N   0  0  0  0  0  0
  -29.6961  -15.3566   21.0442 N   0  0  0  0  0  0
  -28.0221  -22.8823   19.5143 N   0  3  0  0  0  0
  -28.4638  -20.7888   17.7402 O   0  0  0  0  0  0
  -28.8044  -20.0250   21.7553 F   0  0  0  0  0  0
  -29.2072  -15.8563   18.2505 F   0  0  0  0  0  0
  -31.4679  -12.4668   19.0690 H   0  0  0  0  0  0
  -30.3887  -11.2710   19.7254 H   0  0  0  0  0  0
  -29.7240  -11.8063   17.3852 H   0  0  0  0  0  0
  -29.6723  -13.5034   17.7514 H   0  0  0  0  0  0
  -27.7791  -11.3423   18.7177 H   0  0  0  0  0  0
  -27.3722  -12.7393   17.7560 H   0  0  0  0  0  0
  -27.7150  -14.2419   19.6269 H   0  0  0  0  0  0
  -28.6841  -11.7790   21.1776 H   0  0  0  0  0  0
  -28.4729  -13.3232   21.9202 H   0  0  0  0  0  0
  -25.2742   -9.5730   22.4713 H   0  0  0  0  0  0
  -24.0022   -7.4641   22.7476 H   0  0  0  0  0  0
  -21.0784   -8.8742   19.8983 H   0  0  0  0  0  0
  -22.3595  -10.9657   19.6155 H   0  0  0  0  0  0
  -21.1988   -7.6123   23.9759 H   0  0  0  0  0  0
  -21.1447   -6.0473   25.9120 H   0  0  0  0  0  0
  -22.0620   -2.7606   23.2832 H   0  0  0  0  0  0
  -22.4069  -12.0071   22.4795 H   0  0  0  0  0  0
  -21.1049  -13.1438   22.2493 H   0  0  0  0  0  0
  -24.6347  -15.8171   20.5100 H   0  0  0  0  0  0
  -26.2576  -15.6424   20.0737 H   0  0  0  0  0  0
  -26.7148  -32.5538   23.1175 H   0  0  0  0  0  0
  -25.0261  -33.9807   25.0632 H   0  0  0  0  0  0
  -22.6936  -31.3258   21.4148 H   0  0  0  0  0  0
  -23.3786  -35.9607   23.3235 H   0  0  0  0  0  0
  -24.3577  -36.8943   22.2035 H   0  0  0  0  0  0
  -23.7196  -37.6507   23.6627 H   0  0  0  0  0  0
  -26.0511  -31.5891   20.5981 H   0  0  0  0  0  0
  -26.8279  -30.8793   21.9790 H   0  0  0  0  0  0
  -28.0857  -29.0648   21.1620 H   0  0  0  0  0  0
  -25.9378  -26.0271   18.9290 H   0  0  0  0  0  0
  -23.9216  -27.3226   19.0654 H   0  0  0  0  0  0
  -23.7316  -30.6167   19.4119 H   0  0  0  0  0  0
  -22.7296  -29.2702   19.8588 H   0  0  0  0  0  0
  -25.1303  -36.2038   25.0826 H   0  0  0  0  0  0
  -21.0045  -28.3402   24.1465 H   0  0  0  0  0  0
  -20.5712  -26.2447   23.3883 H   0  0  0  0  0  0
  -21.6759  -26.7412   22.1532 H   0  0  0  0  0  0
  -19.7050  -25.6163   21.1600 H   0  0  0  0  0  0
  -19.6877  -27.2977   20.6796 H   0  0  0  0  0  0
  -17.4392  -26.6560   21.4072 H   0  0  0  0  0  0
  -18.0429  -26.0067   22.9171 H   0  0  0  0  0  0
  -19.7879  -30.7411   24.2170 H   0  0  0  0  0  0
  -17.4913  -31.6260   24.5121 H   0  0  0  0  0  0
  -15.5327  -30.2929   23.7500 H   0  0  0  0  0  0
  -15.8726  -28.0734   22.7056 H   0  0  0  0  0  0
  -24.5963  -30.6993   25.7739 H   0  0  0  0  0  0
  -24.8857  -32.2831   26.4841 H   0  0  0  0  0  0
  -25.8069  -30.8889   27.0204 H   0  0  0  0  0  0
  -26.2855  -29.6736   24.1289 H   0  0  0  0  0  0
  -27.4188  -29.7370   25.4621 H   0  0  0  0  0  0
  -27.8664  -30.4318   23.9200 H   0  0  0  0  0  0
  -27.2824  -33.3664   26.1915 H   0  0  0  0  0  0
  -28.3920  -32.6710   25.0173 H   0  0  0  0  0  0
  -28.0773  -31.8425   26.5344 H   0  0  0  0  0  0
  -28.2654  -38.0114   24.7588 H   0  0  0  0  0  0
  -28.1113  -36.2679   24.6211 H   0  0  0  0  0  0
  -27.2314  -37.1360   25.8840 H   0  0  0  0  0  0
  -20.9322  -29.8824   21.6950 H   0  0  0  0  0  0
  -26.0217  -38.2900   24.1483 H   0  0  0  0  0  0
  -29.2836  -17.5578   22.4570 H   0  0  0  0  0  0
  -27.4193  -25.4286   17.4837 H   0  0  0  0  0  0
  -29.0395  -24.7873   17.4245 H   0  0  0  0  0  0
  -28.7929  -26.5102   17.6325 H   0  0  0  0  0  0
  -26.5256  -24.2943   19.8327 H   0  0  0  0  0  0
  -27.6665  -24.1872   21.1296 H   0  0  0  0  0  0
  -29.4762  -25.0849   19.6952 H   0  0  0  0  0  0
  -26.4040  -20.3845   20.9007 H   0  0  0  0  0  0
  -26.2197  -22.0564   21.3063 H   0  0  0  0  0  0
  -28.9184  -14.8945   21.4921 H   0  0  0  0  0  0
  -28.6811  -22.9377   18.7580 H   0  0  0  0  0  0
  1 25  1  0  0  0
  1 30  2  0  0  0
  1 83  1  0  0  0
  2  3  1  0  0  0
  2 25  1  0  0  0
  2 88  1  0  0  0
  2 89  1  0  0  0
  3  4  1  0  0  0
  3 90  1  0  0  0
  3 91  1  0  0  0
  4  5  1  0  0  0
  4 92  1  0  0  0
  4 93  1  0  0  0
  5  6  1  0  0  0
  5 26  1  0  0  0
  5 94  1  0  0  0
  6 25  1  0  0  0
  6 95  1  0  0  0
  6 96  1  0  0  0
  7  8  2  0  0  0
  7 26  1  0  0  0
  7 29  1  0  0  0
  8  9  1  0  0  0
  8 22  1  0  0  0
  9 10  1  0  0  0
  9 27  2  0  0  0
 10 11  2  0  0  0
 10 15  1  0  0  0
 11 12  1  0  0  0
 11 97  1  0  0  0
 12 13  2  0  0  0
 12 98  1  0  0  0
 13 14  1  0  0  0
 13 31  1  0  0  0
 14 15  2  0  0  0
 14 99  1  0  0  0
 15100  1  0  0  0
 16 17  2  0  0  0
 16 21  1  0  0  0
 16 31  1  0  0  0
 17 18  1  0  0  0
 17101  1  0  0  0
 18 19  2  0  0  0
 18102  1  0  0  0
 19 20  1  0  0  0
 19 24  1  0  0  0
 20 21  2  0  0  0
 20103  1  0  0  0
 21 23  1  0  0  0
 22 28  1  0  0  0
 22 32  2  0  0  0
 26 27  1  0  0  0
 28104  1  0  0  0
 28105  1  0  0  0
 29106  1  0  0  0
 29107  1  0  0  0
 33 34  1  0  0  0
 33 66  1  0  0  0
 33 70  2  0  0  0
 34 36  1  0  0  0
 34 59  1  0  0  0
 34108  1  0  0  0
 35 44  2  0  0  0
 35 45  1  0  0  0
 35 68  1  0  0  0
 36 56  1  0  0  0
 36109  1  0  0  0
 37 39  1  0  0  0
 37 47  1  0  0  0
 37 66  1  0  0  0
 37110  1  0  0  0
 38 43  2  0  0  0
 38 46  1  0  0  0
 38 47  1  0  0  0
 39 64  1  0  0  0
 39 67  2  0  0  0
 40 52  1  0  0  0
 40 53  2  0  0  0
 40 58  1  0  0  0
 41111  1  0  0  0
 41112  1  0  0  0
 41113  1  0  0  0
 41 48  1  0  0  0
 42 43  1  0  0  0
 42 66  1  0  0  0
 42114  1  0  0  0
 42115  1  0  0  0
 43 44  1  0  0  0
 44116  1  0  0  0
 45 46  2  0  0  0
 45117  1  0  0  0
 46118  1  0  0  0
 47119  1  0  0  0
 47120  1  0  0  0
 48 56  1  0  0  0
 48 65  1  0  0  0
 48121  1  0  0  0
 49 50  1  0  0  0
 49 53  1  0  0  0
 49 64  1  0  0  0
 49122  1  0  0  0
 50 51  1  0  0  0
 50123  1  0  0  0
 50124  1  0  0  0
 51 52  1  0  0  0
 51125  1  0  0  0
 51126  1  0  0  0
 52127  1  0  0  0
 52128  1  0  0  0
 53 54  1  0  0  0
 54 55  2  0  0  0
 54129  1  0  0  0
 55 57  1  0  0  0
 55130  1  0  0  0
 56 69  2  0  0  0
 57 58  2  0  0  0
 57131  1  0  0  0
 58132  1  0  0  0
 59 60  1  0  0  0
 59 61  1  0  0  0
 59 62  1  0  0  0
 60133  1  0  0  0
 60134  1  0  0  0
 60135  1  0  0  0
 61136  1  0  0  0
 61137  1  0  0  0
 61138  1  0  0  0
 62139  1  0  0  0
 62140  1  0  0  0
 62141  1  0  0  0
 63 65  1  0  0  0
 63142  1  0  0  0
 63143  1  0  0  0
 63144  1  0  0  0
 64145  1  0  0  0
 65146  1  0  0  0
 68 80  1  0  0  0
 71 72  2  0  0  0
 71 73  1  0  0  0
 71147  1  0  0  0
 72 75  1  0  0  0
 72 83  1  0  0  0
 73 74  2  0  0  0
 73 86  1  0  0  0
 74 76  1  0  0  0
 74 81  1  0  0  0
 75 81  2  0  0  0
 75 87  1  0  0  0
 76 77  1  0  0  0
 76 85  2  0  0  0
 77 82  1  0  0  0
 77 84  2  0  0  0
 78148  1  0  0  0
 78149  1  0  0  0
 78150  1  0  0  0
 78 80  1  0  0  0
 79 80  1  0  0  0
 79 84  1  0  0  0
 79151  1  0  0  0
 79152  1  0  0  0
 80153  1  0  0  0
 82154  1  0  0  0
 82155  1  0  0  0
 83156  1  0  0  0
 84157  1  0  0  0
M  CHG  1  84   1
M  ISO  4   1 100  68 101  80 101  83 100
M  END
> <chiral flag>
0

> <version>
0

> <s_m_source_file>
/data/baiqing/PycharmProjects/Reinvent-master-3.2/result/LINK_invent/BTK/process_docking_weight1_custom_product_contain_oxygen_bond_distance_aromatic_linkinvent_7_9_3/rearranged_h_0172.sdf

> <i_m_source_file_index>
33

> <r_mmod_Potential_Energy-OPLS-2005>
-245.505386352539

> <r_mmod_Stretch_Energy-OPLS-2005>
46.3233489990234

> <r_mmod_Bend_Energy-OPLS-2005>
130.327178955078

> <r_mmod_Torsional_Energy-OPLS-2005>
255.395980834961

> <r_mmod_Improper_Torsional_Energy-OPLS-2005>
7.40374517440796

> <r_mmod_Van_der_Waal_Energy-OPLS-2005>
161.587188720703

> <r_mmod_Electrostatic_Energy-OPLS-2005>
-361.0009765625

> <r_mmod_Solvation_Energy-OPLS-2005>
-508.086822509766

> <b_mmod_Minimization_Converged-OPLS-2005>
0

> <r_mmod_RMS_Derivative-OPLS-2005>
7.90248441696167

$$$$
33
                    3D
 Structure written by MMmdl.
162170  0  0  1  0            999 V2000
  -30.7372  -14.4873   20.5595 C   0  0  0  0  0  0
  -30.4141  -12.3180   19.4303 C   0  0  0  0  0  0
  -29.4941  -12.5002   18.2081 C   0  0  0  0  0  0
  -28.0185  -12.3569   18.6249 C   0  0  0  0  0  0
  -27.6578  -13.2114   19.8709 C   0  0  2  0  0  0
  -28.7026  -13.0460   20.9993 C   0  0  0  0  0  0
  -25.2541  -13.8104   20.5548 C   0  0  0  0  0  0
  -24.1813  -13.0399   20.9164 C   0  0  0  0  0  0
  -24.6398  -11.6890   20.8744 C   0  0  0  0  0  0
  -23.9065  -10.4277   21.0415 C   0  0  0  0  0  0
  -24.3624   -9.4195   21.9189 C   0  0  0  0  0  0
  -23.6290   -8.2232   22.0778 C   0  0  0  0  0  0
  -22.4277   -8.0275   21.3553 C   0  0  0  0  0  0
  -21.9908   -9.0256   20.4650 C   0  0  0  0  0  0
  -22.7241  -10.2127   20.3050 C   0  0  0  0  0  0
  -21.6855   -6.0724   22.5284 C   0  0  0  0  0  0
  -21.3991   -6.5627   23.8206 C   0  0  0  0  0  0
  -21.3659   -5.6781   24.9179 C   0  0  0  0  0  0
  -21.6050   -4.3047   24.7228 C   0  0  0  0  0  0
  -21.8807   -3.8139   23.4347 C   0  0  0  0  0  0
  -21.9174   -4.6954   22.3408 C   0  0  0  0  0  0
  -22.7846  -13.5231   21.1855 C   0  0  0  0  0  0
  -22.1648   -4.2133   21.0986 F   0  0  0  0  0  0
  -21.5658   -3.4525   25.7744 F   0  0  0  0  0  0
  -30.0298  -13.3293   20.4311 N   0  0  0  0  0  0
  -26.3002  -12.9306   20.3343 N   0  0  0  0  0  0
  -25.9329  -11.6474   20.5803 N   0  0  0  0  0  0
  -22.0504  -12.8245   22.0443 N   0  0  0  0  0  0
  -25.4237  -15.1757   20.3741 N   0  0  0  0  0  0
  -31.8591  -14.6289   20.0639 O   0  0  0  0  0  0
  -21.6650   -6.8874   21.4245 O   0  0  0  0  0  0
  -22.3518  -14.5534   20.6734 O   0  0  0  0  0  0
  -24.6170  -31.8681   23.2120 C   0  0  0  0  0  0
  -25.9069  -32.4819   23.8406 C   0  0  1  0  0  0
  -27.2244  -27.4108   20.0855 C   0  0  0  0  0  0
  -25.5932  -33.8625   24.2330 N   0  0  0  0  0  0
  -23.4054  -30.4962   21.5550 C   0  0  2  0  0  0
  -24.8477  -28.9674   20.1129 C   0  0  0  0  0  0
  -22.7413  -29.4667   22.4984 C   0  0  0  0  0  0
  -18.0284  -28.1363   22.8504 C   0  0  0  0  0  0
  -24.1492  -36.7313   23.2637 C   0  0  0  0  0  0
  -25.9384  -30.8260   21.3710 C   0  0  0  0  0  0
  -26.0133  -29.4611   20.7130 C   0  0  0  0  0  0
  -27.2044  -28.6911   20.6970 C   0  0  0  0  0  0
  -26.0314  -26.9523   19.4689 C   0  0  0  0  0  0
  -24.8523  -27.7132   19.4883 C   0  0  0  0  0  0
  -23.6142  -29.8388   20.1665 C   0  0  0  0  0  0
  -25.4118  -36.3114   24.0337 C   0  0  1  0  0  0
  -20.5878  -28.3672   23.1312 C   0  0  2  0  0  0
  -20.6784  -26.9414   22.5396 C   0  0  0  0  0  0
  -19.5754  -26.6380   21.5199 C   0  0  0  0  0  0
  -18.1943  -26.7909   22.1622 C   0  0  0  0  0  0
  -19.1537  -28.8828   23.2915 C   0  0  0  0  0  0
  -18.9453  -30.1436   23.8917 C   0  0  0  0  0  0
  -17.6451  -30.6577   24.0567 C   0  0  0  0  0  0
  -25.9044  -34.9478   23.5120 C   0  0  0  0  0  0
  -16.5348  -29.9079   23.6322 C   0  0  0  0  0  0
  -16.7274  -28.6492   23.0345 C   0  0  0  0  0  0
  -26.4491  -31.6596   25.0735 C   0  0  0  0  0  0
  -25.3750  -31.3722   26.1475 C   0  0  0  0  0  0
  -27.0309  -30.3035   24.6115 C   0  0  0  0  0  0
  -27.6064  -32.4305   25.7498 C   0  0  0  0  0  0
  -27.5586  -37.1817   24.8465 C   0  0  0  0  0  0
  -21.4145  -29.3045   22.3716 N   0  0  0  0  0  0
  -26.4296  -37.3797   23.9412 N   0  0  0  0  0  0
  -24.6729  -31.0763   22.1044 N   0  0  0  0  0  0
  -23.4169  -28.8189   23.3018 O   0  0  0  0  0  0
  -28.3711  -26.6258   20.1134 O   0  0  0  0  0  0
  -26.5577  -34.8916   22.4671 O   0  0  0  0  0  0
  -23.5356  -32.1431   23.7514 O   0  0  0  0  0  0
  -30.0068  -19.2676   20.2490 C   0  0  0  0  0  0
  -29.4218  -18.0648   20.7889 C   0  0  0  0  0  0
  -28.4904  -18.3605   21.7661 C   0  0  0  0  0  0
  -29.5335  -20.4394   20.7950 C   0  0  0  0  0  0
  -26.1428  -17.5730   22.4679 C   0  0  0  0  0  0
  -29.2990  -24.2737   20.2725 C   0  0  0  0  0  0
  -25.3091  -16.7731   23.4577 C   0  0  0  0  0  0
  -30.6979  -15.9495   22.4327 C   0  0  0  0  0  0
  -29.7597  -16.6758   20.2349 C   0  0  0  0  0  0
  -27.6600  -17.4153   22.5894 C   0  0  0  0  0  0
  -28.8965  -22.8443   20.7169 C   0  0  0  0  0  0
  -28.1311  -25.2113   19.9048 C   0  0  0  0  0  0
  -29.8689  -21.7647   20.4612 N   0  0  0  0  0  0
  -30.1220  -15.5488   21.1437 N   0  0  0  0  0  0
  -25.6033  -18.2749   21.6078 O   0  0  0  0  0  0
  -30.4823  -24.6191   20.1793 O   0  0  0  0  0  0
  -28.3760  -20.0845   22.0506 S   0  0  0  0  0  0
  -31.4627  -12.3881   19.1358 H   0  0  0  0  0  0
  -30.2931  -11.3172   19.8467 H   0  0  0  0  0  0
  -29.7408  -11.7667   17.4389 H   0  0  0  0  0  0
  -29.6546  -13.4811   17.7602 H   0  0  0  0  0  0
  -27.8409  -11.3024   18.8392 H   0  0  0  0  0  0
  -27.3649  -12.6110   17.7904 H   0  0  0  0  0  0
  -27.6882  -14.2526   19.5564 H   0  0  0  0  0  0
  -28.6794  -12.0290   21.3922 H   0  0  0  0  0  0
  -28.4674  -13.7016   21.8410 H   0  0  0  0  0  0
  -25.2758   -9.5670   22.4775 H   0  0  0  0  0  0
  -23.9991   -7.4629   22.7511 H   0  0  0  0  0  0
  -21.0832   -8.8782   19.8957 H   0  0  0  0  0  0
  -22.3707  -10.9685   19.6170 H   0  0  0  0  0  0
  -21.1973   -7.6135   23.9704 H   0  0  0  0  0  0
  -21.1511   -6.0523   25.9080 H   0  0  0  0  0  0
  -22.0591   -2.7598   23.2857 H   0  0  0  0  0  0
  -22.4069  -11.9920   22.4892 H   0  0  0  0  0  0
  -21.1134  -13.1322   22.2614 H   0  0  0  0  0  0
  -24.6495  -15.8252   20.4419 H   0  0  0  0  0  0
  -26.2610  -15.6020   19.9972 H   0  0  0  0  0  0
  -26.7138  -32.5515   23.1158 H   0  0  0  0  0  0
  -25.0129  -33.9780   25.0510 H   0  0  0  0  0  0
  -22.6964  -31.3159   21.4217 H   0  0  0  0  0  0
  -23.3739  -35.9655   23.3303 H   0  0  0  0  0  0
  -24.3587  -36.8914   22.2047 H   0  0  0  0  0  0
  -23.7240  -37.6527   23.6630 H   0  0  0  0  0  0
  -26.0547  -31.5946   20.6059 H   0  0  0  0  0  0
  -26.8261  -30.8738   21.9905 H   0  0  0  0  0  0
  -28.1004  -29.0668   21.1709 H   0  0  0  0  0  0
  -25.9766  -26.0034   18.9570 H   0  0  0  0  0  0
  -23.9580  -27.3310   19.0171 H   0  0  0  0  0  0
  -23.7254  -30.6202   19.4134 H   0  0  0  0  0  0
  -22.7352  -29.2662   19.8655 H   0  0  0  0  0  0
  -25.1289  -36.1985   25.0825 H   0  0  0  0  0  0
  -20.9980  -28.3227   24.1433 H   0  0  0  0  0  0
  -20.5720  -26.2278   23.3580 H   0  0  0  0  0  0
  -21.6656  -26.7473   22.1192 H   0  0  0  0  0  0
  -19.6921  -25.6289   21.1246 H   0  0  0  0  0  0
  -19.6687  -27.3191   20.6734 H   0  0  0  0  0  0
  -17.4220  -26.6669   21.4026 H   0  0  0  0  0  0
  -18.0347  -26.0039   22.9001 H   0  0  0  0  0  0
  -19.7932  -30.7266   24.2280 H   0  0  0  0  0  0
  -17.5005  -31.6262   24.5152 H   0  0  0  0  0  0
  -15.5344  -30.2972   23.7633 H   0  0  0  0  0  0
  -15.8685  -28.0819   22.7017 H   0  0  0  0  0  0
  -24.5929  -30.7053   25.7827 H   0  0  0  0  0  0
  -24.8931  -32.2881   26.4895 H   0  0  0  0  0  0
  -25.8106  -30.8916   27.0242 H   0  0  0  0  0  0
  -26.2854  -29.6810   24.1140 H   0  0  0  0  0  0
  -27.4047  -29.7257   25.4579 H   0  0  0  0  0  0
  -27.8704  -30.4347   23.9284 H   0  0  0  0  0  0
  -27.2689  -33.3595   26.2095 H   0  0  0  0  0  0
  -28.3865  -32.6873   25.0326 H   0  0  0  0  0  0
  -28.0720  -31.8404   26.5391 H   0  0  0  0  0  0
  -28.2611  -38.0103   24.7504 H   0  0  0  0  0  0
  -28.1071  -36.2638   24.6301 H   0  0  0  0  0  0
  -27.2297  -37.1481   25.8862 H   0  0  0  0  0  0
  -20.9277  -29.8809   21.7007 H   0  0  0  0  0  0
  -26.0183  -38.2876   24.1403 H   0  0  0  0  0  0
  -30.7430  -19.2276   19.4570 H   0  0  0  0  0  0
  -24.9547  -17.4257   24.2526 H   0  0  0  0  0  0
  -25.9122  -15.9821   23.9047 H   0  0  0  0  0  0
  -24.4521  -16.3129   22.9664 H   0  0  0  0  0  0
  -31.4436  -16.7337   22.2950 H   0  0  0  0  0  0
  -31.1920  -15.1142   22.9325 H   0  0  0  0  0  0
  -29.9427  -16.3070   23.1266 H   0  0  0  0  0  0
  -30.5560  -16.7927   19.4946 H   0  0  0  0  0  0
  -28.9027  -16.3329   19.6561 H   0  0  0  0  0  0
  -27.9264  -17.5346   23.6399 H   0  0  0  0  0  0
  -27.8833  -16.3851   22.3196 H   0  0  0  0  0  0
  -27.9716  -22.5822   20.2019 H   0  0  0  0  0  0
  -28.6576  -22.8924   21.7813 H   0  0  0  0  0  0
  -27.2716  -24.8945   20.4966 H   0  0  0  0  0  0
  -27.8918  -25.0329   18.8554 H   0  0  0  0  0  0
  -30.5072  -21.9440   19.6879 H   0  0  0  0  0  0
  1 25  1  0  0  0
  1 30  2  0  0  0
  1 84  1  0  0  0
  2  3  1  0  0  0
  2 25  1  0  0  0
  2 88  1  0  0  0
  2 89  1  0  0  0
  3  4  1  0  0  0
  3 90  1  0  0  0
  3 91  1  0  0  0
  4  5  1  0  0  0
  4 92  1  0  0  0
  4 93  1  0  0  0
  5  6  1  0  0  0
  5 26  1  0  0  0
  5 94  1  0  0  0
  6 25  1  0  0  0
  6 95  1  0  0  0
  6 96  1  0  0  0
  7  8  2  0  0  0
  7 26  1  0  0  0
  7 29  1  0  0  0
  8  9  1  0  0  0
  8 22  1  0  0  0
  9 10  1  0  0  0
  9 27  2  0  0  0
 10 11  2  0  0  0
 10 15  1  0  0  0
 11 12  1  0  0  0
 11 97  1  0  0  0
 12 13  2  0  0  0
 12 98  1  0  0  0
 13 14  1  0  0  0
 13 31  1  0  0  0
 14 15  2  0  0  0
 14 99  1  0  0  0
 15100  1  0  0  0
 16 17  2  0  0  0
 16 21  1  0  0  0
 16 31  1  0  0  0
 17 18  1  0  0  0
 17101  1  0  0  0
 18 19  2  0  0  0
 18102  1  0  0  0
 19 20  1  0  0  0
 19 24  1  0  0  0
 20 21  2  0  0  0
 20103  1  0  0  0
 21 23  1  0  0  0
 22 28  1  0  0  0
 22 32  2  0  0  0
 26 27  1  0  0  0
 28104  1  0  0  0
 28105  1  0  0  0
 29106  1  0  0  0
 29107  1  0  0  0
 33 34  1  0  0  0
 33 66  1  0  0  0
 33 70  2  0  0  0
 34 36  1  0  0  0
 34 59  1  0  0  0
 34108  1  0  0  0
 35 44  2  0  0  0
 35 45  1  0  0  0
 35 68  1  0  0  0
 36 56  1  0  0  0
 36109  1  0  0  0
 37 39  1  0  0  0
 37 47  1  0  0  0
 37 66  1  0  0  0
 37110  1  0  0  0
 38 43  2  0  0  0
 38 46  1  0  0  0
 38 47  1  0  0  0
 39 64  1  0  0  0
 39 67  2  0  0  0
 40 52  1  0  0  0
 40 53  2  0  0  0
 40 58  1  0  0  0
 41111  1  0  0  0
 41112  1  0  0  0
 41113  1  0  0  0
 41 48  1  0  0  0
 42 43  1  0  0  0
 42 66  1  0  0  0
 42114  1  0  0  0
 42115  1  0  0  0
 43 44  1  0  0  0
 44116  1  0  0  0
 45 46  2  0  0  0
 45117  1  0  0  0
 46118  1  0  0  0
 47119  1  0  0  0
 47120  1  0  0  0
 48 56  1  0  0  0
 48 65  1  0  0  0
 48121  1  0  0  0
 49 50  1  0  0  0
 49 53  1  0  0  0
 49 64  1  0  0  0
 49122  1  0  0  0
 50 51  1  0  0  0
 50123  1  0  0  0
 50124  1  0  0  0
 51 52  1  0  0  0
 51125  1  0  0  0
 51126  1  0  0  0
 52127  1  0  0  0
 52128  1  0  0  0
 53 54  1  0  0  0
 54 55  2  0  0  0
 54129  1  0  0  0
 55 57  1  0  0  0
 55130  1  0  0  0
 56 69  2  0  0  0
 57 58  2  0  0  0
 57131  1  0  0  0
 58132  1  0  0  0
 59 60  1  0  0  0
 59 61  1  0  0  0
 59 62  1  0  0  0
 60133  1  0  0  0
 60134  1  0  0  0
 60135  1  0  0  0
 61136  1  0  0  0
 61137  1  0  0  0
 61138  1  0  0  0
 62139  1  0  0  0
 62140  1  0  0  0
 62141  1  0  0  0
 63 65  1  0  0  0
 63142  1  0  0  0
 63143  1  0  0  0
 63144  1  0  0  0
 64145  1  0  0  0
 65146  1  0  0  0
 68 82  1  0  0  0
 71 72  1  0  0  0
 71 74  2  0  0  0
 71147  1  0  0  0
 72 73  2  0  0  0
 72 79  1  0  0  0
 73 80  1  0  0  0
 73 87  1  0  0  0
 74 83  1  0  0  0
 74 87  1  0  0  0
 75 77  1  0  0  0
 75 80  1  0  0  0
 75 85  2  0  0  0
 76 81  1  0  0  0
 76 82  1  0  0  0
 76 86  2  0  0  0
 77148  1  0  0  0
 77149  1  0  0  0
 77150  1  0  0  0
 78 84  1  0  0  0
 78151  1  0  0  0
 78152  1  0  0  0
 78153  1  0  0  0
 79 84  1  0  0  0
 79154  1  0  0  0
 79155  1  0  0  0
 80156  1  0  0  0
 80157  1  0  0  0
 81 83  1  0  0  0
 81158  1  0  0  0
 81159  1  0  0  0
 82160  1  0  0  0
 82161  1  0  0  0
 83162  1  0  0  0
M  ISO  4   1 100  68 101  82 101  84 100
M  END
> <chiral flag>
0

> <version>
0

> <s_m_source_file>
/data/baiqing/PycharmProjects/Reinvent-master-3.2/result/LINK_invent/BTK/process_docking_weight1_custom_product_contain_oxygen_bond_distance_aromatic_linkinvent_7_9_3/rearranged_h_0172.sdf

> <i_m_source_file_index>
34

> <r_mmod_Potential_Energy-OPLS-2005>
81.8776016235352

> <r_mmod_Stretch_Energy-OPLS-2005>
44.9361457824707

> <r_mmod_Bend_Energy-OPLS-2005>
124.225723266602

> <r_mmod_Torsional_Energy-OPLS-2005>
266.934722900391

> <r_mmod_Improper_Torsional_Energy-OPLS-2005>
9.32376194000244

> <r_mmod_Van_der_Waal_Energy-OPLS-2005>
130.765319824219

> <r_mmod_Electrostatic_Energy-OPLS-2005>
-266.307006835938

> <r_mmod_Solvation_Energy-OPLS-2005>
-246.349502563477

> <b_mmod_Minimization_Converged-OPLS-2005>
0

> <r_mmod_RMS_Derivative-OPLS-2005>
3.59237265586853

$$$$
34
                    3D
 Structure written by MMmdl.
163172  0  0  1  0            999 V2000
  -30.6729  -14.5192   20.5631 C   0  0  0  0  0  0
  -30.4283  -12.3370   19.4220 C   0  0  0  0  0  0
  -29.4944  -12.5094   18.2055 C   0  0  0  0  0  0
  -28.0152  -12.3665   18.6182 C   0  0  0  0  0  0
  -27.6574  -13.2097   19.8720 C   0  0  2  0  0  0
  -28.7019  -13.0036   20.9921 C   0  0  0  0  0  0
  -25.2565  -13.8164   20.5695 C   0  0  0  0  0  0
  -24.1827  -13.0431   20.9191 C   0  0  0  0  0  0
  -24.6391  -11.6902   20.8744 C   0  0  0  0  0  0
  -23.9063  -10.4284   21.0408 C   0  0  0  0  0  0
  -24.3620   -9.4203   21.9187 C   0  0  0  0  0  0
  -23.6295   -8.2241   22.0760 C   0  0  0  0  0  0
  -22.4276   -8.0278   21.3549 C   0  0  0  0  0  0
  -21.9906   -9.0245   20.4649 C   0  0  0  0  0  0
  -22.7233  -10.2125   20.3059 C   0  0  0  0  0  0
  -21.6851   -6.0740   22.5281 C   0  0  0  0  0  0
  -21.4011   -6.5643   23.8213 C   0  0  0  0  0  0
  -21.3662   -5.6798   24.9173 C   0  0  0  0  0  0
  -21.6044   -4.3060   24.7227 C   0  0  0  0  0  0
  -21.8818   -3.8153   23.4346 C   0  0  0  0  0  0
  -21.9190   -4.6970   22.3402 C   0  0  0  0  0  0
  -22.7846  -13.5222   21.1847 C   0  0  0  0  0  0
  -22.1656   -4.2158   21.0981 F   0  0  0  0  0  0
  -21.5632   -3.4545   25.7738 F   0  0  0  0  0  0
  -30.0253  -13.3272   20.4341 N   0  0  0  0  0  0
  -26.3001  -12.9340   20.3361 N   0  0  0  0  0  0
  -25.9317  -11.6500   20.5771 N   0  0  0  0  0  0
  -22.0488  -12.8217   22.0410 N   0  0  0  0  0  0
  -25.4262  -15.1887   20.4113 N   0  0  0  0  0  0
  -31.8129  -14.7074   20.1298 O   0  0  0  0  0  0
  -21.6640   -6.8878   21.4240 O   0  0  0  0  0  0
  -22.3522  -14.5524   20.6692 O   0  0  0  0  0  0
  -24.6192  -31.8647   23.2079 C   0  0  0  0  0  0
  -25.9066  -32.4802   23.8381 C   0  0  1  0  0  0
  -27.2314  -27.3927   20.0902 C   0  0  0  0  0  0
  -25.5907  -33.8602   24.2312 N   0  0  0  0  0  0
  -23.4083  -30.4904   21.5489 C   0  0  2  0  0  0
  -24.8524  -28.9526   20.1117 C   0  0  0  0  0  0
  -22.7432  -29.4653   22.4967 C   0  0  0  0  0  0
  -18.0277  -28.1379   22.8496 C   0  0  0  0  0  0
  -24.1483  -36.7308   23.2639 C   0  0  0  0  0  0
  -25.9429  -30.8167   21.3674 C   0  0  0  0  0  0
  -26.0171  -29.4495   20.7102 C   0  0  0  0  0  0
  -27.2063  -28.6768   20.6965 C   0  0  0  0  0  0
  -26.0387  -26.9203   19.4914 C   0  0  0  0  0  0
  -24.8601  -27.6891   19.5000 C   0  0  0  0  0  0
  -23.6177  -29.8252   20.1627 C   0  0  0  0  0  0
  -25.4106  -36.3103   24.0338 C   0  0  1  0  0  0
  -20.5871  -28.3672   23.1305 C   0  0  2  0  0  0
  -20.6766  -26.9403   22.5419 C   0  0  0  0  0  0
  -19.5743  -26.6385   21.5216 C   0  0  0  0  0  0
  -18.1920  -26.7926   22.1626 C   0  0  0  0  0  0
  -19.1527  -28.8842   23.2898 C   0  0  0  0  0  0
  -18.9454  -30.1444   23.8914 C   0  0  0  0  0  0
  -17.6455  -30.6585   24.0566 C   0  0  0  0  0  0
  -25.9040  -34.9469   23.5127 C   0  0  0  0  0  0
  -16.5348  -29.9088   23.6323 C   0  0  0  0  0  0
  -16.7266  -28.6502   23.0352 C   0  0  0  0  0  0
  -26.4479  -31.6589   25.0721 C   0  0  0  0  0  0
  -25.3740  -31.3695   26.1461 C   0  0  0  0  0  0
  -27.0310  -30.3025   24.6121 C   0  0  0  0  0  0
  -27.6047  -32.4311   25.7493 C   0  0  0  0  0  0
  -27.5583  -37.1812   24.8467 C   0  0  0  0  0  0
  -21.4154  -29.3040   22.3707 N   0  0  0  0  0  0
  -26.4294  -37.3793   23.9410 N   0  0  0  0  0  0
  -24.6756  -31.0722   22.0993 N   0  0  0  0  0  0
  -23.4187  -28.8187   23.3017 O   0  0  0  0  0  0
  -28.3867  -26.6202   20.1341 O   0  0  0  0  0  0
  -26.5607  -34.8926   22.4692 O   0  0  0  0  0  0
  -23.5377  -32.1415   23.7455 O   0  0  0  0  0  0
  -28.8548  -17.6412   19.3627 C   0  0  0  0  0  0
  -28.2190  -19.9362   18.8947 C   0  0  0  0  0  0
  -29.5885  -19.4433   20.8728 C   0  0  0  0  0  0
  -29.5635  -18.0423   20.5154 C   0  0  0  0  0  0
  -28.9396  -20.4131   20.0185 C   0  0  0  0  0  0
  -28.1778  -18.5740   18.5695 C   0  0  0  0  0  0
  -28.4076  -25.3581   19.5552 C   0  0  0  0  0  0
  -28.7322  -24.2094   20.2072 C   0  0  0  0  0  0
  -28.7247  -22.9149   19.4932 C   0  0  0  0  0  0
  -30.5710  -20.6262   24.1461 C   0  0  0  0  0  0
  -30.2640  -21.2775   22.8022 C   0  0  0  0  0  0
  -29.9975  -19.3434   23.5480 C   0  0  0  0  0  0
  -30.3577  -19.8794   22.1417 C   0  0  0  0  0  0
  -30.3228  -16.9394   21.3015 C   0  0  0  0  0  0
  -28.9681  -21.8392   20.2916 N   0  0  0  0  0  0
  -29.9303  -15.5296   21.0670 N   0  0  0  0  0  0
  -28.5411  -22.8182   18.2776 O   0  0  0  0  0  0
  -29.0527  -24.2527   21.5097 O   0  0  0  0  0  0
  -27.4916  -18.1577   17.4787 F   0  0  0  0  0  0
  -31.4699  -12.4537   19.1174 H   0  0  0  0  0  0
  -30.3476  -11.3282   19.8296 H   0  0  0  0  0  0
  -29.7406  -11.7759   17.4363 H   0  0  0  0  0  0
  -29.6541  -13.4898   17.7543 H   0  0  0  0  0  0
  -27.8254  -11.3108   18.8145 H   0  0  0  0  0  0
  -27.3645  -12.6398   17.7865 H   0  0  0  0  0  0
  -27.6944  -14.2560   19.5686 H   0  0  0  0  0  0
  -28.6916  -11.9682   21.3355 H   0  0  0  0  0  0
  -28.4602  -13.6037   21.8705 H   0  0  0  0  0  0
  -25.2769   -9.5687   22.4754 H   0  0  0  0  0  0
  -24.0015   -7.4633   22.7475 H   0  0  0  0  0  0
  -21.0844   -8.8750   19.8950 H   0  0  0  0  0  0
  -22.3689  -10.9662   19.6169 H   0  0  0  0  0  0
  -21.2000   -7.6147   23.9723 H   0  0  0  0  0  0
  -21.1490   -6.0524   25.9078 H   0  0  0  0  0  0
  -22.0599   -2.7620   23.2840 H   0  0  0  0  0  0
  -22.4104  -11.9883   22.4808 H   0  0  0  0  0  0
  -21.1102  -13.1235   22.2607 H   0  0  0  0  0  0
  -24.6550  -15.8381   20.5226 H   0  0  0  0  0  0
  -26.2724  -15.6345   20.0805 H   0  0  0  0  0  0
  -26.7138  -32.5494   23.1137 H   0  0  0  0  0  0
  -25.0044  -33.9750   25.0451 H   0  0  0  0  0  0
  -22.6996  -31.3093   21.4099 H   0  0  0  0  0  0
  -23.3747  -35.9640   23.3307 H   0  0  0  0  0  0
  -24.3577  -36.8917   22.2053 H   0  0  0  0  0  0
  -23.7231  -37.6513   23.6648 H   0  0  0  0  0  0
  -26.0639  -31.5823   20.5995 H   0  0  0  0  0  0
  -26.8281  -30.8656   21.9900 H   0  0  0  0  0  0
  -28.1035  -29.0542   21.1668 H   0  0  0  0  0  0
  -25.9903  -25.9475   19.0255 H   0  0  0  0  0  0
  -23.9631  -27.2978   19.0399 H   0  0  0  0  0  0
  -23.7310  -30.6017   19.4054 H   0  0  0  0  0  0
  -22.7390  -29.2502   19.8639 H   0  0  0  0  0  0
  -25.1287  -36.1971   25.0833 H   0  0  0  0  0  0
  -20.9969  -28.3243   24.1422 H   0  0  0  0  0  0
  -20.5664  -26.2284   23.3614 H   0  0  0  0  0  0
  -21.6633  -26.7439   22.1210 H   0  0  0  0  0  0
  -19.6900  -25.6298   21.1233 H   0  0  0  0  0  0
  -19.6679  -27.3205   20.6756 H   0  0  0  0  0  0
  -17.4194  -26.6687   21.4021 H   0  0  0  0  0  0
  -18.0314  -26.0060   22.9014 H   0  0  0  0  0  0
  -19.7931  -30.7257   24.2292 H   0  0  0  0  0  0
  -17.5011  -31.6267   24.5159 H   0  0  0  0  0  0
  -15.5347  -30.2999   23.7631 H   0  0  0  0  0  0
  -15.8666  -28.0823   22.7065 H   0  0  0  0  0  0
  -24.5925  -30.7025   25.7801 H   0  0  0  0  0  0
  -24.8916  -32.2846   26.4907 H   0  0  0  0  0  0
  -25.8092  -30.8872   27.0222 H   0  0  0  0  0  0
  -26.2862  -29.6789   24.1159 H   0  0  0  0  0  0
  -27.4049  -29.7256   25.4592 H   0  0  0  0  0  0
  -27.8714  -30.4332   23.9297 H   0  0  0  0  0  0
  -27.2656  -33.3600   26.2090 H   0  0  0  0  0  0
  -28.3848  -32.6886   25.0317 H   0  0  0  0  0  0
  -28.0719  -31.8421   26.5394 H   0  0  0  0  0  0
  -28.2604  -38.0106   24.7513 H   0  0  0  0  0  0
  -28.1072  -36.2639   24.6291 H   0  0  0  0  0  0
  -27.2299  -37.1463   25.8869 H   0  0  0  0  0  0
  -20.9315  -29.8779   21.6943 H   0  0  0  0  0  0
  -26.0182  -38.2871   24.1410 H   0  0  0  0  0  0
  -28.8245  -16.6060   19.0582 H   0  0  0  0  0  0
  -27.6703  -20.6013   18.2473 H   0  0  0  0  0  0
  -28.1422  -25.3896   18.5059 H   0  0  0  0  0  0
  -30.0137  -21.0273   24.9944 H   0  0  0  0  0  0
  -31.6401  -20.5577   24.3558 H   0  0  0  0  0  0
  -30.9974  -22.0082   22.4584 H   0  0  0  0  0  0
  -29.2565  -21.6963   22.8291 H   0  0  0  0  0  0
  -28.9207  -19.2552   23.7075 H   0  0  0  0  0  0
  -30.5279  -18.4556   23.8884 H   0  0  0  0  0  0
  -31.4115  -19.6689   21.9428 H   0  0  0  0  0  0
  -30.1465  -17.0698   22.3613 H   0  0  0  0  0  0
  -31.3945  -17.0733   21.1454 H   0  0  0  0  0  0
  -29.2145  -22.1075   21.2352 H   0  0  0  0  0  0
  -29.0025  -15.2759   21.3699 H   0  0  0  0  0  0
  -28.9935  -25.1623   21.7725 H   0  0  0  0  0  0
  1 25  1  0  0  0
  1 30  2  0  0  0
  1 86  1  0  0  0
  2  3  1  0  0  0
  2 25  1  0  0  0
  2 90  1  0  0  0
  2 91  1  0  0  0
  3  4  1  0  0  0
  3 92  1  0  0  0
  3 93  1  0  0  0
  4  5  1  0  0  0
  4 94  1  0  0  0
  4 95  1  0  0  0
  5  6  1  0  0  0
  5 26  1  0  0  0
  5 96  1  0  0  0
  6 25  1  0  0  0
  6 97  1  0  0  0
  6 98  1  0  0  0
  7  8  2  0  0  0
  7 26  1  0  0  0
  7 29  1  0  0  0
  8  9  1  0  0  0
  8 22  1  0  0  0
  9 10  1  0  0  0
  9 27  2  0  0  0
 10 11  2  0  0  0
 10 15  1  0  0  0
 11 12  1  0  0  0
 11 99  1  0  0  0
 12 13  2  0  0  0
 12100  1  0  0  0
 13 14  1  0  0  0
 13 31  1  0  0  0
 14 15  2  0  0  0
 14101  1  0  0  0
 15102  1  0  0  0
 16 17  2  0  0  0
 16 21  1  0  0  0
 16 31  1  0  0  0
 17 18  1  0  0  0
 17103  1  0  0  0
 18 19  2  0  0  0
 18104  1  0  0  0
 19 20  1  0  0  0
 19 24  1  0  0  0
 20 21  2  0  0  0
 20105  1  0  0  0
 21 23  1  0  0  0
 22 28  1  0  0  0
 22 32  2  0  0  0
 26 27  1  0  0  0
 28106  1  0  0  0
 28107  1  0  0  0
 29108  1  0  0  0
 29109  1  0  0  0
 33 34  1  0  0  0
 33 66  1  0  0  0
 33 70  2  0  0  0
 34 36  1  0  0  0
 34 59  1  0  0  0
 34110  1  0  0  0
 35 44  2  0  0  0
 35 45  1  0  0  0
 35 68  1  0  0  0
 36 56  1  0  0  0
 36111  1  0  0  0
 37 39  1  0  0  0
 37 47  1  0  0  0
 37 66  1  0  0  0
 37112  1  0  0  0
 38 43  2  0  0  0
 38 46  1  0  0  0
 38 47  1  0  0  0
 39 64  1  0  0  0
 39 67  2  0  0  0
 40 52  1  0  0  0
 40 53  2  0  0  0
 40 58  1  0  0  0
 41113  1  0  0  0
 41114  1  0  0  0
 41115  1  0  0  0
 41 48  1  0  0  0
 42 43  1  0  0  0
 42 66  1  0  0  0
 42116  1  0  0  0
 42117  1  0  0  0
 43 44  1  0  0  0
 44118  1  0  0  0
 45 46  2  0  0  0
 45119  1  0  0  0
 46120  1  0  0  0
 47121  1  0  0  0
 47122  1  0  0  0
 48 56  1  0  0  0
 48 65  1  0  0  0
 48123  1  0  0  0
 49 50  1  0  0  0
 49 53  1  0  0  0
 49 64  1  0  0  0
 49124  1  0  0  0
 50 51  1  0  0  0
 50125  1  0  0  0
 50126  1  0  0  0
 51 52  1  0  0  0
 51127  1  0  0  0
 51128  1  0  0  0
 52129  1  0  0  0
 52130  1  0  0  0
 53 54  1  0  0  0
 54 55  2  0  0  0
 54131  1  0  0  0
 55 57  1  0  0  0
 55132  1  0  0  0
 56 69  2  0  0  0
 57 58  2  0  0  0
 57133  1  0  0  0
 58134  1  0  0  0
 59 60  1  0  0  0
 59 61  1  0  0  0
 59 62  1  0  0  0
 60135  1  0  0  0
 60136  1  0  0  0
 60137  1  0  0  0
 61138  1  0  0  0
 61139  1  0  0  0
 61140  1  0  0  0
 62141  1  0  0  0
 62142  1  0  0  0
 62143  1  0  0  0
 63 65  1  0  0  0
 63144  1  0  0  0
 63145  1  0  0  0
 63146  1  0  0  0
 64147  1  0  0  0
 65148  1  0  0  0
 68 77  1  0  0  0
 71 74  2  0  0  0
 71 76  1  0  0  0
 71149  1  0  0  0
 72 75  1  0  0  0
 72 76  2  0  0  0
 72150  1  0  0  0
 73 74  1  0  0  0
 73 75  2  0  0  0
 73 83  1  0  0  0
 74 84  1  0  0  0
 75 85  1  0  0  0
 76 89  1  0  0  0
 77 78  2  0  0  0
 77151  1  0  0  0
 78 79  1  0  0  0
 78 88  1  0  0  0
 79 85  1  0  0  0
 79 87  2  0  0  0
 80 81  1  0  0  0
 80 82  1  0  0  0
 80152  1  0  0  0
 80153  1  0  0  0
 81 83  1  0  0  0
 81154  1  0  0  0
 81155  1  0  0  0
 82 83  1  0  0  0
 82156  1  0  0  0
 82157  1  0  0  0
 83158  1  0  0  0
 84 86  1  0  0  0
 84159  1  0  0  0
 84160  1  0  0  0
 85161  1  0  0  0
 86162  1  0  0  0
 88163  1  0  0  0
M  ISO  4   1 100  68 101  77 101  86 100
M  END
> <chiral flag>
0

> <version>
0

> <s_m_source_file>
/data/baiqing/PycharmProjects/Reinvent-master-3.2/result/LINK_invent/BTK/process_docking_weight1_custom_product_contain_oxygen_bond_distance_aromatic_linkinvent_7_9_3/rearranged_h_0172.sdf

> <i_m_source_file_index>
35

> <r_mmod_Potential_Energy-OPLS-2005>
-84.3931503295898

> <r_mmod_Stretch_Energy-OPLS-2005>
57.9884872436523

> <r_mmod_Bend_Energy-OPLS-2005>
132.668029785156

> <r_mmod_Torsional_Energy-OPLS-2005>
216.399444580078

> <r_mmod_Improper_Torsional_Energy-OPLS-2005>
3.450355052948

> <r_mmod_Van_der_Waal_Energy-OPLS-2005>
170.997543334961

> <r_mmod_Electrostatic_Energy-OPLS-2005>
-469.813598632812

> <r_mmod_Solvation_Energy-OPLS-2005>
-216.37532043457

> <b_mmod_Minimization_Converged-OPLS-2005>
0

> <r_mmod_RMS_Derivative-OPLS-2005>
0.943826377391815

$$$$
35
                    3D
 Structure written by MMmdl.
152160  0  0  1  0            999 V2000
  -30.6211  -14.6308   20.5134 C   0  0  0  0  0  0
  -30.4415  -12.3887   19.4533 C   0  0  0  0  0  0
  -29.5110  -12.5111   18.2252 C   0  0  0  0  0  0
  -28.0330  -12.3484   18.6340 C   0  0  0  0  0  0
  -27.6566  -13.2136   19.8657 C   0  0  2  0  0  0
  -28.6992  -13.0544   20.9959 C   0  0  0  0  0  0
  -25.2581  -13.8165   20.5666 C   0  0  0  0  0  0
  -24.1850  -13.0449   20.9228 C   0  0  0  0  0  0
  -24.6401  -11.6913   20.8758 C   0  0  0  0  0  0
  -23.9064  -10.4296   21.0414 C   0  0  0  0  0  0
  -24.3616   -9.4205   21.9187 C   0  0  0  0  0  0
  -23.6288   -8.2242   22.0755 C   0  0  0  0  0  0
  -22.4268   -8.0285   21.3549 C   0  0  0  0  0  0
  -21.9907   -9.0262   20.4653 C   0  0  0  0  0  0
  -22.7238  -10.2140   20.3062 C   0  0  0  0  0  0
  -21.6854   -6.0732   22.5276 C   0  0  0  0  0  0
  -21.4015   -6.5634   23.8211 C   0  0  0  0  0  0
  -21.3661   -5.6788   24.9173 C   0  0  0  0  0  0
  -21.6045   -4.3051   24.7225 C   0  0  0  0  0  0
  -21.8819   -3.8143   23.4346 C   0  0  0  0  0  0
  -21.9193   -4.6960   22.3402 C   0  0  0  0  0  0
  -22.7869  -13.5250   21.1872 C   0  0  0  0  0  0
  -22.1663   -4.2145   21.0980 F   0  0  0  0  0  0
  -21.5630   -3.4536   25.7739 F   0  0  0  0  0  0
  -30.0181  -13.4017   20.4407 N   0  0  0  0  0  0
  -26.2998  -12.9335   20.3293 N   0  0  0  0  0  0
  -25.9321  -11.6498   20.5742 N   0  0  0  0  0  0
  -22.0494  -12.8246   22.0417 N   0  0  0  0  0  0
  -25.4294  -15.1873   20.3952 N   0  0  0  0  0  0
  -31.7698  -14.8077   20.0960 O   0  0  0  0  0  0
  -21.6641   -6.8876   21.4238 O   0  0  0  0  0  0
  -22.3564  -14.5550   20.6700 O   0  0  0  0  0  0
  -24.6261  -31.8610   23.2046 C   0  0  0  0  0  0
  -25.9109  -32.4784   23.8374 C   0  0  1  0  0  0
  -27.2222  -27.3239   20.1097 C   0  0  0  0  0  0
  -25.5928  -33.8587   24.2297 N   0  0  0  0  0  0
  -23.4198  -30.4872   21.5469 C   0  0  2  0  0  0
  -24.8659  -28.9486   20.1095 C   0  0  0  0  0  0
  -22.7480  -29.4634   22.4932 C   0  0  0  0  0  0
  -18.0291  -28.1385   22.8483 C   0  0  0  0  0  0
  -24.1489  -36.7295   23.2639 C   0  0  0  0  0  0
  -25.9623  -30.7932   21.3771 C   0  0  0  0  0  0
  -26.0359  -29.4228   20.7159 C   0  0  0  0  0  0
  -27.2175  -28.6219   20.7081 C   0  0  0  0  0  0
  -26.0264  -26.9093   19.4735 C   0  0  0  0  0  0
  -24.8634  -27.6971   19.4797 C   0  0  0  0  0  0
  -23.6343  -29.8278   20.1604 C   0  0  0  0  0  0
  -25.4111  -36.3087   24.0333 C   0  0  1  0  0  0
  -20.5891  -28.3691   23.1278 C   0  0  2  0  0  0
  -20.6776  -26.9412   22.5408 C   0  0  0  0  0  0
  -19.5751  -26.6384   21.5208 C   0  0  0  0  0  0
  -18.1933  -26.7928   22.1623 C   0  0  0  0  0  0
  -19.1543  -28.8854   23.2878 C   0  0  0  0  0  0
  -18.9464  -30.1454   23.8896 C   0  0  0  0  0  0
  -17.6463  -30.6584   24.0564 C   0  0  0  0  0  0
  -25.9048  -34.9455   23.5113 C   0  0  0  0  0  0
  -16.5354  -29.9081   23.6330 C   0  0  0  0  0  0
  -16.7278  -28.6502   23.0347 C   0  0  0  0  0  0
  -26.4491  -31.6591   25.0742 C   0  0  0  0  0  0
  -25.3727  -31.3730   26.1472 C   0  0  0  0  0  0
  -27.0337  -30.3017   24.6195 C   0  0  0  0  0  0
  -27.6058  -32.4322   25.7504 C   0  0  0  0  0  0
  -27.5581  -37.1802   24.8465 C   0  0  0  0  0  0
  -21.4192  -29.3047   22.3674 N   0  0  0  0  0  0
  -26.4289  -37.3782   23.9412 N   0  0  0  0  0  0
  -24.6880  -31.0629   22.0996 N   0  0  0  0  0  0
  -23.4205  -28.8164   23.3003 O   0  0  0  0  0  0
  -28.3292  -26.4596   20.1663 O   0  0  0  0  0  0
  -26.5610  -34.8917   22.4676 O   0  0  0  0  0  0
  -23.5423  -32.1410   23.7373 O   0  0  0  0  0  0
  -30.8959  -17.8611   20.1740 C   0  0  0  0  0  0
  -30.8284  -19.2853   20.0794 C   0  0  0  0  0  0
  -29.8606  -17.1071   20.7885 C   0  0  0  0  0  0
  -29.7270  -20.0379   20.5761 C   0  0  0  0  0  0
  -28.7635  -17.8550   21.2999 C   0  0  0  0  0  0
  -28.6983  -19.2814   21.2057 C   0  0  0  0  0  0
  -29.1326  -23.9606   20.3675 C   0  0  0  0  0  0
  -28.7378  -22.4009   20.2832 C   0  0  0  0  0  0
  -28.0391  -25.0184   19.9598 C   0  0  0  0  0  0
  -27.7155  -17.1818   21.9386 N   0  0  0  0  0  0
  -29.7472  -21.5039   20.5099 N   0  0  0  0  0  0
  -29.8260  -15.6540   20.9487 N   0  0  0  0  0  0
  -30.2593  -24.3214   20.7332 O   0  0  0  0  0  0
  -27.5897  -22.0555   19.9861 O   0  0  0  0  0  0
  -27.6398  -19.9125   21.7726 F   0  0  0  0  0  0
  -31.4831  -12.5158   19.1526 H   0  0  0  0  0  0
  -30.3778  -11.3895   19.8867 H   0  0  0  0  0  0
  -29.7761  -11.7642   17.4758 H   0  0  0  0  0  0
  -29.6545  -13.4829   17.7498 H   0  0  0  0  0  0
  -27.8673  -11.2943   18.8598 H   0  0  0  0  0  0
  -27.3806  -12.5844   17.7924 H   0  0  0  0  0  0
  -27.6813  -14.2516   19.5337 H   0  0  0  0  0  0
  -28.7084  -12.0278   21.3647 H   0  0  0  0  0  0
  -28.4408  -13.6723   21.8571 H   0  0  0  0  0  0
  -25.2763   -9.5676   22.4762 H   0  0  0  0  0  0
  -24.0000   -7.4629   22.7467 H   0  0  0  0  0  0
  -21.0842   -8.8778   19.8958 H   0  0  0  0  0  0
  -22.3697  -10.9679   19.6171 H   0  0  0  0  0  0
  -21.2009   -7.6143   23.9713 H   0  0  0  0  0  0
  -21.1484   -6.0519   25.9076 H   0  0  0  0  0  0
  -22.0597   -2.7606   23.2847 H   0  0  0  0  0  0
  -22.4109  -11.9916   22.4825 H   0  0  0  0  0  0
  -21.1111  -13.1275   22.2609 H   0  0  0  0  0  0
  -24.6246  -15.8026   20.4427 H   0  0  0  0  0  0
  -26.1714  -15.5629   19.8195 H   0  0  0  0  0  0
  -26.7183  -32.5459   23.1129 H   0  0  0  0  0  0
  -25.0083  -33.9736   25.0446 H   0  0  0  0  0  0
  -22.7130  -31.3076   21.4067 H   0  0  0  0  0  0
  -23.3750  -35.9629   23.3301 H   0  0  0  0  0  0
  -24.3588  -36.8914   22.2055 H   0  0  0  0  0  0
  -23.7239  -37.6497   23.6657 H   0  0  0  0  0  0
  -26.0967  -31.5590   20.6119 H   0  0  0  0  0  0
  -26.8412  -30.8383   22.0084 H   0  0  0  0  0  0
  -28.1131  -28.9802   21.1961 H   0  0  0  0  0  0
  -25.9512  -25.9586   18.9678 H   0  0  0  0  0  0
  -23.9680  -27.3306   18.9963 H   0  0  0  0  0  0
  -23.7547  -30.6070   19.4068 H   0  0  0  0  0  0
  -22.7543  -29.2585   19.8556 H   0  0  0  0  0  0
  -25.1288  -36.1945   25.0825 H   0  0  0  0  0  0
  -20.9989  -28.3263   24.1395 H   0  0  0  0  0  0
  -20.5671  -26.2298   23.3608 H   0  0  0  0  0  0
  -21.6645  -26.7435   22.1204 H   0  0  0  0  0  0
  -19.6908  -25.6293   21.1238 H   0  0  0  0  0  0
  -19.6685  -27.3192   20.6734 H   0  0  0  0  0  0
  -17.4200  -26.6673   21.4029 H   0  0  0  0  0  0
  -18.0337  -26.0070   22.9021 H   0  0  0  0  0  0
  -19.7938  -30.7272   24.2265 H   0  0  0  0  0  0
  -17.5016  -31.6264   24.5166 H   0  0  0  0  0  0
  -15.5355  -30.2982   23.7653 H   0  0  0  0  0  0
  -15.8680  -28.0822   22.7056 H   0  0  0  0  0  0
  -24.5901  -30.7076   25.7808 H   0  0  0  0  0  0
  -24.8915  -32.2894   26.4899 H   0  0  0  0  0  0
  -25.8055  -30.8912   27.0249 H   0  0  0  0  0  0
  -26.2916  -29.6767   24.1214 H   0  0  0  0  0  0
  -27.4032  -29.7274   25.4701 H   0  0  0  0  0  0
  -27.8786  -30.4309   23.9428 H   0  0  0  0  0  0
  -27.2678  -33.3623   26.2085 H   0  0  0  0  0  0
  -28.3860  -32.6878   25.0323 H   0  0  0  0  0  0
  -28.0733  -31.8443   26.5414 H   0  0  0  0  0  0
  -28.2596  -38.0101   24.7517 H   0  0  0  0  0  0
  -28.1077  -36.2634   24.6279 H   0  0  0  0  0  0
  -27.2305  -37.1445   25.8869 H   0  0  0  0  0  0
  -20.9363  -29.8789   21.6906 H   0  0  0  0  0  0
  -26.0172  -38.2858   24.1410 H   0  0  0  0  0  0
  -31.7647  -17.3598   19.7730 H   0  0  0  0  0  0
  -31.6519  -19.8057   19.6116 H   0  0  0  0  0  0
  -27.1387  -24.7583   20.5177 H   0  0  0  0  0  0
  -27.8209  -24.8533   18.9045 H   0  0  0  0  0  0
  -27.3099  -16.3985   21.4415 H   0  0  0  0  0  0
  -26.9736  -17.8130   22.2230 H   0  0  0  0  0  0
  -30.6522  -21.9443   20.6118 H   0  0  0  0  0  0
  -28.9696  -15.3399   21.3779 H   0  0  0  0  0  0
  1 25  1  0  0  0
  1 30  2  0  0  0
  1 82  1  0  0  0
  2  3  1  0  0  0
  2 25  1  0  0  0
  2 86  1  0  0  0
  2 87  1  0  0  0
  3  4  1  0  0  0
  3 88  1  0  0  0
  3 89  1  0  0  0
  4  5  1  0  0  0
  4 90  1  0  0  0
  4 91  1  0  0  0
  5  6  1  0  0  0
  5 26  1  0  0  0
  5 92  1  0  0  0
  6 25  1  0  0  0
  6 93  1  0  0  0
  6 94  1  0  0  0
  7  8  2  0  0  0
  7 26  1  0  0  0
  7 29  1  0  0  0
  8  9  1  0  0  0
  8 22  1  0  0  0
  9 10  1  0  0  0
  9 27  2  0  0  0
 10 11  2  0  0  0
 10 15  1  0  0  0
 11 12  1  0  0  0
 11 95  1  0  0  0
 12 13  2  0  0  0
 12 96  1  0  0  0
 13 14  1  0  0  0
 13 31  1  0  0  0
 14 15  2  0  0  0
 14 97  1  0  0  0
 15 98  1  0  0  0
 16 17  2  0  0  0
 16 21  1  0  0  0
 16 31  1  0  0  0
 17 18  1  0  0  0
 17 99  1  0  0  0
 18 19  2  0  0  0
 18100  1  0  0  0
 19 20  1  0  0  0
 19 24  1  0  0  0
 20 21  2  0  0  0
 20101  1  0  0  0
 21 23  1  0  0  0
 22 28  1  0  0  0
 22 32  2  0  0  0
 26 27  1  0  0  0
 28102  1  0  0  0
 28103  1  0  0  0
 29104  1  0  0  0
 29105  1  0  0  0
 33 34  1  0  0  0
 33 66  1  0  0  0
 33 70  2  0  0  0
 34 36  1  0  0  0
 34 59  1  0  0  0
 34106  1  0  0  0
 35 44  2  0  0  0
 35 45  1  0  0  0
 35 68  1  0  0  0
 36 56  1  0  0  0
 36107  1  0  0  0
 37 39  1  0  0  0
 37 47  1  0  0  0
 37 66  1  0  0  0
 37108  1  0  0  0
 38 43  2  0  0  0
 38 46  1  0  0  0
 38 47  1  0  0  0
 39 64  1  0  0  0
 39 67  2  0  0  0
 40 52  1  0  0  0
 40 53  2  0  0  0
 40 58  1  0  0  0
 41109  1  0  0  0
 41110  1  0  0  0
 41111  1  0  0  0
 41 48  1  0  0  0
 42 43  1  0  0  0
 42 66  1  0  0  0
 42112  1  0  0  0
 42113  1  0  0  0
 43 44  1  0  0  0
 44114  1  0  0  0
 45 46  2  0  0  0
 45115  1  0  0  0
 46116  1  0  0  0
 47117  1  0  0  0
 47118  1  0  0  0
 48 56  1  0  0  0
 48 65  1  0  0  0
 48119  1  0  0  0
 49 50  1  0  0  0
 49 53  1  0  0  0
 49 64  1  0  0  0
 49120  1  0  0  0
 50 51  1  0  0  0
 50121  1  0  0  0
 50122  1  0  0  0
 51 52  1  0  0  0
 51123  1  0  0  0
 51124  1  0  0  0
 52125  1  0  0  0
 52126  1  0  0  0
 53 54  1  0  0  0
 54 55  2  0  0  0
 54127  1  0  0  0
 55 57  1  0  0  0
 55128  1  0  0  0
 56 69  2  0  0  0
 57 58  2  0  0  0
 57129  1  0  0  0
 58130  1  0  0  0
 59 60  1  0  0  0
 59 61  1  0  0  0
 59 62  1  0  0  0
 60131  1  0  0  0
 60132  1  0  0  0
 60133  1  0  0  0
 61134  1  0  0  0
 61135  1  0  0  0
 61136  1  0  0  0
 62137  1  0  0  0
 62138  1  0  0  0
 62139  1  0  0  0
 63 65  1  0  0  0
 63140  1  0  0  0
 63141  1  0  0  0
 63142  1  0  0  0
 64143  1  0  0  0
 65144  1  0  0  0
 68 79  1  0  0  0
 71 72  2  0  0  0
 71 73  1  0  0  0
 71145  1  0  0  0
 72 74  1  0  0  0
 72146  1  0  0  0
 73 75  2  0  0  0
 73 82  1  0  0  0
 74 76  2  0  0  0
 74 81  1  0  0  0
 75 76  1  0  0  0
 75 80  1  0  0  0
 76 85  1  0  0  0
 77 78  1  0  0  0
 77 79  1  0  0  0
 77 83  2  0  0  0
 78 81  1  0  0  0
 78 84  2  0  0  0
 79147  1  0  0  0
 79148  1  0  0  0
 80149  1  0  0  0
 80150  1  0  0  0
 81151  1  0  0  0
 82152  1  0  0  0
M  ISO  4   1 100  68 101  79 101  82 100
M  END
> <chiral flag>
0

> <version>
0

> <s_m_source_file>
/data/baiqing/PycharmProjects/Reinvent-master-3.2/result/LINK_invent/BTK/process_docking_weight1_custom_product_contain_oxygen_bond_distance_aromatic_linkinvent_7_9_3/rearranged_h_0172.sdf

> <i_m_source_file_index>
36

> <r_mmod_Potential_Energy-OPLS-2005>
17.7833156585693

> <r_mmod_Stretch_Energy-OPLS-2005>
80.5899276733398

> <r_mmod_Bend_Energy-OPLS-2005>
134.044281005859

> <r_mmod_Torsional_Energy-OPLS-2005>
240.337951660156

> <r_mmod_Improper_Torsional_Energy-OPLS-2005>
11.1753816604614

> <r_mmod_Van_der_Waal_Energy-OPLS-2005>
150.8740234375

> <r_mmod_Electrostatic_Energy-OPLS-2005>
-410.336090087891

> <r_mmod_Solvation_Energy-OPLS-2005>
-236.039581298828

> <b_mmod_Minimization_Converged-OPLS-2005>
0

> <r_mmod_RMS_Derivative-OPLS-2005>
0.629897058010101

$$$$
36
                    3D
 Structure written by MMmdl.
161169  0  0  1  0            999 V2000
  -30.7719  -14.5437   20.5680 C   0  0  0  0  0  0
  -30.4100  -12.3556   19.4704 C   0  0  0  0  0  0
  -29.4956  -12.5071   18.2379 C   0  0  0  0  0  0
  -28.0213  -12.3464   18.6492 C   0  0  0  0  0  0
  -27.6431  -13.2256   19.8719 C   0  0  2  0  0  0
  -28.6947  -13.1192   21.0082 C   0  0  0  0  0  0
  -25.2188  -13.7856   20.5566 C   0  0  0  0  0  0
  -24.1630  -13.0130   20.9246 C   0  0  0  0  0  0
  -24.6358  -11.6701   20.8812 C   0  0  0  0  0  0
  -23.9068  -10.4123   21.0447 C   0  0  0  0  0  0
  -24.3614   -9.4056   21.9223 C   0  0  0  0  0  0
  -23.6258   -8.2127   22.0776 C   0  0  0  0  0  0
  -22.4243   -8.0206   21.3554 C   0  0  0  0  0  0
  -21.9899   -9.0179   20.4650 C   0  0  0  0  0  0
  -22.7252  -10.2030   20.3068 C   0  0  0  0  0  0
  -21.6828   -6.0695   22.5281 C   0  0  0  0  0  0
  -21.3977   -6.5618   23.8201 C   0  0  0  0  0  0
  -21.3647   -5.6790   24.9173 C   0  0  0  0  0  0
  -21.6054   -4.3053   24.7235 C   0  0  0  0  0  0
  -21.8827   -3.8126   23.4360 C   0  0  0  0  0  0
  -21.9175   -4.6930   22.3402 C   0  0  0  0  0  0
  -22.7661  -13.4955   21.1906 C   0  0  0  0  0  0
  -22.1672   -4.2121   21.0983 F   0  0  0  0  0  0
  -21.5625   -3.4534   25.7746 F   0  0  0  0  0  0
  -30.0328  -13.3947   20.4515 N   0  0  0  0  0  0
  -26.2874  -12.9295   20.3387 N   0  0  0  0  0  0
  -25.9323  -11.6420   20.5889 N   0  0  0  0  0  0
  -22.0355  -12.7997   22.0522 N   0  0  0  0  0  0
  -25.3033  -15.1465   20.3656 N   0  0  0  0  0  0
  -31.8907  -14.6385   20.0625 O   0  0  0  0  0  0
  -21.6599   -6.8827   21.4241 O   0  0  0  0  0  0
  -22.3350  -14.5279   20.6755 O   0  0  0  0  0  0
  -24.6144  -31.8689   23.2122 C   0  0  0  0  0  0
  -25.9043  -32.4828   23.8411 C   0  0  1  0  0  0
  -27.2460  -27.4145   20.1133 C   0  0  0  0  0  0
  -25.5923  -33.8631   24.2357 N   0  0  0  0  0  0
  -23.4060  -30.4933   21.5514 C   0  0  2  0  0  0
  -24.8566  -28.9604   20.1178 C   0  0  0  0  0  0
  -22.7409  -29.4673   22.4973 C   0  0  0  0  0  0
  -18.0284  -28.1360   22.8496 C   0  0  0  0  0  0
  -24.1498  -36.7292   23.2635 C   0  0  0  0  0  0
  -25.9377  -30.8263   21.3766 C   0  0  0  0  0  0
  -26.0150  -29.4598   20.7246 C   0  0  0  0  0  0
  -27.2065  -28.6922   20.7252 C   0  0  0  0  0  0
  -26.0709  -26.9593   19.4615 C   0  0  0  0  0  0
  -24.8795  -27.7085   19.4844 C   0  0  0  0  0  0
  -23.6180  -29.8282   20.1653 C   0  0  0  0  0  0
  -25.4121  -36.3101   24.0337 C   0  0  1  0  0  0
  -20.5867  -28.3696   23.1300 C   0  0  2  0  0  0
  -20.6788  -26.9430   22.5423 C   0  0  0  0  0  0
  -19.5778  -26.6355   21.5227 C   0  0  0  0  0  0
  -18.1936  -26.7915   22.1605 C   0  0  0  0  0  0
  -19.1518  -28.8837   23.2897 C   0  0  0  0  0  0
  -18.9446  -30.1455   23.8881 C   0  0  0  0  0  0
  -17.6443  -30.6584   24.0537 C   0  0  0  0  0  0
  -25.9054  -34.9477   23.5137 C   0  0  0  0  0  0
  -16.5344  -29.9061   23.6320 C   0  0  0  0  0  0
  -16.7266  -28.6477   23.0358 C   0  0  0  0  0  0
  -26.4485  -31.6600   25.0734 C   0  0  0  0  0  0
  -25.3754  -31.3685   26.1482 C   0  0  0  0  0  0
  -27.0323  -30.3035   24.6120 C   0  0  0  0  0  0
  -27.6073  -32.4318   25.7481 C   0  0  0  0  0  0
  -27.5592  -37.1798   24.8467 C   0  0  0  0  0  0
  -21.4132  -29.3059   22.3698 N   0  0  0  0  0  0
  -26.4306  -37.3778   23.9407 N   0  0  0  0  0  0
  -24.6697  -31.0772   22.1042 N   0  0  0  0  0  0
  -23.4179  -28.8214   23.3009 O   0  0  0  0  0  0
  -28.4137  -26.6572   20.1559 O   0  0  0  0  0  0
  -26.5591  -34.8919   22.4689 O   0  0  0  0  0  0
  -23.5339  -32.1472   23.7518 O   0  0  0  0  0  0
  -30.2500  -19.6027   21.1728 C   0  0  0  0  0  0
  -28.0207  -20.4327   21.6892 C   0  0  0  0  0  0
  -29.7483  -18.2682   21.0431 C   0  0  0  0  0  0
  -28.3398  -18.1339   20.9790 C   0  0  0  0  0  0
  -29.3622  -20.7101   21.3474 C   0  0  0  0  0  0
  -27.5043  -19.1451   21.5061 C   0  0  0  0  0  0
  -28.3254  -25.2716   20.2241 C   0  0  0  0  0  0
  -29.3248  -24.3991   20.5217 C   0  0  0  0  0  0
  -29.0093  -22.9612   20.4272 C   0  0  0  0  0  0
  -26.8570  -17.4627   19.0170 C   0  0  0  0  0  0
  -27.7095  -16.9948   20.2147 C   0  0  0  0  0  0
  -30.7144  -17.0476   20.9035 C   0  0  0  0  0  0
  -26.1590  -18.9055   21.7912 N   0  0  0  0  0  0
  -29.7424  -22.0915   21.1771 N   0  0  0  0  0  0
  -30.2033  -15.6484   21.1117 N   0  0  0  0  0  0
  -28.1191  -22.5472   19.6744 O   0  0  0  0  0  0
  -30.5577  -24.8204   20.8479 O   0  0  0  0  0  0
  -31.4589  -12.4101   19.1723 H   0  0  0  0  0  0
  -30.2874  -11.3668   19.9144 H   0  0  0  0  0  0
  -29.7510  -11.7624   17.4831 H   0  0  0  0  0  0
  -29.6516  -13.4827   17.7748 H   0  0  0  0  0  0
  -27.8619  -11.2942   18.8911 H   0  0  0  0  0  0
  -27.3651  -12.5665   17.8058 H   0  0  0  0  0  0
  -27.6415  -14.2531   19.5161 H   0  0  0  0  0  0
  -28.6795  -12.1216   21.4495 H   0  0  0  0  0  0
  -28.4484  -13.8061   21.8188 H   0  0  0  0  0  0
  -25.2758   -9.5512   22.4798 H   0  0  0  0  0  0
  -23.9937   -7.4511   22.7496 H   0  0  0  0  0  0
  -21.0825   -8.8708   19.8960 H   0  0  0  0  0  0
  -22.3736  -10.9576   19.6170 H   0  0  0  0  0  0
  -21.1969   -7.6125   23.9689 H   0  0  0  0  0  0
  -21.1474   -6.0525   25.9072 H   0  0  0  0  0  0
  -22.0619   -2.7583   23.2867 H   0  0  0  0  0  0
  -22.4027  -11.9674   22.4895 H   0  0  0  0  0  0
  -21.0980  -13.1003   22.2789 H   0  0  0  0  0  0
  -24.4819  -15.7319   20.4673 H   0  0  0  0  0  0
  -26.0923  -15.6336   19.9644 H   0  0  0  0  0  0
  -26.7112  -32.5531   23.1177 H   0  0  0  0  0  0
  -25.0078  -33.9820   25.0502 H   0  0  0  0  0  0
  -22.6943  -31.3091   21.4126 H   0  0  0  0  0  0
  -23.3764  -35.9621   23.3304 H   0  0  0  0  0  0
  -24.3583  -36.8897   22.2045 H   0  0  0  0  0  0
  -23.7259  -37.6505   23.6642 H   0  0  0  0  0  0
  -26.0696  -31.5980   20.6157 H   0  0  0  0  0  0
  -26.8176  -30.8686   22.0058 H   0  0  0  0  0  0
  -28.0972  -29.0704   21.2073 H   0  0  0  0  0  0
  -26.0544  -26.0265   18.9190 H   0  0  0  0  0  0
  -23.9921  -27.3267   18.9997 H   0  0  0  0  0  0
  -23.7281  -30.6070   19.4071 H   0  0  0  0  0  0
  -22.7416  -29.2472   19.8666 H   0  0  0  0  0  0
  -25.1303  -36.1957   25.0828 H   0  0  0  0  0  0
  -20.9971  -28.3281   24.1417 H   0  0  0  0  0  0
  -20.5728  -26.2308   23.3618 H   0  0  0  0  0  0
  -21.6658  -26.7481   22.1214 H   0  0  0  0  0  0
  -19.6959  -25.6247   21.1295 H   0  0  0  0  0  0
  -19.6738  -27.3146   20.6736 H   0  0  0  0  0  0
  -17.4230  -26.6707   21.3980 H   0  0  0  0  0  0
  -18.0295  -26.0059   22.8986 H   0  0  0  0  0  0
  -19.7925  -30.7280   24.2250 H   0  0  0  0  0  0
  -17.4991  -31.6286   24.5087 H   0  0  0  0  0  0
  -15.5346  -30.2962   23.7624 H   0  0  0  0  0  0
  -15.8673  -28.0773   22.7093 H   0  0  0  0  0  0
  -24.5929  -30.7047   25.7788 H   0  0  0  0  0  0
  -24.8957  -32.2834   26.4958 H   0  0  0  0  0  0
  -25.8115  -30.8811   27.0213 H   0  0  0  0  0  0
  -26.2870  -29.6780   24.1193 H   0  0  0  0  0  0
  -27.4105  -29.7280   25.4579 H   0  0  0  0  0  0
  -27.8703  -30.4333   23.9272 H   0  0  0  0  0  0
  -27.2700  -33.3594   26.2111 H   0  0  0  0  0  0
  -28.3841  -32.6921   25.0281 H   0  0  0  0  0  0
  -28.0793  -31.8414   26.5345 H   0  0  0  0  0  0
  -28.2610  -38.0093   24.7517 H   0  0  0  0  0  0
  -28.1091  -36.2624   24.6297 H   0  0  0  0  0  0
  -27.2299  -37.1457   25.8868 H   0  0  0  0  0  0
  -20.9287  -29.8794   21.6934 H   0  0  0  0  0  0
  -26.0189  -38.2853   24.1414 H   0  0  0  0  0  0
  -31.3107  -19.7785   21.0648 H   0  0  0  0  0  0
  -27.3517  -21.2376   21.9639 H   0  0  0  0  0  0
  -27.3410  -24.8922   19.9986 H   0  0  0  0  0  0
  -27.4490  -18.0999   18.3599 H   0  0  0  0  0  0
  -25.9743  -18.0272   19.3150 H   0  0  0  0  0  0
  -26.5276  -16.6197   18.4096 H   0  0  0  0  0  0
  -27.2043  -16.4054   20.9695 H   0  0  0  0  0  0
  -28.4439  -16.3695   19.7282 H   0  0  0  0  0  0
  -31.5311  -17.1932   21.6142 H   0  0  0  0  0  0
  -31.1609  -17.1195   19.9088 H   0  0  0  0  0  0
  -25.7280  -19.4698   22.5178 H   0  0  0  0  0  0
  -25.8724  -17.9333   21.8476 H   0  0  0  0  0  0
  -30.5396  -22.4320   21.6954 H   0  0  0  0  0  0
  -29.2899  -15.5458   21.5253 H   0  0  0  0  0  0
  -31.1443  -24.0789   20.7678 H   0  0  0  0  0  0
  1 25  1  0  0  0
  1 30  2  0  0  0
  1 85  1  0  0  0
  2  3  1  0  0  0
  2 25  1  0  0  0
  2 88  1  0  0  0
  2 89  1  0  0  0
  3  4  1  0  0  0
  3 90  1  0  0  0
  3 91  1  0  0  0
  4  5  1  0  0  0
  4 92  1  0  0  0
  4 93  1  0  0  0
  5  6  1  0  0  0
  5 26  1  0  0  0
  5 94  1  0  0  0
  6 25  1  0  0  0
  6 95  1  0  0  0
  6 96  1  0  0  0
  7  8  2  0  0  0
  7 26  1  0  0  0
  7 29  1  0  0  0
  8  9  1  0  0  0
  8 22  1  0  0  0
  9 10  1  0  0  0
  9 27  2  0  0  0
 10 11  2  0  0  0
 10 15  1  0  0  0
 11 12  1  0  0  0
 11 97  1  0  0  0
 12 13  2  0  0  0
 12 98  1  0  0  0
 13 14  1  0  0  0
 13 31  1  0  0  0
 14 15  2  0  0  0
 14 99  1  0  0  0
 15100  1  0  0  0
 16 17  2  0  0  0
 16 21  1  0  0  0
 16 31  1  0  0  0
 17 18  1  0  0  0
 17101  1  0  0  0
 18 19  2  0  0  0
 18102  1  0  0  0
 19 20  1  0  0  0
 19 24  1  0  0  0
 20 21  2  0  0  0
 20103  1  0  0  0
 21 23  1  0  0  0
 22 28  1  0  0  0
 22 32  2  0  0  0
 26 27  1  0  0  0
 28104  1  0  0  0
 28105  1  0  0  0
 29106  1  0  0  0
 29107  1  0  0  0
 33 34  1  0  0  0
 33 66  1  0  0  0
 33 70  2  0  0  0
 34 36  1  0  0  0
 34 59  1  0  0  0
 34108  1  0  0  0
 35 44  2  0  0  0
 35 45  1  0  0  0
 35 68  1  0  0  0
 36 56  1  0  0  0
 36109  1  0  0  0
 37 39  1  0  0  0
 37 47  1  0  0  0
 37 66  1  0  0  0
 37110  1  0  0  0
 38 43  2  0  0  0
 38 46  1  0  0  0
 38 47  1  0  0  0
 39 64  1  0  0  0
 39 67  2  0  0  0
 40 52  1  0  0  0
 40 53  2  0  0  0
 40 58  1  0  0  0
 41111  1  0  0  0
 41112  1  0  0  0
 41113  1  0  0  0
 41 48  1  0  0  0
 42 43  1  0  0  0
 42 66  1  0  0  0
 42114  1  0  0  0
 42115  1  0  0  0
 43 44  1  0  0  0
 44116  1  0  0  0
 45 46  2  0  0  0
 45117  1  0  0  0
 46118  1  0  0  0
 47119  1  0  0  0
 47120  1  0  0  0
 48 56  1  0  0  0
 48 65  1  0  0  0
 48121  1  0  0  0
 49 50  1  0  0  0
 49 53  1  0  0  0
 49 64  1  0  0  0
 49122  1  0  0  0
 50 51  1  0  0  0
 50123  1  0  0  0
 50124  1  0  0  0
 51 52  1  0  0  0
 51125  1  0  0  0
 51126  1  0  0  0
 52127  1  0  0  0
 52128  1  0  0  0
 53 54  1  0  0  0
 54 55  2  0  0  0
 54129  1  0  0  0
 55 57  1  0  0  0
 55130  1  0  0  0
 56 69  2  0  0  0
 57 58  2  0  0  0
 57131  1  0  0  0
 58132  1  0  0  0
 59 60  1  0  0  0
 59 61  1  0  0  0
 59 62  1  0  0  0
 60133  1  0  0  0
 60134  1  0  0  0
 60135  1  0  0  0
 61136  1  0  0  0
 61137  1  0  0  0
 61138  1  0  0  0
 62139  1  0  0  0
 62140  1  0  0  0
 62141  1  0  0  0
 63 65  1  0  0  0
 63142  1  0  0  0
 63143  1  0  0  0
 63144  1  0  0  0
 64145  1  0  0  0
 65146  1  0  0  0
 68 77  1  0  0  0
 71 73  2  0  0  0
 71 75  1  0  0  0
 71147  1  0  0  0
 72 75  2  0  0  0
 72 76  1  0  0  0
 72148  1  0  0  0
 73 74  1  0  0  0
 73 82  1  0  0  0
 74 76  2  0  0  0
 74 81  1  0  0  0
 75 84  1  0  0  0
 76 83  1  0  0  0
 77 78  2  0  0  0
 77149  1  0  0  0
 78 79  1  0  0  0
 78 87  1  0  0  0
 79 84  1  0  0  0
 79 86  2  0  0  0
 80 81  1  0  0  0
 80150  1  0  0  0
 80151  1  0  0  0
 80152  1  0  0  0
 81153  1  0  0  0
 81154  1  0  0  0
 82 85  1  0  0  0
 82155  1  0  0  0
 82156  1  0  0  0
 83157  1  0  0  0
 83158  1  0  0  0
 84159  1  0  0  0
 85160  1  0  0  0
 87161  1  0  0  0
M  ISO  4   1 100  68 101  77 101  85 100
M  END
> <chiral flag>
0

> <version>
0

> <s_m_source_file>
/data/baiqing/PycharmProjects/Reinvent-master-3.2/result/LINK_invent/BTK/process_docking_weight1_custom_product_contain_oxygen_bond_distance_aromatic_linkinvent_7_9_3/rearranged_h_0172.sdf

> <i_m_source_file_index>
37

> <r_mmod_Potential_Energy-OPLS-2005>
-4.28077363967896

> <r_mmod_Stretch_Energy-OPLS-2005>
56.010913848877

> <r_mmod_Bend_Energy-OPLS-2005>
124.717826843262

> <r_mmod_Torsional_Energy-OPLS-2005>
289.843322753906

> <r_mmod_Improper_Torsional_Energy-OPLS-2005>
9.19183254241943

> <r_mmod_Van_der_Waal_Energy-OPLS-2005>
190.903594970703

> <r_mmod_Electrostatic_Energy-OPLS-2005>
-460.301666259766

> <r_mmod_Solvation_Energy-OPLS-2005>
-242.381591796875

> <b_mmod_Minimization_Converged-OPLS-2005>
0

> <r_mmod_RMS_Derivative-OPLS-2005>
3.38353538513184

$$$$
37
                    3D
 Structure written by MMmdl.
153161  0  0  1  0            999 V2000
  -30.6793  -14.4796   20.5322 C   0  0  0  0  0  0
  -30.4211  -12.2898   19.4489 C   0  0  0  0  0  0
  -29.5059  -12.4947   18.2224 C   0  0  0  0  0  0
  -28.0207  -12.3685   18.6203 C   0  0  0  0  0  0
  -27.6608  -13.2097   19.8742 C   0  0  2  0  0  0
  -28.6950  -12.9988   21.0032 C   0  0  0  0  0  0
  -25.2560  -13.8163   20.5648 C   0  0  0  0  0  0
  -24.1820  -13.0439   20.9189 C   0  0  0  0  0  0
  -24.6383  -11.6916   20.8735 C   0  0  0  0  0  0
  -23.9063  -10.4290   21.0401 C   0  0  0  0  0  0
  -24.3609   -9.4199   21.9180 C   0  0  0  0  0  0
  -23.6299   -8.2228   22.0740 C   0  0  0  0  0  0
  -22.4276   -8.0266   21.3532 C   0  0  0  0  0  0
  -21.9903   -9.0254   20.4649 C   0  0  0  0  0  0
  -22.7224  -10.2136   20.3066 C   0  0  0  0  0  0
  -21.6850   -6.0739   22.5289 C   0  0  0  0  0  0
  -21.4010   -6.5638   23.8219 C   0  0  0  0  0  0
  -21.3660   -5.6785   24.9183 C   0  0  0  0  0  0
  -21.6051   -4.3061   24.7225 C   0  0  0  0  0  0
  -21.8811   -3.8151   23.4348 C   0  0  0  0  0  0
  -21.9176   -4.6969   22.3400 C   0  0  0  0  0  0
  -22.7828  -13.5239   21.1843 C   0  0  0  0  0  0
  -22.1647   -4.2153   21.0985 F   0  0  0  0  0  0
  -21.5635   -3.4544   25.7740 F   0  0  0  0  0  0
  -30.0300  -13.2881   20.4569 N   0  0  0  0  0  0
  -26.3006  -12.9348   20.3347 N   0  0  0  0  0  0
  -25.9310  -11.6511   20.5764 N   0  0  0  0  0  0
  -22.0470  -12.8259   22.0416 N   0  0  0  0  0  0
  -25.4306  -15.1881   20.4050 N   0  0  0  0  0  0
  -31.8297  -14.6400   20.1163 O   0  0  0  0  0  0
  -21.6629   -6.8879   21.4246 O   0  0  0  0  0  0
  -22.3515  -14.5529   20.6669 O   0  0  0  0  0  0
  -24.6177  -31.8667   23.2088 C   0  0  0  0  0  0
  -25.9073  -32.4815   23.8360 C   0  0  1  0  0  0
  -27.2275  -27.4092   20.0853 C   0  0  0  0  0  0
  -25.5917  -33.8607   24.2283 N   0  0  0  0  0  0
  -23.4042  -30.4918   21.5511 C   0  0  2  0  0  0
  -24.8463  -28.9602   20.1092 C   0  0  0  0  0  0
  -22.7422  -29.4665   22.4989 C   0  0  0  0  0  0
  -18.0287  -28.1399   22.8483 C   0  0  0  0  0  0
  -24.1493  -36.7336   23.2624 C   0  0  0  0  0  0
  -25.9365  -30.8202   21.3674 C   0  0  0  0  0  0
  -26.0103  -29.4549   20.7115 C   0  0  0  0  0  0
  -27.2021  -28.6874   20.6992 C   0  0  0  0  0  0
  -26.0436  -26.9517   19.4558 C   0  0  0  0  0  0
  -24.8604  -27.7086   19.4777 C   0  0  0  0  0  0
  -23.6103  -29.8292   20.1645 C   0  0  0  0  0  0
  -25.4114  -36.3103   24.0310 C   0  0  1  0  0  0
  -20.5875  -28.3687   23.1307 C   0  0  2  0  0  0
  -20.6789  -26.9429   22.5405 C   0  0  0  0  0  0
  -19.5757  -26.6400   21.5211 C   0  0  0  0  0  0
  -18.1940  -26.7940   22.1623 C   0  0  0  0  0  0
  -19.1537  -28.8852   23.2890 C   0  0  0  0  0  0
  -18.9464  -30.1464   23.8897 C   0  0  0  0  0  0
  -17.6465  -30.6597   24.0571 C   0  0  0  0  0  0
  -25.9049  -34.9473   23.5095 C   0  0  0  0  0  0
  -16.5357  -29.9101   23.6335 C   0  0  0  0  0  0
  -16.7274  -28.6525   23.0337 C   0  0  0  0  0  0
  -26.4468  -31.6614   25.0723 C   0  0  0  0  0  0
  -25.3710  -31.3785   26.1469 C   0  0  0  0  0  0
  -27.0279  -30.3031   24.6134 C   0  0  0  0  0  0
  -27.6019  -32.4342   25.7501 C   0  0  0  0  0  0
  -27.5586  -37.1818   24.8450 C   0  0  0  0  0  0
  -21.4150  -29.3041   22.3706 N   0  0  0  0  0  0
  -26.4299  -37.3793   23.9400 N   0  0  0  0  0  0
  -24.6709  -31.0748   22.1012 N   0  0  0  0  0  0
  -23.4187  -28.8208   23.3041 O   0  0  0  0  0  0
  -28.3790  -26.6334   20.1295 O   0  0  0  0  0  0
  -26.5608  -34.8935   22.4658 O   0  0  0  0  0  0
  -23.5372  -32.1426   23.7480 O   0  0  0  0  0  0
  -29.5535  -17.9765   21.1616 C   0  0  0  0  0  0
  -30.3961  -17.0882   19.0516 C   0  0  0  0  0  0
  -29.9689  -19.4776   19.2847 C   0  0  0  0  0  0
  -29.9756  -16.8599   20.3851 C   0  0  0  0  0  0
  -29.6006  -19.2967   20.6368 C   0  0  0  0  0  0
  -30.3732  -18.3839   18.5018 C   0  0  0  0  0  0
  -28.8259  -22.7831   20.6331 C   0  0  0  0  0  0
  -29.2461  -24.2883   20.4742 C   0  0  0  0  0  0
  -29.8489  -21.7503   21.1674 C   0  0  0  0  0  0
  -28.1973  -25.2238   19.8411 C   0  0  0  0  0  0
  -29.9273  -15.5313   20.9307 N   0  0  0  0  0  0
  -29.2974  -20.4024   21.4608 N   0  0  0  0  0  0
  -27.6805  -22.4179   20.3364 O   0  0  0  0  0  0
  -30.3602  -24.6975   20.8299 O   0  0  0  0  0  0
  -30.7536  -18.5784   17.2173 F   0  0  0  0  0  0
  -31.4709  -12.3765   19.1622 H   0  0  0  0  0  0
  -30.3072  -11.2837   19.8577 H   0  0  0  0  0  0
  -29.7479  -11.7672   17.4470 H   0  0  0  0  0  0
  -29.6866  -13.4770   17.7838 H   0  0  0  0  0  0
  -27.8163  -11.3164   18.8163 H   0  0  0  0  0  0
  -27.3806  -12.6489   17.7830 H   0  0  0  0  0  0
  -27.7043  -14.2574   19.5731 H   0  0  0  0  0  0
  -28.6563  -11.9684   21.3646 H   0  0  0  0  0  0
  -28.4614  -13.6187   21.8709 H   0  0  0  0  0  0
  -25.2762   -9.5675   22.4749 H   0  0  0  0  0  0
  -24.0019   -7.4605   22.7448 H   0  0  0  0  0  0
  -21.0831   -8.8787   19.8964 H   0  0  0  0  0  0
  -22.3687  -10.9679   19.6185 H   0  0  0  0  0  0
  -21.2010   -7.6146   23.9738 H   0  0  0  0  0  0
  -21.1493   -6.0514   25.9087 H   0  0  0  0  0  0
  -22.0587   -2.7617   23.2847 H   0  0  0  0  0  0
  -22.4083  -11.9976   22.4894 H   0  0  0  0  0  0
  -21.1087  -13.1316   22.2594 H   0  0  0  0  0  0
  -24.6731  -15.8522   20.5190 H   0  0  0  0  0  0
  -26.2903  -15.6192   20.0888 H   0  0  0  0  0  0
  -26.7147  -32.5500   23.1125 H   0  0  0  0  0  0
  -25.0077  -33.9759   25.0425 H   0  0  0  0  0  0
  -22.6935  -31.3102   21.4173 H   0  0  0  0  0  0
  -23.3736  -35.9690   23.3285 H   0  0  0  0  0  0
  -24.3582  -36.8960   22.2043 H   0  0  0  0  0  0
  -23.7284  -37.6548   23.6651 H   0  0  0  0  0  0
  -26.0564  -31.5833   20.5968 H   0  0  0  0  0  0
  -26.8245  -30.8682   21.9864 H   0  0  0  0  0  0
  -28.0947  -29.0637   21.1780 H   0  0  0  0  0  0
  -26.0001  -26.0082   18.9293 H   0  0  0  0  0  0
  -23.9733  -27.3234   18.9934 H   0  0  0  0  0  0
  -23.7149  -30.6055   19.4051 H   0  0  0  0  0  0
  -22.7312  -29.2505   19.8720 H   0  0  0  0  0  0
  -25.1299  -36.1947   25.0800 H   0  0  0  0  0  0
  -20.9971  -28.3283   24.1422 H   0  0  0  0  0  0
  -20.5739  -26.2302   23.3605 H   0  0  0  0  0  0
  -21.6664  -26.7507   22.1176 H   0  0  0  0  0  0
  -19.6935  -25.6315   21.1238 H   0  0  0  0  0  0
  -19.6698  -27.3216   20.6752 H   0  0  0  0  0  0
  -17.4218  -26.6680   21.4024 H   0  0  0  0  0  0
  -18.0346  -26.0089   22.9026 H   0  0  0  0  0  0
  -19.7947  -30.7282   24.2257 H   0  0  0  0  0  0
  -17.5032  -31.6270   24.5191 H   0  0  0  0  0  0
  -15.5368  -30.3006   23.7659 H   0  0  0  0  0  0
  -15.8677  -28.0859   22.7030 H   0  0  0  0  0  0
  -24.5867  -30.7139   25.7842 H   0  0  0  0  0  0
  -24.8928  -32.2974   26.4861 H   0  0  0  0  0  0
  -25.8046  -30.9003   27.0257 H   0  0  0  0  0  0
  -26.2829  -29.6834   24.1135 H   0  0  0  0  0  0
  -27.3954  -29.7249   25.4621 H   0  0  0  0  0  0
  -27.8708  -30.4322   23.9344 H   0  0  0  0  0  0
  -27.2601  -33.3616   26.2101 H   0  0  0  0  0  0
  -28.3827  -32.6945   25.0349 H   0  0  0  0  0  0
  -28.0684  -31.8461   26.5412 H   0  0  0  0  0  0
  -28.2595  -38.0121   24.7504 H   0  0  0  0  0  0
  -28.1087  -36.2656   24.6257 H   0  0  0  0  0  0
  -27.2304  -37.1452   25.8849 H   0  0  0  0  0  0
  -20.9335  -29.8725   21.6877 H   0  0  0  0  0  0
  -26.0178  -38.2862   24.1397 H   0  0  0  0  0  0
  -29.2118  -17.8116   22.1769 H   0  0  0  0  0  0
  -30.7249  -16.2776   18.4168 H   0  0  0  0  0  0
  -29.9522  -20.4526   18.8224 H   0  0  0  0  0  0
  -30.2786  -22.1477   22.0870 H   0  0  0  0  0  0
  -30.6846  -21.6940   20.4663 H   0  0  0  0  0  0
  -27.2358  -24.8841   20.2231 H   0  0  0  0  0  0
  -28.2077  -25.0664   18.7634 H   0  0  0  0  0  0
  -29.1094  -15.3060   21.4765 H   0  0  0  0  0  0
  -29.0344  -20.2246   22.4283 H   0  0  0  0  0  0
  1 25  1  0  0  0
  1 30  2  0  0  0
  1 81  1  0  0  0
  2  3  1  0  0  0
  2 25  1  0  0  0
  2 86  1  0  0  0
  2 87  1  0  0  0
  3  4  1  0  0  0
  3 88  1  0  0  0
  3 89  1  0  0  0
  4  5  1  0  0  0
  4 90  1  0  0  0
  4 91  1  0  0  0
  5  6  1  0  0  0
  5 26  1  0  0  0
  5 92  1  0  0  0
  6 25  1  0  0  0
  6 93  1  0  0  0
  6 94  1  0  0  0
  7  8  2  0  0  0
  7 26  1  0  0  0
  7 29  1  0  0  0
  8  9  1  0  0  0
  8 22  1  0  0  0
  9 10  1  0  0  0
  9 27  2  0  0  0
 10 11  2  0  0  0
 10 15  1  0  0  0
 11 12  1  0  0  0
 11 95  1  0  0  0
 12 13  2  0  0  0
 12 96  1  0  0  0
 13 14  1  0  0  0
 13 31  1  0  0  0
 14 15  2  0  0  0
 14 97  1  0  0  0
 15 98  1  0  0  0
 16 17  2  0  0  0
 16 21  1  0  0  0
 16 31  1  0  0  0
 17 18  1  0  0  0
 17 99  1  0  0  0
 18 19  2  0  0  0
 18100  1  0  0  0
 19 20  1  0  0  0
 19 24  1  0  0  0
 20 21  2  0  0  0
 20101  1  0  0  0
 21 23  1  0  0  0
 22 28  1  0  0  0
 22 32  2  0  0  0
 26 27  1  0  0  0
 28102  1  0  0  0
 28103  1  0  0  0
 29104  1  0  0  0
 29105  1  0  0  0
 33 34  1  0  0  0
 33 66  1  0  0  0
 33 70  2  0  0  0
 34 36  1  0  0  0
 34 59  1  0  0  0
 34106  1  0  0  0
 35 44  2  0  0  0
 35 45  1  0  0  0
 35 68  1  0  0  0
 36 56  1  0  0  0
 36107  1  0  0  0
 37 39  1  0  0  0
 37 47  1  0  0  0
 37 66  1  0  0  0
 37108  1  0  0  0
 38 43  2  0  0  0
 38 46  1  0  0  0
 38 47  1  0  0  0
 39 64  1  0  0  0
 39 67  2  0  0  0
 40 52  1  0  0  0
 40 53  2  0  0  0
 40 58  1  0  0  0
 41109  1  0  0  0
 41110  1  0  0  0
 41111  1  0  0  0
 41 48  1  0  0  0
 42 43  1  0  0  0
 42 66  1  0  0  0
 42112  1  0  0  0
 42113  1  0  0  0
 43 44  1  0  0  0
 44114  1  0  0  0
 45 46  2  0  0  0
 45115  1  0  0  0
 46116  1  0  0  0
 47117  1  0  0  0
 47118  1  0  0  0
 48 56  1  0  0  0
 48 65  1  0  0  0
 48119  1  0  0  0
 49 50  1  0  0  0
 49 53  1  0  0  0
 49 64  1  0  0  0
 49120  1  0  0  0
 50 51  1  0  0  0
 50121  1  0  0  0
 50122  1  0  0  0
 51 52  1  0  0  0
 51123  1  0  0  0
 51124  1  0  0  0
 52125  1  0  0  0
 52126  1  0  0  0
 53 54  1  0  0  0
 54 55  2  0  0  0
 54127  1  0  0  0
 55 57  1  0  0  0
 55128  1  0  0  0
 56 69  2  0  0  0
 57 58  2  0  0  0
 57129  1  0  0  0
 58130  1  0  0  0
 59 60  1  0  0  0
 59 61  1  0  0  0
 59 62  1  0  0  0
 60131  1  0  0  0
 60132  1  0  0  0
 60133  1  0  0  0
 61134  1  0  0  0
 61135  1  0  0  0
 61136  1  0  0  0
 62137  1  0  0  0
 62138  1  0  0  0
 62139  1  0  0  0
 63 65  1  0  0  0
 63140  1  0  0  0
 63141  1  0  0  0
 63142  1  0  0  0
 64143  1  0  0  0
 65144  1  0  0  0
 68 80  1  0  0  0
 71 74  2  0  0  0
 71 75  1  0  0  0
 71145  1  0  0  0
 72 74  1  0  0  0
 72 76  2  0  0  0
 72146  1  0  0  0
 73 75  2  0  0  0
 73 76  1  0  0  0
 73147  1  0  0  0
 74 81  1  0  0  0
 75 82  1  0  0  0
 76 85  1  0  0  0
 77 78  1  0  0  0
 77 79  1  0  0  0
 77 83  2  0  0  0
 78 80  1  0  0  0
 78 84  2  0  0  0
 79 82  1  0  0  0
 79148  1  0  0  0
 79149  1  0  0  0
 80150  1  0  0  0
 80151  1  0  0  0
 81152  1  0  0  0
 82153  1  0  0  0
M  ISO  4   1 100  68 101  80 101  81 100
M  END
> <chiral flag>
0

> <version>
0

> <s_m_source_file>
/data/baiqing/PycharmProjects/Reinvent-master-3.2/result/LINK_invent/BTK/process_docking_weight1_custom_product_contain_oxygen_bond_distance_aromatic_linkinvent_7_9_3/rearranged_h_0172.sdf

> <i_m_source_file_index>
38

> <r_mmod_Potential_Energy-OPLS-2005>
113.573013305664

> <r_mmod_Stretch_Energy-OPLS-2005>
45.698371887207

> <r_mmod_Bend_Energy-OPLS-2005>
103.048454284668

> <r_mmod_Torsional_Energy-OPLS-2005>
221.582717895508

> <r_mmod_Improper_Torsional_Energy-OPLS-2005>
6.22140693664551

> <r_mmod_Van_der_Waal_Energy-OPLS-2005>
161.770324707031

> <r_mmod_Electrostatic_Energy-OPLS-2005>
-194.280151367188

> <r_mmod_Solvation_Energy-OPLS-2005>
-248.405624389648

> <b_mmod_Minimization_Converged-OPLS-2005>
0

> <r_mmod_RMS_Derivative-OPLS-2005>
3.81995558738708

$$$$
38
                    3D
 Structure written by MMmdl.
154162  0  0  1  0            999 V2000
  -30.6861  -14.4587   20.6459 C   0  0  0  0  0  0
  -30.4390  -12.3232   19.4125 C   0  0  0  0  0  0
  -29.4997  -12.5313   18.2056 C   0  0  0  0  0  0
  -28.0218  -12.3766   18.6165 C   0  0  0  0  0  0
  -27.6696  -13.2003   19.8826 C   0  0  2  0  0  0
  -28.7063  -12.9369   20.9970 C   0  0  0  0  0  0
  -25.2611  -13.8140   20.5650 C   0  0  0  0  0  0
  -24.1852  -13.0433   20.9152 C   0  0  0  0  0  0
  -24.6397  -11.6896   20.8717 C   0  0  0  0  0  0
  -23.9056  -10.4290   21.0397 C   0  0  0  0  0  0
  -24.3608   -9.4210   21.9179 C   0  0  0  0  0  0
  -23.6284   -8.2246   22.0755 C   0  0  0  0  0  0
  -22.4265   -8.0284   21.3548 C   0  0  0  0  0  0
  -21.9897   -9.0254   20.4649 C   0  0  0  0  0  0
  -22.7225  -10.2132   20.3053 C   0  0  0  0  0  0
  -21.6853   -6.0733   22.5280 C   0  0  0  0  0  0
  -21.4014   -6.5635   23.8212 C   0  0  0  0  0  0
  -21.3659   -5.6790   24.9174 C   0  0  0  0  0  0
  -21.6044   -4.3052   24.7225 C   0  0  0  0  0  0
  -21.8819   -3.8146   23.4345 C   0  0  0  0  0  0
  -21.9192   -4.6962   22.3403 C   0  0  0  0  0  0
  -22.7879  -13.5243   21.1830 C   0  0  0  0  0  0
  -22.1662   -4.2150   21.0980 F   0  0  0  0  0  0
  -21.5628   -3.4536   25.7735 F   0  0  0  0  0  0
  -30.0490  -13.2664   20.4727 N   0  0  0  0  0  0
  -26.3057  -12.9304   20.3367 N   0  0  0  0  0  0
  -25.9323  -11.6468   20.5742 N   0  0  0  0  0  0
  -22.0516  -12.8245   22.0393 N   0  0  0  0  0  0
  -25.4328  -15.1849   20.4033 N   0  0  0  0  0  0
  -31.7211  -14.7702   20.0463 O   0  0  0  0  0  0
  -21.6638   -6.8876   21.4241 O   0  0  0  0  0  0
  -22.3566  -14.5553   20.6686 O   0  0  0  0  0  0
  -24.6159  -31.8667   23.2085 C   0  0  0  0  0  0
  -25.9044  -32.4820   23.8387 C   0  0  1  0  0  0
  -27.2372  -27.4146   20.1017 C   0  0  0  0  0  0
  -25.5889  -33.8619   24.2316 N   0  0  0  0  0  0
  -23.4050  -30.4893   21.5499 C   0  0  2  0  0  0
  -24.8519  -28.9507   20.1191 C   0  0  0  0  0  0
  -22.7415  -29.4653   22.4990 C   0  0  0  0  0  0
  -18.0271  -28.1375   22.8493 C   0  0  0  0  0  0
  -24.1486  -36.7313   23.2639 C   0  0  0  0  0  0
  -25.9362  -30.8265   21.3647 C   0  0  0  0  0  0
  -26.0139  -29.4588   20.7127 C   0  0  0  0  0  0
  -27.2098  -28.7009   20.6954 C   0  0  0  0  0  0
  -26.0552  -26.9285   19.4980 C   0  0  0  0  0  0
  -24.8684  -27.6855   19.5088 C   0  0  0  0  0  0
  -23.6149  -29.8194   20.1662 C   0  0  0  0  0  0
  -25.4106  -36.3111   24.0337 C   0  0  1  0  0  0
  -20.5864  -28.3662   23.1313 C   0  0  2  0  0  0
  -20.6760  -26.9396   22.5414 C   0  0  0  0  0  0
  -19.5740  -26.6384   21.5207 C   0  0  0  0  0  0
  -18.1919  -26.7921   22.1623 C   0  0  0  0  0  0
  -19.1522  -28.8835   23.2902 C   0  0  0  0  0  0
  -18.9452  -30.1439   23.8915 C   0  0  0  0  0  0
  -17.6456  -30.6583   24.0565 C   0  0  0  0  0  0
  -25.9033  -34.9476   23.5126 C   0  0  0  0  0  0
  -16.5345  -29.9086   23.6326 C   0  0  0  0  0  0
  -16.7260  -28.6500   23.0351 C   0  0  0  0  0  0
  -26.4468  -31.6609   25.0723 C   0  0  0  0  0  0
  -25.3730  -31.3717   26.1468 C   0  0  0  0  0  0
  -27.0304  -30.3053   24.6108 C   0  0  0  0  0  0
  -27.6041  -32.4334   25.7482 C   0  0  0  0  0  0
  -27.5585  -37.1801   24.8461 C   0  0  0  0  0  0
  -21.4141  -29.3032   22.3723 N   0  0  0  0  0  0
  -26.4292  -37.3796   23.9414 N   0  0  0  0  0  0
  -24.6707  -31.0755   22.0992 N   0  0  0  0  0  0
  -23.4180  -28.8197   23.3039 O   0  0  0  0  0  0
  -28.4100  -26.6806   20.0867 O   0  0  0  0  0  0
  -26.5605  -34.8928   22.4694 O   0  0  0  0  0  0
  -23.5346  -32.1424   23.7470 O   0  0  0  0  0  0
  -30.1958  -17.6626   20.8148 C   0  0  0  0  0  0
  -29.3438  -18.8252   20.9484 C   0  0  0  0  0  0
  -29.6679  -16.5338   21.4352 C   0  0  0  0  0  0
  -28.2047  -18.5493   21.6401 C   0  0  0  0  0  0
  -29.7065  -23.0432   20.2282 C   0  0  0  0  0  0
  -30.4856  -22.1368   19.5648 C   0  0  0  0  0  0
  -29.5471  -24.4855   19.8546 C   0  0  0  0  0  0
  -30.6618  -20.7664   20.0719 C   0  0  0  0  0  0
  -31.2578  -22.4503   18.2853 C   0  0  0  0  0  0
  -28.3127  -25.2621   20.3698 C   0  0  0  0  0  0
  -29.5264  -20.1488   20.4357 N   0  0  0  0  0  0
  -30.1196  -15.2520   21.5724 N   0  0  0  0  0  0
  -30.3806  -25.0992   19.1790 O   0  0  0  0  0  0
  -31.7569  -20.2010   20.1193 O   0  0  0  0  0  0
  -27.2293  -19.4558   21.8928 F   0  0  0  0  0  0
  -28.1279  -16.9123   22.1940 S   0  0  0  0  0  0
  -31.4802  -12.4520   19.1106 H   0  0  0  0  0  0
  -30.3639  -11.2999   19.7830 H   0  0  0  0  0  0
  -29.7427  -11.8233   17.4123 H   0  0  0  0  0  0
  -29.6591  -13.5258   17.7858 H   0  0  0  0  0  0
  -27.8358  -11.3179   18.8009 H   0  0  0  0  0  0
  -27.3698  -12.6590   17.7894 H   0  0  0  0  0  0
  -27.7277  -14.2547   19.6113 H   0  0  0  0  0  0
  -28.6826  -11.8859   21.2888 H   0  0  0  0  0  0
  -28.4355  -13.4821   21.9015 H   0  0  0  0  0  0
  -25.2754   -9.5686   22.4749 H   0  0  0  0  0  0
  -23.9998   -7.4635   22.7470 H   0  0  0  0  0  0
  -21.0828   -8.8766   19.8953 H   0  0  0  0  0  0
  -22.3682  -10.9666   19.6159 H   0  0  0  0  0  0
  -21.2010   -7.6143   23.9714 H   0  0  0  0  0  0
  -21.1482   -6.0521   25.9076 H   0  0  0  0  0  0
  -22.0600   -2.7609   23.2845 H   0  0  0  0  0  0
  -22.4125  -11.9904   22.4780 H   0  0  0  0  0  0
  -21.1141  -13.1288   22.2604 H   0  0  0  0  0  0
  -24.6662  -15.8405   20.5074 H   0  0  0  0  0  0
  -26.2868  -15.6202   20.0797 H   0  0  0  0  0  0
  -26.7116  -32.5524   23.1151 H   0  0  0  0  0  0
  -25.0028  -33.9784   25.0453 H   0  0  0  0  0  0
  -22.6940  -31.3059   21.4085 H   0  0  0  0  0  0
  -23.3746  -35.9649   23.3312 H   0  0  0  0  0  0
  -24.3583  -36.8918   22.2052 H   0  0  0  0  0  0
  -23.7240  -37.6520   23.6648 H   0  0  0  0  0  0
  -26.0513  -31.5917   20.5958 H   0  0  0  0  0  0
  -26.8229  -30.8802   21.9847 H   0  0  0  0  0  0
  -28.1090  -29.0940   21.1491 H   0  0  0  0  0  0
  -26.0365  -25.9737   18.9942 H   0  0  0  0  0  0
  -23.9771  -27.2906   19.0406 H   0  0  0  0  0  0
  -23.7244  -30.5923   19.4044 H   0  0  0  0  0  0
  -22.7389  -29.2389   19.8712 H   0  0  0  0  0  0
  -25.1280  -36.1976   25.0829 H   0  0  0  0  0  0
  -20.9956  -28.3226   24.1434 H   0  0  0  0  0  0
  -20.5653  -26.2268   23.3600 H   0  0  0  0  0  0
  -21.6631  -26.7432   22.1213 H   0  0  0  0  0  0
  -19.6900  -25.6298   21.1228 H   0  0  0  0  0  0
  -19.6682  -27.3201   20.6743 H   0  0  0  0  0  0
  -17.4185  -26.6666   21.4029 H   0  0  0  0  0  0
  -18.0329  -26.0059   22.9018 H   0  0  0  0  0  0
  -19.7929  -30.7245   24.2297 H   0  0  0  0  0  0
  -17.5013  -31.6267   24.5157 H   0  0  0  0  0  0
  -15.5347  -30.2996   23.7638 H   0  0  0  0  0  0
  -15.8658  -28.0821   22.7067 H   0  0  0  0  0  0
  -24.5895  -30.7075   25.7800 H   0  0  0  0  0  0
  -24.8930  -32.2875   26.4929 H   0  0  0  0  0  0
  -25.8078  -30.8871   27.0219 H   0  0  0  0  0  0
  -26.2852  -29.6813   24.1157 H   0  0  0  0  0  0
  -27.4071  -29.7292   25.4570 H   0  0  0  0  0  0
  -27.8688  -30.4378   23.9265 H   0  0  0  0  0  0
  -27.2652  -33.3614   26.2102 H   0  0  0  0  0  0
  -28.3821  -32.6932   25.0291 H   0  0  0  0  0  0
  -28.0745  -31.8438   26.5360 H   0  0  0  0  0  0
  -28.2589  -38.0112   24.7536 H   0  0  0  0  0  0
  -28.1095  -36.2646   24.6249 H   0  0  0  0  0  0
  -27.2311  -37.1407   25.8864 H   0  0  0  0  0  0
  -20.9298  -29.8761   21.6953 H   0  0  0  0  0  0
  -26.0183  -38.2871   24.1429 H   0  0  0  0  0  0
  -31.1368  -17.6877   20.2845 H   0  0  0  0  0  0
  -29.1717  -22.7376   21.1162 H   0  0  0  0  0  0
  -30.6688  -23.0623   17.6019 H   0  0  0  0  0  0
  -31.5222  -21.5423   17.7411 H   0  0  0  0  0  0
  -32.1818  -22.9793   18.5207 H   0  0  0  0  0  0
  -28.2370  -25.1255   21.4487 H   0  0  0  0  0  0
  -27.4319  -24.8010   19.9287 H   0  0  0  0  0  0
  -28.6882  -20.7108   20.4030 H   0  0  0  0  0  0
  -29.5243  -14.7016   22.1743 H   0  0  0  0  0  0
  1 25  1  0  0  0
  1 30  2  0  0  0
  1 82  1  0  0  0
  2  3  1  0  0  0
  2 25  1  0  0  0
  2 87  1  0  0  0
  2 88  1  0  0  0
  3  4  1  0  0  0
  3 89  1  0  0  0
  3 90  1  0  0  0
  4  5  1  0  0  0
  4 91  1  0  0  0
  4 92  1  0  0  0
  5  6  1  0  0  0
  5 26  1  0  0  0
  5 93  1  0  0  0
  6 25  1  0  0  0
  6 94  1  0  0  0
  6 95  1  0  0  0
  7  8  2  0  0  0
  7 26  1  0  0  0
  7 29  1  0  0  0
  8  9  1  0  0  0
  8 22  1  0  0  0
  9 10  1  0  0  0
  9 27  2  0  0  0
 10 11  2  0  0  0
 10 15  1  0  0  0
 11 12  1  0  0  0
 11 96  1  0  0  0
 12 13  2  0  0  0
 12 97  1  0  0  0
 13 14  1  0  0  0
 13 31  1  0  0  0
 14 15  2  0  0  0
 14 98  1  0  0  0
 15 99  1  0  0  0
 16 17  2  0  0  0
 16 21  1  0  0  0
 16 31  1  0  0  0
 17 18  1  0  0  0
 17100  1  0  0  0
 18 19  2  0  0  0
 18101  1  0  0  0
 19 20  1  0  0  0
 19 24  1  0  0  0
 20 21  2  0  0  0
 20102  1  0  0  0
 21 23  1  0  0  0
 22 28  1  0  0  0
 22 32  2  0  0  0
 26 27  1  0  0  0
 28103  1  0  0  0
 28104  1  0  0  0
 29105  1  0  0  0
 29106  1  0  0  0
 33 34  1  0  0  0
 33 66  1  0  0  0
 33 70  2  0  0  0
 34 36  1  0  0  0
 34 59  1  0  0  0
 34107  1  0  0  0
 35 44  2  0  0  0
 35 45  1  0  0  0
 35 68  1  0  0  0
 36 56  1  0  0  0
 36108  1  0  0  0
 37 39  1  0  0  0
 37 47  1  0  0  0
 37 66  1  0  0  0
 37109  1  0  0  0
 38 43  2  0  0  0
 38 46  1  0  0  0
 38 47  1  0  0  0
 39 64  1  0  0  0
 39 67  2  0  0  0
 40 52  1  0  0  0
 40 53  2  0  0  0
 40 58  1  0  0  0
 41110  1  0  0  0
 41111  1  0  0  0
 41112  1  0  0  0
 41 48  1  0  0  0
 42 43  1  0  0  0
 42 66  1  0  0  0
 42113  1  0  0  0
 42114  1  0  0  0
 43 44  1  0  0  0
 44115  1  0  0  0
 45 46  2  0  0  0
 45116  1  0  0  0
 46117  1  0  0  0
 47118  1  0  0  0
 47119  1  0  0  0
 48 56  1  0  0  0
 48 65  1  0  0  0
 48120  1  0  0  0
 49 50  1  0  0  0
 49 53  1  0  0  0
 49 64  1  0  0  0
 49121  1  0  0  0
 50 51  1  0  0  0
 50122  1  0  0  0
 50123  1  0  0  0
 51 52  1  0  0  0
 51124  1  0  0  0
 51125  1  0  0  0
 52126  1  0  0  0
 52127  1  0  0  0
 53 54  1  0  0  0
 54 55  2  0  0  0
 54128  1  0  0  0
 55 57  1  0  0  0
 55129  1  0  0  0
 56 69  2  0  0  0
 57 58  2  0  0  0
 57130  1  0  0  0
 58131  1  0  0  0
 59 60  1  0  0  0
 59 61  1  0  0  0
 59 62  1  0  0  0
 60132  1  0  0  0
 60133  1  0  0  0
 60134  1  0  0  0
 61135  1  0  0  0
 61136  1  0  0  0
 61137  1  0  0  0
 62138  1  0  0  0
 62139  1  0  0  0
 62140  1  0  0  0
 63 65  1  0  0  0
 63141  1  0  0  0
 63142  1  0  0  0
 63143  1  0  0  0
 64144  1  0  0  0
 65145  1  0  0  0
 68 80  1  0  0  0
 71 72  1  0  0  0
 71 73  2  0  0  0
 71146  1  0  0  0
 72 74  2  0  0  0
 72 81  1  0  0  0
 73 82  1  0  0  0
 73 86  1  0  0  0
 74 85  1  0  0  0
 74 86  1  0  0  0
 75 76  2  0  0  0
 75 77  1  0  0  0
 75147  1  0  0  0
 76 78  1  0  0  0
 76 79  1  0  0  0
 77 80  1  0  0  0
 77 83  2  0  0  0
 78 81  1  0  0  0
 78 84  2  0  0  0
 79148  1  0  0  0
 79149  1  0  0  0
 79150  1  0  0  0
 80151  1  0  0  0
 80152  1  0  0  0
 81153  1  0  0  0
 82154  1  0  0  0
M  ISO  4   1 100  68 101  80 101  82 100
M  END
> <chiral flag>
0

> <version>
0

> <s_m_source_file>
/data/baiqing/PycharmProjects/Reinvent-master-3.2/result/LINK_invent/BTK/process_docking_weight1_custom_product_contain_oxygen_bond_distance_aromatic_linkinvent_7_9_3/rearranged_h_0172.sdf

> <i_m_source_file_index>
39

> <r_mmod_Potential_Energy-OPLS-2005>
-80.822883605957

> <r_mmod_Stretch_Energy-OPLS-2005>
44.1462211608887

> <r_mmod_Bend_Energy-OPLS-2005>
128.651260375977

> <r_mmod_Torsional_Energy-OPLS-2005>
257.270843505859

> <r_mmod_Improper_Torsional_Energy-OPLS-2005>
5.91395711898804

> <r_mmod_Van_der_Waal_Energy-OPLS-2005>
133.622009277344

> <r_mmod_Electrostatic_Energy-OPLS-2005>
-409.170684814453

> <r_mmod_Solvation_Energy-OPLS-2005>
-254.153915405273

> <b_mmod_Minimization_Converged-OPLS-2005>
0

> <r_mmod_RMS_Derivative-OPLS-2005>
0.581035315990448

$$$$
39
                    3D
 Structure written by MMmdl.
160168  0  0  1  0            999 V2000
  -30.6845  -14.5086   20.5516 C   0  0  0  0  0  0
  -30.4241  -12.3207   19.4323 C   0  0  0  0  0  0
  -29.5005  -12.4948   18.2077 C   0  0  0  0  0  0
  -28.0196  -12.3533   18.6177 C   0  0  0  0  0  0
  -27.6552  -13.2084   19.8614 C   0  0  2  0  0  0
  -28.6970  -13.0179   20.9871 C   0  0  0  0  0  0
  -25.2580  -13.8166   20.5664 C   0  0  0  0  0  0
  -24.1842  -13.0443   20.9191 C   0  0  0  0  0  0
  -24.6387  -11.6908   20.8745 C   0  0  0  0  0  0
  -23.9057  -10.4302   21.0436 C   0  0  0  0  0  0
  -24.3611   -9.4207   21.9203 C   0  0  0  0  0  0
  -23.6287   -8.2242   22.0762 C   0  0  0  0  0  0
  -22.4265   -8.0290   21.3555 C   0  0  0  0  0  0
  -21.9899   -9.0264   20.4657 C   0  0  0  0  0  0
  -22.7232  -10.2145   20.3078 C   0  0  0  0  0  0
  -21.6844   -6.0748   22.5296 C   0  0  0  0  0  0
  -21.4012   -6.5647   23.8231 C   0  0  0  0  0  0
  -21.3656   -5.6797   24.9186 C   0  0  0  0  0  0
  -21.6045   -4.3062   24.7230 C   0  0  0  0  0  0
  -21.8811   -3.8152   23.4345 C   0  0  0  0  0  0
  -21.9184   -4.6976   22.3406 C   0  0  0  0  0  0
  -22.7865  -13.5245   21.1845 C   0  0  0  0  0  0
  -22.1657   -4.2164   21.0983 F   0  0  0  0  0  0
  -21.5617   -3.4547   25.7742 F   0  0  0  0  0  0
  -30.0233  -13.3245   20.4291 N   0  0  0  0  0  0
  -26.2993  -12.9326   20.3291 N   0  0  0  0  0  0
  -25.9306  -11.6486   20.5741 N   0  0  0  0  0  0
  -22.0491  -12.8275   22.0417 N   0  0  0  0  0  0
  -25.4289  -15.1887   20.4063 N   0  0  0  0  0  0
  -31.8398  -14.6709   20.1493 O   0  0  0  0  0  0
  -21.6622   -6.8892   21.4261 O   0  0  0  0  0  0
  -22.3562  -14.5544   20.6672 O   0  0  0  0  0  0
  -24.6192  -31.8659   23.2111 C   0  0  0  0  0  0
  -25.9078  -32.4808   23.8401 C   0  0  1  0  0  0
  -27.2348  -27.4036   20.0880 C   0  0  0  0  0  0
  -25.5935  -33.8610   24.2337 N   0  0  0  0  0  0
  -23.4074  -30.4937   21.5511 C   0  0  2  0  0  0
  -24.8516  -28.9555   20.1161 C   0  0  0  0  0  0
  -22.7434  -29.4659   22.4969 C   0  0  0  0  0  0
  -18.0276  -28.1389   22.8479 C   0  0  0  0  0  0
  -24.1479  -36.7283   23.2642 C   0  0  0  0  0  0
  -25.9422  -30.8194   21.3729 C   0  0  0  0  0  0
  -26.0147  -29.4544   20.7125 C   0  0  0  0  0  0
  -27.2041  -28.6854   20.6961 C   0  0  0  0  0  0
  -26.0391  -26.9169   19.5088 C   0  0  0  0  0  0
  -24.8597  -27.6863   19.5157 C   0  0  0  0  0  0
  -23.6193  -29.8325   20.1637 C   0  0  0  0  0  0
  -25.4104  -36.3101   24.0341 C   0  0  1  0  0  0
  -20.5868  -28.3662   23.1301 C   0  0  2  0  0  0
  -20.6764  -26.9395   22.5416 C   0  0  0  0  0  0
  -19.5746  -26.6384   21.5215 C   0  0  0  0  0  0
  -18.1919  -26.7935   22.1622 C   0  0  0  0  0  0
  -19.1527  -28.8848   23.2880 C   0  0  0  0  0  0
  -18.9458  -30.1451   23.8891 C   0  0  0  0  0  0
  -17.6457  -30.6587   24.0564 C   0  0  0  0  0  0
  -25.9041  -34.9469   23.5134 C   0  0  0  0  0  0
  -16.5345  -29.9080   23.6343 C   0  0  0  0  0  0
  -16.7262  -28.6509   23.0346 C   0  0  0  0  0  0
  -26.4508  -31.6607   25.0744 C   0  0  0  0  0  0
  -25.3788  -31.3713   26.1506 C   0  0  0  0  0  0
  -27.0352  -30.3043   24.6155 C   0  0  0  0  0  0
  -27.6069  -32.4353   25.7492 C   0  0  0  0  0  0
  -27.5578  -37.1804   24.8474 C   0  0  0  0  0  0
  -21.4157  -29.3022   22.3706 N   0  0  0  0  0  0
  -26.4287  -37.3788   23.9420 N   0  0  0  0  0  0
  -24.6738  -31.0742   22.1023 N   0  0  0  0  0  0
  -23.4203  -28.8206   23.3022 O   0  0  0  0  0  0
  -28.4187  -26.6771   20.1100 O   0  0  0  0  0  0
  -26.5580  -34.8920   22.4679 O   0  0  0  0  0  0
  -23.5377  -32.1420   23.7496 O   0  0  0  0  0  0
  -31.0793  -19.6624   21.2430 C   0  0  0  0  0  0
  -31.4498  -17.3110   21.8088 C   0  0  0  0  0  0
  -29.9672  -19.3191   20.4444 C   0  0  0  0  0  0
  -30.3326  -16.9304   21.0313 C   0  0  0  0  0  0
  -31.8107  -18.6664   21.9180 C   0  0  0  0  0  0
  -29.5870  -17.9439   20.3636 C   0  0  0  0  0  0
  -29.3191  -20.3854   19.6401 C   0  0  0  0  0  0
  -27.0446  -22.5804   19.0038 C   0  0  0  0  0  0
  -28.6880  -24.1690   20.1176 C   0  0  0  0  0  0
  -26.5599  -23.0598   17.6421 C   0  0  0  0  0  0
  -28.5746  -25.4872   19.2973 C   0  0  0  0  0  0
  -28.5264  -22.8213   19.3499 C   0  0  1  0  0  0
  -29.9313  -15.5543   20.9583 N   0  0  0  0  0  0
  -29.0958  -21.6479   20.0988 N   0  0  0  0  0  0
  -29.0094  -20.1148   18.3686 N   0  3  0  0  0  0
  -26.2627  -21.9989   19.7599 O   0  0  0  0  0  0
  -28.9361  -24.1998   21.3292 O   0  0  0  0  0  0
  -32.8806  -19.0205   22.6703 F   0  0  0  0  0  0
  -28.5230  -17.5769   19.6062 F   0  0  0  0  0  0
  -31.4717  -12.4179   19.1411 H   0  0  0  0  0  0
  -30.3193  -11.3182   19.8496 H   0  0  0  0  0  0
  -29.7477  -11.7598   17.4395 H   0  0  0  0  0  0
  -29.6661  -13.4741   17.7563 H   0  0  0  0  0  0
  -27.8387  -11.2996   18.8302 H   0  0  0  0  0  0
  -27.3686  -12.6111   17.7809 H   0  0  0  0  0  0
  -27.6862  -14.2502   19.5418 H   0  0  0  0  0  0
  -28.6790  -11.9884   21.3487 H   0  0  0  0  0  0
  -28.4587  -13.6407   21.8510 H   0  0  0  0  0  0
  -25.2768   -9.5671   22.4761 H   0  0  0  0  0  0
  -24.0002   -7.4626   22.7464 H   0  0  0  0  0  0
  -21.0829   -8.8778   19.8964 H   0  0  0  0  0  0
  -22.3698  -10.9676   19.6174 H   0  0  0  0  0  0
  -21.2021   -7.6159   23.9742 H   0  0  0  0  0  0
  -21.1482   -6.0528   25.9092 H   0  0  0  0  0  0
  -22.0590   -2.7615   23.2844 H   0  0  0  0  0  0
  -22.4066  -11.9936   22.4841 H   0  0  0  0  0  0
  -21.1115  -13.1340   22.2592 H   0  0  0  0  0  0
  -24.6580  -15.8396   20.5094 H   0  0  0  0  0  0
  -26.2674  -15.6281   20.0487 H   0  0  0  0  0  0
  -26.7150  -32.5497   23.1152 H   0  0  0  0  0  0
  -25.0168  -33.9773   25.0544 H   0  0  0  0  0  0
  -22.6947  -31.3102   21.4134 H   0  0  0  0  0  0
  -23.3754  -35.9605   23.3325 H   0  0  0  0  0  0
  -24.3583  -36.8886   22.2061 H   0  0  0  0  0  0
  -23.7226  -37.6486   23.6639 H   0  0  0  0  0  0
  -26.0741  -31.5928   20.6150 H   0  0  0  0  0  0
  -26.8226  -30.8581   22.0023 H   0  0  0  0  0  0
  -28.1023  -29.0714   21.1559 H   0  0  0  0  0  0
  -25.9742  -25.9365   19.0640 H   0  0  0  0  0  0
  -23.9584  -27.2913   19.0667 H   0  0  0  0  0  0
  -23.7423  -30.6135   19.4116 H   0  0  0  0  0  0
  -22.7388  -29.2660   19.8577 H   0  0  0  0  0  0
  -25.1292  -36.1951   25.0835 H   0  0  0  0  0  0
  -20.9951  -28.3236   24.1424 H   0  0  0  0  0  0
  -20.5678  -26.2268   23.3601 H   0  0  0  0  0  0
  -21.6627  -26.7447   22.1197 H   0  0  0  0  0  0
  -19.6898  -25.6297   21.1242 H   0  0  0  0  0  0
  -19.6694  -27.3197   20.6746 H   0  0  0  0  0  0
  -17.4192  -26.6687   21.4019 H   0  0  0  0  0  0
  -18.0299  -26.0073   22.9017 H   0  0  0  0  0  0
  -19.7929  -30.7274   24.2254 H   0  0  0  0  0  0
  -17.5013  -31.6272   24.5158 H   0  0  0  0  0  0
  -15.5346  -30.2988   23.7677 H   0  0  0  0  0  0
  -15.8656  -28.0845   22.7050 H   0  0  0  0  0  0
  -24.5930  -30.7086   25.7867 H   0  0  0  0  0  0
  -24.9018  -32.2872   26.5000 H   0  0  0  0  0  0
  -25.8174  -30.8860   27.0237 H   0  0  0  0  0  0
  -26.2915  -29.6770   24.1228 H   0  0  0  0  0  0
  -27.4141  -29.7305   25.4626 H   0  0  0  0  0  0
  -27.8738  -30.4353   23.9310 H   0  0  0  0  0  0
  -27.2667  -33.3633   26.2089 H   0  0  0  0  0  0
  -28.3848  -32.6969   25.0309 H   0  0  0  0  0  0
  -28.0762  -31.8485   26.5396 H   0  0  0  0  0  0
  -28.2613  -38.0082   24.7514 H   0  0  0  0  0  0
  -28.1062  -36.2630   24.6305 H   0  0  0  0  0  0
  -27.2301  -37.1459   25.8875 H   0  0  0  0  0  0
  -20.9319  -29.8730   21.6914 H   0  0  0  0  0  0
  -26.0176  -38.2863   24.1427 H   0  0  0  0  0  0
  -31.4102  -20.6880   21.3168 H   0  0  0  0  0  0
  -32.0308  -16.5672   22.3345 H   0  0  0  0  0  0
  -25.7568  -23.7863   17.7579 H   0  0  0  0  0  0
  -26.1840  -22.2177   17.0621 H   0  0  0  0  0  0
  -27.3686  -23.5239   17.0774 H   0  0  0  0  0  0
  -27.8264  -25.3960   18.5154 H   0  0  0  0  0  0
  -29.5178  -25.5982   18.7634 H   0  0  0  0  0  0
  -29.0916  -22.9120   18.4215 H   0  0  0  0  0  0
  -28.9492  -15.3641   21.0843 H   0  0  0  0  0  0
  -29.2606  -21.8252   21.0820 H   0  0  0  0  0  0
  -29.0454  -19.1527   18.0639 H   0  0  0  0  0  0
  -28.7832  -20.8223   17.6938 H   0  0  0  0  0  0
  1 25  1  0  0  0
  1 30  2  0  0  0
  1 83  1  0  0  0
  2  3  1  0  0  0
  2 25  1  0  0  0
  2 90  1  0  0  0
  2 91  1  0  0  0
  3  4  1  0  0  0
  3 92  1  0  0  0
  3 93  1  0  0  0
  4  5  1  0  0  0
  4 94  1  0  0  0
  4 95  1  0  0  0
  5  6  1  0  0  0
  5 26  1  0  0  0
  5 96  1  0  0  0
  6 25  1  0  0  0
  6 97  1  0  0  0
  6 98  1  0  0  0
  7  8  2  0  0  0
  7 26  1  0  0  0
  7 29  1  0  0  0
  8  9  1  0  0  0
  8 22  1  0  0  0
  9 10  1  0  0  0
  9 27  2  0  0  0
 10 11  2  0  0  0
 10 15  1  0  0  0
 11 12  1  0  0  0
 11 99  1  0  0  0
 12 13  2  0  0  0
 12100  1  0  0  0
 13 14  1  0  0  0
 13 31  1  0  0  0
 14 15  2  0  0  0
 14101  1  0  0  0
 15102  1  0  0  0
 16 17  2  0  0  0
 16 21  1  0  0  0
 16 31  1  0  0  0
 17 18  1  0  0  0
 17103  1  0  0  0
 18 19  2  0  0  0
 18104  1  0  0  0
 19 20  1  0  0  0
 19 24  1  0  0  0
 20 21  2  0  0  0
 20105  1  0  0  0
 21 23  1  0  0  0
 22 28  1  0  0  0
 22 32  2  0  0  0
 26 27  1  0  0  0
 28106  1  0  0  0
 28107  1  0  0  0
 29108  1  0  0  0
 29109  1  0  0  0
 33 34  1  0  0  0
 33 66  1  0  0  0
 33 70  2  0  0  0
 34 36  1  0  0  0
 34 59  1  0  0  0
 34110  1  0  0  0
 35 44  2  0  0  0
 35 45  1  0  0  0
 35 68  1  0  0  0
 36 56  1  0  0  0
 36111  1  0  0  0
 37 39  1  0  0  0
 37 47  1  0  0  0
 37 66  1  0  0  0
 37112  1  0  0  0
 38 43  2  0  0  0
 38 46  1  0  0  0
 38 47  1  0  0  0
 39 64  1  0  0  0
 39 67  2  0  0  0
 40 52  1  0  0  0
 40 53  2  0  0  0
 40 58  1  0  0  0
 41113  1  0  0  0
 41114  1  0  0  0
 41115  1  0  0  0
 41 48  1  0  0  0
 42 43  1  0  0  0
 42 66  1  0  0  0
 42116  1  0  0  0
 42117  1  0  0  0
 43 44  1  0  0  0
 44118  1  0  0  0
 45 46  2  0  0  0
 45119  1  0  0  0
 46120  1  0  0  0
 47121  1  0  0  0
 47122  1  0  0  0
 48 56  1  0  0  0
 48 65  1  0  0  0
 48123  1  0  0  0
 49 50  1  0  0  0
 49 53  1  0  0  0
 49 64  1  0  0  0
 49124  1  0  0  0
 50 51  1  0  0  0
 50125  1  0  0  0
 50126  1  0  0  0
 51 52  1  0  0  0
 51127  1  0  0  0
 51128  1  0  0  0
 52129  1  0  0  0
 52130  1  0  0  0
 53 54  1  0  0  0
 54 55  2  0  0  0
 54131  1  0  0  0
 55 57  1  0  0  0
 55132  1  0  0  0
 56 69  2  0  0  0
 57 58  2  0  0  0
 57133  1  0  0  0
 58134  1  0  0  0
 59 60  1  0  0  0
 59 61  1  0  0  0
 59 62  1  0  0  0
 60135  1  0  0  0
 60136  1  0  0  0
 60137  1  0  0  0
 61138  1  0  0  0
 61139  1  0  0  0
 61140  1  0  0  0
 62141  1  0  0  0
 62142  1  0  0  0
 62143  1  0  0  0
 63 65  1  0  0  0
 63144  1  0  0  0
 63145  1  0  0  0
 63146  1  0  0  0
 64147  1  0  0  0
 65148  1  0  0  0
 68 81  1  0  0  0
 71 73  2  0  0  0
 71 75  1  0  0  0
 71149  1  0  0  0
 72 74  1  0  0  0
 72 75  2  0  0  0
 72150  1  0  0  0
 73 76  1  0  0  0
 73 77  1  0  0  0
 74 76  2  0  0  0
 74 83  1  0  0  0
 75 88  1  0  0  0
 76 89  1  0  0  0
 77 84  1  0  0  0
 77 85  2  0  0  0
 78 80  1  0  0  0
 78 82  1  0  0  0
 78 86  2  0  0  0
 79 81  1  0  0  0
 79 82  1  0  0  0
 79 87  2  0  0  0
 80151  1  0  0  0
 80152  1  0  0  0
 80153  1  0  0  0
 81154  1  0  0  0
 81155  1  0  0  0
 82 84  1  0  0  0
 82156  1  0  0  0
 83157  1  0  0  0
 84158  1  0  0  0
 85159  1  0  0  0
 85160  1  0  0  0
M  CHG  1  85   1
M  ISO  4   1 100  68 101  81 101  83 100
M  END
> <chiral flag>
0

> <version>
0

> <s_m_source_file>
/data/baiqing/PycharmProjects/Reinvent-master-3.2/result/LINK_invent/BTK/process_docking_weight1_custom_product_contain_oxygen_bond_distance_aromatic_linkinvent_7_9_3/rearranged_h_0172.sdf

> <i_m_source_file_index>
40

> <r_mmod_Potential_Energy-OPLS-2005>
-481.987762451172

> <r_mmod_Stretch_Energy-OPLS-2005>
47.5418128967285

> <r_mmod_Bend_Energy-OPLS-2005>
106.011138916016

> <r_mmod_Torsional_Energy-OPLS-2005>
234.343795776367

> <r_mmod_Improper_Torsional_Energy-OPLS-2005>
5.69678211212158

> <r_mmod_Van_der_Waal_Energy-OPLS-2005>
152.407501220703

> <r_mmod_Electrostatic_Energy-OPLS-2005>
-566.8671875

> <r_mmod_Solvation_Energy-OPLS-2005>
-479.951873779297

> <b_mmod_Minimization_Converged-OPLS-2005>
0

> <r_mmod_RMS_Derivative-OPLS-2005>
2.33707547187805

$$$$
40
                    3D
 Structure written by MMmdl.
155163  0  0  1  0            999 V2000
  -30.7247  -14.4996   20.5143 C   0  0  0  0  0  0
  -30.4063  -12.3049   19.4435 C   0  0  0  0  0  0
  -29.4925  -12.4861   18.2152 C   0  0  0  0  0  0
  -28.0139  -12.3553   18.6254 C   0  0  0  0  0  0
  -27.6540  -13.2176   19.8659 C   0  0  2  0  0  0
  -28.6975  -13.0574   20.9954 C   0  0  0  0  0  0
  -25.2558  -13.8185   20.5696 C   0  0  0  0  0  0
  -24.1824  -13.0446   20.9195 C   0  0  0  0  0  0
  -24.6393  -11.6918   20.8747 C   0  0  0  0  0  0
  -23.9066  -10.4295   21.0408 C   0  0  0  0  0  0
  -24.3618   -9.4211   21.9186 C   0  0  0  0  0  0
  -23.6295   -8.2246   22.0758 C   0  0  0  0  0  0
  -22.4278   -8.0284   21.3547 C   0  0  0  0  0  0
  -21.9915   -9.0255   20.4646 C   0  0  0  0  0  0
  -22.7240  -10.2136   20.3055 C   0  0  0  0  0  0
  -21.6852   -6.0738   22.5279 C   0  0  0  0  0  0
  -21.4012   -6.5642   23.8212 C   0  0  0  0  0  0
  -21.3661   -5.6795   24.9175 C   0  0  0  0  0  0
  -21.6045   -4.3058   24.7223 C   0  0  0  0  0  0
  -21.8819   -3.8150   23.4344 C   0  0  0  0  0  0
  -21.9193   -4.6967   22.3401 C   0  0  0  0  0  0
  -22.7847  -13.5236   21.1852 C   0  0  0  0  0  0
  -22.1662   -4.2153   21.0978 F   0  0  0  0  0  0
  -21.5629   -3.4543   25.7738 F   0  0  0  0  0  0
  -30.0247  -13.3327   20.4284 N   0  0  0  0  0  0
  -26.2992  -12.9374   20.3343 N   0  0  0  0  0  0
  -25.9323  -11.6527   20.5777 N   0  0  0  0  0  0
  -22.0488  -12.8223   22.0402 N   0  0  0  0  0  0
  -25.4271  -15.1905   20.4101 N   0  0  0  0  0  0
  -31.8937  -14.5591   20.1246 O   0  0  0  0  0  0
  -21.6642   -6.8883   21.4242 O   0  0  0  0  0  0
  -22.3534  -14.5545   20.6705 O   0  0  0  0  0  0
  -24.6154  -31.8676   23.2092 C   0  0  0  0  0  0
  -25.9043  -32.4820   23.8394 C   0  0  1  0  0  0
  -27.2307  -27.4331   20.1009 C   0  0  0  0  0  0
  -25.5898  -33.8618   24.2326 N   0  0  0  0  0  0
  -23.4036  -30.4909   21.5497 C   0  0  2  0  0  0
  -24.8518  -28.9569   20.1122 C   0  0  0  0  0  0
  -22.7409  -29.4663   22.4986 C   0  0  0  0  0  0
  -18.0273  -28.1382   22.8496 C   0  0  0  0  0  0
  -24.1482  -36.7314   23.2635 C   0  0  0  0  0  0
  -25.9323  -30.8341   21.3612 C   0  0  0  0  0  0
  -26.0120  -29.4682   20.7086 C   0  0  0  0  0  0
  -27.2091  -28.7141   20.6990 C   0  0  0  0  0  0
  -26.0595  -26.9367   19.4945 C   0  0  0  0  0  0
  -24.8706  -27.6909   19.5000 C   0  0  0  0  0  0
  -23.6120  -29.8219   20.1644 C   0  0  0  0  0  0
  -25.4103  -36.3110   24.0338 C   0  0  1  0  0  0
  -20.5863  -28.3672   23.1319 C   0  0  2  0  0  0
  -20.6761  -26.9407   22.5417 C   0  0  0  0  0  0
  -19.5739  -26.6390   21.5216 C   0  0  0  0  0  0
  -18.1917  -26.7932   22.1626 C   0  0  0  0  0  0
  -19.1523  -28.8844   23.2906 C   0  0  0  0  0  0
  -18.9449  -30.1453   23.8911 C   0  0  0  0  0  0
  -17.6451  -30.6589   24.0569 C   0  0  0  0  0  0
  -25.9034  -34.9476   23.5130 C   0  0  0  0  0  0
  -16.5344  -29.9091   23.6329 C   0  0  0  0  0  0
  -16.7262  -28.6510   23.0349 C   0  0  0  0  0  0
  -26.4475  -31.6592   25.0719 C   0  0  0  0  0  0
  -25.3747  -31.3686   26.1468 C   0  0  0  0  0  0
  -27.0303  -30.3033   24.6085 C   0  0  0  0  0  0
  -27.6047  -32.4310   25.7490 C   0  0  0  0  0  0
  -27.5590  -37.1796   24.8456 C   0  0  0  0  0  0
  -21.4137  -29.3040   22.3724 N   0  0  0  0  0  0
  -26.4285  -37.3801   23.9428 N   0  0  0  0  0  0
  -24.6688  -31.0781   22.0989 N   0  0  0  0  0  0
  -23.4181  -28.8203   23.3030 O   0  0  0  0  0  0
  -28.3568  -26.6430   20.1264 O   0  0  0  0  0  0
  -26.5599  -34.8930   22.4691 O   0  0  0  0  0  0
  -23.5346  -32.1425   23.7485 O   0  0  0  0  0  0
  -29.4423  -17.9985   20.9637 C   0  0  0  0  0  0
  -29.7556  -19.3776   20.7741 C   0  0  0  0  0  0
  -31.0538  -19.6965   20.3116 C   0  0  0  0  0  0
  -30.4030  -16.9892   20.6947 C   0  0  0  0  0  0
  -31.9497  -18.6455   20.0768 C   0  0  0  0  0  0
  -28.7335  -20.4604   21.0735 C   0  0  0  0  0  0
  -28.7416  -24.2079   20.5780 C   0  0  0  0  0  0
  -28.2519  -25.5818   21.0980 C   0  0  0  0  0  0
  -28.4191  -22.9459   21.4406 C   0  0  2  0  0  0
  -28.6698  -23.1438   22.9593 C   0  0  0  0  0  0
  -31.6338  -17.3504   20.2658 N   0  0  0  0  0  0
  -30.0255  -15.6086   20.8723 N   0  0  0  0  0  0
  -29.1336  -21.7403   20.9660 N   0  0  0  0  0  0
  -27.5943  -20.1637   21.4416 O   0  0  0  0  0  0
  -29.3545  -24.1377   19.5046 O   0  0  0  0  0  0
  -31.4605  -20.9749   20.0958 F   0  0  0  0  0  0
  -33.1992  -18.9310   19.6376 F   0  0  0  0  0  0
  -28.4274  -22.0275   23.6477 F   0  0  0  0  0  0
  -27.8841  -24.0970   23.4596 F   0  0  0  0  0  0
  -29.9394  -23.4968   23.1673 F   0  0  0  0  0  0
  -31.4543  -12.3641   19.1446 H   0  0  0  0  0  0
  -30.2796  -11.3098   19.8732 H   0  0  0  0  0  0
  -29.7340  -11.7449   17.4522 H   0  0  0  0  0  0
  -29.6668  -13.4631   17.7612 H   0  0  0  0  0  0
  -27.8246  -11.3025   18.8388 H   0  0  0  0  0  0
  -27.3660  -12.6147   17.7871 H   0  0  0  0  0  0
  -27.6810  -14.2560   19.5364 H   0  0  0  0  0  0
  -28.6728  -12.0437   21.3982 H   0  0  0  0  0  0
  -28.4694  -13.7174   21.8337 H   0  0  0  0  0  0
  -25.2760   -9.5686   22.4765 H   0  0  0  0  0  0
  -24.0003   -7.4637   22.7477 H   0  0  0  0  0  0
  -21.0851   -8.8769   19.8946 H   0  0  0  0  0  0
  -22.3698  -10.9677   19.6164 H   0  0  0  0  0  0
  -21.2003   -7.6150   23.9717 H   0  0  0  0  0  0
  -21.1485   -6.0527   25.9079 H   0  0  0  0  0  0
  -22.0598   -2.7611   23.2845 H   0  0  0  0  0  0
  -22.4107  -11.9874   22.4771 H   0  0  0  0  0  0
  -21.1106  -13.1242   22.2610 H   0  0  0  0  0  0
  -24.6585  -15.8438   20.5167 H   0  0  0  0  0  0
  -26.2708  -15.6289   20.0642 H   0  0  0  0  0  0
  -26.7122  -32.5540   23.1168 H   0  0  0  0  0  0
  -25.0057  -33.9782   25.0477 H   0  0  0  0  0  0
  -22.6928  -31.3078   21.4096 H   0  0  0  0  0  0
  -23.3755  -35.9634   23.3272 H   0  0  0  0  0  0
  -24.3582  -36.8955   22.2054 H   0  0  0  0  0  0
  -23.7216  -37.6504   23.6665 H   0  0  0  0  0  0
  -26.0424  -31.5992   20.5912 H   0  0  0  0  0  0
  -26.8205  -30.8896   21.9786 H   0  0  0  0  0  0
  -28.1043  -29.1014   21.1653 H   0  0  0  0  0  0
  -26.0646  -25.9611   19.0284 H   0  0  0  0  0  0
  -23.9789  -27.2912   19.0368 H   0  0  0  0  0  0
  -23.7167  -30.5957   19.4033 H   0  0  0  0  0  0
  -22.7362  -29.2400   19.8712 H   0  0  0  0  0  0
  -25.1270  -36.1971   25.0830 H   0  0  0  0  0  0
  -20.9962  -28.3237   24.1436 H   0  0  0  0  0  0
  -20.5673  -26.2276   23.3603 H   0  0  0  0  0  0
  -21.6632  -26.7449   22.1207 H   0  0  0  0  0  0
  -19.6898  -25.6304   21.1234 H   0  0  0  0  0  0
  -19.6679  -27.3210   20.6753 H   0  0  0  0  0  0
  -17.4188  -26.6693   21.4024 H   0  0  0  0  0  0
  -18.0311  -26.0071   22.9018 H   0  0  0  0  0  0
  -19.7924  -30.7269   24.2281 H   0  0  0  0  0  0
  -17.5004  -31.6270   24.5170 H   0  0  0  0  0  0
  -15.5344  -30.2996   23.7645 H   0  0  0  0  0  0
  -15.8666  -28.0835   22.7052 H   0  0  0  0  0  0
  -24.5917  -30.7039   25.7801 H   0  0  0  0  0  0
  -24.8951  -32.2838   26.4947 H   0  0  0  0  0  0
  -25.8110  -30.8830   27.0205 H   0  0  0  0  0  0
  -26.2841  -29.6796   24.1149 H   0  0  0  0  0  0
  -27.4088  -29.7266   25.4535 H   0  0  0  0  0  0
  -27.8670  -30.4356   23.9219 H   0  0  0  0  0  0
  -27.2662  -33.3599   26.2091 H   0  0  0  0  0  0
  -28.3849  -32.6883   25.0314 H   0  0  0  0  0  0
  -28.0722  -31.8419   26.5389 H   0  0  0  0  0  0
  -28.2559  -38.0141   24.7579 H   0  0  0  0  0  0
  -28.1135  -36.2678   24.6181 H   0  0  0  0  0  0
  -27.2321  -37.1328   25.8858 H   0  0  0  0  0  0
  -20.9295  -29.8767   21.6951 H   0  0  0  0  0  0
  -26.0172  -38.2867   24.1474 H   0  0  0  0  0  0
  -28.4556  -17.7282   21.3152 H   0  0  0  0  0  0
  -28.8557  -25.8618   21.9614 H   0  0  0  0  0  0
  -27.2259  -25.4678   21.4515 H   0  0  0  0  0  0
  -27.3515  -22.7587   21.3179 H   0  0  0  0  0  0
  -29.0818  -15.4408   21.1801 H   0  0  0  0  0  0
  -30.0800  -21.8746   20.6257 H   0  0  0  0  0  0
  1 25  1  0  0  0
  1 30  2  0  0  0
  1 82  1  0  0  0
  2  3  1  0  0  0
  2 25  1  0  0  0
  2 91  1  0  0  0
  2 92  1  0  0  0
  3  4  1  0  0  0
  3 93  1  0  0  0
  3 94  1  0  0  0
  4  5  1  0  0  0
  4 95  1  0  0  0
  4 96  1  0  0  0
  5  6  1  0  0  0
  5 26  1  0  0  0
  5 97  1  0  0  0
  6 25  1  0  0  0
  6 98  1  0  0  0
  6 99  1  0  0  0
  7  8  2  0  0  0
  7 26  1  0  0  0
  7 29  1  0  0  0
  8  9  1  0  0  0
  8 22  1  0  0  0
  9 10  1  0  0  0
  9 27  2  0  0  0
 10 11  2  0  0  0
 10 15  1  0  0  0
 11 12  1  0  0  0
 11100  1  0  0  0
 12 13  2  0  0  0
 12101  1  0  0  0
 13 14  1  0  0  0
 13 31  1  0  0  0
 14 15  2  0  0  0
 14102  1  0  0  0
 15103  1  0  0  0
 16 17  2  0  0  0
 16 21  1  0  0  0
 16 31  1  0  0  0
 17 18  1  0  0  0
 17104  1  0  0  0
 18 19  2  0  0  0
 18105  1  0  0  0
 19 20  1  0  0  0
 19 24  1  0  0  0
 20 21  2  0  0  0
 20106  1  0  0  0
 21 23  1  0  0  0
 22 28  1  0  0  0
 22 32  2  0  0  0
 26 27  1  0  0  0
 28107  1  0  0  0
 28108  1  0  0  0
 29109  1  0  0  0
 29110  1  0  0  0
 33 34  1  0  0  0
 33 66  1  0  0  0
 33 70  2  0  0  0
 34 36  1  0  0  0
 34 59  1  0  0  0
 34111  1  0  0  0
 35 44  2  0  0  0
 35 45  1  0  0  0
 35 68  1  0  0  0
 36 56  1  0  0  0
 36112  1  0  0  0
 37 39  1  0  0  0
 37 47  1  0  0  0
 37 66  1  0  0  0
 37113  1  0  0  0
 38 43  2  0  0  0
 38 46  1  0  0  0
 38 47  1  0  0  0
 39 64  1  0  0  0
 39 67  2  0  0  0
 40 52  1  0  0  0
 40 53  2  0  0  0
 40 58  1  0  0  0
 41114  1  0  0  0
 41115  1  0  0  0
 41116  1  0  0  0
 41 48  1  0  0  0
 42 43  1  0  0  0
 42 66  1  0  0  0
 42117  1  0  0  0
 42118  1  0  0  0
 43 44  1  0  0  0
 44119  1  0  0  0
 45 46  2  0  0  0
 45120  1  0  0  0
 46121  1  0  0  0
 47122  1  0  0  0
 47123  1  0  0  0
 48 56  1  0  0  0
 48 65  1  0  0  0
 48124  1  0  0  0
 49 50  1  0  0  0
 49 53  1  0  0  0
 49 64  1  0  0  0
 49125  1  0  0  0
 50 51  1  0  0  0
 50126  1  0  0  0
 50127  1  0  0  0
 51 52  1  0  0  0
 51128  1  0  0  0
 51129  1  0  0  0
 52130  1  0  0  0
 52131  1  0  0  0
 53 54  1  0  0  0
 54 55  2  0  0  0
 54132  1  0  0  0
 55 57  1  0  0  0
 55133  1  0  0  0
 56 69  2  0  0  0
 57 58  2  0  0  0
 57134  1  0  0  0
 58135  1  0  0  0
 59 60  1  0  0  0
 59 61  1  0  0  0
 59 62  1  0  0  0
 60136  1  0  0  0
 60137  1  0  0  0
 60138  1  0  0  0
 61139  1  0  0  0
 61140  1  0  0  0
 61141  1  0  0  0
 62142  1  0  0  0
 62143  1  0  0  0
 62144  1  0  0  0
 63 65  1  0  0  0
 63145  1  0  0  0
 63146  1  0  0  0
 63147  1  0  0  0
 64148  1  0  0  0
 65149  1  0  0  0
 68 78  1  0  0  0
 71 72  2  0  0  0
 71 74  1  0  0  0
 71150  1  0  0  0
 72 73  1  0  0  0
 72 76  1  0  0  0
 73 75  2  0  0  0
 73 86  1  0  0  0
 74 81  2  0  0  0
 74 82  1  0  0  0
 75 81  1  0  0  0
 75 87  1  0  0  0
 76 83  1  0  0  0
 76 84  2  0  0  0
 77 78  1  0  0  0
 77 79  1  0  0  0
 77 85  2  0  0  0
 78151  1  0  0  0
 78152  1  0  0  0
 79 80  1  0  0  0
 79 83  1  0  0  0
 79153  1  0  0  0
 80 88  1  0  0  0
 80 89  1  0  0  0
 80 90  1  0  0  0
 82154  1  0  0  0
 83155  1  0  0  0
M  ISO  4   1 100  68 101  78 101  82 100
M  END
> <chiral flag>
0

> <version>
0

> <s_m_source_file>
/data/baiqing/PycharmProjects/Reinvent-master-3.2/result/LINK_invent/BTK/process_docking_weight1_custom_product_contain_oxygen_bond_distance_aromatic_linkinvent_7_9_3/rearranged_h_0172.sdf

> <i_m_source_file_index>
41

> <r_mmod_Potential_Energy-OPLS-2005>
-328.144287109375

> <r_mmod_Stretch_Energy-OPLS-2005>
44.0221061706543

> <r_mmod_Bend_Energy-OPLS-2005>
100.874351501465

> <r_mmod_Torsional_Energy-OPLS-2005>
226.655654907227

> <r_mmod_Improper_Torsional_Energy-OPLS-2005>
4.47930812835693

> <r_mmod_Van_der_Waal_Energy-OPLS-2005>
170.411651611328

> <r_mmod_Electrostatic_Energy-OPLS-2005>
-647.224487304688

> <r_mmod_Solvation_Energy-OPLS-2005>
-247.967926025391

> <b_mmod_Minimization_Converged-OPLS-2005>
0

> <r_mmod_RMS_Derivative-OPLS-2005>
0.647897660732269

$$$$
41
                    3D
 Structure written by MMmdl.
159167  0  0  1  0            999 V2000
  -30.6962  -14.5385   20.5571 C   0  0  0  0  0  0
  -30.4195  -12.3438   19.4382 C   0  0  0  0  0  0
  -29.4962  -12.5092   18.2138 C   0  0  0  0  0  0
  -28.0201  -12.3544   18.6283 C   0  0  0  0  0  0
  -27.6563  -13.2136   19.8681 C   0  0  2  0  0  0
  -28.6988  -13.0473   20.9956 C   0  0  0  0  0  0
  -25.2567  -13.8163   20.5698 C   0  0  0  0  0  0
  -24.1825  -13.0439   20.9184 C   0  0  0  0  0  0
  -24.6390  -11.6913   20.8730 C   0  0  0  0  0  0
  -23.9055  -10.4297   21.0401 C   0  0  0  0  0  0
  -24.3618   -9.4214   21.9174 C   0  0  0  0  0  0
  -23.6309   -8.2239   22.0747 C   0  0  0  0  0  0
  -22.4283   -8.0272   21.3548 C   0  0  0  0  0  0
  -21.9909   -9.0239   20.4650 C   0  0  0  0  0  0
  -22.7225  -10.2124   20.3055 C   0  0  0  0  0  0
  -21.6853   -6.0724   22.5284 C   0  0  0  0  0  0
  -21.3997   -6.5620   23.8218 C   0  0  0  0  0  0
  -21.3648   -5.6772   24.9178 C   0  0  0  0  0  0
  -21.6051   -4.3043   24.7224 C   0  0  0  0  0  0
  -21.8820   -3.8143   23.4345 C   0  0  0  0  0  0
  -21.9197   -4.6954   22.3406 C   0  0  0  0  0  0
  -22.7859  -13.5233   21.1870 C   0  0  0  0  0  0
  -22.1681   -4.2147   21.0978 F   0  0  0  0  0  0
  -21.5621   -3.4521   25.7737 F   0  0  0  0  0  0
  -30.0231  -13.3557   20.4356 N   0  0  0  0  0  0
  -26.3002  -12.9350   20.3343 N   0  0  0  0  0  0
  -25.9320  -11.6505   20.5751 N   0  0  0  0  0  0
  -22.0504  -12.8214   22.0419 N   0  0  0  0  0  0
  -25.4320  -15.1878   20.4131 N   0  0  0  0  0  0
  -31.8396  -14.6735   20.1150 O   0  0  0  0  0  0
  -21.6644   -6.8873   21.4250 O   0  0  0  0  0  0
  -22.3556  -14.5551   20.6735 O   0  0  0  0  0  0
  -24.6179  -31.8653   23.2100 C   0  0  0  0  0  0
  -25.9065  -32.4805   23.8401 C   0  0  1  0  0  0
  -27.2244  -27.3918   20.1105 C   0  0  0  0  0  0
  -25.5915  -33.8603   24.2327 N   0  0  0  0  0  0
  -23.4095  -30.4908   21.5479 C   0  0  2  0  0  0
  -24.8595  -28.9599   20.1069 C   0  0  0  0  0  0
  -22.7442  -29.4649   22.4939 C   0  0  0  0  0  0
  -18.0267  -28.1410   22.8467 C   0  0  0  0  0  0
  -24.1486  -36.7277   23.2657 C   0  0  0  0  0  0
  -25.9452  -30.8181   21.3730 C   0  0  0  0  0  0
  -26.0222  -29.4535   20.7132 C   0  0  0  0  0  0
  -27.2108  -28.6765   20.7133 C   0  0  0  0  0  0
  -26.0486  -26.9398   19.4697 C   0  0  0  0  0  0
  -24.8687  -27.7028   19.4805 C   0  0  0  0  0  0
  -23.6232  -29.8298   20.1603 C   0  0  0  0  0  0
  -25.4104  -36.3086   24.0359 C   0  0  1  0  0  0
  -20.5863  -28.3694   23.1302 C   0  0  2  0  0  0
  -20.6735  -26.9416   22.5459 C   0  0  0  0  0  0
  -19.5756  -26.6409   21.5210 C   0  0  0  0  0  0
  -18.1911  -26.7975   22.1566 C   0  0  0  0  0  0
  -19.1522  -28.8864   23.2875 C   0  0  0  0  0  0
  -18.9449  -30.1450   23.8912 C   0  0  0  0  0  0
  -17.6454  -30.6599   24.0568 C   0  0  0  0  0  0
  -25.9042  -34.9460   23.5137 C   0  0  0  0  0  0
  -16.5339  -29.9101   23.6342 C   0  0  0  0  0  0
  -16.7252  -28.6522   23.0356 C   0  0  0  0  0  0
  -26.4463  -31.6597   25.0754 C   0  0  0  0  0  0
  -25.3722  -31.3799   26.1520 C   0  0  0  0  0  0
  -27.0212  -30.2973   24.6219 C   0  0  0  0  0  0
  -27.6086  -32.4290   25.7457 C   0  0  0  0  0  0
  -27.5588  -37.1783   24.8462 C   0  0  0  0  0  0
  -21.4168  -29.3031   22.3688 N   0  0  0  0  0  0
  -26.4272  -37.3792   23.9439 N   0  0  0  0  0  0
  -24.6758  -31.0731   22.1008 N   0  0  0  0  0  0
  -23.4202  -28.8198   23.3003 O   0  0  0  0  0  0
  -28.3130  -26.5330   20.1863 O   0  0  0  0  0  0
  -26.5593  -34.8919   22.4689 O   0  0  0  0  0  0
  -23.5361  -32.1422   23.7465 O   0  0  0  0  0  0
  -31.0461  -19.7433   21.4595 C   0  0  0  0  0  0
  -29.3695  -18.0144   21.0899 C   0  0  0  0  0  0
  -31.7008  -17.3885   21.3791 C   0  0  0  0  0  0
  -29.6963  -19.3992   21.2351 C   0  0  0  0  0  0
  -32.0502  -18.7552   21.5391 C   0  0  0  0  0  0
  -30.3607  -16.9912   21.1451 C   0  0  0  0  0  0
  -28.0137  -25.2716   20.7033 C   0  0  0  0  0  0
  -28.6088  -20.4643   21.2802 C   0  0  0  0  0  0
  -28.7153  -24.1134   20.5607 C   0  0  0  0  0  0
  -28.1585  -22.8672   21.1369 C   0  0  0  0  0  0
  -34.5036  -18.5645   22.0916 C   0  0  0  0  0  0
  -35.7451  -19.4275   22.2887 C   0  0  0  0  0  0
  -33.3754  -19.2269   21.7810 N   0  0  0  0  0  0
  -29.9792  -15.5966   21.0251 N   0  0  0  0  0  0
  -28.9262  -21.7548   20.9666 N   0  0  0  0  0  0
  -27.4691  -20.0935   21.5844 O   0  0  0  0  0  0
  -27.0739  -22.8481   21.7320 O   0  0  0  0  0  0
  -34.5946  -17.3429   22.2280 O   0  0  0  0  0  0
  -29.8812  -24.0875   19.8984 O   0  0  0  0  0  0
  -31.4651  -12.4334   19.1380 H   0  0  0  0  0  0
  -30.3158  -11.3435   19.8587 H   0  0  0  0  0  0
  -29.7491  -11.7768   17.4453 H   0  0  0  0  0  0
  -29.6520  -13.4908   17.7644 H   0  0  0  0  0  0
  -27.8449  -11.3000   18.8454 H   0  0  0  0  0  0
  -27.3657  -12.6050   17.7922 H   0  0  0  0  0  0
  -27.6868  -14.2527   19.5408 H   0  0  0  0  0  0
  -28.6896  -12.0256   21.3775 H   0  0  0  0  0  0
  -28.4526  -13.6839   21.8463 H   0  0  0  0  0  0
  -25.2764   -9.5698   22.4720 H   0  0  0  0  0  0
  -24.0037   -7.4622   22.7453 H   0  0  0  0  0  0
  -21.0835   -8.8739   19.8966 H   0  0  0  0  0  0
  -22.3665  -10.9645   19.6149 H   0  0  0  0  0  0
  -21.1972   -7.6125   23.9714 H   0  0  0  0  0  0
  -21.1459   -6.0497   25.9078 H   0  0  0  0  0  0
  -22.0599   -2.7611   23.2836 H   0  0  0  0  0  0
  -22.4091  -11.9840   22.4765 H   0  0  0  0  0  0
  -21.1154  -13.1289   22.2679 H   0  0  0  0  0  0
  -24.6699  -15.8500   20.5162 H   0  0  0  0  0  0
  -26.2886  -15.6200   20.0925 H   0  0  0  0  0  0
  -26.7133  -32.5502   23.1154 H   0  0  0  0  0  0
  -25.0112  -33.9764   25.0500 H   0  0  0  0  0  0
  -22.6981  -31.3078   21.4086 H   0  0  0  0  0  0
  -23.3773  -35.9578   23.3283 H   0  0  0  0  0  0
  -24.3598  -36.8915   22.2075 H   0  0  0  0  0  0
  -23.7195  -37.6468   23.6657 H   0  0  0  0  0  0
  -26.0743  -31.5889   20.6113 H   0  0  0  0  0  0
  -26.8257  -30.8612   22.0027 H   0  0  0  0  0  0
  -28.1008  -29.0415   21.2051 H   0  0  0  0  0  0
  -26.0332  -25.9708   18.9904 H   0  0  0  0  0  0
  -23.9754  -27.3194   19.0085 H   0  0  0  0  0  0
  -23.7365  -30.6073   19.4030 H   0  0  0  0  0  0
  -22.7468  -29.2521   19.8603 H   0  0  0  0  0  0
  -25.1269  -36.1956   25.0851 H   0  0  0  0  0  0
  -20.9947  -28.3290   24.1422 H   0  0  0  0  0  0
  -20.5579  -26.2325   23.3672 H   0  0  0  0  0  0
  -21.6616  -26.7430   22.1306 H   0  0  0  0  0  0
  -19.6922  -25.6307   21.1279 H   0  0  0  0  0  0
  -19.6755  -27.3200   20.6722 H   0  0  0  0  0  0
  -17.4236  -26.6772   21.3903 H   0  0  0  0  0  0
  -18.0238  -26.0090   22.8921 H   0  0  0  0  0  0
  -19.7930  -30.7227   24.2322 H   0  0  0  0  0  0
  -17.5034  -31.6280   24.5175 H   0  0  0  0  0  0
  -15.5347  -30.3004   23.7681 H   0  0  0  0  0  0
  -15.8646  -28.0847   22.7078 H   0  0  0  0  0  0
  -24.5989  -30.6964   25.7978 H   0  0  0  0  0  0
  -24.8765  -32.2964   26.4743 H   0  0  0  0  0  0
  -25.8116  -30.9252   27.0413 H   0  0  0  0  0  0
  -26.2725  -29.6806   24.1228 H   0  0  0  0  0  0
  -27.3803  -29.7187   25.4750 H   0  0  0  0  0  0
  -27.8681  -30.4157   23.9452 H   0  0  0  0  0  0
  -27.2758  -33.3620   26.2018 H   0  0  0  0  0  0
  -28.3865  -32.6805   25.0230 H   0  0  0  0  0  0
  -28.0772  -31.8422   26.5374 H   0  0  0  0  0  0
  -28.2642  -38.0050   24.7463 H   0  0  0  0  0  0
  -28.1029  -36.2580   24.6270 H   0  0  0  0  0  0
  -27.2342  -37.1463   25.8885 H   0  0  0  0  0  0
  -20.9364  -29.8710   21.6856 H   0  0  0  0  0  0
  -26.0172  -38.2870   24.1461 H   0  0  0  0  0  0
  -31.3128  -20.7795   21.6123 H   0  0  0  0  0  0
  -28.3338  -17.7368   20.9469 H   0  0  0  0  0  0
  -32.4622  -16.6305   21.4537 H   0  0  0  0  0  0
  -27.0869  -25.2862   21.2654 H   0  0  0  0  0  0
  -35.4872  -20.4801   22.4159 H   0  0  0  0  0  0
  -36.4060  -19.3401   21.4256 H   0  0  0  0  0  0
  -36.2926  -19.1091   23.1764 H   0  0  0  0  0  0
  -33.4904  -20.2307   21.7441 H   0  0  0  0  0  0
  -29.0174  -15.3815   21.2377 H   0  0  0  0  0  0
  -29.8347  -21.9302   20.5690 H   0  0  0  0  0  0
  -30.0549  -24.9786   19.6231 H   0  0  0  0  0  0
  1 25  1  0  0  0
  1 30  2  0  0  0
  1 84  1  0  0  0
  2  3  1  0  0  0
  2 25  1  0  0  0
  2 90  1  0  0  0
  2 91  1  0  0  0
  3  4  1  0  0  0
  3 92  1  0  0  0
  3 93  1  0  0  0
  4  5  1  0  0  0
  4 94  1  0  0  0
  4 95  1  0  0  0
  5  6  1  0  0  0
  5 26  1  0  0  0
  5 96  1  0  0  0
  6 25  1  0  0  0
  6 97  1  0  0  0
  6 98  1  0  0  0
  7  8  2  0  0  0
  7 26  1  0  0  0
  7 29  1  0  0  0
  8  9  1  0  0  0
  8 22  1  0  0  0
  9 10  1  0  0  0
  9 27  2  0  0  0
 10 11  2  0  0  0
 10 15  1  0  0  0
 11 12  1  0  0  0
 11 99  1  0  0  0
 12 13  2  0  0  0
 12100  1  0  0  0
 13 14  1  0  0  0
 13 31  1  0  0  0
 14 15  2  0  0  0
 14101  1  0  0  0
 15102  1  0  0  0
 16 17  2  0  0  0
 16 21  1  0  0  0
 16 31  1  0  0  0
 17 18  1  0  0  0
 17103  1  0  0  0
 18 19  2  0  0  0
 18104  1  0  0  0
 19 20  1  0  0  0
 19 24  1  0  0  0
 20 21  2  0  0  0
 20105  1  0  0  0
 21 23  1  0  0  0
 22 28  1  0  0  0
 22 32  2  0  0  0
 26 27  1  0  0  0
 28106  1  0  0  0
 28107  1  0  0  0
 29108  1  0  0  0
 29109  1  0  0  0
 33 34  1  0  0  0
 33 66  1  0  0  0
 33 70  2  0  0  0
 34 36  1  0  0  0
 34 59  1  0  0  0
 34110  1  0  0  0
 35 44  2  0  0  0
 35 45  1  0  0  0
 35 68  1  0  0  0
 36 56  1  0  0  0
 36111  1  0  0  0
 37 39  1  0  0  0
 37 47  1  0  0  0
 37 66  1  0  0  0
 37112  1  0  0  0
 38 43  2  0  0  0
 38 46  1  0  0  0
 38 47  1  0  0  0
 39 64  1  0  0  0
 39 67  2  0  0  0
 40 52  1  0  0  0
 40 53  2  0  0  0
 40 58  1  0  0  0
 41113  1  0  0  0
 41114  1  0  0  0
 41115  1  0  0  0
 41 48  1  0  0  0
 42 43  1  0  0  0
 42 66  1  0  0  0
 42116  1  0  0  0
 42117  1  0  0  0
 43 44  1  0  0  0
 44118  1  0  0  0
 45 46  2  0  0  0
 45119  1  0  0  0
 46120  1  0  0  0
 47121  1  0  0  0
 47122  1  0  0  0
 48 56  1  0  0  0
 48 65  1  0  0  0
 48123  1  0  0  0
 49 50  1  0  0  0
 49 53  1  0  0  0
 49 64  1  0  0  0
 49124  1  0  0  0
 50 51  1  0  0  0
 50125  1  0  0  0
 50126  1  0  0  0
 51 52  1  0  0  0
 51127  1  0  0  0
 51128  1  0  0  0
 52129  1  0  0  0
 52130  1  0  0  0
 53 54  1  0  0  0
 54 55  2  0  0  0
 54131  1  0  0  0
 55 57  1  0  0  0
 55132  1  0  0  0
 56 69  2  0  0  0
 57 58  2  0  0  0
 57133  1  0  0  0
 58134  1  0  0  0
 59 60  1  0  0  0
 59 61  1  0  0  0
 59 62  1  0  0  0
 60135  1  0  0  0
 60136  1  0  0  0
 60137  1  0  0  0
 61138  1  0  0  0
 61139  1  0  0  0
 61140  1  0  0  0
 62141  1  0  0  0
 62142  1  0  0  0
 62143  1  0  0  0
 63 65  1  0  0  0
 63144  1  0  0  0
 63145  1  0  0  0
 63146  1  0  0  0
 64147  1  0  0  0
 65148  1  0  0  0
 68 77  1  0  0  0
 71 74  2  0  0  0
 71 75  1  0  0  0
 71149  1  0  0  0
 72 74  1  0  0  0
 72 76  2  0  0  0
 72150  1  0  0  0
 73 75  2  0  0  0
 73 76  1  0  0  0
 73151  1  0  0  0
 74 78  1  0  0  0
 75 83  1  0  0  0
 76 84  1  0  0  0
 77 79  2  0  0  0
 77152  1  0  0  0
 78 85  1  0  0  0
 78 86  2  0  0  0
 79 80  1  0  0  0
 79 89  1  0  0  0
 80 85  1  0  0  0
 80 87  2  0  0  0
 81 82  1  0  0  0
 81 83  1  0  0  0
 81 88  2  0  0  0
 82153  1  0  0  0
 82154  1  0  0  0
 82155  1  0  0  0
 83156  1  0  0  0
 84157  1  0  0  0
 85158  1  0  0  0
 89159  1  0  0  0
M  ISO  4   1 100  68 101  77 101  84 100
M  END
> <chiral flag>
0

> <version>
0

> <s_m_source_file>
/data/baiqing/PycharmProjects/Reinvent-master-3.2/result/LINK_invent/BTK/process_docking_weight1_custom_product_contain_oxygen_bond_distance_aromatic_linkinvent_7_9_3/rearranged_h_0172.sdf

> <i_m_source_file_index>
42

> <r_mmod_Potential_Energy-OPLS-2005>
-265.285308837891

> <r_mmod_Stretch_Energy-OPLS-2005>
54.1512107849121

> <r_mmod_Bend_Energy-OPLS-2005>
119.684761047363

> <r_mmod_Torsional_Energy-OPLS-2005>
226.086471557617

> <r_mmod_Improper_Torsional_Energy-OPLS-2005>
4.47201299667358

> <r_mmod_Van_der_Waal_Energy-OPLS-2005>
175.245956420898

> <r_mmod_Electrostatic_Energy-OPLS-2005>
-579.793334960938

> <r_mmod_Solvation_Energy-OPLS-2005>
-293.008941650391

> <b_mmod_Minimization_Converged-OPLS-2005>
0

> <r_mmod_RMS_Derivative-OPLS-2005>
2.46556878089905

$$$$
42
                    3D
 Structure written by MMmdl.
149157  0  0  1  0            999 V2000
  -30.5827  -14.8012   20.4621 C   0  0  0  0  0  0
  -30.4399  -12.4914   19.4860 C   0  0  0  0  0  0
  -29.5157  -12.5160   18.2471 C   0  0  0  0  0  0
  -28.0444  -12.3231   18.6619 C   0  0  0  0  0  0
  -27.6408  -13.2322   19.8519 C   0  0  2  0  0  0
  -28.6832  -13.1833   20.9907 C   0  0  0  0  0  0
  -25.2507  -13.8199   20.5695 C   0  0  0  0  0  0
  -24.1800  -13.0444   20.9214 C   0  0  0  0  0  0
  -24.6392  -11.6920   20.8757 C   0  0  0  0  0  0
  -23.9073  -10.4291   21.0407 C   0  0  0  0  0  0
  -24.3618   -9.4205   21.9187 C   0  0  0  0  0  0
  -23.6285   -8.2245   22.0758 C   0  0  0  0  0  0
  -22.4271   -8.0280   21.3545 C   0  0  0  0  0  0
  -21.9907   -9.0257   20.4652 C   0  0  0  0  0  0
  -22.7246  -10.2133   20.3057 C   0  0  0  0  0  0
  -21.6854   -6.0734   22.5273 C   0  0  0  0  0  0
  -21.4017   -6.5641   23.8209 C   0  0  0  0  0  0
  -21.3659   -5.6794   24.9173 C   0  0  0  0  0  0
  -21.6040   -4.3055   24.7221 C   0  0  0  0  0  0
  -21.8825   -3.8147   23.4342 C   0  0  0  0  0  0
  -21.9193   -4.6963   22.3398 C   0  0  0  0  0  0
  -22.7823  -13.5226   21.1866 C   0  0  0  0  0  0
  -22.1664   -4.2147   21.0977 F   0  0  0  0  0  0
  -21.5624   -3.4539   25.7737 F   0  0  0  0  0  0
  -29.9818  -13.5565   20.4127 N   0  0  0  0  0  0
  -26.2932  -12.9401   20.3297 N   0  0  0  0  0  0
  -25.9323  -11.6544   20.5770 N   0  0  0  0  0  0
  -22.0475  -12.8210   22.0420 N   0  0  0  0  0  0
  -25.4214  -15.1925   20.4101 N   0  0  0  0  0  0
  -31.7694  -14.8983   20.1303 O   0  0  0  0  0  0
  -21.6643   -6.8872   21.4233 O   0  0  0  0  0  0
  -22.3506  -14.5531   20.6713 O   0  0  0  0  0  0
  -24.6326  -31.8520   23.1955 C   0  0  0  0  0  0
  -25.9141  -32.4738   23.8306 C   0  0  1  0  0  0
  -27.2227  -27.2300   20.1493 C   0  0  0  0  0  0
  -25.5930  -33.8542   24.2223 N   0  0  0  0  0  0
  -23.4327  -30.4745   21.5371 C   0  0  2  0  0  0
  -24.8835  -28.9151   20.1106 C   0  0  0  0  0  0
  -22.7522  -29.4602   22.4882 C   0  0  0  0  0  0
  -18.0305  -28.1403   22.8478 C   0  0  0  0  0  0
  -24.1495  -36.7266   23.2641 C   0  0  0  0  0  0
  -25.9813  -30.7562   21.3825 C   0  0  0  0  0  0
  -26.0539  -29.3748   20.7280 C   0  0  0  0  0  0
  -27.2255  -28.5443   20.7378 C   0  0  0  0  0  0
  -26.0329  -26.8500   19.4903 C   0  0  0  0  0  0
  -24.8800  -27.6610   19.4795 C   0  0  0  0  0  0
  -23.6551  -29.8061   20.1541 C   0  0  0  0  0  0
  -25.4129  -36.3058   24.0315 C   0  0  1  0  0  0
  -20.5912  -28.3710   23.1261 C   0  0  2  0  0  0
  -20.6806  -26.9423   22.5409 C   0  0  0  0  0  0
  -19.5778  -26.6384   21.5221 C   0  0  0  0  0  0
  -18.1947  -26.7946   22.1612 C   0  0  0  0  0  0
  -19.1561  -28.8874   23.2864 C   0  0  0  0  0  0
  -18.9475  -30.1468   23.8887 C   0  0  0  0  0  0
  -17.6476  -30.6596   24.0566 C   0  0  0  0  0  0
  -25.9060  -34.9435   23.5069 C   0  0  0  0  0  0
  -16.5365  -29.9095   23.6343 C   0  0  0  0  0  0
  -16.7287  -28.6519   23.0350 C   0  0  0  0  0  0
  -26.4509  -31.6591   25.0705 C   0  0  0  0  0  0
  -25.3717  -31.3760   26.1411 C   0  0  0  0  0  0
  -27.0371  -30.3007   24.6223 C   0  0  0  0  0  0
  -27.6053  -32.4347   25.7489 C   0  0  0  0  0  0
  -27.5573  -37.1801   24.8472 C   0  0  0  0  0  0
  -21.4228  -29.3042   22.3635 N   0  0  0  0  0  0
  -26.4299  -37.3761   23.9393 N   0  0  0  0  0  0
  -24.7012  -31.0475   22.0937 N   0  0  0  0  0  0
  -23.4210  -28.8154   23.3006 O   0  0  0  0  0  0
  -28.3042  -26.3075   20.1833 O   0  0  0  0  0  0
  -26.5636  -34.8921   22.4641 O   0  0  0  0  0  0
  -23.5464  -32.1336   23.7238 O   0  0  0  0  0  0
  -31.0461  -19.4190   20.1106 C   0  0  0  0  0  0
  -29.8340  -20.0470   20.3811 C   0  0  0  0  0  0
  -29.9554  -17.3965   20.5689 C   0  0  0  0  0  0
  -28.0743  -24.9007   20.3965 C   0  0  0  0  0  0
  -28.9629  -23.8347   20.2506 C   0  0  0  0  0  0
  -28.6279  -22.3656   20.5050 C   0  0  0  0  0  0
  -32.2997  -20.1355   19.7075 C   0  0  0  0  0  0
  -31.1018  -17.9961   20.2144 N   0  0  0  0  0  0
  -29.6504  -21.4532   20.2966 N   0  0  0  0  0  0
  -29.7778  -15.9151   20.7168 N   0  0  0  0  0  0
  -27.5178  -21.9809   20.8795 O   0  0  0  0  0  0
  -30.2140  -24.1176   19.8586 O   0  0  0  0  0  0
  -28.7025  -18.7073   20.8078 S   0  0  0  0  0  0
  -31.4783  -12.6295   19.1799 H   0  0  0  0  0  0
  -30.4030  -11.5193   19.9799 H   0  0  0  0  0  0
  -29.8108  -11.7382   17.5423 H   0  0  0  0  0  0
  -29.6284  -13.4668   17.7237 H   0  0  0  0  0  0
  -27.9170  -11.2762   18.9412 H   0  0  0  0  0  0
  -27.3830  -12.4965   17.8121 H   0  0  0  0  0  0
  -27.6305  -14.2496   19.4600 H   0  0  0  0  0  0
  -28.7327  -12.1878   21.4348 H   0  0  0  0  0  0
  -28.4034  -13.8623   21.7979 H   0  0  0  0  0  0
  -25.2760   -9.5688   22.4763 H   0  0  0  0  0  0
  -23.9999   -7.4639   22.7476 H   0  0  0  0  0  0
  -21.0843   -8.8776   19.8952 H   0  0  0  0  0  0
  -22.3702  -10.9673   19.6164 H   0  0  0  0  0  0
  -21.2013   -7.6151   23.9711 H   0  0  0  0  0  0
  -21.1475   -6.0527   25.9078 H   0  0  0  0  0  0
  -22.0600   -2.7607   23.2847 H   0  0  0  0  0  0
  -22.4083  -11.9854   22.4783 H   0  0  0  0  0  0
  -21.1098  -13.1234   22.2651 H   0  0  0  0  0  0
  -24.6482  -15.8425   20.5031 H   0  0  0  0  0  0
  -26.2563  -15.6269   20.0388 H   0  0  0  0  0  0
  -26.7195  -32.5381   23.1036 H   0  0  0  0  0  0
  -25.0099  -33.9687   25.0386 H   0  0  0  0  0  0
  -22.7292  -31.2969   21.3867 H   0  0  0  0  0  0
  -23.3746  -35.9610   23.3342 H   0  0  0  0  0  0
  -24.3570  -36.8847   22.2045 H   0  0  0  0  0  0
  -23.7274  -37.6487   23.6649 H   0  0  0  0  0  0
  -26.1263  -31.5156   20.6131 H   0  0  0  0  0  0
  -26.8580  -30.8052   22.0174 H   0  0  0  0  0  0
  -28.1200  -28.8906   21.2344 H   0  0  0  0  0  0
  -25.9764  -25.8901   18.9968 H   0  0  0  0  0  0
  -23.9852  -27.3027   18.9878 H   0  0  0  0  0  0
  -23.7840  -30.5807   19.3963 H   0  0  0  0  0  0
  -22.7729  -29.2411   19.8492 H   0  0  0  0  0  0
  -25.1335  -36.1890   25.0809 H   0  0  0  0  0  0
  -21.0007  -28.3283   24.1383 H   0  0  0  0  0  0
  -20.5726  -26.2316   23.3612 H   0  0  0  0  0  0
  -21.6670  -26.7457   22.1186 H   0  0  0  0  0  0
  -19.6938  -25.6299   21.1241 H   0  0  0  0  0  0
  -19.6718  -27.3212   20.6767 H   0  0  0  0  0  0
  -17.4227  -26.6689   21.3998 H   0  0  0  0  0  0
  -18.0321  -26.0115   22.9032 H   0  0  0  0  0  0
  -19.7956  -30.7289   24.2242 H   0  0  0  0  0  0
  -17.5035  -31.6285   24.5161 H   0  0  0  0  0  0
  -15.5370  -30.2989   23.7703 H   0  0  0  0  0  0
  -15.8683  -28.0847   22.7060 H   0  0  0  0  0  0
  -24.5894  -30.7117   25.7721 H   0  0  0  0  0  0
  -24.8905  -32.2947   26.4785 H   0  0  0  0  0  0
  -25.8003  -30.8952   27.0212 H   0  0  0  0  0  0
  -26.2973  -29.6732   24.1234 H   0  0  0  0  0  0
  -27.4048  -29.7292   25.4752 H   0  0  0  0  0  0
  -27.8857  -30.4279   23.9493 H   0  0  0  0  0  0
  -27.2656  -33.3663   26.2036 H   0  0  0  0  0  0
  -28.3895  -32.6879   25.0337 H   0  0  0  0  0  0
  -28.0703  -31.8489   26.5430 H   0  0  0  0  0  0
  -28.2626  -38.0059   24.7471 H   0  0  0  0  0  0
  -28.1032  -36.2588   24.6383 H   0  0  0  0  0  0
  -27.2274  -37.1563   25.8871 H   0  0  0  0  0  0
  -20.9413  -29.8740   21.6818 H   0  0  0  0  0  0
  -26.0161  -38.2832   24.1372 H   0  0  0  0  0  0
  -27.0596  -24.7104   20.7205 H   0  0  0  0  0  0
  -32.5690  -20.9013   20.4348 H   0  0  0  0  0  0
  -32.1761  -20.6257   18.7419 H   0  0  0  0  0  0
  -33.1493  -19.4589   19.6219 H   0  0  0  0  0  0
  -30.4818  -21.9554   20.0104 H   0  0  0  0  0  0
  -28.8453  -15.6549   20.9945 H   0  0  0  0  0  0
  -30.2601  -25.0596   19.7518 H   0  0  0  0  0  0
  1 25  1  0  0  0
  1 30  2  0  0  0
  1 80  1  0  0  0
  2  3  1  0  0  0
  2 25  1  0  0  0
  2 84  1  0  0  0
  2 85  1  0  0  0
  3  4  1  0  0  0
  3 86  1  0  0  0
  3 87  1  0  0  0
  4  5  1  0  0  0
  4 88  1  0  0  0
  4 89  1  0  0  0
  5  6  1  0  0  0
  5 26  1  0  0  0
  5 90  1  0  0  0
  6 25  1  0  0  0
  6 91  1  0  0  0
  6 92  1  0  0  0
  7  8  2  0  0  0
  7 26  1  0  0  0
  7 29  1  0  0  0
  8  9  1  0  0  0
  8 22  1  0  0  0
  9 10  1  0  0  0
  9 27  2  0  0  0
 10 11  2  0  0  0
 10 15  1  0  0  0
 11 12  1  0  0  0
 11 93  1  0  0  0
 12 13  2  0  0  0
 12 94  1  0  0  0
 13 14  1  0  0  0
 13 31  1  0  0  0
 14 15  2  0  0  0
 14 95  1  0  0  0
 15 96  1  0  0  0
 16 17  2  0  0  0
 16 21  1  0  0  0
 16 31  1  0  0  0
 17 18  1  0  0  0
 17 97  1  0  0  0
 18 19  2  0  0  0
 18 98  1  0  0  0
 19 20  1  0  0  0
 19 24  1  0  0  0
 20 21  2  0  0  0
 20 99  1  0  0  0
 21 23  1  0  0  0
 22 28  1  0  0  0
 22 32  2  0  0  0
 26 27  1  0  0  0
 28100  1  0  0  0
 28101  1  0  0  0
 29102  1  0  0  0
 29103  1  0  0  0
 33 34  1  0  0  0
 33 66  1  0  0  0
 33 70  2  0  0  0
 34 36  1  0  0  0
 34 59  1  0  0  0
 34104  1  0  0  0
 35 44  2  0  0  0
 35 45  1  0  0  0
 35 68  1  0  0  0
 36 56  1  0  0  0
 36105  1  0  0  0
 37 39  1  0  0  0
 37 47  1  0  0  0
 37 66  1  0  0  0
 37106  1  0  0  0
 38 43  2  0  0  0
 38 46  1  0  0  0
 38 47  1  0  0  0
 39 64  1  0  0  0
 39 67  2  0  0  0
 40 52  1  0  0  0
 40 53  2  0  0  0
 40 58  1  0  0  0
 41107  1  0  0  0
 41108  1  0  0  0
 41109  1  0  0  0
 41 48  1  0  0  0
 42 43  1  0  0  0
 42 66  1  0  0  0
 42110  1  0  0  0
 42111  1  0  0  0
 43 44  1  0  0  0
 44112  1  0  0  0
 45 46  2  0  0  0
 45113  1  0  0  0
 46114  1  0  0  0
 47115  1  0  0  0
 47116  1  0  0  0
 48 56  1  0  0  0
 48 65  1  0  0  0
 48117  1  0  0  0
 49 50  1  0  0  0
 49 53  1  0  0  0
 49 64  1  0  0  0
 49118  1  0  0  0
 50 51  1  0  0  0
 50119  1  0  0  0
 50120  1  0  0  0
 51 52  1  0  0  0
 51121  1  0  0  0
 51122  1  0  0  0
 52123  1  0  0  0
 52124  1  0  0  0
 53 54  1  0  0  0
 54 55  2  0  0  0
 54125  1  0  0  0
 55 57  1  0  0  0
 55126  1  0  0  0
 56 69  2  0  0  0
 57 58  2  0  0  0
 57127  1  0  0  0
 58128  1  0  0  0
 59 60  1  0  0  0
 59 61  1  0  0  0
 59 62  1  0  0  0
 60129  1  0  0  0
 60130  1  0  0  0
 60131  1  0  0  0
 61132  1  0  0  0
 61133  1  0  0  0
 61134  1  0  0  0
 62135  1  0  0  0
 62136  1  0  0  0
 62137  1  0  0  0
 63 65  1  0  0  0
 63138  1  0  0  0
 63139  1  0  0  0
 63140  1  0  0  0
 64141  1  0  0  0
 65142  1  0  0  0
 68 74  1  0  0  0
 71 72  2  0  0  0
 71 77  1  0  0  0
 71 78  1  0  0  0
 72 79  1  0  0  0
 72 83  1  0  0  0
 73 78  2  0  0  0
 73 80  1  0  0  0
 73 83  1  0  0  0
 74 75  2  0  0  0
 74143  1  0  0  0
 75 76  1  0  0  0
 75 82  1  0  0  0
 76 79  1  0  0  0
 76 81  2  0  0  0
 77144  1  0  0  0
 77145  1  0  0  0
 77146  1  0  0  0
 79147  1  0  0  0
 80148  1  0  0  0
 82149  1  0  0  0
M  ISO  4   1 100  68 101  74 101  80 100
M  END
> <chiral flag>
0

> <version>
0

> <s_m_source_file>
/data/baiqing/PycharmProjects/Reinvent-master-3.2/result/LINK_invent/BTK/process_docking_weight1_custom_product_contain_oxygen_bond_distance_aromatic_linkinvent_7_9_3/rearranged_h_0172.sdf

> <i_m_source_file_index>
43

> <r_mmod_Potential_Energy-OPLS-2005>
41.3210067749023

> <r_mmod_Stretch_Energy-OPLS-2005>
128.392349243164

> <r_mmod_Bend_Energy-OPLS-2005>
189.75553894043

> <r_mmod_Torsional_Energy-OPLS-2005>
188.455352783203

> <r_mmod_Improper_Torsional_Energy-OPLS-2005>
3.97958898544312

> <r_mmod_Van_der_Waal_Energy-OPLS-2005>
117.740432739258

> <r_mmod_Electrostatic_Energy-OPLS-2005>
-451.517883300781

> <r_mmod_Solvation_Energy-OPLS-2005>
-243.454620361328

> <b_mmod_Minimization_Converged-OPLS-2005>
0

> <r_mmod_RMS_Derivative-OPLS-2005>
1.94476997852325

$$$$
43
                    3D
 Structure written by MMmdl.
155163  0  0  1  0            999 V2000
  -30.6120  -14.7873   20.4537 C   0  0  0  0  0  0
  -30.4370  -12.4851   19.4757 C   0  0  0  0  0  0
  -29.5170  -12.5226   18.2357 C   0  0  0  0  0  0
  -28.0425  -12.3397   18.6463 C   0  0  0  0  0  0
  -27.6401  -13.2421   19.8441 C   0  0  2  0  0  0
  -28.6880  -13.1981   20.9792 C   0  0  0  0  0  0
  -25.2492  -13.8195   20.5688 C   0  0  0  0  0  0
  -24.1798  -13.0430   20.9214 C   0  0  0  0  0  0
  -24.6418  -11.6921   20.8753 C   0  0  0  0  0  0
  -23.9093  -10.4295   21.0411 C   0  0  0  0  0  0
  -24.3638   -9.4205   21.9178 C   0  0  0  0  0  0
  -23.6309   -8.2251   22.0745 C   0  0  0  0  0  0
  -22.4292   -8.0288   21.3549 C   0  0  0  0  0  0
  -21.9940   -9.0260   20.4648 C   0  0  0  0  0  0
  -22.7275  -10.2134   20.3055 C   0  0  0  0  0  0
  -21.6854   -6.0743   22.5272 C   0  0  0  0  0  0
  -21.4026   -6.5636   23.8209 C   0  0  0  0  0  0
  -21.3678   -5.6788   24.9169 C   0  0  0  0  0  0
  -21.6042   -4.3049   24.7215 C   0  0  0  0  0  0
  -21.8819   -3.8147   23.4331 C   0  0  0  0  0  0
  -21.9188   -4.6974   22.3392 C   0  0  0  0  0  0
  -22.7812  -13.5198   21.1845 C   0  0  0  0  0  0
  -22.1649   -4.2158   21.0980 F   0  0  0  0  0  0
  -21.5635   -3.4528   25.7729 F   0  0  0  0  0  0
  -29.9838  -13.5598   20.3913 N   0  0  0  0  0  0
  -26.2946  -12.9441   20.3254 N   0  0  0  0  0  0
  -25.9347  -11.6571   20.5722 N   0  0  0  0  0  0
  -22.0448  -12.8219   22.0424 N   0  0  0  0  0  0
  -25.4114  -15.1937   20.4100 N   0  0  0  0  0  0
  -31.8108  -14.8590   20.1686 O   0  0  0  0  0  0
  -21.6651   -6.8891   21.4245 O   0  0  0  0  0  0
  -22.3503  -14.5487   20.6660 O   0  0  0  0  0  0
  -24.6300  -31.8544   23.1942 C   0  0  0  0  0  0
  -25.9114  -32.4745   23.8305 C   0  0  1  0  0  0
  -27.2294  -27.2643   20.1416 C   0  0  0  0  0  0
  -25.5881  -33.8554   24.2229 N   0  0  0  0  0  0
  -23.4274  -30.4738   21.5375 C   0  0  2  0  0  0
  -24.8762  -28.9081   20.1203 C   0  0  0  0  0  0
  -22.7494  -29.4589   22.4905 C   0  0  0  0  0  0
  -18.0288  -28.1389   22.8492 C   0  0  0  0  0  0
  -24.1479  -36.7327   23.2634 C   0  0  0  0  0  0
  -25.9691  -30.7720   21.3684 C   0  0  0  0  0  0
  -26.0470  -29.3884   20.7221 C   0  0  0  0  0  0
  -27.2292  -28.5819   20.7143 C   0  0  0  0  0  0
  -26.0355  -26.8392   19.5270 C   0  0  0  0  0  0
  -24.8741  -27.6418   19.5135 C   0  0  0  0  0  0
  -23.6474  -29.7973   20.1577 C   0  0  0  0  0  0
  -25.4103  -36.3087   24.0319 C   0  0  1  0  0  0
  -20.5889  -28.3700   23.1277 C   0  0  2  0  0  0
  -20.6776  -26.9416   22.5418 C   0  0  0  0  0  0
  -19.5743  -26.6386   21.5228 C   0  0  0  0  0  0
  -18.1928  -26.7925   22.1643 C   0  0  0  0  0  0
  -19.1537  -28.8865   23.2881 C   0  0  0  0  0  0
  -18.9461  -30.1470   23.8895 C   0  0  0  0  0  0
  -17.6453  -30.6589   24.0582 C   0  0  0  0  0  0
  -25.9042  -34.9442   23.5106 C   0  0  0  0  0  0
  -16.5352  -29.9096   23.6327 C   0  0  0  0  0  0
  -16.7271  -28.6521   23.0339 C   0  0  0  0  0  0
  -26.4470  -31.6560   25.0702 C   0  0  0  0  0  0
  -25.3666  -31.3769   26.1411 C   0  0  0  0  0  0
  -27.0275  -30.2943   24.6196 C   0  0  0  0  0  0
  -27.6005  -32.4301   25.7513 C   0  0  0  0  0  0
  -27.5587  -37.1812   24.8449 C   0  0  0  0  0  0
  -21.4192  -29.3040   22.3655 N   0  0  0  0  0  0
  -26.4279  -37.3787   23.9410 N   0  0  0  0  0  0
  -24.6951  -31.0508   22.0913 N   0  0  0  0  0  0
  -23.4190  -28.8128   23.3002 O   0  0  0  0  0  0
  -28.3580  -26.4190   20.0807 O   0  0  0  0  0  0
  -26.5656  -34.8921   22.4696 O   0  0  0  0  0  0
  -23.5455  -32.1359   23.7243 O   0  0  0  0  0  0
  -29.2654  -18.5096   20.4144 C   0  0  0  0  0  0
  -31.4982  -17.7950   21.0272 C   0  0  0  0  0  0
  -29.6193  -19.9291   20.5092 C   0  0  0  0  0  0
  -30.1889  -17.4000   20.6561 C   0  0  0  0  0  0
  -31.8632  -19.1533   21.1567 C   0  0  0  0  0  0
  -30.9508  -20.1996   20.9012 C   0  0  0  0  0  0
  -28.6994  -21.1294   20.1731 C   0  0  0  0  0  0
  -28.1507  -23.7203   20.1252 C   0  0  0  0  0  0
  -27.7708  -25.2282   22.1969 C   0  0  0  0  0  0
  -28.4870  -25.1209   20.8404 C   0  0  2  0  0  0
  -29.8327  -15.9419   20.5855 N   0  0  0  0  0  0
  -28.9221  -22.4772   20.4922 N   0  0  0  0  0  0
  -27.5811  -20.8446   19.4944 N   0  3  0  0  0  0
  -27.2232  -23.6443   19.3127 O   0  0  0  0  0  0
  -33.1277  -19.4614   21.5432 F   0  0  0  0  0  0
  -31.3664  -21.4847   21.0468 F   0  0  0  0  0  0
  -31.4805  -12.6044   19.1763 H   0  0  0  0  0  0
  -30.3755  -11.5136   19.9697 H   0  0  0  0  0  0
  -29.8107  -11.7521   17.5225 H   0  0  0  0  0  0
  -29.6393  -13.4780   17.7199 H   0  0  0  0  0  0
  -27.9003  -11.2895   18.9085 H   0  0  0  0  0  0
  -27.3890  -12.5295   17.7923 H   0  0  0  0  0  0
  -27.6244  -14.2618   19.4578 H   0  0  0  0  0  0
  -28.7340  -12.2049   21.4291 H   0  0  0  0  0  0
  -28.4208  -13.8882   21.7805 H   0  0  0  0  0  0
  -25.2783   -9.5676   22.4747 H   0  0  0  0  0  0
  -24.0009   -7.4650   22.7468 H   0  0  0  0  0  0
  -21.0859   -8.8795   19.8965 H   0  0  0  0  0  0
  -22.3733  -10.9671   19.6163 H   0  0  0  0  0  0
  -21.2024   -7.6143   23.9720 H   0  0  0  0  0  0
  -21.1502   -6.0512   25.9078 H   0  0  0  0  0  0
  -22.0582   -2.7604   23.2823 H   0  0  0  0  0  0
  -22.4057  -11.9926   22.4903 H   0  0  0  0  0  0
  -21.1043  -13.1237   22.2549 H   0  0  0  0  0  0
  -24.6326  -15.8341   20.5272 H   0  0  0  0  0  0
  -26.2375  -15.6439   20.0401 H   0  0  0  0  0  0
  -26.7196  -32.5406   23.1068 H   0  0  0  0  0  0
  -24.9899  -33.9680   25.0289 H   0  0  0  0  0  0
  -22.7220  -31.2935   21.3857 H   0  0  0  0  0  0
  -23.3725  -35.9675   23.3267 H   0  0  0  0  0  0
  -24.3574  -36.8991   22.2056 H   0  0  0  0  0  0
  -23.7235  -37.6522   23.6679 H   0  0  0  0  0  0
  -26.0935  -31.5229   20.5872 H   0  0  0  0  0  0
  -26.8523  -30.8351   21.9924 H   0  0  0  0  0  0
  -28.1354  -28.9588   21.1687 H   0  0  0  0  0  0
  -25.9975  -25.8715   19.0486 H   0  0  0  0  0  0
  -23.9796  -27.2665   19.0386 H   0  0  0  0  0  0
  -23.7744  -30.5660   19.3941 H   0  0  0  0  0  0
  -22.7652  -29.2293   19.8588 H   0  0  0  0  0  0
  -25.1284  -36.1946   25.0810 H   0  0  0  0  0  0
  -21.0010  -28.3280   24.1381 H   0  0  0  0  0  0
  -20.5699  -26.2308   23.3626 H   0  0  0  0  0  0
  -21.6639  -26.7433   22.1196 H   0  0  0  0  0  0
  -19.6913  -25.6302   21.1246 H   0  0  0  0  0  0
  -19.6679  -27.3206   20.6766 H   0  0  0  0  0  0
  -17.4208  -26.6677   21.4038 H   0  0  0  0  0  0
  -18.0311  -26.0067   22.9036 H   0  0  0  0  0  0
  -19.7934  -30.7300   24.2234 H   0  0  0  0  0  0
  -17.5009  -31.6251   24.5205 H   0  0  0  0  0  0
  -15.5358  -30.3016   23.7628 H   0  0  0  0  0  0
  -15.8664  -28.0865   22.7016 H   0  0  0  0  0  0
  -24.5814  -30.7149   25.7750 H   0  0  0  0  0  0
  -24.8883  -32.2963   26.4791 H   0  0  0  0  0  0
  -25.7940  -30.8970   27.0216 H   0  0  0  0  0  0
  -26.2847  -29.6728   24.1173 H   0  0  0  0  0  0
  -27.3853  -29.7188   25.4744 H   0  0  0  0  0  0
  -27.8777  -30.4170   23.9483 H   0  0  0  0  0  0
  -27.2566  -33.3582   26.2098 H   0  0  0  0  0  0
  -28.3824  -32.6889   25.0364 H   0  0  0  0  0  0
  -28.0639  -31.8411   26.5438 H   0  0  0  0  0  0
  -28.2575  -38.0140   24.7517 H   0  0  0  0  0  0
  -28.1109  -36.2667   24.6230 H   0  0  0  0  0  0
  -27.2314  -37.1416   25.8854 H   0  0  0  0  0  0
  -20.9378  -29.8776   21.6874 H   0  0  0  0  0  0
  -26.0169  -38.2865   24.1412 H   0  0  0  0  0  0
  -28.2518  -18.2647   20.1338 H   0  0  0  0  0  0
  -32.2554  -17.0598   21.2466 H   0  0  0  0  0  0
  -28.1098  -26.1080   22.7447 H   0  0  0  0  0  0
  -27.9752  -24.3564   22.8191 H   0  0  0  0  0  0
  -26.6903  -25.3039   22.0731 H   0  0  0  0  0  0
  -29.5540  -25.0523   21.0530 H   0  0  0  0  0  0
  -28.8460  -15.7428   20.6298 H   0  0  0  0  0  0
  -29.7514  -22.5555   21.0678 H   0  0  0  0  0  0
  -27.3438  -19.9015   19.2294 H   0  0  0  0  0  0
  -26.9772  -21.6092   19.2136 H   0  0  0  0  0  0
  1 25  1  0  0  0
  1 30  2  0  0  0
  1 81  1  0  0  0
  2  3  1  0  0  0
  2 25  1  0  0  0
  2 87  1  0  0  0
  2 88  1  0  0  0
  3  4  1  0  0  0
  3 89  1  0  0  0
  3 90  1  0  0  0
  4  5  1  0  0  0
  4 91  1  0  0  0
  4 92  1  0  0  0
  5  6  1  0  0  0
  5 26  1  0  0  0
  5 93  1  0  0  0
  6 25  1  0  0  0
  6 94  1  0  0  0
  6 95  1  0  0  0
  7  8  2  0  0  0
  7 26  1  0  0  0
  7 29  1  0  0  0
  8  9  1  0  0  0
  8 22  1  0  0  0
  9 10  1  0  0  0
  9 27  2  0  0  0
 10 11  2  0  0  0
 10 15  1  0  0  0
 11 12  1  0  0  0
 11 96  1  0  0  0
 12 13  2  0  0  0
 12 97  1  0  0  0
 13 14  1  0  0  0
 13 31  1  0  0  0
 14 15  2  0  0  0
 14 98  1  0  0  0
 15 99  1  0  0  0
 16 17  2  0  0  0
 16 21  1  0  0  0
 16 31  1  0  0  0
 17 18  1  0  0  0
 17100  1  0  0  0
 18 19  2  0  0  0
 18101  1  0  0  0
 19 20  1  0  0  0
 19 24  1  0  0  0
 20 21  2  0  0  0
 20102  1  0  0  0
 21 23  1  0  0  0
 22 28  1  0  0  0
 22 32  2  0  0  0
 26 27  1  0  0  0
 28103  1  0  0  0
 28104  1  0  0  0
 29105  1  0  0  0
 29106  1  0  0  0
 33 34  1  0  0  0
 33 66  1  0  0  0
 33 70  2  0  0  0
 34 36  1  0  0  0
 34 59  1  0  0  0
 34107  1  0  0  0
 35 44  2  0  0  0
 35 45  1  0  0  0
 35 68  1  0  0  0
 36 56  1  0  0  0
 36108  1  0  0  0
 37 39  1  0  0  0
 37 47  1  0  0  0
 37 66  1  0  0  0
 37109  1  0  0  0
 38 43  2  0  0  0
 38 46  1  0  0  0
 38 47  1  0  0  0
 39 64  1  0  0  0
 39 67  2  0  0  0
 40 52  1  0  0  0
 40 53  2  0  0  0
 40 58  1  0  0  0
 41110  1  0  0  0
 41111  1  0  0  0
 41112  1  0  0  0
 41 48  1  0  0  0
 42 43  1  0  0  0
 42 66  1  0  0  0
 42113  1  0  0  0
 42114  1  0  0  0
 43 44  1  0  0  0
 44115  1  0  0  0
 45 46  2  0  0  0
 45116  1  0  0  0
 46117  1  0  0  0
 47118  1  0  0  0
 47119  1  0  0  0
 48 56  1  0  0  0
 48 65  1  0  0  0
 48120  1  0  0  0
 49 50  1  0  0  0
 49 53  1  0  0  0
 49 64  1  0  0  0
 49121  1  0  0  0
 50 51  1  0  0  0
 50122  1  0  0  0
 50123  1  0  0  0
 51 52  1  0  0  0
 51124  1  0  0  0
 51125  1  0  0  0
 52126  1  0  0  0
 52127  1  0  0  0
 53 54  1  0  0  0
 54 55  2  0  0  0
 54128  1  0  0  0
 55 57  1  0  0  0
 55129  1  0  0  0
 56 69  2  0  0  0
 57 58  2  0  0  0
 57130  1  0  0  0
 58131  1  0  0  0
 59 60  1  0  0  0
 59 61  1  0  0  0
 59 62  1  0  0  0
 60132  1  0  0  0
 60133  1  0  0  0
 60134  1  0  0  0
 61135  1  0  0  0
 61136  1  0  0  0
 61137  1  0  0  0
 62138  1  0  0  0
 62139  1  0  0  0
 62140  1  0  0  0
 63 65  1  0  0  0
 63141  1  0  0  0
 63142  1  0  0  0
 63143  1  0  0  0
 64144  1  0  0  0
 65145  1  0  0  0
 68 80  1  0  0  0
 71 73  2  0  0  0
 71 74  1  0  0  0
 71146  1  0  0  0
 72 74  2  0  0  0
 72 75  1  0  0  0
 72147  1  0  0  0
 73 76  1  0  0  0
 73 77  1  0  0  0
 74 81  1  0  0  0
 75 76  2  0  0  0
 75 85  1  0  0  0
 76 86  1  0  0  0
 77 82  1  0  0  0
 77 83  2  0  0  0
 78 80  1  0  0  0
 78 82  1  0  0  0
 78 84  2  0  0  0
 79148  1  0  0  0
 79149  1  0  0  0
 79150  1  0  0  0
 79 80  1  0  0  0
 80151  1  0  0  0
 81152  1  0  0  0
 82153  1  0  0  0
 83154  1  0  0  0
 83155  1  0  0  0
M  CHG  1  83   1
M  ISO  4   1 100  68 101  80 101  81 100
M  END
> <chiral flag>
0

> <version>
0

> <s_m_source_file>
/data/baiqing/PycharmProjects/Reinvent-master-3.2/result/LINK_invent/BTK/process_docking_weight1_custom_product_contain_oxygen_bond_distance_aromatic_linkinvent_7_9_3/rearranged_h_0172.sdf

> <i_m_source_file_index>
44

> <r_mmod_Potential_Energy-OPLS-2005>
-117.438690185547

> <r_mmod_Stretch_Energy-OPLS-2005>
139.481658935547

> <r_mmod_Bend_Energy-OPLS-2005>
183.219818115234

> <r_mmod_Torsional_Energy-OPLS-2005>
239.81950378418

> <r_mmod_Improper_Torsional_Energy-OPLS-2005>
6.36460161209106

> <r_mmod_Van_der_Waal_Energy-OPLS-2005>
144.562072753906

> <r_mmod_Electrostatic_Energy-OPLS-2005>
-455.467956542969

> <r_mmod_Solvation_Energy-OPLS-2005>
-465.085998535156

> <b_mmod_Minimization_Converged-OPLS-2005>
0

> <r_mmod_RMS_Derivative-OPLS-2005>
3.19528722763062

$$$$
44
                    3D
 Structure written by MMmdl.
158166  0  0  1  0            999 V2000
  -30.6238  -14.6029   20.5235 C   0  0  0  0  0  0
  -30.4489  -12.3749   19.4370 C   0  0  0  0  0  0
  -29.5092  -12.5047   18.2163 C   0  0  0  0  0  0
  -28.0317  -12.3449   18.6320 C   0  0  0  0  0  0
  -27.6590  -13.2051   19.8684 C   0  0  2  0  0  0
  -28.7078  -13.0293   20.9911 C   0  0  0  0  0  0
  -25.2595  -13.8144   20.5670 C   0  0  0  0  0  0
  -24.1844  -13.0432   20.9190 C   0  0  0  0  0  0
  -24.6395  -11.6897   20.8758 C   0  0  0  0  0  0
  -23.9056  -10.4290   21.0429 C   0  0  0  0  0  0
  -24.3609   -9.4205   21.9203 C   0  0  0  0  0  0
  -23.6278   -8.2245   22.0763 C   0  0  0  0  0  0
  -22.4262   -8.0291   21.3553 C   0  0  0  0  0  0
  -21.9895   -9.0269   20.4660 C   0  0  0  0  0  0
  -22.7229  -10.2145   20.3077 C   0  0  0  0  0  0
  -21.6847   -6.0740   22.5281 C   0  0  0  0  0  0
  -21.4015   -6.5641   23.8217 C   0  0  0  0  0  0
  -21.3661   -5.6792   24.9176 C   0  0  0  0  0  0
  -21.6047   -4.3055   24.7224 C   0  0  0  0  0  0
  -21.8815   -3.8148   23.4343 C   0  0  0  0  0  0
  -21.9185   -4.6968   22.3403 C   0  0  0  0  0  0
  -22.7866  -13.5249   21.1838 C   0  0  0  0  0  0
  -22.1654   -4.2157   21.0977 F   0  0  0  0  0  0
  -21.5625   -3.4537   25.7735 F   0  0  0  0  0  0
  -30.0246  -13.3772   20.4288 N   0  0  0  0  0  0
  -26.3022  -12.9298   20.3344 N   0  0  0  0  0  0
  -25.9328  -11.6472   20.5786 N   0  0  0  0  0  0
  -22.0481  -12.8282   22.0404 N   0  0  0  0  0  0
  -25.4304  -15.1863   20.4036 N   0  0  0  0  0  0
  -31.7822  -14.8025   20.1434 O   0  0  0  0  0  0
  -21.6629   -6.8889   21.4246 O   0  0  0  0  0  0
  -22.3570  -14.5555   20.6667 O   0  0  0  0  0  0
  -24.6254  -31.8617   23.2058 C   0  0  0  0  0  0
  -25.9108  -32.4791   23.8375 C   0  0  1  0  0  0
  -27.2238  -27.3378   20.0995 C   0  0  0  0  0  0
  -25.5936  -33.8590   24.2306 N   0  0  0  0  0  0
  -23.4183  -30.4882   21.5483 C   0  0  2  0  0  0
  -24.8632  -28.9517   20.1115 C   0  0  0  0  0  0
  -22.7468  -29.4632   22.4934 C   0  0  0  0  0  0
  -18.0291  -28.1382   22.8482 C   0  0  0  0  0  0
  -24.1490  -36.7297   23.2638 C   0  0  0  0  0  0
  -25.9606  -30.7965   21.3774 C   0  0  0  0  0  0
  -26.0339  -29.4274   20.7156 C   0  0  0  0  0  0
  -27.2176  -28.6319   20.7026 C   0  0  0  0  0  0
  -26.0246  -26.9162   19.4728 C   0  0  0  0  0  0
  -24.8597  -27.7004   19.4831 C   0  0  0  0  0  0
  -23.6319  -29.8301   20.1615 C   0  0  0  0  0  0
  -25.4111  -36.3088   24.0332 C   0  0  1  0  0  0
  -20.5887  -28.3687   23.1279 C   0  0  2  0  0  0
  -20.6781  -26.9411   22.5403 C   0  0  0  0  0  0
  -19.5756  -26.6382   21.5208 C   0  0  0  0  0  0
  -18.1937  -26.7929   22.1618 C   0  0  0  0  0  0
  -19.1543  -28.8849   23.2880 C   0  0  0  0  0  0
  -18.9462  -30.1449   23.8905 C   0  0  0  0  0  0
  -17.6461  -30.6580   24.0564 C   0  0  0  0  0  0
  -25.9047  -34.9455   23.5115 C   0  0  0  0  0  0
  -16.5352  -29.9078   23.6327 C   0  0  0  0  0  0
  -16.7278  -28.6496   23.0347 C   0  0  0  0  0  0
  -26.4501  -31.6589   25.0736 C   0  0  0  0  0  0
  -25.3746  -31.3717   26.1474 C   0  0  0  0  0  0
  -27.0336  -30.3014   24.6177 C   0  0  0  0  0  0
  -27.6072  -32.4315   25.7490 C   0  0  0  0  0  0
  -27.5579  -37.1803   24.8461 C   0  0  0  0  0  0
  -21.4182  -29.3041   22.3675 N   0  0  0  0  0  0
  -26.4292  -37.3776   23.9405 N   0  0  0  0  0  0
  -24.6868  -31.0640   22.1009 N   0  0  0  0  0  0
  -23.4195  -28.8159   23.3001 O   0  0  0  0  0  0
  -28.3413  -26.4892   20.1381 O   0  0  0  0  0  0
  -26.5600  -34.8915   22.4674 O   0  0  0  0  0  0
  -23.5421  -32.1409   23.7389 O   0  0  0  0  0  0
  -30.2370  -18.0570   20.2683 C   0  0  0  0  0  0
  -29.6819  -17.3686   22.5290 C   0  0  0  0  0  0
  -30.2619  -19.4506   20.6520 C   0  0  0  0  0  0
  -29.9674  -17.0025   21.1998 C   0  0  0  0  0  0
  -29.7219  -18.7161   22.9334 C   0  0  0  0  0  0
  -30.0252  -19.7418   22.0164 C   0  0  0  0  0  0
  -30.6911  -20.5431   19.6862 C   0  0  0  0  0  0
  -27.6019  -22.1428   19.3559 C   0  0  0  0  0  0
  -29.2234  -24.0219   20.1449 C   0  0  0  0  0  0
  -26.5301  -21.3877   20.1288 C   0  0  0  0  0  0
  -28.0573  -25.0558   19.9302 C   0  0  0  0  0  0
  -28.9109  -22.4508   20.1003 C   0  0  2  0  0  0
  -29.7701  -15.6095   20.8588 N   0  0  0  0  0  0
  -29.9838  -21.6867   19.4061 N   0  0  0  0  0  0
  -27.4023  -22.4384   18.1738 O   0  0  0  0  0  0
  -30.3677  -24.4468   20.3452 O   0  0  0  0  0  0
  -29.4758  -19.0280   24.2278 F   0  0  0  0  0  0
  -30.1370  -21.0085   22.4832 F   0  0  0  0  0  0
  -32.0704  -20.3096   18.7828 S   0  0  0  0  0  0
  -31.4884  -12.5130   19.1336 H   0  0  0  0  0  0
  -30.3925  -11.3739   19.8668 H   0  0  0  0  0  0
  -29.7645  -11.7628   17.4587 H   0  0  0  0  0  0
  -29.6550  -13.4785   17.7455 H   0  0  0  0  0  0
  -27.8646  -11.2911   18.8563 H   0  0  0  0  0  0
  -27.3751  -12.5836   17.7950 H   0  0  0  0  0  0
  -27.6848  -14.2433   19.5394 H   0  0  0  0  0  0
  -28.7176  -11.9984   21.3475 H   0  0  0  0  0  0
  -28.4596  -13.6370   21.8636 H   0  0  0  0  0  0
  -25.2757   -9.5668   22.4778 H   0  0  0  0  0  0
  -23.9986   -7.4626   22.7477 H   0  0  0  0  0  0
  -21.0825   -8.8797   19.8967 H   0  0  0  0  0  0
  -22.3694  -10.9693   19.6188 H   0  0  0  0  0  0
  -21.2019   -7.6150   23.9723 H   0  0  0  0  0  0
  -21.1483   -6.0522   25.9079 H   0  0  0  0  0  0
  -22.0590   -2.7610   23.2840 H   0  0  0  0  0  0
  -22.4052  -11.9952   22.4844 H   0  0  0  0  0  0
  -21.1113  -13.1365   22.2589 H   0  0  0  0  0  0
  -24.6547  -15.8343   20.4932 H   0  0  0  0  0  0
  -26.2684  -15.6224   20.0409 H   0  0  0  0  0  0
  -26.7179  -32.5463   23.1125 H   0  0  0  0  0  0
  -25.0103  -33.9745   25.0467 H   0  0  0  0  0  0
  -22.7116  -31.3087   21.4086 H   0  0  0  0  0  0
  -23.3750  -35.9633   23.3304 H   0  0  0  0  0  0
  -24.3586  -36.8911   22.2051 H   0  0  0  0  0  0
  -23.7247  -37.6505   23.6656 H   0  0  0  0  0  0
  -26.0949  -31.5623   20.6120 H   0  0  0  0  0  0
  -26.8404  -30.8406   22.0076 H   0  0  0  0  0  0
  -28.1155  -28.9922   21.1850 H   0  0  0  0  0  0
  -25.9431  -25.9677   18.9649 H   0  0  0  0  0  0
  -23.9641  -27.3319   19.0014 H   0  0  0  0  0  0
  -23.7515  -30.6107   19.4091 H   0  0  0  0  0  0
  -22.7525  -29.2605   19.8566 H   0  0  0  0  0  0
  -25.1290  -36.1947   25.0825 H   0  0  0  0  0  0
  -20.9985  -28.3262   24.1396 H   0  0  0  0  0  0
  -20.5683  -26.2292   23.3596 H   0  0  0  0  0  0
  -21.6650  -26.7437   22.1198 H   0  0  0  0  0  0
  -19.6918  -25.6296   21.1235 H   0  0  0  0  0  0
  -19.6699  -27.3189   20.6738 H   0  0  0  0  0  0
  -17.4203  -26.6671   21.4025 H   0  0  0  0  0  0
  -18.0342  -26.0073   22.9014 H   0  0  0  0  0  0
  -19.7935  -30.7266   24.2276 H   0  0  0  0  0  0
  -17.5013  -31.6262   24.5158 H   0  0  0  0  0  0
  -15.5356  -30.2976   23.7649 H   0  0  0  0  0  0
  -15.8680  -28.0816   22.7059 H   0  0  0  0  0  0
  -24.5903  -30.7095   25.7797 H   0  0  0  0  0  0
  -24.8971  -32.2884   26.4943 H   0  0  0  0  0  0
  -25.8084  -30.8852   27.0220 H   0  0  0  0  0  0
  -26.2900  -29.6765   24.1223 H   0  0  0  0  0  0
  -27.4058  -29.7272   25.4671 H   0  0  0  0  0  0
  -27.8763  -30.4302   23.9382 H   0  0  0  0  0  0
  -27.2697  -33.3603   26.2097 H   0  0  0  0  0  0
  -28.3858  -32.6893   25.0299 H   0  0  0  0  0  0
  -28.0773  -31.8427   26.5377 H   0  0  0  0  0  0
  -28.2599  -38.0096   24.7503 H   0  0  0  0  0  0
  -28.1073  -36.2631   24.6291 H   0  0  0  0  0  0
  -27.2304  -37.1457   25.8866 H   0  0  0  0  0  0
  -20.9350  -29.8772   21.6902 H   0  0  0  0  0  0
  -26.0178  -38.2852   24.1407 H   0  0  0  0  0  0
  -30.4245  -17.7956   19.2368 H   0  0  0  0  0  0
  -29.4273  -16.6136   23.2591 H   0  0  0  0  0  0
  -26.4186  -21.7995   21.1315 H   0  0  0  0  0  0
  -26.7988  -20.3347   20.2119 H   0  0  0  0  0  0
  -25.5709  -21.4616   19.6176 H   0  0  0  0  0  0
  -27.2301  -24.7590   20.5763 H   0  0  0  0  0  0
  -27.7337  -24.9285   18.8978 H   0  0  0  0  0  0
  -28.8045  -22.1044   21.1237 H   0  0  0  0  0  0
  -28.8664  -15.2457   21.1200 H   0  0  0  0  0  0
  -30.3780  -22.2163   18.6418 H   0  0  0  0  0  0
  1 25  1  0  0  0
  1 30  2  0  0  0
  1 83  1  0  0  0
  2  3  1  0  0  0
  2 25  1  0  0  0
  2 90  1  0  0  0
  2 91  1  0  0  0
  3  4  1  0  0  0
  3 92  1  0  0  0
  3 93  1  0  0  0
  4  5  1  0  0  0
  4 94  1  0  0  0
  4 95  1  0  0  0
  5  6  1  0  0  0
  5 26  1  0  0  0
  5 96  1  0  0  0
  6 25  1  0  0  0
  6 97  1  0  0  0
  6 98  1  0  0  0
  7  8  2  0  0  0
  7 26  1  0  0  0
  7 29  1  0  0  0
  8  9  1  0  0  0
  8 22  1  0  0  0
  9 10  1  0  0  0
  9 27  2  0  0  0
 10 11  2  0  0  0
 10 15  1  0  0  0
 11 12  1  0  0  0
 11 99  1  0  0  0
 12 13  2  0  0  0
 12100  1  0  0  0
 13 14  1  0  0  0
 13 31  1  0  0  0
 14 15  2  0  0  0
 14101  1  0  0  0
 15102  1  0  0  0
 16 17  2  0  0  0
 16 21  1  0  0  0
 16 31  1  0  0  0
 17 18  1  0  0  0
 17103  1  0  0  0
 18 19  2  0  0  0
 18104  1  0  0  0
 19 20  1  0  0  0
 19 24  1  0  0  0
 20 21  2  0  0  0
 20105  1  0  0  0
 21 23  1  0  0  0
 22 28  1  0  0  0
 22 32  2  0  0  0
 26 27  1  0  0  0
 28106  1  0  0  0
 28107  1  0  0  0
 29108  1  0  0  0
 29109  1  0  0  0
 33 34  1  0  0  0
 33 66  1  0  0  0
 33 70  2  0  0  0
 34 36  1  0  0  0
 34 59  1  0  0  0
 34110  1  0  0  0
 35 44  2  0  0  0
 35 45  1  0  0  0
 35 68  1  0  0  0
 36 56  1  0  0  0
 36111  1  0  0  0
 37 39  1  0  0  0
 37 47  1  0  0  0
 37 66  1  0  0  0
 37112  1  0  0  0
 38 43  2  0  0  0
 38 46  1  0  0  0
 38 47  1  0  0  0
 39 64  1  0  0  0
 39 67  2  0  0  0
 40 52  1  0  0  0
 40 53  2  0  0  0
 40 58  1  0  0  0
 41113  1  0  0  0
 41114  1  0  0  0
 41115  1  0  0  0
 41 48  1  0  0  0
 42 43  1  0  0  0
 42 66  1  0  0  0
 42116  1  0  0  0
 42117  1  0  0  0
 43 44  1  0  0  0
 44118  1  0  0  0
 45 46  2  0  0  0
 45119  1  0  0  0
 46120  1  0  0  0
 47121  1  0  0  0
 47122  1  0  0  0
 48 56  1  0  0  0
 48 65  1  0  0  0
 48123  1  0  0  0
 49 50  1  0  0  0
 49 53  1  0  0  0
 49 64  1  0  0  0
 49124  1  0  0  0
 50 51  1  0  0  0
 50125  1  0  0  0
 50126  1  0  0  0
 51 52  1  0  0  0
 51127  1  0  0  0
 51128  1  0  0  0
 52129  1  0  0  0
 52130  1  0  0  0
 53 54  1  0  0  0
 54 55  2  0  0  0
 54131  1  0  0  0
 55 57  1  0  0  0
 55132  1  0  0  0
 56 69  2  0  0  0
 57 58  2  0  0  0
 57133  1  0  0  0
 58134  1  0  0  0
 59 60  1  0  0  0
 59 61  1  0  0  0
 59 62  1  0  0  0
 60135  1  0  0  0
 60136  1  0  0  0
 60137  1  0  0  0
 61138  1  0  0  0
 61139  1  0  0  0
 61140  1  0  0  0
 62141  1  0  0  0
 62142  1  0  0  0
 62143  1  0  0  0
 63 65  1  0  0  0
 63144  1  0  0  0
 63145  1  0  0  0
 63146  1  0  0  0
 64147  1  0  0  0
 65148  1  0  0  0
 68 81  1  0  0  0
 71 73  2  0  0  0
 71 74  1  0  0  0
 71149  1  0  0  0
 72 74  2  0  0  0
 72 75  1  0  0  0
 72150  1  0  0  0
 73 76  1  0  0  0
 73 77  1  0  0  0
 74 83  1  0  0  0
 75 76  2  0  0  0
 75 87  1  0  0  0
 76 88  1  0  0  0
 77 84  1  0  0  0
 77 89  2  0  0  0
 78 80  1  0  0  0
 78 82  1  0  0  0
 78 85  2  0  0  0
 79 81  1  0  0  0
 79 82  1  0  0  0
 79 86  2  0  0  0
 80151  1  0  0  0
 80152  1  0  0  0
 80153  1  0  0  0
 81154  1  0  0  0
 81155  1  0  0  0
 82 84  1  0  0  0
 82156  1  0  0  0
 83157  1  0  0  0
 84158  1  0  0  0
M  ISO  4   1 100  68 101  81 101  83 100
M  END
> <chiral flag>
0

> <version>
0

> <s_m_source_file>
/data/baiqing/PycharmProjects/Reinvent-master-3.2/result/LINK_invent/BTK/process_docking_weight1_custom_product_contain_oxygen_bond_distance_aromatic_linkinvent_7_9_3/rearranged_h_0172.sdf

> <i_m_source_file_index>
45

> <r_mmod_Potential_Energy-OPLS-2005>
-39.4968643188477

> <r_mmod_Stretch_Energy-OPLS-2005>
72.6600112915039

> <r_mmod_Bend_Energy-OPLS-2005>
161.35725402832

> <r_mmod_Torsional_Energy-OPLS-2005>
248.443771362305

> <r_mmod_Improper_Torsional_Energy-OPLS-2005>
8.49437141418457

> <r_mmod_Van_der_Waal_Energy-OPLS-2005>
146.635375976562

> <r_mmod_Electrostatic_Energy-OPLS-2005>
-453.338195800781

> <r_mmod_Solvation_Energy-OPLS-2005>
-264.149841308594

> <b_mmod_Minimization_Converged-OPLS-2005>
0

> <r_mmod_RMS_Derivative-OPLS-2005>
1.4967041015625

$$$$
45
                    3D
 Structure written by MMmdl.
161169  0  0  1  0            999 V2000
  -30.7049  -14.4833   20.5496 C   0  0  0  0  0  0
  -30.4261  -12.3022   19.4214 C   0  0  0  0  0  0
  -29.4975  -12.4969   18.2042 C   0  0  0  0  0  0
  -28.0199  -12.3535   18.6201 C   0  0  0  0  0  0
  -27.6646  -13.2026   19.8705 C   0  0  2  0  0  0
  -28.7093  -12.9956   20.9922 C   0  0  0  0  0  0
  -25.2625  -13.8156   20.5661 C   0  0  0  0  0  0
  -24.1855  -13.0449   20.9164 C   0  0  0  0  0  0
  -24.6381  -11.6897   20.8702 C   0  0  0  0  0  0
  -23.9031  -10.4289   21.0397 C   0  0  0  0  0  0
  -24.3584   -9.4215   21.9186 C   0  0  0  0  0  0
  -23.6261   -8.2253   22.0768 C   0  0  0  0  0  0
  -22.4259   -8.0275   21.3541 C   0  0  0  0  0  0
  -21.9866   -9.0258   20.4661 C   0  0  0  0  0  0
  -22.7187  -10.2143   20.3065 C   0  0  0  0  0  0
  -21.6866   -6.0713   22.5268 C   0  0  0  0  0  0
  -21.4018   -6.5626   23.8197 C   0  0  0  0  0  0
  -21.3660   -5.6788   24.9160 C   0  0  0  0  0  0
  -21.6043   -4.3042   24.7217 C   0  0  0  0  0  0
  -21.8821   -3.8128   23.4346 C   0  0  0  0  0  0
  -21.9189   -4.6941   22.3392 C   0  0  0  0  0  0
  -22.7884  -13.5276   21.1814 C   0  0  0  0  0  0
  -22.1665   -4.2123   21.0971 F   0  0  0  0  0  0
  -21.5626   -3.4526   25.7733 F   0  0  0  0  0  0
  -30.0423  -13.2970   20.4360 N   0  0  0  0  0  0
  -26.3045  -12.9309   20.3334 N   0  0  0  0  0  0
  -25.9315  -11.6472   20.5741 N   0  0  0  0  0  0
  -22.0493  -12.8316   22.0376 N   0  0  0  0  0  0
  -25.4366  -15.1868   20.4081 N   0  0  0  0  0  0
  -31.8362  -14.6533   20.0888 O   0  0  0  0  0  0
  -21.6646   -6.8860   21.4232 O   0  0  0  0  0  0
  -22.3581  -14.5582   20.6631 O   0  0  0  0  0  0
  -24.6175  -31.8677   23.2119 C   0  0  0  0  0  0
  -25.9053  -32.4830   23.8422 C   0  0  1  0  0  0
  -27.2296  -27.4098   20.0857 C   0  0  0  0  0  0
  -25.5903  -33.8627   24.2352 N   0  0  0  0  0  0
  -23.4067  -30.4931   21.5549 C   0  0  2  0  0  0
  -24.8499  -28.9631   20.1152 C   0  0  0  0  0  0
  -22.7430  -29.4641   22.4994 C   0  0  0  0  0  0
  -18.0275  -28.1387   22.8484 C   0  0  0  0  0  0
  -24.1477  -36.7313   23.2634 C   0  0  0  0  0  0
  -25.9403  -30.8244   21.3694 C   0  0  0  0  0  0
  -26.0154  -29.4580   20.7144 C   0  0  0  0  0  0
  -27.2064  -28.6890   20.6993 C   0  0  0  0  0  0
  -26.0377  -26.9464   19.4736 C   0  0  0  0  0  0
  -24.8578  -27.7078   19.4921 C   0  0  0  0  0  0
  -23.6156  -29.8342   20.1672 C   0  0  0  0  0  0
  -25.4098  -36.3115   24.0343 C   0  0  1  0  0  0
  -20.5861  -28.3661   23.1314 C   0  0  2  0  0  0
  -20.6757  -26.9395   22.5410 C   0  0  0  0  0  0
  -19.5736  -26.6386   21.5206 C   0  0  0  0  0  0
  -18.1916  -26.7932   22.1618 C   0  0  0  0  0  0
  -19.1521  -28.8847   23.2893 C   0  0  0  0  0  0
  -18.9450  -30.1451   23.8906 C   0  0  0  0  0  0
  -17.6449  -30.6588   24.0564 C   0  0  0  0  0  0
  -25.9036  -34.9479   23.5150 C   0  0  0  0  0  0
  -16.5343  -29.9089   23.6324 C   0  0  0  0  0  0
  -16.7260  -28.6509   23.0343 C   0  0  0  0  0  0
  -26.4493  -31.6609   25.0742 C   0  0  0  0  0  0
  -25.3776  -31.3709   26.1509 C   0  0  0  0  0  0
  -27.0311  -30.3053   24.6106 C   0  0  0  0  0  0
  -27.6097  -32.4313   25.7477 C   0  0  0  0  0  0
  -27.5585  -37.1792   24.8461 C   0  0  0  0  0  0
  -21.4152  -29.3033   22.3739 N   0  0  0  0  0  0
  -26.4283  -37.3799   23.9434 N   0  0  0  0  0  0
  -24.6742  -31.0751   22.1043 N   0  0  0  0  0  0
  -23.4197  -28.8171   23.3031 O   0  0  0  0  0  0
  -28.3886  -26.6436   20.1027 O   0  0  0  0  0  0
  -26.5587  -34.8927   22.4708 O   0  0  0  0  0  0
  -23.5352  -32.1444   23.7489 O   0  0  0  0  0  0
  -31.4799  -18.9818   20.8177 C   0  0  0  0  0  0
  -31.3691  -17.5734   20.7233 C   0  0  0  0  0  0
  -29.0784  -17.7112   21.5024 C   0  0  0  0  0  0
  -30.3994  -19.7742   21.2827 C   0  0  0  0  0  0
  -30.1677  -16.9107   21.0884 C   0  0  0  0  0  0
  -29.1871  -19.1179   21.5947 C   0  0  0  0  0  0
  -29.4263  -24.3465   20.0940 C   0  0  0  0  0  0
  -31.8540  -21.5763   22.3425 C   0  0  0  0  0  0
  -28.6558  -22.3465   18.6838 C   0  0  0  0  0  0
  -28.2270  -25.2519   19.7378 C   0  0  0  0  0  0
  -30.5584  -21.2856   21.5644 C   0  0  1  0  0  0
  -29.1869  -22.8078   20.0551 C   0  0  1  0  0  0
  -29.9746  -15.4860   21.0844 N   0  0  0  0  0  0
  -30.4879  -22.1589   20.3619 N   0  3  0  0  0  0
  -30.5237  -24.8325   20.3944 O   0  0  0  0  0  0
  -28.1201  -19.8358   22.0185 F   0  0  0  0  0  0
  -31.4729  -12.3866   19.1199 H   0  0  0  0  0  0
  -30.3163  -11.2933   19.8244 H   0  0  0  0  0  0
  -29.7326  -11.7699   17.4266 H   0  0  0  0  0  0
  -29.6668  -13.4801   17.7603 H   0  0  0  0  0  0
  -27.8416  -11.2984   18.8314 H   0  0  0  0  0  0
  -27.3681  -12.6102   17.7843 H   0  0  0  0  0  0
  -27.7043  -14.2475   19.5606 H   0  0  0  0  0  0
  -28.6866  -11.9641   21.3460 H   0  0  0  0  0  0
  -28.4716  -13.6056   21.8659 H   0  0  0  0  0  0
  -25.2737   -9.5701   22.4752 H   0  0  0  0  0  0
  -23.9968   -7.4663   22.7510 H   0  0  0  0  0  0
  -21.0777   -8.8764   19.8995 H   0  0  0  0  0  0
  -22.3619  -10.9676   19.6175 H   0  0  0  0  0  0
  -21.2020   -7.6139   23.9683 H   0  0  0  0  0  0
  -21.1490   -6.0525   25.9059 H   0  0  0  0  0  0
  -22.0599   -2.7583   23.2856 H   0  0  0  0  0  0
  -22.4076  -11.9986   22.4804 H   0  0  0  0  0  0
  -21.1130  -13.1420   22.2570 H   0  0  0  0  0  0
  -24.6692  -15.8436   20.5055 H   0  0  0  0  0  0
  -26.2831  -15.6154   20.0561 H   0  0  0  0  0  0
  -26.7123  -32.5540   23.1182 H   0  0  0  0  0  0
  -25.0081  -33.9798   25.0515 H   0  0  0  0  0  0
  -22.6959  -31.3104   21.4177 H   0  0  0  0  0  0
  -23.3742  -35.9641   23.3298 H   0  0  0  0  0  0
  -24.3571  -36.8925   22.2046 H   0  0  0  0  0  0
  -23.7218  -37.6518   23.6645 H   0  0  0  0  0  0
  -26.0506  -31.5878   20.5979 H   0  0  0  0  0  0
  -26.8293  -30.8817   21.9861 H   0  0  0  0  0  0
  -28.1042  -29.0645   21.1707 H   0  0  0  0  0  0
  -25.9815  -25.9946   18.9671 H   0  0  0  0  0  0
  -23.9640  -27.3249   19.0184 H   0  0  0  0  0  0
  -23.7300  -30.6137   19.4126 H   0  0  0  0  0  0
  -22.7384  -29.2593   19.8647 H   0  0  0  0  0  0
  -25.1258  -36.1992   25.0831 H   0  0  0  0  0  0
  -20.9934  -28.3222   24.1441 H   0  0  0  0  0  0
  -20.5648  -26.2270   23.3598 H   0  0  0  0  0  0
  -21.6636  -26.7432   22.1216 H   0  0  0  0  0  0
  -19.6898  -25.6301   21.1231 H   0  0  0  0  0  0
  -19.6689  -27.3202   20.6744 H   0  0  0  0  0  0
  -17.4182  -26.6663   21.4027 H   0  0  0  0  0  0
  -18.0324  -26.0084   22.9023 H   0  0  0  0  0  0
  -19.7928  -30.7255   24.2290 H   0  0  0  0  0  0
  -17.5011  -31.6270   24.5161 H   0  0  0  0  0  0
  -15.5346  -30.2999   23.7652 H   0  0  0  0  0  0
  -15.8656  -28.0837   22.7058 H   0  0  0  0  0  0
  -24.5927  -30.7077   25.7856 H   0  0  0  0  0  0
  -24.8993  -32.2858   26.5014 H   0  0  0  0  0  0
  -25.8143  -30.8839   27.0236 H   0  0  0  0  0  0
  -26.2833  -29.6805   24.1202 H   0  0  0  0  0  0
  -27.4139  -29.7303   25.4547 H   0  0  0  0  0  0
  -27.8655  -30.4388   23.9215 H   0  0  0  0  0  0
  -27.2755  -33.3600   26.2116 H   0  0  0  0  0  0
  -28.3861  -32.6891   25.0261 H   0  0  0  0  0  0
  -28.0821  -31.8399   26.5329 H   0  0  0  0  0  0
  -28.2590  -38.0099   24.7546 H   0  0  0  0  0  0
  -28.1090  -36.2642   24.6232 H   0  0  0  0  0  0
  -27.2316  -37.1375   25.8862 H   0  0  0  0  0  0
  -20.9320  -29.8793   21.6988 H   0  0  0  0  0  0
  -26.0177  -38.2872   24.1479 H   0  0  0  0  0  0
  -32.4239  -19.4422   20.5620 H   0  0  0  0  0  0
  -32.2362  -17.0209   20.3919 H   0  0  0  0  0  0
  -28.1381  -17.2542   21.7787 H   0  0  0  0  0  0
  -31.9061  -20.9713   23.2471 H   0  0  0  0  0  0
  -31.9029  -22.6217   22.6508 H   0  0  0  0  0  0
  -32.7479  -21.3644   21.7563 H   0  0  0  0  0  0
  -27.6748  -22.7737   18.4732 H   0  0  0  0  0  0
  -28.5400  -21.2626   18.6511 H   0  0  0  0  0  0
  -29.3232  -22.6350   17.8706 H   0  0  0  0  0  0
  -27.3532  -24.8304   20.2370 H   0  0  0  0  0  0
  -28.0641  -25.1843   18.6614 H   0  0  0  0  0  0
  -29.7562  -21.5797   22.2426 H   0  0  0  0  0  0
  -28.4551  -22.5534   20.8220 H   0  0  0  0  0  0
  -29.0807  -15.1727   21.4314 H   0  0  0  0  0  0
  -30.8638  -21.6950   19.5511 H   0  0  0  0  0  0
  -31.0743  -22.9640   20.5441 H   0  0  0  0  0  0
  1 25  1  0  0  0
  1 30  2  0  0  0
  1 83  1  0  0  0
  2  3  1  0  0  0
  2 25  1  0  0  0
  2 87  1  0  0  0
  2 88  1  0  0  0
  3  4  1  0  0  0
  3 89  1  0  0  0
  3 90  1  0  0  0
  4  5  1  0  0  0
  4 91  1  0  0  0
  4 92  1  0  0  0
  5  6  1  0  0  0
  5 26  1  0  0  0
  5 93  1  0  0  0
  6 25  1  0  0  0
  6 94  1  0  0  0
  6 95  1  0  0  0
  7  8  2  0  0  0
  7 26  1  0  0  0
  7 29  1  0  0  0
  8  9  1  0  0  0
  8 22  1  0  0  0
  9 10  1  0  0  0
  9 27  2  0  0  0
 10 11  2  0  0  0
 10 15  1  0  0  0
 11 12  1  0  0  0
 11 96  1  0  0  0
 12 13  2  0  0  0
 12 97  1  0  0  0
 13 14  1  0  0  0
 13 31  1  0  0  0
 14 15  2  0  0  0
 14 98  1  0  0  0
 15 99  1  0  0  0
 16 17  2  0  0  0
 16 21  1  0  0  0
 16 31  1  0  0  0
 17 18  1  0  0  0
 17100  1  0  0  0
 18 19  2  0  0  0
 18101  1  0  0  0
 19 20  1  0  0  0
 19 24  1  0  0  0
 20 21  2  0  0  0
 20102  1  0  0  0
 21 23  1  0  0  0
 22 28  1  0  0  0
 22 32  2  0  0  0
 26 27  1  0  0  0
 28103  1  0  0  0
 28104  1  0  0  0
 29105  1  0  0  0
 29106  1  0  0  0
 33 34  1  0  0  0
 33 66  1  0  0  0
 33 70  2  0  0  0
 34 36  1  0  0  0
 34 59  1  0  0  0
 34107  1  0  0  0
 35 44  2  0  0  0
 35 45  1  0  0  0
 35 68  1  0  0  0
 36 56  1  0  0  0
 36108  1  0  0  0
 37 39  1  0  0  0
 37 47  1  0  0  0
 37 66  1  0  0  0
 37109  1  0  0  0
 38 43  2  0  0  0
 38 46  1  0  0  0
 38 47  1  0  0  0
 39 64  1  0  0  0
 39 67  2  0  0  0
 40 52  1  0  0  0
 40 53  2  0  0  0
 40 58  1  0  0  0
 41110  1  0  0  0
 41111  1  0  0  0
 41112  1  0  0  0
 41 48  1  0  0  0
 42 43  1  0  0  0
 42 66  1  0  0  0
 42113  1  0  0  0
 42114  1  0  0  0
 43 44  1  0  0  0
 44115  1  0  0  0
 45 46  2  0  0  0
 45116  1  0  0  0
 46117  1  0  0  0
 47118  1  0  0  0
 47119  1  0  0  0
 48 56  1  0  0  0
 48 65  1  0  0  0
 48120  1  0  0  0
 49 50  1  0  0  0
 49 53  1  0  0  0
 49 64  1  0  0  0
 49121  1  0  0  0
 50 51  1  0  0  0
 50122  1  0  0  0
 50123  1  0  0  0
 51 52  1  0  0  0
 51124  1  0  0  0
 51125  1  0  0  0
 52126  1  0  0  0
 52127  1  0  0  0
 53 54  1  0  0  0
 54 55  2  0  0  0
 54128  1  0  0  0
 55 57  1  0  0  0
 55129  1  0  0  0
 56 69  2  0  0  0
 57 58  2  0  0  0
 57130  1  0  0  0
 58131  1  0  0  0
 59 60  1  0  0  0
 59 61  1  0  0  0
 59 62  1  0  0  0
 60132  1  0  0  0
 60133  1  0  0  0
 60134  1  0  0  0
 61135  1  0  0  0
 61136  1  0  0  0
 61137  1  0  0  0
 62138  1  0  0  0
 62139  1  0  0  0
 62140  1  0  0  0
 63 65  1  0  0  0
 63141  1  0  0  0
 63142  1  0  0  0
 63143  1  0  0  0
 64144  1  0  0  0
 65145  1  0  0  0
 68 80  1  0  0  0
 71 72  2  0  0  0
 71 74  1  0  0  0
 71146  1  0  0  0
 72 75  1  0  0  0
 72147  1  0  0  0
 73 75  2  0  0  0
 73 76  1  0  0  0
 73148  1  0  0  0
 74 76  2  0  0  0
 74 81  1  0  0  0
 75 83  1  0  0  0
 76 86  1  0  0  0
 77 80  1  0  0  0
 77 82  1  0  0  0
 77 85  2  0  0  0
 78149  1  0  0  0
 78150  1  0  0  0
 78151  1  0  0  0
 78 81  1  0  0  0
 79152  1  0  0  0
 79153  1  0  0  0
 79154  1  0  0  0
 79 82  1  0  0  0
 80155  1  0  0  0
 80156  1  0  0  0
 81 84  1  0  0  0
 81157  1  0  0  0
 82 84  1  0  0  0
 82158  1  0  0  0
 83159  1  0  0  0
 84160  1  0  0  0
 84161  1  0  0  0
M  CHG  1  84   1
M  ISO  4   1 100  68 101  80 101  83 100
M  END
> <chiral flag>
0

> <version>
0

> <s_m_source_file>
/data/baiqing/PycharmProjects/Reinvent-master-3.2/result/LINK_invent/BTK/process_docking_weight1_custom_product_contain_oxygen_bond_distance_aromatic_linkinvent_7_9_3/rearranged_h_0172.sdf

> <i_m_source_file_index>
46

> <r_mmod_Potential_Energy-OPLS-2005>
-276.3388671875

> <r_mmod_Stretch_Energy-OPLS-2005>
44.1581344604492

> <r_mmod_Bend_Energy-OPLS-2005>
110.80150604248

> <r_mmod_Torsional_Energy-OPLS-2005>
215.936599731445

> <r_mmod_Improper_Torsional_Energy-OPLS-2005>
3.66791391372681

> <r_mmod_Van_der_Waal_Energy-OPLS-2005>
158.942596435547

> <r_mmod_Electrostatic_Energy-OPLS-2005>
-360.737487792969

> <r_mmod_Solvation_Energy-OPLS-2005>
-465.093353271484

> <b_mmod_Minimization_Converged-OPLS-2005>
0

> <r_mmod_RMS_Derivative-OPLS-2005>
2.66430902481079

$$$$
46
                    3D
 Structure written by MMmdl.
152160  0  0  1  0            999 V2000
  -30.6378  -14.5935   20.5351 C   0  0  0  0  0  0
  -30.4259  -12.3659   19.4778 C   0  0  0  0  0  0
  -29.5189  -12.5207   18.2375 C   0  0  0  0  0  0
  -28.0354  -12.3730   18.6304 C   0  0  0  0  0  0
  -27.6539  -13.2217   19.8746 C   0  0  2  0  0  0
  -28.6842  -13.0498   21.0126 C   0  0  0  0  0  0
  -25.2530  -13.8188   20.5693 C   0  0  0  0  0  0
  -24.1803  -13.0434   20.9196 C   0  0  0  0  0  0
  -24.6388  -11.6904   20.8723 C   0  0  0  0  0  0
  -23.9045  -10.4286   21.0412 C   0  0  0  0  0  0
  -24.3619   -9.4200   21.9190 C   0  0  0  0  0  0
  -23.6285   -8.2234   22.0759 C   0  0  0  0  0  0
  -22.4272   -8.0295   21.3557 C   0  0  0  0  0  0
  -21.9890   -9.0260   20.4667 C   0  0  0  0  0  0
  -22.7233  -10.2132   20.3049 C   0  0  0  0  0  0
  -21.6853   -6.0739   22.5290 C   0  0  0  0  0  0
  -21.4032   -6.5646   23.8227 C   0  0  0  0  0  0
  -21.3664   -5.6799   24.9194 C   0  0  0  0  0  0
  -21.6025   -4.3061   24.7221 C   0  0  0  0  0  0
  -21.8819   -3.8146   23.4348 C   0  0  0  0  0  0
  -21.9196   -4.6966   22.3405 C   0  0  0  0  0  0
  -22.7836  -13.5223   21.1893 C   0  0  0  0  0  0
  -22.1658   -4.2159   21.0979 F   0  0  0  0  0  0
  -21.5621   -3.4540   25.7723 F   0  0  0  0  0  0
  -30.0093  -13.3795   20.4676 N   0  0  0  0  0  0
  -26.2964  -12.9378   20.3318 N   0  0  0  0  0  0
  -25.9315  -11.6521   20.5726 N   0  0  0  0  0  0
  -22.0468  -12.8228   22.0440 N   0  0  0  0  0  0
  -25.4188  -15.1920   20.4172 N   0  0  0  0  0  0
  -31.7809  -14.7459   20.0950 O   0  0  0  0  0  0
  -21.6632   -6.8888   21.4254 O   0  0  0  0  0  0
  -22.3539  -14.5541   20.6749 O   0  0  0  0  0  0
  -24.6154  -31.8670   23.2084 C   0  0  0  0  0  0
  -25.9042  -32.4824   23.8407 C   0  0  1  0  0  0
  -27.2207  -27.3861   20.1297 C   0  0  0  0  0  0
  -25.5880  -33.8617   24.2330 N   0  0  0  0  0  0
  -23.4064  -30.4925   21.5441 C   0  0  2  0  0  0
  -24.8558  -28.9551   20.1109 C   0  0  0  0  0  0
  -22.7434  -29.4647   22.4910 C   0  0  0  0  0  0
  -18.0270  -28.1411   22.8457 C   0  0  0  0  0  0
  -24.1477  -36.7332   23.2639 C   0  0  0  0  0  0
  -25.9383  -30.8226   21.3644 C   0  0  0  0  0  0
  -26.0168  -29.4495   20.7222 C   0  0  0  0  0  0
  -27.2030  -28.6726   20.7290 C   0  0  0  0  0  0
  -26.0489  -26.9254   19.4935 C   0  0  0  0  0  0
  -24.8710  -27.6975   19.4880 C   0  0  0  0  0  0
  -23.6232  -29.8329   20.1549 C   0  0  0  0  0  0
  -25.4090  -36.3096   24.0328 C   0  0  1  0  0  0
  -20.5872  -28.3694   23.1297 C   0  0  2  0  0  0
  -20.6765  -26.9424   22.5416 C   0  0  0  0  0  0
  -19.5745  -26.6395   21.5210 C   0  0  0  0  0  0
  -18.1925  -26.7948   22.1619 C   0  0  0  0  0  0
  -19.1528  -28.8864   23.2875 C   0  0  0  0  0  0
  -18.9451  -30.1458   23.8923 C   0  0  0  0  0  0
  -17.6455  -30.6607   24.0581 C   0  0  0  0  0  0
  -25.9015  -34.9463   23.5132 C   0  0  0  0  0  0
  -16.5341  -29.9128   23.6326 C   0  0  0  0  0  0
  -16.7261  -28.6546   23.0333 C   0  0  0  0  0  0
  -26.4458  -31.6607   25.0745 C   0  0  0  0  0  0
  -25.3740  -31.3745   26.1514 C   0  0  0  0  0  0
  -27.0290  -30.3043   24.6139 C   0  0  0  0  0  0
  -27.6028  -32.4317   25.7529 C   0  0  0  0  0  0
  -27.5552  -37.1830   24.8456 C   0  0  0  0  0  0
  -21.4162  -29.3045   22.3693 N   0  0  0  0  0  0
  -26.4269  -37.3778   23.9397 N   0  0  0  0  0  0
  -24.6726  -31.0761   22.0976 N   0  0  0  0  0  0
  -23.4207  -28.8164   23.2943 O   0  0  0  0  0  0
  -28.3469  -26.5792   20.1266 O   0  0  0  0  0  0
  -26.5600  -34.8908   22.4699 O   0  0  0  0  0  0
  -23.5335  -32.1413   23.7464 O   0  0  0  0  0  0
  -30.3076  -17.4074   19.3525 C   0  0  0  0  0  0
  -30.0506  -18.8133   19.2918 C   0  0  0  0  0  0
  -29.9803  -16.9742   20.6088 C   0  0  0  0  0  0
  -29.6649  -19.1791   20.5673 C   0  0  0  0  0  0
  -28.2747  -25.3501   20.7818 C   0  0  0  0  0  0
  -28.9344  -24.2296   20.3693 C   0  0  0  0  0  0
  -28.8926  -22.9101   21.1319 C   0  0  0  0  0  0
  -29.7801  -21.6613   20.6680 C   0  0  0  0  0  0
  -30.1425  -19.6210   18.0186 C   0  0  0  0  0  0
  -29.2624  -20.4369   20.9795 N   0  0  0  0  0  0
  -29.9010  -15.6495   20.9960 N   0  0  0  0  0  0
  -28.1838  -22.7783   22.1386 O   0  0  0  0  0  0
  -30.8981  -21.8110   20.1619 O   0  0  0  0  0  0
  -29.5537  -18.0507   21.3725 O   0  0  0  0  0  0
  -29.6462  -24.2994   19.2372 O   0  0  0  0  0  0
  -31.4770  -12.4665   19.2004 H   0  0  0  0  0  0
  -30.3225  -11.3643   19.9017 H   0  0  0  0  0  0
  -29.7839  -11.7779   17.4851 H   0  0  0  0  0  0
  -29.6868  -13.4945   17.7771 H   0  0  0  0  0  0
  -27.8537  -11.3158   18.8287 H   0  0  0  0  0  0
  -27.3989  -12.6364   17.7856 H   0  0  0  0  0  0
  -27.6790  -14.2666   19.5638 H   0  0  0  0  0  0
  -28.6700  -12.0207   21.3755 H   0  0  0  0  0  0
  -28.4235  -13.6681   21.8731 H   0  0  0  0  0  0
  -25.2772   -9.5664   22.4759 H   0  0  0  0  0  0
  -24.0006   -7.4617   22.7457 H   0  0  0  0  0  0
  -21.0839   -8.8774   19.8963 H   0  0  0  0  0  0
  -22.3704  -10.9669   19.6154 H   0  0  0  0  0  0
  -21.2027   -7.6159   23.9740 H   0  0  0  0  0  0
  -21.1495   -6.0533   25.9111 H   0  0  0  0  0  0
  -22.0581   -2.7601   23.2842 H   0  0  0  0  0  0
  -22.4085  -11.9904   22.4855 H   0  0  0  0  0  0
  -21.1092  -13.1262   22.2635 H   0  0  0  0  0  0
  -24.6454  -15.8371   20.5435 H   0  0  0  0  0  0
  -26.2678  -15.6455   20.1049 H   0  0  0  0  0  0
  -26.7140  -32.5549   23.1197 H   0  0  0  0  0  0
  -25.0020  -33.9794   25.0464 H   0  0  0  0  0  0
  -22.6934  -31.3093   21.4072 H   0  0  0  0  0  0
  -23.3689  -35.9724   23.3341 H   0  0  0  0  0  0
  -24.3553  -36.8913   22.2049 H   0  0  0  0  0  0
  -23.7305  -37.6569   23.6647 H   0  0  0  0  0  0
  -26.0436  -31.5810   20.5867 H   0  0  0  0  0  0
  -26.8270  -30.8901   21.9786 H   0  0  0  0  0  0
  -28.0921  -29.0446   21.2197 H   0  0  0  0  0  0
  -26.0483  -25.9633   19.0021 H   0  0  0  0  0  0
  -23.9836  -27.3247   18.9939 H   0  0  0  0  0  0
  -23.7501  -30.6156   19.4058 H   0  0  0  0  0  0
  -22.7442  -29.2671   19.8395 H   0  0  0  0  0  0
  -25.1268  -36.1963   25.0825 H   0  0  0  0  0  0
  -20.9939  -28.3285   24.1429 H   0  0  0  0  0  0
  -20.5661  -26.2306   23.3616 H   0  0  0  0  0  0
  -21.6643  -26.7462   22.1222 H   0  0  0  0  0  0
  -19.6905  -25.6305   21.1254 H   0  0  0  0  0  0
  -19.6704  -27.3206   20.6751 H   0  0  0  0  0  0
  -17.4183  -26.6648   21.4052 H   0  0  0  0  0  0
  -18.0337  -26.0127   22.9054 H   0  0  0  0  0  0
  -19.7931  -30.7243   24.2331 H   0  0  0  0  0  0
  -17.5028  -31.6280   24.5197 H   0  0  0  0  0  0
  -15.5361  -30.3053   23.7632 H   0  0  0  0  0  0
  -15.8648  -28.0891   22.7039 H   0  0  0  0  0  0
  -24.5860  -30.7148   25.7862 H   0  0  0  0  0  0
  -24.9014  -32.2938   26.4999 H   0  0  0  0  0  0
  -25.8097  -30.8880   27.0257 H   0  0  0  0  0  0
  -26.2861  -29.6820   24.1148 H   0  0  0  0  0  0
  -27.3992  -29.7254   25.4609 H   0  0  0  0  0  0
  -27.8715  -30.4327   23.9340 H   0  0  0  0  0  0
  -27.2635  -33.3584   26.2171 H   0  0  0  0  0  0
  -28.3843  -32.6939   25.0384 H   0  0  0  0  0  0
  -28.0712  -31.8420   26.5420 H   0  0  0  0  0  0
  -28.2588  -38.0095   24.7405 H   0  0  0  0  0  0
  -28.1018  -36.2621   24.6384 H   0  0  0  0  0  0
  -27.2269  -37.1600   25.8857 H   0  0  0  0  0  0
  -20.9313  -29.8845   21.6983 H   0  0  0  0  0  0
  -26.0146  -38.2850   24.1383 H   0  0  0  0  0  0
  -30.6179  -16.7798   18.5281 H   0  0  0  0  0  0
  -27.6542  -25.3882   21.6669 H   0  0  0  0  0  0
  -30.4264  -18.9657   17.1923 H   0  0  0  0  0  0
  -30.8938  -20.4053   18.0764 H   0  0  0  0  0  0
  -29.1772  -20.0670   17.7735 H   0  0  0  0  0  0
  -28.5039  -20.4821   21.6455 H   0  0  0  0  0  0
  -29.0682  -15.4074   21.5121 H   0  0  0  0  0  0
  -29.5247  -25.1802   18.9041 H   0  0  0  0  0  0
  1 25  1  0  0  0
  1 30  2  0  0  0
  1 81  1  0  0  0
  2  3  1  0  0  0
  2 25  1  0  0  0
  2 86  1  0  0  0
  2 87  1  0  0  0
  3  4  1  0  0  0
  3 88  1  0  0  0
  3 89  1  0  0  0
  4  5  1  0  0  0
  4 90  1  0  0  0
  4 91  1  0  0  0
  5  6  1  0  0  0
  5 26  1  0  0  0
  5 92  1  0  0  0
  6 25  1  0  0  0
  6 93  1  0  0  0
  6 94  1  0  0  0
  7  8  2  0  0  0
  7 26  1  0  0  0
  7 29  1  0  0  0
  8  9  1  0  0  0
  8 22  1  0  0  0
  9 10  1  0  0  0
  9 27  2  0  0  0
 10 11  2  0  0  0
 10 15  1  0  0  0
 11 12  1  0  0  0
 11 95  1  0  0  0
 12 13  2  0  0  0
 12 96  1  0  0  0
 13 14  1  0  0  0
 13 31  1  0  0  0
 14 15  2  0  0  0
 14 97  1  0  0  0
 15 98  1  0  0  0
 16 17  2  0  0  0
 16 21  1  0  0  0
 16 31  1  0  0  0
 17 18  1  0  0  0
 17 99  1  0  0  0
 18 19  2  0  0  0
 18100  1  0  0  0
 19 20  1  0  0  0
 19 24  1  0  0  0
 20 21  2  0  0  0
 20101  1  0  0  0
 21 23  1  0  0  0
 22 28  1  0  0  0
 22 32  2  0  0  0
 26 27  1  0  0  0
 28102  1  0  0  0
 28103  1  0  0  0
 29104  1  0  0  0
 29105  1  0  0  0
 33 34  1  0  0  0
 33 66  1  0  0  0
 33 70  2  0  0  0
 34 36  1  0  0  0
 34 59  1  0  0  0
 34106  1  0  0  0
 35 44  2  0  0  0
 35 45  1  0  0  0
 35 68  1  0  0  0
 36 56  1  0  0  0
 36107  1  0  0  0
 37 39  1  0  0  0
 37 47  1  0  0  0
 37 66  1  0  0  0
 37108  1  0  0  0
 38 43  2  0  0  0
 38 46  1  0  0  0
 38 47  1  0  0  0
 39 64  1  0  0  0
 39 67  2  0  0  0
 40 52  1  0  0  0
 40 53  2  0  0  0
 40 58  1  0  0  0
 41109  1  0  0  0
 41110  1  0  0  0
 41111  1  0  0  0
 41 48  1  0  0  0
 42 43  1  0  0  0
 42 66  1  0  0  0
 42112  1  0  0  0
 42113  1  0  0  0
 43 44  1  0  0  0
 44114  1  0  0  0
 45 46  2  0  0  0
 45115  1  0  0  0
 46116  1  0  0  0
 47117  1  0  0  0
 47118  1  0  0  0
 48 56  1  0  0  0
 48 65  1  0  0  0
 48119  1  0  0  0
 49 50  1  0  0  0
 49 53  1  0  0  0
 49 64  1  0  0  0
 49120  1  0  0  0
 50 51  1  0  0  0
 50121  1  0  0  0
 50122  1  0  0  0
 51 52  1  0  0  0
 51123  1  0  0  0
 51124  1  0  0  0
 52125  1  0  0  0
 52126  1  0  0  0
 53 54  1  0  0  0
 54 55  2  0  0  0
 54127  1  0  0  0
 55 57  1  0  0  0
 55128  1  0  0  0
 56 69  2  0  0  0
 57 58  2  0  0  0
 57129  1  0  0  0
 58130  1  0  0  0
 59 60  1  0  0  0
 59 61  1  0  0  0
 59 62  1  0  0  0
 60131  1  0  0  0
 60132  1  0  0  0
 60133  1  0  0  0
 61134  1  0  0  0
 61135  1  0  0  0
 61136  1  0  0  0
 62137  1  0  0  0
 62138  1  0  0  0
 62139  1  0  0  0
 63 65  1  0  0  0
 63140  1  0  0  0
 63141  1  0  0  0
 63142  1  0  0  0
 64143  1  0  0  0
 65144  1  0  0  0
 68 75  1  0  0  0
 71 72  1  0  0  0
 71 73  2  0  0  0
 71145  1  0  0  0
 72 74  2  0  0  0
 72 79  1  0  0  0
 73 81  1  0  0  0
 73 84  1  0  0  0
 74 80  1  0  0  0
 74 84  1  0  0  0
 75 76  2  0  0  0
 75146  1  0  0  0
 76 77  1  0  0  0
 76 85  1  0  0  0
 77 78  1  0  0  0
 77 82  2  0  0  0
 78 80  1  0  0  0
 78 83  2  0  0  0
 79147  1  0  0  0
 79148  1  0  0  0
 79149  1  0  0  0
 80150  1  0  0  0
 81151  1  0  0  0
 85152  1  0  0  0
M  ISO  4   1 100  68 101  75 101  81 100
M  END
> <chiral flag>
0

> <version>
0

> <s_m_source_file>
/data/baiqing/PycharmProjects/Reinvent-master-3.2/result/LINK_invent/BTK/process_docking_weight1_custom_product_contain_oxygen_bond_distance_aromatic_linkinvent_7_9_3/rearranged_h_0172.sdf

> <i_m_source_file_index>
47

> <r_mmod_Potential_Energy-OPLS-2005>
35.7497024536133

> <r_mmod_Stretch_Energy-OPLS-2005>
60.8132591247559

> <r_mmod_Bend_Energy-OPLS-2005>
125.801879882812

> <r_mmod_Torsional_Energy-OPLS-2005>
249.073532104492

> <r_mmod_Improper_Torsional_Energy-OPLS-2005>
6.07123231887817

> <r_mmod_Van_der_Waal_Energy-OPLS-2005>
128.607513427734

> <r_mmod_Electrostatic_Energy-OPLS-2005>
-330.803192138672

> <r_mmod_Solvation_Energy-OPLS-2005>
-233.530288696289

> <b_mmod_Minimization_Converged-OPLS-2005>
0

> <r_mmod_RMS_Derivative-OPLS-2005>
4.97435283660889

$$$$
47
                    3D
 Structure written by MMmdl.
155163  0  0  1  0            999 V2000
  -30.6006  -14.7593   20.4661 C   0  0  0  0  0  0
  -30.4308  -12.4662   19.4606 C   0  0  0  0  0  0
  -29.5030  -12.5097   18.2282 C   0  0  0  0  0  0
  -28.0308  -12.3286   18.6498 C   0  0  0  0  0  0
  -27.6372  -13.2275   19.8521 C   0  0  2  0  0  0
  -28.6876  -13.1624   20.9808 C   0  0  0  0  0  0
  -25.2498  -13.8176   20.5703 C   0  0  0  0  0  0
  -24.1778  -13.0427   20.9193 C   0  0  0  0  0  0
  -24.6355  -11.6907   20.8746 C   0  0  0  0  0  0
  -23.9032  -10.4285   21.0396 C   0  0  0  0  0  0
  -24.3590   -9.4204   21.9175 C   0  0  0  0  0  0
  -23.6279   -8.2230   22.0745 C   0  0  0  0  0  0
  -22.4274   -8.0254   21.3522 C   0  0  0  0  0  0
  -21.9884   -9.0222   20.4635 C   0  0  0  0  0  0
  -22.7197  -10.2112   20.3054 C   0  0  0  0  0  0
  -21.6861   -6.0714   22.5259 C   0  0  0  0  0  0
  -21.4019   -6.5622   23.8190 C   0  0  0  0  0  0
  -21.3667   -5.6777   24.9150 C   0  0  0  0  0  0
  -21.6064   -4.3042   24.7210 C   0  0  0  0  0  0
  -21.8827   -3.8127   23.4330 C   0  0  0  0  0  0
  -21.9193   -4.6941   22.3382 C   0  0  0  0  0  0
  -22.7801  -13.5209   21.1859 C   0  0  0  0  0  0
  -22.1660   -4.2131   21.0963 F   0  0  0  0  0  0
  -21.5633   -3.4525   25.7721 F   0  0  0  0  0  0
  -29.9773  -13.5318   20.3836 N   0  0  0  0  0  0
  -26.2908  -12.9361   20.3303 N   0  0  0  0  0  0
  -25.9287  -11.6508   20.5768 N   0  0  0  0  0  0
  -22.0461  -12.8190   22.0427 N   0  0  0  0  0  0
  -25.4217  -15.1903   20.4123 N   0  0  0  0  0  0
  -31.8046  -14.8417   20.2047 O   0  0  0  0  0  0
  -21.6648   -6.8852   21.4221 O   0  0  0  0  0  0
  -22.3475  -14.5507   20.6706 O   0  0  0  0  0  0
  -24.6330  -31.8553   23.1955 C   0  0  0  0  0  0
  -25.9136  -32.4747   23.8330 C   0  0  1  0  0  0
  -27.2198  -27.2445   20.1241 C   0  0  0  0  0  0
  -25.5918  -33.8561   24.2241 N   0  0  0  0  0  0
  -23.4323  -30.4774   21.5427 C   0  0  2  0  0  0
  -24.8798  -28.9229   20.1105 C   0  0  0  0  0  0
  -22.7530  -29.4599   22.4916 C   0  0  0  0  0  0
  -18.0303  -28.1382   22.8486 C   0  0  0  0  0  0
  -24.1497  -36.7291   23.2645 C   0  0  0  0  0  0
  -25.9822  -30.7600   21.3829 C   0  0  0  0  0  0
  -26.0560  -29.3820   20.7196 C   0  0  0  0  0  0
  -27.2308  -28.5585   20.7098 C   0  0  0  0  0  0
  -26.0256  -26.8689   19.4685 C   0  0  0  0  0  0
  -24.8716  -27.6744   19.4724 C   0  0  0  0  0  0
  -23.6519  -29.8124   20.1601 C   0  0  0  0  0  0
  -25.4120  -36.3078   24.0330 C   0  0  1  0  0  0
  -20.5906  -28.3710   23.1269 C   0  0  2  0  0  0
  -20.6802  -26.9427   22.5415 C   0  0  0  0  0  0
  -19.5767  -26.6374   21.5228 C   0  0  0  0  0  0
  -18.1940  -26.7920   22.1629 C   0  0  0  0  0  0
  -19.1555  -28.8861   23.2868 C   0  0  0  0  0  0
  -18.9478  -30.1463   23.8889 C   0  0  0  0  0  0
  -17.6475  -30.6588   24.0560 C   0  0  0  0  0  0
  -25.9059  -34.9446   23.5090 C   0  0  0  0  0  0
  -16.5365  -29.9082   23.6331 C   0  0  0  0  0  0
  -16.7288  -28.6498   23.0349 C   0  0  0  0  0  0
  -26.4482  -31.6582   25.0733 C   0  0  0  0  0  0
  -25.3688  -31.3732   26.1442 C   0  0  0  0  0  0
  -27.0329  -30.2994   24.6240 C   0  0  0  0  0  0
  -27.6030  -32.4350   25.7487 C   0  0  0  0  0  0
  -27.5583  -37.1800   24.8463 C   0  0  0  0  0  0
  -21.4238  -29.3039   22.3662 N   0  0  0  0  0  0
  -26.4295  -37.3772   23.9398 N   0  0  0  0  0  0
  -24.7019  -31.0478   22.0960 N   0  0  0  0  0  0
  -23.4216  -28.8153   23.3034 O   0  0  0  0  0  0
  -28.2925  -26.3165   20.1632 O   0  0  0  0  0  0
  -26.5650  -34.8926   22.4672 O   0  0  0  0  0  0
  -23.5472  -32.1391   23.7226 O   0  0  0  0  0  0
  -30.9504  -17.4922   22.0095 C   0  0  0  0  0  0
  -31.2307  -18.7759   22.5156 C   0  0  0  0  0  0
  -30.6753  -19.9189   21.8895 C   0  0  0  0  0  0
  -30.1087  -17.3125   20.8953 C   0  0  0  0  0  0
  -29.8057  -19.7556   20.7792 C   0  0  0  0  0  0
  -28.9495  -23.6669   20.1504 C   0  0  0  0  0  0
  -32.1340  -18.9034   23.7318 C   0  0  0  0  0  0
  -28.6627  -22.1783   20.7031 C   0  0  0  0  0  0
  -27.9469  -24.8771   20.5003 C   0  0  0  0  0  0
  -29.5473  -18.4637   20.3164 N   0  0  0  0  0  0
  -31.0534  -21.1944   22.3114 N   0  0  0  0  0  0
  -29.8018  -15.9008   20.5466 N   0  0  0  0  0  0
  -29.2952  -20.9282   20.0833 N   0  0  0  0  0  0
  -29.9492  -23.8721   19.4555 O   0  0  0  0  0  0
  -31.4688  -12.5984   19.1534 H   0  0  0  0  0  0
  -30.3798  -11.4896   19.9437 H   0  0  0  0  0  0
  -29.7820  -11.7384   17.5099 H   0  0  0  0  0  0
  -29.6239  -13.4659   17.7162 H   0  0  0  0  0  0
  -27.8928  -11.2787   18.9122 H   0  0  0  0  0  0
  -27.3671  -12.5188   17.8055 H   0  0  0  0  0  0
  -27.6287  -14.2490   19.4731 H   0  0  0  0  0  0
  -28.7348  -12.1600   21.4101 H   0  0  0  0  0  0
  -28.4269  -13.8351   21.7999 H   0  0  0  0  0  0
  -25.2737   -9.5684   22.4741 H   0  0  0  0  0  0
  -23.9991   -7.4623   22.7458 H   0  0  0  0  0  0
  -21.0812   -8.8716   19.8936 H   0  0  0  0  0  0
  -22.3632  -10.9634   19.6157 H   0  0  0  0  0  0
  -21.2023   -7.6135   23.9681 H   0  0  0  0  0  0
  -21.1489   -6.0510   25.9055 H   0  0  0  0  0  0
  -22.0612   -2.7587   23.2831 H   0  0  0  0  0  0
  -22.4092  -11.9862   22.4828 H   0  0  0  0  0  0
  -21.1072  -13.1186   22.2664 H   0  0  0  0  0  0
  -24.6575  -15.8446   20.5416 H   0  0  0  0  0  0
  -26.2653  -15.6324   20.0740 H   0  0  0  0  0  0
  -26.7205  -32.5393   23.1080 H   0  0  0  0  0  0
  -25.0041  -33.9698   25.0365 H   0  0  0  0  0  0
  -22.7295  -31.3001   21.3952 H   0  0  0  0  0  0
  -23.3770  -35.9614   23.3309 H   0  0  0  0  0  0
  -24.3586  -36.8912   22.2059 H   0  0  0  0  0  0
  -23.7245  -37.6488   23.6673 H   0  0  0  0  0  0
  -26.1297  -31.5233   20.6186 H   0  0  0  0  0  0
  -26.8558  -30.8016   22.0233 H   0  0  0  0  0  0
  -28.1320  -28.9056   21.1952 H   0  0  0  0  0  0
  -25.9579  -25.9304   18.9411 H   0  0  0  0  0  0
  -23.9760  -27.3228   18.9765 H   0  0  0  0  0  0
  -23.7782  -30.5905   19.4065 H   0  0  0  0  0  0
  -22.7702  -29.2484   19.8515 H   0  0  0  0  0  0
  -25.1301  -36.1940   25.0825 H   0  0  0  0  0  0
  -20.9987  -28.3292   24.1395 H   0  0  0  0  0  0
  -20.5741  -26.2310   23.3619 H   0  0  0  0  0  0
  -21.6665  -26.7472   22.1181 H   0  0  0  0  0  0
  -19.6942  -25.6280   21.1262 H   0  0  0  0  0  0
  -19.6701  -27.3192   20.6762 H   0  0  0  0  0  0
  -17.4219  -26.6690   21.4015 H   0  0  0  0  0  0
  -18.0332  -26.0044   22.9012 H   0  0  0  0  0  0
  -19.7953  -30.7288   24.2245 H   0  0  0  0  0  0
  -17.5022  -31.6262   24.5170 H   0  0  0  0  0  0
  -15.5359  -30.2981   23.7645 H   0  0  0  0  0  0
  -15.8684  -28.0815   22.7056 H   0  0  0  0  0  0
  -24.5868  -30.7078   25.7764 H   0  0  0  0  0  0
  -24.8866  -32.2893   26.4867 H   0  0  0  0  0  0
  -25.7978  -30.8907   27.0232 H   0  0  0  0  0  0
  -26.2914  -29.6745   24.1247 H   0  0  0  0  0  0
  -27.3976  -29.7259   25.4769 H   0  0  0  0  0  0
  -27.8811  -30.4257   23.9508 H   0  0  0  0  0  0
  -27.2633  -33.3676   26.2024 H   0  0  0  0  0  0
  -28.3837  -32.6889   25.0296 H   0  0  0  0  0  0
  -28.0708  -31.8511   26.5430 H   0  0  0  0  0  0
  -28.2596  -38.0099   24.7518 H   0  0  0  0  0  0
  -28.1083  -36.2632   24.6288 H   0  0  0  0  0  0
  -27.2306  -37.1453   25.8868 H   0  0  0  0  0  0
  -20.9438  -29.8734   21.6841 H   0  0  0  0  0  0
  -26.0192  -38.2858   24.1381 H   0  0  0  0  0  0
  -31.3770  -16.6302   22.5047 H   0  0  0  0  0  0
  -32.6449  -17.9643   23.9465 H   0  0  0  0  0  0
  -31.5439  -19.1764   24.6072 H   0  0  0  0  0  0
  -32.8989  -19.6651   23.5797 H   0  0  0  0  0  0
  -27.5846  -22.0419   20.6158 H   0  0  0  0  0  0
  -28.8417  -22.1921   21.7760 H   0  0  0  0  0  0
  -27.7601  -24.8306   21.5733 H   0  0  0  0  0  0
  -27.0064  -24.5900   20.0376 H   0  0  0  0  0  0
  -31.9597  -21.2736   22.7601 H   0  0  0  0  0  0
  -30.9193  -21.9054   21.5990 H   0  0  0  0  0  0
  -28.8219  -15.7189   20.4099 H   0  0  0  0  0  0
  -28.9156  -20.7218   19.1692 H   0  0  0  0  0  0
  1 25  1  0  0  0
  1 30  2  0  0  0
  1 82  1  0  0  0
  2  3  1  0  0  0
  2 25  1  0  0  0
  2 85  1  0  0  0
  2 86  1  0  0  0
  3  4  1  0  0  0
  3 87  1  0  0  0
  3 88  1  0  0  0
  4  5  1  0  0  0
  4 89  1  0  0  0
  4 90  1  0  0  0
  5  6  1  0  0  0
  5 26  1  0  0  0
  5 91  1  0  0  0
  6 25  1  0  0  0
  6 92  1  0  0  0
  6 93  1  0  0  0
  7  8  2  0  0  0
  7 26  1  0  0  0
  7 29  1  0  0  0
  8  9  1  0  0  0
  8 22  1  0  0  0
  9 10  1  0  0  0
  9 27  2  0  0  0
 10 11  2  0  0  0
 10 15  1  0  0  0
 11 12  1  0  0  0
 11 94  1  0  0  0
 12 13  2  0  0  0
 12 95  1  0  0  0
 13 14  1  0  0  0
 13 31  1  0  0  0
 14 15  2  0  0  0
 14 96  1  0  0  0
 15 97  1  0  0  0
 16 17  2  0  0  0
 16 21  1  0  0  0
 16 31  1  0  0  0
 17 18  1  0  0  0
 17 98  1  0  0  0
 18 19  2  0  0  0
 18 99  1  0  0  0
 19 20  1  0  0  0
 19 24  1  0  0  0
 20 21  2  0  0  0
 20100  1  0  0  0
 21 23  1  0  0  0
 22 28  1  0  0  0
 22 32  2  0  0  0
 26 27  1  0  0  0
 28101  1  0  0  0
 28102  1  0  0  0
 29103  1  0  0  0
 29104  1  0  0  0
 33 34  1  0  0  0
 33 66  1  0  0  0
 33 70  2  0  0  0
 34 36  1  0  0  0
 34 59  1  0  0  0
 34105  1  0  0  0
 35 44  2  0  0  0
 35 45  1  0  0  0
 35 68  1  0  0  0
 36 56  1  0  0  0
 36106  1  0  0  0
 37 39  1  0  0  0
 37 47  1  0  0  0
 37 66  1  0  0  0
 37107  1  0  0  0
 38 43  2  0  0  0
 38 46  1  0  0  0
 38 47  1  0  0  0
 39 64  1  0  0  0
 39 67  2  0  0  0
 40 52  1  0  0  0
 40 53  2  0  0  0
 40 58  1  0  0  0
 41108  1  0  0  0
 41109  1  0  0  0
 41110  1  0  0  0
 41 48  1  0  0  0
 42 43  1  0  0  0
 42 66  1  0  0  0
 42111  1  0  0  0
 42112  1  0  0  0
 43 44  1  0  0  0
 44113  1  0  0  0
 45 46  2  0  0  0
 45114  1  0  0  0
 46115  1  0  0  0
 47116  1  0  0  0
 47117  1  0  0  0
 48 56  1  0  0  0
 48 65  1  0  0  0
 48118  1  0  0  0
 49 50  1  0  0  0
 49 53  1  0  0  0
 49 64  1  0  0  0
 49119  1  0  0  0
 50 51  1  0  0  0
 50120  1  0  0  0
 50121  1  0  0  0
 51 52  1  0  0  0
 51122  1  0  0  0
 51123  1  0  0  0
 52124  1  0  0  0
 52125  1  0  0  0
 53 54  1  0  0  0
 54 55  2  0  0  0
 54126  1  0  0  0
 55 57  1  0  0  0
 55127  1  0  0  0
 56 69  2  0  0  0
 57 58  2  0  0  0
 57128  1  0  0  0
 58129  1  0  0  0
 59 60  1  0  0  0
 59 61  1  0  0  0
 59 62  1  0  0  0
 60130  1  0  0  0
 60131  1  0  0  0
 60132  1  0  0  0
 61133  1  0  0  0
 61134  1  0  0  0
 61135  1  0  0  0
 62136  1  0  0  0
 62137  1  0  0  0
 62138  1  0  0  0
 63 65  1  0  0  0
 63139  1  0  0  0
 63140  1  0  0  0
 63141  1  0  0  0
 64142  1  0  0  0
 65143  1  0  0  0
 68 79  1  0  0  0
 71 72  2  0  0  0
 71 74  1  0  0  0
 71144  1  0  0  0
 72 73  1  0  0  0
 72 77  1  0  0  0
 73 75  2  0  0  0
 73 81  1  0  0  0
 74 80  2  0  0  0
 74 82  1  0  0  0
 75 80  1  0  0  0
 75 83  1  0  0  0
 76 78  1  0  0  0
 76 79  1  0  0  0
 76 84  2  0  0  0
 77145  1  0  0  0
 77146  1  0  0  0
 77147  1  0  0  0
 78 83  1  0  0  0
 78148  1  0  0  0
 78149  1  0  0  0
 79150  1  0  0  0
 79151  1  0  0  0
 81152  1  0  0  0
 81153  1  0  0  0
 82154  1  0  0  0
 83155  1  0  0  0
M  ISO  4   1 100  68 101  79 101  82 100
M  END
> <chiral flag>
0

> <version>
0

> <s_m_source_file>
/data/baiqing/PycharmProjects/Reinvent-master-3.2/result/LINK_invent/BTK/process_docking_weight1_custom_product_contain_oxygen_bond_distance_aromatic_linkinvent_7_9_3/rearranged_h_0172.sdf

> <i_m_source_file_index>
48

> <r_mmod_Potential_Energy-OPLS-2005>
-54.4594421386719

> <r_mmod_Stretch_Energy-OPLS-2005>
135.961441040039

> <r_mmod_Bend_Energy-OPLS-2005>
177.211624145508

> <r_mmod_Torsional_Energy-OPLS-2005>
248.869094848633

> <r_mmod_Improper_Torsional_Energy-OPLS-2005>
14.8330860137939

> <r_mmod_Van_der_Waal_Energy-OPLS-2005>
148.3125

> <r_mmod_Electrostatic_Energy-OPLS-2005>
-610.822998046875

> <r_mmod_Solvation_Energy-OPLS-2005>
-264.631072998047

> <b_mmod_Minimization_Converged-OPLS-2005>
0

> <r_mmod_RMS_Derivative-OPLS-2005>
2.63655853271484

$$$$
48
                    3D
 Structure written by MMmdl.
152160  0  0  1  0            999 V2000
  -30.5812  -14.7924   20.4679 C   0  0  0  0  0  0
  -30.4395  -12.4858   19.4764 C   0  0  0  0  0  0
  -29.5131  -12.5145   18.2390 C   0  0  0  0  0  0
  -28.0419  -12.3227   18.6566 C   0  0  0  0  0  0
  -27.6404  -13.2291   19.8494 C   0  0  2  0  0  0
  -28.6852  -13.1715   20.9850 C   0  0  0  0  0  0
  -25.2516  -13.8181   20.5697 C   0  0  0  0  0  0
  -24.1809  -13.0430   20.9212 C   0  0  0  0  0  0
  -24.6393  -11.6910   20.8753 C   0  0  0  0  0  0
  -23.9075  -10.4293   21.0421 C   0  0  0  0  0  0
  -24.3624   -9.4203   21.9192 C   0  0  0  0  0  0
  -23.6295   -8.2243   22.0755 C   0  0  0  0  0  0
  -22.4285   -8.0279   21.3545 C   0  0  0  0  0  0
  -21.9925   -9.0254   20.4655 C   0  0  0  0  0  0
  -22.7255  -10.2131   20.3064 C   0  0  0  0  0  0
  -21.6851   -6.0735   22.5283 C   0  0  0  0  0  0
  -21.4008   -6.5640   23.8212 C   0  0  0  0  0  0
  -21.3656   -5.6798   24.9177 C   0  0  0  0  0  0
  -21.6049   -4.3061   24.7232 C   0  0  0  0  0  0
  -21.8817   -3.8150   23.4353 C   0  0  0  0  0  0
  -21.9190   -4.6963   22.3405 C   0  0  0  0  0  0
  -22.7833  -13.5215   21.1878 C   0  0  0  0  0  0
  -22.1664   -4.2151   21.0981 F   0  0  0  0  0  0
  -21.5629   -3.4539   25.7740 F   0  0  0  0  0  0
  -29.9813  -13.5488   20.4049 N   0  0  0  0  0  0
  -26.2935  -12.9382   20.3279 N   0  0  0  0  0  0
  -25.9319  -11.6533   20.5755 N   0  0  0  0  0  0
  -22.0487  -12.8185   22.0427 N   0  0  0  0  0  0
  -25.4206  -15.1895   20.4068 N   0  0  0  0  0  0
  -31.7721  -14.8953   20.1529 O   0  0  0  0  0  0
  -21.6641   -6.8879   21.4248 O   0  0  0  0  0  0
  -22.3517  -14.5535   20.6744 O   0  0  0  0  0  0
  -24.6347  -31.8529   23.1937 C   0  0  0  0  0  0
  -25.9151  -32.4750   23.8308 C   0  0  1  0  0  0
  -27.2181  -27.2201   20.1510 C   0  0  0  0  0  0
  -25.5922  -33.8553   24.2241 N   0  0  0  0  0  0
  -23.4347  -30.4738   21.5374 C   0  0  2  0  0  0
  -24.8830  -28.9102   20.1115 C   0  0  0  0  0  0
  -22.7509  -29.4600   22.4887 C   0  0  0  0  0  0
  -18.0309  -28.1404   22.8507 C   0  0  0  0  0  0
  -24.1487  -36.7281   23.2641 C   0  0  0  0  0  0
  -25.9817  -30.7512   21.3806 C   0  0  0  0  0  0
  -26.0546  -29.3668   20.7308 C   0  0  0  0  0  0
  -27.2236  -28.5331   20.7441 C   0  0  0  0  0  0
  -26.0304  -26.8493   19.4820 C   0  0  0  0  0  0
  -24.8777  -27.6612   19.4724 C   0  0  0  0  0  0
  -23.6572  -29.8039   20.1555 C   0  0  0  0  0  0
  -25.4115  -36.3060   24.0329 C   0  0  1  0  0  0
  -20.5912  -28.3719   23.1270 C   0  0  2  0  0  0
  -20.6792  -26.9441   22.5405 C   0  0  0  0  0  0
  -19.5758  -26.6405   21.5216 C   0  0  0  0  0  0
  -18.1946  -26.7952   22.1631 C   0  0  0  0  0  0
  -19.1566  -28.8879   23.2888 C   0  0  0  0  0  0
  -18.9487  -30.1477   23.8907 C   0  0  0  0  0  0
  -17.6483  -30.6607   24.0589 C   0  0  0  0  0  0
  -25.9054  -34.9437   23.5092 C   0  0  0  0  0  0
  -16.5379  -29.9107   23.6349 C   0  0  0  0  0  0
  -16.7299  -28.6521   23.0377 C   0  0  0  0  0  0
  -26.4505  -31.6582   25.0707 C   0  0  0  0  0  0
  -25.3706  -31.3776   26.1413 C   0  0  0  0  0  0
  -27.0360  -30.2996   24.6199 C   0  0  0  0  0  0
  -27.6039  -32.4333   25.7492 C   0  0  0  0  0  0
  -27.5576  -37.1810   24.8481 C   0  0  0  0  0  0
  -21.4213  -29.3062   22.3634 N   0  0  0  0  0  0
  -26.4295  -37.3752   23.9414 N   0  0  0  0  0  0
  -24.7029  -31.0460   22.0930 N   0  0  0  0  0  0
  -23.4191  -28.8160   23.3013 O   0  0  0  0  0  0
  -28.2955  -26.2902   20.1976 O   0  0  0  0  0  0
  -26.5625  -34.8926   22.4658 O   0  0  0  0  0  0
  -23.5484  -32.1372   23.7203 O   0  0  0  0  0  0
  -31.1105  -19.4196   20.6422 C   0  0  0  0  0  0
  -29.8628  -20.0394   20.5599 C   0  0  0  0  0  0
  -29.9550  -17.3838   20.6381 C   0  0  0  0  0  0
  -28.0570  -24.8762   20.3646 C   0  0  0  0  0  0
  -28.9669  -23.8176   20.3133 C   0  0  0  0  0  0
  -28.6171  -22.3402   20.4905 C   0  0  0  0  0  0
  -33.2667  -19.9193   19.4241 C   0  0  0  0  0  0
  -32.4413  -20.1199   20.7020 C   0  0  0  0  0  0
  -31.1468  -17.9937   20.6830 N   0  0  0  0  0  0
  -29.6776  -21.4446   20.4666 N   0  0  0  0  0  0
  -29.7594  -15.9018   20.6819 N   0  0  0  0  0  0
  -27.4656  -21.9330   20.6566 O   0  0  0  0  0  0
  -30.2555  -24.1141   20.0859 O   0  0  0  0  0  0
  -28.6721  -18.6825   20.5747 S   0  0  0  0  0  0
  -31.4792  -12.6232   19.1728 H   0  0  0  0  0  0
  -30.3974  -11.5104   19.9645 H   0  0  0  0  0  0
  -29.8034  -11.7365   17.5321 H   0  0  0  0  0  0
  -29.6262  -13.4626   17.7119 H   0  0  0  0  0  0
  -27.9149  -11.2756   18.9351 H   0  0  0  0  0  0
  -27.3789  -12.4945   17.8078 H   0  0  0  0  0  0
  -27.6322  -14.2469   19.4598 H   0  0  0  0  0  0
  -28.7343  -12.1719   21.4196 H   0  0  0  0  0  0
  -28.4105  -13.8412   21.8011 H   0  0  0  0  0  0
  -25.2767   -9.5670   22.4764 H   0  0  0  0  0  0
  -24.0002   -7.4632   22.7463 H   0  0  0  0  0  0
  -21.0858   -8.8778   19.8958 H   0  0  0  0  0  0
  -22.3719  -10.9667   19.6168 H   0  0  0  0  0  0
  -21.2001   -7.6146   23.9715 H   0  0  0  0  0  0
  -21.1481   -6.0527   25.9077 H   0  0  0  0  0  0
  -22.0599   -2.7615   23.2853 H   0  0  0  0  0  0
  -22.4095  -11.9814   22.4771 H   0  0  0  0  0  0
  -21.1114  -13.1211   22.2678 H   0  0  0  0  0  0
  -24.6459  -15.8377   20.4992 H   0  0  0  0  0  0
  -26.2458  -15.6221   20.0136 H   0  0  0  0  0  0
  -26.7223  -32.5405   23.1053 H   0  0  0  0  0  0
  -25.0085  -33.9694   25.0405 H   0  0  0  0  0  0
  -22.7342  -31.2979   21.3865 H   0  0  0  0  0  0
  -23.3730  -35.9636   23.3337 H   0  0  0  0  0  0
  -24.3552  -36.8847   22.2040 H   0  0  0  0  0  0
  -23.7273  -37.6513   23.6637 H   0  0  0  0  0  0
  -26.1211  -31.5053   20.6047 H   0  0  0  0  0  0
  -26.8597  -30.8069   22.0127 H   0  0  0  0  0  0
  -28.1170  -28.8745   21.2487 H   0  0  0  0  0  0
  -25.9739  -25.8956   18.9789 H   0  0  0  0  0  0
  -23.9859  -27.3103   18.9717 H   0  0  0  0  0  0
  -23.7917  -30.5786   19.3983 H   0  0  0  0  0  0
  -22.7742  -29.2398   19.8504 H   0  0  0  0  0  0
  -25.1306  -36.1890   25.0822 H   0  0  0  0  0  0
  -21.0046  -28.3294   24.1379 H   0  0  0  0  0  0
  -20.5690  -26.2346   23.3618 H   0  0  0  0  0  0
  -21.6658  -26.7471   22.1199 H   0  0  0  0  0  0
  -19.6908  -25.6308   21.1270 H   0  0  0  0  0  0
  -19.6674  -27.3212   20.6740 H   0  0  0  0  0  0
  -17.4216  -26.6746   21.4031 H   0  0  0  0  0  0
  -18.0334  -26.0094   22.9024 H   0  0  0  0  0  0
  -19.7954  -30.7324   24.2259 H   0  0  0  0  0  0
  -17.5034  -31.6287   24.5195 H   0  0  0  0  0  0
  -15.5381  -30.3022   23.7646 H   0  0  0  0  0  0
  -15.8706  -28.0846   22.7084 H   0  0  0  0  0  0
  -24.5864  -30.7136   25.7763 H   0  0  0  0  0  0
  -24.8921  -32.2974   26.4782 H   0  0  0  0  0  0
  -25.7982  -30.8992   27.0229 H   0  0  0  0  0  0
  -26.2962  -29.6723   24.1200 H   0  0  0  0  0  0
  -27.4040  -29.7257   25.4712 H   0  0  0  0  0  0
  -27.8841  -30.4293   23.9467 H   0  0  0  0  0  0
  -27.2635  -33.3655   26.2017 H   0  0  0  0  0  0
  -28.3877  -32.6837   25.0333 H   0  0  0  0  0  0
  -28.0677  -31.8480   26.5437 H   0  0  0  0  0  0
  -28.2628  -38.0068   24.7456 H   0  0  0  0  0  0
  -28.1023  -36.2588   24.6396 H   0  0  0  0  0  0
  -27.2290  -37.1593   25.8884 H   0  0  0  0  0  0
  -20.9392  -29.8799   21.6858 H   0  0  0  0  0  0
  -26.0157  -38.2837   24.1344 H   0  0  0  0  0  0
  -27.0130  -24.6690   20.5624 H   0  0  0  0  0  0
  -34.2184  -20.4480   19.4863 H   0  0  0  0  0  0
  -32.7359  -20.2913   18.5474 H   0  0  0  0  0  0
  -33.4850  -18.8619   19.2650 H   0  0  0  0  0  0
  -33.0115  -19.7565   21.5574 H   0  0  0  0  0  0
  -32.3151  -21.1874   20.8797 H   0  0  0  0  0  0
  -30.5396  -21.9671   20.3697 H   0  0  0  0  0  0
  -28.8030  -15.6360   20.8494 H   0  0  0  0  0  0
  -30.3069  -25.0562   19.9874 H   0  0  0  0  0  0
  1 25  1  0  0  0
  1 30  2  0  0  0
  1 81  1  0  0  0
  2  3  1  0  0  0
  2 25  1  0  0  0
  2 85  1  0  0  0
  2 86  1  0  0  0
  3  4  1  0  0  0
  3 87  1  0  0  0
  3 88  1  0  0  0
  4  5  1  0  0  0
  4 89  1  0  0  0
  4 90  1  0  0  0
  5  6  1  0  0  0
  5 26  1  0  0  0
  5 91  1  0  0  0
  6 25  1  0  0  0
  6 92  1  0  0  0
  6 93  1  0  0  0
  7  8  2  0  0  0
  7 26  1  0  0  0
  7 29  1  0  0  0
  8  9  1  0  0  0
  8 22  1  0  0  0
  9 10  1  0  0  0
  9 27  2  0  0  0
 10 11  2  0  0  0
 10 15  1  0  0  0
 11 12  1  0  0  0
 11 94  1  0  0  0
 12 13  2  0  0  0
 12 95  1  0  0  0
 13 14  1  0  0  0
 13 31  1  0  0  0
 14 15  2  0  0  0
 14 96  1  0  0  0
 15 97  1  0  0  0
 16 17  2  0  0  0
 16 21  1  0  0  0
 16 31  1  0  0  0
 17 18  1  0  0  0
 17 98  1  0  0  0
 18 19  2  0  0  0
 18 99  1  0  0  0
 19 20  1  0  0  0
 19 24  1  0  0  0
 20 21  2  0  0  0
 20100  1  0  0  0
 21 23  1  0  0  0
 22 28  1  0  0  0
 22 32  2  0  0  0
 26 27  1  0  0  0
 28101  1  0  0  0
 28102  1  0  0  0
 29103  1  0  0  0
 29104  1  0  0  0
 33 34  1  0  0  0
 33 66  1  0  0  0
 33 70  2  0  0  0
 34 36  1  0  0  0
 34 59  1  0  0  0
 34105  1  0  0  0
 35 44  2  0  0  0
 35 45  1  0  0  0
 35 68  1  0  0  0
 36 56  1  0  0  0
 36106  1  0  0  0
 37 39  1  0  0  0
 37 47  1  0  0  0
 37 66  1  0  0  0
 37107  1  0  0  0
 38 43  2  0  0  0
 38 46  1  0  0  0
 38 47  1  0  0  0
 39 64  1  0  0  0
 39 67  2  0  0  0
 40 52  1  0  0  0
 40 53  2  0  0  0
 40 58  1  0  0  0
 41108  1  0  0  0
 41109  1  0  0  0
 41110  1  0  0  0
 41 48  1  0  0  0
 42 43  1  0  0  0
 42 66  1  0  0  0
 42111  1  0  0  0
 42112  1  0  0  0
 43 44  1  0  0  0
 44113  1  0  0  0
 45 46  2  0  0  0
 45114  1  0  0  0
 46115  1  0  0  0
 47116  1  0  0  0
 47117  1  0  0  0
 48 56  1  0  0  0
 48 65  1  0  0  0
 48118  1  0  0  0
 49 50  1  0  0  0
 49 53  1  0  0  0
 49 64  1  0  0  0
 49119  1  0  0  0
 50 51  1  0  0  0
 50120  1  0  0  0
 50121  1  0  0  0
 51 52  1  0  0  0
 51122  1  0  0  0
 51123  1  0  0  0
 52124  1  0  0  0
 52125  1  0  0  0
 53 54  1  0  0  0
 54 55  2  0  0  0
 54126  1  0  0  0
 55 57  1  0  0  0
 55127  1  0  0  0
 56 69  2  0  0  0
 57 58  2  0  0  0
 57128  1  0  0  0
 58129  1  0  0  0
 59 60  1  0  0  0
 59 61  1  0  0  0
 59 62  1  0  0  0
 60130  1  0  0  0
 60131  1  0  0  0
 60132  1  0  0  0
 61133  1  0  0  0
 61134  1  0  0  0
 61135  1  0  0  0
 62136  1  0  0  0
 62137  1  0  0  0
 62138  1  0  0  0
 63 65  1  0  0  0
 63139  1  0  0  0
 63140  1  0  0  0
 63141  1  0  0  0
 64142  1  0  0  0
 65143  1  0  0  0
 68 74  1  0  0  0
 71 72  2  0  0  0
 71 78  1  0  0  0
 71 79  1  0  0  0
 72 80  1  0  0  0
 72 84  1  0  0  0
 73 79  2  0  0  0
 73 81  1  0  0  0
 73 84  1  0  0  0
 74 75  2  0  0  0
 74144  1  0  0  0
 75 76  1  0  0  0
 75 83  1  0  0  0
 76 80  1  0  0  0
 76 82  2  0  0  0
 77 78  1  0  0  0
 77145  1  0  0  0
 77146  1  0  0  0
 77147  1  0  0  0
 78148  1  0  0  0
 78149  1  0  0  0
 80150  1  0  0  0
 81151  1  0  0  0
 83152  1  0  0  0
M  ISO  4   1 100  68 101  74 101  81 100
M  END
> <chiral flag>
0

> <version>
0

> <s_m_source_file>
/data/baiqing/PycharmProjects/Reinvent-master-3.2/result/LINK_invent/BTK/process_docking_weight1_custom_product_contain_oxygen_bond_distance_aromatic_linkinvent_7_9_3/rearranged_h_0172.sdf

> <i_m_source_file_index>
49

> <r_mmod_Potential_Energy-OPLS-2005>
46.1207656860352

> <r_mmod_Stretch_Energy-OPLS-2005>
129.167709350586

> <r_mmod_Bend_Energy-OPLS-2005>
189.315200805664

> <r_mmod_Torsional_Energy-OPLS-2005>
183.872985839844

> <r_mmod_Improper_Torsional_Energy-OPLS-2005>
4.8954062461853

> <r_mmod_Van_der_Waal_Energy-OPLS-2005>
116.767524719238

> <r_mmod_Electrostatic_Energy-OPLS-2005>
-448.010070800781

> <r_mmod_Solvation_Energy-OPLS-2005>
-239.542678833008

> <b_mmod_Minimization_Converged-OPLS-2005>
0

> <r_mmod_RMS_Derivative-OPLS-2005>
2.3470823764801

$$$$
49
                    3D
 Structure written by MMmdl.
159167  0  0  1  0            999 V2000
  -30.7354  -14.4875   20.5229 C   0  0  0  0  0  0
  -30.4050  -12.2976   19.4492 C   0  0  0  0  0  0
  -29.4917  -12.4828   18.2218 C   0  0  0  0  0  0
  -28.0112  -12.3641   18.6326 C   0  0  0  0  0  0
  -27.6538  -13.2246   19.8781 C   0  0  2  0  0  0
  -28.6995  -13.0501   21.0025 C   0  0  0  0  0  0
  -25.2428  -13.8176   20.5620 C   0  0  0  0  0  0
  -24.1743  -13.0396   20.9144 C   0  0  0  0  0  0
  -24.6368  -11.6896   20.8730 C   0  0  0  0  0  0
  -23.9056  -10.4264   21.0391 C   0  0  0  0  0  0
  -24.3617   -9.4176   21.9166 C   0  0  0  0  0  0
  -23.6298   -8.2206   22.0732 C   0  0  0  0  0  0
  -22.4264   -8.0247   21.3538 C   0  0  0  0  0  0
  -21.9912   -9.0208   20.4631 C   0  0  0  0  0  0
  -22.7228  -10.2088   20.3036 C   0  0  0  0  0  0
  -21.6835   -6.0727   22.5270 C   0  0  0  0  0  0
  -21.3988   -6.5633   23.8206 C   0  0  0  0  0  0
  -21.3668   -5.6785   24.9174 C   0  0  0  0  0  0
  -21.6055   -4.3048   24.7222 C   0  0  0  0  0  0
  -21.8818   -3.8138   23.4342 C   0  0  0  0  0  0
  -21.9189   -4.6963   22.3402 C   0  0  0  0  0  0
  -22.7745  -13.5143   21.1867 C   0  0  0  0  0  0
  -22.1650   -4.2144   21.0983 F   0  0  0  0  0  0
  -21.5662   -3.4535   25.7745 F   0  0  0  0  0  0
  -30.0280  -13.3267   20.4348 N   0  0  0  0  0  0
  -26.2973  -12.9431   20.3455 N   0  0  0  0  0  0
  -25.9326  -11.6563   20.5858 N   0  0  0  0  0  0
  -22.0461  -12.8101   22.0463 N   0  0  0  0  0  0
  -25.3966  -15.1886   20.3945 N   0  0  0  0  0  0
  -31.8927  -14.5444   20.1081 O   0  0  0  0  0  0
  -21.6622   -6.8850   21.4222 O   0  0  0  0  0  0
  -22.3403  -14.5456   20.6752 O   0  0  0  0  0  0
  -24.6100  -31.8677   23.2091 C   0  0  0  0  0  0
  -25.9000  -32.4804   23.8381 C   0  0  1  0  0  0
  -27.2314  -27.4340   20.1088 C   0  0  0  0  0  0
  -25.5843  -33.8606   24.2303 N   0  0  0  0  0  0
  -23.3987  -30.4941   21.5472 C   0  0  2  0  0  0
  -24.8488  -28.9577   20.1162 C   0  0  0  0  0  0
  -22.7387  -29.4691   22.4969 C   0  0  0  0  0  0
  -18.0282  -28.1331   22.8479 C   0  0  0  0  0  0
  -24.1504  -36.7328   23.2645 C   0  0  0  0  0  0
  -25.9280  -30.8357   21.3632 C   0  0  0  0  0  0
  -26.0096  -29.4717   20.7090 C   0  0  0  0  0  0
  -27.2084  -28.7188   20.6981 C   0  0  0  0  0  0
  -26.0547  -26.9336   19.5130 C   0  0  0  0  0  0
  -24.8672  -27.6874   19.5154 C   0  0  0  0  0  0
  -23.6090  -29.8231   20.1634 C   0  0  0  0  0  0
  -25.4119  -36.3092   24.0335 C   0  0  1  0  0  0
  -20.5873  -28.3674   23.1304 C   0  0  2  0  0  0
  -20.6817  -26.9404   22.5445 C   0  0  0  0  0  0
  -19.5812  -26.6335   21.5236 C   0  0  0  0  0  0
  -18.1974  -26.7875   22.1604 C   0  0  0  0  0  0
  -19.1526  -28.8820   23.2877 C   0  0  0  0  0  0
  -18.9436  -30.1436   23.8853 C   0  0  0  0  0  0
  -17.6425  -30.6541   24.0514 C   0  0  0  0  0  0
  -25.9041  -34.9449   23.5134 C   0  0  0  0  0  0
  -16.5318  -29.9010   23.6295 C   0  0  0  0  0  0
  -16.7269  -28.6430   23.0323 C   0  0  0  0  0  0
  -26.4450  -31.6547   25.0679 C   0  0  0  0  0  0
  -25.3735  -31.3627   26.1439 C   0  0  0  0  0  0
  -27.0275  -30.2984   24.6026 C   0  0  0  0  0  0
  -27.6019  -32.4280   25.7426 C   0  0  0  0  0  0
  -27.5588  -37.1814   24.8452 C   0  0  0  0  0  0
  -21.4114  -29.3044   22.3684 N   0  0  0  0  0  0
  -26.4305  -37.3775   23.9385 N   0  0  0  0  0  0
  -24.6637  -31.0772   22.0988 N   0  0  0  0  0  0
  -23.4153  -28.8237   23.3027 O   0  0  0  0  0  0
  -28.3825  -26.6755   20.1141 O   0  0  0  0  0  0
  -26.5643  -34.8904   22.4718 O   0  0  0  0  0  0
  -23.5307  -32.1455   23.7491 O   0  0  0  0  0  0
  -31.0355  -19.7131   20.1348 C   0  0  0  0  0  0
  -31.6778  -17.3980   20.3322 C   0  0  0  0  0  0
  -29.3940  -18.0650   20.9672 C   0  0  0  0  0  0
  -29.7441  -19.4385   20.6425 C   0  0  0  0  0  0
  -30.3757  -17.0145   20.7521 C   0  0  0  0  0  0
  -32.0005  -18.7164   20.0149 C   0  0  0  0  0  0
  -28.0235  -17.6760   21.5040 C   0  0  0  0  0  0
  -29.0912  -21.8823   20.9303 C   0  0  0  0  0  0
  -27.0701  -18.7360   22.0485 C   0  0  0  0  0  0
  -27.9105  -22.8705   20.8490 C   0  0  0  0  0  0
  -28.1790  -24.1688   20.0257 C   0  0  0  0  0  0
  -28.3115  -25.4569   20.8797 C   0  0  0  0  0  0
  -28.8333  -20.5641   20.7127 N   0  0  0  0  0  0
  -30.0675  -15.5940   20.9360 N   0  0  0  0  0  0
  -27.6180  -16.5111   21.5529 O   0  0  0  0  0  0
  -30.2035  -22.3286   21.2198 O   0  0  0  0  0  0
  -33.2390  -19.0209   19.5611 F   0  0  0  0  0  0
  -31.4539  -12.3438   19.1529 H   0  0  0  0  0  0
  -30.2707  -11.3045   19.8801 H   0  0  0  0  0  0
  -29.7295  -11.7342   17.4650 H   0  0  0  0  0  0
  -29.6763  -13.4553   17.7627 H   0  0  0  0  0  0
  -27.8111  -11.3109   18.8399 H   0  0  0  0  0  0
  -27.3682  -12.6314   17.7932 H   0  0  0  0  0  0
  -27.6845  -14.2691   19.5583 H   0  0  0  0  0  0
  -28.6740  -12.0288   21.3891 H   0  0  0  0  0  0
  -28.4772  -13.6961   21.8510 H   0  0  0  0  0  0
  -25.2766   -9.5649   22.4729 H   0  0  0  0  0  0
  -24.0013   -7.4588   22.7433 H   0  0  0  0  0  0
  -21.0861   -8.8716   19.8916 H   0  0  0  0  0  0
  -22.3694  -10.9618   19.6130 H   0  0  0  0  0  0
  -21.1920   -7.6129   23.9712 H   0  0  0  0  0  0
  -21.1522   -6.0514   25.9092 H   0  0  0  0  0  0
  -22.0595   -2.7600   23.2844 H   0  0  0  0  0  0
  -22.4130  -11.9757   22.4798 H   0  0  0  0  0  0
  -21.1058  -13.1030   22.2699 H   0  0  0  0  0  0
  -24.6348  -15.8182   20.6190 H   0  0  0  0  0  0
  -26.3069  -15.6295   20.5151 H   0  0  0  0  0  0
  -26.7031  -32.5538   23.1117 H   0  0  0  0  0  0
  -24.9827  -33.9759   25.0327 H   0  0  0  0  0  0
  -22.6868  -31.3100   21.4057 H   0  0  0  0  0  0
  -23.3742  -35.9692   23.3323 H   0  0  0  0  0  0
  -24.3593  -36.8945   22.2053 H   0  0  0  0  0  0
  -23.7292  -37.6551   23.6675 H   0  0  0  0  0  0
  -26.0453  -31.6056   20.5991 H   0  0  0  0  0  0
  -26.8116  -30.8827   21.9881 H   0  0  0  0  0  0
  -28.1024  -29.1155   21.1589 H   0  0  0  0  0  0
  -26.0469  -25.9634   19.0408 H   0  0  0  0  0  0
  -23.9757  -27.2772   19.0609 H   0  0  0  0  0  0
  -23.7191  -30.5945   19.3998 H   0  0  0  0  0  0
  -22.7342  -29.2406   19.8673 H   0  0  0  0  0  0
  -25.1309  -36.1976   25.0837 H   0  0  0  0  0  0
  -20.9966  -28.3318   24.1430 H   0  0  0  0  0  0
  -20.5783  -26.2303   23.3674 H   0  0  0  0  0  0
  -21.6677  -26.7444   22.1191 H   0  0  0  0  0  0
  -19.6983  -25.6217   21.1341 H   0  0  0  0  0  0
  -19.6786  -27.3149   20.6781 H   0  0  0  0  0  0
  -17.4285  -26.6648   21.3955 H   0  0  0  0  0  0
  -18.0325  -25.9973   22.8953 H   0  0  0  0  0  0
  -19.7923  -30.7290   24.2154 H   0  0  0  0  0  0
  -17.4942  -31.6242   24.5054 H   0  0  0  0  0  0
  -15.5308  -30.2907   23.7533 H   0  0  0  0  0  0
  -15.8684  -28.0743   22.7008 H   0  0  0  0  0  0
  -24.5913  -30.6971   25.7761 H   0  0  0  0  0  0
  -24.8932  -32.2775   26.4922 H   0  0  0  0  0  0
  -25.8122  -30.8758   27.0156 H   0  0  0  0  0  0
  -26.2792  -29.6731   24.1140 H   0  0  0  0  0  0
  -27.4104  -29.7225   25.4454 H   0  0  0  0  0  0
  -27.8605  -30.4282   23.9116 H   0  0  0  0  0  0
  -27.2618  -33.3565   26.2028 H   0  0  0  0  0  0
  -28.3808  -32.6869   25.0236 H   0  0  0  0  0  0
  -28.0717  -31.8393   26.5318 H   0  0  0  0  0  0
  -28.2601  -38.0109   24.7485 H   0  0  0  0  0  0
  -28.1095  -36.2638   24.6320 H   0  0  0  0  0  0
  -27.2299  -37.1501   25.8853 H   0  0  0  0  0  0
  -20.9261  -29.8685   21.6860 H   0  0  0  0  0  0
  -26.0206  -38.2869   24.1367 H   0  0  0  0  0  0
  -31.3249  -20.7044   19.8203 H   0  0  0  0  0  0
  -32.4902  -16.7052   20.2089 H   0  0  0  0  0  0
  -26.6486  -19.3192   21.2302 H   0  0  0  0  0  0
  -26.2361  -18.2669   22.5712 H   0  0  0  0  0  0
  -27.5719  -19.3980   22.7521 H   0  0  0  0  0  0
  -27.0456  -22.3539   20.4347 H   0  0  0  0  0  0
  -27.6212  -23.1308   21.8686 H   0  0  0  0  0  0
  -27.3603  -24.2868   19.3209 H   0  0  0  0  0  0
  -29.0614  -24.0584   19.3935 H   0  0  0  0  0  0
  -29.2172  -25.3902   21.4838 H   0  0  0  0  0  0
  -27.4923  -25.5115   21.6017 H   0  0  0  0  0  0
  -27.8549  -20.3536   20.5697 H   0  0  0  0  0  0
  -29.1165  -15.4075   21.2329 H   0  0  0  0  0  0
  1 25  1  0  0  0
  1 30  2  0  0  0
  1 84  1  0  0  0
  2  3  1  0  0  0
  2 25  1  0  0  0
  2 88  1  0  0  0
  2 89  1  0  0  0
  3  4  1  0  0  0
  3 90  1  0  0  0
  3 91  1  0  0  0
  4  5  1  0  0  0
  4 92  1  0  0  0
  4 93  1  0  0  0
  5  6  1  0  0  0
  5 26  1  0  0  0
  5 94  1  0  0  0
  6 25  1  0  0  0
  6 95  1  0  0  0
  6 96  1  0  0  0
  7  8  2  0  0  0
  7 26  1  0  0  0
  7 29  1  0  0  0
  8  9  1  0  0  0
  8 22  1  0  0  0
  9 10  1  0  0  0
  9 27  2  0  0  0
 10 11  2  0  0  0
 10 15  1  0  0  0
 11 12  1  0  0  0
 11 97  1  0  0  0
 12 13  2  0  0  0
 12 98  1  0  0  0
 13 14  1  0  0  0
 13 31  1  0  0  0
 14 15  2  0  0  0
 14 99  1  0  0  0
 15100  1  0  0  0
 16 17  2  0  0  0
 16 21  1  0  0  0
 16 31  1  0  0  0
 17 18  1  0  0  0
 17101  1  0  0  0
 18 19  2  0  0  0
 18102  1  0  0  0
 19 20  1  0  0  0
 19 24  1  0  0  0
 20 21  2  0  0  0
 20103  1  0  0  0
 21 23  1  0  0  0
 22 28  1  0  0  0
 22 32  2  0  0  0
 26 27  1  0  0  0
 28104  1  0  0  0
 28105  1  0  0  0
 29106  1  0  0  0
 29107  1  0  0  0
 33 34  1  0  0  0
 33 66  1  0  0  0
 33 70  2  0  0  0
 34 36  1  0  0  0
 34 59  1  0  0  0
 34108  1  0  0  0
 35 44  2  0  0  0
 35 45  1  0  0  0
 35 68  1  0  0  0
 36 56  1  0  0  0
 36109  1  0  0  0
 37 39  1  0  0  0
 37 47  1  0  0  0
 37 66  1  0  0  0
 37110  1  0  0  0
 38 43  2  0  0  0
 38 46  1  0  0  0
 38 47  1  0  0  0
 39 64  1  0  0  0
 39 67  2  0  0  0
 40 52  1  0  0  0
 40 53  2  0  0  0
 40 58  1  0  0  0
 41111  1  0  0  0
 41112  1  0  0  0
 41113  1  0  0  0
 41 48  1  0  0  0
 42 43  1  0  0  0
 42 66  1  0  0  0
 42114  1  0  0  0
 42115  1  0  0  0
 43 44  1  0  0  0
 44116  1  0  0  0
 45 46  2  0  0  0
 45117  1  0  0  0
 46118  1  0  0  0
 47119  1  0  0  0
 47120  1  0  0  0
 48 56  1  0  0  0
 48 65  1  0  0  0
 48121  1  0  0  0
 49 50  1  0  0  0
 49 53  1  0  0  0
 49 64  1  0  0  0
 49122  1  0  0  0
 50 51  1  0  0  0
 50123  1  0  0  0
 50124  1  0  0  0
 51 52  1  0  0  0
 51125  1  0  0  0
 51126  1  0  0  0
 52127  1  0  0  0
 52128  1  0  0  0
 53 54  1  0  0  0
 54 55  2  0  0  0
 54129  1  0  0  0
 55 57  1  0  0  0
 55130  1  0  0  0
 56 69  2  0  0  0
 57 58  2  0  0  0
 57131  1  0  0  0
 58132  1  0  0  0
 59 60  1  0  0  0
 59 61  1  0  0  0
 59 62  1  0  0  0
 60133  1  0  0  0
 60134  1  0  0  0
 60135  1  0  0  0
 61136  1  0  0  0
 61137  1  0  0  0
 61138  1  0  0  0
 62139  1  0  0  0
 62140  1  0  0  0
 62141  1  0  0  0
 63 65  1  0  0  0
 63142  1  0  0  0
 63143  1  0  0  0
 63144  1  0  0  0
 64145  1  0  0  0
 65146  1  0  0  0
 68 82  1  0  0  0
 71 74  2  0  0  0
 71 76  1  0  0  0
 71147  1  0  0  0
 72 75  1  0  0  0
 72 76  2  0  0  0
 72148  1  0  0  0
 73 74  1  0  0  0
 73 75  2  0  0  0
 73 77  1  0  0  0
 74 83  1  0  0  0
 75 84  1  0  0  0
 76 87  1  0  0  0
 77 79  1  0  0  0
 77 85  2  0  0  0
 78 80  1  0  0  0
 78 83  1  0  0  0
 78 86  2  0  0  0
 79149  1  0  0  0
 79150  1  0  0  0
 79151  1  0  0  0
 80 81  1  0  0  0
 80152  1  0  0  0
 80153  1  0  0  0
 81 82  1  0  0  0
 81154  1  0  0  0
 81155  1  0  0  0
 82156  1  0  0  0
 82157  1  0  0  0
 83158  1  0  0  0
 84159  1  0  0  0
M  ISO  4   1 100  68 101  82 101  84 100
M  END
> <chiral flag>
0

> <version>
0

> <s_m_source_file>
/data/baiqing/PycharmProjects/Reinvent-master-3.2/result/LINK_invent/BTK/process_docking_weight1_custom_product_contain_oxygen_bond_distance_aromatic_linkinvent_7_9_3/rearranged_h_0172.sdf

> <i_m_source_file_index>
50

> <r_mmod_Potential_Energy-OPLS-2005>
90.706916809082

> <r_mmod_Stretch_Energy-OPLS-2005>
61.3009757995605

> <r_mmod_Bend_Energy-OPLS-2005>
114.627227783203

> <r_mmod_Torsional_Energy-OPLS-2005>
277.07177734375

> <r_mmod_Improper_Torsional_Energy-OPLS-2005>
6.44882583618164

> <r_mmod_Van_der_Waal_Energy-OPLS-2005>
186.276672363281

> <r_mmod_Electrostatic_Energy-OPLS-2005>
-345.538421630859

> <r_mmod_Solvation_Energy-OPLS-2005>
-228.352203369141

> <b_mmod_Minimization_Converged-OPLS-2005>
0

> <r_mmod_RMS_Derivative-OPLS-2005>
4.15958118438721

$$$$
50
                    3D
 Structure written by MMmdl.
167175  0  0  1  0            999 V2000
  -30.7392  -14.4769   20.5928 C   0  0  0  0  0  0
  -30.4204  -12.3100   19.4773 C   0  0  0  0  0  0
  -29.5113  -12.5034   18.2437 C   0  0  0  0  0  0
  -28.0312  -12.3658   18.6422 C   0  0  0  0  0  0
  -27.6646  -13.2131   19.8895 C   0  0  2  0  0  0
  -28.6999  -13.0366   21.0268 C   0  0  0  0  0  0
  -25.2598  -13.8105   20.5740 C   0  0  0  0  0  0
  -24.1830  -13.0366   20.9213 C   0  0  0  0  0  0
  -24.6396  -11.6856   20.8781 C   0  0  0  0  0  0
  -23.9047  -10.4247   21.0453 C   0  0  0  0  0  0
  -24.3581   -9.4155   21.9223 C   0  0  0  0  0  0
  -23.6268   -8.2174   22.0754 C   0  0  0  0  0  0
  -22.4265   -8.0234   21.3520 C   0  0  0  0  0  0
  -21.9901   -9.0226   20.4624 C   0  0  0  0  0  0
  -22.7224  -10.2119   20.3070 C   0  0  0  0  0  0
  -21.6814   -6.0739   22.5276 C   0  0  0  0  0  0
  -21.3979   -6.5637   23.8208 C   0  0  0  0  0  0
  -21.3691   -5.6769   24.9149 C   0  0  0  0  0  0
  -21.6072   -4.3038   24.7183 C   0  0  0  0  0  0
  -21.8823   -3.8132   23.4295 C   0  0  0  0  0  0
  -21.9166   -4.6966   22.3366 C   0  0  0  0  0  0
  -22.7863  -13.5232   21.1836 C   0  0  0  0  0  0
  -22.1647   -4.2147   21.0944 F   0  0  0  0  0  0
  -21.5668   -3.4508   25.7688 F   0  0  0  0  0  0
  -30.0427  -13.3114   20.4872 N   0  0  0  0  0  0
  -26.3039  -12.9306   20.3434 N   0  0  0  0  0  0
  -25.9332  -11.6466   20.5837 N   0  0  0  0  0  0
  -22.0494  -12.8234   22.0408 N   0  0  0  0  0  0
  -25.4265  -15.1772   20.4157 N   0  0  0  0  0  0
  -31.8690  -14.6202   20.1198 O   0  0  0  0  0  0
  -21.6585   -6.8865   21.4244 O   0  0  0  0  0  0
  -22.3604  -14.5588   20.6744 O   0  0  0  0  0  0
  -24.6108  -31.8661   23.2069 C   0  0  0  0  0  0
  -25.9013  -32.4812   23.8385 C   0  0  1  0  0  0
  -27.2721  -27.4576   20.1234 C   0  0  0  0  0  0
  -25.5884  -33.8616   24.2314 N   0  0  0  0  0  0
  -23.4014  -30.4826   21.5418 C   0  0  2  0  0  0
  -24.8603  -28.9386   20.1222 C   0  0  0  0  0  0
  -22.7381  -29.4661   22.4963 C   0  0  0  0  0  0
  -18.0258  -28.1397   22.8489 C   0  0  0  0  0  0
  -24.1493  -36.7309   23.2653 C   0  0  0  0  0  0
  -25.9232  -30.8424   21.3539 C   0  0  0  0  0  0
  -26.0112  -29.4732   20.7126 C   0  0  0  0  0  0
  -27.2164  -28.7412   20.7047 C   0  0  0  0  0  0
  -26.1028  -26.9190   19.5384 C   0  0  0  0  0  0
  -24.9011  -27.6597   19.5314 C   0  0  0  0  0  0
  -23.6156  -29.7981   20.1623 C   0  0  0  0  0  0
  -25.4113  -36.3102   24.0346 C   0  0  1  0  0  0
  -20.5833  -28.3686   23.1308 C   0  0  2  0  0  0
  -20.6743  -26.9425   22.5422 C   0  0  0  0  0  0
  -19.5742  -26.6400   21.5205 C   0  0  0  0  0  0
  -18.1910  -26.7956   22.1608 C   0  0  0  0  0  0
  -19.1498  -28.8857   23.2905 C   0  0  0  0  0  0
  -18.9436  -30.1443   23.8930 C   0  0  0  0  0  0
  -17.6453  -30.6606   24.0563 C   0  0  0  0  0  0
  -25.9044  -34.9460   23.5129 C   0  0  0  0  0  0
  -16.5338  -29.9114   23.6329 C   0  0  0  0  0  0
  -16.7240  -28.6517   23.0358 C   0  0  0  0  0  0
  -26.4465  -31.6598   25.0706 C   0  0  0  0  0  0
  -25.3754  -31.3682   26.1468 C   0  0  0  0  0  0
  -27.0307  -30.3049   24.6082 C   0  0  0  0  0  0
  -27.6050  -32.4317   25.7459 C   0  0  0  0  0  0
  -27.5574  -37.1815   24.8468 C   0  0  0  0  0  0
  -21.4107  -29.3051   22.3703 N   0  0  0  0  0  0
  -26.4291  -37.3781   23.9407 N   0  0  0  0  0  0
  -24.6620  -31.0782   22.0949 N   0  0  0  0  0  0
  -23.4143  -28.8217   23.3023 O   0  0  0  0  0  0
  -28.4868  -26.8079   20.1145 O   0  0  0  0  0  0
  -26.5585  -34.8920   22.4685 O   0  0  0  0  0  0
  -23.5299  -32.1390   23.7477 O   0  0  0  0  0  0
  -30.1543  -18.0679   21.0425 C   0  0  0  0  0  0
  -29.7358  -16.7730   19.0046 C   0  0  0  0  0  0
  -30.0156  -16.8033   20.3913 C   0  0  0  0  0  0
  -30.0357  -19.2837   20.2971 C   0  0  0  0  0  0
  -29.7462  -19.2021   18.9179 C   0  0  0  0  0  0
  -29.6028  -17.9592   18.2754 C   0  0  0  0  0  0
  -29.8483  -25.0246   21.0514 C   0  0  0  0  0  0
  -30.9048  -21.1848   21.7190 C   0  0  0  0  0  0
  -31.7621  -23.8578   19.9504 C   0  0  0  0  0  0
  -29.4995  -22.7923   23.0190 C   0  0  0  0  0  0
  -31.9505  -23.2045   22.8735 C   0  0  0  0  0  0
  -28.5230  -25.3958   20.3503 C   0  0  0  0  0  0
  -30.4796  -23.6286   20.7860 C   0  0  1  0  0  0
  -30.7159  -22.7114   22.0646 C   0  0  0  0  0  0
  -29.5943  -20.3542   18.1475 N   0  0  0  0  0  0
  -30.0571  -20.6151   20.8445 N   0  0  0  0  0  0
  -30.0801  -15.5477   21.0879 N   0  0  0  0  0  0
  -30.4145  -25.8449   21.7820 O   0  0  0  0  0  0
  -31.7858  -20.5242   22.2777 O   0  0  0  0  0  0
  -29.3287  -17.9169   16.9498 F   0  0  0  0  0  0
  -31.4687  -12.3923   19.1943 H   0  0  0  0  0  0
  -30.3181  -11.3083   19.8976 H   0  0  0  0  0  0
  -29.7571  -11.7622   17.4835 H   0  0  0  0  0  0
  -29.6928  -13.4769   17.7865 H   0  0  0  0  0  0
  -27.8392  -11.3071   18.8284 H   0  0  0  0  0  0
  -27.3928  -12.6531   17.8072 H   0  0  0  0  0  0
  -27.6994  -14.2573   19.5817 H   0  0  0  0  0  0
  -28.6653  -12.0207   21.4247 H   0  0  0  0  0  0
  -28.4587  -13.6866   21.8704 H   0  0  0  0  0  0
  -25.2738   -9.5568   22.4794 H   0  0  0  0  0  0
  -23.9986   -7.4517   22.7431 H   0  0  0  0  0  0
  -21.0851   -8.8738   19.8890 H   0  0  0  0  0  0
  -22.3749  -10.9653   19.6143 H   0  0  0  0  0  0
  -21.1985   -7.6139   23.9699 H   0  0  0  0  0  0
  -21.1542   -6.0491   25.9062 H   0  0  0  0  0  0
  -22.0606   -2.7585   23.2734 H   0  0  0  0  0  0
  -22.4161  -11.9895   22.4746 H   0  0  0  0  0  0
  -21.1099  -13.1222   22.2629 H   0  0  0  0  0  0
  -24.6530  -15.8254   20.5107 H   0  0  0  0  0  0
  -26.2848  -15.6132   20.1049 H   0  0  0  0  0  0
  -26.7073  -32.5542   23.1155 H   0  0  0  0  0  0
  -25.0059  -33.9769   25.0471 H   0  0  0  0  0  0
  -22.6910  -31.2970   21.3909 H   0  0  0  0  0  0
  -23.3720  -35.9679   23.3356 H   0  0  0  0  0  0
  -24.3582  -36.8878   22.2058 H   0  0  0  0  0  0
  -23.7269  -37.6548   23.6621 H   0  0  0  0  0  0
  -26.0235  -31.6014   20.5763 H   0  0  0  0  0  0
  -26.8138  -30.9076   21.9683 H   0  0  0  0  0  0
  -28.1088  -29.1579   21.1530 H   0  0  0  0  0  0
  -26.1213  -25.9432   19.0750 H   0  0  0  0  0  0
  -24.0171  -27.2401   19.0731 H   0  0  0  0  0  0
  -23.7202  -30.5607   19.3894 H   0  0  0  0  0  0
  -22.7459  -29.2058   19.8724 H   0  0  0  0  0  0
  -25.1291  -36.1982   25.0834 H   0  0  0  0  0  0
  -20.9943  -28.3276   24.1418 H   0  0  0  0  0  0
  -20.5635  -26.2308   23.3605 H   0  0  0  0  0  0
  -21.6618  -26.7478   22.1217 H   0  0  0  0  0  0
  -19.6913  -25.6307   21.1237 H   0  0  0  0  0  0
  -19.6702  -27.3195   20.6719 H   0  0  0  0  0  0
  -17.4186  -26.6683   21.4001 H   0  0  0  0  0  0
  -18.0339  -26.0089   22.9000 H   0  0  0  0  0  0
  -19.7915  -30.7231   24.2348 H   0  0  0  0  0  0
  -17.5011  -31.6294   24.5165 H   0  0  0  0  0  0
  -15.5344  -30.3036   23.7646 H   0  0  0  0  0  0
  -15.8626  -28.0848   22.7098 H   0  0  0  0  0  0
  -24.5918  -30.7052   25.7789 H   0  0  0  0  0  0
  -24.8958  -32.2825   26.4969 H   0  0  0  0  0  0
  -25.8125  -30.8800   27.0190 H   0  0  0  0  0  0
  -26.2839  -29.6782   24.1197 H   0  0  0  0  0  0
  -27.4137  -29.7326   25.4544 H   0  0  0  0  0  0
  -27.8641  -30.4362   23.9179 H   0  0  0  0  0  0
  -27.2680  -33.3600   26.2080 H   0  0  0  0  0  0
  -28.3837  -32.6912   25.0275 H   0  0  0  0  0  0
  -28.0751  -31.8427   26.5345 H   0  0  0  0  0  0
  -28.2612  -38.0092   24.7469 H   0  0  0  0  0  0
  -28.1038  -36.2612   24.6337 H   0  0  0  0  0  0
  -27.2280  -37.1522   25.8872 H   0  0  0  0  0  0
  -20.9270  -29.8758   21.6906 H   0  0  0  0  0  0
  -26.0183  -38.2867   24.1386 H   0  0  0  0  0  0
  -30.3338  -18.1091   22.1075 H   0  0  0  0  0  0
  -29.5972  -15.8442   18.4768 H   0  0  0  0  0  0
  -31.5276  -24.3085   18.9856 H   0  0  0  0  0  0
  -32.3013  -22.9311   19.7577 H   0  0  0  0  0  0
  -32.4498  -24.5420   20.4547 H   0  0  0  0  0  0
  -29.5678  -22.0555   23.8207 H   0  0  0  0  0  0
  -28.5606  -22.6249   22.4865 H   0  0  0  0  0  0
  -29.4340  -23.7694   23.5038 H   0  0  0  0  0  0
  -32.1100  -22.6081   23.7711 H   0  0  0  0  0  0
  -31.8375  -24.2347   23.2069 H   0  0  0  0  0  0
  -32.8718  -23.1535   22.2944 H   0  0  0  0  0  0
  -27.6974  -25.0954   20.9941 H   0  0  0  0  0  0
  -28.4441  -24.8587   19.4074 H   0  0  0  0  0  0
  -29.7659  -23.1170   20.1400 H   0  0  0  0  0  0
  -30.4104  -20.9551   18.1661 H   0  0  0  0  0  0
  -29.4133  -20.0773   17.1869 H   0  0  0  0  0  0
  -29.4609  -21.2608   20.3486 H   0  0  0  0  0  0
  -29.2929  -15.3398   21.6849 H   0  0  0  0  0  0
  1 25  1  0  0  0
  1 30  2  0  0  0
  1 87  1  0  0  0
  2  3  1  0  0  0
  2 25  1  0  0  0
  2 91  1  0  0  0
  2 92  1  0  0  0
  3  4  1  0  0  0
  3 93  1  0  0  0
  3 94  1  0  0  0
  4  5  1  0  0  0
  4 95  1  0  0  0
  4 96  1  0  0  0
  5  6  1  0  0  0
  5 26  1  0  0  0
  5 97  1  0  0  0
  6 25  1  0  0  0
  6 98  1  0  0  0
  6 99  1  0  0  0
  7  8  2  0  0  0
  7 26  1  0  0  0
  7 29  1  0  0  0
  8  9  1  0  0  0
  8 22  1  0  0  0
  9 10  1  0  0  0
  9 27  2  0  0  0
 10 11  2  0  0  0
 10 15  1  0  0  0
 11 12  1  0  0  0
 11100  1  0  0  0
 12 13  2  0  0  0
 12101  1  0  0  0
 13 14  1  0  0  0
 13 31  1  0  0  0
 14 15  2  0  0  0
 14102  1  0  0  0
 15103  1  0  0  0
 16 17  2  0  0  0
 16 21  1  0  0  0
 16 31  1  0  0  0
 17 18  1  0  0  0
 17104  1  0  0  0
 18 19  2  0  0  0
 18105  1  0  0  0
 19 20  1  0  0  0
 19 24  1  0  0  0
 20 21  2  0  0  0
 20106  1  0  0  0
 21 23  1  0  0  0
 22 28  1  0  0  0
 22 32  2  0  0  0
 26 27  1  0  0  0
 28107  1  0  0  0
 28108  1  0  0  0
 29109  1  0  0  0
 29110  1  0  0  0
 33 34  1  0  0  0
 33 66  1  0  0  0
 33 70  2  0  0  0
 34 36  1  0  0  0
 34 59  1  0  0  0
 34111  1  0  0  0
 35 44  2  0  0  0
 35 45  1  0  0  0
 35 68  1  0  0  0
 36 56  1  0  0  0
 36112  1  0  0  0
 37 39  1  0  0  0
 37 47  1  0  0  0
 37 66  1  0  0  0
 37113  1  0  0  0
 38 43  2  0  0  0
 38 46  1  0  0  0
 38 47  1  0  0  0
 39 64  1  0  0  0
 39 67  2  0  0  0
 40 52  1  0  0  0
 40 53  2  0  0  0
 40 58  1  0  0  0
 41114  1  0  0  0
 41115  1  0  0  0
 41116  1  0  0  0
 41 48  1  0  0  0
 42 43  1  0  0  0
 42 66  1  0  0  0
 42117  1  0  0  0
 42118  1  0  0  0
 43 44  1  0  0  0
 44119  1  0  0  0
 45 46  2  0  0  0
 45120  1  0  0  0
 46121  1  0  0  0
 47122  1  0  0  0
 47123  1  0  0  0
 48 56  1  0  0  0
 48 65  1  0  0  0
 48124  1  0  0  0
 49 50  1  0  0  0
 49 53  1  0  0  0
 49 64  1  0  0  0
 49125  1  0  0  0
 50 51  1  0  0  0
 50126  1  0  0  0
 50127  1  0  0  0
 51 52  1  0  0  0
 51128  1  0  0  0
 51129  1  0  0  0
 52130  1  0  0  0
 52131  1  0  0  0
 53 54  1  0  0  0
 54 55  2  0  0  0
 54132  1  0  0  0
 55 57  1  0  0  0
 55133  1  0  0  0
 56 69  2  0  0  0
 57 58  2  0  0  0
 57134  1  0  0  0
 58135  1  0  0  0
 59 60  1  0  0  0
 59 61  1  0  0  0
 59 62  1  0  0  0
 60136  1  0  0  0
 60137  1  0  0  0
 60138  1  0  0  0
 61139  1  0  0  0
 61140  1  0  0  0
 61141  1  0  0  0
 62142  1  0  0  0
 62143  1  0  0  0
 62144  1  0  0  0
 63 65  1  0  0  0
 63145  1  0  0  0
 63146  1  0  0  0
 63147  1  0  0  0
 64148  1  0  0  0
 65149  1  0  0  0
 68 82  1  0  0  0
 71 73  2  0  0  0
 71 74  1  0  0  0
 71150  1  0  0  0
 72 73  1  0  0  0
 72 76  2  0  0  0
 72151  1  0  0  0
 73 87  1  0  0  0
 74 75  2  0  0  0
 74 86  1  0  0  0
 75 76  1  0  0  0
 75 85  1  0  0  0
 76 90  1  0  0  0
 77 82  1  0  0  0
 77 83  1  0  0  0
 77 88  2  0  0  0
 78 84  1  0  0  0
 78 86  1  0  0  0
 78 89  2  0  0  0
 79152  1  0  0  0
 79153  1  0  0  0
 79154  1  0  0  0
 79 83  1  0  0  0
 80155  1  0  0  0
 80156  1  0  0  0
 80157  1  0  0  0
 80 84  1  0  0  0
 81 84  1  0  0  0
 81158  1  0  0  0
 81159  1  0  0  0
 81160  1  0  0  0
 82161  1  0  0  0
 82162  1  0  0  0
 83 84  1  0  0  0
 83163  1  0  0  0
 85164  1  0  0  0
 85165  1  0  0  0
 86166  1  0  0  0
 87167  1  0  0  0
M  ISO  4   1 100  68 101  82 101  87 100
M  END
> <chiral flag>
0

> <version>
0

> <s_m_source_file>
/data/baiqing/PycharmProjects/Reinvent-master-3.2/result/LINK_invent/BTK/process_docking_weight1_custom_product_contain_oxygen_bond_distance_aromatic_linkinvent_7_9_3/rearranged_h_0172.sdf

> <i_m_source_file_index>
51

> <r_mmod_Potential_Energy-OPLS-2005>
-29.827091217041

> <r_mmod_Stretch_Energy-OPLS-2005>
51.4642143249512

> <r_mmod_Bend_Energy-OPLS-2005>
119.78874206543

> <r_mmod_Torsional_Energy-OPLS-2005>
299.2392578125

> <r_mmod_Improper_Torsional_Energy-OPLS-2005>
13.3309125900269

> <r_mmod_Van_der_Waal_Energy-OPLS-2005>
160.237609863281

> <r_mmod_Electrostatic_Energy-OPLS-2005>
-439.212921142578

> <r_mmod_Solvation_Energy-OPLS-2005>
-250.420974731445

> <b_mmod_Minimization_Converged-OPLS-2005>
0

> <r_mmod_RMS_Derivative-OPLS-2005>
5.7323145866394

$$$$
51
                    3D
 Structure written by MMmdl.
155163  0  0  1  0            999 V2000
  -30.7021  -14.4995   20.5824 C   0  0  0  0  0  0
  -30.4350  -12.3281   19.4393 C   0  0  0  0  0  0
  -29.5094  -12.5161   18.2190 C   0  0  0  0  0  0
  -28.0311  -12.3676   18.6256 C   0  0  0  0  0  0
  -27.6677  -13.2112   19.8763 C   0  0  2  0  0  0
  -28.7073  -13.0049   21.0037 C   0  0  0  0  0  0
  -25.2634  -13.8178   20.5666 C   0  0  0  0  0  0
  -24.1886  -13.0449   20.9154 C   0  0  0  0  0  0
  -24.6449  -11.6913   20.8722 C   0  0  0  0  0  0
  -23.9111  -10.4294   21.0405 C   0  0  0  0  0  0
  -24.3647   -9.4204   21.9189 C   0  0  0  0  0  0
  -23.6304   -8.2249   22.0763 C   0  0  0  0  0  0
  -22.4283   -8.0301   21.3553 C   0  0  0  0  0  0
  -21.9933   -9.0280   20.4652 C   0  0  0  0  0  0
  -22.7281  -10.2151   20.3056 C   0  0  0  0  0  0
  -21.6858   -6.0745   22.5282 C   0  0  0  0  0  0
  -21.4010   -6.5642   23.8214 C   0  0  0  0  0  0
  -21.3658   -5.6794   24.9174 C   0  0  0  0  0  0
  -21.6049   -4.3059   24.7231 C   0  0  0  0  0  0
  -21.8821   -3.8153   23.4346 C   0  0  0  0  0  0
  -21.9197   -4.6971   22.3402 C   0  0  0  0  0  0
  -22.7907  -13.5252   21.1813 C   0  0  0  0  0  0
  -22.1664   -4.2160   21.0978 F   0  0  0  0  0  0
  -21.5633   -3.4541   25.7741 F   0  0  0  0  0  0
  -30.0445  -13.3111   20.4655 N   0  0  0  0  0  0
  -26.3073  -12.9345   20.3346 N   0  0  0  0  0  0
  -25.9380  -11.6502   20.5756 N   0  0  0  0  0  0
  -22.0535  -12.8254   22.0367 N   0  0  0  0  0  0
  -25.4376  -15.1898   20.4073 N   0  0  0  0  0  0
  -31.7967  -14.7085   20.0499 O   0  0  0  0  0  0
  -21.6645   -6.8901   21.4248 O   0  0  0  0  0  0
  -22.3594  -14.5556   20.6659 O   0  0  0  0  0  0
  -24.6177  -31.8671   23.2093 C   0  0  0  0  0  0
  -25.9055  -32.4819   23.8390 C   0  0  1  0  0  0
  -27.2227  -27.3965   20.0938 C   0  0  0  0  0  0
  -25.5892  -33.8617   24.2314 N   0  0  0  0  0  0
  -23.4071  -30.4947   21.5510 C   0  0  2  0  0  0
  -24.8508  -28.9657   20.1099 C   0  0  0  0  0  0
  -22.7429  -29.4659   22.4962 C   0  0  0  0  0  0
  -18.0279  -28.1376   22.8500 C   0  0  0  0  0  0
  -24.1488  -36.7326   23.2638 C   0  0  0  0  0  0
  -25.9419  -30.8220   21.3684 C   0  0  0  0  0  0
  -26.0166  -29.4556   20.7113 C   0  0  0  0  0  0
  -27.2052  -28.6798   20.7009 C   0  0  0  0  0  0
  -26.0351  -26.9499   19.4609 C   0  0  0  0  0  0
  -24.8573  -27.7144   19.4799 C   0  0  0  0  0  0
  -23.6156  -29.8358   20.1638 C   0  0  0  0  0  0
  -25.4106  -36.3118   24.0339 C   0  0  1  0  0  0
  -20.5873  -28.3667   23.1310 C   0  0  2  0  0  0
  -20.6763  -26.9400   22.5416 C   0  0  0  0  0  0
  -19.5732  -26.6383   21.5223 C   0  0  0  0  0  0
  -18.1914  -26.7917   22.1642 C   0  0  0  0  0  0
  -19.1528  -28.8835   23.2908 C   0  0  0  0  0  0
  -18.9455  -30.1441   23.8923 C   0  0  0  0  0  0
  -17.6460  -30.6583   24.0564 C   0  0  0  0  0  0
  -25.9035  -34.9481   23.5128 C   0  0  0  0  0  0
  -16.5350  -29.9088   23.6321 C   0  0  0  0  0  0
  -16.7267  -28.6503   23.0351 C   0  0  0  0  0  0
  -26.4456  -31.6607   25.0729 C   0  0  0  0  0  0
  -25.3711  -31.3723   26.1472 C   0  0  0  0  0  0
  -27.0270  -30.3040   24.6111 C   0  0  0  0  0  0
  -27.6029  -32.4326   25.7493 C   0  0  0  0  0  0
  -27.5582  -37.1813   24.8461 C   0  0  0  0  0  0
  -21.4151  -29.3043   22.3716 N   0  0  0  0  0  0
  -26.4291  -37.3797   23.9411 N   0  0  0  0  0  0
  -24.6745  -31.0752   22.1014 N   0  0  0  0  0  0
  -23.4194  -28.8182   23.2993 O   0  0  0  0  0  0
  -28.3584  -26.5946   20.1481 O   0  0  0  0  0  0
  -26.5611  -34.8933   22.4695 O   0  0  0  0  0  0
  -23.5364  -32.1434   23.7474 O   0  0  0  0  0  0
  -29.9113  -18.8442   19.7754 C   0  0  0  0  0  0
  -29.9873  -17.4131   19.7661 C   0  0  0  0  0  0
  -29.9450  -19.3706   21.0482 C   0  0  0  0  0  0
  -30.0851  -16.8026   20.9944 C   0  0  0  0  0  0
  -29.8790  -20.7644   21.5954 C   0  0  0  0  0  0
  -29.1364  -24.2248   20.6321 C   0  0  0  0  0  0
  -28.3646  -23.1556   22.8453 C   0  0  0  0  0  0
  -28.1181  -25.1741   19.9543 C   0  0  0  0  0  0
  -28.5374  -22.9604   21.3243 C   0  0  2  0  0  0
  -29.7973  -19.5466   18.5581 N   0  0  0  0  0  0
  -30.0771  -15.4642   21.2883 N   0  0  0  0  0  0
  -29.0945  -21.6384   20.9272 N   0  0  0  0  0  0
  -30.4577  -21.0528   22.6447 O   0  0  0  0  0  0
  -30.3450  -24.4805   20.6188 O   0  0  0  0  0  0
  -29.9161  -16.7461   18.6352 F   0  0  0  0  0  0
  -30.1132  -18.0596   22.2238 S   0  0  0  0  0  0
  -31.4776  -12.4399   19.1358 H   0  0  0  0  0  0
  -30.3512  -11.3170   19.8396 H   0  0  0  0  0  0
  -29.7594  -11.7917   17.4435 H   0  0  0  0  0  0
  -29.6739  -13.5022   17.7817 H   0  0  0  0  0  0
  -27.8497  -11.3112   18.8261 H   0  0  0  0  0  0
  -27.3840  -12.6330   17.7889 H   0  0  0  0  0  0
  -27.7090  -14.2573   19.5733 H   0  0  0  0  0  0
  -28.6870  -11.9715   21.3504 H   0  0  0  0  0  0
  -28.4552  -13.6095   21.8750 H   0  0  0  0  0  0
  -25.2804   -9.5677   22.4754 H   0  0  0  0  0  0
  -24.0019   -7.4646   22.7485 H   0  0  0  0  0  0
  -21.0860   -8.8816   19.8955 H   0  0  0  0  0  0
  -22.3758  -10.9696   19.6155 H   0  0  0  0  0  0
  -21.1987   -7.6150   23.9723 H   0  0  0  0  0  0
  -21.1478   -6.0520   25.9082 H   0  0  0  0  0  0
  -22.0602   -2.7620   23.2844 H   0  0  0  0  0  0
  -22.4134  -11.9902   22.4751 H   0  0  0  0  0  0
  -21.1153  -13.1309   22.2535 H   0  0  0  0  0  0
  -24.6804  -15.8542   20.5270 H   0  0  0  0  0  0
  -26.3001  -15.6249   20.1050 H   0  0  0  0  0  0
  -26.7126  -32.5517   23.1156 H   0  0  0  0  0  0
  -24.9997  -33.9774   25.0427 H   0  0  0  0  0  0
  -22.6979  -31.3140   21.4144 H   0  0  0  0  0  0
  -23.3746  -35.9662   23.3304 H   0  0  0  0  0  0
  -24.3588  -36.8940   22.2055 H   0  0  0  0  0  0
  -23.7252  -37.6535   23.6649 H   0  0  0  0  0  0
  -26.0571  -31.5875   20.5989 H   0  0  0  0  0  0
  -26.8301  -30.8739   21.9863 H   0  0  0  0  0  0
  -28.0997  -29.0483   21.1830 H   0  0  0  0  0  0
  -25.9834  -26.0032   18.9440 H   0  0  0  0  0  0
  -23.9646  -27.3368   19.0019 H   0  0  0  0  0  0
  -23.7237  -30.6145   19.4074 H   0  0  0  0  0  0
  -22.7377  -29.2599   19.8653 H   0  0  0  0  0  0
  -25.1281  -36.1978   25.0828 H   0  0  0  0  0  0
  -20.9982  -28.3232   24.1424 H   0  0  0  0  0  0
  -20.5668  -26.2275   23.3608 H   0  0  0  0  0  0
  -21.6628  -26.7426   22.1205 H   0  0  0  0  0  0
  -19.6891  -25.6301   21.1237 H   0  0  0  0  0  0
  -19.6668  -27.3205   20.6765 H   0  0  0  0  0  0
  -17.4186  -26.6684   21.4046 H   0  0  0  0  0  0
  -18.0308  -26.0052   22.9030 H   0  0  0  0  0  0
  -19.7932  -30.7249   24.2309 H   0  0  0  0  0  0
  -17.5012  -31.6264   24.5158 H   0  0  0  0  0  0
  -15.5351  -30.3002   23.7615 H   0  0  0  0  0  0
  -15.8669  -28.0827   22.7052 H   0  0  0  0  0  0
  -24.5887  -30.7063   25.7812 H   0  0  0  0  0  0
  -24.8893  -32.2882   26.4904 H   0  0  0  0  0  0
  -25.8052  -30.8907   27.0243 H   0  0  0  0  0  0
  -26.2812  -29.6836   24.1126 H   0  0  0  0  0  0
  -27.3989  -29.7237   25.4565 H   0  0  0  0  0  0
  -27.8668  -30.4344   23.9282 H   0  0  0  0  0  0
  -27.2640  -33.3622   26.2074 H   0  0  0  0  0  0
  -28.3828  -32.6902   25.0316 H   0  0  0  0  0  0
  -28.0698  -31.8450   26.5407 H   0  0  0  0  0  0
  -28.2592  -38.0117   24.7517 H   0  0  0  0  0  0
  -28.1089  -36.2653   24.6265 H   0  0  0  0  0  0
  -27.2308  -37.1439   25.8865 H   0  0  0  0  0  0
  -20.9300  -29.8812   21.6989 H   0  0  0  0  0  0
  -26.0189  -38.2874   24.1409 H   0  0  0  0  0  0
  -27.8254  -22.3250   23.3014 H   0  0  0  0  0  0
  -27.8016  -24.0649   23.0595 H   0  0  0  0  0  0
  -29.3269  -23.2568   23.3493 H   0  0  0  0  0  0
  -27.1445  -24.9063   20.3655 H   0  0  0  0  0  0
  -28.0953  -24.9524   18.8872 H   0  0  0  0  0  0
  -27.5160  -22.8745   20.9511 H   0  0  0  0  0  0
  -29.9572  -18.9645   17.7411 H   0  0  0  0  0  0
  -30.3253  -20.4078   18.4892 H   0  0  0  0  0  0
  -29.3458  -15.1549   21.9106 H   0  0  0  0  0  0
  -28.7302  -21.2726   20.0546 H   0  0  0  0  0  0
  1 25  1  0  0  0
  1 30  2  0  0  0
  1 81  1  0  0  0
  2  3  1  0  0  0
  2 25  1  0  0  0
  2 87  1  0  0  0
  2 88  1  0  0  0
  3  4  1  0  0  0
  3 89  1  0  0  0
  3 90  1  0  0  0
  4  5  1  0  0  0
  4 91  1  0  0  0
  4 92  1  0  0  0
  5  6  1  0  0  0
  5 26  1  0  0  0
  5 93  1  0  0  0
  6 25  1  0  0  0
  6 94  1  0  0  0
  6 95  1  0  0  0
  7  8  2  0  0  0
  7 26  1  0  0  0
  7 29  1  0  0  0
  8  9  1  0  0  0
  8 22  1  0  0  0
  9 10  1  0  0  0
  9 27  2  0  0  0
 10 11  2  0  0  0
 10 15  1  0  0  0
 11 12  1  0  0  0
 11 96  1  0  0  0
 12 13  2  0  0  0
 12 97  1  0  0  0
 13 14  1  0  0  0
 13 31  1  0  0  0
 14 15  2  0  0  0
 14 98  1  0  0  0
 15 99  1  0  0  0
 16 17  2  0  0  0
 16 21  1  0  0  0
 16 31  1  0  0  0
 17 18  1  0  0  0
 17100  1  0  0  0
 18 19  2  0  0  0
 18101  1  0  0  0
 19 20  1  0  0  0
 19 24  1  0  0  0
 20 21  2  0  0  0
 20102  1  0  0  0
 21 23  1  0  0  0
 22 28  1  0  0  0
 22 32  2  0  0  0
 26 27  1  0  0  0
 28103  1  0  0  0
 28104  1  0  0  0
 29105  1  0  0  0
 29106  1  0  0  0
 33 34  1  0  0  0
 33 66  1  0  0  0
 33 70  2  0  0  0
 34 36  1  0  0  0
 34 59  1  0  0  0
 34107  1  0  0  0
 35 44  2  0  0  0
 35 45  1  0  0  0
 35 68  1  0  0  0
 36 56  1  0  0  0
 36108  1  0  0  0
 37 39  1  0  0  0
 37 47  1  0  0  0
 37 66  1  0  0  0
 37109  1  0  0  0
 38 43  2  0  0  0
 38 46  1  0  0  0
 38 47  1  0  0  0
 39 64  1  0  0  0
 39 67  2  0  0  0
 40 52  1  0  0  0
 40 53  2  0  0  0
 40 58  1  0  0  0
 41110  1  0  0  0
 41111  1  0  0  0
 41112  1  0  0  0
 41 48  1  0  0  0
 42 43  1  0  0  0
 42 66  1  0  0  0
 42113  1  0  0  0
 42114  1  0  0  0
 43 44  1  0  0  0
 44115  1  0  0  0
 45 46  2  0  0  0
 45116  1  0  0  0
 46117  1  0  0  0
 47118  1  0  0  0
 47119  1  0  0  0
 48 56  1  0  0  0
 48 65  1  0  0  0
 48120  1  0  0  0
 49 50  1  0  0  0
 49 53  1  0  0  0
 49 64  1  0  0  0
 49121  1  0  0  0
 50 51  1  0  0  0
 50122  1  0  0  0
 50123  1  0  0  0
 51 52  1  0  0  0
 51124  1  0  0  0
 51125  1  0  0  0
 52126  1  0  0  0
 52127  1  0  0  0
 53 54  1  0  0  0
 54 55  2  0  0  0
 54128  1  0  0  0
 55 57  1  0  0  0
 55129  1  0  0  0
 56 69  2  0  0  0
 57 58  2  0  0  0
 57130  1  0  0  0
 58131  1  0  0  0
 59 60  1  0  0  0
 59 61  1  0  0  0
 59 62  1  0  0  0
 60132  1  0  0  0
 60133  1  0  0  0
 60134  1  0  0  0
 61135  1  0  0  0
 61136  1  0  0  0
 61137  1  0  0  0
 62138  1  0  0  0
 62139  1  0  0  0
 62140  1  0  0  0
 63 65  1  0  0  0
 63141  1  0  0  0
 63142  1  0  0  0
 63143  1  0  0  0
 64144  1  0  0  0
 65145  1  0  0  0
 68 78  1  0  0  0
 71 72  1  0  0  0
 71 73  2  0  0  0
 71 80  1  0  0  0
 72 74  2  0  0  0
 72 85  1  0  0  0
 73 75  1  0  0  0
 73 86  1  0  0  0
 74 81  1  0  0  0
 74 86  1  0  0  0
 75 82  1  0  0  0
 75 83  2  0  0  0
 76 78  1  0  0  0
 76 79  1  0  0  0
 76 84  2  0  0  0
 77146  1  0  0  0
 77147  1  0  0  0
 77148  1  0  0  0
 77 79  1  0  0  0
 78149  1  0  0  0
 78150  1  0  0  0
 79 82  1  0  0  0
 79151  1  0  0  0
 80152  1  0  0  0
 80153  1  0  0  0
 81154  1  0  0  0
 82155  1  0  0  0
M  ISO  4   1 100  68 101  78 101  81 100
M  END
> <chiral flag>
0

> <version>
0

> <s_m_source_file>
/data/baiqing/PycharmProjects/Reinvent-master-3.2/result/LINK_invent/BTK/process_docking_weight1_custom_product_contain_oxygen_bond_distance_aromatic_linkinvent_7_9_3/rearranged_h_0172.sdf

> <i_m_source_file_index>
52

> <r_mmod_Potential_Energy-OPLS-2005>
-13.4050464630127

> <r_mmod_Stretch_Energy-OPLS-2005>
44.9597282409668

> <r_mmod_Bend_Energy-OPLS-2005>
116.81770324707

> <r_mmod_Torsional_Energy-OPLS-2005>
260.929870605469

> <r_mmod_Improper_Torsional_Energy-OPLS-2005>
8.75775718688965

> <r_mmod_Van_der_Waal_Energy-OPLS-2005>
135.681976318359

> <r_mmod_Electrostatic_Energy-OPLS-2005>
-330.163299560547

> <r_mmod_Solvation_Energy-OPLS-2005>
-269.617401123047

> <b_mmod_Minimization_Converged-OPLS-2005>
0

> <r_mmod_RMS_Derivative-OPLS-2005>
2.06479597091675

$$$$
52
                    3D
 Structure written by MMmdl.
152160  0  0  1  0            999 V2000
  -30.6178  -14.7140   20.4523 C   0  0  0  0  0  0
  -30.4295  -12.4253   19.5106 C   0  0  0  0  0  0
  -29.5231  -12.5093   18.2584 C   0  0  0  0  0  0
  -28.0416  -12.3415   18.6480 C   0  0  0  0  0  0
  -27.6456  -13.2290   19.8573 C   0  0  2  0  0  0
  -28.6773  -13.1193   20.9980 C   0  0  0  0  0  0
  -25.2530  -13.8192   20.5663 C   0  0  0  0  0  0
  -24.1816  -13.0445   20.9157 C   0  0  0  0  0  0
  -24.6391  -11.6918   20.8709 C   0  0  0  0  0  0
  -23.9068  -10.4302   21.0393 C   0  0  0  0  0  0
  -24.3617   -9.4222   21.9174 C   0  0  0  0  0  0
  -23.6298   -8.2254   22.0753 C   0  0  0  0  0  0
  -22.4280   -8.0281   21.3546 C   0  0  0  0  0  0
  -21.9910   -9.0254   20.4653 C   0  0  0  0  0  0
  -22.7233  -10.2138   20.3058 C   0  0  0  0  0  0
  -21.6864   -6.0737   22.5274 C   0  0  0  0  0  0
  -21.4019   -6.5643   23.8205 C   0  0  0  0  0  0
  -21.3659   -5.6795   24.9169 C   0  0  0  0  0  0
  -21.6040   -4.3056   24.7223 C   0  0  0  0  0  0
  -21.8822   -3.8146   23.4348 C   0  0  0  0  0  0
  -21.9194   -4.6962   22.3402 C   0  0  0  0  0  0
  -22.7845  -13.5233   21.1849 C   0  0  0  0  0  0
  -22.1666   -4.2148   21.0982 F   0  0  0  0  0  0
  -21.5624   -3.4543   25.7738 F   0  0  0  0  0  0
  -29.9948  -13.4818   20.4618 N   0  0  0  0  0  0
  -26.2942  -12.9386   20.3256 N   0  0  0  0  0  0
  -25.9319  -11.6533   20.5713 N   0  0  0  0  0  0
  -22.0509  -12.8219   22.0410 N   0  0  0  0  0  0
  -25.4272  -15.1917   20.4143 N   0  0  0  0  0  0
  -31.7798  -14.7960   20.0446 O   0  0  0  0  0  0
  -21.6646   -6.8880   21.4237 O   0  0  0  0  0  0
  -22.3523  -14.5543   20.6713 O   0  0  0  0  0  0
  -24.6322  -31.8547   23.2002 C   0  0  0  0  0  0
  -25.9151  -32.4757   23.8337 C   0  0  1  0  0  0
  -27.2050  -27.2618   20.1218 C   0  0  0  0  0  0
  -25.5945  -33.8558   24.2261 N   0  0  0  0  0  0
  -23.4268  -30.4806   21.5461 C   0  0  2  0  0  0
  -24.8701  -28.9342   20.1063 C   0  0  0  0  0  0
  -22.7499  -29.4599   22.4922 C   0  0  0  0  0  0
  -18.0307  -28.1378   22.8534 C   0  0  0  0  0  0
  -24.1488  -36.7285   23.2641 C   0  0  0  0  0  0
  -25.9737  -30.7658   21.3827 C   0  0  0  0  0  0
  -26.0419  -29.3917   20.7210 C   0  0  0  0  0  0
  -27.2120  -28.5665   20.7209 C   0  0  0  0  0  0
  -26.0153  -26.8857   19.4576 C   0  0  0  0  0  0
  -24.8622  -27.6900   19.4626 C   0  0  0  0  0  0
  -23.6408  -29.8192   20.1602 C   0  0  0  0  0  0
  -25.4113  -36.3072   24.0330 C   0  0  1  0  0  0
  -20.5898  -28.3716   23.1290 C   0  0  2  0  0  0
  -20.6782  -26.9417   22.5466 C   0  0  0  0  0  0
  -19.5744  -26.6314   21.5305 C   0  0  0  0  0  0
  -18.1969  -26.7871   22.1787 C   0  0  0  0  0  0
  -19.1549  -28.8881   23.2866 C   0  0  0  0  0  0
  -18.9470  -30.1509   23.8833 C   0  0  0  0  0  0
  -17.6470  -30.6641   24.0493 C   0  0  0  0  0  0
  -25.9053  -34.9441   23.5094 C   0  0  0  0  0  0
  -16.5361  -29.9091   23.6332 C   0  0  0  0  0  0
  -16.7290  -28.6480   23.0419 C   0  0  0  0  0  0
  -26.4513  -31.6587   25.0731 C   0  0  0  0  0  0
  -25.3732  -31.3745   26.1452 C   0  0  0  0  0  0
  -27.0374  -30.2999   24.6234 C   0  0  0  0  0  0
  -27.6067  -32.4328   25.7500 C   0  0  0  0  0  0
  -27.5579  -37.1798   24.8469 C   0  0  0  0  0  0
  -21.4209  -29.3057   22.3673 N   0  0  0  0  0  0
  -26.4294  -37.3765   23.9409 N   0  0  0  0  0  0
  -24.6969  -31.0503   22.0995 N   0  0  0  0  0  0
  -23.4203  -28.8121   23.3002 O   0  0  0  0  0  0
  -28.2844  -26.3500   20.2061 O   0  0  0  0  0  0
  -26.5621  -34.8915   22.4660 O   0  0  0  0  0  0
  -23.5472  -32.1394   23.7293 O   0  0  0  0  0  0
  -28.7807  -17.7115   21.7554 C   0  0  0  0  0  0
  -29.0950  -16.3682   21.7912 C   0  0  0  0  0  0
  -29.4337  -18.3024   20.6316 C   0  0  0  0  0  0
  -30.1409  -17.2694   20.0076 C   0  0  0  0  0  0
  -28.7435  -22.2121   19.9645 C   0  0  0  0  0  0
  -29.0007  -20.8761   20.8641 C   0  0  0  0  0  0
  -28.9334  -23.6939   20.5362 C   0  0  0  0  0  0
  -28.0268  -24.8896   19.9406 C   0  0  0  0  0  0
  -30.9655  -17.3059   18.7466 C   0  0  0  0  0  0
  -29.9547  -16.0514   20.7383 N   0  0  0  0  0  0
  -29.2911  -19.7087   20.1805 N   0  0  0  0  0  0
  -28.3963  -22.0773   18.7855 O   0  0  0  0  0  0
  -28.9293  -20.9221   22.0961 O   0  0  0  0  0  0
  -30.7371  -18.4292   18.0639 F   0  0  0  0  0  0
  -32.2732  -17.2781   18.9986 F   0  0  0  0  0  0
  -30.6631  -16.3042   17.9186 F   0  0  0  0  0  0
  -31.4770  -12.5246   19.2198 H   0  0  0  0  0  0
  -30.3520  -11.4398   19.9734 H   0  0  0  0  0  0
  -29.8088  -11.7430   17.5367 H   0  0  0  0  0  0
  -29.6649  -13.4694   17.7616 H   0  0  0  0  0  0
  -27.8844  -11.2915   18.8982 H   0  0  0  0  0  0
  -27.3965  -12.5486   17.7941 H   0  0  0  0  0  0
  -27.6549  -14.2597   19.5010 H   0  0  0  0  0  0
  -28.7016  -12.1008   21.3898 H   0  0  0  0  0  0
  -28.3849  -13.7334   21.8430 H   0  0  0  0  0  0
  -25.2770   -9.5702   22.4736 H   0  0  0  0  0  0
  -24.0014   -7.4659   22.7479 H   0  0  0  0  0  0
  -21.0830   -8.8775   19.8969 H   0  0  0  0  0  0
  -22.3683  -10.9675   19.6164 H   0  0  0  0  0  0
  -21.2017   -7.6152   23.9707 H   0  0  0  0  0  0
  -21.1477   -6.0530   25.9071 H   0  0  0  0  0  0
  -22.0601   -2.7611   23.2851 H   0  0  0  0  0  0
  -22.4145  -11.9879   22.4781 H   0  0  0  0  0  0
  -21.1140  -13.1262   22.2647 H   0  0  0  0  0  0
  -24.6698  -15.8516   20.5508 H   0  0  0  0  0  0
  -26.2973  -15.6355   20.1486 H   0  0  0  0  0  0
  -26.7219  -32.5390   23.1078 H   0  0  0  0  0  0
  -25.0107  -33.9689   25.0417 H   0  0  0  0  0  0
  -22.7226  -31.3031   21.4033 H   0  0  0  0  0  0
  -23.3745  -35.9623   23.3307 H   0  0  0  0  0  0
  -24.3585  -36.8901   22.2059 H   0  0  0  0  0  0
  -23.7242  -37.6486   23.6655 H   0  0  0  0  0  0
  -26.1121  -31.5270   20.6138 H   0  0  0  0  0  0
  -26.8534  -30.8106   22.0143 H   0  0  0  0  0  0
  -28.1059  -28.9052   21.2252 H   0  0  0  0  0  0
  -25.9346  -25.9436   18.9382 H   0  0  0  0  0  0
  -23.9680  -27.3409   18.9634 H   0  0  0  0  0  0
  -23.7582  -30.5973   19.4043 H   0  0  0  0  0  0
  -22.7593  -29.2485   19.8592 H   0  0  0  0  0  0
  -25.1289  -36.1930   25.0822 H   0  0  0  0  0  0
  -20.9961  -28.3337   24.1430 H   0  0  0  0  0  0
  -20.5655  -26.2344   23.3698 H   0  0  0  0  0  0
  -21.6665  -26.7392   22.1311 H   0  0  0  0  0  0
  -19.6893  -25.6181   21.1432 H   0  0  0  0  0  0
  -19.6638  -27.3039   20.6769 H   0  0  0  0  0  0
  -17.4175  -26.6459   21.4285 H   0  0  0  0  0  0
  -18.0487  -26.0125   22.9326 H   0  0  0  0  0  0
  -19.7940  -30.7369   24.2143 H   0  0  0  0  0  0
  -17.5038  -31.6368   24.5004 H   0  0  0  0  0  0
  -15.5358  -30.2975   23.7672 H   0  0  0  0  0  0
  -15.8694  -28.0746   22.7232 H   0  0  0  0  0  0
  -24.5898  -30.7099   25.7779 H   0  0  0  0  0  0
  -24.8942  -32.2928   26.4851 H   0  0  0  0  0  0
  -25.8054  -30.8934   27.0235 H   0  0  0  0  0  0
  -26.2979  -29.6718   24.1251 H   0  0  0  0  0  0
  -27.4043  -29.7278   25.4761 H   0  0  0  0  0  0
  -27.8850  -30.4258   23.9500 H   0  0  0  0  0  0
  -27.2664  -33.3617   26.2074 H   0  0  0  0  0  0
  -28.3876  -32.6899   25.0336 H   0  0  0  0  0  0
  -28.0733  -31.8461   26.5419 H   0  0  0  0  0  0
  -28.2604  -38.0086   24.7500 H   0  0  0  0  0  0
  -28.1069  -36.2618   24.6312 H   0  0  0  0  0  0
  -27.2301  -37.1468   25.8873 H   0  0  0  0  0  0
  -20.9381  -29.8827   21.6935 H   0  0  0  0  0  0
  -26.0178  -38.2844   24.1387 H   0  0  0  0  0  0
  -28.1343  -18.2098   22.4659 H   0  0  0  0  0  0
  -28.8089  -15.6298   22.5233 H   0  0  0  0  0  0
  -29.9801  -23.9412   20.3636 H   0  0  0  0  0  0
  -28.8097  -23.6531   21.6174 H   0  0  0  0  0  0
  -27.0275  -24.6536   20.3078 H   0  0  0  0  0  0
  -27.9830  -24.7758   18.8556 H   0  0  0  0  0  0
  -29.4113  -19.8669   19.1876 H   0  0  0  0  0  0
  1 25  1  0  0  0
  1 30  2  0  0  0
  1 80  1  0  0  0
  2  3  1  0  0  0
  2 25  1  0  0  0
  2 87  1  0  0  0
  2 88  1  0  0  0
  3  4  1  0  0  0
  3 89  1  0  0  0
  3 90  1  0  0  0
  4  5  1  0  0  0
  4 91  1  0  0  0
  4 92  1  0  0  0
  5  6  1  0  0  0
  5 26  1  0  0  0
  5 93  1  0  0  0
  6 25  1  0  0  0
  6 94  1  0  0  0
  6 95  1  0  0  0
  7  8  2  0  0  0
  7 26  1  0  0  0
  7 29  1  0  0  0
  8  9  1  0  0  0
  8 22  1  0  0  0
  9 10  1  0  0  0
  9 27  2  0  0  0
 10 11  2  0  0  0
 10 15  1  0  0  0
 11 12  1  0  0  0
 11 96  1  0  0  0
 12 13  2  0  0  0
 12 97  1  0  0  0
 13 14  1  0  0  0
 13 31  1  0  0  0
 14 15  2  0  0  0
 14 98  1  0  0  0
 15 99  1  0  0  0
 16 17  2  0  0  0
 16 21  1  0  0  0
 16 31  1  0  0  0
 17 18  1  0  0  0
 17100  1  0  0  0
 18 19  2  0  0  0
 18101  1  0  0  0
 19 20  1  0  0  0
 19 24  1  0  0  0
 20 21  2  0  0  0
 20102  1  0  0  0
 21 23  1  0  0  0
 22 28  1  0  0  0
 22 32  2  0  0  0
 26 27  1  0  0  0
 28103  1  0  0  0
 28104  1  0  0  0
 29105  1  0  0  0
 29106  1  0  0  0
 33 34  1  0  0  0
 33 66  1  0  0  0
 33 70  2  0  0  0
 34 36  1  0  0  0
 34 59  1  0  0  0
 34107  1  0  0  0
 35 44  2  0  0  0
 35 45  1  0  0  0
 35 68  1  0  0  0
 36 56  1  0  0  0
 36108  1  0  0  0
 37 39  1  0  0  0
 37 47  1  0  0  0
 37 66  1  0  0  0
 37109  1  0  0  0
 38 43  2  0  0  0
 38 46  1  0  0  0
 38 47  1  0  0  0
 39 64  1  0  0  0
 39 67  2  0  0  0
 40 52  1  0  0  0
 40 53  2  0  0  0
 40 58  1  0  0  0
 41110  1  0  0  0
 41111  1  0  0  0
 41112  1  0  0  0
 41 48  1  0  0  0
 42 43  1  0  0  0
 42 66  1  0  0  0
 42113  1  0  0  0
 42114  1  0  0  0
 43 44  1  0  0  0
 44115  1  0  0  0
 45 46  2  0  0  0
 45116  1  0  0  0
 46117  1  0  0  0
 47118  1  0  0  0
 47119  1  0  0  0
 48 56  1  0  0  0
 48 65  1  0  0  0
 48120  1  0  0  0
 49 50  1  0  0  0
 49 53  1  0  0  0
 49 64  1  0  0  0
 49121  1  0  0  0
 50 51  1  0  0  0
 50122  1  0  0  0
 50123  1  0  0  0
 51 52  1  0  0  0
 51124  1  0  0  0
 51125  1  0  0  0
 52126  1  0  0  0
 52127  1  0  0  0
 53 54  1  0  0  0
 54 55  2  0  0  0
 54128  1  0  0  0
 55 57  1  0  0  0
 55129  1  0  0  0
 56 69  2  0  0  0
 57 58  2  0  0  0
 57130  1  0  0  0
 58131  1  0  0  0
 59 60  1  0  0  0
 59 61  1  0  0  0
 59 62  1  0  0  0
 60132  1  0  0  0
 60133  1  0  0  0
 60134  1  0  0  0
 61135  1  0  0  0
 61136  1  0  0  0
 61137  1  0  0  0
 62138  1  0  0  0
 62139  1  0  0  0
 62140  1  0  0  0
 63 65  1  0  0  0
 63141  1  0  0  0
 63142  1  0  0  0
 63143  1  0  0  0
 64144  1  0  0  0
 65145  1  0  0  0
 68 78  1  0  0  0
 71 72  2  0  0  0
 71 73  1  0  0  0
 71146  1  0  0  0
 72 80  1  0  0  0
 72147  1  0  0  0
 73 74  2  0  0  0
 73 81  1  0  0  0
 74 79  1  0  0  0
 74 80  1  0  0  0
 75 76  1  0  0  0
 75 77  1  0  0  0
 75 82  2  0  0  0
 76 81  1  0  0  0
 76 83  2  0  0  0
 77 78  1  0  0  0
 77148  1  0  0  0
 77149  1  0  0  0
 78150  1  0  0  0
 78151  1  0  0  0
 79 84  1  0  0  0
 79 85  1  0  0  0
 79 86  1  0  0  0
 81152  1  0  0  0
M  ISO  4   1 100  68 101  78 101  80 100
M  END
> <chiral flag>
0

> <version>
0

> <s_m_source_file>
/data/baiqing/PycharmProjects/Reinvent-master-3.2/result/LINK_invent/BTK/process_docking_weight1_custom_product_contain_oxygen_bond_distance_aromatic_linkinvent_7_9_3/rearranged_h_0172.sdf

> <i_m_source_file_index>
53

> <r_mmod_Potential_Energy-OPLS-2005>
189.40478515625

> <r_mmod_Stretch_Energy-OPLS-2005>
120.136787414551

> <r_mmod_Bend_Energy-OPLS-2005>
173.2373046875

> <r_mmod_Torsional_Energy-OPLS-2005>
214.791458129883

> <r_mmod_Improper_Torsional_Energy-OPLS-2005>
4.20165967941284

> <r_mmod_Van_der_Waal_Energy-OPLS-2005>
126.395698547363

> <r_mmod_Electrostatic_Energy-OPLS-2005>
-314.728820800781

> <r_mmod_Solvation_Energy-OPLS-2005>
-214.376358032227

> <b_mmod_Minimization_Converged-OPLS-2005>
0

> <r_mmod_RMS_Derivative-OPLS-2005>
1.95091164112091

$$$$
53
                    3D
 Structure written by MMmdl.
158166  0  0  1  0            999 V2000
  -30.6968  -14.5004   20.5166 C   0  0  0  0  0  0
  -30.4210  -12.3017   19.4403 C   0  0  0  0  0  0
  -29.4996  -12.4909   18.2173 C   0  0  0  0  0  0
  -28.0223  -12.3461   18.6311 C   0  0  0  0  0  0
  -27.6613  -13.2053   19.8725 C   0  0  2  0  0  0
  -28.7045  -13.0218   21.0008 C   0  0  0  0  0  0
  -25.2595  -13.8175   20.5693 C   0  0  0  0  0  0
  -24.1838  -13.0444   20.9183 C   0  0  0  0  0  0
  -24.6393  -11.6911   20.8738 C   0  0  0  0  0  0
  -23.9056  -10.4300   21.0409 C   0  0  0  0  0  0
  -24.3601   -9.4213   21.9186 C   0  0  0  0  0  0
  -23.6275   -8.2248   22.0755 C   0  0  0  0  0  0
  -22.4265   -8.0283   21.3541 C   0  0  0  0  0  0
  -21.9907   -9.0257   20.4643 C   0  0  0  0  0  0
  -22.7230  -10.2143   20.3048 C   0  0  0  0  0  0
  -21.6854   -6.0729   22.5275 C   0  0  0  0  0  0
  -21.4020   -6.5632   23.8206 C   0  0  0  0  0  0
  -21.3662   -5.6792   24.9173 C   0  0  0  0  0  0
  -21.6041   -4.3049   24.7227 C   0  0  0  0  0  0
  -21.8819   -3.8138   23.4346 C   0  0  0  0  0  0
  -21.9192   -4.6957   22.3402 C   0  0  0  0  0  0
  -22.7865  -13.5251   21.1848 C   0  0  0  0  0  0
  -22.1660   -4.2135   21.0977 F   0  0  0  0  0  0
  -21.5633   -3.4532   25.7745 F   0  0  0  0  0  0
  -30.0375  -13.3096   20.4419 N   0  0  0  0  0  0
  -26.3025  -12.9328   20.3367 N   0  0  0  0  0  0
  -25.9315  -11.6493   20.5776 N   0  0  0  0  0  0
  -22.0487  -12.8239   22.0391 N   0  0  0  0  0  0
  -25.4363  -15.1885   20.4091 N   0  0  0  0  0  0
  -31.8413  -14.6554   20.0828 O   0  0  0  0  0  0
  -21.6635   -6.8875   21.4233 O   0  0  0  0  0  0
  -22.3561  -14.5562   20.6711 O   0  0  0  0  0  0
  -24.6142  -31.8676   23.2079 C   0  0  0  0  0  0
  -25.9022  -32.4832   23.8378 C   0  0  1  0  0  0
  -27.2418  -27.4232   20.1054 C   0  0  0  0  0  0
  -25.5898  -33.8630   24.2311 N   0  0  0  0  0  0
  -23.4073  -30.4864   21.5471 C   0  0  2  0  0  0
  -24.8589  -28.9578   20.1062 C   0  0  0  0  0  0
  -22.7441  -29.4633   22.4967 C   0  0  0  0  0  0
  -18.0294  -28.1387   22.8459 C   0  0  0  0  0  0
  -24.1514  -36.7338   23.2628 C   0  0  0  0  0  0
  -25.9365  -30.8305   21.3648 C   0  0  0  0  0  0
  -26.0173  -29.4658   20.7080 C   0  0  0  0  0  0
  -27.2126  -28.7080   20.6972 C   0  0  0  0  0  0
  -26.0692  -26.9390   19.4827 C   0  0  0  0  0  0
  -24.8829  -27.6971   19.4846 C   0  0  0  0  0  0
  -23.6177  -29.8195   20.1605 C   0  0  0  0  0  0
  -25.4133  -36.3125   24.0326 C   0  0  1  0  0  0
  -20.5886  -28.3679   23.1311 C   0  0  2  0  0  0
  -20.6804  -26.9413   22.5407 C   0  0  0  0  0  0
  -19.5783  -26.6385   21.5207 C   0  0  0  0  0  0
  -18.1947  -26.7928   22.1596 C   0  0  0  0  0  0
  -19.1538  -28.8848   23.2882 C   0  0  0  0  0  0
  -18.9451  -30.1457   23.8891 C   0  0  0  0  0  0
  -17.6442  -30.6571   24.0574 C   0  0  0  0  0  0
  -25.9039  -34.9484   23.5112 C   0  0  0  0  0  0
  -16.5340  -29.9069   23.6337 C   0  0  0  0  0  0
  -16.7275  -28.6512   23.0308 C   0  0  0  0  0  0
  -26.4452  -31.6610   25.0701 C   0  0  0  0  0  0
  -25.3715  -31.3720   26.1455 C   0  0  0  0  0  0
  -27.0276  -30.3057   24.6059 C   0  0  0  0  0  0
  -27.6033  -32.4328   25.7455 C   0  0  0  0  0  0
  -27.5604  -37.1826   24.8449 C   0  0  0  0  0  0
  -21.4164  -29.3035   22.3716 N   0  0  0  0  0  0
  -26.4327  -37.3801   23.9370 N   0  0  0  0  0  0
  -24.6711  -31.0749   22.0990 N   0  0  0  0  0  0
  -23.4201  -28.8167   23.3018 O   0  0  0  0  0  0
  -28.3902  -26.6513   20.1648 O   0  0  0  0  0  0
  -26.5597  -34.8935   22.4671 O   0  0  0  0  0  0
  -23.5332  -32.1421   23.7461 O   0  0  0  0  0  0
  -31.0970  -17.5894   20.0646 C   0  0  0  0  0  0
  -30.9265  -19.0171   20.0753 C   0  0  0  0  0  0
  -29.7908  -19.4333   20.7478 C   0  0  0  0  0  0
  -30.1308  -16.8845   20.7529 C   0  0  0  0  0  0
  -29.1701  -20.7529   21.1558 C   0  0  0  0  0  0
  -29.6162  -23.1002   21.2235 C   0  0  0  0  0  0
  -27.7528  -25.4079   22.1628 C   0  0  0  0  0  0
  -29.5475  -21.9400   19.0509 C   0  0  0  0  0  0
  -29.5685  -24.4964   20.5295 C   0  0  0  0  0  0
  -28.2400  -25.3064   20.6963 C   0  0  2  0  0  0
  -31.9006  -19.8120   19.4450 N   0  0  0  0  0  0
  -29.9588  -15.5396   20.9629 N   0  0  0  0  0  0
  -29.4965  -21.9246   20.5237 N   0  0  0  0  0  0
  -28.3520  -20.7397   22.0889 O   0  0  0  0  0  0
  -29.8200  -23.1197   22.4462 O   0  0  0  0  0  0
  -28.9697  -18.0189   21.4024 S   0  0  0  0  0  0
  -31.4688  -12.3794   19.1456 H   0  0  0  0  0  0
  -30.3024  -11.2992   19.8544 H   0  0  0  0  0  0
  -29.7439  -11.7587   17.4463 H   0  0  0  0  0  0
  -29.6653  -13.4737   17.7716 H   0  0  0  0  0  0
  -27.8487  -11.2923   18.8532 H   0  0  0  0  0  0
  -27.3664  -12.5915   17.7958 H   0  0  0  0  0  0
  -27.6979  -14.2464   19.5515 H   0  0  0  0  0  0
  -28.6785  -12.0012   21.3847 H   0  0  0  0  0  0
  -28.4662  -13.6601   21.8527 H   0  0  0  0  0  0
  -25.2743   -9.5698   22.4762 H   0  0  0  0  0  0
  -23.9988   -7.4647   22.7476 H   0  0  0  0  0  0
  -21.0841   -8.8766   19.8939 H   0  0  0  0  0  0
  -22.3680  -10.9679   19.6152 H   0  0  0  0  0  0
  -21.2005   -7.6141   23.9711 H   0  0  0  0  0  0
  -21.1491   -6.0517   25.9079 H   0  0  0  0  0  0
  -22.0592   -2.7597   23.2851 H   0  0  0  0  0  0
  -22.4092  -11.9883   22.4760 H   0  0  0  0  0  0
  -21.1101  -13.1272   22.2575 H   0  0  0  0  0  0
  -24.6757  -15.8500   20.5183 H   0  0  0  0  0  0
  -26.2916  -15.6215   20.0834 H   0  0  0  0  0  0
  -26.7096  -32.5558   23.1142 H   0  0  0  0  0  0
  -25.0064  -33.9788   25.0468 H   0  0  0  0  0  0
  -22.6968  -31.3030   21.4066 H   0  0  0  0  0  0
  -23.3774  -35.9680   23.3293 H   0  0  0  0  0  0
  -24.3601  -36.8946   22.2039 H   0  0  0  0  0  0
  -23.7273  -37.6546   23.6646 H   0  0  0  0  0  0
  -26.0484  -31.5998   20.5999 H   0  0  0  0  0  0
  -26.8242  -30.8833   21.9825 H   0  0  0  0  0  0
  -28.1064  -29.0866   21.1733 H   0  0  0  0  0  0
  -26.0617  -25.9761   18.9931 H   0  0  0  0  0  0
  -23.9972  -27.3055   19.0044 H   0  0  0  0  0  0
  -23.7225  -30.5954   19.4008 H   0  0  0  0  0  0
  -22.7457  -29.2324   19.8677 H   0  0  0  0  0  0
  -25.1310  -36.2013   25.0824 H   0  0  0  0  0  0
  -20.9967  -28.3258   24.1440 H   0  0  0  0  0  0
  -20.5819  -26.2243   23.3576 H   0  0  0  0  0  0
  -21.6660  -26.7527   22.1142 H   0  0  0  0  0  0
  -19.6977  -25.6306   21.1219 H   0  0  0  0  0  0
  -19.6764  -27.3225   20.6762 H   0  0  0  0  0  0
  -17.4238  -26.6690   21.3974 H   0  0  0  0  0  0
  -18.0340  -26.0092   22.9007 H   0  0  0  0  0  0
  -19.7940  -30.7280   24.2247 H   0  0  0  0  0  0
  -17.5002  -31.6258   24.5167 H   0  0  0  0  0  0
  -15.5336  -30.2944   23.7700 H   0  0  0  0  0  0
  -15.8687  -28.0852   22.6964 H   0  0  0  0  0  0
  -24.5874  -30.7087   25.7768 H   0  0  0  0  0  0
  -24.8922  -32.2885   26.4918 H   0  0  0  0  0  0
  -25.8062  -30.8859   27.0196 H   0  0  0  0  0  0
  -26.2809  -29.6832   24.1121 H   0  0  0  0  0  0
  -27.4043  -29.7278   25.4500 H   0  0  0  0  0  0
  -27.8645  -30.4359   23.9204 H   0  0  0  0  0  0
  -27.2651  -33.3615   26.2058 H   0  0  0  0  0  0
  -28.3825  -32.6904   25.0269 H   0  0  0  0  0  0
  -28.0727  -31.8443   26.5344 H   0  0  0  0  0  0
  -28.2608  -38.0141   24.7502 H   0  0  0  0  0  0
  -28.1121  -36.2660   24.6288 H   0  0  0  0  0  0
  -27.2306  -37.1478   25.8850 H   0  0  0  0  0  0
  -20.9334  -29.8705   21.6894 H   0  0  0  0  0  0
  -26.0243  -38.2886   24.1364 H   0  0  0  0  0  0
  -31.9379  -17.1340   19.5582 H   0  0  0  0  0  0
  -27.5362  -24.4275   22.5886 H   0  0  0  0  0  0
  -26.8263  -25.9765   22.2453 H   0  0  0  0  0  0
  -28.4942  -25.8919   22.7996 H   0  0  0  0  0  0
  -29.4286  -20.9568   18.5935 H   0  0  0  0  0  0
  -30.4940  -22.3453   18.6888 H   0  0  0  0  0  0
  -28.7398  -22.5534   18.6503 H   0  0  0  0  0  0
  -29.8341  -24.4402   19.4769 H   0  0  0  0  0  0
  -30.3743  -25.0767   20.9813 H   0  0  0  0  0  0
  -27.4817  -24.7717   20.1255 H   0  0  0  0  0  0
  -32.7624  -19.4066   19.0897 H   0  0  0  0  0  0
  -31.9058  -20.8234   19.5145 H   0  0  0  0  0  0
  -29.0746  -15.2707   21.3692 H   0  0  0  0  0  0
  1 25  1  0  0  0
  1 30  2  0  0  0
  1 82  1  0  0  0
  2  3  1  0  0  0
  2 25  1  0  0  0
  2 87  1  0  0  0
  2 88  1  0  0  0
  3  4  1  0  0  0
  3 89  1  0  0  0
  3 90  1  0  0  0
  4  5  1  0  0  0
  4 91  1  0  0  0
  4 92  1  0  0  0
  5  6  1  0  0  0
  5 26  1  0  0  0
  5 93  1  0  0  0
  6 25  1  0  0  0
  6 94  1  0  0  0
  6 95  1  0  0  0
  7  8  2  0  0  0
  7 26  1  0  0  0
  7 29  1  0  0  0
  8  9  1  0  0  0
  8 22  1  0  0  0
  9 10  1  0  0  0
  9 27  2  0  0  0
 10 11  2  0  0  0
 10 15  1  0  0  0
 11 12  1  0  0  0
 11 96  1  0  0  0
 12 13  2  0  0  0
 12 97  1  0  0  0
 13 14  1  0  0  0
 13 31  1  0  0  0
 14 15  2  0  0  0
 14 98  1  0  0  0
 15 99  1  0  0  0
 16 17  2  0  0  0
 16 21  1  0  0  0
 16 31  1  0  0  0
 17 18  1  0  0  0
 17100  1  0  0  0
 18 19  2  0  0  0
 18101  1  0  0  0
 19 20  1  0  0  0
 19 24  1  0  0  0
 20 21  2  0  0  0
 20102  1  0  0  0
 21 23  1  0  0  0
 22 28  1  0  0  0
 22 32  2  0  0  0
 26 27  1  0  0  0
 28103  1  0  0  0
 28104  1  0  0  0
 29105  1  0  0  0
 29106  1  0  0  0
 33 34  1  0  0  0
 33 66  1  0  0  0
 33 70  2  0  0  0
 34 36  1  0  0  0
 34 59  1  0  0  0
 34107  1  0  0  0
 35 44  2  0  0  0
 35 45  1  0  0  0
 35 68  1  0  0  0
 36 56  1  0  0  0
 36108  1  0  0  0
 37 39  1  0  0  0
 37 47  1  0  0  0
 37 66  1  0  0  0
 37109  1  0  0  0
 38 43  2  0  0  0
 38 46  1  0  0  0
 38 47  1  0  0  0
 39 64  1  0  0  0
 39 67  2  0  0  0
 40 52  1  0  0  0
 40 53  2  0  0  0
 40 58  1  0  0  0
 41110  1  0  0  0
 41111  1  0  0  0
 41112  1  0  0  0
 41 48  1  0  0  0
 42 43  1  0  0  0
 42 66  1  0  0  0
 42113  1  0  0  0
 42114  1  0  0  0
 43 44  1  0  0  0
 44115  1  0  0  0
 45 46  2  0  0  0
 45116  1  0  0  0
 46117  1  0  0  0
 47118  1  0  0  0
 47119  1  0  0  0
 48 56  1  0  0  0
 48 65  1  0  0  0
 48120  1  0  0  0
 49 50  1  0  0  0
 49 53  1  0  0  0
 49 64  1  0  0  0
 49121  1  0  0  0
 50 51  1  0  0  0
 50122  1  0  0  0
 50123  1  0  0  0
 51 52  1  0  0  0
 51124  1  0  0  0
 51125  1  0  0  0
 52126  1  0  0  0
 52127  1  0  0  0
 53 54  1  0  0  0
 54 55  2  0  0  0
 54128  1  0  0  0
 55 57  1  0  0  0
 55129  1  0  0  0
 56 69  2  0  0  0
 57 58  2  0  0  0
 57130  1  0  0  0
 58131  1  0  0  0
 59 60  1  0  0  0
 59 61  1  0  0  0
 59 62  1  0  0  0
 60132  1  0  0  0
 60133  1  0  0  0
 60134  1  0  0  0
 61135  1  0  0  0
 61136  1  0  0  0
 61137  1  0  0  0
 62138  1  0  0  0
 62139  1  0  0  0
 62140  1  0  0  0
 63 65  1  0  0  0
 63141  1  0  0  0
 63142  1  0  0  0
 63143  1  0  0  0
 64144  1  0  0  0
 65145  1  0  0  0
 68 80  1  0  0  0
 71 72  1  0  0  0
 71 74  2  0  0  0
 71146  1  0  0  0
 72 73  2  0  0  0
 72 81  1  0  0  0
 73 75  1  0  0  0
 73 86  1  0  0  0
 74 82  1  0  0  0
 74 86  1  0  0  0
 75 83  1  0  0  0
 75 84  2  0  0  0
 76 79  1  0  0  0
 76 83  1  0  0  0
 76 85  2  0  0  0
 77147  1  0  0  0
 77148  1  0  0  0
 77149  1  0  0  0
 77 80  1  0  0  0
 78 83  1  0  0  0
 78150  1  0  0  0
 78151  1  0  0  0
 78152  1  0  0  0
 79 80  1  0  0  0
 79153  1  0  0  0
 79154  1  0  0  0
 80155  1  0  0  0
 81156  1  0  0  0
 81157  1  0  0  0
 82158  1  0  0  0
M  ISO  4   1 100  68 101  80 101  82 100
M  END
> <chiral flag>
0

> <version>
0

> <s_m_source_file>
/data/baiqing/PycharmProjects/Reinvent-master-3.2/result/LINK_invent/BTK/process_docking_weight1_custom_product_contain_oxygen_bond_distance_aromatic_linkinvent_7_9_3/rearranged_h_0172.sdf

> <i_m_source_file_index>
54

> <r_mmod_Potential_Energy-OPLS-2005>
99.891242980957

> <r_mmod_Stretch_Energy-OPLS-2005>
50.8180274963379

> <r_mmod_Bend_Energy-OPLS-2005>
123.948539733887

> <r_mmod_Torsional_Energy-OPLS-2005>
289.101776123047

> <r_mmod_Improper_Torsional_Energy-OPLS-2005>
4.96151304244995

> <r_mmod_Van_der_Waal_Energy-OPLS-2005>
155.026397705078

> <r_mmod_Electrostatic_Energy-OPLS-2005>
-308.428131103516

> <r_mmod_Solvation_Energy-OPLS-2005>
-233.902145385742

> <b_mmod_Minimization_Converged-OPLS-2005>
0

> <r_mmod_RMS_Derivative-OPLS-2005>
3.05404949188232

$$$$
54
                    3D
 Structure written by MMmdl.
156164  0  0  1  0            999 V2000
  -30.5706  -14.7905   20.4868 C   0  0  0  0  0  0
  -30.4436  -12.4836   19.4831 C   0  0  0  0  0  0
  -29.5219  -12.5376   18.2428 C   0  0  0  0  0  0
  -28.0472  -12.3419   18.6506 C   0  0  0  0  0  0
  -27.6466  -13.2339   19.8567 C   0  0  2  0  0  0
  -28.6892  -13.1548   20.9930 C   0  0  0  0  0  0
  -25.2529  -13.8199   20.5705 C   0  0  0  0  0  0
  -24.1821  -13.0441   20.9186 C   0  0  0  0  0  0
  -24.6413  -11.6914   20.8716 C   0  0  0  0  0  0
  -23.9103  -10.4297   21.0374 C   0  0  0  0  0  0
  -24.3654   -9.4220   21.9161 C   0  0  0  0  0  0
  -23.6323   -8.2258   22.0747 C   0  0  0  0  0  0
  -22.4304   -8.0288   21.3536 C   0  0  0  0  0  0
  -21.9937   -9.0255   20.4637 C   0  0  0  0  0  0
  -22.7270  -10.2129   20.3032 C   0  0  0  0  0  0
  -21.6866   -6.0752   22.5280 C   0  0  0  0  0  0
  -21.4033   -6.5646   23.8217 C   0  0  0  0  0  0
  -21.3653   -5.6790   24.9173 C   0  0  0  0  0  0
  -21.6048   -4.3059   24.7221 C   0  0  0  0  0  0
  -21.8817   -3.8161   23.4344 C   0  0  0  0  0  0
  -21.9203   -4.6983   22.3410 C   0  0  0  0  0  0
  -22.7841  -13.5212   21.1843 C   0  0  0  0  0  0
  -22.1658   -4.2174   21.0985 F   0  0  0  0  0  0
  -21.5631   -3.4544   25.7732 F   0  0  0  0  0  0
  -29.9879  -13.5363   20.4253 N   0  0  0  0  0  0
  -26.2960  -12.9411   20.3295 N   0  0  0  0  0  0
  -25.9353  -11.6544   20.5752 N   0  0  0  0  0  0
  -22.0506  -12.8185   22.0393 N   0  0  0  0  0  0
  -25.4247  -15.1930   20.4164 N   0  0  0  0  0  0
  -31.7384  -14.9017   20.0959 O   0  0  0  0  0  0
  -21.6663   -6.8890   21.4234 O   0  0  0  0  0  0
  -22.3515  -14.5518   20.6696 O   0  0  0  0  0  0
  -24.6360  -31.8530   23.1949 C   0  0  0  0  0  0
  -25.9176  -32.4741   23.8304 C   0  0  1  0  0  0
  -27.2159  -27.2296   20.1435 C   0  0  0  0  0  0
  -25.5968  -33.8544   24.2238 N   0  0  0  0  0  0
  -23.4346  -30.4728   21.5388 C   0  0  2  0  0  0
  -24.8847  -28.9152   20.1099 C   0  0  0  0  0  0
  -22.7536  -29.4592   22.4912 C   0  0  0  0  0  0
  -18.0297  -28.1383   22.8458 C   0  0  0  0  0  0
  -24.1496  -36.7263   23.2632 C   0  0  0  0  0  0
  -25.9831  -30.7547   21.3814 C   0  0  0  0  0  0
  -26.0587  -29.3741   20.7248 C   0  0  0  0  0  0
  -27.2322  -28.5445   20.7289 C   0  0  0  0  0  0
  -26.0257  -26.8461   19.4968 C   0  0  0  0  0  0
  -24.8764  -27.6610   19.4807 C   0  0  0  0  0  0
  -23.6548  -29.8033   20.1570 C   0  0  0  0  0  0
  -25.4128  -36.3054   24.0317 C   0  0  1  0  0  0
  -20.5902  -28.3700   23.1260 C   0  0  2  0  0  0
  -20.6789  -26.9414   22.5406 C   0  0  0  0  0  0
  -19.5772  -26.6374   21.5208 C   0  0  0  0  0  0
  -18.1944  -26.7923   22.1609 C   0  0  0  0  0  0
  -19.1546  -28.8855   23.2852 C   0  0  0  0  0  0
  -18.9470  -30.1456   23.8879 C   0  0  0  0  0  0
  -17.6465  -30.6578   24.0555 C   0  0  0  0  0  0
  -25.9065  -34.9433   23.5073 C   0  0  0  0  0  0
  -16.5360  -29.9070   23.6333 C   0  0  0  0  0  0
  -16.7282  -28.6497   23.0335 C   0  0  0  0  0  0
  -26.4535  -31.6560   25.0693 C   0  0  0  0  0  0
  -25.3748  -31.3729   26.1395 C   0  0  0  0  0  0
  -27.0345  -30.2950   24.6183 C   0  0  0  0  0  0
  -27.6070  -32.4306   25.7487 C   0  0  0  0  0  0
  -27.5595  -37.1789   24.8471 C   0  0  0  0  0  0
  -21.4235  -29.3054   22.3661 N   0  0  0  0  0  0
  -26.4304  -37.3757   23.9403 N   0  0  0  0  0  0
  -24.7031  -31.0450   22.0951 N   0  0  0  0  0  0
  -23.4218  -28.8149   23.3034 O   0  0  0  0  0  0
  -28.2461  -26.2530   20.1767 O   0  0  0  0  0  0
  -26.5629  -34.8918   22.4635 O   0  0  0  0  0  0
  -23.5503  -32.1375   23.7228 O   0  0  0  0  0  0
  -29.4474  -18.8438   20.7875 C   0  0  0  0  0  0
  -29.4015  -19.9613   18.6362 C   0  0  0  0  0  0
  -29.7322  -17.5330   20.1879 C   0  0  0  0  0  0
  -29.2795  -20.0946   20.0393 C   0  0  0  0  0  0
  -29.6637  -18.7118   18.0185 C   0  0  0  0  0  0
  -29.8304  -17.5285   18.7787 C   0  0  0  0  0  0
  -28.0564  -25.1570   21.0693 C   0  0  0  0  0  0
  -28.2952  -23.7691   21.1277 C   0  0  0  0  0  0
  -28.8641  -22.7521   20.1550 C   0  0  0  0  0  0
  -28.6502  -19.2150   15.8733 C   0  0  0  0  0  0
  -29.7950  -16.1319   20.9938 C   0  0  0  0  0  0
  -28.9379  -21.4320   20.6420 N   0  0  0  0  0  0
  -29.7380  -18.5966   16.6211 N   0  0  0  0  0  0
  -29.2479  -23.0483   19.0238 O   0  0  0  0  0  0
  -27.9281  -23.2159   22.2991 O   0  0  0  0  0  0
  -30.0310  -16.3655   18.1116 F   0  0  0  0  0  0
  -31.4840  -12.6152   19.1830 H   0  0  0  0  0  0
  -30.3952  -11.5007   19.9569 H   0  0  0  0  0  0
  -29.8178  -11.7829   17.5133 H   0  0  0  0  0  0
  -29.6414  -13.5044   17.7509 H   0  0  0  0  0  0
  -27.9112  -11.2918   18.9069 H   0  0  0  0  0  0
  -27.3892  -12.5343   17.8033 H   0  0  0  0  0  0
  -27.6453  -14.2607   19.4913 H   0  0  0  0  0  0
  -28.7297  -12.1455   21.4034 H   0  0  0  0  0  0
  -28.4084  -13.8015   21.8251 H   0  0  0  0  0  0
  -25.2788   -9.5727   22.4755 H   0  0  0  0  0  0
  -24.0038   -7.4663   22.7468 H   0  0  0  0  0  0
  -21.0874   -8.8763   19.8948 H   0  0  0  0  0  0
  -22.3702  -10.9675   19.6163 H   0  0  0  0  0  0
  -21.2027   -7.6154   23.9736 H   0  0  0  0  0  0
  -21.1472   -6.0520   25.9075 H   0  0  0  0  0  0
  -22.0609   -2.7633   23.2844 H   0  0  0  0  0  0
  -22.4118  -11.9823   22.4748 H   0  0  0  0  0  0
  -21.1128  -13.1198   22.2633 H   0  0  0  0  0  0
  -24.6630  -15.8528   20.5351 H   0  0  0  0  0  0
  -26.2844  -15.6322   20.1119 H   0  0  0  0  0  0
  -26.7240  -32.5370   23.1038 H   0  0  0  0  0  0
  -25.0170  -33.9691   25.0418 H   0  0  0  0  0  0
  -22.7319  -31.2955   21.3913 H   0  0  0  0  0  0
  -23.3788  -35.9565   23.3273 H   0  0  0  0  0  0
  -24.3592  -36.8898   22.2052 H   0  0  0  0  0  0
  -23.7230  -37.6443   23.6676 H   0  0  0  0  0  0
  -26.1271  -31.5134   20.6106 H   0  0  0  0  0  0
  -26.8591  -30.8048   22.0174 H   0  0  0  0  0  0
  -28.1283  -28.8900   21.2243 H   0  0  0  0  0  0
  -25.9745  -25.8728   19.0259 H   0  0  0  0  0  0
  -23.9791  -27.3052   18.9941 H   0  0  0  0  0  0
  -23.7775  -30.5793   19.4009 H   0  0  0  0  0  0
  -22.7733  -29.2341   19.8556 H   0  0  0  0  0  0
  -25.1324  -36.1886   25.0815 H   0  0  0  0  0  0
  -20.9974  -28.3262   24.1391 H   0  0  0  0  0  0
  -20.5680  -26.2314   23.3612 H   0  0  0  0  0  0
  -21.6655  -26.7425   22.1202 H   0  0  0  0  0  0
  -19.6940  -25.6279   21.1251 H   0  0  0  0  0  0
  -19.6727  -27.3182   20.6733 H   0  0  0  0  0  0
  -17.4226  -26.6666   21.4003 H   0  0  0  0  0  0
  -18.0339  -26.0062   22.9000 H   0  0  0  0  0  0
  -19.7943  -30.7276   24.2236 H   0  0  0  0  0  0
  -17.5019  -31.6260   24.5161 H   0  0  0  0  0  0
  -15.5362  -30.2975   23.7665 H   0  0  0  0  0  0
  -15.8679  -28.0827   22.7039 H   0  0  0  0  0  0
  -24.5942  -30.7061   25.7717 H   0  0  0  0  0  0
  -24.8940  -32.2910   26.4767 H   0  0  0  0  0  0
  -25.8048  -30.8939   27.0192 H   0  0  0  0  0  0
  -26.2889  -29.6715   24.1220 H   0  0  0  0  0  0
  -27.4016  -29.7197   25.4692 H   0  0  0  0  0  0
  -27.8800  -30.4182   23.9407 H   0  0  0  0  0  0
  -27.2645  -33.3619   26.2003 H   0  0  0  0  0  0
  -28.3922  -32.6828   25.0352 H   0  0  0  0  0  0
  -28.0682  -31.8465   26.5454 H   0  0  0  0  0  0
  -28.2596  -38.0099   24.7518 H   0  0  0  0  0  0
  -28.1109  -36.2630   24.6301 H   0  0  0  0  0  0
  -27.2306  -37.1423   25.8869 H   0  0  0  0  0  0
  -20.9428  -29.8781   21.6861 H   0  0  0  0  0  0
  -26.0182  -38.2824   24.1411 H   0  0  0  0  0  0
  -29.3253  -18.8814   21.8610 H   0  0  0  0  0  0
  -29.2719  -20.8258   18.0043 H   0  0  0  0  0  0
  -27.6024  -25.5806   21.9548 H   0  0  0  0  0  0
  -28.5949  -18.7894   14.8707 H   0  0  0  0  0  0
  -28.7909  -20.2919   15.7686 H   0  0  0  0  0  0
  -27.6872  -19.0392   16.3563 H   0  0  0  0  0  0
  -28.7543  -15.8721   21.1678 H   0  0  0  0  0  0
  -30.1942  -16.3533   21.9831 H   0  0  0  0  0  0
  -28.6535  -21.4034   21.6140 H   0  0  0  0  0  0
  -29.9457  -17.6410   16.3332 H   0  0  0  0  0  0
  -27.5958  -23.9077   22.8547 H   0  0  0  0  0  0
  1 25  1  0  0  0
  1 30  2  0  0  0
  1 81  1  0  0  0
  2  3  1  0  0  0
  2 25  1  0  0  0
  2 87  1  0  0  0
  2 88  1  0  0  0
  3  4  1  0  0  0
  3 89  1  0  0  0
  3 90  1  0  0  0
  4  5  1  0  0  0
  4 91  1  0  0  0
  4 92  1  0  0  0
  5  6  1  0  0  0
  5 26  1  0  0  0
  5 93  1  0  0  0
  6 25  1  0  0  0
  6 94  1  0  0  0
  6 95  1  0  0  0
  7  8  2  0  0  0
  7 26  1  0  0  0
  7 29  1  0  0  0
  8  9  1  0  0  0
  8 22  1  0  0  0
  9 10  1  0  0  0
  9 27  2  0  0  0
 10 11  2  0  0  0
 10 15  1  0  0  0
 11 12  1  0  0  0
 11 96  1  0  0  0
 12 13  2  0  0  0
 12 97  1  0  0  0
 13 14  1  0  0  0
 13 31  1  0  0  0
 14 15  2  0  0  0
 14 98  1  0  0  0
 15 99  1  0  0  0
 16 17  2  0  0  0
 16 21  1  0  0  0
 16 31  1  0  0  0
 17 18  1  0  0  0
 17100  1  0  0  0
 18 19  2  0  0  0
 18101  1  0  0  0
 19 20  1  0  0  0
 19 24  1  0  0  0
 20 21  2  0  0  0
 20102  1  0  0  0
 21 23  1  0  0  0
 22 28  1  0  0  0
 22 32  2  0  0  0
 26 27  1  0  0  0
 28103  1  0  0  0
 28104  1  0  0  0
 29105  1  0  0  0
 29106  1  0  0  0
 33 34  1  0  0  0
 33 66  1  0  0  0
 33 70  2  0  0  0
 34 36  1  0  0  0
 34 59  1  0  0  0
 34107  1  0  0  0
 35 44  2  0  0  0
 35 45  1  0  0  0
 35 68  1  0  0  0
 36 56  1  0  0  0
 36108  1  0  0  0
 37 39  1  0  0  0
 37 47  1  0  0  0
 37 66  1  0  0  0
 37109  1  0  0  0
 38 43  2  0  0  0
 38 46  1  0  0  0
 38 47  1  0  0  0
 39 64  1  0  0  0
 39 67  2  0  0  0
 40 52  1  0  0  0
 40 53  2  0  0  0
 40 58  1  0  0  0
 41110  1  0  0  0
 41111  1  0  0  0
 41112  1  0  0  0
 41 48  1  0  0  0
 42 43  1  0  0  0
 42 66  1  0  0  0
 42113  1  0  0  0
 42114  1  0  0  0
 43 44  1  0  0  0
 44115  1  0  0  0
 45 46  2  0  0  0
 45116  1  0  0  0
 46117  1  0  0  0
 47118  1  0  0  0
 47119  1  0  0  0
 48 56  1  0  0  0
 48 65  1  0  0  0
 48120  1  0  0  0
 49 50  1  0  0  0
 49 53  1  0  0  0
 49 64  1  0  0  0
 49121  1  0  0  0
 50 51  1  0  0  0
 50122  1  0  0  0
 50123  1  0  0  0
 51 52  1  0  0  0
 51124  1  0  0  0
 51125  1  0  0  0
 52126  1  0  0  0
 52127  1  0  0  0
 53 54  1  0  0  0
 54 55  2  0  0  0
 54128  1  0  0  0
 55 57  1  0  0  0
 55129  1  0  0  0
 56 69  2  0  0  0
 57 58  2  0  0  0
 57130  1  0  0  0
 58131  1  0  0  0
 59 60  1  0  0  0
 59 61  1  0  0  0
 59 62  1  0  0  0
 60132  1  0  0  0
 60133  1  0  0  0
 60134  1  0  0  0
 61135  1  0  0  0
 61136  1  0  0  0
 61137  1  0  0  0
 62138  1  0  0  0
 62139  1  0  0  0
 62140  1  0  0  0
 63 65  1  0  0  0
 63141  1  0  0  0
 63142  1  0  0  0
 63143  1  0  0  0
 64144  1  0  0  0
 65145  1  0  0  0
 68 77  1  0  0  0
 71 73  2  0  0  0
 71 74  1  0  0  0
 71146  1  0  0  0
 72 74  2  0  0  0
 72 75  1  0  0  0
 72147  1  0  0  0
 73 76  1  0  0  0
 73 81  1  0  0  0
 74 82  1  0  0  0
 75 76  2  0  0  0
 75 83  1  0  0  0
 76 86  1  0  0  0
 77 78  2  0  0  0
 77148  1  0  0  0
 78 79  1  0  0  0
 78 85  1  0  0  0
 79 82  1  0  0  0
 79 84  2  0  0  0
 80 83  1  0  0  0
 80149  1  0  0  0
 80150  1  0  0  0
 80151  1  0  0  0
 81152  1  0  0  0
 81153  1  0  0  0
 82154  1  0  0  0
 83155  1  0  0  0
 85156  1  0  0  0
M  ISO  4   1 100  68 101  77 101  81 100
M  END
> <chiral flag>
0

> <version>
0

> <s_m_source_file>
/data/baiqing/PycharmProjects/Reinvent-master-3.2/result/LINK_invent/BTK/process_docking_weight1_custom_product_contain_oxygen_bond_distance_aromatic_linkinvent_7_9_3/rearranged_h_0172.sdf

> <i_m_source_file_index>
55

> <r_mmod_Potential_Energy-OPLS-2005>
286.759582519531

> <r_mmod_Stretch_Energy-OPLS-2005>
154.402938842773

> <r_mmod_Bend_Energy-OPLS-2005>
230.808197021484

> <r_mmod_Torsional_Energy-OPLS-2005>
188.940872192383

> <r_mmod_Improper_Torsional_Energy-OPLS-2005>
7.15423154830933

> <r_mmod_Van_der_Waal_Energy-OPLS-2005>
142.545608520508

> <r_mmod_Electrostatic_Energy-OPLS-2005>
-304.222259521484

> <r_mmod_Solvation_Energy-OPLS-2005>
-242.253143310547

> <b_mmod_Minimization_Converged-OPLS-2005>
0

> <r_mmod_RMS_Derivative-OPLS-2005>
3.07255554199219

$$$$
55
                    3D
 Structure written by MMmdl.
158166  0  0  1  0            999 V2000
  -30.6932  -14.4587   20.6051 C   0  0  0  0  0  0
  -30.4359  -12.3102   19.4149 C   0  0  0  0  0  0
  -29.4975  -12.5059   18.2048 C   0  0  0  0  0  0
  -28.0159  -12.3750   18.6150 C   0  0  0  0  0  0
  -27.6670  -13.2035   19.8794 C   0  0  2  0  0  0
  -28.7074  -12.9507   20.9933 C   0  0  0  0  0  0
  -25.2604  -13.8154   20.5662 C   0  0  0  0  0  0
  -24.1853  -13.0444   20.9182 C   0  0  0  0  0  0
  -24.6403  -11.6905   20.8744 C   0  0  0  0  0  0
  -23.9061  -10.4293   21.0405 C   0  0  0  0  0  0
  -24.3615   -9.4203   21.9178 C   0  0  0  0  0  0
  -23.6292   -8.2237   22.0750 C   0  0  0  0  0  0
  -22.4266   -8.0282   21.3549 C   0  0  0  0  0  0
  -21.9904   -9.0256   20.4657 C   0  0  0  0  0  0
  -22.7236  -10.2140   20.3058 C   0  0  0  0  0  0
  -21.6849   -6.0733   22.5281 C   0  0  0  0  0  0
  -21.4010   -6.5639   23.8219 C   0  0  0  0  0  0
  -21.3662   -5.6793   24.9176 C   0  0  0  0  0  0
  -21.6042   -4.3055   24.7225 C   0  0  0  0  0  0
  -21.8822   -3.8149   23.4350 C   0  0  0  0  0  0
  -21.9193   -4.6964   22.3404 C   0  0  0  0  0  0
  -22.7879  -13.5252   21.1842 C   0  0  0  0  0  0
  -22.1662   -4.2149   21.0982 F   0  0  0  0  0  0
  -21.5633   -3.4537   25.7741 F   0  0  0  0  0  0
  -30.0435  -13.2712   20.4573 N   0  0  0  0  0  0
  -26.3055  -12.9318   20.3378 N   0  0  0  0  0  0
  -25.9324  -11.6489   20.5769 N   0  0  0  0  0  0
  -22.0498  -12.8258   22.0403 N   0  0  0  0  0  0
  -25.4313  -15.1861   20.4003 N   0  0  0  0  0  0
  -31.7938  -14.6893   20.0953 O   0  0  0  0  0  0
  -21.6636   -6.8878   21.4239 O   0  0  0  0  0  0
  -22.3557  -14.5532   20.6658 O   0  0  0  0  0  0
  -24.6148  -31.8692   23.2095 C   0  0  0  0  0  0
  -25.9041  -32.4828   23.8380 C   0  0  1  0  0  0
  -27.2350  -27.4365   20.0800 C   0  0  0  0  0  0
  -25.5903  -33.8619   24.2317 N   0  0  0  0  0  0
  -23.4004  -30.4914   21.5529 C   0  0  2  0  0  0
  -24.8435  -28.9563   20.1150 C   0  0  0  0  0  0
  -22.7405  -29.4645   22.5003 C   0  0  0  0  0  0
  -18.0266  -28.1392   22.8469 C   0  0  0  0  0  0
  -24.1493  -36.7321   23.2636 C   0  0  0  0  0  0
  -25.9269  -30.8334   21.3582 C   0  0  0  0  0  0
  -26.0028  -29.4650   20.7096 C   0  0  0  0  0  0
  -27.1965  -28.7097   20.6940 C   0  0  0  0  0  0
  -26.0476  -26.9312   19.4992 C   0  0  0  0  0  0
  -24.8597  -27.6873   19.5122 C   0  0  0  0  0  0
  -23.6064  -29.8253   20.1672 C   0  0  0  0  0  0
  -25.4116  -36.3120   24.0333 C   0  0  1  0  0  0
  -20.5852  -28.3666   23.1341 C   0  0  2  0  0  0
  -20.6753  -26.9391   22.5457 C   0  0  0  0  0  0
  -19.5753  -26.6381   21.5222 C   0  0  0  0  0  0
  -18.1916  -26.7939   22.1604 C   0  0  0  0  0  0
  -19.1516  -28.8845   23.2896 C   0  0  0  0  0  0
  -18.9441  -30.1447   23.8914 C   0  0  0  0  0  0
  -17.6443  -30.6586   24.0569 C   0  0  0  0  0  0
  -25.9040  -34.9481   23.5127 C   0  0  0  0  0  0
  -16.5335  -29.9094   23.6317 C   0  0  0  0  0  0
  -16.7254  -28.6519   23.0321 C   0  0  0  0  0  0
  -26.4475  -31.6611   25.0714 C   0  0  0  0  0  0
  -25.3734  -31.3726   26.1480 C   0  0  0  0  0  0
  -27.0269  -30.3046   24.6064 C   0  0  0  0  0  0
  -27.6108  -32.4292   25.7432 C   0  0  0  0  0  0
  -27.5590  -37.1804   24.8450 C   0  0  0  0  0  0
  -21.4135  -29.3022   22.3746 N   0  0  0  0  0  0
  -26.4299  -37.3806   23.9411 N   0  0  0  0  0  0
  -24.6662  -31.0795   22.0996 N   0  0  0  0  0  0
  -23.4184  -28.8175   23.3027 O   0  0  0  0  0  0
  -28.4335  -26.7506   20.0929 O   0  0  0  0  0  0
  -26.5600  -34.8931   22.4687 O   0  0  0  0  0  0
  -23.5352  -32.1453   23.7501 O   0  0  0  0  0  0
  -31.0245  -17.5997   20.6705 C   0  0  0  0  0  0
  -28.6279  -17.3782   20.9856 C   0  0  0  0  0  0
  -29.5501  -19.5088   20.1920 C   0  0  0  0  0  0
  -29.9092  -16.7849   20.9795 C   0  0  0  0  0  0
  -30.8486  -18.9488   20.2824 C   0  0  0  0  0  0
  -28.4448  -18.7168   20.5776 C   0  0  0  0  0  0
  -29.3307  -20.8573   19.5576 C   0  0  0  0  0  0
  -31.2662  -23.7860   19.9826 C   0  0  0  0  0  0
  -28.7753  -24.3096   20.1067 C   0  0  0  0  0  0
  -32.0152  -24.5986   18.9316 C   0  0  0  0  0  0
  -28.6337  -25.5943   19.2645 C   0  0  0  0  0  0
  -29.8478  -23.2929   19.6448 C   0  0  2  0  0  0
  -30.0022  -15.3923   21.2898 N   0  0  0  0  0  0
  -29.6716  -21.9558   20.2476 N   0  0  0  0  0  0
  -28.8686  -20.9226   18.4157 O   0  0  0  0  0  0
  -31.8211  -23.5438   21.0602 O   0  0  0  0  0  0
  -28.0298  -24.1161   21.0760 O   0  0  0  0  0  0
  -31.9368  -19.6849   19.9462 F   0  0  0  0  0  0
  -27.1872  -19.2234   20.5395 F   0  0  0  0  0  0
  -31.4745  -12.4343   19.1051 H   0  0  0  0  0  0
  -30.3643  -11.2923   19.8009 H   0  0  0  0  0  0
  -29.7322  -11.7757   17.4287 H   0  0  0  0  0  0
  -29.6711  -13.4876   17.7610 H   0  0  0  0  0  0
  -27.8141  -11.3192   18.7979 H   0  0  0  0  0  0
  -27.3685  -12.6667   17.7869 H   0  0  0  0  0  0
  -27.7198  -14.2561   19.5998 H   0  0  0  0  0  0
  -28.6839  -11.9029   21.2941 H   0  0  0  0  0  0
  -28.4581  -13.5109   21.8942 H   0  0  0  0  0  0
  -25.2769   -9.5678   22.4755 H   0  0  0  0  0  0
  -24.0007   -7.4625   22.7460 H   0  0  0  0  0  0
  -21.0835   -8.8788   19.8969 H   0  0  0  0  0  0
  -22.3695  -10.9682   19.6170 H   0  0  0  0  0  0
  -21.1993   -7.6146   23.9722 H   0  0  0  0  0  0
  -21.1482   -6.0517   25.9083 H   0  0  0  0  0  0
  -22.0596   -2.7605   23.2847 H   0  0  0  0  0  0
  -22.4100  -11.9937   22.4833 H   0  0  0  0  0  0
  -21.1127  -13.1319   22.2597 H   0  0  0  0  0  0
  -24.6540  -15.8336   20.4730 H   0  0  0  0  0  0
  -26.2645  -15.6131   20.0184 H   0  0  0  0  0  0
  -26.7081  -32.5545   23.1117 H   0  0  0  0  0  0
  -25.0074  -33.9756   25.0479 H   0  0  0  0  0  0
  -22.6875  -31.3080   21.4171 H   0  0  0  0  0  0
  -23.3765  -35.9642   23.3299 H   0  0  0  0  0  0
  -24.3592  -36.8934   22.2047 H   0  0  0  0  0  0
  -23.7224  -37.6518   23.6653 H   0  0  0  0  0  0
  -26.0304  -31.5923   20.5823 H   0  0  0  0  0  0
  -26.8201  -30.8970   21.9673 H   0  0  0  0  0  0
  -28.0939  -29.1063   21.1490 H   0  0  0  0  0  0
  -26.0043  -25.9536   19.0449 H   0  0  0  0  0  0
  -23.9639  -27.2845   19.0609 H   0  0  0  0  0  0
  -23.7129  -30.6009   19.4077 H   0  0  0  0  0  0
  -22.7280  -29.2472   19.8752 H   0  0  0  0  0  0
  -25.1286  -36.1993   25.0822 H   0  0  0  0  0  0
  -20.9928  -28.3245   24.1475 H   0  0  0  0  0  0
  -20.5661  -26.2248   23.3637 H   0  0  0  0  0  0
  -21.6627  -26.7447   22.1250 H   0  0  0  0  0  0
  -19.6919  -25.6300   21.1232 H   0  0  0  0  0  0
  -19.6729  -27.3205   20.6765 H   0  0  0  0  0  0
  -17.4204  -26.6704   21.3980 H   0  0  0  0  0  0
  -18.0290  -26.0081   22.8994 H   0  0  0  0  0  0
  -19.7911  -30.7251   24.2295 H   0  0  0  0  0  0
  -17.5001  -31.6265   24.5180 H   0  0  0  0  0  0
  -15.5337  -30.3008   23.7650 H   0  0  0  0  0  0
  -15.8647  -28.0868   22.7017 H   0  0  0  0  0  0
  -24.5930  -30.7034   25.7835 H   0  0  0  0  0  0
  -24.8890  -32.2879   26.4902 H   0  0  0  0  0  0
  -25.8098  -30.8935   27.0258 H   0  0  0  0  0  0
  -26.2777  -29.6811   24.1174 H   0  0  0  0  0  0
  -27.4100  -29.7286   25.4500 H   0  0  0  0  0  0
  -27.8592  -30.4358   23.9143 H   0  0  0  0  0  0
  -27.2808  -33.3599   26.2058 H   0  0  0  0  0  0
  -28.3888  -32.6831   25.0214 H   0  0  0  0  0  0
  -28.0824  -31.8374   26.5290 H   0  0  0  0  0  0
  -28.2628  -38.0086   24.7505 H   0  0  0  0  0  0
  -28.1060  -36.2621   24.6262 H   0  0  0  0  0  0
  -27.2304  -37.1433   25.8851 H   0  0  0  0  0  0
  -20.9306  -29.8723   21.6947 H   0  0  0  0  0  0
  -26.0199  -38.2882   24.1460 H   0  0  0  0  0  0
  -32.0259  -17.1916   20.6995 H   0  0  0  0  0  0
  -27.7604  -16.7975   21.2611 H   0  0  0  0  0  0
  -31.7310  -24.2864   17.9269 H   0  0  0  0  0  0
  -33.0897  -24.4544   19.0386 H   0  0  0  0  0  0
  -31.8053  -25.6624   19.0436 H   0  0  0  0  0  0
  -27.8721  -25.4572   18.5000 H   0  0  0  0  0  0
  -29.5564  -25.7539   18.7115 H   0  0  0  0  0  0
  -29.7760  -23.2220   18.5593 H   0  0  0  0  0  0
  -29.1820  -15.0016   21.7286 H   0  0  0  0  0  0
  -30.0345  -21.8487   21.1838 H   0  0  0  0  0  0
  1 25  1  0  0  0
  1 30  2  0  0  0
  1 83  1  0  0  0
  2  3  1  0  0  0
  2 25  1  0  0  0
  2 90  1  0  0  0
  2 91  1  0  0  0
  3  4  1  0  0  0
  3 92  1  0  0  0
  3 93  1  0  0  0
  4  5  1  0  0  0
  4 94  1  0  0  0
  4 95  1  0  0  0
  5  6  1  0  0  0
  5 26  1  0  0  0
  5 96  1  0  0  0
  6 25  1  0  0  0
  6 97  1  0  0  0
  6 98  1  0  0  0
  7  8  2  0  0  0
  7 26  1  0  0  0
  7 29  1  0  0  0
  8  9  1  0  0  0
  8 22  1  0  0  0
  9 10  1  0  0  0
  9 27  2  0  0  0
 10 11  2  0  0  0
 10 15  1  0  0  0
 11 12  1  0  0  0
 11 99  1  0  0  0
 12 13  2  0  0  0
 12100  1  0  0  0
 13 14  1  0  0  0
 13 31  1  0  0  0
 14 15  2  0  0  0
 14101  1  0  0  0
 15102  1  0  0  0
 16 17  2  0  0  0
 16 21  1  0  0  0
 16 31  1  0  0  0
 17 18  1  0  0  0
 17103  1  0  0  0
 18 19  2  0  0  0
 18104  1  0  0  0
 19 20  1  0  0  0
 19 24  1  0  0  0
 20 21  2  0  0  0
 20105  1  0  0  0
 21 23  1  0  0  0
 22 28  1  0  0  0
 22 32  2  0  0  0
 26 27  1  0  0  0
 28106  1  0  0  0
 28107  1  0  0  0
 29108  1  0  0  0
 29109  1  0  0  0
 33 34  1  0  0  0
 33 66  1  0  0  0
 33 70  2  0  0  0
 34 36  1  0  0  0
 34 59  1  0  0  0
 34110  1  0  0  0
 35 44  2  0  0  0
 35 45  1  0  0  0
 35 68  1  0  0  0
 36 56  1  0  0  0
 36111  1  0  0  0
 37 39  1  0  0  0
 37 47  1  0  0  0
 37 66  1  0  0  0
 37112  1  0  0  0
 38 43  2  0  0  0
 38 46  1  0  0  0
 38 47  1  0  0  0
 39 64  1  0  0  0
 39 67  2  0  0  0
 40 52  1  0  0  0
 40 53  2  0  0  0
 40 58  1  0  0  0
 41113  1  0  0  0
 41114  1  0  0  0
 41115  1  0  0  0
 41 48  1  0  0  0
 42 43  1  0  0  0
 42 66  1  0  0  0
 42116  1  0  0  0
 42117  1  0  0  0
 43 44  1  0  0  0
 44118  1  0  0  0
 45 46  2  0  0  0
 45119  1  0  0  0
 46120  1  0  0  0
 47121  1  0  0  0
 47122  1  0  0  0
 48 56  1  0  0  0
 48 65  1  0  0  0
 48123  1  0  0  0
 49 50  1  0  0  0
 49 53  1  0  0  0
 49 64  1  0  0  0
 49124  1  0  0  0
 50 51  1  0  0  0
 50125  1  0  0  0
 50126  1  0  0  0
 51 52  1  0  0  0
 51127  1  0  0  0
 51128  1  0  0  0
 52129  1  0  0  0
 52130  1  0  0  0
 53 54  1  0  0  0
 54 55  2  0  0  0
 54131  1  0  0  0
 55 57  1  0  0  0
 55132  1  0  0  0
 56 69  2  0  0  0
 57 58  2  0  0  0
 57133  1  0  0  0
 58134  1  0  0  0
 59 60  1  0  0  0
 59 61  1  0  0  0
 59 62  1  0  0  0
 60135  1  0  0  0
 60136  1  0  0  0
 60137  1  0  0  0
 61138  1  0  0  0
 61139  1  0  0  0
 61140  1  0  0  0
 62141  1  0  0  0
 62142  1  0  0  0
 62143  1  0  0  0
 63 65  1  0  0  0
 63144  1  0  0  0
 63145  1  0  0  0
 63146  1  0  0  0
 64147  1  0  0  0
 65148  1  0  0  0
 68 81  1  0  0  0
 71 74  2  0  0  0
 71 75  1  0  0  0
 71149  1  0  0  0
 72 74  1  0  0  0
 72 76  2  0  0  0
 72150  1  0  0  0
 73 75  2  0  0  0
 73 76  1  0  0  0
 73 77  1  0  0  0
 74 83  1  0  0  0
 75 88  1  0  0  0
 76 89  1  0  0  0
 77 84  1  0  0  0
 77 85  2  0  0  0
 78 80  1  0  0  0
 78 82  1  0  0  0
 78 86  2  0  0  0
 79 81  1  0  0  0
 79 82  1  0  0  0
 79 87  2  0  0  0
 80151  1  0  0  0
 80152  1  0  0  0
 80153  1  0  0  0
 81154  1  0  0  0
 81155  1  0  0  0
 82 84  1  0  0  0
 82156  1  0  0  0
 83157  1  0  0  0
 84158  1  0  0  0
M  ISO  4   1 100  68 101  81 101  83 100
M  END
> <chiral flag>
0

> <version>
0

> <s_m_source_file>
/data/baiqing/PycharmProjects/Reinvent-master-3.2/result/LINK_invent/BTK/process_docking_weight1_custom_product_contain_oxygen_bond_distance_aromatic_linkinvent_7_9_3/rearranged_h_0172.sdf

> <i_m_source_file_index>
56

> <r_mmod_Potential_Energy-OPLS-2005>
-166.812484741211

> <r_mmod_Stretch_Energy-OPLS-2005>
38.307731628418

> <r_mmod_Bend_Energy-OPLS-2005>
103.700859069824

> <r_mmod_Torsional_Energy-OPLS-2005>
228.526931762695

> <r_mmod_Improper_Torsional_Energy-OPLS-2005>
6.1448278427124

> <r_mmod_Van_der_Waal_Energy-OPLS-2005>
150.110092163086

> <r_mmod_Electrostatic_Energy-OPLS-2005>
-450.346649169922

> <r_mmod_Solvation_Energy-OPLS-2005>
-254.52848815918

> <b_mmod_Minimization_Converged-OPLS-2005>
0

> <r_mmod_RMS_Derivative-OPLS-2005>
2.404141664505

$$$$
56
                    3D
 Structure written by MMmdl.
153161  0  0  1  0            999 V2000
  -30.5876  -14.8116   20.4297 C   0  0  0  0  0  0
  -30.4288  -12.4927   19.4971 C   0  0  0  0  0  0
  -29.5089  -12.5176   18.2541 C   0  0  0  0  0  0
  -28.0391  -12.3259   18.6685 C   0  0  0  0  0  0
  -27.6372  -13.2399   19.8558 C   0  0  2  0  0  0
  -28.6785  -13.2083   20.9962 C   0  0  0  0  0  0
  -25.2473  -13.8230   20.5730 C   0  0  0  0  0  0
  -24.1761  -13.0454   20.9207 C   0  0  0  0  0  0
  -24.6368  -11.6938   20.8758 C   0  0  0  0  0  0
  -23.9055  -10.4307   21.0413 C   0  0  0  0  0  0
  -24.3615   -9.4220   21.9181 C   0  0  0  0  0  0
  -23.6290   -8.2254   22.0752 C   0  0  0  0  0  0
  -22.4268   -8.0290   21.3546 C   0  0  0  0  0  0
  -21.9903   -9.0266   20.4650 C   0  0  0  0  0  0
  -22.7227  -10.2150   20.3064 C   0  0  0  0  0  0
  -21.6856   -6.0733   22.5273 C   0  0  0  0  0  0
  -21.4020   -6.5634   23.8207 C   0  0  0  0  0  0
  -21.3668   -5.6786   24.9168 C   0  0  0  0  0  0
  -21.6048   -4.3050   24.7219 C   0  0  0  0  0  0
  -21.8817   -3.8144   23.4337 C   0  0  0  0  0  0
  -21.9190   -4.6961   22.3393 C   0  0  0  0  0  0
  -22.7785  -13.5240   21.1862 C   0  0  0  0  0  0
  -22.1657   -4.2143   21.0970 F   0  0  0  0  0  0
  -21.5637   -3.4534   25.7732 F   0  0  0  0  0  0
  -29.9769  -13.5698   20.4162 N   0  0  0  0  0  0
  -26.2905  -12.9445   20.3335 N   0  0  0  0  0  0
  -25.9305  -11.6579   20.5787 N   0  0  0  0  0  0
  -22.0428  -12.8247   22.0436 N   0  0  0  0  0  0
  -25.4170  -15.1953   20.4174 N   0  0  0  0  0  0
  -31.7712  -14.8899   20.0851 O   0  0  0  0  0  0
  -21.6642   -6.8877   21.4236 O   0  0  0  0  0  0
  -22.3466  -14.5527   20.6683 O   0  0  0  0  0  0
  -24.6357  -31.8498   23.1934 C   0  0  0  0  0  0
  -25.9153  -32.4724   23.8309 C   0  0  1  0  0  0
  -27.2232  -27.2205   20.1376 C   0  0  0  0  0  0
  -25.5935  -33.8526   24.2233 N   0  0  0  0  0  0
  -23.4367  -30.4705   21.5372 C   0  0  2  0  0  0
  -24.8869  -28.9139   20.1089 C   0  0  0  0  0  0
  -22.7534  -29.4573   22.4887 C   0  0  0  0  0  0
  -18.0296  -28.1375   22.8486 C   0  0  0  0  0  0
  -24.1504  -36.7250   23.2639 C   0  0  0  0  0  0
  -25.9867  -30.7538   21.3806 C   0  0  0  0  0  0
  -26.0607  -29.3736   20.7189 C   0  0  0  0  0  0
  -27.2304  -28.5407   20.7191 C   0  0  0  0  0  0
  -26.0197  -26.8371   19.5026 C   0  0  0  0  0  0
  -24.8744  -27.6565   19.4892 C   0  0  0  0  0  0
  -23.6581  -29.8004   20.1563 C   0  0  0  0  0  0
  -25.4131  -36.3044   24.0329 C   0  0  1  0  0  0
  -20.5905  -28.3695   23.1250 C   0  0  2  0  0  0
  -20.6783  -26.9405   22.5403 C   0  0  0  0  0  0
  -19.5762  -26.6377   21.5207 C   0  0  0  0  0  0
  -18.1945  -26.7916   22.1630 C   0  0  0  0  0  0
  -19.1552  -28.8857   23.2858 C   0  0  0  0  0  0
  -18.9467  -30.1453   23.8880 C   0  0  0  0  0  0
  -17.6468  -30.6583   24.0550 C   0  0  0  0  0  0
  -25.9081  -34.9413   23.5097 C   0  0  0  0  0  0
  -16.5358  -29.9076   23.6322 C   0  0  0  0  0  0
  -16.7281  -28.6486   23.0356 C   0  0  0  0  0  0
  -26.4521  -31.6548   25.0705 C   0  0  0  0  0  0
  -25.3744  -31.3701   26.1433 C   0  0  0  0  0  0
  -27.0342  -30.2939   24.6226 C   0  0  0  0  0  0
  -27.6106  -32.4268   25.7440 C   0  0  0  0  0  0
  -27.5586  -37.1772   24.8475 C   0  0  0  0  0  0
  -21.4236  -29.3020   22.3623 N   0  0  0  0  0  0
  -26.4301  -37.3747   23.9416 N   0  0  0  0  0  0
  -24.7053  -31.0442   22.0919 N   0  0  0  0  0  0
  -23.4210  -28.8131   23.3022 O   0  0  0  0  0  0
  -28.3029  -26.2974   20.2372 O   0  0  0  0  0  0
  -26.5662  -34.8904   22.4670 O   0  0  0  0  0  0
  -23.5488  -32.1327   23.7202 O   0  0  0  0  0  0
  -29.4982  -18.6416   20.5835 C   0  0  0  0  0  0
  -30.4130  -17.3961   18.7221 C   0  0  0  0  0  0
  -30.2304  -19.8674   18.5812 C   0  0  0  0  0  0
  -29.9351  -17.3421   20.0438 C   0  0  0  0  0  0
  -29.6016  -19.9330   19.8749 C   0  0  0  0  0  0
  -30.5416  -18.6027   18.0119 C   0  0  0  0  0  0
  -28.2059  -24.9134   19.8429 C   0  0  0  0  0  0
  -28.6772  -23.7571   20.4727 C   0  0  0  0  0  0
  -28.5474  -22.3600   19.8718 C   0  0  0  0  0  0
  -30.6673  -21.1104   17.7729 C   0  0  0  0  0  0
  -29.2083  -21.2733   20.4580 N   0  0  0  0  0  0
  -29.8369  -15.9735   20.6737 N   0  0  0  0  0  0
  -27.8385  -22.1544   18.8862 O   0  0  0  0  0  0
  -29.2883  -23.8683   21.6625 O   0  0  0  0  0  0
  -30.9991  -18.5105   16.7379 F   0  0  0  0  0  0
  -29.6900  -21.5391   16.9751 F   0  0  0  0  0  0
  -31.0717  -22.1131   18.5527 F   0  0  0  0  0  0
  -31.7197  -20.8540   16.9944 F   0  0  0  0  0  0
  -31.4689  -12.6159   19.1911 H   0  0  0  0  0  0
  -30.3807  -11.5226   19.9943 H   0  0  0  0  0  0
  -29.8028  -11.7408   17.5471 H   0  0  0  0  0  0
  -29.6185  -13.4683   17.7297 H   0  0  0  0  0  0
  -27.9112  -11.2799   18.9500 H   0  0  0  0  0  0
  -27.3765  -12.4942   17.8188 H   0  0  0  0  0  0
  -27.6225  -14.2550   19.4584 H   0  0  0  0  0  0
  -28.7225  -12.2211   21.4583 H   0  0  0  0  0  0
  -28.4000  -13.9057   21.7875 H   0  0  0  0  0  0
  -25.2756   -9.5695   22.4759 H   0  0  0  0  0  0
  -23.9997   -7.4642   22.7469 H   0  0  0  0  0  0
  -21.0835   -8.8778   19.8964 H   0  0  0  0  0  0
  -22.3666  -10.9688   19.6188 H   0  0  0  0  0  0
  -21.2014   -7.6143   23.9705 H   0  0  0  0  0  0
  -21.1501   -6.0521   25.9072 H   0  0  0  0  0  0
  -22.0592   -2.7604   23.2831 H   0  0  0  0  0  0
  -22.4053  -11.9944   22.4877 H   0  0  0  0  0  0
  -21.1051  -13.1290   22.2639 H   0  0  0  0  0  0
  -24.6502  -15.8508   20.5222 H   0  0  0  0  0  0
  -26.2776  -15.6395   20.1240 H   0  0  0  0  0  0
  -26.7213  -32.5378   23.1039 H   0  0  0  0  0  0
  -25.0049  -33.9672   25.0357 H   0  0  0  0  0  0
  -22.7344  -31.2915   21.3843 H   0  0  0  0  0  0
  -23.3782  -35.9570   23.3316 H   0  0  0  0  0  0
  -24.3581  -36.8852   22.2046 H   0  0  0  0  0  0
  -23.7254  -37.6457   23.6649 H   0  0  0  0  0  0
  -26.1377  -31.5163   20.6158 H   0  0  0  0  0  0
  -26.8585  -30.7991   22.0218 H   0  0  0  0  0  0
  -28.1300  -28.8889   21.2090 H   0  0  0  0  0  0
  -25.9164  -25.8657   19.0444 H   0  0  0  0  0  0
  -23.9717  -27.2956   19.0160 H   0  0  0  0  0  0
  -23.7815  -30.5710   19.3948 H   0  0  0  0  0  0
  -22.7798  -29.2267   19.8556 H   0  0  0  0  0  0
  -25.1316  -36.1884   25.0824 H   0  0  0  0  0  0
  -20.9991  -28.3266   24.1370 H   0  0  0  0  0  0
  -20.5674  -26.2300   23.3619 H   0  0  0  0  0  0
  -21.6654  -26.7415   22.1200 H   0  0  0  0  0  0
  -19.6936  -25.6289   21.1229 H   0  0  0  0  0  0
  -19.6697  -27.3193   20.6739 H   0  0  0  0  0  0
  -17.4208  -26.6639   21.4036 H   0  0  0  0  0  0
  -18.0368  -26.0055   22.9031 H   0  0  0  0  0  0
  -19.7942  -30.7267   24.2251 H   0  0  0  0  0  0
  -17.5023  -31.6262   24.5142 H   0  0  0  0  0  0
  -15.5356  -30.2976   23.7665 H   0  0  0  0  0  0
  -15.8678  -28.0796   22.7092 H   0  0  0  0  0  0
  -24.5924  -30.7048   25.7747 H   0  0  0  0  0  0
  -24.8935  -32.2865   26.4856 H   0  0  0  0  0  0
  -25.8069  -30.8862   27.0201 H   0  0  0  0  0  0
  -26.2904  -29.6687   24.1277 H   0  0  0  0  0  0
  -27.4003  -29.7220   25.4763 H   0  0  0  0  0  0
  -27.8814  -30.4163   23.9477 H   0  0  0  0  0  0
  -27.2763  -33.3593   26.1996 H   0  0  0  0  0  0
  -28.3913  -32.6774   25.0241 H   0  0  0  0  0  0
  -28.0793  -31.8394   26.5350 H   0  0  0  0  0  0
  -28.2615  -38.0058   24.7520 H   0  0  0  0  0  0
  -28.1075  -36.2590   24.6314 H   0  0  0  0  0  0
  -27.2304  -37.1443   25.8880 H   0  0  0  0  0  0
  -20.9449  -29.8696   21.6777 H   0  0  0  0  0  0
  -26.0183  -38.2819   24.1429 H   0  0  0  0  0  0
  -29.0763  -18.6534   21.5787 H   0  0  0  0  0  0
  -30.6963  -16.4907   18.2075 H   0  0  0  0  0  0
  -27.7242  -24.8247   18.8787 H   0  0  0  0  0  0
  -29.5719  -21.4763   21.3794 H   0  0  0  0  0  0
  -28.9962  -15.8126   21.2093 H   0  0  0  0  0  0
  -29.2570  -24.7855   21.9053 H   0  0  0  0  0  0
  1 25  1  0  0  0
  1 30  2  0  0  0
  1 82  1  0  0  0
  2  3  1  0  0  0
  2 25  1  0  0  0
  2 89  1  0  0  0
  2 90  1  0  0  0
  3  4  1  0  0  0
  3 91  1  0  0  0
  3 92  1  0  0  0
  4  5  1  0  0  0
  4 93  1  0  0  0
  4 94  1  0  0  0
  5  6  1  0  0  0
  5 26  1  0  0  0
  5 95  1  0  0  0
  6 25  1  0  0  0
  6 96  1  0  0  0
  6 97  1  0  0  0
  7  8  2  0  0  0
  7 26  1  0  0  0
  7 29  1  0  0  0
  8  9  1  0  0  0
  8 22  1  0  0  0
  9 10  1  0  0  0
  9 27  2  0  0  0
 10 11  2  0  0  0
 10 15  1  0  0  0
 11 12  1  0  0  0
 11 98  1  0  0  0
 12 13  2  0  0  0
 12 99  1  0  0  0
 13 14  1  0  0  0
 13 31  1  0  0  0
 14 15  2  0  0  0
 14100  1  0  0  0
 15101  1  0  0  0
 16 17  2  0  0  0
 16 21  1  0  0  0
 16 31  1  0  0  0
 17 18  1  0  0  0
 17102  1  0  0  0
 18 19  2  0  0  0
 18103  1  0  0  0
 19 20  1  0  0  0
 19 24  1  0  0  0
 20 21  2  0  0  0
 20104  1  0  0  0
 21 23  1  0  0  0
 22 28  1  0  0  0
 22 32  2  0  0  0
 26 27  1  0  0  0
 28105  1  0  0  0
 28106  1  0  0  0
 29107  1  0  0  0
 29108  1  0  0  0
 33 34  1  0  0  0
 33 66  1  0  0  0
 33 70  2  0  0  0
 34 36  1  0  0  0
 34 59  1  0  0  0
 34109  1  0  0  0
 35 44  2  0  0  0
 35 45  1  0  0  0
 35 68  1  0  0  0
 36 56  1  0  0  0
 36110  1  0  0  0
 37 39  1  0  0  0
 37 47  1  0  0  0
 37 66  1  0  0  0
 37111  1  0  0  0
 38 43  2  0  0  0
 38 46  1  0  0  0
 38 47  1  0  0  0
 39 64  1  0  0  0
 39 67  2  0  0  0
 40 52  1  0  0  0
 40 53  2  0  0  0
 40 58  1  0  0  0
 41112  1  0  0  0
 41113  1  0  0  0
 41114  1  0  0  0
 41 48  1  0  0  0
 42 43  1  0  0  0
 42 66  1  0  0  0
 42115  1  0  0  0
 42116  1  0  0  0
 43 44  1  0  0  0
 44117  1  0  0  0
 45 46  2  0  0  0
 45118  1  0  0  0
 46119  1  0  0  0
 47120  1  0  0  0
 47121  1  0  0  0
 48 56  1  0  0  0
 48 65  1  0  0  0
 48122  1  0  0  0
 49 50  1  0  0  0
 49 53  1  0  0  0
 49 64  1  0  0  0
 49123  1  0  0  0
 50 51  1  0  0  0
 50124  1  0  0  0
 50125  1  0  0  0
 51 52  1  0  0  0
 51126  1  0  0  0
 51127  1  0  0  0
 52128  1  0  0  0
 52129  1  0  0  0
 53 54  1  0  0  0
 54 55  2  0  0  0
 54130  1  0  0  0
 55 57  1  0  0  0
 55131  1  0  0  0
 56 69  2  0  0  0
 57 58  2  0  0  0
 57132  1  0  0  0
 58133  1  0  0  0
 59 60  1  0  0  0
 59 61  1  0  0  0
 59 62  1  0  0  0
 60134  1  0  0  0
 60135  1  0  0  0
 60136  1  0  0  0
 61137  1  0  0  0
 61138  1  0  0  0
 61139  1  0  0  0
 62140  1  0  0  0
 62141  1  0  0  0
 62142  1  0  0  0
 63 65  1  0  0  0
 63143  1  0  0  0
 63144  1  0  0  0
 63145  1  0  0  0
 64146  1  0  0  0
 65147  1  0  0  0
 68 77  1  0  0  0
 71 74  2  0  0  0
 71 75  1  0  0  0
 71148  1  0  0  0
 72 74  1  0  0  0
 72 76  2  0  0  0
 72149  1  0  0  0
 73 75  2  0  0  0
 73 76  1  0  0  0
 73 80  1  0  0  0
 74 82  1  0  0  0
 75 81  1  0  0  0
 76 85  1  0  0  0
 77 78  2  0  0  0
 77150  1  0  0  0
 78 79  1  0  0  0
 78 84  1  0  0  0
 79 81  1  0  0  0
 79 83  2  0  0  0
 80 86  1  0  0  0
 80 87  1  0  0  0
 80 88  1  0  0  0
 81151  1  0  0  0
 82152  1  0  0  0
 84153  1  0  0  0
M  ISO  4   1 100  68 101  77 101  82 100
M  END
> <chiral flag>
0

> <version>
0

> <s_m_source_file>
/data/baiqing/PycharmProjects/Reinvent-master-3.2/result/LINK_invent/BTK/process_docking_weight1_custom_product_contain_oxygen_bond_distance_aromatic_linkinvent_7_9_3/rearranged_h_0172.sdf

> <i_m_source_file_index>
57

> <r_mmod_Potential_Energy-OPLS-2005>
312.919738769531

> <r_mmod_Stretch_Energy-OPLS-2005>
162.252807617188

> <r_mmod_Bend_Energy-OPLS-2005>
173.32487487793

> <r_mmod_Torsional_Energy-OPLS-2005>
258.035400390625

> <r_mmod_Improper_Torsional_Energy-OPLS-2005>
5.24879264831543

> <r_mmod_Van_der_Waal_Energy-OPLS-2005>
153.348052978516

> <r_mmod_Electrostatic_Energy-OPLS-2005>
-326.400329589844

> <r_mmod_Solvation_Energy-OPLS-2005>
-229.490783691406

> <b_mmod_Minimization_Converged-OPLS-2005>
0

> <r_mmod_RMS_Derivative-OPLS-2005>
2.34060573577881

$$$$
57
                    3D
 Structure written by MMmdl.
157165  0  0  1  0            999 V2000
  -30.6779  -14.5285   20.4882 C   0  0  0  0  0  0
  -30.4165  -12.3283   19.4262 C   0  0  0  0  0  0
  -29.4816  -12.5164   18.2111 C   0  0  0  0  0  0
  -28.0041  -12.3798   18.6315 C   0  0  0  0  0  0
  -27.6572  -13.2148   19.8919 C   0  0  2  0  0  0
  -28.7109  -13.0297   21.0085 C   0  0  0  0  0  0
  -25.2565  -13.8167   20.5761 C   0  0  0  0  0  0
  -24.1838  -13.0436   20.9229 C   0  0  0  0  0  0
  -24.6424  -11.6904   20.8807 C   0  0  0  0  0  0
  -23.9111  -10.4287   21.0452 C   0  0  0  0  0  0
  -24.3650   -9.4171   21.9199 C   0  0  0  0  0  0
  -23.6295   -8.2224   22.0759 C   0  0  0  0  0  0
  -22.4270   -8.0299   21.3543 C   0  0  0  0  0  0
  -21.9939   -9.0299   20.4642 C   0  0  0  0  0  0
  -22.7303  -10.2151   20.3078 C   0  0  0  0  0  0
  -21.6822   -6.0755   22.5278 C   0  0  0  0  0  0
  -21.3990   -6.5668   23.8212 C   0  0  0  0  0  0
  -21.3663   -5.6820   24.9180 C   0  0  0  0  0  0
  -21.6044   -4.3085   24.7220 C   0  0  0  0  0  0
  -21.8806   -3.8173   23.4333 C   0  0  0  0  0  0
  -21.9170   -4.6983   22.3389 C   0  0  0  0  0  0
  -22.7841  -13.5205   21.1879 C   0  0  0  0  0  0
  -22.1649   -4.2175   21.0961 F   0  0  0  0  0  0
  -21.5651   -3.4573   25.7734 F   0  0  0  0  0  0
  -30.0272  -13.3334   20.4294 N   0  0  0  0  0  0
  -26.3025  -12.9367   20.3520 N   0  0  0  0  0  0
  -25.9362  -11.6511   20.5907 N   0  0  0  0  0  0
  -22.0502  -12.8170   22.0412 N   0  0  0  0  0  0
  -25.4268  -15.1898   20.4163 N   0  0  0  0  0  0
  -31.8719  -14.6390   20.1958 O   0  0  0  0  0  0
  -21.6614   -6.8915   21.4249 O   0  0  0  0  0  0
  -22.3516  -14.5521   20.6750 O   0  0  0  0  0  0
  -24.6205  -31.8648   23.2089 C   0  0  0  0  0  0
  -25.9068  -32.4815   23.8381 C   0  0  1  0  0  0
  -27.2266  -27.3797   20.0825 C   0  0  0  0  0  0
  -25.5913  -33.8620   24.2310 N   0  0  0  0  0  0
  -23.4085  -30.4952   21.5539 C   0  0  2  0  0  0
  -24.8525  -28.9677   20.1081 C   0  0  0  0  0  0
  -22.7413  -29.4665   22.4971 C   0  0  0  0  0  0
  -18.0271  -28.1364   22.8481 C   0  0  0  0  0  0
  -24.1507  -36.7314   23.2630 C   0  0  0  0  0  0
  -25.9462  -30.8190   21.3696 C   0  0  0  0  0  0
  -26.0215  -29.4543   20.7037 C   0  0  0  0  0  0
  -27.2093  -28.6719   20.6827 C   0  0  0  0  0  0
  -26.0190  -26.9248   19.4959 C   0  0  0  0  0  0
  -24.8519  -27.7070   19.4988 C   0  0  0  0  0  0
  -23.6140  -29.8358   20.1671 C   0  0  0  0  0  0
  -25.4134  -36.3118   24.0313 C   0  0  1  0  0  0
  -20.5864  -28.3671   23.1294 C   0  0  2  0  0  0
  -20.6778  -26.9413   22.5401 C   0  0  0  0  0  0
  -19.5763  -26.6377   21.5203 C   0  0  0  0  0  0
  -18.1935  -26.7910   22.1607 C   0  0  0  0  0  0
  -19.1516  -28.8838   23.2879 C   0  0  0  0  0  0
  -18.9450  -30.1447   23.8886 C   0  0  0  0  0  0
  -17.6456  -30.6581   24.0576 C   0  0  0  0  0  0
  -25.9051  -34.9475   23.5109 C   0  0  0  0  0  0
  -16.5346  -29.9080   23.6342 C   0  0  0  0  0  0
  -16.7263  -28.6496   23.0355 C   0  0  0  0  0  0
  -26.4480  -31.6581   25.0716 C   0  0  0  0  0  0
  -25.3712  -31.3687   26.1434 C   0  0  0  0  0  0
  -27.0308  -30.3001   24.6127 C   0  0  0  0  0  0
  -27.6048  -32.4289   25.7485 C   0  0  0  0  0  0
  -27.5593  -37.1817   24.8450 C   0  0  0  0  0  0
  -21.4134  -29.3036   22.3688 N   0  0  0  0  0  0
  -26.4319  -37.3799   23.9383 N   0  0  0  0  0  0
  -24.6773  -31.0715   22.1017 N   0  0  0  0  0  0
  -23.4159  -28.8201   23.3022 O   0  0  0  0  0  0
  -28.3837  -26.5958   20.1331 O   0  0  0  0  0  0
  -26.5618  -34.8931   22.4678 O   0  0  0  0  0  0
  -23.5392  -32.1409   23.7474 O   0  0  0  0  0  0
  -29.5973  -18.1225   20.4846 C   0  0  0  0  0  0
  -30.6552  -18.0808   17.8871 C   0  0  0  0  0  0
  -29.7061  -19.3485   19.7513 C   0  0  0  0  0  0
  -30.0441  -16.8784   19.9371 C   0  0  0  0  0  0
  -30.2521  -19.3048   18.4417 C   0  0  0  0  0  0
  -30.5325  -16.8814   18.6038 C   0  0  0  0  0  0
  -29.2452  -24.1886   19.8561 C   0  0  0  0  0  0
  -28.7539  -22.9164   19.9651 C   0  0  0  0  0  0
  -29.6715  -21.8007   20.3097 C   0  0  0  0  0  0
  -27.2935  -22.5819   19.6600 C   0  0  0  0  0  0
  -28.5449  -25.4364   19.2619 C   0  0  0  0  0  0
  -30.3314  -20.4381   17.6280 N   0  0  0  0  0  0
  -29.1003  -20.5725   20.2084 N   0  0  0  0  0  0
  -29.9027  -15.6301   20.6606 N   0  0  0  0  0  0
  -30.8552  -21.9364   20.6350 O   0  0  0  0  0  0
  -30.8313  -15.7320   17.9517 F   0  0  0  0  0  0
  -31.4587  -12.4266   19.1154 H   0  0  0  0  0  0
  -30.3142  -11.3255   19.8426 H   0  0  0  0  0  0
  -29.7179  -11.7917   17.4291 H   0  0  0  0  0  0
  -29.6381  -13.5040   17.7702 H   0  0  0  0  0  0
  -27.8017  -11.3238   18.8155 H   0  0  0  0  0  0
  -27.3522  -12.6761   17.8084 H   0  0  0  0  0  0
  -27.6880  -14.2605   19.5869 H   0  0  0  0  0  0
  -28.7058  -12.0079   21.3912 H   0  0  0  0  0  0
  -28.4965  -13.6702   21.8651 H   0  0  0  0  0  0
  -25.2783   -9.5619   22.4789 H   0  0  0  0  0  0
  -23.9996   -7.4569   22.7452 H   0  0  0  0  0  0
  -21.0897   -8.8861   19.8878 H   0  0  0  0  0  0
  -22.3811  -10.9737   19.6217 H   0  0  0  0  0  0
  -21.1979   -7.6166   23.9748 H   0  0  0  0  0  0
  -21.1508   -6.0537   25.9092 H   0  0  0  0  0  0
  -22.0571   -2.7630   23.2835 H   0  0  0  0  0  0
  -22.4169  -11.9823   22.4745 H   0  0  0  0  0  0
  -21.1111  -13.1158   22.2697 H   0  0  0  0  0  0
  -24.6619  -15.8439   20.5356 H   0  0  0  0  0  0
  -26.2808  -15.6318   20.1010 H   0  0  0  0  0  0
  -26.7144  -32.5510   23.1145 H   0  0  0  0  0  0
  -25.0071  -33.9762   25.0468 H   0  0  0  0  0  0
  -22.7005  -31.3164   21.4208 H   0  0  0  0  0  0
  -23.3778  -35.9638   23.3295 H   0  0  0  0  0  0
  -24.3601  -36.8934   22.2043 H   0  0  0  0  0  0
  -23.7258  -37.6507   23.6670 H   0  0  0  0  0  0
  -26.0674  -31.5966   20.6140 H   0  0  0  0  0  0
  -26.8299  -30.8589   21.9948 H   0  0  0  0  0  0
  -28.1120  -29.0560   21.1376 H   0  0  0  0  0  0
  -25.9072  -25.9507   19.0526 H   0  0  0  0  0  0
  -23.9475  -27.3244   19.0459 H   0  0  0  0  0  0
  -23.7123  -30.6156   19.4109 H   0  0  0  0  0  0
  -22.7340  -29.2582   19.8764 H   0  0  0  0  0  0
  -25.1334  -36.1977   25.0810 H   0  0  0  0  0  0
  -20.9968  -28.3271   24.1404 H   0  0  0  0  0  0
  -20.5719  -26.2277   23.3588 H   0  0  0  0  0  0
  -21.6648  -26.7473   22.1193 H   0  0  0  0  0  0
  -19.6956  -25.6289   21.1231 H   0  0  0  0  0  0
  -19.6714  -27.3185   20.6737 H   0  0  0  0  0  0
  -17.4211  -26.6648   21.4006 H   0  0  0  0  0  0
  -18.0349  -26.0033   22.8989 H   0  0  0  0  0  0
  -19.7928  -30.7272   24.2227 H   0  0  0  0  0  0
  -17.5013  -31.6257   24.5181 H   0  0  0  0  0  0
  -15.5348  -30.2998   23.7662 H   0  0  0  0  0  0
  -15.8649  -28.0841   22.7066 H   0  0  0  0  0  0
  -24.5896  -30.7032   25.7738 H   0  0  0  0  0  0
  -24.8895  -32.2841   26.4866 H   0  0  0  0  0  0
  -25.8025  -30.8838   27.0192 H   0  0  0  0  0  0
  -26.2857  -29.6743   24.1182 H   0  0  0  0  0  0
  -27.4031  -29.7258   25.4614 H   0  0  0  0  0  0
  -27.8737  -30.4278   23.9329 H   0  0  0  0  0  0
  -27.2690  -33.3606   26.2054 H   0  0  0  0  0  0
  -28.3883  -32.6783   25.0319 H   0  0  0  0  0  0
  -28.0688  -31.8389   26.5401 H   0  0  0  0  0  0
  -28.2609  -38.0119   24.7532 H   0  0  0  0  0  0
  -28.1108  -36.2636   24.6302 H   0  0  0  0  0  0
  -27.2289  -37.1507   25.8848 H   0  0  0  0  0  0
  -20.9282  -29.8730   21.6888 H   0  0  0  0  0  0
  -26.0209  -38.2879   24.1375 H   0  0  0  0  0  0
  -29.1472  -18.1316   21.4672 H   0  0  0  0  0  0
  -31.0171  -18.0366   16.8708 H   0  0  0  0  0  0
  -30.2710  -24.3690   20.1434 H   0  0  0  0  0  0
  -26.6516  -23.4569   19.7423 H   0  0  0  0  0  0
  -26.8847  -21.8566   20.3654 H   0  0  0  0  0  0
  -27.2029  -22.1577   18.6586 H   0  0  0  0  0  0
  -27.6576  -25.1037   18.7403 H   0  0  0  0  0  0
  -29.1923  -25.7731   18.4524 H   0  0  0  0  0  0
  -30.4682  -20.3246   16.6280 H   0  0  0  0  0  0
  -29.8363  -21.2837   17.8858 H   0  0  0  0  0  0
  -28.0979  -20.6083   20.0833 H   0  0  0  0  0  0
  -29.0034  -15.4773   21.0915 H   0  0  0  0  0  0
  1 25  1  0  0  0
  1 30  2  0  0  0
  1 84  1  0  0  0
  2  3  1  0  0  0
  2 25  1  0  0  0
  2 87  1  0  0  0
  2 88  1  0  0  0
  3  4  1  0  0  0
  3 89  1  0  0  0
  3 90  1  0  0  0
  4  5  1  0  0  0
  4 91  1  0  0  0
  4 92  1  0  0  0
  5  6  1  0  0  0
  5 26  1  0  0  0
  5 93  1  0  0  0
  6 25  1  0  0  0
  6 94  1  0  0  0
  6 95  1  0  0  0
  7  8  2  0  0  0
  7 26  1  0  0  0
  7 29  1  0  0  0
  8  9  1  0  0  0
  8 22  1  0  0  0
  9 10  1  0  0  0
  9 27  2  0  0  0
 10 11  2  0  0  0
 10 15  1  0  0  0
 11 12  1  0  0  0
 11 96  1  0  0  0
 12 13  2  0  0  0
 12 97  1  0  0  0
 13 14  1  0  0  0
 13 31  1  0  0  0
 14 15  2  0  0  0
 14 98  1  0  0  0
 15 99  1  0  0  0
 16 17  2  0  0  0
 16 21  1  0  0  0
 16 31  1  0  0  0
 17 18  1  0  0  0
 17100  1  0  0  0
 18 19  2  0  0  0
 18101  1  0  0  0
 19 20  1  0  0  0
 19 24  1  0  0  0
 20 21  2  0  0  0
 20102  1  0  0  0
 21 23  1  0  0  0
 22 28  1  0  0  0
 22 32  2  0  0  0
 26 27  1  0  0  0
 28103  1  0  0  0
 28104  1  0  0  0
 29105  1  0  0  0
 29106  1  0  0  0
 33 34  1  0  0  0
 33 66  1  0  0  0
 33 70  2  0  0  0
 34 36  1  0  0  0
 34 59  1  0  0  0
 34107  1  0  0  0
 35 44  2  0  0  0
 35 45  1  0  0  0
 35 68  1  0  0  0
 36 56  1  0  0  0
 36108  1  0  0  0
 37 39  1  0  0  0
 37 47  1  0  0  0
 37 66  1  0  0  0
 37109  1  0  0  0
 38 43  2  0  0  0
 38 46  1  0  0  0
 38 47  1  0  0  0
 39 64  1  0  0  0
 39 67  2  0  0  0
 40 52  1  0  0  0
 40 53  2  0  0  0
 40 58  1  0  0  0
 41110  1  0  0  0
 41111  1  0  0  0
 41112  1  0  0  0
 41 48  1  0  0  0
 42 43  1  0  0  0
 42 66  1  0  0  0
 42113  1  0  0  0
 42114  1  0  0  0
 43 44  1  0  0  0
 44115  1  0  0  0
 45 46  2  0  0  0
 45116  1  0  0  0
 46117  1  0  0  0
 47118  1  0  0  0
 47119  1  0  0  0
 48 56  1  0  0  0
 48 65  1  0  0  0
 48120  1  0  0  0
 49 50  1  0  0  0
 49 53  1  0  0  0
 49 64  1  0  0  0
 49121  1  0  0  0
 50 51  1  0  0  0
 50122  1  0  0  0
 50123  1  0  0  0
 51 52  1  0  0  0
 51124  1  0  0  0
 51125  1  0  0  0
 52126  1  0  0  0
 52127  1  0  0  0
 53 54  1  0  0  0
 54 55  2  0  0  0
 54128  1  0  0  0
 55 57  1  0  0  0
 55129  1  0  0  0
 56 69  2  0  0  0
 57 58  2  0  0  0
 57130  1  0  0  0
 58131  1  0  0  0
 59 60  1  0  0  0
 59 61  1  0  0  0
 59 62  1  0  0  0
 60132  1  0  0  0
 60133  1  0  0  0
 60134  1  0  0  0
 61135  1  0  0  0
 61136  1  0  0  0
 61137  1  0  0  0
 62138  1  0  0  0
 62139  1  0  0  0
 62140  1  0  0  0
 63 65  1  0  0  0
 63141  1  0  0  0
 63142  1  0  0  0
 63143  1  0  0  0
 64144  1  0  0  0
 65145  1  0  0  0
 68 81  1  0  0  0
 71 73  2  0  0  0
 71 74  1  0  0  0
 71146  1  0  0  0
 72 75  2  0  0  0
 72 76  1  0  0  0
 72147  1  0  0  0
 73 75  1  0  0  0
 73 83  1  0  0  0
 74 76  2  0  0  0
 74 84  1  0  0  0
 75 82  1  0  0  0
 76 86  1  0  0  0
 77 78  2  0  0  0
 77 81  1  0  0  0
 77148  1  0  0  0
 78 79  1  0  0  0
 78 80  1  0  0  0
 79 83  1  0  0  0
 79 85  2  0  0  0
 80149  1  0  0  0
 80150  1  0  0  0
 80151  1  0  0  0
 81152  1  0  0  0
 81153  1  0  0  0
 82154  1  0  0  0
 82155  1  0  0  0
 83156  1  0  0  0
 84157  1  0  0  0
M  ISO  4   1 100  68 101  81 101  84 100
M  END
> <chiral flag>
0

> <version>
0

> <s_m_source_file>
/data/baiqing/PycharmProjects/Reinvent-master-3.2/result/LINK_invent/BTK/process_docking_weight1_custom_product_contain_oxygen_bond_distance_aromatic_linkinvent_7_9_3/rearranged_h_0172.sdf

> <i_m_source_file_index>
58

> <r_mmod_Potential_Energy-OPLS-2005>
-73.2956085205078

> <r_mmod_Stretch_Energy-OPLS-2005>
56.8181800842285

> <r_mmod_Bend_Energy-OPLS-2005>
121.810829162598

> <r_mmod_Torsional_Energy-OPLS-2005>
297.408111572266

> <r_mmod_Improper_Torsional_Energy-OPLS-2005>
12.6786375045776

> <r_mmod_Van_der_Waal_Energy-OPLS-2005>
176.736419677734

> <r_mmod_Electrostatic_Energy-OPLS-2005>
-513.295959472656

> <r_mmod_Solvation_Energy-OPLS-2005>
-251.945648193359

> <b_mmod_Minimization_Converged-OPLS-2005>
0

> <r_mmod_RMS_Derivative-OPLS-2005>
4.03748798370361

$$$$
58
                    3D
 Structure written by MMmdl.
153161  0  0  1  0            999 V2000
  -30.6800  -14.4899   20.5845 C   0  0  0  0  0  0
  -30.4266  -12.3171   19.4312 C   0  0  0  0  0  0
  -29.4955  -12.5011   18.2147 C   0  0  0  0  0  0
  -28.0182  -12.3505   18.6286 C   0  0  0  0  0  0
  -27.6608  -13.2028   19.8746 C   0  0  2  0  0  0
  -28.6994  -12.9875   20.9985 C   0  0  0  0  0  0
  -25.2585  -13.8167   20.5674 C   0  0  0  0  0  0
  -24.1820  -13.0429   20.9161 C   0  0  0  0  0  0
  -24.6385  -11.6900   20.8718 C   0  0  0  0  0  0
  -23.9043  -10.4289   21.0389 C   0  0  0  0  0  0
  -24.3598   -9.4213   21.9176 C   0  0  0  0  0  0
  -23.6283   -8.2242   22.0753 C   0  0  0  0  0  0
  -22.4263   -8.0277   21.3547 C   0  0  0  0  0  0
  -21.9891   -9.0238   20.4638 C   0  0  0  0  0  0
  -22.7210  -10.2124   20.3046 C   0  0  0  0  0  0
  -21.6846   -6.0724   22.5275 C   0  0  0  0  0  0
  -21.4012   -6.5635   23.8207 C   0  0  0  0  0  0
  -21.3656   -5.6793   24.9169 C   0  0  0  0  0  0
  -21.6041   -4.3054   24.7230 C   0  0  0  0  0  0
  -21.8820   -3.8140   23.4354 C   0  0  0  0  0  0
  -21.9194   -4.6952   22.3407 C   0  0  0  0  0  0
  -22.7859  -13.5238   21.1835 C   0  0  0  0  0  0
  -22.1660   -4.2142   21.0983 F   0  0  0  0  0  0
  -21.5626   -3.4542   25.7745 F   0  0  0  0  0  0
  -30.0277  -13.3029   20.4497 N   0  0  0  0  0  0
  -26.3015  -12.9318   20.3356 N   0  0  0  0  0  0
  -25.9308  -11.6486   20.5757 N   0  0  0  0  0  0
  -22.0502  -12.8221   22.0404 N   0  0  0  0  0  0
  -25.4365  -15.1883   20.4154 N   0  0  0  0  0  0
  -31.8065  -14.6781   20.1150 O   0  0  0  0  0  0
  -21.6633   -6.8862   21.4237 O   0  0  0  0  0  0
  -22.3539  -14.5536   20.6686 O   0  0  0  0  0  0
  -24.6159  -31.8660   23.2094 C   0  0  0  0  0  0
  -25.9059  -32.4818   23.8379 C   0  0  1  0  0  0
  -27.2312  -27.4132   20.1159 C   0  0  0  0  0  0
  -25.5920  -33.8620   24.2310 N   0  0  0  0  0  0
  -23.4024  -30.4864   21.5496 C   0  0  2  0  0  0
  -24.8527  -28.9500   20.1163 C   0  0  0  0  0  0
  -22.7416  -29.4628   22.4998 C   0  0  0  0  0  0
  -18.0265  -28.1369   22.8506 C   0  0  0  0  0  0
  -24.1488  -36.7299   23.2637 C   0  0  0  0  0  0
  -25.9325  -30.8283   21.3631 C   0  0  0  0  0  0
  -26.0145  -29.4607   20.7111 C   0  0  0  0  0  0
  -27.2110  -28.7027   20.7002 C   0  0  0  0  0  0
  -26.0520  -26.9172   19.5208 C   0  0  0  0  0  0
  -24.8670  -27.6784   19.5169 C   0  0  0  0  0  0
  -23.6134  -29.8164   20.1651 C   0  0  0  0  0  0
  -25.4116  -36.3100   24.0326 C   0  0  1  0  0  0
  -20.5854  -28.3665   23.1330 C   0  0  2  0  0  0
  -20.6753  -26.9397   22.5428 C   0  0  0  0  0  0
  -19.5742  -26.6376   21.5214 C   0  0  0  0  0  0
  -18.1901  -26.7920   22.1613 C   0  0  0  0  0  0
  -19.1518  -28.8834   23.2893 C   0  0  0  0  0  0
  -18.9457  -30.1438   23.8899 C   0  0  0  0  0  0
  -17.6469  -30.6595   24.0552 C   0  0  0  0  0  0
  -25.9050  -34.9476   23.5115 C   0  0  0  0  0  0
  -16.5353  -29.9092   23.6334 C   0  0  0  0  0  0
  -16.7254  -28.6497   23.0367 C   0  0  0  0  0  0
  -26.4484  -31.6614   25.0721 C   0  0  0  0  0  0
  -25.3762  -31.3744   26.1483 C   0  0  0  0  0  0
  -27.0315  -30.3051   24.6113 C   0  0  0  0  0  0
  -27.6039  -32.4345   25.7487 C   0  0  0  0  0  0
  -27.5574  -37.1807   24.8471 C   0  0  0  0  0  0
  -21.4147  -29.3016   22.3742 N   0  0  0  0  0  0
  -26.4303  -37.3783   23.9391 N   0  0  0  0  0  0
  -24.6669  -31.0768   22.0974 N   0  0  0  0  0  0
  -23.4199  -28.8179   23.3031 O   0  0  0  0  0  0
  -28.3752  -26.6405   20.1244 O   0  0  0  0  0  0
  -26.5604  -34.8926   22.4668 O   0  0  0  0  0  0
  -23.5349  -32.1414   23.7514 O   0  0  0  0  0  0
  -31.5641  -17.3531   21.5083 C   0  0  0  0  0  0
  -30.8738  -19.6709   21.1294 C   0  0  0  0  0  0
  -30.2809  -16.8920   21.1373 C   0  0  0  0  0  0
  -29.5801  -19.2442   20.7575 C   0  0  0  0  0  0
  -31.8527  -18.7312   21.5069 C   0  0  0  0  0  0
  -29.2881  -17.8486   20.7893 C   0  0  0  0  0  0
  -28.6759  -22.7401   20.6208 C   0  0  0  0  0  0
  -28.6089  -24.1487   19.9275 C   0  0  0  0  0  0
  -28.9144  -21.4784   19.7477 C   0  0  0  0  0  0
  -28.2411  -25.3666   20.8059 C   0  0  0  0  0  0
  -29.9610  -15.4914   21.1410 N   0  0  0  0  0  0
  -28.5840  -20.1692   20.3678 N   0  0  0  0  0  0
  -28.5711  -22.6349   21.8503 O   0  0  0  0  0  0
  -28.8390  -24.2770   18.7166 O   0  0  0  0  0  0
  -33.0866  -19.1576   21.8690 F   0  0  0  0  0  0
  -28.0440  -17.4211   20.4545 F   0  0  0  0  0  0
  -31.4714  -12.4217   19.1296 H   0  0  0  0  0  0
  -30.3380  -11.3048   19.8303 H   0  0  0  0  0  0
  -29.7383  -11.7755   17.4361 H   0  0  0  0  0  0
  -29.6552  -13.4873   17.7741 H   0  0  0  0  0  0
  -27.8430  -11.2964   18.8456 H   0  0  0  0  0  0
  -27.3624  -12.6015   17.7948 H   0  0  0  0  0  0
  -27.7040  -14.2479   19.5680 H   0  0  0  0  0  0
  -28.6789  -11.9481   21.3323 H   0  0  0  0  0  0
  -28.4584  -13.5785   21.8837 H   0  0  0  0  0  0
  -25.2732   -9.5691   22.4754 H   0  0  0  0  0  0
  -23.9983   -7.4638   22.7481 H   0  0  0  0  0  0
  -21.0818   -8.8749   19.8952 H   0  0  0  0  0  0
  -22.3653  -10.9659   19.6164 H   0  0  0  0  0  0
  -21.2007   -7.6139   23.9706 H   0  0  0  0  0  0
  -21.1473   -6.0523   25.9071 H   0  0  0  0  0  0
  -22.0606   -2.7604   23.2859 H   0  0  0  0  0  0
  -22.4108  -11.9870   22.4759 H   0  0  0  0  0  0
  -21.1141  -13.1262   22.2640 H   0  0  0  0  0  0
  -24.6805  -15.8505   20.5464 H   0  0  0  0  0  0
  -26.3079  -15.6325   20.1504 H   0  0  0  0  0  0
  -26.7139  -32.5528   23.1144 H   0  0  0  0  0  0
  -25.0098  -33.9764   25.0471 H   0  0  0  0  0  0
  -22.6912  -31.3013   21.4079 H   0  0  0  0  0  0
  -23.3745  -35.9641   23.3352 H   0  0  0  0  0  0
  -24.3571  -36.8882   22.2043 H   0  0  0  0  0  0
  -23.7275  -37.6522   23.6645 H   0  0  0  0  0  0
  -26.0499  -31.5942   20.5963 H   0  0  0  0  0  0
  -26.8156  -30.8811   21.9885 H   0  0  0  0  0  0
  -28.1072  -29.0884   21.1657 H   0  0  0  0  0  0
  -26.0469  -25.9374   19.0655 H   0  0  0  0  0  0
  -23.9737  -27.2757   19.0605 H   0  0  0  0  0  0
  -23.7157  -30.5892   19.4019 H   0  0  0  0  0  0
  -22.7414  -29.2305   19.8724 H   0  0  0  0  0  0
  -25.1296  -36.1966   25.0824 H   0  0  0  0  0  0
  -20.9892  -28.3230   24.1476 H   0  0  0  0  0  0
  -20.5662  -26.2250   23.3602 H   0  0  0  0  0  0
  -21.6609  -26.7439   22.1209 H   0  0  0  0  0  0
  -19.6890  -25.6284   21.1252 H   0  0  0  0  0  0
  -19.6709  -27.3174   20.6738 H   0  0  0  0  0  0
  -17.4161  -26.6686   21.4012 H   0  0  0  0  0  0
  -18.0303  -26.0036   22.8989 H   0  0  0  0  0  0
  -19.7938  -30.7235   24.2283 H   0  0  0  0  0  0
  -17.5027  -31.6281   24.5149 H   0  0  0  0  0  0
  -15.5351  -30.2993   23.7675 H   0  0  0  0  0  0
  -15.8640  -28.0826   22.7106 H   0  0  0  0  0  0
  -24.5903  -30.7127   25.7825 H   0  0  0  0  0  0
  -24.8998  -32.2914   26.4952 H   0  0  0  0  0  0
  -25.8096  -30.8891   27.0233 H   0  0  0  0  0  0
  -26.2843  -29.6815   24.1187 H   0  0  0  0  0  0
  -27.4099  -29.7318   25.4586 H   0  0  0  0  0  0
  -27.8684  -30.4351   23.9249 H   0  0  0  0  0  0
  -27.2632  -33.3635   26.2061 H   0  0  0  0  0  0
  -28.3837  -32.6928   25.0314 H   0  0  0  0  0  0
  -28.0704  -31.8490   26.5414 H   0  0  0  0  0  0
  -28.2617  -38.0076   24.7482 H   0  0  0  0  0  0
  -28.1043  -36.2615   24.6337 H   0  0  0  0  0  0
  -27.2289  -37.1511   25.8877 H   0  0  0  0  0  0
  -20.9329  -29.8754   21.6974 H   0  0  0  0  0  0
  -26.0205  -38.2867   24.1382 H   0  0  0  0  0  0
  -32.3366  -16.6588   21.8033 H   0  0  0  0  0  0
  -31.1355  -20.7191   21.1434 H   0  0  0  0  0  0
  -29.9462  -21.4905   19.3948 H   0  0  0  0  0  0
  -28.3013  -21.5888   18.8519 H   0  0  0  0  0  0
  -28.8983  -25.3729   21.6754 H   0  0  0  0  0  0
  -27.2311  -25.2204   21.1898 H   0  0  0  0  0  0
  -29.0145  -15.2569   21.4036 H   0  0  0  0  0  0
  -27.6943  -19.7581   20.0990 H   0  0  0  0  0  0
  1 25  1  0  0  0
  1 30  2  0  0  0
  1 81  1  0  0  0
  2  3  1  0  0  0
  2 25  1  0  0  0
  2 87  1  0  0  0
  2 88  1  0  0  0
  3  4  1  0  0  0
  3 89  1  0  0  0
  3 90  1  0  0  0
  4  5  1  0  0  0
  4 91  1  0  0  0
  4 92  1  0  0  0
  5  6  1  0  0  0
  5 26  1  0  0  0
  5 93  1  0  0  0
  6 25  1  0  0  0
  6 94  1  0  0  0
  6 95  1  0  0  0
  7  8  2  0  0  0
  7 26  1  0  0  0
  7 29  1  0  0  0
  8  9  1  0  0  0
  8 22  1  0  0  0
  9 10  1  0  0  0
  9 27  2  0  0  0
 10 11  2  0  0  0
 10 15  1  0  0  0
 11 12  1  0  0  0
 11 96  1  0  0  0
 12 13  2  0  0  0
 12 97  1  0  0  0
 13 14  1  0  0  0
 13 31  1  0  0  0
 14 15  2  0  0  0
 14 98  1  0  0  0
 15 99  1  0  0  0
 16 17  2  0  0  0
 16 21  1  0  0  0
 16 31  1  0  0  0
 17 18  1  0  0  0
 17100  1  0  0  0
 18 19  2  0  0  0
 18101  1  0  0  0
 19 20  1  0  0  0
 19 24  1  0  0  0
 20 21  2  0  0  0
 20102  1  0  0  0
 21 23  1  0  0  0
 22 28  1  0  0  0
 22 32  2  0  0  0
 26 27  1  0  0  0
 28103  1  0  0  0
 28104  1  0  0  0
 29105  1  0  0  0
 29106  1  0  0  0
 33 34  1  0  0  0
 33 66  1  0  0  0
 33 70  2  0  0  0
 34 36  1  0  0  0
 34 59  1  0  0  0
 34107  1  0  0  0
 35 44  2  0  0  0
 35 45  1  0  0  0
 35 68  1  0  0  0
 36 56  1  0  0  0
 36108  1  0  0  0
 37 39  1  0  0  0
 37 47  1  0  0  0
 37 66  1  0  0  0
 37109  1  0  0  0
 38 43  2  0  0  0
 38 46  1  0  0  0
 38 47  1  0  0  0
 39 64  1  0  0  0
 39 67  2  0  0  0
 40 52  1  0  0  0
 40 53  2  0  0  0
 40 58  1  0  0  0
 41110  1  0  0  0
 41111  1  0  0  0
 41112  1  0  0  0
 41 48  1  0  0  0
 42 43  1  0  0  0
 42 66  1  0  0  0
 42113  1  0  0  0
 42114  1  0  0  0
 43 44  1  0  0  0
 44115  1  0  0  0
 45 46  2  0  0  0
 45116  1  0  0  0
 46117  1  0  0  0
 47118  1  0  0  0
 47119  1  0  0  0
 48 56  1  0  0  0
 48 65  1  0  0  0
 48120  1  0  0  0
 49 50  1  0  0  0
 49 53  1  0  0  0
 49 64  1  0  0  0
 49121  1  0  0  0
 50 51  1  0  0  0
 50122  1  0  0  0
 50123  1  0  0  0
 51 52  1  0  0  0
 51124  1  0  0  0
 51125  1  0  0  0
 52126  1  0  0  0
 52127  1  0  0  0
 53 54  1  0  0  0
 54 55  2  0  0  0
 54128  1  0  0  0
 55 57  1  0  0  0
 55129  1  0  0  0
 56 69  2  0  0  0
 57 58  2  0  0  0
 57130  1  0  0  0
 58131  1  0  0  0
 59 60  1  0  0  0
 59 61  1  0  0  0
 59 62  1  0  0  0
 60132  1  0  0  0
 60133  1  0  0  0
 60134  1  0  0  0
 61135  1  0  0  0
 61136  1  0  0  0
 61137  1  0  0  0
 62138  1  0  0  0
 62139  1  0  0  0
 62140  1  0  0  0
 63 65  1  0  0  0
 63141  1  0  0  0
 63142  1  0  0  0
 63143  1  0  0  0
 64144  1  0  0  0
 65145  1  0  0  0
 68 80  1  0  0  0
 71 73  2  0  0  0
 71 75  1  0  0  0
 71146  1  0  0  0
 72 74  1  0  0  0
 72 75  2  0  0  0
 72147  1  0  0  0
 73 76  1  0  0  0
 73 81  1  0  0  0
 74 76  2  0  0  0
 74 82  1  0  0  0
 75 85  1  0  0  0
 76 86  1  0  0  0
 77 78  1  0  0  0
 77 79  1  0  0  0
 77 83  2  0  0  0
 78 80  1  0  0  0
 78 84  2  0  0  0
 79 82  1  0  0  0
 79148  1  0  0  0
 79149  1  0  0  0
 80150  1  0  0  0
 80151  1  0  0  0
 81152  1  0  0  0
 82153  1  0  0  0
M  ISO  4   1 100  68 101  80 101  81 100
M  END
> <chiral flag>
0

> <version>
0

> <s_m_source_file>
/data/baiqing/PycharmProjects/Reinvent-master-3.2/result/LINK_invent/BTK/process_docking_weight1_custom_product_contain_oxygen_bond_distance_aromatic_linkinvent_7_9_3/rearranged_h_0172.sdf

> <i_m_source_file_index>
59

> <r_mmod_Potential_Energy-OPLS-2005>
94.5646209716797

> <r_mmod_Stretch_Energy-OPLS-2005>
46.0425148010254

> <r_mmod_Bend_Energy-OPLS-2005>
101.664581298828

> <r_mmod_Torsional_Energy-OPLS-2005>
230.973007202148

> <r_mmod_Improper_Torsional_Energy-OPLS-2005>
5.55808401107788

> <r_mmod_Van_der_Waal_Energy-OPLS-2005>
147.568862915039

> <r_mmod_Electrostatic_Energy-OPLS-2005>
-221.047348022461

> <r_mmod_Solvation_Energy-OPLS-2005>
-231.852767944336

> <b_mmod_Minimization_Converged-OPLS-2005>
0

> <r_mmod_RMS_Derivative-OPLS-2005>
3.6215968132019

$$$$
59
                    3D
 Structure written by MMmdl.
157165  0  0  1  0            999 V2000
  -30.7627  -14.3829   20.6822 C   0  0  0  0  0  0
  -30.4231  -12.3007   19.3975 C   0  0  0  0  0  0
  -29.4869  -12.5317   18.1958 C   0  0  0  0  0  0
  -28.0128  -12.3786   18.6135 C   0  0  0  0  0  0
  -27.6683  -13.2036   19.8807 C   0  0  2  0  0  0
  -28.7070  -12.9493   20.9960 C   0  0  0  0  0  0
  -25.2620  -13.8158   20.5688 C   0  0  0  0  0  0
  -24.1851  -13.0440   20.9160 C   0  0  0  0  0  0
  -24.6400  -11.6906   20.8720 C   0  0  0  0  0  0
  -23.9061  -10.4292   21.0392 C   0  0  0  0  0  0
  -24.3612   -9.4210   21.9173 C   0  0  0  0  0  0
  -23.6285   -8.2247   22.0749 C   0  0  0  0  0  0
  -22.4268   -8.0283   21.3540 C   0  0  0  0  0  0
  -21.9900   -9.0259   20.4645 C   0  0  0  0  0  0
  -22.7234  -10.2134   20.3045 C   0  0  0  0  0  0
  -21.6852   -6.0731   22.5277 C   0  0  0  0  0  0
  -21.4009   -6.5636   23.8211 C   0  0  0  0  0  0
  -21.3653   -5.6787   24.9173 C   0  0  0  0  0  0
  -21.6043   -4.3050   24.7222 C   0  0  0  0  0  0
  -21.8826   -3.8144   23.4346 C   0  0  0  0  0  0
  -21.9203   -4.6959   22.3400 C   0  0  0  0  0  0
  -22.7877  -13.5246   21.1832 C   0  0  0  0  0  0
  -22.1672   -4.2149   21.0980 F   0  0  0  0  0  0
  -21.5623   -3.4530   25.7732 F   0  0  0  0  0  0
  -30.0526  -13.2438   20.4636 N   0  0  0  0  0  0
  -26.3058  -12.9321   20.3386 N   0  0  0  0  0  0
  -25.9327  -11.6483   20.5757 N   0  0  0  0  0  0
  -22.0511  -12.8235   22.0379 N   0  0  0  0  0  0
  -25.4374  -15.1872   20.4121 N   0  0  0  0  0  0
  -31.7779  -14.6789   20.0414 O   0  0  0  0  0  0
  -21.6639   -6.8874   21.4238 O   0  0  0  0  0  0
  -22.3566  -14.5561   20.6696 O   0  0  0  0  0  0
  -24.6154  -31.8701   23.2117 C   0  0  0  0  0  0
  -25.9056  -32.4825   23.8411 C   0  0  1  0  0  0
  -27.2339  -27.4391   20.0884 C   0  0  0  0  0  0
  -25.5918  -33.8622   24.2345 N   0  0  0  0  0  0
  -23.4018  -30.4958   21.5526 C   0  0  2  0  0  0
  -24.8461  -28.9637   20.1151 C   0  0  0  0  0  0
  -22.7404  -29.4682   22.4993 C   0  0  0  0  0  0
  -18.0270  -28.1382   22.8488 C   0  0  0  0  0  0
  -24.1478  -36.7300   23.2632 C   0  0  0  0  0  0
  -25.9317  -30.8349   21.3658 C   0  0  0  0  0  0
  -26.0072  -29.4710   20.7110 C   0  0  0  0  0  0
  -27.2020  -28.7161   20.6950 C   0  0  0  0  0  0
  -26.0507  -26.9501   19.4816 C   0  0  0  0  0  0
  -24.8626  -27.7026   19.4992 C   0  0  0  0  0  0
  -23.6096  -29.8307   20.1663 C   0  0  0  0  0  0
  -25.4098  -36.3112   24.0348 C   0  0  1  0  0  0
  -20.5860  -28.3672   23.1321 C   0  0  2  0  0  0
  -20.6755  -26.9406   22.5426 C   0  0  0  0  0  0
  -19.5747  -26.6391   21.5207 C   0  0  0  0  0  0
  -18.1919  -26.7936   22.1603 C   0  0  0  0  0  0
  -19.1520  -28.8837   23.2909 C   0  0  0  0  0  0
  -18.9446  -30.1437   23.8928 C   0  0  0  0  0  0
  -17.6451  -30.6585   24.0567 C   0  0  0  0  0  0
  -25.9040  -34.9478   23.5141 C   0  0  0  0  0  0
  -16.5342  -29.9088   23.6324 C   0  0  0  0  0  0
  -16.7259  -28.6505   23.0347 C   0  0  0  0  0  0
  -26.4480  -31.6593   25.0734 C   0  0  0  0  0  0
  -25.3753  -31.3761   26.1508 C   0  0  0  0  0  0
  -27.0240  -30.3002   24.6122 C   0  0  0  0  0  0
  -27.6123  -32.4262   25.7443 C   0  0  0  0  0  0
  -27.5596  -37.1784   24.8447 C   0  0  0  0  0  0
  -21.4131  -29.3036   22.3720 N   0  0  0  0  0  0
  -26.4274  -37.3808   23.9444 N   0  0  0  0  0  0
  -24.6680  -31.0807   22.1018 N   0  0  0  0  0  0
  -23.4179  -28.8233   23.3039 O   0  0  0  0  0  0
  -28.4112  -26.7161   20.1104 O   0  0  0  0  0  0
  -26.5582  -34.8932   22.4692 O   0  0  0  0  0  0
  -23.5349  -32.1469   23.7507 O   0  0  0  0  0  0
  -30.4690  -17.6451   21.3666 C   0  0  0  0  0  0
  -31.5828  -16.7004   23.1224 C   0  0  0  0  0  0
  -30.7980  -16.4321   22.0363 C   0  0  0  0  0  0
  -31.0950  -18.6362   22.0827 C   0  0  0  0  0  0
  -29.5122  -24.5282   20.3924 C   0  0  0  0  0  0
  -30.3447  -20.7040   20.9920 C   0  0  0  0  0  0
  -32.5828  -18.7783   24.1406 C   0  0  0  0  0  0
  -29.4216  -22.9994   20.3002 C   0  0  0  0  0  0
  -28.3124  -25.3100   19.8362 C   0  0  0  0  0  0
  -30.5614  -22.2248   21.0072 C   0  0  0  0  0  0
  -31.7881  -18.0727   23.1493 N   0  0  0  0  0  0
  -30.3178  -15.1457   21.6915 N   0  0  0  0  0  0
  -31.0892  -19.9822   21.8532 N   0  0  0  0  0  0
  -30.4955  -25.0936   20.8833 O   0  0  0  0  0  0
  -29.5205  -20.2140   20.2157 O   0  0  0  0  0  0
  -31.4652  -12.4087   19.0899 H   0  0  0  0  0  0
  -30.3296  -11.2772   19.7630 H   0  0  0  0  0  0
  -29.7214  -11.8319   17.3924 H   0  0  0  0  0  0
  -29.6501  -13.5314   17.7896 H   0  0  0  0  0  0
  -27.8266  -11.3200   18.7977 H   0  0  0  0  0  0
  -27.3575  -12.6623   17.7894 H   0  0  0  0  0  0
  -27.7251  -14.2569   19.6047 H   0  0  0  0  0  0
  -28.6689  -11.9057   21.3123 H   0  0  0  0  0  0
  -28.4482  -13.5260   21.8835 H   0  0  0  0  0  0
  -25.2765   -9.5680   22.4738 H   0  0  0  0  0  0
  -23.9997   -7.4634   22.7463 H   0  0  0  0  0  0
  -21.0831   -8.8780   19.8949 H   0  0  0  0  0  0
  -22.3706  -10.9664   19.6142 H   0  0  0  0  0  0
  -21.1991   -7.6145   23.9710 H   0  0  0  0  0  0
  -21.1461   -6.0515   25.9072 H   0  0  0  0  0  0
  -22.0608   -2.7607   23.2848 H   0  0  0  0  0  0
  -22.4119  -11.9891   22.4761 H   0  0  0  0  0  0
  -21.1125  -13.1254   22.2574 H   0  0  0  0  0  0
  -24.6795  -15.8509   20.5271 H   0  0  0  0  0  0
  -26.3072  -15.6235   20.1306 H   0  0  0  0  0  0
  -26.7124  -32.5535   23.1175 H   0  0  0  0  0  0
  -25.0092  -33.9785   25.0506 H   0  0  0  0  0  0
  -22.6915  -31.3139   21.4151 H   0  0  0  0  0  0
  -23.3784  -35.9577   23.3203 H   0  0  0  0  0  0
  -24.3608  -36.9007   22.2067 H   0  0  0  0  0  0
  -23.7145  -37.6445   23.6696 H   0  0  0  0  0  0
  -26.0448  -31.6019   20.5984 H   0  0  0  0  0  0
  -26.8197  -30.8866   21.9836 H   0  0  0  0  0  0
  -28.0986  -29.1047   21.1586 H   0  0  0  0  0  0
  -26.0201  -25.9927   18.9819 H   0  0  0  0  0  0
  -23.9703  -27.3096   19.0310 H   0  0  0  0  0  0
  -23.7182  -30.6065   19.4075 H   0  0  0  0  0  0
  -22.7334  -29.2516   19.8702 H   0  0  0  0  0  0
  -25.1260  -36.1969   25.0836 H   0  0  0  0  0  0
  -20.9961  -28.3232   24.1440 H   0  0  0  0  0  0
  -20.5633  -26.2281   23.3614 H   0  0  0  0  0  0
  -21.6632  -26.7442   22.1232 H   0  0  0  0  0  0
  -19.6904  -25.6304   21.1233 H   0  0  0  0  0  0
  -19.6707  -27.3204   20.6742 H   0  0  0  0  0  0
  -17.4206  -26.6709   21.3983 H   0  0  0  0  0  0
  -18.0304  -26.0067   22.8979 H   0  0  0  0  0  0
  -19.7923  -30.7231   24.2331 H   0  0  0  0  0  0
  -17.5010  -31.6270   24.5159 H   0  0  0  0  0  0
  -15.5341  -30.2998   23.7645 H   0  0  0  0  0  0
  -15.8655  -28.0829   22.7060 H   0  0  0  0  0  0
  -24.5839  -30.7212   25.7848 H   0  0  0  0  0  0
  -24.9051  -32.2949   26.5025 H   0  0  0  0  0  0
  -25.8081  -30.8842   27.0227 H   0  0  0  0  0  0
  -26.2739  -29.6782   24.1222 H   0  0  0  0  0  0
  -27.4010  -29.7245   25.4584 H   0  0  0  0  0  0
  -27.8603  -30.4257   23.9242 H   0  0  0  0  0  0
  -27.2860  -33.3632   26.1966 H   0  0  0  0  0  0
  -28.3951  -32.6685   25.0238 H   0  0  0  0  0  0
  -28.0755  -31.8381   26.5378 H   0  0  0  0  0  0
  -28.2574  -38.0123   24.7581 H   0  0  0  0  0  0
  -28.1133  -36.2672   24.6136 H   0  0  0  0  0  0
  -27.2354  -37.1272   25.8855 H   0  0  0  0  0  0
  -20.9292  -29.8751   21.6935 H   0  0  0  0  0  0
  -26.0165  -38.2870   24.1519 H   0  0  0  0  0  0
  -29.8501  -17.7617   20.4888 H   0  0  0  0  0  0
  -32.0157  -16.0507   23.8726 H   0  0  0  0  0  0
  -32.9379  -18.0881   24.9065 H   0  0  0  0  0  0
  -31.9811  -19.5497   24.6205 H   0  0  0  0  0  0
  -33.4450  -19.2420   23.6614 H   0  0  0  0  0  0
  -29.3914  -22.7281   19.2445 H   0  0  0  0  0  0
  -28.4629  -22.6987   20.7235 H   0  0  0  0  0  0
  -27.4160  -24.8906   20.2945 H   0  0  0  0  0  0
  -28.2489  -25.1452   18.7604 H   0  0  0  0  0  0
  -31.5145  -22.4415   20.5237 H   0  0  0  0  0  0
  -30.6487  -22.5576   22.0425 H   0  0  0  0  0  0
  -29.5477  -14.7758   22.2294 H   0  0  0  0  0  0
  -31.7106  -20.5270   22.4353 H   0  0  0  0  0  0
  1 25  1  0  0  0
  1 30  2  0  0  0
  1 82  1  0  0  0
  2  3  1  0  0  0
  2 25  1  0  0  0
  2 86  1  0  0  0
  2 87  1  0  0  0
  3  4  1  0  0  0
  3 88  1  0  0  0
  3 89  1  0  0  0
  4  5  1  0  0  0
  4 90  1  0  0  0
  4 91  1  0  0  0
  5  6  1  0  0  0
  5 26  1  0  0  0
  5 92  1  0  0  0
  6 25  1  0  0  0
  6 93  1  0  0  0
  6 94  1  0  0  0
  7  8  2  0  0  0
  7 26  1  0  0  0
  7 29  1  0  0  0
  8  9  1  0  0  0
  8 22  1  0  0  0
  9 10  1  0  0  0
  9 27  2  0  0  0
 10 11  2  0  0  0
 10 15  1  0  0  0
 11 12  1  0  0  0
 11 95  1  0  0  0
 12 13  2  0  0  0
 12 96  1  0  0  0
 13 14  1  0  0  0
 13 31  1  0  0  0
 14 15  2  0  0  0
 14 97  1  0  0  0
 15 98  1  0  0  0
 16 17  2  0  0  0
 16 21  1  0  0  0
 16 31  1  0  0  0
 17 18  1  0  0  0
 17 99  1  0  0  0
 18 19  2  0  0  0
 18100  1  0  0  0
 19 20  1  0  0  0
 19 24  1  0  0  0
 20 21  2  0  0  0
 20101  1  0  0  0
 21 23  1  0  0  0
 22 28  1  0  0  0
 22 32  2  0  0  0
 26 27  1  0  0  0
 28102  1  0  0  0
 28103  1  0  0  0
 29104  1  0  0  0
 29105  1  0  0  0
 33 34  1  0  0  0
 33 66  1  0  0  0
 33 70  2  0  0  0
 34 36  1  0  0  0
 34 59  1  0  0  0
 34106  1  0  0  0
 35 44  2  0  0  0
 35 45  1  0  0  0
 35 68  1  0  0  0
 36 56  1  0  0  0
 36107  1  0  0  0
 37 39  1  0  0  0
 37 47  1  0  0  0
 37 66  1  0  0  0
 37108  1  0  0  0
 38 43  2  0  0  0
 38 46  1  0  0  0
 38 47  1  0  0  0
 39 64  1  0  0  0
 39 67  2  0  0  0
 40 52  1  0  0  0
 40 53  2  0  0  0
 40 58  1  0  0  0
 41109  1  0  0  0
 41110  1  0  0  0
 41111  1  0  0  0
 41 48  1  0  0  0
 42 43  1  0  0  0
 42 66  1  0  0  0
 42112  1  0  0  0
 42113  1  0  0  0
 43 44  1  0  0  0
 44114  1  0  0  0
 45 46  2  0  0  0
 45115  1  0  0  0
 46116  1  0  0  0
 47117  1  0  0  0
 47118  1  0  0  0
 48 56  1  0  0  0
 48 65  1  0  0  0
 48119  1  0  0  0
 49 50  1  0  0  0
 49 53  1  0  0  0
 49 64  1  0  0  0
 49120  1  0  0  0
 50 51  1  0  0  0
 50121  1  0  0  0
 50122  1  0  0  0
 51 52  1  0  0  0
 51123  1  0  0  0
 51124  1  0  0  0
 52125  1  0  0  0
 52126  1  0  0  0
 53 54  1  0  0  0
 54 55  2  0  0  0
 54127  1  0  0  0
 55 57  1  0  0  0
 55128  1  0  0  0
 56 69  2  0  0  0
 57 58  2  0  0  0
 57129  1  0  0  0
 58130  1  0  0  0
 59 60  1  0  0  0
 59 61  1  0  0  0
 59 62  1  0  0  0
 60131  1  0  0  0
 60132  1  0  0  0
 60133  1  0  0  0
 61134  1  0  0  0
 61135  1  0  0  0
 61136  1  0  0  0
 62137  1  0  0  0
 62138  1  0  0  0
 62139  1  0  0  0
 63 65  1  0  0  0
 63140  1  0  0  0
 63141  1  0  0  0
 63142  1  0  0  0
 64143  1  0  0  0
 65144  1  0  0  0
 68 79  1  0  0  0
 71 73  1  0  0  0
 71 74  2  0  0  0
 71145  1  0  0  0
 72 73  2  0  0  0
 72 81  1  0  0  0
 72146  1  0  0  0
 73 82  1  0  0  0
 74 81  1  0  0  0
 74 83  1  0  0  0
 75 78  1  0  0  0
 75 79  1  0  0  0
 75 84  2  0  0  0
 76 80  1  0  0  0
 76 83  1  0  0  0
 76 85  2  0  0  0
 77 81  1  0  0  0
 77147  1  0  0  0
 77148  1  0  0  0
 77149  1  0  0  0
 78 80  1  0  0  0
 78150  1  0  0  0
 78151  1  0  0  0
 79152  1  0  0  0
 79153  1  0  0  0
 80154  1  0  0  0
 80155  1  0  0  0
 82156  1  0  0  0
 83157  1  0  0  0
M  ISO  4   1 100  68 101  79 101  82 100
M  END
> <chiral flag>
0

> <version>
0

> <s_m_source_file>
/data/baiqing/PycharmProjects/Reinvent-master-3.2/result/LINK_invent/BTK/process_docking_weight1_custom_product_contain_oxygen_bond_distance_aromatic_linkinvent_7_9_3/rearranged_h_0172.sdf

> <i_m_source_file_index>
60

> <r_mmod_Potential_Energy-OPLS-2005>
-155.465911865234

> <r_mmod_Stretch_Energy-OPLS-2005>
34.1650123596191

> <r_mmod_Bend_Energy-OPLS-2005>
111.068405151367

> <r_mmod_Torsional_Energy-OPLS-2005>
231.572402954102

> <r_mmod_Improper_Torsional_Energy-OPLS-2005>
2.07227802276611

> <r_mmod_Van_der_Waal_Energy-OPLS-2005>
141.43408203125

> <r_mmod_Electrostatic_Energy-OPLS-2005>
-423.146850585938

> <r_mmod_Solvation_Energy-OPLS-2005>
-261.56591796875

> <b_mmod_Minimization_Converged-OPLS-2005>
0

> <r_mmod_RMS_Derivative-OPLS-2005>
1.23977661132812

$$$$
60
                    3D
 Structure written by MMmdl.
155163  0  0  1  0            999 V2000
  -30.6239  -14.8167   20.4360 C   0  0  0  0  0  0
  -30.4332  -12.4926   19.5037 C   0  0  0  0  0  0
  -29.5270  -12.5160   18.2539 C   0  0  0  0  0  0
  -28.0504  -12.3321   18.6597 C   0  0  0  0  0  0
  -27.6400  -13.2475   19.8451 C   0  0  2  0  0  0
  -28.6830  -13.2318   20.9859 C   0  0  0  0  0  0
  -25.2485  -13.8218   20.5685 C   0  0  0  0  0  0
  -24.1791  -13.0435   20.9187 C   0  0  0  0  0  0
  -24.6411  -11.6929   20.8716 C   0  0  0  0  0  0
  -23.9094  -10.4296   21.0391 C   0  0  0  0  0  0
  -24.3645   -9.4214   21.9170 C   0  0  0  0  0  0
  -23.6313   -8.2255   22.0751 C   0  0  0  0  0  0
  -22.4285   -8.0292   21.3553 C   0  0  0  0  0  0
  -21.9924   -9.0271   20.4654 C   0  0  0  0  0  0
  -22.7260  -10.2149   20.3050 C   0  0  0  0  0  0
  -21.6867   -6.0740   22.5279 C   0  0  0  0  0  0
  -21.4018   -6.5635   23.8219 C   0  0  0  0  0  0
  -21.3657   -5.6788   24.9176 C   0  0  0  0  0  0
  -21.6041   -4.3051   24.7218 C   0  0  0  0  0  0
  -21.8821   -3.8147   23.4343 C   0  0  0  0  0  0
  -21.9194   -4.6969   22.3402 C   0  0  0  0  0  0
  -22.7807  -13.5208   21.1840 C   0  0  0  0  0  0
  -22.1659   -4.2150   21.0981 F   0  0  0  0  0  0
  -21.5624   -3.4536   25.7730 F   0  0  0  0  0  0
  -29.9813  -13.5890   20.4010 N   0  0  0  0  0  0
  -26.2940  -12.9470   20.3265 N   0  0  0  0  0  0
  -25.9356  -11.6591   20.5712 N   0  0  0  0  0  0
  -22.0463  -12.8228   22.0436 N   0  0  0  0  0  0
  -25.4098  -15.1948   20.4130 N   0  0  0  0  0  0
  -31.8218  -14.8439   20.1449 O   0  0  0  0  0  0
  -21.6644   -6.8889   21.4244 O   0  0  0  0  0  0
  -22.3473  -14.5492   20.6667 O   0  0  0  0  0  0
  -24.6370  -31.8493   23.1939 C   0  0  0  0  0  0
  -25.9177  -32.4723   23.8305 C   0  0  1  0  0  0
  -27.2310  -27.2206   20.1427 C   0  0  0  0  0  0
  -25.5959  -33.8528   24.2236 N   0  0  0  0  0  0
  -23.4388  -30.4700   21.5366 C   0  0  2  0  0  0
  -24.8935  -28.9119   20.1074 C   0  0  0  0  0  0
  -22.7554  -29.4565   22.4882 C   0  0  0  0  0  0
  -18.0304  -28.1396   22.8474 C   0  0  0  0  0  0
  -24.1487  -36.7256   23.2625 C   0  0  0  0  0  0
  -25.9879  -30.7531   21.3792 C   0  0  0  0  0  0
  -26.0662  -29.3696   20.7241 C   0  0  0  0  0  0
  -27.2395  -28.5371   20.7329 C   0  0  0  0  0  0
  -26.0390  -26.8466   19.4872 C   0  0  0  0  0  0
  -24.8878  -27.6608   19.4736 C   0  0  0  0  0  0
  -23.6624  -29.8006   20.1544 C   0  0  0  0  0  0
  -25.4102  -36.3043   24.0325 C   0  0  1  0  0  0
  -20.5925  -28.3709   23.1256 C   0  0  2  0  0  0
  -20.6782  -26.9412   22.5416 C   0  0  0  0  0  0
  -19.5761  -26.6385   21.5209 C   0  0  0  0  0  0
  -18.1937  -26.7933   22.1608 C   0  0  0  0  0  0
  -19.1561  -28.8871   23.2856 C   0  0  0  0  0  0
  -18.9480  -30.1473   23.8872 C   0  0  0  0  0  0
  -17.6474  -30.6590   24.0564 C   0  0  0  0  0  0
  -25.9054  -34.9422   23.5076 C   0  0  0  0  0  0
  -16.5364  -29.9079   23.6341 C   0  0  0  0  0  0
  -16.7288  -28.6508   23.0342 C   0  0  0  0  0  0
  -26.4532  -31.6552   25.0707 C   0  0  0  0  0  0
  -25.3749  -31.3748   26.1436 C   0  0  0  0  0  0
  -27.0341  -30.2936   24.6221 C   0  0  0  0  0  0
  -27.6089  -32.4288   25.7485 C   0  0  0  0  0  0
  -27.5590  -37.1748   24.8438 C   0  0  0  0  0  0
  -21.4253  -29.3037   22.3633 N   0  0  0  0  0  0
  -26.4253  -37.3766   23.9452 N   0  0  0  0  0  0
  -24.7071  -31.0441   22.0926 N   0  0  0  0  0  0
  -23.4232  -28.8096   23.2986 O   0  0  0  0  0  0
  -28.2496  -26.2261   20.2107 O   0  0  0  0  0  0
  -26.5628  -34.8911   22.4648 O   0  0  0  0  0  0
  -23.5511  -32.1332   23.7214 O   0  0  0  0  0  0
  -30.8799  -20.1677   19.4573 C   0  0  0  0  0  0
  -31.2926  -17.7467   19.4733 C   0  0  0  0  0  0
  -29.3935  -18.6693   20.7062 C   0  0  0  0  0  0
  -29.7330  -20.0610   20.2763 C   0  0  0  0  0  0
  -30.1783  -17.4687   20.2995 C   0  0  0  0  0  0
  -31.6332  -19.0476   19.0658 C   0  0  0  0  0  0
  -27.9148  -25.0439   20.9518 C   0  0  0  0  0  0
  -28.1805  -18.4127   21.5588 C   0  0  0  0  0  0
  -28.2101  -23.6636   21.0120 C   0  0  0  0  0  0
  -29.1092  -22.7143   20.2354 C   0  0  0  0  0  0
  -27.6590  -19.5233   22.4641 C   0  0  0  0  0  0
  -29.0238  -21.3583   20.6273 N   0  0  0  0  0  0
  -29.8944  -16.0058   20.6301 N   0  0  0  0  0  0
  -27.5949  -17.3259   21.5945 O   0  0  0  0  0  0
  -29.8528  -23.0893   19.3274 O   0  0  0  0  0  0
  -27.5403  -23.0271   21.9906 O   0  0  0  0  0  0
  -32.7145  -19.2258   18.2682 F   0  0  0  0  0  0
  -31.4802  -12.5969   19.2090 H   0  0  0  0  0  0
  -30.3615  -11.5277   20.0105 H   0  0  0  0  0  0
  -29.8250  -11.7320   17.5569 H   0  0  0  0  0  0
  -29.6577  -13.4632   17.7265 H   0  0  0  0  0  0
  -27.9201  -11.2868   18.9419 H   0  0  0  0  0  0
  -27.3992  -12.5045   17.8014 H   0  0  0  0  0  0
  -27.6170  -14.2593   19.4409 H   0  0  0  0  0  0
  -28.7312  -12.2494   21.4582 H   0  0  0  0  0  0
  -28.4039  -13.9375   21.7695 H   0  0  0  0  0  0
  -25.2816   -9.5688   22.4724 H   0  0  0  0  0  0
  -24.0032   -7.4644   22.7477 H   0  0  0  0  0  0
  -21.0857   -8.8816   19.8965 H   0  0  0  0  0  0
  -22.3737  -10.9691   19.6153 H   0  0  0  0  0  0
  -21.2011   -7.6136   23.9718 H   0  0  0  0  0  0
  -21.1474   -6.0511   25.9079 H   0  0  0  0  0  0
  -22.0599   -2.7604   23.2848 H   0  0  0  0  0  0
  -22.4125  -11.9924   22.4861 H   0  0  0  0  0  0
  -21.1080  -13.1247   22.2629 H   0  0  0  0  0  0
  -24.6503  -15.8456   20.5780 H   0  0  0  0  0  0
  -26.2746  -15.6591   20.1627 H   0  0  0  0  0  0
  -26.7244  -32.5378   23.1048 H   0  0  0  0  0  0
  -25.0134  -33.9638   25.0404 H   0  0  0  0  0  0
  -22.7362  -31.2930   21.3850 H   0  0  0  0  0  0
  -23.3766  -35.9563   23.3238 H   0  0  0  0  0  0
  -24.3602  -36.8937   22.2051 H   0  0  0  0  0  0
  -23.7211  -37.6425   23.6689 H   0  0  0  0  0  0
  -26.1304  -31.5119   20.6081 H   0  0  0  0  0  0
  -26.8635  -30.8074   22.0143 H   0  0  0  0  0  0
  -28.1313  -28.8753   21.2425 H   0  0  0  0  0  0
  -25.9877  -25.8757   19.0151 H   0  0  0  0  0  0
  -23.9945  -27.3056   18.9792 H   0  0  0  0  0  0
  -23.7893  -30.5733   19.3957 H   0  0  0  0  0  0
  -22.7789  -29.2360   19.8524 H   0  0  0  0  0  0
  -25.1269  -36.1856   25.0806 H   0  0  0  0  0  0
  -21.0020  -28.3291   24.1378 H   0  0  0  0  0  0
  -20.5660  -26.2309   23.3626 H   0  0  0  0  0  0
  -21.6655  -26.7408   22.1235 H   0  0  0  0  0  0
  -19.6921  -25.6299   21.1239 H   0  0  0  0  0  0
  -19.6700  -27.3192   20.6737 H   0  0  0  0  0  0
  -17.4211  -26.6708   21.4001 H   0  0  0  0  0  0
  -18.0311  -26.0085   22.9011 H   0  0  0  0  0  0
  -19.7951  -30.7302   24.2224 H   0  0  0  0  0  0
  -17.5018  -31.6254   24.5181 H   0  0  0  0  0  0
  -15.5361  -30.2960   23.7673 H   0  0  0  0  0  0
  -15.8693  -28.0815   22.7047 H   0  0  0  0  0  0
  -24.5932  -30.7069   25.7816 H   0  0  0  0  0  0
  -24.8919  -32.2923   26.4797 H   0  0  0  0  0  0
  -25.8068  -30.9001   27.0253 H   0  0  0  0  0  0
  -26.2903  -29.6700   24.1237 H   0  0  0  0  0  0
  -27.3972  -29.7208   25.4767 H   0  0  0  0  0  0
  -27.8834  -30.4173   23.9496 H   0  0  0  0  0  0
  -27.2699  -33.3598   26.2050 H   0  0  0  0  0  0
  -28.3907  -32.6826   25.0313 H   0  0  0  0  0  0
  -28.0746  -31.8406   26.5407 H   0  0  0  0  0  0
  -28.2522  -38.0130   24.7610 H   0  0  0  0  0  0
  -28.1169  -36.2668   24.6079 H   0  0  0  0  0  0
  -27.2352  -37.1199   25.8845 H   0  0  0  0  0  0
  -20.9442  -29.8738   21.6820 H   0  0  0  0  0  0
  -26.0119  -38.2814   24.1547 H   0  0  0  0  0  0
  -31.2227  -21.1255   19.1024 H   0  0  0  0  0  0
  -31.9306  -16.9603   19.1051 H   0  0  0  0  0  0
  -27.2048  -25.3708   21.6995 H   0  0  0  0  0  0
  -28.4780  -20.1119   22.8745 H   0  0  0  0  0  0
  -27.1036  -19.0981   23.2995 H   0  0  0  0  0  0
  -26.9826  -20.1718   21.9084 H   0  0  0  0  0  0
  -28.3251  -21.2827   21.3560 H   0  0  0  0  0  0
  -28.9585  -15.8450   20.9785 H   0  0  0  0  0  0
  -27.0114  -23.6681   22.4464 H   0  0  0  0  0  0
  1 25  1  0  0  0
  1 30  2  0  0  0
  1 83  1  0  0  0
  2  3  1  0  0  0
  2 25  1  0  0  0
  2 88  1  0  0  0
  2 89  1  0  0  0
  3  4  1  0  0  0
  3 90  1  0  0  0
  3 91  1  0  0  0
  4  5  1  0  0  0
  4 92  1  0  0  0
  4 93  1  0  0  0
  5  6  1  0  0  0
  5 26  1  0  0  0
  5 94  1  0  0  0
  6 25  1  0  0  0
  6 95  1  0  0  0
  6 96  1  0  0  0
  7  8  2  0  0  0
  7 26  1  0  0  0
  7 29  1  0  0  0
  8  9  1  0  0  0
  8 22  1  0  0  0
  9 10  1  0  0  0
  9 27  2  0  0  0
 10 11  2  0  0  0
 10 15  1  0  0  0
 11 12  1  0  0  0
 11 97  1  0  0  0
 12 13  2  0  0  0
 12 98  1  0  0  0
 13 14  1  0  0  0
 13 31  1  0  0  0
 14 15  2  0  0  0
 14 99  1  0  0  0
 15100  1  0  0  0
 16 17  2  0  0  0
 16 21  1  0  0  0
 16 31  1  0  0  0
 17 18  1  0  0  0
 17101  1  0  0  0
 18 19  2  0  0  0
 18102  1  0  0  0
 19 20  1  0  0  0
 19 24  1  0  0  0
 20 21  2  0  0  0
 20103  1  0  0  0
 21 23  1  0  0  0
 22 28  1  0  0  0
 22 32  2  0  0  0
 26 27  1  0  0  0
 28104  1  0  0  0
 28105  1  0  0  0
 29106  1  0  0  0
 29107  1  0  0  0
 33 34  1  0  0  0
 33 66  1  0  0  0
 33 70  2  0  0  0
 34 36  1  0  0  0
 34 59  1  0  0  0
 34108  1  0  0  0
 35 44  2  0  0  0
 35 45  1  0  0  0
 35 68  1  0  0  0
 36 56  1  0  0  0
 36109  1  0  0  0
 37 39  1  0  0  0
 37 47  1  0  0  0
 37 66  1  0  0  0
 37110  1  0  0  0
 38 43  2  0  0  0
 38 46  1  0  0  0
 38 47  1  0  0  0
 39 64  1  0  0  0
 39 67  2  0  0  0
 40 52  1  0  0  0
 40 53  2  0  0  0
 40 58  1  0  0  0
 41111  1  0  0  0
 41112  1  0  0  0
 41113  1  0  0  0
 41 48  1  0  0  0
 42 43  1  0  0  0
 42 66  1  0  0  0
 42114  1  0  0  0
 42115  1  0  0  0
 43 44  1  0  0  0
 44116  1  0  0  0
 45 46  2  0  0  0
 45117  1  0  0  0
 46118  1  0  0  0
 47119  1  0  0  0
 47120  1  0  0  0
 48 56  1  0  0  0
 48 65  1  0  0  0
 48121  1  0  0  0
 49 50  1  0  0  0
 49 53  1  0  0  0
 49 64  1  0  0  0
 49122  1  0  0  0
 50 51  1  0  0  0
 50123  1  0  0  0
 50124  1  0  0  0
 51 52  1  0  0  0
 51125  1  0  0  0
 51126  1  0  0  0
 52127  1  0  0  0
 52128  1  0  0  0
 53 54  1  0  0  0
 54 55  2  0  0  0
 54129  1  0  0  0
 55 57  1  0  0  0
 55130  1  0  0  0
 56 69  2  0  0  0
 57 58  2  0  0  0
 57131  1  0  0  0
 58132  1  0  0  0
 59 60  1  0  0  0
 59 61  1  0  0  0
 59 62  1  0  0  0
 60133  1  0  0  0
 60134  1  0  0  0
 60135  1  0  0  0
 61136  1  0  0  0
 61137  1  0  0  0
 61138  1  0  0  0
 62139  1  0  0  0
 62140  1  0  0  0
 62141  1  0  0  0
 63 65  1  0  0  0
 63142  1  0  0  0
 63143  1  0  0  0
 63144  1  0  0  0
 64145  1  0  0  0
 65146  1  0  0  0
 68 77  1  0  0  0
 71 74  2  0  0  0
 71 76  1  0  0  0
 71147  1  0  0  0
 72 75  1  0  0  0
 72 76  2  0  0  0
 72148  1  0  0  0
 73 74  1  0  0  0
 73 75  2  0  0  0
 73 78  1  0  0  0
 74 82  1  0  0  0
 75 83  1  0  0  0
 76 87  1  0  0  0
 77 79  2  0  0  0
 77149  1  0  0  0
 78 81  1  0  0  0
 78 84  2  0  0  0
 79 80  1  0  0  0
 79 86  1  0  0  0
 80 82  1  0  0  0
 80 85  2  0  0  0
 81150  1  0  0  0
 81151  1  0  0  0
 81152  1  0  0  0
 82153  1  0  0  0
 83154  1  0  0  0
 86155  1  0  0  0
M  ISO  4   1 100  68 101  77 101  83 100
M  END
> <chiral flag>
0

> <version>
0

> <s_m_source_file>
/data/baiqing/PycharmProjects/Reinvent-master-3.2/result/LINK_invent/BTK/process_docking_weight1_custom_product_contain_oxygen_bond_distance_aromatic_linkinvent_7_9_3/rearranged_h_0172.sdf

> <i_m_source_file_index>
61

> <r_mmod_Potential_Energy-OPLS-2005>
426.7177734375

> <r_mmod_Stretch_Energy-OPLS-2005>
186.53547668457

> <r_mmod_Bend_Energy-OPLS-2005>
253.692520141602

> <r_mmod_Torsional_Energy-OPLS-2005>
247.156051635742

> <r_mmod_Improper_Torsional_Energy-OPLS-2005>
3.86647009849548

> <r_mmod_Van_der_Waal_Energy-OPLS-2005>
155.501770019531

> <r_mmod_Electrostatic_Energy-OPLS-2005>
-313.818572998047

> <r_mmod_Solvation_Energy-OPLS-2005>
-231.297485351562

> <b_mmod_Minimization_Converged-OPLS-2005>
0

> <r_mmod_RMS_Derivative-OPLS-2005>
2.6916823387146

$$$$
61
                    3D
 Structure written by MMmdl.
162170  0  0  1  0            999 V2000
  -30.6984  -14.4274   20.5481 C   0  0  0  0  0  0
  -30.4155  -12.2659   19.4195 C   0  0  0  0  0  0
  -29.5011  -12.5137   18.2007 C   0  0  0  0  0  0
  -28.0117  -12.4177   18.5920 C   0  0  0  0  0  0
  -27.6660  -13.2125   19.8806 C   0  0  2  0  0  0
  -28.7062  -12.9558   20.9964 C   0  0  0  0  0  0
  -25.2589  -13.8166   20.5699 C   0  0  0  0  0  0
  -24.1827  -13.0441   20.9162 C   0  0  0  0  0  0
  -24.6392  -11.6908   20.8690 C   0  0  0  0  0  0
  -23.9050  -10.4301   21.0381 C   0  0  0  0  0  0
  -24.3623   -9.4215   21.9151 C   0  0  0  0  0  0
  -23.6299   -8.2250   22.0722 C   0  0  0  0  0  0
  -22.4262   -8.0297   21.3540 C   0  0  0  0  0  0
  -21.9903   -9.0262   20.4632 C   0  0  0  0  0  0
  -22.7231  -10.2136   20.3027 C   0  0  0  0  0  0
  -21.6863   -6.0738   22.5285 C   0  0  0  0  0  0
  -21.4025   -6.5625   23.8225 C   0  0  0  0  0  0
  -21.3660   -5.6773   24.9175 C   0  0  0  0  0  0
  -21.6049   -4.3040   24.7225 C   0  0  0  0  0  0
  -21.8819   -3.8134   23.4342 C   0  0  0  0  0  0
  -21.9190   -4.6958   22.3398 C   0  0  0  0  0  0
  -22.7857  -13.5240   21.1836 C   0  0  0  0  0  0
  -22.1672   -4.2137   21.0977 F   0  0  0  0  0  0
  -21.5622   -3.4509   25.7743 F   0  0  0  0  0  0
  -30.0459  -13.2409   20.4543 N   0  0  0  0  0  0
  -26.3041  -12.9366   20.3362 N   0  0  0  0  0  0
  -25.9318  -11.6512   20.5688 N   0  0  0  0  0  0
  -22.0493  -12.8251   22.0420 N   0  0  0  0  0  0
  -25.4264  -15.1909   20.4195 N   0  0  0  0  0  0
  -31.8275  -14.6274   20.0958 O   0  0  0  0  0  0
  -21.6638   -6.8890   21.4251 O   0  0  0  0  0  0
  -22.3524  -14.5539   20.6679 O   0  0  0  0  0  0
  -24.6093  -31.8716   23.2123 C   0  0  0  0  0  0
  -25.8997  -32.4830   23.8437 C   0  0  1  0  0  0
  -27.2473  -27.4663   20.0896 C   0  0  0  0  0  0
  -25.5858  -33.8625   24.2348 N   0  0  0  0  0  0
  -23.3991  -30.4889   21.5560 C   0  0  2  0  0  0
  -24.8471  -28.9554   20.1224 C   0  0  0  0  0  0
  -22.7397  -29.4643   22.5063 C   0  0  0  0  0  0
  -18.0267  -28.1378   22.8524 C   0  0  0  0  0  0
  -24.1474  -36.7322   23.2649 C   0  0  0  0  0  0
  -25.9229  -30.8426   21.3658 C   0  0  0  0  0  0
  -26.0020  -29.4796   20.7124 C   0  0  0  0  0  0
  -27.2037  -28.7428   20.6894 C   0  0  0  0  0  0
  -26.0722  -26.9442   19.5031 C   0  0  0  0  0  0
  -24.8737  -27.6864   19.5192 C   0  0  0  0  0  0
  -23.6072  -29.8174   20.1729 C   0  0  0  0  0  0
  -25.4080  -36.3107   24.0350 C   0  0  1  0  0  0
  -20.5849  -28.3628   23.1394 C   0  0  2  0  0  0
  -20.6745  -26.9375   22.5458 C   0  0  0  0  0  0
  -19.5722  -26.6385   21.5245 C   0  0  0  0  0  0
  -18.1901  -26.7940   22.1639 C   0  0  0  0  0  0
  -19.1511  -28.8824   23.2951 C   0  0  0  0  0  0
  -18.9425  -30.1443   23.8945 C   0  0  0  0  0  0
  -17.6423  -30.6590   24.0579 C   0  0  0  0  0  0
  -25.9016  -34.9468   23.5141 C   0  0  0  0  0  0
  -16.5321  -29.9081   23.6340 C   0  0  0  0  0  0
  -16.7256  -28.6496   23.0364 C   0  0  0  0  0  0
  -26.4457  -31.6622   25.0753 C   0  0  0  0  0  0
  -25.3726  -31.3724   26.1501 C   0  0  0  0  0  0
  -27.0320  -30.3070   24.6159 C   0  0  0  0  0  0
  -27.6047  -32.4360   25.7465 C   0  0  0  0  0  0
  -27.5574  -37.1803   24.8455 C   0  0  0  0  0  0
  -21.4120  -29.2989   22.3801 N   0  0  0  0  0  0
  -26.4283  -37.3776   23.9420 N   0  0  0  0  0  0
  -24.6615  -31.0819   22.1030 N   0  0  0  0  0  0
  -23.4166  -28.8204   23.3122 O   0  0  0  0  0  0
  -28.4579  -26.8144   20.0880 O   0  0  0  0  0  0
  -26.5587  -34.8915   22.4706 O   0  0  0  0  0  0
  -23.5280  -32.1464   23.7517 O   0  0  0  0  0  0
  -29.4826  -16.4728   18.7703 C   0  0  0  0  0  0
  -29.3478  -17.8212   20.7739 C   0  0  0  0  0  0
  -29.0583  -17.5517   17.9612 C   0  0  0  0  0  0
  -28.7412  -18.8002   18.5793 C   0  0  0  0  0  0
  -29.6155  -16.5808   20.1699 C   0  0  0  0  0  0
  -28.9463  -18.9261   19.9885 C   0  0  0  0  0  0
  -28.9893  -17.3233   16.4889 C   0  0  0  0  0  0
  -29.2551  -22.4354   21.1384 C   0  0  0  0  0  0
  -29.7363  -20.9746   21.0399 C   0  0  0  0  0  0
  -30.1577  -23.4722   20.4648 C   0  0  0  0  0  0
  -29.7458  -24.9412   20.6841 C   0  0  0  0  0  0
  -28.5152  -25.4082   19.8874 C   0  0  0  0  0  0
  -28.2397  -20.0129   17.7518 C   0  0  0  0  0  0
  -29.0646  -16.1961   15.9111 N   0  0  0  0  0  0
  -28.7458  -20.1619   20.6449 N   0  0  0  0  0  0
  -29.9430  -15.4525   20.9760 N   0  0  0  0  0  0
  -28.1848  -22.7416   21.6760 O   0  0  0  0  0  0
  -30.8942  -20.6265   21.2891 O   0  0  0  0  0  0
  -27.4344  -19.6812   16.7446 F   0  0  0  0  0  0
  -27.5274  -20.8824   18.4711 F   0  0  0  0  0  0
  -29.2950  -20.6632   17.2584 F   0  0  0  0  0  0
  -31.4652  -12.3387   19.1337 H   0  0  0  0  0  0
  -30.2819  -11.2492   19.7914 H   0  0  0  0  0  0
  -29.7273  -11.8032   17.4053 H   0  0  0  0  0  0
  -29.7068  -13.4922   17.7702 H   0  0  0  0  0  0
  -27.7690  -11.3654   18.7254 H   0  0  0  0  0  0
  -27.3923  -12.7722   17.7660 H   0  0  0  0  0  0
  -27.7153  -14.2674   19.6178 H   0  0  0  0  0  0
  -28.6646  -11.9143   21.3224 H   0  0  0  0  0  0
  -28.4838  -13.5433   21.8887 H   0  0  0  0  0  0
  -25.2787   -9.5696   22.4695 H   0  0  0  0  0  0
  -24.0030   -7.4638   22.7428 H   0  0  0  0  0  0
  -21.0833   -8.8773   19.8949 H   0  0  0  0  0  0
  -22.3695  -10.9660   19.6121 H   0  0  0  0  0  0
  -21.2027   -7.6141   23.9744 H   0  0  0  0  0  0
  -21.1483   -6.0485   25.9089 H   0  0  0  0  0  0
  -22.0594   -2.7598   23.2831 H   0  0  0  0  0  0
  -22.4108  -11.9952   22.4870 H   0  0  0  0  0  0
  -21.1092  -13.1267   22.2569 H   0  0  0  0  0  0
  -24.6514  -15.8369   20.5332 H   0  0  0  0  0  0
  -26.2860  -15.6446   20.1398 H   0  0  0  0  0  0
  -26.7058  -32.5589   23.1212 H   0  0  0  0  0  0
  -24.9928  -33.9807   25.0438 H   0  0  0  0  0  0
  -22.6847  -31.3028   21.4170 H   0  0  0  0  0  0
  -23.3715  -35.9682   23.3294 H   0  0  0  0  0  0
  -24.3595  -36.8947   22.2073 H   0  0  0  0  0  0
  -23.7232  -37.6523   23.6677 H   0  0  0  0  0  0
  -26.0398  -31.6133   20.6026 H   0  0  0  0  0  0
  -26.8081  -30.8879   21.9879 H   0  0  0  0  0  0
  -28.1034  -29.1504   21.1317 H   0  0  0  0  0  0
  -26.0675  -25.9814   19.0147 H   0  0  0  0  0  0
  -23.9842  -27.2776   19.0637 H   0  0  0  0  0  0
  -23.7135  -30.5913   19.4106 H   0  0  0  0  0  0
  -22.7337  -29.2334   19.8820 H   0  0  0  0  0  0
  -25.1249  -36.1966   25.0847 H   0  0  0  0  0  0
  -20.9948  -28.3164   24.1503 H   0  0  0  0  0  0
  -20.5693  -26.2200   23.3612 H   0  0  0  0  0  0
  -21.6610  -26.7459   22.1223 H   0  0  0  0  0  0
  -19.6866  -25.6299   21.1265 H   0  0  0  0  0  0
  -19.6677  -27.3205   20.6787 H   0  0  0  0  0  0
  -17.4185  -26.6740   21.4022 H   0  0  0  0  0  0
  -18.0257  -26.0075   22.9019 H   0  0  0  0  0  0
  -19.7894  -30.7264   24.2331 H   0  0  0  0  0  0
  -17.4964  -31.6291   24.5151 H   0  0  0  0  0  0
  -15.5312  -30.2971   23.7652 H   0  0  0  0  0  0
  -15.8664  -28.0828   22.7038 H   0  0  0  0  0  0
  -24.5829  -30.7174   25.7795 H   0  0  0  0  0  0
  -24.8999  -32.2890   26.5060 H   0  0  0  0  0  0
  -25.8051  -30.8763   27.0201 H   0  0  0  0  0  0
  -26.2893  -29.6777   24.1234 H   0  0  0  0  0  0
  -27.4102  -29.7359   25.4658 H   0  0  0  0  0  0
  -27.8720  -30.4395   23.9319 H   0  0  0  0  0  0
  -27.2686  -33.3630   26.2128 H   0  0  0  0  0  0
  -28.3772  -32.6988   25.0222 H   0  0  0  0  0  0
  -28.0830  -31.8461   26.5295 H   0  0  0  0  0  0
  -28.2563  -38.0124   24.7508 H   0  0  0  0  0  0
  -28.1090  -36.2654   24.6228 H   0  0  0  0  0  0
  -27.2340  -37.1397   25.8874 H   0  0  0  0  0  0
  -20.9255  -29.8658   21.6992 H   0  0  0  0  0  0
  -26.0154  -38.2859   24.1400 H   0  0  0  0  0  0
  -29.7101  -15.5338   18.2990 H   0  0  0  0  0  0
  -29.4551  -17.9356   21.8432 H   0  0  0  0  0  0
  -28.8803  -18.1984   15.8486 H   0  0  0  0  0  0
  -30.2184  -23.2518   19.3978 H   0  0  0  0  0  0
  -31.1611  -23.3247   20.8627 H   0  0  0  0  0  0
  -30.5954  -25.5697   20.4159 H   0  0  0  0  0  0
  -29.5750  -25.1150   21.7472 H   0  0  0  0  0  0
  -27.6183  -24.8971   20.2367 H   0  0  0  0  0  0
  -28.6410  -25.2041   18.8216 H   0  0  0  0  0  0
  -29.1693  -15.4250   16.5606 H   0  0  0  0  0  0
  -27.8793  -20.6509   20.4523 H   0  0  0  0  0  0
  -29.2299  -15.1911   21.6407 H   0  0  0  0  0  0
  1 25  1  0  0  0
  1 30  2  0  0  0
  1 86  1  0  0  0
  2  3  1  0  0  0
  2 25  1  0  0  0
  2 92  1  0  0  0
  2 93  1  0  0  0
  3  4  1  0  0  0
  3 94  1  0  0  0
  3 95  1  0  0  0
  4  5  1  0  0  0
  4 96  1  0  0  0
  4 97  1  0  0  0
  5  6  1  0  0  0
  5 26  1  0  0  0
  5 98  1  0  0  0
  6 25  1  0  0  0
  6 99  1  0  0  0
  6100  1  0  0  0
  7  8  2  0  0  0
  7 26  1  0  0  0
  7 29  1  0  0  0
  8  9  1  0  0  0
  8 22  1  0  0  0
  9 10  1  0  0  0
  9 27  2  0  0  0
 10 11  2  0  0  0
 10 15  1  0  0  0
 11 12  1  0  0  0
 11101  1  0  0  0
 12 13  2  0  0  0
 12102  1  0  0  0
 13 14  1  0  0  0
 13 31  1  0  0  0
 14 15  2  0  0  0
 14103  1  0  0  0
 15104  1  0  0  0
 16 17  2  0  0  0
 16 21  1  0  0  0
 16 31  1  0  0  0
 17 18  1  0  0  0
 17105  1  0  0  0
 18 19  2  0  0  0
 18106  1  0  0  0
 19 20  1  0  0  0
 19 24  1  0  0  0
 20 21  2  0  0  0
 20107  1  0  0  0
 21 23  1  0  0  0
 22 28  1  0  0  0
 22 32  2  0  0  0
 26 27  1  0  0  0
 28108  1  0  0  0
 28109  1  0  0  0
 29110  1  0  0  0
 29111  1  0  0  0
 33 34  1  0  0  0
 33 66  1  0  0  0
 33 70  2  0  0  0
 34 36  1  0  0  0
 34 59  1  0  0  0
 34112  1  0  0  0
 35 44  2  0  0  0
 35 45  1  0  0  0
 35 68  1  0  0  0
 36 56  1  0  0  0
 36113  1  0  0  0
 37 39  1  0  0  0
 37 47  1  0  0  0
 37 66  1  0  0  0
 37114  1  0  0  0
 38 43  2  0  0  0
 38 46  1  0  0  0
 38 47  1  0  0  0
 39 64  1  0  0  0
 39 67  2  0  0  0
 40 52  1  0  0  0
 40 53  2  0  0  0
 40 58  1  0  0  0
 41115  1  0  0  0
 41116  1  0  0  0
 41117  1  0  0  0
 41 48  1  0  0  0
 42 43  1  0  0  0
 42 66  1  0  0  0
 42118  1  0  0  0
 42119  1  0  0  0
 43 44  1  0  0  0
 44120  1  0  0  0
 45 46  2  0  0  0
 45121  1  0  0  0
 46122  1  0  0  0
 47123  1  0  0  0
 47124  1  0  0  0
 48 56  1  0  0  0
 48 65  1  0  0  0
 48125  1  0  0  0
 49 50  1  0  0  0
 49 53  1  0  0  0
 49 64  1  0  0  0
 49126  1  0  0  0
 50 51  1  0  0  0
 50127  1  0  0  0
 50128  1  0  0  0
 51 52  1  0  0  0
 51129  1  0  0  0
 51130  1  0  0  0
 52131  1  0  0  0
 52132  1  0  0  0
 53 54  1  0  0  0
 54 55  2  0  0  0
 54133  1  0  0  0
 55 57  1  0  0  0
 55134  1  0  0  0
 56 69  2  0  0  0
 57 58  2  0  0  0
 57135  1  0  0  0
 58136  1  0  0  0
 59 60  1  0  0  0
 59 61  1  0  0  0
 59 62  1  0  0  0
 60137  1  0  0  0
 60138  1  0  0  0
 60139  1  0  0  0
 61140  1  0  0  0
 61141  1  0  0  0
 61142  1  0  0  0
 62143  1  0  0  0
 62144  1  0  0  0
 62145  1  0  0  0
 63 65  1  0  0  0
 63146  1  0  0  0
 63147  1  0  0  0
 63148  1  0  0  0
 64149  1  0  0  0
 65150  1  0  0  0
 68 82  1  0  0  0
 71 73  2  0  0  0
 71 75  1  0  0  0
 71151  1  0  0  0
 72 75  2  0  0  0
 72 76  1  0  0  0
 72152  1  0  0  0
 73 74  1  0  0  0
 73 77  1  0  0  0
 74 76  2  0  0  0
 74 83  1  0  0  0
 75 86  1  0  0  0
 76 85  1  0  0  0
 77 84  2  0  0  0
 77153  1  0  0  0
 78 79  1  0  0  0
 78 80  1  0  0  0
 78 87  2  0  0  0
 79 85  1  0  0  0
 79 88  2  0  0  0
 80 81  1  0  0  0
 80154  1  0  0  0
 80155  1  0  0  0
 81 82  1  0  0  0
 81156  1  0  0  0
 81157  1  0  0  0
 82158  1  0  0  0
 82159  1  0  0  0
 83 89  1  0  0  0
 83 90  1  0  0  0
 83 91  1  0  0  0
 84160  1  0  0  0
 85161  1  0  0  0
 86162  1  0  0  0
M  ISO  4   1 100  68 101  82 101  86 100
M  END
> <chiral flag>
0

> <version>
0

> <s_m_source_file>
/data/baiqing/PycharmProjects/Reinvent-master-3.2/result/LINK_invent/BTK/process_docking_weight1_custom_product_contain_oxygen_bond_distance_aromatic_linkinvent_7_9_3/rearranged_h_0172.sdf

> <i_m_source_file_index>
62

> <r_mmod_Potential_Energy-OPLS-2005>
18.4352836608887

> <r_mmod_Stretch_Energy-OPLS-2005>
38.1547813415527

> <r_mmod_Bend_Energy-OPLS-2005>
108.801116943359

> <r_mmod_Torsional_Energy-OPLS-2005>
283.208770751953

> <r_mmod_Improper_Torsional_Energy-OPLS-2005>
9.58095645904541

> <r_mmod_Van_der_Waal_Energy-OPLS-2005>
166.920288085938

> <r_mmod_Electrostatic_Energy-OPLS-2005>
-346.568206787109

> <r_mmod_Solvation_Energy-OPLS-2005>
-252.651306152344

> <b_mmod_Minimization_Converged-OPLS-2005>
0

> <r_mmod_RMS_Derivative-OPLS-2005>
4.69178152084351

$$$$
62
                    3D
 Structure written by MMmdl.
162170  0  0  1  0            999 V2000
  -30.6933  -14.4694   20.5414 C   0  0  0  0  0  0
  -30.4242  -12.3018   19.4229 C   0  0  0  0  0  0
  -29.4946  -12.5087   18.2050 C   0  0  0  0  0  0
  -28.0133  -12.3737   18.6125 C   0  0  0  0  0  0
  -27.6618  -13.2036   19.8755 C   0  0  2  0  0  0
  -28.7043  -12.9858   20.9972 C   0  0  0  0  0  0
  -25.2582  -13.8157   20.5665 C   0  0  0  0  0  0
  -24.1819  -13.0456   20.9136 C   0  0  0  0  0  0
  -24.6357  -11.6924   20.8663 C   0  0  0  0  0  0
  -23.9018  -10.4311   21.0360 C   0  0  0  0  0  0
  -24.3576   -9.4239   21.9139 C   0  0  0  0  0  0
  -23.6273   -8.2269   22.0734 C   0  0  0  0  0  0
  -22.4265   -8.0271   21.3526 C   0  0  0  0  0  0
  -21.9866   -9.0238   20.4631 C   0  0  0  0  0  0
  -22.7174  -10.2128   20.3028 C   0  0  0  0  0  0
  -21.6870   -6.0710   22.5270 C   0  0  0  0  0  0
  -21.4035   -6.5614   23.8198 C   0  0  0  0  0  0
  -21.3648   -5.6762   24.9148 C   0  0  0  0  0  0
  -21.6041   -4.3033   24.7208 C   0  0  0  0  0  0
  -21.8819   -3.8124   23.4329 C   0  0  0  0  0  0
  -21.9203   -4.6937   22.3384 C   0  0  0  0  0  0
  -22.7843  -13.5252   21.1798 C   0  0  0  0  0  0
  -22.1677   -4.2130   21.0964 F   0  0  0  0  0  0
  -21.5623   -3.4508   25.7718 F   0  0  0  0  0  0
  -30.0378  -13.2819   20.4485 N   0  0  0  0  0  0
  -26.3015  -12.9328   20.3350 N   0  0  0  0  0  0
  -25.9286  -11.6498   20.5715 N   0  0  0  0  0  0
  -22.0492  -12.8274   22.0385 N   0  0  0  0  0  0
  -25.4352  -15.1871   20.4121 N   0  0  0  0  0  0
  -31.8319  -14.6505   20.1032 O   0  0  0  0  0  0
  -21.6666   -6.8842   21.4228 O   0  0  0  0  0  0
  -22.3511  -14.5550   20.6638 O   0  0  0  0  0  0
  -24.6144  -31.8642   23.2081 C   0  0  0  0  0  0
  -25.9069  -32.4788   23.8371 C   0  0  1  0  0  0
  -27.2292  -27.4223   20.1003 C   0  0  0  0  0  0
  -25.5942  -33.8597   24.2306 N   0  0  0  0  0  0
  -23.4009  -30.4893   21.5451 C   0  0  2  0  0  0
  -24.8466  -28.9580   20.1030 C   0  0  0  0  0  0
  -22.7406  -29.4657   22.4959 C   0  0  0  0  0  0
  -18.0295  -28.1377   22.8500 C   0  0  0  0  0  0
  -24.1491  -36.7317   23.2635 C   0  0  0  0  0  0
  -25.9252  -30.8264   21.3601 C   0  0  0  0  0  0
  -26.0002  -29.4565   20.7191 C   0  0  0  0  0  0
  -27.1841  -28.6870   20.7318 C   0  0  0  0  0  0
  -26.0653  -26.9534   19.4488 C   0  0  0  0  0  0
  -24.8751  -27.7064   19.4632 C   0  0  0  0  0  0
  -23.6068  -29.8211   20.1591 C   0  0  0  0  0  0
  -25.4099  -36.3078   24.0325 C   0  0  1  0  0  0
  -20.5859  -28.3668   23.1306 C   0  0  2  0  0  0
  -20.6768  -26.9390   22.5415 C   0  0  0  0  0  0
  -19.5758  -26.6387   21.5205 C   0  0  0  0  0  0
  -18.1935  -26.7921   22.1620 C   0  0  0  0  0  0
  -19.1534  -28.8838   23.2908 C   0  0  0  0  0  0
  -18.9464  -30.1435   23.8929 C   0  0  0  0  0  0
  -17.6461  -30.6584   24.0540 C   0  0  0  0  0  0
  -25.9031  -34.9456   23.5100 C   0  0  0  0  0  0
  -16.5350  -29.9081   23.6305 C   0  0  0  0  0  0
  -16.7273  -28.6480   23.0361 C   0  0  0  0  0  0
  -26.4532  -31.6563   25.0682 C   0  0  0  0  0  0
  -25.3795  -31.3690   26.1394 C   0  0  0  0  0  0
  -27.0315  -30.2989   24.6024 C   0  0  0  0  0  0
  -27.6104  -32.4269   25.7471 C   0  0  0  0  0  0
  -27.5582  -37.1781   24.8455 C   0  0  0  0  0  0
  -21.4127  -29.3046   22.3702 N   0  0  0  0  0  0
  -26.4292  -37.3764   23.9415 N   0  0  0  0  0  0
  -24.6651  -31.0758   22.0974 N   0  0  0  0  0  0
  -23.4159  -28.8184   23.3002 O   0  0  0  0  0  0
  -28.4068  -26.7039   20.1690 O   0  0  0  0  0  0
  -26.5592  -34.8896   22.4667 O   0  0  0  0  0  0
  -23.5360  -32.1414   23.7470 O   0  0  0  0  0  0
  -29.9378  -17.9574   21.3655 C   0  0  0  0  0  0
  -30.0588  -16.8458   20.5010 C   0  0  0  0  0  0
  -30.2222  -17.1181   19.1232 C   0  0  0  0  0  0
  -30.3362  -18.4480   18.6835 C   0  0  0  0  0  0
  -30.2477  -19.4834   19.6404 C   0  0  0  0  0  0
  -29.1996  -23.0571   19.2199 C   0  0  0  0  0  0
  -31.9403  -21.3601   19.5615 C   0  0  0  0  0  0
  -28.8979  -24.1558   21.5102 C   0  0  0  0  0  0
  -28.6377  -25.5401   19.3552 C   0  0  0  0  0  0
  -30.5020  -20.9368   19.2207 C   0  0  2  0  0  0
  -28.4297  -24.1271   20.0334 C   0  0  1  0  0  0
  -30.0254  -19.2473   20.9567 N   0  0  0  0  0  0
  -29.9672  -15.5059   21.0026 N   0  0  0  0  0  0
  -29.5782  -21.9110   19.8161 N   0  0  0  0  0  0
  -27.0220  -23.6788   19.9740 N   0  3  0  0  0  0
  -29.4354  -23.2586   18.0280 O   0  0  0  0  0  0
  -30.2505  -16.1142   18.2092 F   0  0  0  0  0  0
  -30.5421  -18.7128   17.3702 F   0  0  0  0  0  0
  -31.4698  -12.4012   19.1248 H   0  0  0  0  0  0
  -30.3260  -11.2895   19.8175 H   0  0  0  0  0  0
  -29.7376  -11.7958   17.4152 H   0  0  0  0  0  0
  -29.6570  -13.4991   17.7796 H   0  0  0  0  0  0
  -27.8078  -11.3173   18.7886 H   0  0  0  0  0  0
  -27.3701  -12.6717   17.7843 H   0  0  0  0  0  0
  -27.7081  -14.2519   19.5821 H   0  0  0  0  0  0
  -28.6729  -11.9538   21.3484 H   0  0  0  0  0  0
  -28.4693  -13.5936   21.8716 H   0  0  0  0  0  0
  -25.2722   -9.5760   22.4672 H   0  0  0  0  0  0
  -24.0010   -7.4670   22.7446 H   0  0  0  0  0  0
  -21.0792   -8.8702   19.8937 H   0  0  0  0  0  0
  -22.3584  -10.9633   19.6118 H   0  0  0  0  0  0
  -21.2060   -7.6128   23.9693 H   0  0  0  0  0  0
  -21.1464   -6.0494   25.9045 H   0  0  0  0  0  0
  -22.0621   -2.7595   23.2829 H   0  0  0  0  0  0
  -22.4137  -11.9973   22.4814 H   0  0  0  0  0  0
  -21.1082  -13.1258   22.2537 H   0  0  0  0  0  0
  -24.6763  -15.8476   20.5353 H   0  0  0  0  0  0
  -26.2971  -15.6255   20.1151 H   0  0  0  0  0  0
  -26.7121  -32.5474   23.1128 H   0  0  0  0  0  0
  -25.0164  -33.9721   25.0488 H   0  0  0  0  0  0
  -22.6903  -31.3050   21.4085 H   0  0  0  0  0  0
  -23.3743  -35.9669   23.3289 H   0  0  0  0  0  0
  -24.3592  -36.8949   22.2058 H   0  0  0  0  0  0
  -23.7244  -37.6527   23.6642 H   0  0  0  0  0  0
  -26.0257  -31.5801   20.5790 H   0  0  0  0  0  0
  -26.8214  -30.8905   21.9666 H   0  0  0  0  0  0
  -28.0652  -29.0593   21.2358 H   0  0  0  0  0  0
  -26.0496  -26.0138   18.9224 H   0  0  0  0  0  0
  -23.9938  -27.3299   18.9594 H   0  0  0  0  0  0
  -23.7091  -30.5950   19.3978 H   0  0  0  0  0  0
  -22.7311  -29.2341   19.8720 H   0  0  0  0  0  0
  -25.1264  -36.1937   25.0820 H   0  0  0  0  0  0
  -20.9980  -28.3259   24.1409 H   0  0  0  0  0  0
  -20.5679  -26.2258   23.3603 H   0  0  0  0  0  0
  -21.6642  -26.7429   22.1193 H   0  0  0  0  0  0
  -19.6917  -25.6309   21.1224 H   0  0  0  0  0  0
  -19.6721  -27.3219   20.6754 H   0  0  0  0  0  0
  -17.4192  -26.6700   21.4022 H   0  0  0  0  0  0
  -18.0331  -26.0038   22.8999 H   0  0  0  0  0  0
  -19.7940  -30.7239   24.2319 H   0  0  0  0  0  0
  -17.5009  -31.6262   24.5168 H   0  0  0  0  0  0
  -15.5344  -30.2982   23.7617 H   0  0  0  0  0  0
  -15.8670  -28.0779   22.7095 H   0  0  0  0  0  0
  -24.6037  -30.6934   25.7783 H   0  0  0  0  0  0
  -24.8896  -32.2842   26.4715 H   0  0  0  0  0  0
  -25.8153  -30.9001   27.0206 H   0  0  0  0  0  0
  -26.2815  -29.6747   24.1125 H   0  0  0  0  0  0
  -27.4167  -29.7208   25.4436 H   0  0  0  0  0  0
  -27.8634  -30.4341   23.9098 H   0  0  0  0  0  0
  -27.2774  -33.3616   26.1995 H   0  0  0  0  0  0
  -28.3997  -32.6707   25.0355 H   0  0  0  0  0  0
  -28.0656  -31.8372   26.5436 H   0  0  0  0  0  0
  -28.2557  -38.0112   24.7494 H   0  0  0  0  0  0
  -28.1101  -36.2612   24.6278 H   0  0  0  0  0  0
  -27.2270  -37.1459   25.8851 H   0  0  0  0  0  0
  -20.9255  -29.8754   21.6930 H   0  0  0  0  0  0
  -26.0166  -38.2844   24.1423 H   0  0  0  0  0  0
  -29.7815  -17.8052   22.4225 H   0  0  0  0  0  0
  -32.6668  -20.6427   19.1742 H   0  0  0  0  0  0
  -32.0884  -21.4344   20.6406 H   0  0  0  0  0  0
  -32.1648  -22.3350   19.1276 H   0  0  0  0  0  0
  -29.8986  -24.5782   21.5967 H   0  0  0  0  0  0
  -28.9168  -23.1770   21.9962 H   0  0  0  0  0  0
  -28.2329  -24.7802   22.1086 H   0  0  0  0  0  0
  -28.1471  -25.6204   18.3841 H   0  0  0  0  0  0
  -29.6988  -25.6407   19.1162 H   0  0  0  0  0  0
  -30.3925  -20.9647   18.1363 H   0  0  0  0  0  0
  -29.1466  -15.2786   21.5432 H   0  0  0  0  0  0
  -29.3369  -21.7413   20.7833 H   0  0  0  0  0  0
  -26.9427  -22.7652   20.3885 H   0  0  0  0  0  0
  -26.7242  -23.5914   19.0166 H   0  0  0  0  0  0
  -26.4102  -24.3007   20.4693 H   0  0  0  0  0  0
  1 25  1  0  0  0
  1 30  2  0  0  0
  1 83  1  0  0  0
  2  3  1  0  0  0
  2 25  1  0  0  0
  2 89  1  0  0  0
  2 90  1  0  0  0
  3  4  1  0  0  0
  3 91  1  0  0  0
  3 92  1  0  0  0
  4  5  1  0  0  0
  4 93  1  0  0  0
  4 94  1  0  0  0
  5  6  1  0  0  0
  5 26  1  0  0  0
  5 95  1  0  0  0
  6 25  1  0  0  0
  6 96  1  0  0  0
  6 97  1  0  0  0
  7  8  2  0  0  0
  7 26  1  0  0  0
  7 29  1  0  0  0
  8  9  1  0  0  0
  8 22  1  0  0  0
  9 10  1  0  0  0
  9 27  2  0  0  0
 10 11  2  0  0  0
 10 15  1  0  0  0
 11 12  1  0  0  0
 11 98  1  0  0  0
 12 13  2  0  0  0
 12 99  1  0  0  0
 13 14  1  0  0  0
 13 31  1  0  0  0
 14 15  2  0  0  0
 14100  1  0  0  0
 15101  1  0  0  0
 16 17  2  0  0  0
 16 21  1  0  0  0
 16 31  1  0  0  0
 17 18  1  0  0  0
 17102  1  0  0  0
 18 19  2  0  0  0
 18103  1  0  0  0
 19 20  1  0  0  0
 19 24  1  0  0  0
 20 21  2  0  0  0
 20104  1  0  0  0
 21 23  1  0  0  0
 22 28  1  0  0  0
 22 32  2  0  0  0
 26 27  1  0  0  0
 28105  1  0  0  0
 28106  1  0  0  0
 29107  1  0  0  0
 29108  1  0  0  0
 33 34  1  0  0  0
 33 66  1  0  0  0
 33 70  2  0  0  0
 34 36  1  0  0  0
 34 59  1  0  0  0
 34109  1  0  0  0
 35 44  2  0  0  0
 35 45  1  0  0  0
 35 68  1  0  0  0
 36 56  1  0  0  0
 36110  1  0  0  0
 37 39  1  0  0  0
 37 47  1  0  0  0
 37 66  1  0  0  0
 37111  1  0  0  0
 38 43  2  0  0  0
 38 46  1  0  0  0
 38 47  1  0  0  0
 39 64  1  0  0  0
 39 67  2  0  0  0
 40 52  1  0  0  0
 40 53  2  0  0  0
 40 58  1  0  0  0
 41112  1  0  0  0
 41113  1  0  0  0
 41114  1  0  0  0
 41 48  1  0  0  0
 42 43  1  0  0  0
 42 66  1  0  0  0
 42115  1  0  0  0
 42116  1  0  0  0
 43 44  1  0  0  0
 44117  1  0  0  0
 45 46  2  0  0  0
 45118  1  0  0  0
 46119  1  0  0  0
 47120  1  0  0  0
 47121  1  0  0  0
 48 56  1  0  0  0
 48 65  1  0  0  0
 48122  1  0  0  0
 49 50  1  0  0  0
 49 53  1  0  0  0
 49 64  1  0  0  0
 49123  1  0  0  0
 50 51  1  0  0  0
 50124  1  0  0  0
 50125  1  0  0  0
 51 52  1  0  0  0
 51126  1  0  0  0
 51127  1  0  0  0
 52128  1  0  0  0
 52129  1  0  0  0
 53 54  1  0  0  0
 54 55  2  0  0  0
 54130  1  0  0  0
 55 57  1  0  0  0
 55131  1  0  0  0
 56 69  2  0  0  0
 57 58  2  0  0  0
 57132  1  0  0  0
 58133  1  0  0  0
 59 60  1  0  0  0
 59 61  1  0  0  0
 59 62  1  0  0  0
 60134  1  0  0  0
 60135  1  0  0  0
 60136  1  0  0  0
 61137  1  0  0  0
 61138  1  0  0  0
 61139  1  0  0  0
 62140  1  0  0  0
 62141  1  0  0  0
 62142  1  0  0  0
 63 65  1  0  0  0
 63143  1  0  0  0
 63144  1  0  0  0
 63145  1  0  0  0
 64146  1  0  0  0
 65147  1  0  0  0
 68 79  1  0  0  0
 71 72  2  0  0  0
 71 82  1  0  0  0
 71148  1  0  0  0
 72 73  1  0  0  0
 72 83  1  0  0  0
 73 74  2  0  0  0
 73 87  1  0  0  0
 74 75  1  0  0  0
 74 88  1  0  0  0
 75 80  1  0  0  0
 75 82  2  0  0  0
 76 84  1  0  0  0
 76 86  2  0  0  0
 76 81  1  0  0  0
 77149  1  0  0  0
 77150  1  0  0  0
 77151  1  0  0  0
 77 80  1  0  0  0
 78152  1  0  0  0
 78153  1  0  0  0
 78154  1  0  0  0
 78 81  1  0  0  0
 79 81  1  0  0  0
 79155  1  0  0  0
 79156  1  0  0  0
 80 84  1  0  0  0
 80157  1  0  0  0
 81 85  1  0  0  0
 83158  1  0  0  0
 84159  1  0  0  0
 85160  1  0  0  0
 85161  1  0  0  0
 85162  1  0  0  0
M  CHG  1  85   1
M  ISO  4   1 100  68 101  79 101  83 100
M  END
> <chiral flag>
0

> <version>
0

> <s_m_source_file>
/data/baiqing/PycharmProjects/Reinvent-master-3.2/result/LINK_invent/BTK/process_docking_weight1_custom_product_contain_oxygen_bond_distance_aromatic_linkinvent_7_9_3/rearranged_h_0172.sdf

> <i_m_source_file_index>
63

> <r_mmod_Potential_Energy-OPLS-2005>
-573.550720214844

> <r_mmod_Stretch_Energy-OPLS-2005>
40.7915878295898

> <r_mmod_Bend_Energy-OPLS-2005>
112.085838317871

> <r_mmod_Torsional_Energy-OPLS-2005>
242.010681152344

> <r_mmod_Improper_Torsional_Energy-OPLS-2005>
4.8265814781189

> <r_mmod_Van_der_Waal_Energy-OPLS-2005>
165.29150390625

> <r_mmod_Electrostatic_Energy-OPLS-2005>
-662.263977050781

> <r_mmod_Solvation_Energy-OPLS-2005>
-491.9658203125

> <b_mmod_Minimization_Converged-OPLS-2005>
0

> <r_mmod_RMS_Derivative-OPLS-2005>
5.22623109817505

$$$$
63
                    3D
 Structure written by MMmdl.
161169  0  0  1  0            999 V2000
  -30.7726  -14.3946   20.6357 C   0  0  0  0  0  0
  -30.4060  -12.2868   19.4107 C   0  0  0  0  0  0
  -29.4868  -12.5160   18.1980 C   0  0  0  0  0  0
  -28.0093  -12.3779   18.6119 C   0  0  0  0  0  0
  -27.6625  -13.2127   19.8741 C   0  0  2  0  0  0
  -28.7011  -12.9875   20.9956 C   0  0  0  0  0  0
  -25.2581  -13.8194   20.5681 C   0  0  0  0  0  0
  -24.1833  -13.0461   20.9174 C   0  0  0  0  0  0
  -24.6393  -11.6927   20.8726 C   0  0  0  0  0  0
  -23.9070  -10.4310   21.0399 C   0  0  0  0  0  0
  -24.3625   -9.4227   21.9181 C   0  0  0  0  0  0
  -23.6297   -8.2261   22.0751 C   0  0  0  0  0  0
  -22.4278   -8.0302   21.3539 C   0  0  0  0  0  0
  -21.9917   -9.0272   20.4639 C   0  0  0  0  0  0
  -22.7247  -10.2144   20.3044 C   0  0  0  0  0  0
  -21.6852   -6.0751   22.5282 C   0  0  0  0  0  0
  -21.4001   -6.5655   23.8215 C   0  0  0  0  0  0
  -21.3649   -5.6800   24.9173 C   0  0  0  0  0  0
  -21.6043   -4.3065   24.7220 C   0  0  0  0  0  0
  -21.8821   -3.8162   23.4347 C   0  0  0  0  0  0
  -21.9197   -4.6978   22.3407 C   0  0  0  0  0  0
  -22.7852  -13.5243   21.1848 C   0  0  0  0  0  0
  -22.1661   -4.2173   21.0975 F   0  0  0  0  0  0
  -21.5633   -3.4533   25.7727 F   0  0  0  0  0  0
  -30.0387  -13.2668   20.4446 N   0  0  0  0  0  0
  -26.3026  -12.9374   20.3362 N   0  0  0  0  0  0
  -25.9324  -11.6523   20.5740 N   0  0  0  0  0  0
  -22.0494  -12.8220   22.0404 N   0  0  0  0  0  0
  -25.4320  -15.1907   20.4090 N   0  0  0  0  0  0
  -31.8426  -14.6000   20.0554 O   0  0  0  0  0  0
  -21.6637   -6.8901   21.4240 O   0  0  0  0  0  0
  -22.3531  -14.5556   20.6715 O   0  0  0  0  0  0
  -24.6136  -31.8686   23.2113 C   0  0  0  0  0  0
  -25.9034  -32.4823   23.8412 C   0  0  1  0  0  0
  -27.2322  -27.4373   20.0939 C   0  0  0  0  0  0
  -25.5891  -33.8624   24.2340 N   0  0  0  0  0  0
  -23.4010  -30.4944   21.5518 C   0  0  2  0  0  0
  -24.8465  -28.9634   20.1144 C   0  0  0  0  0  0
  -22.7405  -29.4663   22.4999 C   0  0  0  0  0  0
  -18.0263  -28.1373   22.8505 C   0  0  0  0  0  0
  -24.1467  -36.7285   23.2650 C   0  0  0  0  0  0
  -25.9307  -30.8357   21.3655 C   0  0  0  0  0  0
  -26.0075  -29.4731   20.7074 C   0  0  0  0  0  0
  -27.2033  -28.7188   20.6918 C   0  0  0  0  0  0
  -26.0492  -26.9460   19.4905 C   0  0  0  0  0  0
  -24.8623  -27.6998   19.5031 C   0  0  0  0  0  0
  -23.6078  -29.8272   20.1663 C   0  0  0  0  0  0
  -25.4098  -36.3107   24.0350 C   0  0  1  0  0  0
  -20.5858  -28.3648   23.1332 C   0  0  2  0  0  0
  -20.6752  -26.9383   22.5431 C   0  0  0  0  0  0
  -19.5730  -26.6378   21.5224 C   0  0  0  0  0  0
  -18.1904  -26.7925   22.1624 C   0  0  0  0  0  0
  -19.1514  -28.8827   23.2912 C   0  0  0  0  0  0
  -18.9445  -30.1436   23.8910 C   0  0  0  0  0  0
  -17.6447  -30.6583   24.0565 C   0  0  0  0  0  0
  -25.9035  -34.9476   23.5138 C   0  0  0  0  0  0
  -16.5334  -29.9079   23.6345 C   0  0  0  0  0  0
  -16.7251  -28.6496   23.0361 C   0  0  0  0  0  0
  -26.4470  -31.6607   25.0734 C   0  0  0  0  0  0
  -25.3738  -31.3675   26.1476 C   0  0  0  0  0  0
  -27.0324  -30.3060   24.6119 C   0  0  0  0  0  0
  -27.6045  -32.4329   25.7497 C   0  0  0  0  0  0
  -27.5561  -37.1795   24.8475 C   0  0  0  0  0  0
  -21.4139  -29.3007   22.3727 N   0  0  0  0  0  0
  -26.4275  -37.3804   23.9425 N   0  0  0  0  0  0
  -24.6663  -31.0803   22.1007 N   0  0  0  0  0  0
  -23.4192  -28.8217   23.3039 O   0  0  0  0  0  0
  -28.4022  -26.7027   20.1215 O   0  0  0  0  0  0
  -26.5601  -34.8918   22.4699 O   0  0  0  0  0  0
  -23.5332  -32.1438   23.7516 O   0  0  0  0  0  0
  -32.1012  -16.1554   22.8147 C   0  0  0  0  0  0
  -30.6372  -17.7469   21.6962 C   0  0  0  0  0  0
  -32.8949  -17.2031   23.3306 C   0  0  0  0  0  0
  -32.5526  -18.5497   23.0104 C   0  0  0  0  0  0
  -30.9901  -16.4128   21.9898 C   0  0  0  0  0  0
  -31.4249  -18.8229   22.1828 C   0  0  0  0  0  0
  -34.0751  -16.8560   24.1736 C   0  0  0  0  0  0
  -29.3764  -23.0609   20.7175 C   0  0  0  0  0  0
  -30.3632  -22.2511   21.1793 C   0  0  0  0  0  0
  -29.4990  -24.5273   20.5210 C   0  0  0  0  0  0
  -30.0995  -20.8149   21.3317 C   0  0  0  0  0  0
  -33.4072  -19.7003   23.5572 C   0  0  0  0  0  0
  -28.2547  -25.2763   20.0169 C   0  0  0  0  0  0
  -34.4035  -15.6879   24.5369 N   0  0  0  0  0  0
  -31.1775  -20.1839   21.8247 N   0  0  0  0  0  0
  -30.2499  -15.3219   21.4561 N   0  0  0  0  0  0
  -30.5466  -25.1494   20.7409 O   0  0  0  0  0  0
  -29.0357  -20.2538   21.0604 O   0  0  0  0  0  0
  -31.5823  -22.7284   21.5065 O   0  0  0  0  0  0
  -31.4530  -12.3570   19.1118 H   0  0  0  0  0  0
  -30.2791  -11.2754   19.7976 H   0  0  0  0  0  0
  -29.7248  -11.8051   17.4057 H   0  0  0  0  0  0
  -29.6625  -13.5111   17.7836 H   0  0  0  0  0  0
  -27.8131  -11.3219   18.7992 H   0  0  0  0  0  0
  -27.3600  -12.6610   17.7823 H   0  0  0  0  0  0
  -27.7123  -14.2633   19.5854 H   0  0  0  0  0  0
  -28.6579  -11.9545   21.3439 H   0  0  0  0  0  0
  -28.4626  -13.5966   21.8677 H   0  0  0  0  0  0
  -25.2769   -9.5712   22.4747 H   0  0  0  0  0  0
  -24.0009   -7.4658   22.7475 H   0  0  0  0  0  0
  -21.0855   -8.8797   19.8948 H   0  0  0  0  0  0
  -22.3724  -10.9679   19.6147 H   0  0  0  0  0  0
  -21.1965   -7.6157   23.9728 H   0  0  0  0  0  0
  -21.1464   -6.0520   25.9079 H   0  0  0  0  0  0
  -22.0605   -2.7629   23.2829 H   0  0  0  0  0  0
  -22.4075  -11.9845   22.4752 H   0  0  0  0  0  0
  -21.1113  -13.1238   22.2617 H   0  0  0  0  0  0
  -24.6700  -15.8511   20.5177 H   0  0  0  0  0  0
  -26.2931  -15.6269   20.1027 H   0  0  0  0  0  0
  -26.7105  -32.5529   23.1171 H   0  0  0  0  0  0
  -25.0054  -33.9796   25.0493 H   0  0  0  0  0  0
  -22.6886  -31.3098   21.4139 H   0  0  0  0  0  0
  -23.3751  -35.9591   23.3326 H   0  0  0  0  0  0
  -24.3560  -36.8886   22.2060 H   0  0  0  0  0  0
  -23.7178  -37.6473   23.6662 H   0  0  0  0  0  0
  -26.0484  -31.6065   20.6027 H   0  0  0  0  0  0
  -26.8159  -30.8806   21.9875 H   0  0  0  0  0  0
  -28.0996  -29.1095   21.1535 H   0  0  0  0  0  0
  -26.0213  -25.9837   19.0003 H   0  0  0  0  0  0
  -23.9683  -27.3041   19.0399 H   0  0  0  0  0  0
  -23.7119  -30.6003   19.4048 H   0  0  0  0  0  0
  -22.7338  -29.2432   19.8747 H   0  0  0  0  0  0
  -25.1277  -36.1968   25.0845 H   0  0  0  0  0  0
  -20.9952  -28.3187   24.1453 H   0  0  0  0  0  0
  -20.5655  -26.2242   23.3612 H   0  0  0  0  0  0
  -21.6611  -26.7430   22.1204 H   0  0  0  0  0  0
  -19.6883  -25.6294   21.1227 H   0  0  0  0  0  0
  -19.6683  -27.3207   20.6776 H   0  0  0  0  0  0
  -17.4193  -26.6718   21.3999 H   0  0  0  0  0  0
  -18.0268  -26.0048   22.8993 H   0  0  0  0  0  0
  -19.7925  -30.7249   24.2279 H   0  0  0  0  0  0
  -17.5009  -31.6268   24.5150 H   0  0  0  0  0  0
  -15.5339  -30.2980   23.7685 H   0  0  0  0  0  0
  -15.8647  -28.0822   22.7076 H   0  0  0  0  0  0
  -24.5929  -30.7015   25.7782 H   0  0  0  0  0  0
  -24.8899  -32.2809   26.4958 H   0  0  0  0  0  0
  -25.8092  -30.8817   27.0220 H   0  0  0  0  0  0
  -26.2873  -29.6785   24.1219 H   0  0  0  0  0  0
  -27.4149  -29.7333   25.4577 H   0  0  0  0  0  0
  -27.8680  -30.4384   23.9237 H   0  0  0  0  0  0
  -27.2673  -33.3628   26.2095 H   0  0  0  0  0  0
  -28.3853  -32.6905   25.0320 H   0  0  0  0  0  0
  -28.0733  -31.8447   26.5396 H   0  0  0  0  0  0
  -28.2605  -38.0071   24.7527 H   0  0  0  0  0  0
  -28.1035  -36.2609   24.6314 H   0  0  0  0  0  0
  -27.2286  -37.1439   25.8880 H   0  0  0  0  0  0
  -20.9300  -29.8700   21.6929 H   0  0  0  0  0  0
  -26.0162  -38.2873   24.1454 H   0  0  0  0  0  0
  -32.3546  -15.1282   23.0349 H   0  0  0  0  0  0
  -29.7880  -17.9248   21.0539 H   0  0  0  0  0  0
  -34.7093  -17.6827   24.4997 H   0  0  0  0  0  0
  -28.4144  -22.6353   20.4666 H   0  0  0  0  0  0
  -33.5392  -19.6003   24.6349 H   0  0  0  0  0  0
  -32.9866  -20.6929   23.4087 H   0  0  0  0  0  0
  -34.3936  -19.6918   23.0914 H   0  0  0  0  0  0
  -27.4019  -24.9412   20.6089 H   0  0  0  0  0  0
  -28.0737  -24.9962   18.9790 H   0  0  0  0  0  0
  -33.7577  -14.9917   24.1841 H   0  0  0  0  0  0
  -31.9261  -20.8395   22.0092 H   0  0  0  0  0  0
  -29.3041  -15.1856   21.7780 H   0  0  0  0  0  0
  -31.5674  -23.6668   21.3350 H   0  0  0  0  0  0
  1 25  1  0  0  0
  1 30  2  0  0  0
  1 86  1  0  0  0
  2  3  1  0  0  0
  2 25  1  0  0  0
  2 90  1  0  0  0
  2 91  1  0  0  0
  3  4  1  0  0  0
  3 92  1  0  0  0
  3 93  1  0  0  0
  4  5  1  0  0  0
  4 94  1  0  0  0
  4 95  1  0  0  0
  5  6  1  0  0  0
  5 26  1  0  0  0
  5 96  1  0  0  0
  6 25  1  0  0  0
  6 97  1  0  0  0
  6 98  1  0  0  0
  7  8  2  0  0  0
  7 26  1  0  0  0
  7 29  1  0  0  0
  8  9  1  0  0  0
  8 22  1  0  0  0
  9 10  1  0  0  0
  9 27  2  0  0  0
 10 11  2  0  0  0
 10 15  1  0  0  0
 11 12  1  0  0  0
 11 99  1  0  0  0
 12 13  2  0  0  0
 12100  1  0  0  0
 13 14  1  0  0  0
 13 31  1  0  0  0
 14 15  2  0  0  0
 14101  1  0  0  0
 15102  1  0  0  0
 16 17  2  0  0  0
 16 21  1  0  0  0
 16 31  1  0  0  0
 17 18  1  0  0  0
 17103  1  0  0  0
 18 19  2  0  0  0
 18104  1  0  0  0
 19 20  1  0  0  0
 19 24  1  0  0  0
 20 21  2  0  0  0
 20105  1  0  0  0
 21 23  1  0  0  0
 22 28  1  0  0  0
 22 32  2  0  0  0
 26 27  1  0  0  0
 28106  1  0  0  0
 28107  1  0  0  0
 29108  1  0  0  0
 29109  1  0  0  0
 33 34  1  0  0  0
 33 66  1  0  0  0
 33 70  2  0  0  0
 34 36  1  0  0  0
 34 59  1  0  0  0
 34110  1  0  0  0
 35 44  2  0  0  0
 35 45  1  0  0  0
 35 68  1  0  0  0
 36 56  1  0  0  0
 36111  1  0  0  0
 37 39  1  0  0  0
 37 47  1  0  0  0
 37 66  1  0  0  0
 37112  1  0  0  0
 38 43  2  0  0  0
 38 46  1  0  0  0
 38 47  1  0  0  0
 39 64  1  0  0  0
 39 67  2  0  0  0
 40 52  1  0  0  0
 40 53  2  0  0  0
 40 58  1  0  0  0
 41113  1  0  0  0
 41114  1  0  0  0
 41115  1  0  0  0
 41 48  1  0  0  0
 42 43  1  0  0  0
 42 66  1  0  0  0
 42116  1  0  0  0
 42117  1  0  0  0
 43 44  1  0  0  0
 44118  1  0  0  0
 45 46  2  0  0  0
 45119  1  0  0  0
 46120  1  0  0  0
 47121  1  0  0  0
 47122  1  0  0  0
 48 56  1  0  0  0
 48 65  1  0  0  0
 48123  1  0  0  0
 49 50  1  0  0  0
 49 53  1  0  0  0
 49 64  1  0  0  0
 49124  1  0  0  0
 50 51  1  0  0  0
 50125  1  0  0  0
 50126  1  0  0  0
 51 52  1  0  0  0
 51127  1  0  0  0
 51128  1  0  0  0
 52129  1  0  0  0
 52130  1  0  0  0
 53 54  1  0  0  0
 54 55  2  0  0  0
 54131  1  0  0  0
 55 57  1  0  0  0
 55132  1  0  0  0
 56 69  2  0  0  0
 57 58  2  0  0  0
 57133  1  0  0  0
 58134  1  0  0  0
 59 60  1  0  0  0
 59 61  1  0  0  0
 59 62  1  0  0  0
 60135  1  0  0  0
 60136  1  0  0  0
 60137  1  0  0  0
 61138  1  0  0  0
 61139  1  0  0  0
 61140  1  0  0  0
 62141  1  0  0  0
 62142  1  0  0  0
 62143  1  0  0  0
 63 65  1  0  0  0
 63144  1  0  0  0
 63145  1  0  0  0
 63146  1  0  0  0
 64147  1  0  0  0
 65148  1  0  0  0
 68 83  1  0  0  0
 71 73  2  0  0  0
 71 75  1  0  0  0
 71149  1  0  0  0
 72 75  2  0  0  0
 72 76  1  0  0  0
 72150  1  0  0  0
 73 74  1  0  0  0
 73 77  1  0  0  0
 74 76  2  0  0  0
 74 82  1  0  0  0
 75 86  1  0  0  0
 76 85  1  0  0  0
 77 84  2  0  0  0
 77151  1  0  0  0
 78 79  2  0  0  0
 78 80  1  0  0  0
 78152  1  0  0  0
 79 81  1  0  0  0
 79 89  1  0  0  0
 80 83  1  0  0  0
 80 87  2  0  0  0
 81 85  1  0  0  0
 81 88  2  0  0  0
 82153  1  0  0  0
 82154  1  0  0  0
 82155  1  0  0  0
 83156  1  0  0  0
 83157  1  0  0  0
 84158  1  0  0  0
 85159  1  0  0  0
 86160  1  0  0  0
 89161  1  0  0  0
M  ISO  4   1 100  68 101  83 101  86 100
M  END
> <chiral flag>
0

> <version>
0

> <s_m_source_file>
/data/baiqing/PycharmProjects/Reinvent-master-3.2/result/LINK_invent/BTK/process_docking_weight1_custom_product_contain_oxygen_bond_distance_aromatic_linkinvent_7_9_3/rearranged_h_0172.sdf

> <i_m_source_file_index>
64

> <r_mmod_Potential_Energy-OPLS-2005>
-114.141693115234

> <r_mmod_Stretch_Energy-OPLS-2005>
41.4552993774414

> <r_mmod_Bend_Energy-OPLS-2005>
105.352165222168

> <r_mmod_Torsional_Energy-OPLS-2005>
227.702209472656

> <r_mmod_Improper_Torsional_Energy-OPLS-2005>
2.04427433013916

> <r_mmod_Van_der_Waal_Energy-OPLS-2005>
193.946334838867

> <r_mmod_Electrostatic_Energy-OPLS-2005>
-440.231658935547

> <r_mmod_Solvation_Energy-OPLS-2005>
-254.56787109375

> <b_mmod_Minimization_Converged-OPLS-2005>
0

> <r_mmod_RMS_Derivative-OPLS-2005>
1.9497789144516

$$$$
64
                    3D
 Structure written by MMmdl.
156164  0  0  1  0            999 V2000
  -30.7011  -14.4208   20.6765 C   0  0  0  0  0  0
  -30.4403  -12.3158   19.3949 C   0  0  0  0  0  0
  -29.4934  -12.5290   18.1954 C   0  0  0  0  0  0
  -28.0166  -12.3781   18.6101 C   0  0  0  0  0  0
  -27.6718  -13.1950   19.8824 C   0  0  2  0  0  0
  -28.7086  -12.9117   20.9899 C   0  0  0  0  0  0
  -25.2648  -13.8137   20.5675 C   0  0  0  0  0  0
  -24.1876  -13.0436   20.9156 C   0  0  0  0  0  0
  -24.6406  -11.6891   20.8723 C   0  0  0  0  0  0
  -23.9059  -10.4288   21.0401 C   0  0  0  0  0  0
  -24.3609   -9.4204   21.9183 C   0  0  0  0  0  0
  -23.6285   -8.2241   22.0752 C   0  0  0  0  0  0
  -22.4271   -8.0278   21.3536 C   0  0  0  0  0  0
  -21.9900   -9.0253   20.4641 C   0  0  0  0  0  0
  -22.7228  -10.2135   20.3051 C   0  0  0  0  0  0
  -21.6853   -6.0735   22.5278 C   0  0  0  0  0  0
  -21.4011   -6.5643   23.8210 C   0  0  0  0  0  0
  -21.3659   -5.6793   24.9177 C   0  0  0  0  0  0
  -21.6050   -4.3055   24.7225 C   0  0  0  0  0  0
  -21.8820   -3.8147   23.4344 C   0  0  0  0  0  0
  -21.9192   -4.6963   22.3402 C   0  0  0  0  0  0
  -22.7900  -13.5248   21.1832 C   0  0  0  0  0  0
  -22.1664   -4.2148   21.0976 F   0  0  0  0  0  0
  -21.5626   -3.4538   25.7739 F   0  0  0  0  0  0
  -30.0536  -13.2415   20.4690 N   0  0  0  0  0  0
  -26.3076  -12.9284   20.3379 N   0  0  0  0  0  0
  -25.9331  -11.6455   20.5749 N   0  0  0  0  0  0
  -22.0539  -12.8237   22.0385 N   0  0  0  0  0  0
  -25.4402  -15.1852   20.4108 N   0  0  0  0  0  0
  -31.7137  -14.7646   20.0542 O   0  0  0  0  0  0
  -21.6637   -6.8873   21.4237 O   0  0  0  0  0  0
  -22.3582  -14.5558   20.6690 O   0  0  0  0  0  0
  -24.6126  -31.8686   23.2099 C   0  0  0  0  0  0
  -25.9030  -32.4819   23.8388 C   0  0  1  0  0  0
  -27.2431  -27.4498   20.1089 C   0  0  0  0  0  0
  -25.5901  -33.8614   24.2320 N   0  0  0  0  0  0
  -23.3995  -30.4907   21.5500 C   0  0  2  0  0  0
  -24.8480  -28.9533   20.1200 C   0  0  0  0  0  0
  -22.7395  -29.4665   22.5004 C   0  0  0  0  0  0
  -18.0266  -28.1372   22.8495 C   0  0  0  0  0  0
  -24.1495  -36.7313   23.2638 C   0  0  0  0  0  0
  -25.9235  -30.8431   21.3562 C   0  0  0  0  0  0
  -26.0050  -29.4749   20.7124 C   0  0  0  0  0  0
  -27.2060  -28.7344   20.6994 C   0  0  0  0  0  0
  -26.0741  -26.9407   19.5088 C   0  0  0  0  0  0
  -24.8760  -27.6839   19.5143 C   0  0  0  0  0  0
  -23.6076  -29.8176   20.1662 C   0  0  0  0  0  0
  -25.4115  -36.3103   24.0336 C   0  0  1  0  0  0
  -20.5857  -28.3648   23.1332 C   0  0  2  0  0  0
  -20.6761  -26.9391   22.5419 C   0  0  0  0  0  0
  -19.5738  -26.6387   21.5214 C   0  0  0  0  0  0
  -18.1917  -26.7924   22.1626 C   0  0  0  0  0  0
  -19.1516  -28.8827   23.2914 C   0  0  0  0  0  0
  -18.9449  -30.1437   23.8914 C   0  0  0  0  0  0
  -17.6449  -30.6579   24.0565 C   0  0  0  0  0  0
  -25.9032  -34.9471   23.5117 C   0  0  0  0  0  0
  -16.5339  -29.9081   23.6330 C   0  0  0  0  0  0
  -16.7260  -28.6500   23.0346 C   0  0  0  0  0  0
  -26.4483  -31.6589   25.0695 C   0  0  0  0  0  0
  -25.3768  -31.3666   26.1453 C   0  0  0  0  0  0
  -27.0326  -30.3042   24.6030 C   0  0  0  0  0  0
  -27.6054  -32.4319   25.7447 C   0  0  0  0  0  0
  -27.5589  -37.1805   24.8465 C   0  0  0  0  0  0
  -21.4123  -29.3028   22.3745 N   0  0  0  0  0  0
  -26.4302  -37.3789   23.9411 N   0  0  0  0  0  0
  -24.6638  -31.0813   22.0978 N   0  0  0  0  0  0
  -23.4177  -28.8216   23.3050 O   0  0  0  0  0  0
  -28.3955  -26.6985   20.0428 O   0  0  0  0  0  0
  -26.5590  -34.8920   22.4674 O   0  0  0  0  0  0
  -23.5333  -32.1421   23.7526 O   0  0  0  0  0  0
  -28.5778  -18.2119   22.2584 C   0  0  0  0  0  0
  -28.7409  -16.8219   22.4974 C   0  0  0  0  0  0
  -29.5319  -18.5543   21.3330 C   0  0  0  0  0  0
  -29.7803  -16.4251   21.7032 C   0  0  0  0  0  0
  -29.6288  -22.2206   20.5054 C   0  0  0  0  0  0
  -28.9282  -20.8761   20.8717 C   0  0  0  0  0  0
  -29.6664  -27.0382   22.0889 C   0  0  0  0  0  0
  -28.7972  -23.5122   20.6748 C   0  0  0  0  0  0
  -29.6428  -24.7926   20.8948 C   0  0  0  0  0  0
  -28.8229  -26.0601   21.2521 C   0  0  2  0  0  0
  -29.7692  -19.8156   20.8697 N   0  0  0  0  0  0
  -30.1899  -15.1310   21.6936 N   0  0  0  0  0  0
  -30.7987  -22.2598   20.1039 O   0  0  0  0  0  0
  -27.7163  -20.8215   21.1143 O   0  0  0  0  0  0
  -30.3010  -17.4670   20.9759 O   0  0  0  0  0  0
  -31.4780  -12.4578   19.0864 H   0  0  0  0  0  0
  -30.3751  -11.2878   19.7530 H   0  0  0  0  0  0
  -29.7305  -11.8193   17.4016 H   0  0  0  0  0  0
  -29.6518  -13.5220   17.7723 H   0  0  0  0  0  0
  -27.8249  -11.3194   18.7893 H   0  0  0  0  0  0
  -27.3631  -12.6691   17.7874 H   0  0  0  0  0  0
  -27.7347  -14.2520   19.6241 H   0  0  0  0  0  0
  -28.6816  -11.8561   21.2636 H   0  0  0  0  0  0
  -28.4351  -13.4416   21.9028 H   0  0  0  0  0  0
  -25.2757   -9.5690   22.4751 H   0  0  0  0  0  0
  -24.0001   -7.4639   22.7473 H   0  0  0  0  0  0
  -21.0828   -8.8771   19.8951 H   0  0  0  0  0  0
  -22.3684  -10.9674   19.6159 H   0  0  0  0  0  0
  -21.2002   -7.6151   23.9711 H   0  0  0  0  0  0
  -21.1482   -6.0525   25.9076 H   0  0  0  0  0  0
  -22.0600   -2.7606   23.2848 H   0  0  0  0  0  0
  -22.4138  -11.9888   22.4769 H   0  0  0  0  0  0
  -21.1165  -13.1271   22.2606 H   0  0  0  0  0  0
  -24.6809  -15.8467   20.5276 H   0  0  0  0  0  0
  -26.3051  -15.6232   20.1187 H   0  0  0  0  0  0
  -26.7105  -32.5547   23.1166 H   0  0  0  0  0  0
  -25.0092  -33.9782   25.0488 H   0  0  0  0  0  0
  -22.6869  -31.3056   21.4091 H   0  0  0  0  0  0
  -23.3746  -35.9658   23.3324 H   0  0  0  0  0  0
  -24.3585  -36.8901   22.2045 H   0  0  0  0  0  0
  -23.7263  -37.6536   23.6635 H   0  0  0  0  0  0
  -26.0237  -31.6067   20.5841 H   0  0  0  0  0  0
  -26.8160  -30.9046   21.9665 H   0  0  0  0  0  0
  -28.1015  -29.1620   21.1250 H   0  0  0  0  0  0
  -26.0945  -25.9687   19.0356 H   0  0  0  0  0  0
  -23.9888  -27.2751   19.0503 H   0  0  0  0  0  0
  -23.7114  -30.5882   19.4012 H   0  0  0  0  0  0
  -22.7333  -29.2325   19.8764 H   0  0  0  0  0  0
  -25.1296  -36.1968   25.0832 H   0  0  0  0  0  0
  -20.9949  -28.3211   24.1452 H   0  0  0  0  0  0
  -20.5668  -26.2255   23.3601 H   0  0  0  0  0  0
  -21.6636  -26.7446   22.1209 H   0  0  0  0  0  0
  -19.6901  -25.6303   21.1230 H   0  0  0  0  0  0
  -19.6685  -27.3213   20.6760 H   0  0  0  0  0  0
  -17.4193  -26.6678   21.4024 H   0  0  0  0  0  0
  -18.0317  -26.0059   22.9014 H   0  0  0  0  0  0
  -19.7921  -30.7249   24.2301 H   0  0  0  0  0  0
  -17.5001  -31.6265   24.5156 H   0  0  0  0  0  0
  -15.5338  -30.2982   23.7638 H   0  0  0  0  0  0
  -15.8666  -28.0819   22.7048 H   0  0  0  0  0  0
  -24.5962  -30.6984   25.7806 H   0  0  0  0  0  0
  -24.8939  -32.2807   26.4914 H   0  0  0  0  0  0
  -25.8146  -30.8838   27.0200 H   0  0  0  0  0  0
  -26.2868  -29.6783   24.1109 H   0  0  0  0  0  0
  -27.4145  -29.7277   25.4466 H   0  0  0  0  0  0
  -27.8664  -30.4391   23.9134 H   0  0  0  0  0  0
  -28.0779  -31.8423   26.5312 H   0  0  0  0  0  0
  -27.2652  -33.3596   26.2074 H   0  0  0  0  0  0
  -28.3813  -32.6954   25.0244 H   0  0  0  0  0  0
  -28.2622  -38.0087   24.7491 H   0  0  0  0  0  0
  -28.1061  -36.2619   24.6312 H   0  0  0  0  0  0
  -27.2297  -37.1488   25.8862 H   0  0  0  0  0  0
  -20.9271  -29.8741   21.6966 H   0  0  0  0  0  0
  -26.0191  -38.2867   24.1416 H   0  0  0  0  0  0
  -27.8564  -18.8690   22.7237 H   0  0  0  0  0  0
  -28.1616  -16.2001   23.1660 H   0  0  0  0  0  0
  -29.0554  -27.8168   22.5413 H   0  0  0  0  0  0
  -30.4380  -27.5161   21.4849 H   0  0  0  0  0  0
  -30.1604  -26.5263   22.9150 H   0  0  0  0  0  0
  -28.1345  -23.3732   21.5302 H   0  0  0  0  0  0
  -28.1555  -23.6293   19.8020 H   0  0  0  0  0  0
  -30.2674  -24.9931   20.0221 H   0  0  0  0  0  0
  -30.3390  -24.5831   21.7078 H   0  0  0  0  0  0
  -27.9577  -25.7598   21.8484 H   0  0  0  0  0  0
  -30.6967  -20.0163   20.5189 H   0  0  0  0  0  0
  -29.6324  -14.5442   22.2933 H   0  0  0  0  0  0
  1 25  1  0  0  0
  1 30  2  0  0  0
  1 82  1  0  0  0
  2  3  1  0  0  0
  2 25  1  0  0  0
  2 86  1  0  0  0
  2 87  1  0  0  0
  3  4  1  0  0  0
  3 88  1  0  0  0
  3 89  1  0  0  0
  4  5  1  0  0  0
  4 90  1  0  0  0
  4 91  1  0  0  0
  5  6  1  0  0  0
  5 26  1  0  0  0
  5 92  1  0  0  0
  6 25  1  0  0  0
  6 93  1  0  0  0
  6 94  1  0  0  0
  7  8  2  0  0  0
  7 26  1  0  0  0
  7 29  1  0  0  0
  8  9  1  0  0  0
  8 22  1  0  0  0
  9 10  1  0  0  0
  9 27  2  0  0  0
 10 11  2  0  0  0
 10 15  1  0  0  0
 11 12  1  0  0  0
 11 95  1  0  0  0
 12 13  2  0  0  0
 12 96  1  0  0  0
 13 14  1  0  0  0
 13 31  1  0  0  0
 14 15  2  0  0  0
 14 97  1  0  0  0
 15 98  1  0  0  0
 16 17  2  0  0  0
 16 21  1  0  0  0
 16 31  1  0  0  0
 17 18  1  0  0  0
 17 99  1  0  0  0
 18 19  2  0  0  0
 18100  1  0  0  0
 19 20  1  0  0  0
 19 24  1  0  0  0
 20 21  2  0  0  0
 20101  1  0  0  0
 21 23  1  0  0  0
 22 28  1  0  0  0
 22 32  2  0  0  0
 26 27  1  0  0  0
 28102  1  0  0  0
 28103  1  0  0  0
 29104  1  0  0  0
 29105  1  0  0  0
 33 34  1  0  0  0
 33 66  1  0  0  0
 33 70  2  0  0  0
 34 36  1  0  0  0
 34 59  1  0  0  0
 34106  1  0  0  0
 35 44  2  0  0  0
 35 45  1  0  0  0
 35 68  1  0  0  0
 36 56  1  0  0  0
 36107  1  0  0  0
 37 39  1  0  0  0
 37 47  1  0  0  0
 37 66  1  0  0  0
 37108  1  0  0  0
 38 43  2  0  0  0
 38 46  1  0  0  0
 38 47  1  0  0  0
 39 64  1  0  0  0
 39 67  2  0  0  0
 40 52  1  0  0  0
 40 53  2  0  0  0
 40 58  1  0  0  0
 41109  1  0  0  0
 41110  1  0  0  0
 41111  1  0  0  0
 41 48  1  0  0  0
 42 43  1  0  0  0
 42 66  1  0  0  0
 42112  1  0  0  0
 42113  1  0  0  0
 43 44  1  0  0  0
 44114  1  0  0  0
 45 46  2  0  0  0
 45115  1  0  0  0
 46116  1  0  0  0
 47117  1  0  0  0
 47118  1  0  0  0
 48 56  1  0  0  0
 48 65  1  0  0  0
 48119  1  0  0  0
 49 50  1  0  0  0
 49 53  1  0  0  0
 49 64  1  0  0  0
 49120  1  0  0  0
 50 51  1  0  0  0
 50121  1  0  0  0
 50122  1  0  0  0
 51 52  1  0  0  0
 51123  1  0  0  0
 51124  1  0  0  0
 52125  1  0  0  0
 52126  1  0  0  0
 53 54  1  0  0  0
 54 55  2  0  0  0
 54127  1  0  0  0
 55 57  1  0  0  0
 55128  1  0  0  0
 56 69  2  0  0  0
 57 58  2  0  0  0
 57129  1  0  0  0
 58130  1  0  0  0
 59 60  1  0  0  0
 59 61  1  0  0  0
 59 62  1  0  0  0
 60131  1  0  0  0
 60132  1  0  0  0
 60133  1  0  0  0
 61134  1  0  0  0
 61135  1  0  0  0
 61136  1  0  0  0
 62137  1  0  0  0
 62138  1  0  0  0
 62139  1  0  0  0
 63 65  1  0  0  0
 63140  1  0  0  0
 63141  1  0  0  0
 63142  1  0  0  0
 64143  1  0  0  0
 65144  1  0  0  0
 68 80  1  0  0  0
 71 72  1  0  0  0
 71 73  2  0  0  0
 71145  1  0  0  0
 72 74  2  0  0  0
 72146  1  0  0  0
 73 81  1  0  0  0
 73 85  1  0  0  0
 74 82  1  0  0  0
 74 85  1  0  0  0
 75 76  1  0  0  0
 75 78  1  0  0  0
 75 83  2  0  0  0
 76 81  1  0  0  0
 76 84  2  0  0  0
 77147  1  0  0  0
 77148  1  0  0  0
 77149  1  0  0  0
 77 80  1  0  0  0
 78 79  1  0  0  0
 78150  1  0  0  0
 78151  1  0  0  0
 79 80  1  0  0  0
 79152  1  0  0  0
 79153  1  0  0  0
 80154  1  0  0  0
 81155  1  0  0  0
 82156  1  0  0  0
M  ISO  4   1 100  68 101  80 101  82 100
M  END
> <chiral flag>
0

> <version>
0

> <s_m_source_file>
/data/baiqing/PycharmProjects/Reinvent-master-3.2/result/LINK_invent/BTK/process_docking_weight1_custom_product_contain_oxygen_bond_distance_aromatic_linkinvent_7_9_3/rearranged_h_0172.sdf

> <i_m_source_file_index>
65

> <r_mmod_Potential_Energy-OPLS-2005>
-98.5395584106445

> <r_mmod_Stretch_Energy-OPLS-2005>
36.5751724243164

> <r_mmod_Bend_Energy-OPLS-2005>
114.906608581543

> <r_mmod_Torsional_Energy-OPLS-2005>
255.397216796875

> <r_mmod_Improper_Torsional_Energy-OPLS-2005>
5.38198328018188

> <r_mmod_Van_der_Waal_Energy-OPLS-2005>
132.26091003418

> <r_mmod_Electrostatic_Energy-OPLS-2005>
-420.150268554688

> <r_mmod_Solvation_Energy-OPLS-2005>
-232.142471313477

> <b_mmod_Minimization_Converged-OPLS-2005>
0

> <r_mmod_RMS_Derivative-OPLS-2005>
1.76209557056427

$$$$
65
                    3D
 Structure written by MMmdl.
165173  0  0  1  0            999 V2000
  -30.7434  -14.3983   20.6881 C   0  0  0  0  0  0
  -30.4272  -12.3048   19.4050 C   0  0  0  0  0  0
  -29.4928  -12.5259   18.1983 C   0  0  0  0  0  0
  -28.0137  -12.3873   18.6093 C   0  0  0  0  0  0
  -27.6688  -13.2030   19.8830 C   0  0  2  0  0  0
  -28.7058  -12.9414   20.9972 C   0  0  0  0  0  0
  -25.2600  -13.8141   20.5661 C   0  0  0  0  0  0
  -24.1838  -13.0425   20.9144 C   0  0  0  0  0  0
  -24.6385  -11.6891   20.8705 C   0  0  0  0  0  0
  -23.9045  -10.4281   21.0376 C   0  0  0  0  0  0
  -24.3606   -9.4207   21.9155 C   0  0  0  0  0  0
  -23.6287   -8.2238   22.0744 C   0  0  0  0  0  0
  -22.4266   -8.0274   21.3546 C   0  0  0  0  0  0
  -21.9897   -9.0231   20.4632 C   0  0  0  0  0  0
  -22.7216  -10.2109   20.3023 C   0  0  0  0  0  0
  -21.6847   -6.0728   22.5276 C   0  0  0  0  0  0
  -21.4012   -6.5626   23.8211 C   0  0  0  0  0  0
  -21.3663   -5.6775   24.9173 C   0  0  0  0  0  0
  -21.6056   -4.3041   24.7219 C   0  0  0  0  0  0
  -21.8825   -3.8138   23.4333 C   0  0  0  0  0  0
  -21.9188   -4.6958   22.3394 C   0  0  0  0  0  0
  -22.7862  -13.5224   21.1826 C   0  0  0  0  0  0
  -22.1652   -4.2141   21.0968 F   0  0  0  0  0  0
  -21.5644   -3.4525   25.7731 F   0  0  0  0  0  0
  -30.0511  -13.2478   20.4696 N   0  0  0  0  0  0
  -26.3053  -12.9313   20.3381 N   0  0  0  0  0  0
  -25.9320  -11.6472   20.5748 N   0  0  0  0  0  0
  -22.0499  -12.8211   22.0387 N   0  0  0  0  0  0
  -25.4315  -15.1860   20.4085 N   0  0  0  0  0  0
  -31.7562  -14.7109   20.0508 O   0  0  0  0  0  0
  -21.6639   -6.8866   21.4234 O   0  0  0  0  0  0
  -22.3539  -14.5528   20.6673 O   0  0  0  0  0  0
  -24.6148  -31.8690   23.2122 C   0  0  0  0  0  0
  -25.9051  -32.4820   23.8406 C   0  0  1  0  0  0
  -27.2322  -27.4491   20.0801 C   0  0  0  0  0  0
  -25.5924  -33.8619   24.2342 N   0  0  0  0  0  0
  -23.4001  -30.4958   21.5533 C   0  0  2  0  0  0
  -24.8427  -28.9659   20.1152 C   0  0  0  0  0  0
  -22.7402  -29.4671   22.5004 C   0  0  0  0  0  0
  -18.0266  -28.1380   22.8485 C   0  0  0  0  0  0
  -24.1494  -36.7312   23.2641 C   0  0  0  0  0  0
  -25.9294  -30.8386   21.3628 C   0  0  0  0  0  0
  -26.0048  -29.4764   20.7056 C   0  0  0  0  0  0
  -27.2024  -28.7271   20.6813 C   0  0  0  0  0  0
  -26.0445  -26.9500   19.4913 C   0  0  0  0  0  0
  -24.8564  -27.7009   19.5066 C   0  0  0  0  0  0
  -23.6062  -29.8324   20.1664 C   0  0  0  0  0  0
  -25.4111  -36.3111   24.0349 C   0  0  1  0  0  0
  -20.5851  -28.3660   23.1326 C   0  0  2  0  0  0
  -20.6758  -26.9398   22.5434 C   0  0  0  0  0  0
  -19.5754  -26.6388   21.5213 C   0  0  0  0  0  0
  -18.1918  -26.7937   22.1599 C   0  0  0  0  0  0
  -19.1512  -28.8839   23.2903 C   0  0  0  0  0  0
  -18.9440  -30.1444   23.8918 C   0  0  0  0  0  0
  -17.6442  -30.6584   24.0569 C   0  0  0  0  0  0
  -25.9042  -34.9472   23.5135 C   0  0  0  0  0  0
  -16.5333  -29.9089   23.6325 C   0  0  0  0  0  0
  -16.7255  -28.6505   23.0347 C   0  0  0  0  0  0
  -26.4481  -31.6596   25.0724 C   0  0  0  0  0  0
  -25.3759  -31.3690   26.1481 C   0  0  0  0  0  0
  -27.0302  -30.3040   24.6091 C   0  0  0  0  0  0
  -27.6074  -32.4307   25.7463 C   0  0  0  0  0  0
  -27.5588  -37.1804   24.8456 C   0  0  0  0  0  0
  -21.4129  -29.3031   22.3736 N   0  0  0  0  0  0
  -26.4291  -37.3796   23.9413 N   0  0  0  0  0  0
  -24.6667  -31.0817   22.1012 N   0  0  0  0  0  0
  -23.4184  -28.8208   23.3034 O   0  0  0  0  0  0
  -28.4104  -26.7298   20.0824 O   0  0  0  0  0  0
  -26.5589  -34.8924   22.4686 O   0  0  0  0  0  0
  -23.5350  -32.1423   23.7548 O   0  0  0  0  0  0
  -30.8795  -16.6950   23.4696 C   0  0  0  0  0  0
  -30.7109  -17.5381   21.1943 C   0  0  0  0  0  0
  -31.1981  -17.9844   23.9569 C   0  0  0  0  0  0
  -31.2745  -19.0705   23.0371 C   0  0  0  0  0  0
  -30.6607  -16.4538   22.1001 C   0  0  0  0  0  0
  -30.9826  -18.8460   21.6639 C   0  0  0  0  0  0
  -31.4119  -18.1720   25.4192 C   0  0  0  0  0  0
  -29.5887  -24.5793   20.2311 C   0  0  0  0  0  0
  -29.8513  -20.6693   20.5059 C   0  0  0  0  0  0
  -31.6381  -20.4773   23.5259 C   0  0  0  0  0  0
  -29.3699  -22.0222   18.4307 C   0  0  0  0  0  0
  -29.4683  -23.1425   20.7535 C   0  0  0  0  0  0
  -28.2797  -25.3130   19.9130 C   0  0  0  0  0  0
  -30.0348  -22.0373   19.8235 C   0  0  1  0  0  0
  -31.5106  -17.2469   26.2783 N   0  0  0  0  0  0
  -30.9501  -19.9385   20.7562 N   0  0  0  0  0  0
  -30.2808  -15.1403   21.7077 N   0  0  0  0  0  0
  -30.6927  -25.1101   20.0725 O   0  0  0  0  0  0
  -28.7152  -20.2802   20.7912 O   0  0  0  0  0  0
  -31.4703  -12.4158   19.1036 H   0  0  0  0  0  0
  -30.3372  -11.2815   19.7714 H   0  0  0  0  0  0
  -29.7292  -11.8108   17.4087 H   0  0  0  0  0  0
  -29.6645  -13.5165   17.7755 H   0  0  0  0  0  0
  -27.8152  -11.3289   18.7796 H   0  0  0  0  0  0
  -27.3627  -12.6870   17.7863 H   0  0  0  0  0  0
  -27.7267  -14.2590   19.6184 H   0  0  0  0  0  0
  -28.6710  -11.8943   21.3027 H   0  0  0  0  0  0
  -28.4427  -13.5059   21.8917 H   0  0  0  0  0  0
  -25.2756   -9.5692   22.4712 H   0  0  0  0  0  0
  -24.0005   -7.4630   22.7460 H   0  0  0  0  0  0
  -21.0836   -8.8725   19.8928 H   0  0  0  0  0  0
  -22.3670  -10.9635   19.6123 H   0  0  0  0  0  0
  -21.2004   -7.6134   23.9718 H   0  0  0  0  0  0
  -21.1484   -6.0498   25.9074 H   0  0  0  0  0  0
  -22.0608   -2.7601   23.2820 H   0  0  0  0  0  0
  -22.4117  -11.9882   22.4781 H   0  0  0  0  0  0
  -21.1108  -13.1216   22.2580 H   0  0  0  0  0  0
  -24.6686  -15.8442   20.5278 H   0  0  0  0  0  0
  -26.2944  -15.6274   20.1153 H   0  0  0  0  0  0
  -26.7126  -32.5530   23.1174 H   0  0  0  0  0  0
  -25.0122  -33.9792   25.0523 H   0  0  0  0  0  0
  -22.6875  -31.3122   21.4191 H   0  0  0  0  0  0
  -23.3757  -35.9644   23.3296 H   0  0  0  0  0  0
  -24.3591  -36.8925   22.2055 H   0  0  0  0  0  0
  -23.7239  -37.6516   23.6650 H   0  0  0  0  0  0
  -26.0445  -31.6080   20.5984 H   0  0  0  0  0  0
  -26.8173  -30.8858   21.9811 H   0  0  0  0  0  0
  -28.1020  -29.1233   21.1310 H   0  0  0  0  0  0
  -26.0086  -25.9861   19.0057 H   0  0  0  0  0  0
  -23.9625  -27.3013   19.0462 H   0  0  0  0  0  0
  -23.7158  -30.6100   19.4099 H   0  0  0  0  0  0
  -22.7292  -29.2553   19.8685 H   0  0  0  0  0  0
  -25.1286  -36.1975   25.0843 H   0  0  0  0  0  0
  -20.9941  -28.3232   24.1445 H   0  0  0  0  0  0
  -20.5629  -26.2276   23.3620 H   0  0  0  0  0  0
  -21.6635  -26.7438   22.1241 H   0  0  0  0  0  0
  -19.6909  -25.6299   21.1235 H   0  0  0  0  0  0
  -19.6715  -27.3202   20.6746 H   0  0  0  0  0  0
  -17.4209  -26.6718   21.3975 H   0  0  0  0  0  0
  -18.0283  -26.0061   22.8966 H   0  0  0  0  0  0
  -19.7918  -30.7250   24.2304 H   0  0  0  0  0  0
  -17.4998  -31.6262   24.5173 H   0  0  0  0  0  0
  -15.5335  -30.2998   23.7644 H   0  0  0  0  0  0
  -15.8650  -28.0832   22.7055 H   0  0  0  0  0  0
  -24.6025  -30.6903   25.7858 H   0  0  0  0  0  0
  -24.8836  -32.2824   26.4834 H   0  0  0  0  0  0
  -25.8155  -30.8990   27.0290 H   0  0  0  0  0  0
  -26.2828  -29.6787   24.1196 H   0  0  0  0  0  0
  -27.4122  -29.7289   25.4534 H   0  0  0  0  0  0
  -27.8644  -30.4348   23.9195 H   0  0  0  0  0  0
  -27.2717  -33.3612   26.2055 H   0  0  0  0  0  0
  -28.3868  -32.6853   25.0264 H   0  0  0  0  0  0
  -28.0764  -31.8417   26.5358 H   0  0  0  0  0  0
  -28.2612  -38.0097   24.7514 H   0  0  0  0  0  0
  -28.1083  -36.2637   24.6261 H   0  0  0  0  0  0
  -27.2325  -37.1430   25.8864 H   0  0  0  0  0  0
  -20.9283  -29.8757   21.6964 H   0  0  0  0  0  0
  -26.0186  -38.2874   24.1423 H   0  0  0  0  0  0
  -30.7943  -15.8678   24.1596 H   0  0  0  0  0  0
  -30.5015  -17.3789   20.1460 H   0  0  0  0  0  0
  -31.4794  -19.2031   25.7739 H   0  0  0  0  0  0
  -32.5357  -20.4535   24.1434 H   0  0  0  0  0  0
  -30.8254  -20.8961   24.1191 H   0  0  0  0  0  0
  -31.8523  -21.1842   22.7265 H   0  0  0  0  0  0
  -29.7568  -21.2038   17.8221 H   0  0  0  0  0  0
  -29.5643  -22.9435   17.8815 H   0  0  0  0  0  0
  -28.2885  -21.8967   18.5015 H   0  0  0  0  0  0
  -28.4194  -22.9419   20.9708 H   0  0  0  0  0  0
  -29.9841  -23.1038   21.7136 H   0  0  0  0  0  0
  -27.4984  -24.9345   20.5741 H   0  0  0  0  0  0
  -27.9977  -25.0816   18.8852 H   0  0  0  0  0  0
  -31.1023  -22.2171   19.6871 H   0  0  0  0  0  0
  -31.4364  -16.3290   25.8552 H   0  0  0  0  0  0
  -31.8381  -20.3369   20.4808 H   0  0  0  0  0  0
  -29.5804  -14.6879   22.2762 H   0  0  0  0  0  0
  1 25  1  0  0  0
  1 30  2  0  0  0
  1 87  1  0  0  0
  2  3  1  0  0  0
  2 25  1  0  0  0
  2 90  1  0  0  0
  2 91  1  0  0  0
  3  4  1  0  0  0
  3 92  1  0  0  0
  3 93  1  0  0  0
  4  5  1  0  0  0
  4 94  1  0  0  0
  4 95  1  0  0  0
  5  6  1  0  0  0
  5 26  1  0  0  0
  5 96  1  0  0  0
  6 25  1  0  0  0
  6 97  1  0  0  0
  6 98  1  0  0  0
  7  8  2  0  0  0
  7 26  1  0  0  0
  7 29  1  0  0  0
  8  9  1  0  0  0
  8 22  1  0  0  0
  9 10  1  0  0  0
  9 27  2  0  0  0
 10 11  2  0  0  0
 10 15  1  0  0  0
 11 12  1  0  0  0
 11 99  1  0  0  0
 12 13  2  0  0  0
 12100  1  0  0  0
 13 14  1  0  0  0
 13 31  1  0  0  0
 14 15  2  0  0  0
 14101  1  0  0  0
 15102  1  0  0  0
 16 17  2  0  0  0
 16 21  1  0  0  0
 16 31  1  0  0  0
 17 18  1  0  0  0
 17103  1  0  0  0
 18 19  2  0  0  0
 18104  1  0  0  0
 19 20  1  0  0  0
 19 24  1  0  0  0
 20 21  2  0  0  0
 20105  1  0  0  0
 21 23  1  0  0  0
 22 28  1  0  0  0
 22 32  2  0  0  0
 26 27  1  0  0  0
 28106  1  0  0  0
 28107  1  0  0  0
 29108  1  0  0  0
 29109  1  0  0  0
 33 34  1  0  0  0
 33 66  1  0  0  0
 33 70  2  0  0  0
 34 36  1  0  0  0
 34 59  1  0  0  0
 34110  1  0  0  0
 35 44  2  0  0  0
 35 45  1  0  0  0
 35 68  1  0  0  0
 36 56  1  0  0  0
 36111  1  0  0  0
 37 39  1  0  0  0
 37 47  1  0  0  0
 37 66  1  0  0  0
 37112  1  0  0  0
 38 43  2  0  0  0
 38 46  1  0  0  0
 38 47  1  0  0  0
 39 64  1  0  0  0
 39 67  2  0  0  0
 40 52  1  0  0  0
 40 53  2  0  0  0
 40 58  1  0  0  0
 41113  1  0  0  0
 41114  1  0  0  0
 41115  1  0  0  0
 41 48  1  0  0  0
 42 43  1  0  0  0
 42 66  1  0  0  0
 42116  1  0  0  0
 42117  1  0  0  0
 43 44  1  0  0  0
 44118  1  0  0  0
 45 46  2  0  0  0
 45119  1  0  0  0
 46120  1  0  0  0
 47121  1  0  0  0
 47122  1  0  0  0
 48 56  1  0  0  0
 48 65  1  0  0  0
 48123  1  0  0  0
 49 50  1  0  0  0
 49 53  1  0  0  0
 49 64  1  0  0  0
 49124  1  0  0  0
 50 51  1  0  0  0
 50125  1  0  0  0
 50126  1  0  0  0
 51 52  1  0  0  0
 51127  1  0  0  0
 51128  1  0  0  0
 52129  1  0  0  0
 52130  1  0  0  0
 53 54  1  0  0  0
 54 55  2  0  0  0
 54131  1  0  0  0
 55 57  1  0  0  0
 55132  1  0  0  0
 56 69  2  0  0  0
 57 58  2  0  0  0
 57133  1  0  0  0
 58134  1  0  0  0
 59 60  1  0  0  0
 59 61  1  0  0  0
 59 62  1  0  0  0
 60135  1  0  0  0
 60136  1  0  0  0
 60137  1  0  0  0
 61138  1  0  0  0
 61139  1  0  0  0
 61140  1  0  0  0
 62141  1  0  0  0
 62142  1  0  0  0
 62143  1  0  0  0
 63 65  1  0  0  0
 63144  1  0  0  0
 63145  1  0  0  0
 63146  1  0  0  0
 64147  1  0  0  0
 65148  1  0  0  0
 68 83  1  0  0  0
 71 73  2  0  0  0
 71 75  1  0  0  0
 71149  1  0  0  0
 72 75  2  0  0  0
 72 76  1  0  0  0
 72150  1  0  0  0
 73 74  1  0  0  0
 73 77  1  0  0  0
 74 76  2  0  0  0
 74 80  1  0  0  0
 75 87  1  0  0  0
 76 86  1  0  0  0
 77 85  2  0  0  0
 77151  1  0  0  0
 78 82  1  0  0  0
 78 83  1  0  0  0
 78 88  2  0  0  0
 79 84  1  0  0  0
 79 86  1  0  0  0
 79 89  2  0  0  0
 80152  1  0  0  0
 80153  1  0  0  0
 80154  1  0  0  0
 81155  1  0  0  0
 81156  1  0  0  0
 81157  1  0  0  0
 81 84  1  0  0  0
 82 84  1  0  0  0
 82158  1  0  0  0
 82159  1  0  0  0
 83160  1  0  0  0
 83161  1  0  0  0
 84162  1  0  0  0
 85163  1  0  0  0
 86164  1  0  0  0
 87165  1  0  0  0
M  ISO  4   1 100  68 101  83 101  87 100
M  END
> <chiral flag>
0

> <version>
0

> <s_m_source_file>
/data/baiqing/PycharmProjects/Reinvent-master-3.2/result/LINK_invent/BTK/process_docking_weight1_custom_product_contain_oxygen_bond_distance_aromatic_linkinvent_7_9_3/rearranged_h_0172.sdf

> <i_m_source_file_index>
66

> <r_mmod_Potential_Energy-OPLS-2005>
-112.792167663574

> <r_mmod_Stretch_Energy-OPLS-2005>
38.576301574707

> <r_mmod_Bend_Energy-OPLS-2005>
93.9277648925781

> <r_mmod_Torsional_Energy-OPLS-2005>
264.191223144531

> <r_mmod_Improper_Torsional_Energy-OPLS-2005>
3.09986066818237

> <r_mmod_Van_der_Waal_Energy-OPLS-2005>
165.932556152344

> <r_mmod_Electrostatic_Energy-OPLS-2005>
-423.050750732422

> <r_mmod_Solvation_Energy-OPLS-2005>
-264.04296875

> <b_mmod_Minimization_Converged-OPLS-2005>
0

> <r_mmod_RMS_Derivative-OPLS-2005>
1.88997161388397

$$$$
66
                    3D
 Structure written by MMmdl.
158166  0  0  1  0            999 V2000
  -30.6451  -14.5916   20.4795 C   0  0  0  0  0  0
  -30.4275  -12.3538   19.4536 C   0  0  0  0  0  0
  -29.5037  -12.4886   18.2236 C   0  0  0  0  0  0
  -28.0242  -12.3468   18.6320 C   0  0  0  0  0  0
  -27.6534  -13.2161   19.8633 C   0  0  2  0  0  0
  -28.6960  -13.0657   20.9942 C   0  0  0  0  0  0
  -25.2561  -13.8177   20.5679 C   0  0  0  0  0  0
  -24.1826  -13.0440   20.9181 C   0  0  0  0  0  0
  -24.6394  -11.6910   20.8734 C   0  0  0  0  0  0
  -23.9068  -10.4292   21.0402 C   0  0  0  0  0  0
  -24.3621   -9.4210   21.9180 C   0  0  0  0  0  0
  -23.6297   -8.2247   22.0755 C   0  0  0  0  0  0
  -22.4278   -8.0283   21.3547 C   0  0  0  0  0  0
  -21.9912   -9.0255   20.4648 C   0  0  0  0  0  0
  -22.7239  -10.2133   20.3055 C   0  0  0  0  0  0
  -21.6857   -6.0736   22.5277 C   0  0  0  0  0  0
  -21.4015   -6.5638   23.8210 C   0  0  0  0  0  0
  -21.3662   -5.6791   24.9173 C   0  0  0  0  0  0
  -21.6047   -4.3054   24.7221 C   0  0  0  0  0  0
  -21.8820   -3.8147   23.4342 C   0  0  0  0  0  0
  -21.9193   -4.6964   22.3399 C   0  0  0  0  0  0
  -22.7849  -13.5232   21.1845 C   0  0  0  0  0  0
  -22.1660   -4.2152   21.0976 F   0  0  0  0  0  0
  -21.5632   -3.4536   25.7733 F   0  0  0  0  0  0
  -30.0171  -13.3786   20.4312 N   0  0  0  0  0  0
  -26.2989  -12.9358   20.3318 N   0  0  0  0  0  0
  -25.9324  -11.6512   20.5759 N   0  0  0  0  0  0
  -22.0499  -12.8225   22.0406 N   0  0  0  0  0  0
  -25.4275  -15.1901   20.4096 N   0  0  0  0  0  0
  -31.8234  -14.7174   20.1347 O   0  0  0  0  0  0
  -21.6645   -6.8880   21.4239 O   0  0  0  0  0  0
  -22.3529  -14.5537   20.6693 O   0  0  0  0  0  0
  -24.6196  -31.8631   23.2052 C   0  0  0  0  0  0
  -25.9067  -32.4796   23.8363 C   0  0  1  0  0  0
  -27.2309  -27.3671   20.1204 C   0  0  0  0  0  0
  -25.5903  -33.8596   24.2292 N   0  0  0  0  0  0
  -23.4110  -30.4846   21.5465 C   0  0  2  0  0  0
  -24.8586  -28.9382   20.1163 C   0  0  0  0  0  0
  -22.7436  -29.4633   22.4966 C   0  0  0  0  0  0
  -18.0275  -28.1380   22.8487 C   0  0  0  0  0  0
  -24.1489  -36.7304   23.2639 C   0  0  0  0  0  0
  -25.9450  -30.8075   21.3691 C   0  0  0  0  0  0
  -26.0202  -29.4348   20.7205 C   0  0  0  0  0  0
  -27.2078  -28.6571   20.7180 C   0  0  0  0  0  0
  -26.0534  -26.9061   19.4926 C   0  0  0  0  0  0
  -24.8729  -27.6759   19.4976 C   0  0  0  0  0  0
  -23.6239  -29.8137   20.1627 C   0  0  0  0  0  0
  -25.4113  -36.3096   24.0330 C   0  0  1  0  0  0
  -20.5870  -28.3673   23.1305 C   0  0  2  0  0  0
  -20.6768  -26.9404   22.5418 C   0  0  0  0  0  0
  -19.5747  -26.6383   21.5215 C   0  0  0  0  0  0
  -18.1923  -26.7924   22.1622 C   0  0  0  0  0  0
  -19.1526  -28.8843   23.2891 C   0  0  0  0  0  0
  -18.9453  -30.1449   23.8901 C   0  0  0  0  0  0
  -17.6454  -30.6585   24.0565 C   0  0  0  0  0  0
  -25.9043  -34.9462   23.5112 C   0  0  0  0  0  0
  -16.5345  -29.9086   23.6329 C   0  0  0  0  0  0
  -16.7264  -28.6505   23.0345 C   0  0  0  0  0  0
  -26.4475  -31.6593   25.0713 C   0  0  0  0  0  0
  -25.3724  -31.3715   26.1450 C   0  0  0  0  0  0
  -27.0316  -30.3027   24.6132 C   0  0  0  0  0  0
  -27.6041  -32.4323   25.7480 C   0  0  0  0  0  0
  -27.5580  -37.1807   24.8464 C   0  0  0  0  0  0
  -21.4158  -29.3031   22.3705 N   0  0  0  0  0  0
  -26.4295  -37.3785   23.9404 N   0  0  0  0  0  0
  -24.6768  -31.0680   22.0980 N   0  0  0  0  0  0
  -23.4183  -28.8183   23.3035 O   0  0  0  0  0  0
  -28.3913  -26.6007   20.1155 O   0  0  0  0  0  0
  -26.5614  -34.8922   22.4679 O   0  0  0  0  0  0
  -23.5374  -32.1412   23.7412 O   0  0  0  0  0  0
  -30.3885  -17.4183   19.0377 C   0  0  0  0  0  0
  -29.9181  -17.0367   20.2833 C   0  0  0  0  0  0
  -29.4022  -19.3147   20.3316 C   0  0  0  0  0  0
  -28.3609  -25.2162   20.3248 C   0  0  0  0  0  0
  -29.5106  -24.4976   20.4290 C   0  0  0  0  0  0
  -29.6713  -23.0020   20.6614 C   0  0  0  0  0  0
  -30.9607  -16.6012   17.9218 C   0  0  0  0  0  0
  -29.1266  -22.3146   17.7717 C   0  0  0  0  0  0
  -28.0798  -21.9784   18.8526 C   0  0  0  0  0  0
  -28.5673  -21.9296   20.3269 C   0  0  1  0  0  0
  -29.3460  -18.1326   20.9893 N   0  0  0  0  0  0
  -29.8560  -15.6672   20.7698 N   0  0  0  0  0  0
  -28.8585  -20.5359   20.7973 N   0  0  0  0  0  0
  -30.7409  -22.5859   21.1216 O   0  0  0  0  0  0
  -30.6643  -25.1767   20.3246 O   0  0  0  0  0  0
  -30.1972  -19.1433   18.7759 S   0  0  0  0  0  0
  -31.4723  -12.4564   19.1554 H   0  0  0  0  0  0
  -30.3392  -11.3589   19.8931 H   0  0  0  0  0  0
  -29.7572  -11.7338   17.4782 H   0  0  0  0  0  0
  -29.6611  -13.4539   17.7426 H   0  0  0  0  0  0
  -27.8474  -11.2944   18.8568 H   0  0  0  0  0  0
  -27.3750  -12.5896   17.7899 H   0  0  0  0  0  0
  -27.6741  -14.2525   19.5257 H   0  0  0  0  0  0
  -28.6905  -12.0486   21.3892 H   0  0  0  0  0  0
  -28.4523  -13.7137   21.8375 H   0  0  0  0  0  0
  -25.2768   -9.5689   22.4750 H   0  0  0  0  0  0
  -24.0012   -7.4639   22.7475 H   0  0  0  0  0  0
  -21.0845   -8.8769   19.8951 H   0  0  0  0  0  0
  -22.3698  -10.9671   19.6165 H   0  0  0  0  0  0
  -21.2003   -7.6145   23.9714 H   0  0  0  0  0  0
  -21.1485   -6.0519   25.9077 H   0  0  0  0  0  0
  -22.0597   -2.7609   23.2838 H   0  0  0  0  0  0
  -22.4115  -11.9883   22.4791 H   0  0  0  0  0  0
  -21.1122  -13.1254   22.2621 H   0  0  0  0  0  0
  -24.6603  -15.8447   20.5203 H   0  0  0  0  0  0
  -26.2775  -15.6322   20.0837 H   0  0  0  0  0  0
  -26.7134  -32.5485   23.1117 H   0  0  0  0  0  0
  -25.0045  -33.9751   25.0432 H   0  0  0  0  0  0
  -22.7024  -31.3029   21.4034 H   0  0  0  0  0  0
  -23.3749  -35.9640   23.3310 H   0  0  0  0  0  0
  -24.3578  -36.8916   22.2052 H   0  0  0  0  0  0
  -23.7249  -37.6511   23.6656 H   0  0  0  0  0  0
  -26.0658  -31.5691   20.5975 H   0  0  0  0  0  0
  -26.8297  -30.8620   21.9917 H   0  0  0  0  0  0
  -28.1052  -29.0364   21.1861 H   0  0  0  0  0  0
  -26.0418  -25.9473   18.9946 H   0  0  0  0  0  0
  -23.9825  -27.2915   19.0196 H   0  0  0  0  0  0
  -23.7387  -30.5874   19.4027 H   0  0  0  0  0  0
  -22.7461  -29.2375   19.8645 H   0  0  0  0  0  0
  -25.1297  -36.1951   25.0824 H   0  0  0  0  0  0
  -20.9957  -28.3242   24.1428 H   0  0  0  0  0  0
  -20.5673  -26.2278   23.3610 H   0  0  0  0  0  0
  -21.6638  -26.7445   22.1208 H   0  0  0  0  0  0
  -19.6910  -25.6295   21.1239 H   0  0  0  0  0  0
  -19.6690  -27.3200   20.6751 H   0  0  0  0  0  0
  -17.4197  -26.6673   21.4020 H   0  0  0  0  0  0
  -18.0320  -26.0063   22.9016 H   0  0  0  0  0  0
  -19.7930  -30.7264   24.2269 H   0  0  0  0  0  0
  -17.5011  -31.6265   24.5168 H   0  0  0  0  0  0
  -15.5347  -30.2991   23.7654 H   0  0  0  0  0  0
  -15.8662  -28.0832   22.7051 H   0  0  0  0  0  0
  -24.5892  -30.7071   25.7778 H   0  0  0  0  0  0
  -24.8919  -32.2877   26.4895 H   0  0  0  0  0  0
  -25.8058  -30.8877   27.0212 H   0  0  0  0  0  0
  -26.2876  -29.6780   24.1175 H   0  0  0  0  0  0
  -27.4055  -29.7276   25.4614 H   0  0  0  0  0  0
  -27.8723  -30.4331   23.9315 H   0  0  0  0  0  0
  -27.2651  -33.3612   26.2079 H   0  0  0  0  0  0
  -28.3838  -32.6903   25.0301 H   0  0  0  0  0  0
  -28.0724  -31.8435   26.5379 H   0  0  0  0  0  0
  -28.2604  -38.0098   24.7506 H   0  0  0  0  0  0
  -28.1070  -36.2630   24.6298 H   0  0  0  0  0  0
  -27.2294  -37.1466   25.8865 H   0  0  0  0  0  0
  -20.9329  -29.8741   21.6910 H   0  0  0  0  0  0
  -26.0179  -38.2861   24.1403 H   0  0  0  0  0  0
  -27.3681  -24.7952   20.4044 H   0  0  0  0  0  0
  -32.0076  -16.3614   18.1073 H   0  0  0  0  0  0
  -30.9139  -17.1411   16.9755 H   0  0  0  0  0  0
  -30.4098  -15.6720   17.7867 H   0  0  0  0  0  0
  -28.7269  -22.1174   16.7768 H   0  0  0  0  0  0
  -30.0411  -21.7356   17.8789 H   0  0  0  0  0  0
  -29.4067  -23.3679   17.7970 H   0  0  0  0  0  0
  -27.5967  -21.0339   18.5996 H   0  0  0  0  0  0
  -27.2849  -22.7219   18.7785 H   0  0  0  0  0  0
  -27.6995  -22.2117   20.9249 H   0  0  0  0  0  0
  -29.0057  -15.4325   21.2566 H   0  0  0  0  0  0
  -28.5695  -20.4340   21.7634 H   0  0  0  0  0  0
  -30.4298  -26.0860   20.1893 H   0  0  0  0  0  0
  1 25  1  0  0  0
  1 30  2  0  0  0
  1 82  1  0  0  0
  2  3  1  0  0  0
  2 25  1  0  0  0
  2 87  1  0  0  0
  2 88  1  0  0  0
  3  4  1  0  0  0
  3 89  1  0  0  0
  3 90  1  0  0  0
  4  5  1  0  0  0
  4 91  1  0  0  0
  4 92  1  0  0  0
  5  6  1  0  0  0
  5 26  1  0  0  0
  5 93  1  0  0  0
  6 25  1  0  0  0
  6 94  1  0  0  0
  6 95  1  0  0  0
  7  8  2  0  0  0
  7 26  1  0  0  0
  7 29  1  0  0  0
  8  9  1  0  0  0
  8 22  1  0  0  0
  9 10  1  0  0  0
  9 27  2  0  0  0
 10 11  2  0  0  0
 10 15  1  0  0  0
 11 12  1  0  0  0
 11 96  1  0  0  0
 12 13  2  0  0  0
 12 97  1  0  0  0
 13 14  1  0  0  0
 13 31  1  0  0  0
 14 15  2  0  0  0
 14 98  1  0  0  0
 15 99  1  0  0  0
 16 17  2  0  0  0
 16 21  1  0  0  0
 16 31  1  0  0  0
 17 18  1  0  0  0
 17100  1  0  0  0
 18 19  2  0  0  0
 18101  1  0  0  0
 19 20  1  0  0  0
 19 24  1  0  0  0
 20 21  2  0  0  0
 20102  1  0  0  0
 21 23  1  0  0  0
 22 28  1  0  0  0
 22 32  2  0  0  0
 26 27  1  0  0  0
 28103  1  0  0  0
 28104  1  0  0  0
 29105  1  0  0  0
 29106  1  0  0  0
 33 34  1  0  0  0
 33 66  1  0  0  0
 33 70  2  0  0  0
 34 36  1  0  0  0
 34 59  1  0  0  0
 34107  1  0  0  0
 35 44  2  0  0  0
 35 45  1  0  0  0
 35 68  1  0  0  0
 36 56  1  0  0  0
 36108  1  0  0  0
 37 39  1  0  0  0
 37 47  1  0  0  0
 37 66  1  0  0  0
 37109  1  0  0  0
 38 43  2  0  0  0
 38 46  1  0  0  0
 38 47  1  0  0  0
 39 64  1  0  0  0
 39 67  2  0  0  0
 40 52  1  0  0  0
 40 53  2  0  0  0
 40 58  1  0  0  0
 41110  1  0  0  0
 41111  1  0  0  0
 41112  1  0  0  0
 41 48  1  0  0  0
 42 43  1  0  0  0
 42 66  1  0  0  0
 42113  1  0  0  0
 42114  1  0  0  0
 43 44  1  0  0  0
 44115  1  0  0  0
 45 46  2  0  0  0
 45116  1  0  0  0
 46117  1  0  0  0
 47118  1  0  0  0
 47119  1  0  0  0
 48 56  1  0  0  0
 48 65  1  0  0  0
 48120  1  0  0  0
 49 50  1  0  0  0
 49 53  1  0  0  0
 49 64  1  0  0  0
 49121  1  0  0  0
 50 51  1  0  0  0
 50122  1  0  0  0
 50123  1  0  0  0
 51 52  1  0  0  0
 51124  1  0  0  0
 51125  1  0  0  0
 52126  1  0  0  0
 52127  1  0  0  0
 53 54  1  0  0  0
 54 55  2  0  0  0
 54128  1  0  0  0
 55 57  1  0  0  0
 55129  1  0  0  0
 56 69  2  0  0  0
 57 58  2  0  0  0
 57130  1  0  0  0
 58131  1  0  0  0
 59 60  1  0  0  0
 59 61  1  0  0  0
 59 62  1  0  0  0
 60132  1  0  0  0
 60133  1  0  0  0
 60134  1  0  0  0
 61135  1  0  0  0
 61136  1  0  0  0
 61137  1  0  0  0
 62138  1  0  0  0
 62139  1  0  0  0
 62140  1  0  0  0
 63 65  1  0  0  0
 63141  1  0  0  0
 63142  1  0  0  0
 63143  1  0  0  0
 64144  1  0  0  0
 65145  1  0  0  0
 68 74  1  0  0  0
 71 72  2  0  0  0
 71 77  1  0  0  0
 71 86  1  0  0  0
 72 81  1  0  0  0
 72 82  1  0  0  0
 73 81  2  0  0  0
 73 83  1  0  0  0
 73 86  1  0  0  0
 74 75  2  0  0  0
 74146  1  0  0  0
 75 76  1  0  0  0
 75 85  1  0  0  0
 76 80  1  0  0  0
 76 84  2  0  0  0
 77147  1  0  0  0
 77148  1  0  0  0
 77149  1  0  0  0
 78 79  1  0  0  0
 78150  1  0  0  0
 78151  1  0  0  0
 78152  1  0  0  0
 79153  1  0  0  0
 79154  1  0  0  0
 79 80  1  0  0  0
 80 83  1  0  0  0
 80155  1  0  0  0
 82156  1  0  0  0
 83157  1  0  0  0
 85158  1  0  0  0
M  ISO  4   1 100  68 101  74 101  82 100
M  END
> <chiral flag>
0

> <version>
0

> <s_m_source_file>
/data/baiqing/PycharmProjects/Reinvent-master-3.2/result/LINK_invent/BTK/process_docking_weight1_custom_product_contain_oxygen_bond_distance_aromatic_linkinvent_7_9_3/rearranged_h_0172.sdf

> <i_m_source_file_index>
67

> <r_mmod_Potential_Energy-OPLS-2005>
-37.9746322631836

> <r_mmod_Stretch_Energy-OPLS-2005>
60.3131141662598

> <r_mmod_Bend_Energy-OPLS-2005>
142.119430541992

> <r_mmod_Torsional_Energy-OPLS-2005>
216.562072753906

> <r_mmod_Improper_Torsional_Energy-OPLS-2005>
4.87622261047363

> <r_mmod_Van_der_Waal_Energy-OPLS-2005>
122.621452331543

> <r_mmod_Electrostatic_Energy-OPLS-2005>
-374.973052978516

> <r_mmod_Solvation_Energy-OPLS-2005>
-240.971252441406

> <b_mmod_Minimization_Converged-OPLS-2005>
0

> <r_mmod_RMS_Derivative-OPLS-2005>
0.522247612476349

$$$$
67
                    3D
 Structure written by MMmdl.
160168  0  0  1  0            999 V2000
  -30.7913  -14.4832   20.4858 C   0  0  0  0  0  0
  -30.3700  -12.2957   19.4320 C   0  0  0  0  0  0
  -29.4514  -12.4417   18.1958 C   0  0  0  0  0  0
  -27.9848  -12.3092   18.6404 C   0  0  0  0  0  0
  -27.6272  -13.2035   19.8568 C   0  0  2  0  0  0
  -28.7000  -13.1268   20.9789 C   0  0  0  0  0  0
  -25.2165  -13.7605   20.5444 C   0  0  0  0  0  0
  -24.1695  -13.0066   20.9206 C   0  0  0  0  0  0
  -24.6414  -11.6543   20.8846 C   0  0  0  0  0  0
  -23.9135  -10.4034   21.0410 C   0  0  0  0  0  0
  -24.3670   -9.4014   21.9232 C   0  0  0  0  0  0
  -23.6311   -8.2120   22.0799 C   0  0  0  0  0  0
  -22.4279   -8.0221   21.3531 C   0  0  0  0  0  0
  -21.9915   -9.0226   20.4625 C   0  0  0  0  0  0
  -22.7306  -10.2025   20.3050 C   0  0  0  0  0  0
  -21.6825   -6.0729   22.5298 C   0  0  0  0  0  0
  -21.3968   -6.5627   23.8226 C   0  0  0  0  0  0
  -21.3633   -5.6777   24.9160 C   0  0  0  0  0  0
  -21.6054   -4.3056   24.7222 C   0  0  0  0  0  0
  -21.8842   -3.8161   23.4340 C   0  0  0  0  0  0
  -21.9211   -4.6970   22.3395 C   0  0  0  0  0  0
  -22.7730  -13.4921   21.1845 C   0  0  0  0  0  0
  -22.1687   -4.2162   21.0984 F   0  0  0  0  0  0
  -21.5642   -3.4530   25.7741 F   0  0  0  0  0  0
  -30.0100  -13.3690   20.3765 N   0  0  0  0  0  0
  -26.2842  -12.9083   20.3367 N   0  0  0  0  0  0
  -25.9419  -11.6232   20.6111 N   0  0  0  0  0  0
  -22.0467  -12.8014   22.0375 N   0  0  0  0  0  0
  -25.3048  -15.1139   20.3255 N   0  0  0  0  0  0
  -31.9107  -14.5310   20.0021 O   0  0  0  0  0  0
  -21.6575   -6.8868   21.4253 O   0  0  0  0  0  0
  -22.3521  -14.5387   20.6779 O   0  0  0  0  0  0
  -24.6155  -31.8531   23.2065 C   0  0  0  0  0  0
  -25.9093  -32.4707   23.8366 C   0  0  1  0  0  0
  -26.9875  -27.1790   20.0938 C   0  0  0  0  0  0
  -25.6032  -33.8526   24.2325 N   0  0  0  0  0  0
  -23.4263  -30.4819   21.5838 C   0  0  2  0  0  0
  -24.8381  -29.0229   20.0575 C   0  0  0  0  0  0
  -22.7623  -29.4486   22.5152 C   0  0  0  0  0  0
  -18.0614  -28.0875   22.8596 C   0  0  0  0  0  0
  -24.1506  -36.7248   23.2631 C   0  0  0  0  0  0
  -25.9663  -30.7099   21.4541 C   0  0  0  0  0  0
  -26.0060  -29.3753   20.7418 C   0  0  0  0  0  0
  -27.0932  -28.4302   20.7978 C   0  0  0  0  0  0
  -25.9596  -27.0972   19.1670 C   0  0  0  0  0  0
  -24.8328  -27.9065   19.2341 C   0  0  0  0  0  0
  -23.6371  -29.8956   20.1715 C   0  0  0  0  0  0
  -25.4197  -36.3038   24.0275 C   0  0  1  0  0  0
  -20.6187  -28.3018   23.1102 C   0  0  2  0  0  0
  -20.7141  -26.9115   22.4779 C   0  0  0  0  0  0
  -19.6000  -26.6228   21.4822 C   0  0  0  0  0  0
  -18.2592  -26.7588   22.1360 C   0  0  0  0  0  0
  -19.1923  -28.8331   23.2868 C   0  0  0  0  0  0
  -19.0047  -30.0902   23.9083 C   0  0  0  0  0  0
  -17.7033  -30.6215   24.0363 C   0  0  0  0  0  0
  -25.9182  -34.9431   23.5132 C   0  0  0  0  0  0
  -16.5975  -29.8719   23.6235 C   0  0  0  0  0  0
  -16.7589  -28.5990   23.0586 C   0  0  0  0  0  0
  -26.4475  -31.6635   25.0785 C   0  0  0  0  0  0
  -25.3747  -31.4001   26.1528 C   0  0  0  0  0  0
  -27.0428  -30.2980   24.6739 C   0  0  0  0  0  0
  -27.6011  -32.4418   25.7610 C   0  0  0  0  0  0
  -27.5556  -37.1766   24.8431 C   0  0  0  0  0  0
  -21.4405  -29.2650   22.3573 N   0  0  0  0  0  0
  -26.4289  -37.3758   23.9371 N   0  0  0  0  0  0
  -24.6883  -31.0327   22.1279 N   0  0  0  0  0  0
  -23.4386  -28.8139   23.3223 O   0  0  0  0  0  0
  -27.7434  -26.0201   20.2582 O   0  0  0  0  0  0
  -26.5649  -34.8854   22.4633 O   0  0  0  0  0  0
  -23.5236  -32.1400   23.7262 O   0  0  0  0  0  0
  -29.6186  -17.8677   21.2097 C   0  0  0  0  0  0
  -28.3434  -18.5342   21.2286 C   0  0  0  0  0  0
  -29.4115  -16.5314   20.9266 C   0  0  0  0  0  0
  -27.4849  -17.5493   20.8210 C   0  0  0  0  0  0
  -26.8014  -22.2650   21.8090 C   0  0  0  0  0  0
  -25.4995  -24.4367   19.9126 C   0  0  0  0  0  0
  -27.8466  -23.8607   19.2077 C   0  0  0  0  0  0
  -28.0371  -19.9526   21.7341 C   0  0  0  0  0  0
  -27.1838  -20.9846   20.9328 C   0  0  0  0  0  0
  -27.2313  -23.8074   21.6149 C   0  0  0  0  0  0
  -27.0518  -24.6260   20.2556 C   0  0  0  0  0  0
  -26.1154  -17.6920   20.6662 N   0  0  0  0  0  0
  -30.3934  -15.6117   21.1218 N   0  0  0  0  0  0
  -26.1264  -22.0201   22.8121 O   0  0  0  0  0  0
  -28.0821  -16.3228   20.6841 O   0  0  0  0  0  0
  -31.4241  -12.2918   19.1292 H   0  0  0  0  0  0
  -30.1778  -11.3280   19.9146 H   0  0  0  0  0  0
  -29.6804  -11.6516   17.4679 H   0  0  0  0  0  0
  -29.6158  -13.3911   17.6814 H   0  0  0  0  0  0
  -27.8314  -11.2539   18.8903 H   0  0  0  0  0  0
  -27.3046  -12.5021   17.8118 H   0  0  0  0  0  0
  -27.6169  -14.2200   19.4811 H   0  0  0  0  0  0
  -28.6912  -12.1382   21.4436 H   0  0  0  0  0  0
  -28.4729  -13.8315   21.7843 H   0  0  0  0  0  0
  -25.2790   -9.5536   22.4783 H   0  0  0  0  0  0
  -23.9986   -7.4500   22.7522 H   0  0  0  0  0  0
  -21.0847   -8.8840   19.8912 H   0  0  0  0  0  0
  -22.3871  -10.9637   19.6212 H   0  0  0  0  0  0
  -21.1893   -7.6124   23.9708 H   0  0  0  0  0  0
  -21.1409   -6.0489   25.9052 H   0  0  0  0  0  0
  -22.0630   -2.7628   23.2839 H   0  0  0  0  0  0
  -22.4219  -11.9682   22.4726 H   0  0  0  0  0  0
  -21.1169  -13.1196   22.2627 H   0  0  0  0  0  0
  -24.4457  -15.6333   20.2197 H   0  0  0  0  0  0
  -26.1712  -15.5593   20.0714 H   0  0  0  0  0  0
  -26.7071  -32.5284   23.0993 H   0  0  0  0  0  0
  -24.9980  -33.9758   25.0337 H   0  0  0  0  0  0
  -22.7023  -31.3058   21.4696 H   0  0  0  0  0  0
  -23.3741  -35.9568   23.3253 H   0  0  0  0  0  0
  -24.3523  -36.8866   22.1999 H   0  0  0  0  0  0
  -23.7260  -37.6439   23.6677 H   0  0  0  0  0  0
  -26.1954  -31.4665   20.7381 H   0  0  0  0  0  0
  -26.8050  -30.6801   22.1210 H   0  0  0  0  0  0
  -27.9693  -28.5810   21.4011 H   0  0  0  0  0  0
  -25.9561  -26.3464   18.4086 H   0  0  0  0  0  0
  -23.9710  -27.6956   18.6187 H   0  0  0  0  0  0
  -23.7472  -30.6898   19.4380 H   0  0  0  0  0  0
  -22.7547  -29.3620   19.8160 H   0  0  0  0  0  0
  -25.1331  -36.1798   25.0705 H   0  0  0  0  0  0
  -21.0498  -28.1820   24.1037 H   0  0  0  0  0  0
  -20.6379  -26.0916   23.1936 H   0  0  0  0  0  0
  -21.7012  -26.8340   21.9970 H   0  0  0  0  0  0
  -19.6632  -25.6071   21.0808 H   0  0  0  0  0  0
  -19.7035  -27.3646   20.6882 H   0  0  0  0  0  0
  -17.4701  -26.5819   21.3825 H   0  0  0  0  0  0
  -18.1259  -25.9258   22.8318 H   0  0  0  0  0  0
  -19.8631  -30.6620   24.2436 H   0  0  0  0  0  0
  -17.5908  -31.6245   24.4751 H   0  0  0  0  0  0
  -15.6053  -30.2583   23.7616 H   0  0  0  0  0  0
  -15.9079  -28.0108   22.7650 H   0  0  0  0  0  0
  -24.5909  -30.7317   25.7918 H   0  0  0  0  0  0
  -24.8868  -32.3197   26.4725 H   0  0  0  0  0  0
  -25.7831  -30.9294   27.0523 H   0  0  0  0  0  0
  -26.3010  -29.6634   24.1792 H   0  0  0  0  0  0
  -27.3885  -29.7314   25.5461 H   0  0  0  0  0  0
  -27.9092  -30.4034   24.0254 H   0  0  0  0  0  0
  -27.2675  -33.3816   26.2164 H   0  0  0  0  0  0
  -28.3928  -32.6973   25.0510 H   0  0  0  0  0  0
  -28.0789  -31.8683   26.5588 H   0  0  0  0  0  0
  -28.2563  -38.0083   24.7541 H   0  0  0  0  0  0
  -28.1118  -36.2583   24.6266 H   0  0  0  0  0  0
  -27.2285  -37.1433   25.8859 H   0  0  0  0  0  0
  -20.9558  -29.7586   21.6181 H   0  0  0  0  0  0
  -26.0114  -38.2771   24.1470 H   0  0  0  0  0  0
  -30.5810  -18.2875   21.4784 H   0  0  0  0  0  0
  -25.2701  -24.3916   18.8300 H   0  0  0  0  0  0
  -24.7787  -25.1167   20.3858 H   0  0  0  0  0  0
  -25.1128  -23.4871   20.2594 H   0  0  0  0  0  0
  -27.2921  -22.9735   18.9420 H   0  0  0  0  0  0
  -28.8033  -23.5289   19.5813 H   0  0  0  0  0  0
  -28.0672  -24.4113   18.2756 H   0  0  0  0  0  0
  -28.9448  -20.4187   22.1213 H   0  0  0  0  0  0
  -27.4773  -19.7223   22.6375 H   0  0  0  0  0  0
  -27.6403  -21.2016   19.9485 H   0  0  0  0  0  0
  -26.2476  -20.4188   20.7273 H   0  0  0  0  0  0
  -28.2666  -23.9629   21.9166 H   0  0  0  0  0  0
  -26.5673  -24.3140   22.3583 H   0  0  0  0  0  0
  -25.5797  -18.4479   21.0590 H   0  0  0  0  0  0
  -25.5271  -16.8557   20.5919 H   0  0  0  0  0  0
  -31.2549  -16.1343   21.2271 H   0  0  0  0  0  0
  1 25  1  0  0  0
  1 30  2  0  0  0
  1 83  1  0  0  0
  2  3  1  0  0  0
  2 25  1  0  0  0
  2 86  1  0  0  0
  2 87  1  0  0  0
  3  4  1  0  0  0
  3 88  1  0  0  0
  3 89  1  0  0  0
  4  5  1  0  0  0
  4 90  1  0  0  0
  4 91  1  0  0  0
  5  6  1  0  0  0
  5 26  1  0  0  0
  5 92  1  0  0  0
  6 25  1  0  0  0
  6 93  1  0  0  0
  6 94  1  0  0  0
  7  8  2  0  0  0
  7 26  1  0  0  0
  7 29  1  0  0  0
  8  9  1  0  0  0
  8 22  1  0  0  0
  9 10  1  0  0  0
  9 27  2  0  0  0
 10 11  2  0  0  0
 10 15  1  0  0  0
 11 12  1  0  0  0
 11 95  1  0  0  0
 12 13  2  0  0  0
 12 96  1  0  0  0
 13 14  1  0  0  0
 13 31  1  0  0  0
 14 15  2  0  0  0
 14 97  1  0  0  0
 15 98  1  0  0  0
 16 17  2  0  0  0
 16 21  1  0  0  0
 16 31  1  0  0  0
 17 18  1  0  0  0
 17 99  1  0  0  0
 18 19  2  0  0  0
 18100  1  0  0  0
 19 20  1  0  0  0
 19 24  1  0  0  0
 20 21  2  0  0  0
 20101  1  0  0  0
 21 23  1  0  0  0
 22 28  1  0  0  0
 22 32  2  0  0  0
 26 27  1  0  0  0
 28102  1  0  0  0
 28103  1  0  0  0
 29104  1  0  0  0
 29105  1  0  0  0
 33 34  1  0  0  0
 33 66  1  0  0  0
 33 70  2  0  0  0
 34 36  1  0  0  0
 34 59  1  0  0  0
 34106  1  0  0  0
 35 44  2  0  0  0
 35 45  1  0  0  0
 35 68  1  0  0  0
 36 56  1  0  0  0
 36107  1  0  0  0
 37 39  1  0  0  0
 37 47  1  0  0  0
 37 66  1  0  0  0
 37108  1  0  0  0
 38 43  2  0  0  0
 38 46  1  0  0  0
 38 47  1  0  0  0
 39 64  1  0  0  0
 39 67  2  0  0  0
 40 52  1  0  0  0
 40 53  2  0  0  0
 40 58  1  0  0  0
 41109  1  0  0  0
 41110  1  0  0  0
 41111  1  0  0  0
 41 48  1  0  0  0
 42 43  1  0  0  0
 42 66  1  0  0  0
 42112  1  0  0  0
 42113  1  0  0  0
 43 44  1  0  0  0
 44114  1  0  0  0
 45 46  2  0  0  0
 45115  1  0  0  0
 46116  1  0  0  0
 47117  1  0  0  0
 47118  1  0  0  0
 48 56  1  0  0  0
 48 65  1  0  0  0
 48119  1  0  0  0
 49 50  1  0  0  0
 49 53  1  0  0  0
 49 64  1  0  0  0
 49120  1  0  0  0
 50 51  1  0  0  0
 50121  1  0  0  0
 50122  1  0  0  0
 51 52  1  0  0  0
 51123  1  0  0  0
 51124  1  0  0  0
 52125  1  0  0  0
 52126  1  0  0  0
 53 54  1  0  0  0
 54 55  2  0  0  0
 54127  1  0  0  0
 55 57  1  0  0  0
 55128  1  0  0  0
 56 69  2  0  0  0
 57 58  2  0  0  0
 57129  1  0  0  0
 58130  1  0  0  0
 59 60  1  0  0  0
 59 61  1  0  0  0
 59 62  1  0  0  0
 60131  1  0  0  0
 60132  1  0  0  0
 60133  1  0  0  0
 61134  1  0  0  0
 61135  1  0  0  0
 61136  1  0  0  0
 62137  1  0  0  0
 62138  1  0  0  0
 62139  1  0  0  0
 63 65  1  0  0  0
 63140  1  0  0  0
 63141  1  0  0  0
 63142  1  0  0  0
 64143  1  0  0  0
 65144  1  0  0  0
 68 81  1  0  0  0
 71 72  1  0  0  0
 71 73  2  0  0  0
 71145  1  0  0  0
 72 74  2  0  0  0
 72 78  1  0  0  0
 73 83  1  0  0  0
 73 85  1  0  0  0
 74 82  1  0  0  0
 74 85  1  0  0  0
 75 79  1  0  0  0
 75 80  1  0  0  0
 75 84  2  0  0  0
 76146  1  0  0  0
 76147  1  0  0  0
 76148  1  0  0  0
 76 81  1  0  0  0
 77 81  1  0  0  0
 77149  1  0  0  0
 77150  1  0  0  0
 77151  1  0  0  0
 78 79  1  0  0  0
 78152  1  0  0  0
 78153  1  0  0  0
 79154  1  0  0  0
 79155  1  0  0  0
 80 81  1  0  0  0
 80156  1  0  0  0
 80157  1  0  0  0
 82158  1  0  0  0
 82159  1  0  0  0
 83160  1  0  0  0
M  ISO  4   1 100  68 101  81 101  83 100
M  END
> <chiral flag>
0

> <version>
0

> <s_m_source_file>
/data/baiqing/PycharmProjects/Reinvent-master-3.2/result/LINK_invent/BTK/process_docking_weight1_custom_product_contain_oxygen_bond_distance_aromatic_linkinvent_7_9_3/rearranged_h_0172.sdf

> <i_m_source_file_index>
68

> <r_mmod_Potential_Energy-OPLS-2005>
401.509918212891

> <r_mmod_Stretch_Energy-OPLS-2005>
109.23998260498

> <r_mmod_Bend_Energy-OPLS-2005>
290.628967285156

> <r_mmod_Torsional_Energy-OPLS-2005>
278.279083251953

> <r_mmod_Improper_Torsional_Energy-OPLS-2005>
12.9943704605103

> <r_mmod_Van_der_Waal_Energy-OPLS-2005>
169.021575927734

> <r_mmod_Electrostatic_Energy-OPLS-2005>
-461.87353515625

> <r_mmod_Solvation_Energy-OPLS-2005>
-198.653244018555

> <b_mmod_Minimization_Converged-OPLS-2005>
0

> <r_mmod_RMS_Derivative-OPLS-2005>
42.284236907959

$$$$
68
                    3D
 Structure written by MMmdl.
156164  0  0  1  0            999 V2000
  -30.7124  -14.4820   20.5522 C   0  0  0  0  0  0
  -30.4111  -12.3051   19.4281 C   0  0  0  0  0  0
  -29.4896  -12.4970   18.2074 C   0  0  0  0  0  0
  -28.0094  -12.3679   18.6181 C   0  0  0  0  0  0
  -27.6557  -13.2128   19.8719 C   0  0  2  0  0  0
  -28.6995  -13.0149   20.9944 C   0  0  0  0  0  0
  -25.2550  -13.8176   20.5698 C   0  0  0  0  0  0
  -24.1806  -13.0442   20.9187 C   0  0  0  0  0  0
  -24.6365  -11.6910   20.8734 C   0  0  0  0  0  0
  -23.9034  -10.4294   21.0395 C   0  0  0  0  0  0
  -24.3590   -9.4210   21.9168 C   0  0  0  0  0  0
  -23.6277   -8.2234   22.0736 C   0  0  0  0  0  0
  -22.4260   -8.0266   21.3536 C   0  0  0  0  0  0
  -21.9889   -9.0233   20.4634 C   0  0  0  0  0  0
  -22.7202  -10.2123   20.3044 C   0  0  0  0  0  0
  -21.6849   -6.0718   22.5273 C   0  0  0  0  0  0
  -21.4013   -6.5622   23.8211 C   0  0  0  0  0  0
  -21.3667   -5.6781   24.9172 C   0  0  0  0  0  0
  -21.6049   -4.3040   24.7219 C   0  0  0  0  0  0
  -21.8817   -3.8131   23.4345 C   0  0  0  0  0  0
  -21.9191   -4.6950   22.3400 C   0  0  0  0  0  0
  -22.7834  -13.5233   21.1854 C   0  0  0  0  0  0
  -22.1659   -4.2129   21.0979 F   0  0  0  0  0  0
  -21.5630   -3.4532   25.7741 F   0  0  0  0  0  0
  -30.0273  -13.3104   20.4331 N   0  0  0  0  0  0
  -26.2985  -12.9355   20.3365 N   0  0  0  0  0  0
  -25.9298  -11.6507   20.5755 N   0  0  0  0  0  0
  -22.0467  -12.8243   22.0422 N   0  0  0  0  0  0
  -25.4296  -15.1893   20.4115 N   0  0  0  0  0  0
  -31.8604  -14.6119   20.1157 O   0  0  0  0  0  0
  -21.6632   -6.8859   21.4232 O   0  0  0  0  0  0
  -22.3524  -14.5537   20.6694 O   0  0  0  0  0  0
  -24.6176  -31.8683   23.2111 C   0  0  0  0  0  0
  -25.9062  -32.4814   23.8415 C   0  0  1  0  0  0
  -27.2172  -27.4183   20.0913 C   0  0  0  0  0  0
  -25.5910  -33.8614   24.2340 N   0  0  0  0  0  0
  -23.4052  -30.4963   21.5518 C   0  0  2  0  0  0
  -24.8475  -28.9665   20.1094 C   0  0  0  0  0  0
  -22.7427  -29.4673   22.4972 C   0  0  0  0  0  0
  -18.0282  -28.1378   22.8487 C   0  0  0  0  0  0
  -24.1487  -36.7312   23.2641 C   0  0  0  0  0  0
  -25.9390  -30.8265   21.3704 C   0  0  0  0  0  0
  -26.0113  -29.4638   20.7101 C   0  0  0  0  0  0
  -27.2022  -28.6973   20.6973 C   0  0  0  0  0  0
  -26.0408  -26.9567   19.4575 C   0  0  0  0  0  0
  -24.8578  -27.7125   19.4791 C   0  0  0  0  0  0
  -23.6127  -29.8364   20.1637 C   0  0  0  0  0  0
  -25.4104  -36.3111   24.0346 C   0  0  1  0  0  0
  -20.5876  -28.3675   23.1298 C   0  0  2  0  0  0
  -20.6767  -26.9406   22.5408 C   0  0  0  0  0  0
  -19.5744  -26.6384   21.5206 C   0  0  0  0  0  0
  -18.1925  -26.7924   22.1621 C   0  0  0  0  0  0
  -19.1533  -28.8842   23.2893 C   0  0  0  0  0  0
  -18.9456  -30.1443   23.8909 C   0  0  0  0  0  0
  -17.6458  -30.6582   24.0563 C   0  0  0  0  0  0
  -25.9037  -34.9472   23.5140 C   0  0  0  0  0  0
  -16.5350  -29.9084   23.6318 C   0  0  0  0  0  0
  -16.7272  -28.6498   23.0347 C   0  0  0  0  0  0
  -26.4479  -31.6595   25.0750 C   0  0  0  0  0  0
  -25.3747  -31.3693   26.1503 C   0  0  0  0  0  0
  -27.0313  -30.3036   24.6127 C   0  0  0  0  0  0
  -27.6058  -32.4318   25.7499 C   0  0  0  0  0  0
  -27.5583  -37.1814   24.8467 C   0  0  0  0  0  0
  -21.4155  -29.3046   22.3708 N   0  0  0  0  0  0
  -26.4292  -37.3792   23.9412 N   0  0  0  0  0  0
  -24.6722  -31.0787   22.1013 N   0  0  0  0  0  0
  -23.4189  -28.8214   23.3022 O   0  0  0  0  0  0
  -28.3491  -26.6242   20.1288 O   0  0  0  0  0  0
  -26.5597  -34.8924   22.4701 O   0  0  0  0  0  0
  -23.5367  -32.1440   23.7497 O   0  0  0  0  0  0
  -31.7065  -17.3269   21.2931 C   0  0  0  0  0  0
  -30.4143  -16.9134   21.0616 C   0  0  0  0  0  0
  -30.1181  -19.1853   20.9963 C   0  0  0  0  0  0
  -28.8635  -22.7916   20.3620 C   0  0  0  0  0  0
  -30.2503  -22.1961   22.3934 C   0  0  0  0  0  0
  -28.0226  -25.3522   22.1665 C   0  0  0  0  0  0
  -29.2340  -24.2837   20.1664 C   0  0  0  0  0  0
  -29.9256  -21.8187   20.9366 C   0  0  1  0  0  0
  -28.1364  -25.2807   20.6327 C   0  0  2  0  0  0
  -29.5118  -17.9885   20.9177 N   0  0  0  0  0  0
  -30.0040  -15.5401   21.0092 N   0  0  0  0  0  0
  -29.4840  -20.4196   20.8500 N   0  0  0  0  0  0
  -27.7381  -22.3889   20.0506 O   0  0  0  0  0  0
  -31.8492  -19.0661   21.2927 S   0  0  0  0  0  0
  -31.4579  -12.3807   19.1286 H   0  0  0  0  0  0
  -30.2926  -11.3010   19.8386 H   0  0  0  0  0  0
  -29.7262  -11.7584   17.4400 H   0  0  0  0  0  0
  -29.6660  -13.4755   17.7575 H   0  0  0  0  0  0
  -27.8134  -11.3146   18.8198 H   0  0  0  0  0  0
  -27.3625  -12.6444   17.7842 H   0  0  0  0  0  0
  -27.6935  -14.2574   19.5642 H   0  0  0  0  0  0
  -28.6741  -11.9852   21.3560 H   0  0  0  0  0  0
  -28.4689  -13.6352   21.8613 H   0  0  0  0  0  0
  -25.2723   -9.5697   22.4756 H   0  0  0  0  0  0
  -23.9991   -7.4625   22.7459 H   0  0  0  0  0  0
  -21.0816   -8.8736   19.8950 H   0  0  0  0  0  0
  -22.3634  -10.9656   19.6162 H   0  0  0  0  0  0
  -21.2002   -7.6132   23.9709 H   0  0  0  0  0  0
  -21.1499   -6.0511   25.9081 H   0  0  0  0  0  0
  -22.0594   -2.7593   23.2851 H   0  0  0  0  0  0
  -22.4064  -11.9917   22.4848 H   0  0  0  0  0  0
  -21.1077  -13.1280   22.2600 H   0  0  0  0  0  0
  -24.6672  -15.8503   20.5198 H   0  0  0  0  0  0
  -26.2824  -15.6245   20.0829 H   0  0  0  0  0  0
  -26.7131  -32.5509   23.1176 H   0  0  0  0  0  0
  -25.0073  -33.9779   25.0494 H   0  0  0  0  0  0
  -22.6947  -31.3145   21.4162 H   0  0  0  0  0  0
  -23.3744  -35.9651   23.3312 H   0  0  0  0  0  0
  -24.3579  -36.8914   22.2053 H   0  0  0  0  0  0
  -23.7241  -37.6524   23.6641 H   0  0  0  0  0  0
  -26.0669  -31.5947   20.6067 H   0  0  0  0  0  0
  -26.8212  -30.8672   21.9964 H   0  0  0  0  0  0
  -28.0987  -29.0686   21.1744 H   0  0  0  0  0  0
  -26.0224  -26.0102   18.9376 H   0  0  0  0  0  0
  -23.9674  -27.3295   18.9994 H   0  0  0  0  0  0
  -23.7247  -30.6149   19.4087 H   0  0  0  0  0  0
  -22.7327  -29.2644   19.8638 H   0  0  0  0  0  0
  -25.1278  -36.1986   25.0840 H   0  0  0  0  0  0
  -20.9979  -28.3243   24.1415 H   0  0  0  0  0  0
  -20.5660  -26.2288   23.3603 H   0  0  0  0  0  0
  -21.6639  -26.7437   22.1207 H   0  0  0  0  0  0
  -19.6901  -25.6295   21.1233 H   0  0  0  0  0  0
  -19.6679  -27.3195   20.6734 H   0  0  0  0  0  0
  -17.4195  -26.6677   21.4024 H   0  0  0  0  0  0
  -18.0323  -26.0064   22.9015 H   0  0  0  0  0  0
  -19.7935  -30.7250   24.2286 H   0  0  0  0  0  0
  -17.5016  -31.6261   24.5168 H   0  0  0  0  0  0
  -15.5350  -30.2990   23.7628 H   0  0  0  0  0  0
  -15.8674  -28.0818   22.7054 H   0  0  0  0  0  0
  -24.5898  -30.7065   25.7841 H   0  0  0  0  0  0
  -24.8967  -32.2844   26.5008 H   0  0  0  0  0  0
  -25.8111  -30.8819   27.0230 H   0  0  0  0  0  0
  -26.2862  -29.6797   24.1171 H   0  0  0  0  0  0
  -27.4072  -29.7273   25.4591 H   0  0  0  0  0  0
  -27.8710  -30.4361   23.9297 H   0  0  0  0  0  0
  -27.2673  -33.3598   26.2117 H   0  0  0  0  0  0
  -28.3834  -32.6910   25.0302 H   0  0  0  0  0  0
  -28.0760  -31.8421   26.5376 H   0  0  0  0  0  0
  -28.2610  -38.0107   24.7506 H   0  0  0  0  0  0
  -28.1074  -36.2635   24.6298 H   0  0  0  0  0  0
  -27.2305  -37.1477   25.8875 H   0  0  0  0  0  0
  -20.9313  -29.8794   21.6954 H   0  0  0  0  0  0
  -26.0188  -38.2879   24.1393 H   0  0  0  0  0  0
  -32.5897  -16.7218   21.4508 H   0  0  0  0  0  0
  -30.6520  -23.2075   22.4668 H   0  0  0  0  0  0
  -30.9979  -21.5295   22.8222 H   0  0  0  0  0  0
  -29.3645  -22.1491   23.0282 H   0  0  0  0  0  0
  -27.8489  -24.3664   22.5968 H   0  0  0  0  0  0
  -27.1839  -25.9798   22.4712 H   0  0  0  0  0  0
  -28.9294  -25.7596   22.6150 H   0  0  0  0  0  0
  -29.4099  -24.4234   19.1001 H   0  0  0  0  0  0
  -30.1779  -24.5036   20.6638 H   0  0  0  0  0  0
  -30.8329  -21.9180   20.3398 H   0  0  0  0  0  0
  -27.1924  -24.8774   20.2723 H   0  0  0  0  0  0
  -29.0353  -15.3532   21.2126 H   0  0  0  0  0  0
  -28.5082  -20.3619   20.5709 H   0  0  0  0  0  0
  1 25  1  0  0  0
  1 30  2  0  0  0
  1 81  1  0  0  0
  2  3  1  0  0  0
  2 25  1  0  0  0
  2 85  1  0  0  0
  2 86  1  0  0  0
  3  4  1  0  0  0
  3 87  1  0  0  0
  3 88  1  0  0  0
  4  5  1  0  0  0
  4 89  1  0  0  0
  4 90  1  0  0  0
  5  6  1  0  0  0
  5 26  1  0  0  0
  5 91  1  0  0  0
  6 25  1  0  0  0
  6 92  1  0  0  0
  6 93  1  0  0  0
  7  8  2  0  0  0
  7 26  1  0  0  0
  7 29  1  0  0  0
  8  9  1  0  0  0
  8 22  1  0  0  0
  9 10  1  0  0  0
  9 27  2  0  0  0
 10 11  2  0  0  0
 10 15  1  0  0  0
 11 12  1  0  0  0
 11 94  1  0  0  0
 12 13  2  0  0  0
 12 95  1  0  0  0
 13 14  1  0  0  0
 13 31  1  0  0  0
 14 15  2  0  0  0
 14 96  1  0  0  0
 15 97  1  0  0  0
 16 17  2  0  0  0
 16 21  1  0  0  0
 16 31  1  0  0  0
 17 18  1  0  0  0
 17 98  1  0  0  0
 18 19  2  0  0  0
 18 99  1  0  0  0
 19 20  1  0  0  0
 19 24  1  0  0  0
 20 21  2  0  0  0
 20100  1  0  0  0
 21 23  1  0  0  0
 22 28  1  0  0  0
 22 32  2  0  0  0
 26 27  1  0  0  0
 28101  1  0  0  0
 28102  1  0  0  0
 29103  1  0  0  0
 29104  1  0  0  0
 33 34  1  0  0  0
 33 66  1  0  0  0
 33 70  2  0  0  0
 34 36  1  0  0  0
 34 59  1  0  0  0
 34105  1  0  0  0
 35 44  2  0  0  0
 35 45  1  0  0  0
 35 68  1  0  0  0
 36 56  1  0  0  0
 36106  1  0  0  0
 37 39  1  0  0  0
 37 47  1  0  0  0
 37 66  1  0  0  0
 37107  1  0  0  0
 38 43  2  0  0  0
 38 46  1  0  0  0
 38 47  1  0  0  0
 39 64  1  0  0  0
 39 67  2  0  0  0
 40 52  1  0  0  0
 40 53  2  0  0  0
 40 58  1  0  0  0
 41108  1  0  0  0
 41109  1  0  0  0
 41110  1  0  0  0
 41 48  1  0  0  0
 42 43  1  0  0  0
 42 66  1  0  0  0
 42111  1  0  0  0
 42112  1  0  0  0
 43 44  1  0  0  0
 44113  1  0  0  0
 45 46  2  0  0  0
 45114  1  0  0  0
 46115  1  0  0  0
 47116  1  0  0  0
 47117  1  0  0  0
 48 56  1  0  0  0
 48 65  1  0  0  0
 48118  1  0  0  0
 49 50  1  0  0  0
 49 53  1  0  0  0
 49 64  1  0  0  0
 49119  1  0  0  0
 50 51  1  0  0  0
 50120  1  0  0  0
 50121  1  0  0  0
 51 52  1  0  0  0
 51122  1  0  0  0
 51123  1  0  0  0
 52124  1  0  0  0
 52125  1  0  0  0
 53 54  1  0  0  0
 54 55  2  0  0  0
 54126  1  0  0  0
 55 57  1  0  0  0
 55127  1  0  0  0
 56 69  2  0  0  0
 57 58  2  0  0  0
 57128  1  0  0  0
 58129  1  0  0  0
 59 60  1  0  0  0
 59 61  1  0  0  0
 59 62  1  0  0  0
 60130  1  0  0  0
 60131  1  0  0  0
 60132  1  0  0  0
 61133  1  0  0  0
 61134  1  0  0  0
 61135  1  0  0  0
 62136  1  0  0  0
 62137  1  0  0  0
 62138  1  0  0  0
 63 65  1  0  0  0
 63139  1  0  0  0
 63140  1  0  0  0
 63141  1  0  0  0
 64142  1  0  0  0
 65143  1  0  0  0
 68 79  1  0  0  0
 71 72  2  0  0  0
 71 84  1  0  0  0
 71144  1  0  0  0
 72 80  1  0  0  0
 72 81  1  0  0  0
 73 80  2  0  0  0
 73 82  1  0  0  0
 73 84  1  0  0  0
 74 77  1  0  0  0
 74 78  1  0  0  0
 74 83  2  0  0  0
 75145  1  0  0  0
 75146  1  0  0  0
 75147  1  0  0  0
 75 78  1  0  0  0
 76148  1  0  0  0
 76149  1  0  0  0
 76150  1  0  0  0
 76 79  1  0  0  0
 77 79  1  0  0  0
 77151  1  0  0  0
 77152  1  0  0  0
 78 82  1  0  0  0
 78153  1  0  0  0
 79154  1  0  0  0
 81155  1  0  0  0
 82156  1  0  0  0
M  ISO  4   1 100  68 101  79 101  81 100
M  END
> <chiral flag>
0

> <version>
0

> <s_m_source_file>
/data/baiqing/PycharmProjects/Reinvent-master-3.2/result/LINK_invent/BTK/process_docking_weight1_custom_product_contain_oxygen_bond_distance_aromatic_linkinvent_7_9_3/rearranged_h_0172.sdf

> <i_m_source_file_index>
69

> <r_mmod_Potential_Energy-OPLS-2005>
-168.53190612793

> <r_mmod_Stretch_Energy-OPLS-2005>
39.2266044616699

> <r_mmod_Bend_Energy-OPLS-2005>
95.3424377441406

> <r_mmod_Torsional_Energy-OPLS-2005>
212.263381958008

> <r_mmod_Improper_Torsional_Energy-OPLS-2005>
4.08210039138794

> <r_mmod_Van_der_Waal_Energy-OPLS-2005>
134.123382568359

> <r_mmod_Electrostatic_Energy-OPLS-2005>
-455.943634033203

> <r_mmod_Solvation_Energy-OPLS-2005>
-215.686782836914

> <b_mmod_Minimization_Converged-OPLS-2005>
0

> <r_mmod_RMS_Derivative-OPLS-2005>
1.75858318805695

$$$$
69
                    3D
 Structure written by MMmdl.
161169  0  0  1  0            999 V2000
  -30.7721  -14.3060   20.7082 C   0  0  0  0  0  0
  -30.4089  -12.2565   19.3811 C   0  0  0  0  0  0
  -29.4843  -12.5380   18.1825 C   0  0  0  0  0  0
  -28.0072  -12.3891   18.5935 C   0  0  0  0  0  0
  -27.6670  -13.1960   19.8736 C   0  0  2  0  0  0
  -28.7004  -12.9125   20.9886 C   0  0  0  0  0  0
  -25.2614  -13.8144   20.5632 C   0  0  0  0  0  0
  -24.1841  -13.0429   20.9098 C   0  0  0  0  0  0
  -24.6372  -11.6894   20.8649 C   0  0  0  0  0  0
  -23.9025  -10.4294   21.0357 C   0  0  0  0  0  0
  -24.3585   -9.4233   21.9157 C   0  0  0  0  0  0
  -23.6274   -8.2257   22.0743 C   0  0  0  0  0  0
  -22.4260   -8.0262   21.3533 C   0  0  0  0  0  0
  -21.9875   -9.0229   20.4644 C   0  0  0  0  0  0
  -22.7183  -10.2114   20.3043 C   0  0  0  0  0  0
  -21.6861   -6.0717   22.5281 C   0  0  0  0  0  0
  -21.4016   -6.5621   23.8214 C   0  0  0  0  0  0
  -21.3666   -5.6775   24.9178 C   0  0  0  0  0  0
  -21.6046   -4.3039   24.7222 C   0  0  0  0  0  0
  -21.8822   -3.8126   23.4346 C   0  0  0  0  0  0
  -21.9199   -4.6943   22.3406 C   0  0  0  0  0  0
  -22.7872  -13.5250   21.1774 C   0  0  0  0  0  0
  -22.1659   -4.2122   21.0980 F   0  0  0  0  0  0
  -21.5644   -3.4540   25.7748 F   0  0  0  0  0  0
  -30.0602  -13.1759   20.4721 N   0  0  0  0  0  0
  -26.3047  -12.9298   20.3325 N   0  0  0  0  0  0
  -25.9290  -11.6459   20.5660 N   0  0  0  0  0  0
  -22.0511  -12.8267   22.0349 N   0  0  0  0  0  0
  -25.4312  -15.1865   20.4082 N   0  0  0  0  0  0
  -31.7387  -14.6678   20.0281 O   0  0  0  0  0  0
  -21.6641   -6.8847   21.4233 O   0  0  0  0  0  0
  -22.3569  -14.5569   20.6641 O   0  0  0  0  0  0
  -24.6129  -31.8704   23.2166 C   0  0  0  0  0  0
  -25.9055  -32.4830   23.8400 C   0  0  1  0  0  0
  -27.2295  -27.4633   20.0755 C   0  0  0  0  0  0
  -25.5938  -33.8629   24.2339 N   0  0  0  0  0  0
  -23.3964  -30.4976   21.5563 C   0  0  2  0  0  0
  -24.8385  -28.9714   20.1178 C   0  0  0  0  0  0
  -22.7384  -29.4682   22.5022 C   0  0  0  0  0  0
  -18.0283  -28.1367   22.8455 C   0  0  0  0  0  0
  -24.1487  -36.7320   23.2627 C   0  0  0  0  0  0
  -25.9247  -30.8412   21.3676 C   0  0  0  0  0  0
  -25.9992  -29.4786   20.7146 C   0  0  0  0  0  0
  -27.1929  -28.7273   20.6995 C   0  0  0  0  0  0
  -26.0484  -26.9761   19.4659 C   0  0  0  0  0  0
  -24.8553  -27.7156   19.4955 C   0  0  0  0  0  0
  -23.6012  -29.8336   20.1697 C   0  0  0  0  0  0
  -25.4108  -36.3113   24.0319 C   0  0  1  0  0  0
  -20.5860  -28.3625   23.1332 C   0  0  2  0  0  0
  -20.6770  -26.9396   22.5358 C   0  0  0  0  0  0
  -19.5791  -26.6463   21.5101 C   0  0  0  0  0  0
  -18.1957  -26.7946   22.1514 C   0  0  0  0  0  0
  -19.1527  -28.8800   23.2911 C   0  0  0  0  0  0
  -18.9442  -30.1409   23.8905 C   0  0  0  0  0  0
  -17.6442  -30.6541   24.0576 C   0  0  0  0  0  0
  -25.9042  -34.9483   23.5117 C   0  0  0  0  0  0
  -16.5333  -29.9034   23.6354 C   0  0  0  0  0  0
  -16.7262  -28.6490   23.0295 C   0  0  0  0  0  0
  -26.4503  -31.6602   25.0717 C   0  0  0  0  0  0
  -25.3806  -31.3684   26.1488 C   0  0  0  0  0  0
  -27.0311  -30.3042   24.6081 C   0  0  0  0  0  0
  -27.6069  -32.4313   25.7489 C   0  0  0  0  0  0
  -27.5577  -37.1813   24.8454 C   0  0  0  0  0  0
  -21.4108  -29.3045   22.3777 N   0  0  0  0  0  0
  -26.4299  -37.3803   23.9401 N   0  0  0  0  0  0
  -24.6633  -31.0821   22.1059 N   0  0  0  0  0  0
  -23.4176  -28.8194   23.3010 O   0  0  0  0  0  0
  -28.4215  -26.7681   20.0865 O   0  0  0  0  0  0
  -26.5555  -34.8922   22.4647 O   0  0  0  0  0  0
  -23.5338  -32.1433   23.7602 O   0  0  0  0  0  0
  -29.2980  -18.3977   20.8376 C   0  0  0  0  0  0
  -29.8894  -17.1284   20.7478 C   0  0  0  0  0  0
  -29.4305  -16.7558   23.1124 C   0  0  0  0  0  0
  -28.7684  -18.8636   22.0622 C   0  0  0  0  0  0
  -29.9453  -16.2883   21.8835 C   0  0  0  0  0  0
  -28.8417  -18.0318   23.2005 C   0  0  0  0  0  0
  -28.1155  -20.1778   22.1510 C   0  0  0  0  0  0
  -27.6651  -20.8651   21.0875 C   0  0  0  0  0  0
  -25.9739  -23.1709   19.3341 C   0  0  0  0  0  0
  -27.8759  -24.4214   20.5883 C   0  0  0  0  0  0
  -25.9516  -23.5228   17.8525 C   0  0  0  0  0  0
  -28.4514  -25.4304   19.5747 C   0  0  0  0  0  0
  -27.3373  -23.0884   20.0378 C   0  0  1  0  0  0
  -30.4177  -14.9536   21.8249 N   0  0  0  0  0  0
  -27.1021  -22.2268   21.2045 N   0  3  0  0  0  0
  -24.9064  -22.9340   19.9133 O   0  0  0  0  0  0
  -27.9024  -24.6750   21.8002 O   0  0  0  0  0  0
  -28.3260  -18.4518   24.3824 F   0  0  0  0  0  0
  -31.4572  -12.3327   19.0880 H   0  0  0  0  0  0
  -30.2683  -11.2281   19.7186 H   0  0  0  0  0  0
  -29.7133  -11.8643   17.3549 H   0  0  0  0  0  0
  -29.6627  -13.5474   17.8080 H   0  0  0  0  0  0
  -27.8132  -11.3285   18.7561 H   0  0  0  0  0  0
  -27.3570  -12.6905   17.7708 H   0  0  0  0  0  0
  -27.7309  -14.2516   19.6104 H   0  0  0  0  0  0
  -28.6378  -11.8681   21.3008 H   0  0  0  0  0  0
  -28.4404  -13.4908   21.8755 H   0  0  0  0  0  0
  -25.2731   -9.5745   22.4724 H   0  0  0  0  0  0
  -24.0005   -7.4666   22.7471 H   0  0  0  0  0  0
  -21.0811   -8.8720   19.8961 H   0  0  0  0  0  0
  -22.3617  -10.9629   19.6151 H   0  0  0  0  0  0
  -21.2000   -7.6129   23.9708 H   0  0  0  0  0  0
  -21.1490   -6.0507   25.9079 H   0  0  0  0  0  0
  -22.0593   -2.7587   23.2859 H   0  0  0  0  0  0
  -22.4122  -11.9951   22.4801 H   0  0  0  0  0  0
  -21.1131  -13.1296   22.2539 H   0  0  0  0  0  0
  -24.6604  -15.8353   20.5193 H   0  0  0  0  0  0
  -26.2958  -15.6371   20.1363 H   0  0  0  0  0  0
  -26.7113  -32.5553   23.1152 H   0  0  0  0  0  0
  -25.0160  -33.9772   25.0528 H   0  0  0  0  0  0
  -22.6856  -31.3154   21.4196 H   0  0  0  0  0  0
  -23.3756  -35.9654   23.3308 H   0  0  0  0  0  0
  -24.3571  -36.8926   22.2043 H   0  0  0  0  0  0
  -23.7247  -37.6530   23.6625 H   0  0  0  0  0  0
  -26.0321  -31.6084   20.5994 H   0  0  0  0  0  0
  -26.8145  -30.8909   21.9832 H   0  0  0  0  0  0
  -28.0913  -29.1141   21.1612 H   0  0  0  0  0  0
  -26.0138  -26.0379   18.9451 H   0  0  0  0  0  0
  -23.9638  -27.3231   19.0239 H   0  0  0  0  0  0
  -23.7105  -30.6071   19.4090 H   0  0  0  0  0  0
  -22.7249  -29.2514   19.8766 H   0  0  0  0  0  0
  -25.1305  -36.1980   25.0812 H   0  0  0  0  0  0
  -20.9954  -28.3151   24.1453 H   0  0  0  0  0  0
  -20.5595  -26.2192   23.3460 H   0  0  0  0  0  0
  -21.6666  -26.7479   22.1184 H   0  0  0  0  0  0
  -19.6957  -25.6404   21.1065 H   0  0  0  0  0  0
  -19.6752  -27.3334   20.6665 H   0  0  0  0  0  0
  -17.4217  -26.6754   21.3925 H   0  0  0  0  0  0
  -18.0413  -26.0018   22.8835 H   0  0  0  0  0  0
  -19.7907  -30.7236   24.2271 H   0  0  0  0  0  0
  -17.4984  -31.6208   24.5174 H   0  0  0  0  0  0
  -15.5327  -30.2909   23.7720 H   0  0  0  0  0  0
  -15.8650  -28.0871   22.6920 H   0  0  0  0  0  0
  -24.5987  -30.7014   25.7841 H   0  0  0  0  0  0
  -24.9006  -32.2831   26.4969 H   0  0  0  0  0  0
  -25.8218  -30.8849   27.0217 H   0  0  0  0  0  0
  -26.2824  -29.6811   24.1183 H   0  0  0  0  0  0
  -27.4114  -29.7275   25.4524 H   0  0  0  0  0  0
  -27.8653  -30.4341   23.9186 H   0  0  0  0  0  0
  -27.2676  -33.3588   26.2114 H   0  0  0  0  0  0
  -28.3877  -32.6918   25.0328 H   0  0  0  0  0  0
  -28.0750  -31.8416   26.5390 H   0  0  0  0  0  0
  -28.2602  -38.0104   24.7506 H   0  0  0  0  0  0
  -28.1068  -36.2637   24.6294 H   0  0  0  0  0  0
  -27.2269  -37.1475   25.8847 H   0  0  0  0  0  0
  -20.9230  -29.8835   21.7073 H   0  0  0  0  0  0
  -26.0192  -38.2869   24.1456 H   0  0  0  0  0  0
  -29.2657  -19.0070   19.9473 H   0  0  0  0  0  0
  -30.2716  -16.8156   19.7857 H   0  0  0  0  0  0
  -29.4646  -16.1303   23.9922 H   0  0  0  0  0  0
  -28.0279  -20.6076   23.1392 H   0  0  0  0  0  0
  -27.6878  -20.4911   20.0728 H   0  0  0  0  0  0
  -26.9540  -23.7413   17.4864 H   0  0  0  0  0  0
  -25.3126  -24.3882   17.6737 H   0  0  0  0  0  0
  -25.5546  -22.6836   17.2819 H   0  0  0  0  0  0
  -27.9768  -25.3688   18.5976 H   0  0  0  0  0  0
  -29.4965  -25.1656   19.4110 H   0  0  0  0  0  0
  -28.0817  -22.6477   19.3766 H   0  0  0  0  0  0
  -30.0089  -14.3480   22.5208 H   0  0  0  0  0  0
  -26.0949  -22.1993   21.2929 H   0  0  0  0  0  0
  -27.4788  -22.7325   21.9948 H   0  0  0  0  0  0
  1 25  1  0  0  0
  1 30  2  0  0  0
  1 84  1  0  0  0
  2  3  1  0  0  0
  2 25  1  0  0  0
  2 89  1  0  0  0
  2 90  1  0  0  0
  3  4  1  0  0  0
  3 91  1  0  0  0
  3 92  1  0  0  0
  4  5  1  0  0  0
  4 93  1  0  0  0
  4 94  1  0  0  0
  5  6  1  0  0  0
  5 26  1  0  0  0
  5 95  1  0  0  0
  6 25  1  0  0  0
  6 96  1  0  0  0
  6 97  1  0  0  0
  7  8  2  0  0  0
  7 26  1  0  0  0
  7 29  1  0  0  0
  8  9  1  0  0  0
  8 22  1  0  0  0
  9 10  1  0  0  0
  9 27  2  0  0  0
 10 11  2  0  0  0
 10 15  1  0  0  0
 11 12  1  0  0  0
 11 98  1  0  0  0
 12 13  2  0  0  0
 12 99  1  0  0  0
 13 14  1  0  0  0
 13 31  1  0  0  0
 14 15  2  0  0  0
 14100  1  0  0  0
 15101  1  0  0  0
 16 17  2  0  0  0
 16 21  1  0  0  0
 16 31  1  0  0  0
 17 18  1  0  0  0
 17102  1  0  0  0
 18 19  2  0  0  0
 18103  1  0  0  0
 19 20  1  0  0  0
 19 24  1  0  0  0
 20 21  2  0  0  0
 20104  1  0  0  0
 21 23  1  0  0  0
 22 28  1  0  0  0
 22 32  2  0  0  0
 26 27  1  0  0  0
 28105  1  0  0  0
 28106  1  0  0  0
 29107  1  0  0  0
 29108  1  0  0  0
 33 34  1  0  0  0
 33 66  1  0  0  0
 33 70  2  0  0  0
 34 36  1  0  0  0
 34 59  1  0  0  0
 34109  1  0  0  0
 35 44  2  0  0  0
 35 45  1  0  0  0
 35 68  1  0  0  0
 36 56  1  0  0  0
 36110  1  0  0  0
 37 39  1  0  0  0
 37 47  1  0  0  0
 37 66  1  0  0  0
 37111  1  0  0  0
 38 43  2  0  0  0
 38 46  1  0  0  0
 38 47  1  0  0  0
 39 64  1  0  0  0
 39 67  2  0  0  0
 40 52  1  0  0  0
 40 53  2  0  0  0
 40 58  1  0  0  0
 41112  1  0  0  0
 41113  1  0  0  0
 41114  1  0  0  0
 41 48  1  0  0  0
 42 43  1  0  0  0
 42 66  1  0  0  0
 42115  1  0  0  0
 42116  1  0  0  0
 43 44  1  0  0  0
 44117  1  0  0  0
 45 46  2  0  0  0
 45118  1  0  0  0
 46119  1  0  0  0
 47120  1  0  0  0
 47121  1  0  0  0
 48 56  1  0  0  0
 48 65  1  0  0  0
 48122  1  0  0  0
 49 50  1  0  0  0
 49 53  1  0  0  0
 49 64  1  0  0  0
 49123  1  0  0  0
 50 51  1  0  0  0
 50124  1  0  0  0
 50125  1  0  0  0
 51 52  1  0  0  0
 51126  1  0  0  0
 51127  1  0  0  0
 52128  1  0  0  0
 52129  1  0  0  0
 53 54  1  0  0  0
 54 55  2  0  0  0
 54130  1  0  0  0
 55 57  1  0  0  0
 55131  1  0  0  0
 56 69  2  0  0  0
 57 58  2  0  0  0
 57132  1  0  0  0
 58133  1  0  0  0
 59 60  1  0  0  0
 59 61  1  0  0  0
 59 62  1  0  0  0
 60134  1  0  0  0
 60135  1  0  0  0
 60136  1  0  0  0
 61137  1  0  0  0
 61138  1  0  0  0
 61139  1  0  0  0
 62140  1  0  0  0
 62141  1  0  0  0
 62142  1  0  0  0
 63 65  1  0  0  0
 63143  1  0  0  0
 63144  1  0  0  0
 63145  1  0  0  0
 64146  1  0  0  0
 65147  1  0  0  0
 68 82  1  0  0  0
 71 72  2  0  0  0
 71 74  1  0  0  0
 71148  1  0  0  0
 72 75  1  0  0  0
 72149  1  0  0  0
 73 75  2  0  0  0
 73 76  1  0  0  0
 73150  1  0  0  0
 74 76  2  0  0  0
 74 77  1  0  0  0
 75 84  1  0  0  0
 76 88  1  0  0  0
 77 78  2  0  0  0
 77151  1  0  0  0
 78 85  1  0  0  0
 78152  1  0  0  0
 79 81  1  0  0  0
 79 83  1  0  0  0
 79 86  2  0  0  0
 80 82  1  0  0  0
 80 83  1  0  0  0
 80 87  2  0  0  0
 81153  1  0  0  0
 81154  1  0  0  0
 81155  1  0  0  0
 82156  1  0  0  0
 82157  1  0  0  0
 83 85  1  0  0  0
 83158  1  0  0  0
 84159  1  0  0  0
 85160  1  0  0  0
 85161  1  0  0  0
M  CHG  1  85   1
M  ISO  4   1 100  68 101  82 101  84 100
M  END
> <chiral flag>
0

> <version>
0

> <s_m_source_file>
/data/baiqing/PycharmProjects/Reinvent-master-3.2/result/LINK_invent/BTK/process_docking_weight1_custom_product_contain_oxygen_bond_distance_aromatic_linkinvent_7_9_3/rearranged_h_0172.sdf

> <i_m_source_file_index>
70

> <r_mmod_Potential_Energy-OPLS-2005>
-388.839080810547

> <r_mmod_Stretch_Energy-OPLS-2005>
32.7789154052734

> <r_mmod_Bend_Energy-OPLS-2005>
98.5918426513672

> <r_mmod_Torsional_Energy-OPLS-2005>
248.048477172852

> <r_mmod_Improper_Torsional_Energy-OPLS-2005>
5.79476642608643

> <r_mmod_Van_der_Waal_Energy-OPLS-2005>
167.013854980469

> <r_mmod_Electrostatic_Energy-OPLS-2005>
-453.191925048828

> <r_mmod_Solvation_Energy-OPLS-2005>
-496.666534423828

> <b_mmod_Minimization_Converged-OPLS-2005>
0

> <r_mmod_RMS_Derivative-OPLS-2005>
3.20047211647034

$$$$
70
                    3D
 Structure written by MMmdl.
167175  0  0  1  0            999 V2000
  -30.6104  -14.6813   20.4817 C   0  0  0  0  0  0
  -30.4433  -12.4146   19.4612 C   0  0  0  0  0  0
  -29.5147  -12.5149   18.2298 C   0  0  0  0  0  0
  -28.0361  -12.3501   18.6364 C   0  0  0  0  0  0
  -27.6548  -13.2206   19.8646 C   0  0  2  0  0  0
  -28.7008  -13.0894   20.9957 C   0  0  0  0  0  0
  -25.2569  -13.8171   20.5698 C   0  0  0  0  0  0
  -24.1842  -13.0428   20.9193 C   0  0  0  0  0  0
  -24.6420  -11.6908   20.8728 C   0  0  0  0  0  0
  -23.9095  -10.4284   21.0388 C   0  0  0  0  0  0
  -24.3639   -9.4203   21.9169 C   0  0  0  0  0  0
  -23.6310   -8.2240   22.0747 C   0  0  0  0  0  0
  -22.4288   -8.0284   21.3541 C   0  0  0  0  0  0
  -21.9927   -9.0264   20.4643 C   0  0  0  0  0  0
  -22.7263  -10.2128   20.3048 C   0  0  0  0  0  0
  -21.6847   -6.0741   22.5283 C   0  0  0  0  0  0
  -21.4001   -6.5643   23.8217 C   0  0  0  0  0  0
  -21.3661   -5.6792   24.9183 C   0  0  0  0  0  0
  -21.6053   -4.3060   24.7221 C   0  0  0  0  0  0
  -21.8823   -3.8148   23.4345 C   0  0  0  0  0  0
  -21.9188   -4.6966   22.3403 C   0  0  0  0  0  0
  -22.7866  -13.5220   21.1851 C   0  0  0  0  0  0
  -22.1660   -4.2156   21.0978 F   0  0  0  0  0  0
  -21.5637   -3.4542   25.7729 F   0  0  0  0  0  0
  -30.0145  -13.4429   20.4339 N   0  0  0  0  0  0
  -26.3011  -12.9367   20.3331 N   0  0  0  0  0  0
  -25.9350  -11.6515   20.5745 N   0  0  0  0  0  0
  -22.0503  -12.8219   22.0408 N   0  0  0  0  0  0
  -25.4267  -15.1900   20.4159 N   0  0  0  0  0  0
  -31.7628  -14.8472   20.0699 O   0  0  0  0  0  0
  -21.6646   -6.8884   21.4241 O   0  0  0  0  0  0
  -22.3551  -14.5524   20.6700 O   0  0  0  0  0  0
  -24.6278  -31.8588   23.2011 C   0  0  0  0  0  0
  -25.9127  -32.4772   23.8343 C   0  0  1  0  0  0
  -27.2280  -27.3187   20.1114 C   0  0  0  0  0  0
  -25.5932  -33.8570   24.2272 N   0  0  0  0  0  0
  -23.4242  -30.4809   21.5431 C   0  0  2  0  0  0
  -24.8744  -28.9348   20.1083 C   0  0  0  0  0  0
  -22.7501  -29.4625   22.4934 C   0  0  0  0  0  0
  -18.0289  -28.1394   22.8502 C   0  0  0  0  0  0
  -24.1490  -36.7287   23.2636 C   0  0  0  0  0  0
  -25.9664  -30.7855   21.3764 C   0  0  0  0  0  0
  -26.0435  -29.4134   20.7160 C   0  0  0  0  0  0
  -27.2268  -28.6142   20.7137 C   0  0  0  0  0  0
  -26.0420  -26.8930   19.4805 C   0  0  0  0  0  0
  -24.8738  -27.6784   19.4808 C   0  0  0  0  0  0
  -23.6416  -29.8141   20.1589 C   0  0  0  0  0  0
  -25.4111  -36.3071   24.0322 C   0  0  1  0  0  0
  -20.5895  -28.3696   23.1285 C   0  0  2  0  0  0
  -20.6782  -26.9417   22.5418 C   0  0  0  0  0  0
  -19.5751  -26.6387   21.5228 C   0  0  0  0  0  0
  -18.1927  -26.7942   22.1633 C   0  0  0  0  0  0
  -19.1547  -28.8861   23.2889 C   0  0  0  0  0  0
  -18.9468  -30.1465   23.8897 C   0  0  0  0  0  0
  -17.6467  -30.6593   24.0563 C   0  0  0  0  0  0
  -25.9057  -34.9446   23.5099 C   0  0  0  0  0  0
  -16.5358  -29.9092   23.6332 C   0  0  0  0  0  0
  -16.7274  -28.6514   23.0346 C   0  0  0  0  0  0
  -26.4493  -31.6589   25.0727 C   0  0  0  0  0  0
  -25.3733  -31.3738   26.1459 C   0  0  0  0  0  0
  -27.0323  -30.3006   24.6187 C   0  0  0  0  0  0
  -27.6050  -32.4328   25.7500 C   0  0  0  0  0  0
  -27.5580  -37.1786   24.8448 C   0  0  0  0  0  0
  -21.4213  -29.3040   22.3681 N   0  0  0  0  0  0
  -26.4284  -37.3771   23.9417 N   0  0  0  0  0  0
  -24.6913  -31.0591   22.0968 N   0  0  0  0  0  0
  -23.4221  -28.8174   23.3021 O   0  0  0  0  0  0
  -28.2813  -26.3953   20.1663 O   0  0  0  0  0  0
  -26.5622  -34.8917   22.4664 O   0  0  0  0  0  0
  -23.5437  -32.1389   23.7329 O   0  0  0  0  0  0
  -28.5724  -17.2763   19.5229 C   0  0  0  0  0  0
  -28.5907  -18.6916   19.3213 C   0  0  0  0  0  0
  -29.6236  -19.2625   20.0227 C   0  0  0  0  0  0
  -29.6327  -16.9882   20.3398 C   0  0  0  0  0  0
  -28.0617  -25.3305   21.0580 C   0  0  0  0  0  0
  -28.3729  -23.9792   21.0936 C   0  0  0  0  0  0
  -29.1025  -23.1192   20.1142 C   0  0  0  0  0  0
  -32.8087  -22.0468   18.8964 C   0  0  0  0  0  0
  -32.4144  -23.1235   21.1564 C   0  0  0  0  0  0
  -34.0483  -21.2791   20.9147 C   0  0  0  0  0  0
  -31.6201  -20.7052   20.7372 C   0  0  0  0  0  0
  -30.2133  -20.7167   20.0635 C   0  0  2  0  0  0
  -32.6845  -21.7989   20.4141 C   0  0  0  0  0  0
  -27.6948  -19.3768   18.5004 N   0  0  0  0  0  0
  -29.8255  -15.7270   20.9018 N   0  0  0  0  0  0
  -29.3395  -21.8409   20.5785 N   0  0  0  0  0  0
  -29.4899  -23.4937   19.0070 O   0  0  0  0  0  0
  -30.2645  -18.1917   20.6914 O   0  0  0  0  0  0
  -27.9463  -23.3316   22.1943 O   0  0  0  0  0  0
  -31.4835  -12.5455   19.1580 H   0  0  0  0  0  0
  -30.3869  -11.4198   19.9079 H   0  0  0  0  0  0
  -29.7892  -11.7573   17.4948 H   0  0  0  0  0  0
  -29.6585  -13.4791   17.7403 H   0  0  0  0  0  0
  -27.8748  -11.2967   18.8667 H   0  0  0  0  0  0
  -27.3845  -12.5781   17.7915 H   0  0  0  0  0  0
  -27.6661  -14.2538   19.5224 H   0  0  0  0  0  0
  -28.7196  -12.0690   21.3802 H   0  0  0  0  0  0
  -28.4367  -13.7203   21.8458 H   0  0  0  0  0  0
  -25.2777   -9.5684   22.4759 H   0  0  0  0  0  0
  -24.0020   -7.4628   22.7469 H   0  0  0  0  0  0
  -21.0854   -8.8790   19.8954 H   0  0  0  0  0  0
  -22.3723  -10.9676   19.6172 H   0  0  0  0  0  0
  -21.1985   -7.6148   23.9724 H   0  0  0  0  0  0
  -21.1485   -6.0523   25.9090 H   0  0  0  0  0  0
  -22.0597   -2.7613   23.2842 H   0  0  0  0  0  0
  -22.4103  -11.9873   22.4794 H   0  0  0  0  0  0
  -21.1123  -13.1252   22.2590 H   0  0  0  0  0  0
  -24.6620  -15.8448   20.5410 H   0  0  0  0  0  0
  -26.2845  -15.6356   20.1203 H   0  0  0  0  0  0
  -26.7213  -32.5430   23.1107 H   0  0  0  0  0  0
  -25.0077  -33.9716   25.0411 H   0  0  0  0  0  0
  -22.7191  -31.3016   21.3986 H   0  0  0  0  0  0
  -23.3759  -35.9609   23.3265 H   0  0  0  0  0  0
  -24.3605  -36.8943   22.2062 H   0  0  0  0  0  0
  -23.7232  -37.6470   23.6686 H   0  0  0  0  0  0
  -26.1027  -31.5486   20.6086 H   0  0  0  0  0  0
  -26.8465  -30.8336   22.0061 H   0  0  0  0  0  0
  -28.1204  -28.9671   21.2099 H   0  0  0  0  0  0
  -26.0158  -25.9175   19.0155 H   0  0  0  0  0  0
  -23.9774  -27.3022   19.0053 H   0  0  0  0  0  0
  -23.7580  -30.5894   19.4006 H   0  0  0  0  0  0
  -22.7633  -29.2407   19.8569 H   0  0  0  0  0  0
  -25.1297  -36.1898   25.0812 H   0  0  0  0  0  0
  -20.9986  -28.3264   24.1404 H   0  0  0  0  0  0
  -20.5683  -26.2311   23.3624 H   0  0  0  0  0  0
  -21.6650  -26.7440   22.1202 H   0  0  0  0  0  0
  -19.6903  -25.6296   21.1258 H   0  0  0  0  0  0
  -19.6683  -27.3202   20.6764 H   0  0  0  0  0  0
  -17.4205  -26.6701   21.4024 H   0  0  0  0  0  0
  -18.0306  -26.0085   22.9027 H   0  0  0  0  0  0
  -19.7942  -30.7286   24.2256 H   0  0  0  0  0  0
  -17.5014  -31.6269   24.5183 H   0  0  0  0  0  0
  -15.5357  -30.2983   23.7658 H   0  0  0  0  0  0
  -15.8682  -28.0831   22.7037 H   0  0  0  0  0  0
  -24.5886  -30.7114   25.7791 H   0  0  0  0  0  0
  -24.8953  -32.2913   26.4898 H   0  0  0  0  0  0
  -25.8057  -30.8898   27.0224 H   0  0  0  0  0  0
  -26.2890  -29.6777   24.1198 H   0  0  0  0  0  0
  -27.4002  -29.7236   25.4678 H   0  0  0  0  0  0
  -27.8770  -30.4285   23.9420 H   0  0  0  0  0  0
  -27.2647  -33.3622   26.2073 H   0  0  0  0  0  0
  -28.3851  -32.6904   25.0330 H   0  0  0  0  0  0
  -28.0725  -31.8465   26.5415 H   0  0  0  0  0  0
  -28.2553  -38.0126   24.7549 H   0  0  0  0  0  0
  -28.1127  -36.2662   24.6200 H   0  0  0  0  0  0
  -27.2323  -37.1330   25.8856 H   0  0  0  0  0  0
  -20.9402  -29.8777   21.6894 H   0  0  0  0  0  0
  -26.0150  -38.2832   24.1459 H   0  0  0  0  0  0
  -27.8674  -16.5647   19.1177 H   0  0  0  0  0  0
  -27.5155  -25.7251   21.9057 H   0  0  0  0  0  0
  -33.6603  -22.6854   18.6631 H   0  0  0  0  0  0
  -31.9294  -22.5415   18.4864 H   0  0  0  0  0  0
  -32.9440  -21.1140   18.3466 H   0  0  0  0  0  0
  -33.2965  -23.7651   21.1582 H   0  0  0  0  0  0
  -32.1375  -22.9511   22.1965 H   0  0  0  0  0  0
  -31.6254  -23.7081   20.6949 H   0  0  0  0  0  0
  -34.8417  -22.0072   20.7446 H   0  0  0  0  0  0
  -34.3474  -20.3633   20.4023 H   0  0  0  0  0  0
  -34.0267  -21.0647   21.9841 H   0  0  0  0  0  0
  -32.0909  -19.7736   20.4195 H   0  0  0  0  0  0
  -31.4984  -20.5980   21.8158 H   0  0  0  0  0  0
  -30.3735  -20.9564   19.0127 H   0  0  0  0  0  0
  -27.1587  -18.8641   17.8069 H   0  0  0  0  0  0
  -27.9065  -20.3295   18.2189 H   0  0  0  0  0  0
  -28.9855  -15.3647   21.3259 H   0  0  0  0  0  0
  -28.9121  -21.6800   21.4820 H   0  0  0  0  0  0
  -27.4817  -23.9555   22.7346 H   0  0  0  0  0  0
  1 25  1  0  0  0
  1 30  2  0  0  0
  1 85  1  0  0  0
  2  3  1  0  0  0
  2 25  1  0  0  0
  2 90  1  0  0  0
  2 91  1  0  0  0
  3  4  1  0  0  0
  3 92  1  0  0  0
  3 93  1  0  0  0
  4  5  1  0  0  0
  4 94  1  0  0  0
  4 95  1  0  0  0
  5  6  1  0  0  0
  5 26  1  0  0  0
  5 96  1  0  0  0
  6 25  1  0  0  0
  6 97  1  0  0  0
  6 98  1  0  0  0
  7  8  2  0  0  0
  7 26  1  0  0  0
  7 29  1  0  0  0
  8  9  1  0  0  0
  8 22  1  0  0  0
  9 10  1  0  0  0
  9 27  2  0  0  0
 10 11  2  0  0  0
 10 15  1  0  0  0
 11 12  1  0  0  0
 11 99  1  0  0  0
 12 13  2  0  0  0
 12100  1  0  0  0
 13 14  1  0  0  0
 13 31  1  0  0  0
 14 15  2  0  0  0
 14101  1  0  0  0
 15102  1  0  0  0
 16 17  2  0  0  0
 16 21  1  0  0  0
 16 31  1  0  0  0
 17 18  1  0  0  0
 17103  1  0  0  0
 18 19  2  0  0  0
 18104  1  0  0  0
 19 20  1  0  0  0
 19 24  1  0  0  0
 20 21  2  0  0  0
 20105  1  0  0  0
 21 23  1  0  0  0
 22 28  1  0  0  0
 22 32  2  0  0  0
 26 27  1  0  0  0
 28106  1  0  0  0
 28107  1  0  0  0
 29108  1  0  0  0
 29109  1  0  0  0
 33 34  1  0  0  0
 33 66  1  0  0  0
 33 70  2  0  0  0
 34 36  1  0  0  0
 34 59  1  0  0  0
 34110  1  0  0  0
 35 44  2  0  0  0
 35 45  1  0  0  0
 35 68  1  0  0  0
 36 56  1  0  0  0
 36111  1  0  0  0
 37 39  1  0  0  0
 37 47  1  0  0  0
 37 66  1  0  0  0
 37112  1  0  0  0
 38 43  2  0  0  0
 38 46  1  0  0  0
 38 47  1  0  0  0
 39 64  1  0  0  0
 39 67  2  0  0  0
 40 52  1  0  0  0
 40 53  2  0  0  0
 40 58  1  0  0  0
 41113  1  0  0  0
 41114  1  0  0  0
 41115  1  0  0  0
 41 48  1  0  0  0
 42 43  1  0  0  0
 42 66  1  0  0  0
 42116  1  0  0  0
 42117  1  0  0  0
 43 44  1  0  0  0
 44118  1  0  0  0
 45 46  2  0  0  0
 45119  1  0  0  0
 46120  1  0  0  0
 47121  1  0  0  0
 47122  1  0  0  0
 48 56  1  0  0  0
 48 65  1  0  0  0
 48123  1  0  0  0
 49 50  1  0  0  0
 49 53  1  0  0  0
 49 64  1  0  0  0
 49124  1  0  0  0
 50 51  1  0  0  0
 50125  1  0  0  0
 50126  1  0  0  0
 51 52  1  0  0  0
 51127  1  0  0  0
 51128  1  0  0  0
 52129  1  0  0  0
 52130  1  0  0  0
 53 54  1  0  0  0
 54 55  2  0  0  0
 54131  1  0  0  0
 55 57  1  0  0  0
 55132  1  0  0  0
 56 69  2  0  0  0
 57 58  2  0  0  0
 57133  1  0  0  0
 58134  1  0  0  0
 59 60  1  0  0  0
 59 61  1  0  0  0
 59 62  1  0  0  0
 60135  1  0  0  0
 60136  1  0  0  0
 60137  1  0  0  0
 61138  1  0  0  0
 61139  1  0  0  0
 61140  1  0  0  0
 62141  1  0  0  0
 62142  1  0  0  0
 62143  1  0  0  0
 63 65  1  0  0  0
 63144  1  0  0  0
 63145  1  0  0  0
 63146  1  0  0  0
 64147  1  0  0  0
 65148  1  0  0  0
 68 75  1  0  0  0
 71 72  1  0  0  0
 71 74  2  0  0  0
 71149  1  0  0  0
 72 73  2  0  0  0
 72 84  1  0  0  0
 73 82  1  0  0  0
 73 88  1  0  0  0
 74 85  1  0  0  0
 74 88  1  0  0  0
 75 76  2  0  0  0
 75150  1  0  0  0
 76 77  1  0  0  0
 76 89  1  0  0  0
 77 86  1  0  0  0
 77 87  2  0  0  0
 78151  1  0  0  0
 78152  1  0  0  0
 78153  1  0  0  0
 78 83  1  0  0  0
 79 83  1  0  0  0
 79154  1  0  0  0
 79155  1  0  0  0
 79156  1  0  0  0
 80 83  1  0  0  0
 80157  1  0  0  0
 80158  1  0  0  0
 80159  1  0  0  0
 81 83  1  0  0  0
 81160  1  0  0  0
 81161  1  0  0  0
 81 82  1  0  0  0
 82 86  1  0  0  0
 82162  1  0  0  0
 84163  1  0  0  0
 84164  1  0  0  0
 85165  1  0  0  0
 86166  1  0  0  0
 89167  1  0  0  0
M  ISO  4   1 100  68 101  75 101  85 100
M  END
> <chiral flag>
0

> <version>
0

> <s_m_source_file>
/data/baiqing/PycharmProjects/Reinvent-master-3.2/result/LINK_invent/BTK/process_docking_weight1_custom_product_contain_oxygen_bond_distance_aromatic_linkinvent_7_9_3/rearranged_h_0172.sdf

> <i_m_source_file_index>
71

> <r_mmod_Potential_Energy-OPLS-2005>
127.801940917969

> <r_mmod_Stretch_Energy-OPLS-2005>
87.881965637207

> <r_mmod_Bend_Energy-OPLS-2005>
206.794799804688

> <r_mmod_Torsional_Energy-OPLS-2005>
270.907745361328

> <r_mmod_Improper_Torsional_Energy-OPLS-2005>
10.23157787323

> <r_mmod_Van_der_Waal_Energy-OPLS-2005>
119.802742004395

> <r_mmod_Electrostatic_Energy-OPLS-2005>
-392.3427734375

> <r_mmod_Solvation_Energy-OPLS-2005>
-237.614395141602

> <b_mmod_Minimization_Converged-OPLS-2005>
0

> <r_mmod_RMS_Derivative-OPLS-2005>
2.09489250183105

$$$$
71
                    3D
 Structure written by MMmdl.
158166  0  0  1  0            999 V2000
  -30.6824  -14.5095   20.5307 C   0  0  0  0  0  0
  -30.4204  -12.3142   19.4458 C   0  0  0  0  0  0
  -29.5019  -12.5067   18.2200 C   0  0  0  0  0  0
  -28.0211  -12.3684   18.6237 C   0  0  0  0  0  0
  -27.6606  -13.2136   19.8745 C   0  0  2  0  0  0
  -28.6994  -13.0200   21.0037 C   0  0  0  0  0  0
  -25.2581  -13.8170   20.5687 C   0  0  0  0  0  0
  -24.1831  -13.0440   20.9164 C   0  0  0  0  0  0
  -24.6391  -11.6907   20.8712 C   0  0  0  0  0  0
  -23.9057  -10.4292   21.0384 C   0  0  0  0  0  0
  -24.3615   -9.4213   21.9169 C   0  0  0  0  0  0
  -23.6294   -8.2247   22.0743 C   0  0  0  0  0  0
  -22.4277   -8.0276   21.3533 C   0  0  0  0  0  0
  -21.9905   -9.0243   20.4634 C   0  0  0  0  0  0
  -22.7226  -10.2127   20.3037 C   0  0  0  0  0  0
  -21.6856   -6.0730   22.5274 C   0  0  0  0  0  0
  -21.4013   -6.5635   23.8208 C   0  0  0  0  0  0
  -21.3667   -5.6789   24.9173 C   0  0  0  0  0  0
  -21.6050   -4.3053   24.7225 C   0  0  0  0  0  0
  -21.8819   -3.8141   23.4348 C   0  0  0  0  0  0
  -21.9194   -4.6955   22.3402 C   0  0  0  0  0  0
  -22.7853  -13.5229   21.1839 C   0  0  0  0  0  0
  -22.1661   -4.2140   21.0982 F   0  0  0  0  0  0
  -21.5637   -3.4542   25.7743 F   0  0  0  0  0  0
  -30.0330  -13.3144   20.4557 N   0  0  0  0  0  0
  -26.3019  -12.9353   20.3350 N   0  0  0  0  0  0
  -25.9322  -11.6507   20.5741 N   0  0  0  0  0  0
  -22.0509  -12.8210   22.0401 N   0  0  0  0  0  0
  -25.4302  -15.1894   20.4130 N   0  0  0  0  0  0
  -31.8197  -14.6767   20.0795 O   0  0  0  0  0  0
  -21.6640   -6.8874   21.4235 O   0  0  0  0  0  0
  -22.3532  -14.5539   20.6702 O   0  0  0  0  0  0
  -24.6169  -31.8655   23.2098 C   0  0  0  0  0  0
  -25.9042  -32.4816   23.8402 C   0  0  1  0  0  0
  -27.2305  -27.4110   20.1067 C   0  0  0  0  0  0
  -25.5882  -33.8615   24.2323 N   0  0  0  0  0  0
  -23.4077  -30.4894   21.5497 C   0  0  2  0  0  0
  -24.8559  -28.9573   20.1106 C   0  0  0  0  0  0
  -22.7424  -29.4637   22.4969 C   0  0  0  0  0  0
  -18.0267  -28.1373   22.8497 C   0  0  0  0  0  0
  -24.1483  -36.7313   23.2644 C   0  0  0  0  0  0
  -25.9400  -30.8249   21.3679 C   0  0  0  0  0  0
  -26.0180  -29.4593   20.7123 C   0  0  0  0  0  0
  -27.2109  -28.6938   20.7070 C   0  0  0  0  0  0
  -26.0550  -26.9375   19.4842 C   0  0  0  0  0  0
  -24.8708  -27.6971   19.4900 C   0  0  0  0  0  0
  -23.6184  -29.8256   20.1628 C   0  0  0  0  0  0
  -25.4105  -36.3111   24.0345 C   0  0  1  0  0  0
  -20.5861  -28.3664   23.1313 C   0  0  2  0  0  0
  -20.6748  -26.9395   22.5417 C   0  0  0  0  0  0
  -19.5728  -26.6382   21.5209 C   0  0  0  0  0  0
  -18.1913  -26.7918   22.1627 C   0  0  0  0  0  0
  -19.1516  -28.8834   23.2909 C   0  0  0  0  0  0
  -18.9446  -30.1436   23.8926 C   0  0  0  0  0  0
  -17.6447  -30.6582   24.0566 C   0  0  0  0  0  0
  -25.9034  -34.9472   23.5138 C   0  0  0  0  0  0
  -16.5336  -29.9085   23.6324 C   0  0  0  0  0  0
  -16.7252  -28.6494   23.0357 C   0  0  0  0  0  0
  -26.4461  -31.6605   25.0735 C   0  0  0  0  0  0
  -25.3727  -31.3701   26.1480 C   0  0  0  0  0  0
  -27.0295  -30.3051   24.6119 C   0  0  0  0  0  0
  -27.6042  -32.4323   25.7490 C   0  0  0  0  0  0
  -27.5583  -37.1814   24.8468 C   0  0  0  0  0  0
  -21.4144  -29.3036   22.3726 N   0  0  0  0  0  0
  -26.4290  -37.3796   23.9416 N   0  0  0  0  0  0
  -24.6733  -31.0737   22.1011 N   0  0  0  0  0  0
  -23.4182  -28.8164   23.3012 O   0  0  0  0  0  0
  -28.3494  -26.5981   20.1424 O   0  0  0  0  0  0
  -26.5601  -34.8920   22.4703 O   0  0  0  0  0  0
  -23.5351  -32.1409   23.7473 O   0  0  0  0  0  0
  -29.6902  -18.0489   21.0592 C   0  0  0  0  0  0
  -29.8522  -16.9193   18.9180 C   0  0  0  0  0  0
  -29.5045  -19.3132   20.4196 C   0  0  0  0  0  0
  -29.8633  -16.8425   20.3268 C   0  0  0  0  0  0
  -29.4368  -19.3422   18.9946 C   0  0  0  0  0  0
  -29.6415  -18.1432   18.2626 C   0  0  0  0  0  0
  -28.1465  -25.3306   20.6701 C   0  0  0  0  0  0
  -28.9156  -24.2386   20.4341 C   0  0  0  0  0  0
  -28.5523  -22.9468   21.0483 C   0  0  0  0  0  0
  -28.1452  -20.4863   17.2652 C   0  0  0  0  0  0
  -29.3374  -20.5575   21.3399 C   0  0  0  0  0  0
  -29.9585  -15.5620   20.9800 N   0  0  0  0  0  0
  -29.1588  -20.5388   18.3130 N   0  0  0  0  0  0
  -29.4084  -21.9349   20.7836 N   0  0  0  0  0  0
  -27.5556  -22.7712   21.7517 O   0  0  0  0  0  0
  -29.9954  -24.3301   19.6424 O   0  0  0  0  0  0
  -29.6337  -18.1481   16.9060 F   0  0  0  0  0  0
  -31.4680  -12.4015   19.1523 H   0  0  0  0  0  0
  -30.3090  -11.3082   19.8532 H   0  0  0  0  0  0
  -29.7469  -11.7766   17.4476 H   0  0  0  0  0  0
  -29.6749  -13.4897   17.7774 H   0  0  0  0  0  0
  -27.8304  -11.3134   18.8214 H   0  0  0  0  0  0
  -27.3756  -12.6398   17.7881 H   0  0  0  0  0  0
  -27.6972  -14.2583   19.5658 H   0  0  0  0  0  0
  -28.6735  -11.9941   21.3743 H   0  0  0  0  0  0
  -28.4609  -13.6500   21.8619 H   0  0  0  0  0  0
  -25.2765   -9.5698   22.4736 H   0  0  0  0  0  0
  -24.0007   -7.4647   22.7467 H   0  0  0  0  0  0
  -21.0833   -8.8747   19.8951 H   0  0  0  0  0  0
  -22.3671  -10.9655   19.6142 H   0  0  0  0  0  0
  -21.1993   -7.6144   23.9708 H   0  0  0  0  0  0
  -21.1494   -6.0522   25.9078 H   0  0  0  0  0  0
  -22.0593   -2.7602   23.2849 H   0  0  0  0  0  0
  -22.4138  -11.9868   22.4770 H   0  0  0  0  0  0
  -21.1127  -13.1219   22.2630 H   0  0  0  0  0  0
  -24.6648  -15.8456   20.5240 H   0  0  0  0  0  0
  -26.2906  -15.6304   20.1134 H   0  0  0  0  0  0
  -26.7117  -32.5513   23.1173 H   0  0  0  0  0  0
  -25.0024  -33.9780   25.0459 H   0  0  0  0  0  0
  -22.6990  -31.3084   21.4111 H   0  0  0  0  0  0
  -23.3742  -35.9650   23.3308 H   0  0  0  0  0  0
  -24.3588  -36.8921   22.2061 H   0  0  0  0  0  0
  -23.7229  -37.6518   23.6651 H   0  0  0  0  0  0
  -26.0566  -31.5912   20.6004 H   0  0  0  0  0  0
  -26.8272  -30.8767   21.9875 H   0  0  0  0  0  0
  -28.1038  -29.0694   21.1851 H   0  0  0  0  0  0
  -26.0500  -25.9668   19.0077 H   0  0  0  0  0  0
  -23.9796  -27.3060   19.0176 H   0  0  0  0  0  0
  -23.7298  -30.6035   19.4068 H   0  0  0  0  0  0
  -22.7427  -29.2475   19.8621 H   0  0  0  0  0  0
  -25.1284  -36.1987   25.0840 H   0  0  0  0  0  0
  -20.9962  -28.3210   24.1427 H   0  0  0  0  0  0
  -20.5627  -26.2267   23.3605 H   0  0  0  0  0  0
  -21.6623  -26.7412   22.1225 H   0  0  0  0  0  0
  -19.6887  -25.6295   21.1232 H   0  0  0  0  0  0
  -19.6668  -27.3198   20.6746 H   0  0  0  0  0  0
  -17.4181  -26.6663   21.4035 H   0  0  0  0  0  0
  -18.0321  -26.0054   22.9019 H   0  0  0  0  0  0
  -19.7920  -30.7246   24.2315 H   0  0  0  0  0  0
  -17.4997  -31.6268   24.5152 H   0  0  0  0  0  0
  -15.5338  -30.3000   23.7627 H   0  0  0  0  0  0
  -15.8646  -28.0815   22.7075 H   0  0  0  0  0  0
  -24.5901  -30.7050   25.7805 H   0  0  0  0  0  0
  -24.8913  -32.2849   26.4953 H   0  0  0  0  0  0
  -25.8081  -30.8848   27.0225 H   0  0  0  0  0  0
  -26.2841  -29.6821   24.1160 H   0  0  0  0  0  0
  -27.4048  -29.7281   25.4580 H   0  0  0  0  0  0
  -27.8684  -30.4377   23.9284 H   0  0  0  0  0  0
  -27.2672  -33.3622   26.2086 H   0  0  0  0  0  0
  -28.3838  -32.6887   25.0302 H   0  0  0  0  0  0
  -28.0726  -31.8432   26.5389 H   0  0  0  0  0  0
  -28.2606  -38.0106   24.7521 H   0  0  0  0  0  0
  -28.1072  -36.2643   24.6286 H   0  0  0  0  0  0
  -27.2306  -37.1455   25.8870 H   0  0  0  0  0  0
  -20.9290  -29.8792   21.6987 H   0  0  0  0  0  0
  -26.0180  -38.2876   24.1408 H   0  0  0  0  0  0
  -29.6971  -18.0103   22.1404 H   0  0  0  0  0  0
  -29.9742  -16.0353   18.3103 H   0  0  0  0  0  0
  -27.2750  -25.2910   21.3140 H   0  0  0  0  0  0
  -27.6066  -21.4336   17.2179 H   0  0  0  0  0  0
  -27.4126  -19.6974   17.4460 H   0  0  0  0  0  0
  -28.5998  -20.3181   16.2883 H   0  0  0  0  0  0
  -30.1150  -20.4994   22.1026 H   0  0  0  0  0  0
  -28.3993  -20.4170   21.8793 H   0  0  0  0  0  0
  -29.1809  -15.3228   21.5780 H   0  0  0  0  0  0
  -29.0382  -21.3228   18.9485 H   0  0  0  0  0  0
  -30.2320  -22.1902   20.2520 H   0  0  0  0  0  0
  -30.0492  -25.2350   19.3600 H   0  0  0  0  0  0
  1 25  1  0  0  0
  1 30  2  0  0  0
  1 82  1  0  0  0
  2  3  1  0  0  0
  2 25  1  0  0  0
  2 88  1  0  0  0
  2 89  1  0  0  0
  3  4  1  0  0  0
  3 90  1  0  0  0
  3 91  1  0  0  0
  4  5  1  0  0  0
  4 92  1  0  0  0
  4 93  1  0  0  0
  5  6  1  0  0  0
  5 26  1  0  0  0
  5 94  1  0  0  0
  6 25  1  0  0  0
  6 95  1  0  0  0
  6 96  1  0  0  0
  7  8  2  0  0  0
  7 26  1  0  0  0
  7 29  1  0  0  0
  8  9  1  0  0  0
  8 22  1  0  0  0
  9 10  1  0  0  0
  9 27  2  0  0  0
 10 11  2  0  0  0
 10 15  1  0  0  0
 11 12  1  0  0  0
 11 97  1  0  0  0
 12 13  2  0  0  0
 12 98  1  0  0  0
 13 14  1  0  0  0
 13 31  1  0  0  0
 14 15  2  0  0  0
 14 99  1  0  0  0
 15100  1  0  0  0
 16 17  2  0  0  0
 16 21  1  0  0  0
 16 31  1  0  0  0
 17 18  1  0  0  0
 17101  1  0  0  0
 18 19  2  0  0  0
 18102  1  0  0  0
 19 20  1  0  0  0
 19 24  1  0  0  0
 20 21  2  0  0  0
 20103  1  0  0  0
 21 23  1  0  0  0
 22 28  1  0  0  0
 22 32  2  0  0  0
 26 27  1  0  0  0
 28104  1  0  0  0
 28105  1  0  0  0
 29106  1  0  0  0
 29107  1  0  0  0
 33 34  1  0  0  0
 33 66  1  0  0  0
 33 70  2  0  0  0
 34 36  1  0  0  0
 34 59  1  0  0  0
 34108  1  0  0  0
 35 44  2  0  0  0
 35 45  1  0  0  0
 35 68  1  0  0  0
 36 56  1  0  0  0
 36109  1  0  0  0
 37 39  1  0  0  0
 37 47  1  0  0  0
 37 66  1  0  0  0
 37110  1  0  0  0
 38 43  2  0  0  0
 38 46  1  0  0  0
 38 47  1  0  0  0
 39 64  1  0  0  0
 39 67  2  0  0  0
 40 52  1  0  0  0
 40 53  2  0  0  0
 40 58  1  0  0  0
 41111  1  0  0  0
 41112  1  0  0  0
 41113  1  0  0  0
 41 48  1  0  0  0
 42 43  1  0  0  0
 42 66  1  0  0  0
 42114  1  0  0  0
 42115  1  0  0  0
 43 44  1  0  0  0
 44116  1  0  0  0
 45 46  2  0  0  0
 45117  1  0  0  0
 46118  1  0  0  0
 47119  1  0  0  0
 47120  1  0  0  0
 48 56  1  0  0  0
 48 65  1  0  0  0
 48121  1  0  0  0
 49 50  1  0  0  0
 49 53  1  0  0  0
 49 64  1  0  0  0
 49122  1  0  0  0
 50 51  1  0  0  0
 50123  1  0  0  0
 50124  1  0  0  0
 51 52  1  0  0  0
 51125  1  0  0  0
 51126  1  0  0  0
 52127  1  0  0  0
 52128  1  0  0  0
 53 54  1  0  0  0
 54 55  2  0  0  0
 54129  1  0  0  0
 55 57  1  0  0  0
 55130  1  0  0  0
 56 69  2  0  0  0
 57 58  2  0  0  0
 57131  1  0  0  0
 58132  1  0  0  0
 59 60  1  0  0  0
 59 61  1  0  0  0
 59 62  1  0  0  0
 60133  1  0  0  0
 60134  1  0  0  0
 60135  1  0  0  0
 61136  1  0  0  0
 61137  1  0  0  0
 61138  1  0  0  0
 62139  1  0  0  0
 62140  1  0  0  0
 62141  1  0  0  0
 63 65  1  0  0  0
 63142  1  0  0  0
 63143  1  0  0  0
 63144  1  0  0  0
 64145  1  0  0  0
 65146  1  0  0  0
 68 77  1  0  0  0
 71 73  2  0  0  0
 71 74  1  0  0  0
 71147  1  0  0  0
 72 74  2  0  0  0
 72 76  1  0  0  0
 72148  1  0  0  0
 73 75  1  0  0  0
 73 81  1  0  0  0
 74 82  1  0  0  0
 75 76  2  0  0  0
 75 83  1  0  0  0
 76 87  1  0  0  0
 77 78  2  0  0  0
 77149  1  0  0  0
 78 79  1  0  0  0
 78 86  1  0  0  0
 79 84  1  0  0  0
 79 85  2  0  0  0
 80 83  1  0  0  0
 80150  1  0  0  0
 80151  1  0  0  0
 80152  1  0  0  0
 81 84  1  0  0  0
 81153  1  0  0  0
 81154  1  0  0  0
 82155  1  0  0  0
 83156  1  0  0  0
 84157  1  0  0  0
 86158  1  0  0  0
M  ISO  4   1 100  68 101  77 101  82 100
M  END
> <chiral flag>
0

> <version>
0

> <s_m_source_file>
/data/baiqing/PycharmProjects/Reinvent-master-3.2/result/LINK_invent/BTK/process_docking_weight1_custom_product_contain_oxygen_bond_distance_aromatic_linkinvent_7_9_3/rearranged_h_0172.sdf

> <i_m_source_file_index>
72

> <r_mmod_Potential_Energy-OPLS-2005>
-69.7408142089844

> <r_mmod_Stretch_Energy-OPLS-2005>
48.5436134338379

> <r_mmod_Bend_Energy-OPLS-2005>
106.898956298828

> <r_mmod_Torsional_Energy-OPLS-2005>
230.530624389648

> <r_mmod_Improper_Torsional_Energy-OPLS-2005>
10.0213899612427

> <r_mmod_Van_der_Waal_Energy-OPLS-2005>
165.947891235352

> <r_mmod_Electrostatic_Energy-OPLS-2005>
-414.409301757812

> <r_mmod_Solvation_Energy-OPLS-2005>
-236.746063232422

> <b_mmod_Minimization_Converged-OPLS-2005>
0

> <r_mmod_RMS_Derivative-OPLS-2005>
1.1917142868042

$$$$
72
                    3D
 Structure written by MMmdl.
151159  0  0  1  0            999 V2000
  -30.6848  -14.5003   20.4826 C   0  0  0  0  0  0
  -30.4173  -12.3009   19.4251 C   0  0  0  0  0  0
  -29.4905  -12.4855   18.2043 C   0  0  0  0  0  0
  -28.0122  -12.3515   18.6104 C   0  0  0  0  0  0
  -27.6513  -13.2100   19.8523 C   0  0  2  0  0  0
  -28.6943  -13.0255   20.9796 C   0  0  0  0  0  0
  -25.2570  -13.8129   20.5672 C   0  0  0  0  0  0
  -24.1817  -13.0412   20.9184 C   0  0  0  0  0  0
  -24.6361  -11.6895   20.8666 C   0  0  0  0  0  0
  -23.9004  -10.4286   21.0377 C   0  0  0  0  0  0
  -24.3561   -9.4221   21.9163 C   0  0  0  0  0  0
  -23.6253   -8.2241   22.0731 C   0  0  0  0  0  0
  -22.4261   -8.0239   21.3522 C   0  0  0  0  0  0
  -21.9874   -9.0210   20.4636 C   0  0  0  0  0  0
  -22.7177  -10.2104   20.3039 C   0  0  0  0  0  0
  -21.6869   -6.0706   22.5279 C   0  0  0  0  0  0
  -21.4010   -6.5623   23.8207 C   0  0  0  0  0  0
  -21.3665   -5.6767   24.9153 C   0  0  0  0  0  0
  -21.6042   -4.3034   24.7224 C   0  0  0  0  0  0
  -21.8825   -3.8105   23.4337 C   0  0  0  0  0  0
  -21.9227   -4.6933   22.3400 C   0  0  0  0  0  0
  -22.7858  -13.5250   21.1816 C   0  0  0  0  0  0
  -22.1684   -4.2135   21.0967 F   0  0  0  0  0  0
  -21.5646   -3.4518   25.7728 F   0  0  0  0  0  0
  -30.0269  -13.3099   20.4241 N   0  0  0  0  0  0
  -26.2973  -12.9310   20.3242 N   0  0  0  0  0  0
  -25.9286  -11.6464   20.5671 N   0  0  0  0  0  0
  -22.0437  -12.8302   22.0343 N   0  0  0  0  0  0
  -25.4299  -15.1864   20.4147 N   0  0  0  0  0  0
  -31.8523  -14.6290   20.1051 O   0  0  0  0  0  0
  -21.6620   -6.8841   21.4238 O   0  0  0  0  0  0
  -22.3576  -14.5571   20.6650 O   0  0  0  0  0  0
  -24.6168  -31.8637   23.2039 C   0  0  0  0  0  0
  -25.9055  -32.4802   23.8314 C   0  0  1  0  0  0
  -27.2501  -27.4076   20.0817 C   0  0  0  0  0  0
  -25.5921  -33.8602   24.2246 N   0  0  0  0  0  0
  -23.4076  -30.4851   21.5439 C   0  0  2  0  0  0
  -24.8561  -28.9344   20.1217 C   0  0  0  0  0  0
  -22.7419  -29.4654   22.4947 C   0  0  0  0  0  0
  -18.0289  -28.1410   22.8494 C   0  0  0  0  0  0
  -24.1500  -36.7277   23.2631 C   0  0  0  0  0  0
  -25.9398  -30.8161   21.3619 C   0  0  0  0  0  0
  -26.0199  -29.4457   20.7109 C   0  0  0  0  0  0
  -27.2198  -28.6919   20.6829 C   0  0  0  0  0  0
  -26.0644  -26.9090   19.4996 C   0  0  0  0  0  0
  -24.8705  -27.6615   19.5247 C   0  0  0  0  0  0
  -23.6195  -29.8065   20.1663 C   0  0  0  0  0  0
  -25.4124  -36.3090   24.0338 C   0  0  1  0  0  0
  -20.5878  -28.3702   23.1332 C   0  0  2  0  0  0
  -20.6775  -26.9440   22.5436 C   0  0  0  0  0  0
  -19.5749  -26.6411   21.5240 C   0  0  0  0  0  0
  -18.1925  -26.7953   22.1636 C   0  0  0  0  0  0
  -19.1537  -28.8869   23.2905 C   0  0  0  0  0  0
  -18.9444  -30.1469   23.8923 C   0  0  0  0  0  0
  -17.6441  -30.6611   24.0573 C   0  0  0  0  0  0
  -25.9068  -34.9478   23.5087 C   0  0  0  0  0  0
  -16.5341  -29.9107   23.6348 C   0  0  0  0  0  0
  -16.7268  -28.6535   23.0352 C   0  0  0  0  0  0
  -26.4484  -31.6590   25.0651 C   0  0  0  0  0  0
  -25.3751  -31.3695   26.1379 C   0  0  0  0  0  0
  -27.0305  -30.3029   24.6042 C   0  0  0  0  0  0
  -27.6056  -32.4309   25.7432 C   0  0  0  0  0  0
  -27.5610  -37.1764   24.8450 C   0  0  0  0  0  0
  -21.4143  -29.3054   22.3711 N   0  0  0  0  0  0
  -26.4298  -37.3793   23.9442 N   0  0  0  0  0  0
  -24.6721  -31.0699   22.0947 N   0  0  0  0  0  0
  -23.4194  -28.8206   23.2990 O   0  0  0  0  0  0
  -28.4252  -26.6776   20.0104 O   0  0  0  0  0  0
  -26.5619  -34.8963   22.4647 O   0  0  0  0  0  0
  -23.5350  -32.1410   23.7418 O   0  0  0  0  0  0
  -30.2674  -18.7304   18.5363 C   0  0  0  0  0  0
  -29.7887  -19.0980   19.7834 C   0  0  0  0  0  0
  -30.0012  -16.8274   20.0946 C   0  0  0  0  0  0
  -30.6913  -19.4743   17.3540 C   0  0  0  0  0  0
  -28.9918  -22.8124   20.4170 C   0  0  0  0  0  0
  -28.9842  -21.4868   19.5778 C   0  0  0  0  0  0
  -28.8319  -24.1650   19.6710 C   0  0  0  0  0  0
  -28.4311  -25.3575   20.6016 C   0  0  0  0  0  0
  -29.6419  -17.9968   20.6609 N   0  0  0  0  0  0
  -29.5528  -20.4452   20.2310 N   0  0  0  0  0  0
  -29.9389  -15.5803   20.7949 N   0  0  0  0  0  0
  -31.1559  -20.6187   17.4059 O   0  0  0  0  0  0
  -29.1365  -22.7785   21.6475 O   0  0  0  0  0  0
  -28.4760  -21.4277   18.4520 O   0  0  0  0  0  0
  -30.4820  -17.0005   18.4070 S   0  0  0  0  0  0
  -31.4606  -12.3981   19.1118 H   0  0  0  0  0  0
  -30.3162  -11.2936   19.8365 H   0  0  0  0  0  0
  -29.7380  -11.7577   17.4312 H   0  0  0  0  0  0
  -29.6578  -13.4672   17.7574 H   0  0  0  0  0  0
  -27.8225  -11.2984   18.8189 H   0  0  0  0  0  0
  -27.3629  -12.6093   17.7748 H   0  0  0  0  0  0
  -27.6829  -14.2490   19.5236 H   0  0  0  0  0  0
  -28.6622  -12.0044   21.3569 H   0  0  0  0  0  0
  -28.4558  -13.6665   21.8335 H   0  0  0  0  0  0
  -25.2712   -9.5740   22.4707 H   0  0  0  0  0  0
  -23.9984   -7.4663   22.7491 H   0  0  0  0  0  0
  -21.0788   -8.8713   19.8992 H   0  0  0  0  0  0
  -22.3600  -10.9604   19.6112 H   0  0  0  0  0  0
  -21.1942   -7.6118   23.9707 H   0  0  0  0  0  0
  -21.1512   -6.0481   25.9087 H   0  0  0  0  0  0
  -22.0605   -2.7584   23.2809 H   0  0  0  0  0  0
  -22.3945  -11.9964   22.4829 H   0  0  0  0  0  0
  -21.1053  -13.1404   22.2468 H   0  0  0  0  0  0
  -24.6633  -15.8381   20.5462 H   0  0  0  0  0  0
  -26.2743  -15.6301   20.0737 H   0  0  0  0  0  0
  -26.7114  -32.5506   23.1066 H   0  0  0  0  0  0
  -25.0119  -33.9741   25.0416 H   0  0  0  0  0  0
  -22.7005  -31.3040   21.3992 H   0  0  0  0  0  0
  -23.3823  -35.9547   23.3238 H   0  0  0  0  0  0
  -24.3580  -36.8947   22.2056 H   0  0  0  0  0  0
  -23.7214  -37.6451   23.6661 H   0  0  0  0  0  0
  -26.0558  -31.5789   20.5909 H   0  0  0  0  0  0
  -26.8290  -30.8745   21.9793 H   0  0  0  0  0  0
  -28.1263  -29.0831   21.1249 H   0  0  0  0  0  0
  -26.0645  -25.9432   19.0151 H   0  0  0  0  0  0
  -23.9701  -27.2583   19.0831 H   0  0  0  0  0  0
  -23.7325  -30.5730   19.3999 H   0  0  0  0  0  0
  -22.7460  -29.2239   19.8687 H   0  0  0  0  0  0
  -25.1307  -36.1926   25.0832 H   0  0  0  0  0  0
  -20.9993  -28.3283   24.1441 H   0  0  0  0  0  0
  -20.5758  -26.2287   23.3615 H   0  0  0  0  0  0
  -21.6628  -26.7508   22.1182 H   0  0  0  0  0  0
  -19.6908  -25.6327   21.1258 H   0  0  0  0  0  0
  -19.6717  -27.3244   20.6790 H   0  0  0  0  0  0
  -17.4215  -26.6746   21.4016 H   0  0  0  0  0  0
  -18.0297  -26.0100   22.9033 H   0  0  0  0  0  0
  -19.7916  -30.7276   24.2320 H   0  0  0  0  0  0
  -17.5007  -31.6299   24.5153 H   0  0  0  0  0  0
  -15.5349  -30.3011   23.7662 H   0  0  0  0  0  0
  -15.8669  -28.0877   22.7021 H   0  0  0  0  0  0
  -24.5914  -30.7079   25.7666 H   0  0  0  0  0  0
  -24.8963  -32.2862   26.4838 H   0  0  0  0  0  0
  -25.8090  -30.8809   27.0122 H   0  0  0  0  0  0
  -26.2816  -29.6790   24.1155 H   0  0  0  0  0  0
  -27.4129  -29.7265   25.4479 H   0  0  0  0  0  0
  -27.8644  -30.4304   23.9140 H   0  0  0  0  0  0
  -27.2663  -33.3601   26.2021 H   0  0  0  0  0  0
  -28.3877  -32.6892   25.0278 H   0  0  0  0  0  0
  -28.0734  -31.8434   26.5341 H   0  0  0  0  0  0
  -28.2541  -38.0145   24.7645 H   0  0  0  0  0  0
  -28.1193  -36.2693   24.6088 H   0  0  0  0  0  0
  -27.2324  -37.1210   25.8840 H   0  0  0  0  0  0
  -20.9312  -29.8723   21.6888 H   0  0  0  0  0  0
  -26.0181  -38.2851   24.1530 H   0  0  0  0  0  0
  -30.5823  -18.9329   16.4143 H   0  0  0  0  0  0
  -28.0916  -24.0397   18.8819 H   0  0  0  0  0  0
  -29.7853  -24.3695   19.1781 H   0  0  0  0  0  0
  -29.1553  -25.4179   21.4151 H   0  0  0  0  0  0
  -27.4733  -25.1312   21.0727 H   0  0  0  0  0  0
  -29.7726  -20.6547   21.1966 H   0  0  0  0  0  0
  -29.0960  -15.4105   21.3171 H   0  0  0  0  0  0
  1 25  1  0  0  0
  1 30  2  0  0  0
  1 81  1  0  0  0
  2  3  1  0  0  0
  2 25  1  0  0  0
  2 86  1  0  0  0
  2 87  1  0  0  0
  3  4  1  0  0  0
  3 88  1  0  0  0
  3 89  1  0  0  0
  4  5  1  0  0  0
  4 90  1  0  0  0
  4 91  1  0  0  0
  5  6  1  0  0  0
  5 26  1  0  0  0
  5 92  1  0  0  0
  6 25  1  0  0  0
  6 93  1  0  0  0
  6 94  1  0  0  0
  7  8  2  0  0  0
  7 26  1  0  0  0
  7 29  1  0  0  0
  8  9  1  0  0  0
  8 22  1  0  0  0
  9 10  1  0  0  0
  9 27  2  0  0  0
 10 11  2  0  0  0
 10 15  1  0  0  0
 11 12  1  0  0  0
 11 95  1  0  0  0
 12 13  2  0  0  0
 12 96  1  0  0  0
 13 14  1  0  0  0
 13 31  1  0  0  0
 14 15  2  0  0  0
 14 97  1  0  0  0
 15 98  1  0  0  0
 16 17  2  0  0  0
 16 21  1  0  0  0
 16 31  1  0  0  0
 17 18  1  0  0  0
 17 99  1  0  0  0
 18 19  2  0  0  0
 18100  1  0  0  0
 19 20  1  0  0  0
 19 24  1  0  0  0
 20 21  2  0  0  0
 20101  1  0  0  0
 21 23  1  0  0  0
 22 28  1  0  0  0
 22 32  2  0  0  0
 26 27  1  0  0  0
 28102  1  0  0  0
 28103  1  0  0  0
 29104  1  0  0  0
 29105  1  0  0  0
 33 34  1  0  0  0
 33 66  1  0  0  0
 33 70  2  0  0  0
 34 36  1  0  0  0
 34 59  1  0  0  0
 34106  1  0  0  0
 35 44  2  0  0  0
 35 45  1  0  0  0
 35 68  1  0  0  0
 36 56  1  0  0  0
 36107  1  0  0  0
 37 39  1  0  0  0
 37 47  1  0  0  0
 37 66  1  0  0  0
 37108  1  0  0  0
 38 43  2  0  0  0
 38 46  1  0  0  0
 38 47  1  0  0  0
 39 64  1  0  0  0
 39 67  2  0  0  0
 40 52  1  0  0  0
 40 53  2  0  0  0
 40 58  1  0  0  0
 41109  1  0  0  0
 41110  1  0  0  0
 41111  1  0  0  0
 41 48  1  0  0  0
 42 43  1  0  0  0
 42 66  1  0  0  0
 42112  1  0  0  0
 42113  1  0  0  0
 43 44  1  0  0  0
 44114  1  0  0  0
 45 46  2  0  0  0
 45115  1  0  0  0
 46116  1  0  0  0
 47117  1  0  0  0
 47118  1  0  0  0
 48 56  1  0  0  0
 48 65  1  0  0  0
 48119  1  0  0  0
 49 50  1  0  0  0
 49 53  1  0  0  0
 49 64  1  0  0  0
 49120  1  0  0  0
 50 51  1  0  0  0
 50121  1  0  0  0
 50122  1  0  0  0
 51 52  1  0  0  0
 51123  1  0  0  0
 51124  1  0  0  0
 52125  1  0  0  0
 52126  1  0  0  0
 53 54  1  0  0  0
 54 55  2  0  0  0
 54127  1  0  0  0
 55 57  1  0  0  0
 55128  1  0  0  0
 56 69  2  0  0  0
 57 58  2  0  0  0
 57129  1  0  0  0
 58130  1  0  0  0
 59 60  1  0  0  0
 59 61  1  0  0  0
 59 62  1  0  0  0
 60131  1  0  0  0
 60132  1  0  0  0
 60133  1  0  0  0
 61134  1  0  0  0
 61135  1  0  0  0
 61136  1  0  0  0
 62137  1  0  0  0
 62138  1  0  0  0
 62139  1  0  0  0
 63 65  1  0  0  0
 63140  1  0  0  0
 63141  1  0  0  0
 63142  1  0  0  0
 64143  1  0  0  0
 65144  1  0  0  0
 68 78  1  0  0  0
 71 72  2  0  0  0
 71 74  1  0  0  0
 71 85  1  0  0  0
 72 79  1  0  0  0
 72 80  1  0  0  0
 73 79  2  0  0  0
 73 81  1  0  0  0
 73 85  1  0  0  0
 74 82  2  0  0  0
 74145  1  0  0  0
 75 76  1  0  0  0
 75 77  1  0  0  0
 75 83  2  0  0  0
 76 80  1  0  0  0
 76 84  2  0  0  0
 77 78  1  0  0  0
 77146  1  0  0  0
 77147  1  0  0  0
 78148  1  0  0  0
 78149  1  0  0  0
 80150  1  0  0  0
 81151  1  0  0  0
M  ISO  4   1 100  68 101  78 101  81 100
M  END
> <chiral flag>
0

> <version>
0

> <s_m_source_file>
/data/baiqing/PycharmProjects/Reinvent-master-3.2/result/LINK_invent/BTK/process_docking_weight1_custom_product_contain_oxygen_bond_distance_aromatic_linkinvent_7_9_3/rearranged_h_0172.sdf

> <i_m_source_file_index>
73

> <r_mmod_Potential_Energy-OPLS-2005>
-139.939529418945

> <r_mmod_Stretch_Energy-OPLS-2005>
44.1131210327148

> <r_mmod_Bend_Energy-OPLS-2005>
108.361694335938

> <r_mmod_Torsional_Energy-OPLS-2005>
271.402160644531

> <r_mmod_Improper_Torsional_Energy-OPLS-2005>
6.16635227203369

> <r_mmod_Van_der_Waal_Energy-OPLS-2005>
126.556137084961

> <r_mmod_Electrostatic_Energy-OPLS-2005>
-474.100677490234

> <r_mmod_Solvation_Energy-OPLS-2005>
-241.470306396484

> <b_mmod_Minimization_Converged-OPLS-2005>
0

> <r_mmod_RMS_Derivative-OPLS-2005>
5.80492067337036

$$$$
73
                    3D
 Structure written by MMmdl.
149157  0  0  1  0            999 V2000
  -30.5834  -14.6993   20.4974 C   0  0  0  0  0  0
  -30.4491  -12.4311   19.4597 C   0  0  0  0  0  0
  -29.5149  -12.5202   18.2304 C   0  0  0  0  0  0
  -28.0383  -12.3443   18.6409 C   0  0  0  0  0  0
  -27.6538  -13.2173   19.8644 C   0  0  2  0  0  0
  -28.6986  -13.0809   20.9951 C   0  0  0  0  0  0
  -25.2568  -13.8167   20.5683 C   0  0  0  0  0  0
  -24.1834  -13.0437   20.9193 C   0  0  0  0  0  0
  -24.6400  -11.6906   20.8740 C   0  0  0  0  0  0
  -23.9066  -10.4291   21.0406 C   0  0  0  0  0  0
  -24.3616   -9.4206   21.9186 C   0  0  0  0  0  0
  -23.6292   -8.2242   22.0753 C   0  0  0  0  0  0
  -22.4274   -8.0280   21.3544 C   0  0  0  0  0  0
  -21.9909   -9.0254   20.4647 C   0  0  0  0  0  0
  -22.7237  -10.2133   20.3056 C   0  0  0  0  0  0
  -21.6852   -6.0736   22.5280 C   0  0  0  0  0  0
  -21.4012   -6.5639   23.8214 C   0  0  0  0  0  0
  -21.3661   -5.6792   24.9176 C   0  0  0  0  0  0
  -21.6046   -4.3055   24.7225 C   0  0  0  0  0  0
  -21.8819   -3.8147   23.4346 C   0  0  0  0  0  0
  -21.9192   -4.6964   22.3404 C   0  0  0  0  0  0
  -22.7854  -13.5235   21.1852 C   0  0  0  0  0  0
  -22.1660   -4.2150   21.0981 F   0  0  0  0  0  0
  -21.5632   -3.4539   25.7738 F   0  0  0  0  0  0
  -30.0092  -13.4514   20.4352 N   0  0  0  0  0  0
  -26.2992  -12.9345   20.3316 N   0  0  0  0  0  0
  -25.9330  -11.6501   20.5756 N   0  0  0  0  0  0
  -22.0487  -12.8232   22.0404 N   0  0  0  0  0  0
  -25.4289  -15.1886   20.4079 N   0  0  0  0  0  0
  -31.7355  -14.8936   20.0983 O   0  0  0  0  0  0
  -21.6639   -6.8877   21.4240 O   0  0  0  0  0  0
  -22.3546  -14.5543   20.6700 O   0  0  0  0  0  0
  -24.6288  -31.8573   23.1999 C   0  0  0  0  0  0
  -25.9122  -32.4766   23.8342 C   0  0  1  0  0  0
  -27.2280  -27.2904   20.1279 C   0  0  0  0  0  0
  -25.5931  -33.8567   24.2268 N   0  0  0  0  0  0
  -23.4251  -30.4787   21.5425 C   0  0  2  0  0  0
  -24.8749  -28.9271   20.1123 C   0  0  0  0  0  0
  -22.7490  -29.4609   22.4924 C   0  0  0  0  0  0
  -18.0288  -28.1386   22.8487 C   0  0  0  0  0  0
  -24.1491  -36.7287   23.2638 C   0  0  0  0  0  0
  -25.9683  -30.7780   21.3770 C   0  0  0  0  0  0
  -26.0439  -29.4010   20.7227 C   0  0  0  0  0  0
  -27.2240  -28.5934   20.7230 C   0  0  0  0  0  0
  -26.0398  -26.8791   19.4854 C   0  0  0  0  0  0
  -24.8754  -27.6716   19.4845 C   0  0  0  0  0  0
  -23.6433  -29.8101   20.1593 C   0  0  0  0  0  0
  -25.4117  -36.3076   24.0327 C   0  0  1  0  0  0
  -20.5890  -28.3696   23.1274 C   0  0  2  0  0  0
  -20.6777  -26.9415   22.5408 C   0  0  0  0  0  0
  -19.5751  -26.6383   21.5212 C   0  0  0  0  0  0
  -18.1931  -26.7931   22.1622 C   0  0  0  0  0  0
  -19.1541  -28.8858   23.2876 C   0  0  0  0  0  0
  -18.9463  -30.1459   23.8894 C   0  0  0  0  0  0
  -17.6462  -30.6589   24.0560 C   0  0  0  0  0  0
  -25.9056  -34.9445   23.5099 C   0  0  0  0  0  0
  -16.5354  -29.9085   23.6332 C   0  0  0  0  0  0
  -16.7275  -28.6502   23.0357 C   0  0  0  0  0  0
  -26.4499  -31.6582   25.0722 C   0  0  0  0  0  0
  -25.3729  -31.3732   26.1450 C   0  0  0  0  0  0
  -27.0332  -30.2996   24.6197 C   0  0  0  0  0  0
  -27.6064  -32.4311   25.7491 C   0  0  0  0  0  0
  -27.5581  -37.1800   24.8463 C   0  0  0  0  0  0
  -21.4200  -29.3046   22.3667 N   0  0  0  0  0  0
  -26.4293  -37.3773   23.9407 N   0  0  0  0  0  0
  -24.6927  -31.0556   22.0964 N   0  0  0  0  0  0
  -23.4197  -28.8154   23.3020 O   0  0  0  0  0  0
  -28.3252  -26.4064   20.1474 O   0  0  0  0  0  0
  -26.5627  -34.8917   22.4668 O   0  0  0  0  0  0
  -23.5441  -32.1386   23.7305 O   0  0  0  0  0  0
  -28.6376  -17.9307   21.2331 C   0  0  0  0  0  0
  -28.5476  -19.3457   21.0859 C   0  0  0  0  0  0
  -30.7209  -18.0006   20.1033 C   0  0  0  0  0  0
  -29.7420  -17.1901   20.7365 C   0  0  0  0  0  0
  -29.5612  -20.0935   20.4326 C   0  0  0  0  0  0
  -28.1029  -25.0317   20.4395 C   0  0  0  0  0  0
  -28.9385  -23.9568   20.1942 C   0  0  0  0  0  0
  -28.5763  -22.5386   20.5638 C   0  0  0  0  0  0
  -30.6273  -19.3695   19.9648 N   0  0  0  0  0  0
  -29.7484  -15.7200   20.8935 N   0  0  0  0  0  0
  -29.5061  -21.5633   20.2556 N   0  0  0  0  0  0
  -27.5060  -22.2603   21.1101 O   0  0  0  0  0  0
  -30.1213  -24.1791   19.6024 O   0  0  0  0  0  0
  -31.4872  -12.5780   19.1567 H   0  0  0  0  0  0
  -30.4063  -11.4362   19.9064 H   0  0  0  0  0  0
  -29.7901  -11.7662   17.4917 H   0  0  0  0  0  0
  -29.6451  -13.4870   17.7415 H   0  0  0  0  0  0
  -27.8842  -11.2910   18.8777 H   0  0  0  0  0  0
  -27.3826  -12.5650   17.7978 H   0  0  0  0  0  0
  -27.6682  -14.2512   19.5188 H   0  0  0  0  0  0
  -28.7252  -12.0568   21.3705 H   0  0  0  0  0  0
  -28.4317  -13.7012   21.8518 H   0  0  0  0  0  0
  -25.2760   -9.5685   22.4761 H   0  0  0  0  0  0
  -24.0002   -7.4634   22.7471 H   0  0  0  0  0  0
  -21.0840   -8.8772   19.8952 H   0  0  0  0  0  0
  -22.3696  -10.9673   19.6166 H   0  0  0  0  0  0
  -21.2000   -7.6147   23.9719 H   0  0  0  0  0  0
  -21.1485   -6.0521   25.9080 H   0  0  0  0  0  0
  -22.0596   -2.7608   23.2847 H   0  0  0  0  0  0
  -22.4091  -11.9893   22.4803 H   0  0  0  0  0  0
  -21.1106  -13.1268   22.2601 H   0  0  0  0  0  0
  -24.6559  -15.8389   20.4982 H   0  0  0  0  0  0
  -26.2661  -15.6193   20.0372 H   0  0  0  0  0  0
  -26.7193  -32.5428   23.1092 H   0  0  0  0  0  0
  -25.0079  -33.9711   25.0413 H   0  0  0  0  0  0
  -22.7204  -31.2999   21.3955 H   0  0  0  0  0  0
  -23.3759  -35.9613   23.3291 H   0  0  0  0  0  0
  -24.3584  -36.8920   22.2053 H   0  0  0  0  0  0
  -23.7237  -37.6482   23.6670 H   0  0  0  0  0  0
  -26.1032  -31.5381   20.6062 H   0  0  0  0  0  0
  -26.8469  -30.8290   22.0085 H   0  0  0  0  0  0
  -28.1208  -28.9507   21.2092 H   0  0  0  0  0  0
  -26.0019  -25.9169   18.9946 H   0  0  0  0  0  0
  -23.9814  -27.3037   18.9997 H   0  0  0  0  0  0
  -23.7647  -30.5848   19.4013 H   0  0  0  0  0  0
  -22.7632  -29.2397   19.8565 H   0  0  0  0  0  0
  -25.1301  -36.1925   25.0820 H   0  0  0  0  0  0
  -20.9983  -28.3272   24.1395 H   0  0  0  0  0  0
  -20.5673  -26.2308   23.3613 H   0  0  0  0  0  0
  -21.6644  -26.7442   22.1200 H   0  0  0  0  0  0
  -19.6911  -25.6292   21.1248 H   0  0  0  0  0  0
  -19.6687  -27.3191   20.6740 H   0  0  0  0  0  0
  -17.4201  -26.6683   21.4024 H   0  0  0  0  0  0
  -18.0328  -26.0071   22.9015 H   0  0  0  0  0  0
  -19.7938  -30.7277   24.2262 H   0  0  0  0  0  0
  -17.5016  -31.6272   24.5157 H   0  0  0  0  0  0
  -15.5354  -30.2987   23.7656 H   0  0  0  0  0  0
  -15.8673  -28.0818   22.7080 H   0  0  0  0  0  0
  -24.5888  -30.7106   25.7772 H   0  0  0  0  0  0
  -24.8946  -32.2903   26.4895 H   0  0  0  0  0  0
  -25.8045  -30.8881   27.0214 H   0  0  0  0  0  0
  -26.2902  -29.6748   24.1225 H   0  0  0  0  0  0
  -27.4013  -29.7257   25.4711 H   0  0  0  0  0  0
  -27.8787  -30.4262   23.9432 H   0  0  0  0  0  0
  -27.2691  -33.3624   26.2053 H   0  0  0  0  0  0
  -28.3886  -32.6845   25.0322 H   0  0  0  0  0  0
  -28.0719  -31.8439   26.5417 H   0  0  0  0  0  0
  -28.2597  -38.0098   24.7511 H   0  0  0  0  0  0
  -28.1078  -36.2629   24.6290 H   0  0  0  0  0  0
  -27.2299  -37.1446   25.8866 H   0  0  0  0  0  0
  -20.9385  -29.8771   21.6876 H   0  0  0  0  0  0
  -26.0173  -38.2848   24.1405 H   0  0  0  0  0  0
  -27.8323  -17.4127   21.7338 H   0  0  0  0  0  0
  -27.6760  -19.8398   21.4882 H   0  0  0  0  0  0
  -31.6073  -17.5523   19.6799 H   0  0  0  0  0  0
  -27.1442  -24.8822   20.9206 H   0  0  0  0  0  0
  -28.8896  -15.3516   21.2739 H   0  0  0  0  0  0
  -30.3179  -21.9609   19.8053 H   0  0  0  0  0  0
  -30.1782  -25.1142   19.4485 H   0  0  0  0  0  0
  1 25  1  0  0  0
  1 30  2  0  0  0
  1 80  1  0  0  0
  2  3  1  0  0  0
  2 25  1  0  0  0
  2 84  1  0  0  0
  2 85  1  0  0  0
  3  4  1  0  0  0
  3 86  1  0  0  0
  3 87  1  0  0  0
  4  5  1  0  0  0
  4 88  1  0  0  0
  4 89  1  0  0  0
  5  6  1  0  0  0
  5 26  1  0  0  0
  5 90  1  0  0  0
  6 25  1  0  0  0
  6 91  1  0  0  0
  6 92  1  0  0  0
  7  8  2  0  0  0
  7 26  1  0  0  0
  7 29  1  0  0  0
  8  9  1  0  0  0
  8 22  1  0  0  0
  9 10  1  0  0  0
  9 27  2  0  0  0
 10 11  2  0  0  0
 10 15  1  0  0  0
 11 12  1  0  0  0
 11 93  1  0  0  0
 12 13  2  0  0  0
 12 94  1  0  0  0
 13 14  1  0  0  0
 13 31  1  0  0  0
 14 15  2  0  0  0
 14 95  1  0  0  0
 15 96  1  0  0  0
 16 17  2  0  0  0
 16 21  1  0  0  0
 16 31  1  0  0  0
 17 18  1  0  0  0
 17 97  1  0  0  0
 18 19  2  0  0  0
 18 98  1  0  0  0
 19 20  1  0  0  0
 19 24  1  0  0  0
 20 21  2  0  0  0
 20 99  1  0  0  0
 21 23  1  0  0  0
 22 28  1  0  0  0
 22 32  2  0  0  0
 26 27  1  0  0  0
 28100  1  0  0  0
 28101  1  0  0  0
 29102  1  0  0  0
 29103  1  0  0  0
 33 34  1  0  0  0
 33 66  1  0  0  0
 33 70  2  0  0  0
 34 36  1  0  0  0
 34 59  1  0  0  0
 34104  1  0  0  0
 35 44  2  0  0  0
 35 45  1  0  0  0
 35 68  1  0  0  0
 36 56  1  0  0  0
 36105  1  0  0  0
 37 39  1  0  0  0
 37 47  1  0  0  0
 37 66  1  0  0  0
 37106  1  0  0  0
 38 43  2  0  0  0
 38 46  1  0  0  0
 38 47  1  0  0  0
 39 64  1  0  0  0
 39 67  2  0  0  0
 40 52  1  0  0  0
 40 53  2  0  0  0
 40 58  1  0  0  0
 41107  1  0  0  0
 41108  1  0  0  0
 41109  1  0  0  0
 41 48  1  0  0  0
 42 43  1  0  0  0
 42 66  1  0  0  0
 42110  1  0  0  0
 42111  1  0  0  0
 43 44  1  0  0  0
 44112  1  0  0  0
 45 46  2  0  0  0
 45113  1  0  0  0
 46114  1  0  0  0
 47115  1  0  0  0
 47116  1  0  0  0
 48 56  1  0  0  0
 48 65  1  0  0  0
 48117  1  0  0  0
 49 50  1  0  0  0
 49 53  1  0  0  0
 49 64  1  0  0  0
 49118  1  0  0  0
 50 51  1  0  0  0
 50119  1  0  0  0
 50120  1  0  0  0
 51 52  1  0  0  0
 51121  1  0  0  0
 51122  1  0  0  0
 52123  1  0  0  0
 52124  1  0  0  0
 53 54  1  0  0  0
 54 55  2  0  0  0
 54125  1  0  0  0
 55 57  1  0  0  0
 55126  1  0  0  0
 56 69  2  0  0  0
 57 58  2  0  0  0
 57127  1  0  0  0
 58128  1  0  0  0
 59 60  1  0  0  0
 59 61  1  0  0  0
 59 62  1  0  0  0
 60129  1  0  0  0
 60130  1  0  0  0
 60131  1  0  0  0
 61132  1  0  0  0
 61133  1  0  0  0
 61134  1  0  0  0
 62135  1  0  0  0
 62136  1  0  0  0
 62137  1  0  0  0
 63 65  1  0  0  0
 63138  1  0  0  0
 63139  1  0  0  0
 63140  1  0  0  0
 64141  1  0  0  0
 65142  1  0  0  0
 68 76  1  0  0  0
 71 72  2  0  0  0
 71 74  1  0  0  0
 71143  1  0  0  0
 72 75  1  0  0  0
 72144  1  0  0  0
 73 74  2  0  0  0
 73 79  1  0  0  0
 73145  1  0  0  0
 74 80  1  0  0  0
 75 79  2  0  0  0
 75 81  1  0  0  0
 76 77  2  0  0  0
 76146  1  0  0  0
 77 78  1  0  0  0
 77 83  1  0  0  0
 78 81  1  0  0  0
 78 82  2  0  0  0
 80147  1  0  0  0
 81148  1  0  0  0
 83149  1  0  0  0
M  ISO  4   1 100  68 101  76 101  80 100
M  END
> <chiral flag>
0

> <version>
0

> <s_m_source_file>
/data/baiqing/PycharmProjects/Reinvent-master-3.2/result/LINK_invent/BTK/process_docking_weight1_custom_product_contain_oxygen_bond_distance_aromatic_linkinvent_7_9_3/rearranged_h_0172.sdf

> <i_m_source_file_index>
74

> <r_mmod_Potential_Energy-OPLS-2005>
-189.884414672852

> <r_mmod_Stretch_Energy-OPLS-2005>
93.8165969848633

> <r_mmod_Bend_Energy-OPLS-2005>
155.306228637695

> <r_mmod_Torsional_Energy-OPLS-2005>
206.105621337891

> <r_mmod_Improper_Torsional_Energy-OPLS-2005>
3.73638606071472

> <r_mmod_Van_der_Waal_Energy-OPLS-2005>
147.449676513672

> <r_mmod_Electrostatic_Energy-OPLS-2005>
-632.996154785156

> <r_mmod_Solvation_Energy-OPLS-2005>
-230.448272705078

> <b_mmod_Minimization_Converged-OPLS-2005>
0

> <r_mmod_RMS_Derivative-OPLS-2005>
0.383091658353806

$$$$
74
                    3D
 Structure written by MMmdl.
159167  0  0  1  0            999 V2000
  -30.6449  -14.5888   20.4648 C   0  0  0  0  0  0
  -30.4240  -12.3541   19.4477 C   0  0  0  0  0  0
  -29.5024  -12.5017   18.2178 C   0  0  0  0  0  0
  -28.0221  -12.3582   18.6239 C   0  0  0  0  0  0
  -27.6531  -13.2187   19.8633 C   0  0  2  0  0  0
  -28.6970  -13.0626   20.9915 C   0  0  0  0  0  0
  -25.2578  -13.8186   20.5689 C   0  0  0  0  0  0
  -24.1842  -13.0453   20.9189 C   0  0  0  0  0  0
  -24.6408  -11.6921   20.8733 C   0  0  0  0  0  0
  -23.9077  -10.4306   21.0407 C   0  0  0  0  0  0
  -24.3634   -9.4218   21.9180 C   0  0  0  0  0  0
  -23.6305   -8.2259   22.0751 C   0  0  0  0  0  0
  -22.4278   -8.0295   21.3555 C   0  0  0  0  0  0
  -21.9920   -9.0262   20.4647 C   0  0  0  0  0  0
  -22.7253  -10.2140   20.3064 C   0  0  0  0  0  0
  -21.6861   -6.0735   22.5279 C   0  0  0  0  0  0
  -21.3996   -6.5630   23.8211 C   0  0  0  0  0  0
  -21.3673   -5.6787   24.9179 C   0  0  0  0  0  0
  -21.6059   -4.3051   24.7234 C   0  0  0  0  0  0
  -21.8818   -3.8141   23.4357 C   0  0  0  0  0  0
  -21.9193   -4.6957   22.3410 C   0  0  0  0  0  0
  -22.7862  -13.5235   21.1858 C   0  0  0  0  0  0
  -22.1662   -4.2141   21.0987 F   0  0  0  0  0  0
  -21.5655   -3.4536   25.7749 F   0  0  0  0  0  0
  -30.0166  -13.3767   20.4297 N   0  0  0  0  0  0
  -26.2991  -12.9368   20.3314 N   0  0  0  0  0  0
  -25.9334  -11.6515   20.5737 N   0  0  0  0  0  0
  -22.0514  -12.8212   22.0410 N   0  0  0  0  0  0
  -25.4323  -15.1912   20.4125 N   0  0  0  0  0  0
  -31.8185  -14.7154   20.1024 O   0  0  0  0  0  0
  -21.6645   -6.8887   21.4244 O   0  0  0  0  0  0
  -22.3532  -14.5542   20.6717 O   0  0  0  0  0  0
  -24.6244  -31.8614   23.2001 C   0  0  0  0  0  0
  -25.9109  -32.4785   23.8319 C   0  0  1  0  0  0
  -27.2364  -27.3522   20.1065 C   0  0  0  0  0  0
  -25.5942  -33.8582   24.2249 N   0  0  0  0  0  0
  -23.4143  -30.4830   21.5435 C   0  0  2  0  0  0
  -24.8574  -28.9307   20.1119 C   0  0  0  0  0  0
  -22.7445  -29.4656   22.4960 C   0  0  0  0  0  0
  -18.0288  -28.1387   22.8488 C   0  0  0  0  0  0
  -24.1500  -36.7296   23.2631 C   0  0  0  0  0  0
  -25.9498  -30.8008   21.3625 C   0  0  0  0  0  0
  -26.0221  -29.4300   20.7060 C   0  0  0  0  0  0
  -27.2080  -28.6491   20.6937 C   0  0  0  0  0  0
  -26.0406  -26.8747   19.5259 C   0  0  0  0  0  0
  -24.8658  -27.6562   19.5179 C   0  0  0  0  0  0
  -23.6235  -29.8077   20.1606 C   0  0  0  0  0  0
  -25.4133  -36.3087   24.0310 C   0  0  1  0  0  0
  -20.5884  -28.3703   23.1286 C   0  0  2  0  0  0
  -20.6782  -26.9431   22.5409 C   0  0  0  0  0  0
  -19.5761  -26.6390   21.5207 C   0  0  0  0  0  0
  -18.1939  -26.7932   22.1611 C   0  0  0  0  0  0
  -19.1539  -28.8860   23.2884 C   0  0  0  0  0  0
  -18.9458  -30.1463   23.8903 C   0  0  0  0  0  0
  -17.6467  -30.6598   24.0566 C   0  0  0  0  0  0
  -25.9075  -34.9457   23.5081 C   0  0  0  0  0  0
  -16.5355  -29.9091   23.6333 C   0  0  0  0  0  0
  -16.7273  -28.6512   23.0353 C   0  0  0  0  0  0
  -26.4467  -31.6599   25.0702 C   0  0  0  0  0  0
  -25.3680  -31.3753   26.1418 C   0  0  0  0  0  0
  -27.0296  -30.3023   24.6157 C   0  0  0  0  0  0
  -27.6038  -32.4325   25.7481 C   0  0  0  0  0  0
  -27.5597  -37.1806   24.8458 C   0  0  0  0  0  0
  -21.4171  -29.3050   22.3676 N   0  0  0  0  0  0
  -26.4308  -37.3792   23.9405 N   0  0  0  0  0  0
  -24.6816  -31.0647   22.0929 N   0  0  0  0  0  0
  -23.4174  -28.8221   23.3047 O   0  0  0  0  0  0
  -28.4177  -26.6100   20.1693 O   0  0  0  0  0  0
  -26.5656  -34.8930   22.4654 O   0  0  0  0  0  0
  -23.5423  -32.1392   23.7365 O   0  0  0  0  0  0
  -30.1266  -16.9271   18.6513 C   0  0  0  0  0  0
  -29.8980  -18.2721   18.2359 C   0  0  0  0  0  0
  -29.8472  -16.8569   19.9914 C   0  0  0  0  0  0
  -29.4884  -18.9491   19.3578 C   0  0  0  0  0  0
  -28.6283  -22.6560   19.3039 C   0  0  0  0  0  0
  -28.8008  -21.2826   20.1054 C   0  0  0  0  0  0
  -30.0673  -18.8162   16.8379 C   0  0  0  0  0  0
  -28.4785  -25.6327   17.9265 C   0  0  0  0  0  0
  -30.2737  -25.3636   19.6331 C   0  0  0  0  0  0
  -28.1724  -23.9993   19.9991 C   0  0  0  0  0  0
  -28.7436  -25.3822   19.4309 C   0  0  0  0  0  0
  -29.1900  -20.2914   19.2622 N   0  0  0  0  0  0
  -29.8679  -15.6832   20.7218 N   0  0  0  0  0  0
  -28.8308  -22.6444   18.0834 O   0  0  0  0  0  0
  -28.6090  -21.1571   21.3188 O   0  0  0  0  0  0
  -29.4220  -18.1019   20.4589 O   0  0  0  0  0  0
  -31.4684  -12.4548   19.1461 H   0  0  0  0  0  0
  -30.3332  -11.3570   19.8817 H   0  0  0  0  0  0
  -29.7571  -11.7578   17.4617 H   0  0  0  0  0  0
  -29.6619  -13.4754   17.7511 H   0  0  0  0  0  0
  -27.8375  -11.3035   18.8304 H   0  0  0  0  0  0
  -27.3783  -12.6200   17.7814 H   0  0  0  0  0  0
  -27.6764  -14.2568   19.5328 H   0  0  0  0  0  0
  -28.6949  -12.0428   21.3764 H   0  0  0  0  0  0
  -28.4571  -13.7041   21.8401 H   0  0  0  0  0  0
  -25.2791   -9.5679   22.4729 H   0  0  0  0  0  0
  -24.0024   -7.4637   22.7457 H   0  0  0  0  0  0
  -21.0864   -8.8789   19.8933 H   0  0  0  0  0  0
  -22.3736  -10.9680   19.6154 H   0  0  0  0  0  0
  -21.1955   -7.6130   23.9705 H   0  0  0  0  0  0
  -21.1503   -6.0521   25.9082 H   0  0  0  0  0  0
  -22.0586   -2.7602   23.2863 H   0  0  0  0  0  0
  -22.4138  -11.9870   22.4786 H   0  0  0  0  0  0
  -21.1120  -13.1210   22.2618 H   0  0  0  0  0  0
  -24.6728  -15.8530   20.5335 H   0  0  0  0  0  0
  -26.2871  -15.6281   20.0916 H   0  0  0  0  0  0
  -26.7191  -32.5441   23.1082 H   0  0  0  0  0  0
  -25.0073  -33.9721   25.0379 H   0  0  0  0  0  0
  -22.7087  -31.3043   21.3996 H   0  0  0  0  0  0
  -23.3776  -35.9619   23.3288 H   0  0  0  0  0  0
  -24.3586  -36.8928   22.2048 H   0  0  0  0  0  0
  -23.7239  -37.6482   23.6667 H   0  0  0  0  0  0
  -26.0776  -31.5635   20.5935 H   0  0  0  0  0  0
  -26.8317  -30.8487   21.9899 H   0  0  0  0  0  0
  -28.1075  -29.0359   21.1531 H   0  0  0  0  0  0
  -25.9863  -25.8828   19.1084 H   0  0  0  0  0  0
  -23.9638  -27.2556   19.0743 H   0  0  0  0  0  0
  -23.7348  -30.5778   19.3962 H   0  0  0  0  0  0
  -22.7435  -29.2313   19.8695 H   0  0  0  0  0  0
  -25.1319  -36.1929   25.0805 H   0  0  0  0  0  0
  -20.9978  -28.3282   24.1404 H   0  0  0  0  0  0
  -20.5689  -26.2317   23.3607 H   0  0  0  0  0  0
  -21.6656  -26.7467   22.1207 H   0  0  0  0  0  0
  -19.6933  -25.6292   21.1256 H   0  0  0  0  0  0
  -19.6705  -27.3189   20.6725 H   0  0  0  0  0  0
  -17.4212  -26.6688   21.4009 H   0  0  0  0  0  0
  -18.0348  -26.0070   22.9001 H   0  0  0  0  0  0
  -19.7935  -30.7282   24.2269 H   0  0  0  0  0  0
  -17.5014  -31.6273   24.5168 H   0  0  0  0  0  0
  -15.5359  -30.3000   23.7642 H   0  0  0  0  0  0
  -15.8673  -28.0827   22.7063 H   0  0  0  0  0  0
  -24.5871  -30.7098   25.7721 H   0  0  0  0  0  0
  -24.8854  -32.2927   26.4800 H   0  0  0  0  0  0
  -25.7971  -30.8942   27.0217 H   0  0  0  0  0  0
  -26.2867  -29.6816   24.1146 H   0  0  0  0  0  0
  -27.3938  -29.7250   25.4662 H   0  0  0  0  0  0
  -27.8755  -30.4299   23.9404 H   0  0  0  0  0  0
  -27.2656  -33.3622   26.2072 H   0  0  0  0  0  0
  -28.3842  -32.6897   25.0305 H   0  0  0  0  0  0
  -28.0724  -31.8444   26.5380 H   0  0  0  0  0  0
  -28.2601  -38.0116   24.7547 H   0  0  0  0  0  0
  -28.1105  -36.2655   24.6243 H   0  0  0  0  0  0
  -27.2322  -37.1410   25.8859 H   0  0  0  0  0  0
  -20.9365  -29.8719   21.6839 H   0  0  0  0  0  0
  -26.0184  -38.2863   24.1413 H   0  0  0  0  0  0
  -30.4440  -16.1060   18.0212 H   0  0  0  0  0  0
  -30.3561  -18.0267   16.1441 H   0  0  0  0  0  0
  -30.8444  -19.5806   16.8217 H   0  0  0  0  0  0
  -29.1351  -19.2559   16.4813 H   0  0  0  0  0  0
  -29.1068  -25.0097   17.2914 H   0  0  0  0  0  0
  -28.7037  -26.6644   17.6555 H   0  0  0  0  0  0
  -27.4502  -25.4304   17.6367 H   0  0  0  0  0  0
  -30.5353  -25.1830   20.6773 H   0  0  0  0  0  0
  -30.7267  -26.3139   19.3461 H   0  0  0  0  0  0
  -30.7614  -24.5898   19.0397 H   0  0  0  0  0  0
  -28.4259  -23.9190   21.0551 H   0  0  0  0  0  0
  -27.0838  -24.0171   19.9597 H   0  0  0  0  0  0
  -29.2816  -20.6757   18.3297 H   0  0  0  0  0  0
  -29.0458  -15.5076   21.2774 H   0  0  0  0  0  0
  1 25  1  0  0  0
  1 30  2  0  0  0
  1 83  1  0  0  0
  2  3  1  0  0  0
  2 25  1  0  0  0
  2 87  1  0  0  0
  2 88  1  0  0  0
  3  4  1  0  0  0
  3 89  1  0  0  0
  3 90  1  0  0  0
  4  5  1  0  0  0
  4 91  1  0  0  0
  4 92  1  0  0  0
  5  6  1  0  0  0
  5 26  1  0  0  0
  5 93  1  0  0  0
  6 25  1  0  0  0
  6 94  1  0  0  0
  6 95  1  0  0  0
  7  8  2  0  0  0
  7 26  1  0  0  0
  7 29  1  0  0  0
  8  9  1  0  0  0
  8 22  1  0  0  0
  9 10  1  0  0  0
  9 27  2  0  0  0
 10 11  2  0  0  0
 10 15  1  0  0  0
 11 12  1  0  0  0
 11 96  1  0  0  0
 12 13  2  0  0  0
 12 97  1  0  0  0
 13 14  1  0  0  0
 13 31  1  0  0  0
 14 15  2  0  0  0
 14 98  1  0  0  0
 15 99  1  0  0  0
 16 17  2  0  0  0
 16 21  1  0  0  0
 16 31  1  0  0  0
 17 18  1  0  0  0
 17100  1  0  0  0
 18 19  2  0  0  0
 18101  1  0  0  0
 19 20  1  0  0  0
 19 24  1  0  0  0
 20 21  2  0  0  0
 20102  1  0  0  0
 21 23  1  0  0  0
 22 28  1  0  0  0
 22 32  2  0  0  0
 26 27  1  0  0  0
 28103  1  0  0  0
 28104  1  0  0  0
 29105  1  0  0  0
 29106  1  0  0  0
 33 34  1  0  0  0
 33 66  1  0  0  0
 33 70  2  0  0  0
 34 36  1  0  0  0
 34 59  1  0  0  0
 34107  1  0  0  0
 35 44  2  0  0  0
 35 45  1  0  0  0
 35 68  1  0  0  0
 36 56  1  0  0  0
 36108  1  0  0  0
 37 39  1  0  0  0
 37 47  1  0  0  0
 37 66  1  0  0  0
 37109  1  0  0  0
 38 43  2  0  0  0
 38 46  1  0  0  0
 38 47  1  0  0  0
 39 64  1  0  0  0
 39 67  2  0  0  0
 40 52  1  0  0  0
 40 53  2  0  0  0
 40 58  1  0  0  0
 41110  1  0  0  0
 41111  1  0  0  0
 41112  1  0  0  0
 41 48  1  0  0  0
 42 43  1  0  0  0
 42 66  1  0  0  0
 42113  1  0  0  0
 42114  1  0  0  0
 43 44  1  0  0  0
 44115  1  0  0  0
 45 46  2  0  0  0
 45116  1  0  0  0
 46117  1  0  0  0
 47118  1  0  0  0
 47119  1  0  0  0
 48 56  1  0  0  0
 48 65  1  0  0  0
 48120  1  0  0  0
 49 50  1  0  0  0
 49 53  1  0  0  0
 49 64  1  0  0  0
 49121  1  0  0  0
 50 51  1  0  0  0
 50122  1  0  0  0
 50123  1  0  0  0
 51 52  1  0  0  0
 51124  1  0  0  0
 51125  1  0  0  0
 52126  1  0  0  0
 52127  1  0  0  0
 53 54  1  0  0  0
 54 55  2  0  0  0
 54128  1  0  0  0
 55 57  1  0  0  0
 55129  1  0  0  0
 56 69  2  0  0  0
 57 58  2  0  0  0
 57130  1  0  0  0
 58131  1  0  0  0
 59 60  1  0  0  0
 59 61  1  0  0  0
 59 62  1  0  0  0
 60132  1  0  0  0
 60133  1  0  0  0
 60134  1  0  0  0
 61135  1  0  0  0
 61136  1  0  0  0
 61137  1  0  0  0
 62138  1  0  0  0
 62139  1  0  0  0
 62140  1  0  0  0
 63 65  1  0  0  0
 63141  1  0  0  0
 63142  1  0  0  0
 63143  1  0  0  0
 64144  1  0  0  0
 65145  1  0  0  0
 68 81  1  0  0  0
 71 72  1  0  0  0
 71 73  2  0  0  0
 71146  1  0  0  0
 72 74  2  0  0  0
 72 77  1  0  0  0
 73 83  1  0  0  0
 73 86  1  0  0  0
 74 82  1  0  0  0
 74 86  1  0  0  0
 75 76  1  0  0  0
 75 80  1  0  0  0
 75 84  2  0  0  0
 76 82  1  0  0  0
 76 85  2  0  0  0
 77147  1  0  0  0
 77148  1  0  0  0
 77149  1  0  0  0
 78150  1  0  0  0
 78151  1  0  0  0
 78152  1  0  0  0
 78 81  1  0  0  0
 79 81  1  0  0  0
 79153  1  0  0  0
 79154  1  0  0  0
 79155  1  0  0  0
 80 81  1  0  0  0
 80156  1  0  0  0
 80157  1  0  0  0
 82158  1  0  0  0
 83159  1  0  0  0
M  ISO  4   1 100  68 101  81 101  83 100
M  END
> <chiral flag>
0

> <version>
0

> <s_m_source_file>
/data/baiqing/PycharmProjects/Reinvent-master-3.2/result/LINK_invent/BTK/process_docking_weight1_custom_product_contain_oxygen_bond_distance_aromatic_linkinvent_7_9_3/rearranged_h_0172.sdf

> <i_m_source_file_index>
75

> <r_mmod_Potential_Energy-OPLS-2005>
-9.31536102294922

> <r_mmod_Stretch_Energy-OPLS-2005>
67.2671890258789

> <r_mmod_Bend_Energy-OPLS-2005>
189.945297241211

> <r_mmod_Torsional_Energy-OPLS-2005>
215.537094116211

> <r_mmod_Improper_Torsional_Energy-OPLS-2005>
6.23657894134521

> <r_mmod_Van_der_Waal_Energy-OPLS-2005>
127.639991760254

> <r_mmod_Electrostatic_Energy-OPLS-2005>
-422.946472167969

> <r_mmod_Solvation_Energy-OPLS-2005>
-227.199798583984

> <b_mmod_Minimization_Converged-OPLS-2005>
0

> <r_mmod_RMS_Derivative-OPLS-2005>
2.31795930862427

$$$$
75
                    3D
 Structure written by MMmdl.
155163  0  0  1  0            999 V2000
  -30.5925  -14.7026   20.4586 C   0  0  0  0  0  0
  -30.4458  -12.4261   19.4532 C   0  0  0  0  0  0
  -29.5088  -12.5062   18.2264 C   0  0  0  0  0  0
  -28.0347  -12.3261   18.6437 C   0  0  0  0  0  0
  -27.6491  -13.2023   19.8640 C   0  0  2  0  0  0
  -28.7017  -13.0997   20.9902 C   0  0  0  0  0  0
  -25.2553  -13.8085   20.5721 C   0  0  0  0  0  0
  -24.1816  -13.0385   20.9237 C   0  0  0  0  0  0
  -24.6375  -11.6857   20.8771 C   0  0  0  0  0  0
  -23.9041  -10.4261   21.0422 C   0  0  0  0  0  0
  -24.3600   -9.4180   21.9196 C   0  0  0  0  0  0
  -23.6278   -8.2217   22.0757 C   0  0  0  0  0  0
  -22.4262   -8.0264   21.3542 C   0  0  0  0  0  0
  -21.9895   -9.0237   20.4647 C   0  0  0  0  0  0
  -22.7220  -10.2116   20.3063 C   0  0  0  0  0  0
  -21.6844   -6.0727   22.5279 C   0  0  0  0  0  0
  -21.4007   -6.5634   23.8211 C   0  0  0  0  0  0
  -21.3658   -5.6788   24.9175 C   0  0  0  0  0  0
  -21.6045   -4.3052   24.7226 C   0  0  0  0  0  0
  -21.8821   -3.8142   23.4348 C   0  0  0  0  0  0
  -21.9191   -4.6957   22.3403 C   0  0  0  0  0  0
  -22.7845  -13.5209   21.1875 C   0  0  0  0  0  0
  -22.1661   -4.2144   21.0980 F   0  0  0  0  0  0
  -21.5633   -3.4537   25.7740 F   0  0  0  0  0  0
  -30.0063  -13.4603   20.4112 N   0  0  0  0  0  0
  -26.2968  -12.9246   20.3349 N   0  0  0  0  0  0
  -25.9299  -11.6421   20.5791 N   0  0  0  0  0  0
  -22.0469  -12.8215   22.0423 N   0  0  0  0  0  0
  -25.4253  -15.1785   20.4090 N   0  0  0  0  0  0
  -31.7769  -14.8607   20.1479 O   0  0  0  0  0  0
  -21.6625   -6.8865   21.4238 O   0  0  0  0  0  0
  -22.3556  -14.5523   20.6714 O   0  0  0  0  0  0
  -24.6270  -31.8588   23.2020 C   0  0  0  0  0  0
  -25.9113  -32.4774   23.8353 C   0  0  1  0  0  0
  -27.2291  -27.3032   20.1235 C   0  0  0  0  0  0
  -25.5926  -33.8577   24.2278 N   0  0  0  0  0  0
  -23.4227  -30.4813   21.5439 C   0  0  2  0  0  0
  -24.8727  -28.9349   20.1105 C   0  0  0  0  0  0
  -22.7483  -29.4615   22.4925 C   0  0  0  0  0  0
  -18.0287  -28.1386   22.8486 C   0  0  0  0  0  0
  -24.1489  -36.7290   23.2638 C   0  0  0  0  0  0
  -25.9652  -30.7818   21.3796 C   0  0  0  0  0  0
  -26.0397  -29.4066   20.7253 C   0  0  0  0  0  0
  -27.2185  -28.5996   20.7293 C   0  0  0  0  0  0
  -26.0460  -26.9010   19.4613 C   0  0  0  0  0  0
  -24.8780  -27.6868   19.4698 C   0  0  0  0  0  0
  -23.6403  -29.8159   20.1593 C   0  0  0  0  0  0
  -25.4114  -36.3082   24.0329 C   0  0  1  0  0  0
  -20.5888  -28.3693   23.1277 C   0  0  2  0  0  0
  -20.6774  -26.9413   22.5411 C   0  0  0  0  0  0
  -19.5751  -26.6384   21.5212 C   0  0  0  0  0  0
  -18.1930  -26.7930   22.1622 C   0  0  0  0  0  0
  -19.1540  -28.8856   23.2878 C   0  0  0  0  0  0
  -18.9464  -30.1458   23.8896 C   0  0  0  0  0  0
  -17.6463  -30.6588   24.0564 C   0  0  0  0  0  0
  -25.9052  -34.9450   23.5105 C   0  0  0  0  0  0
  -16.5354  -29.9086   23.6332 C   0  0  0  0  0  0
  -16.7274  -28.6504   23.0353 C   0  0  0  0  0  0
  -26.4495  -31.6587   25.0728 C   0  0  0  0  0  0
  -25.3725  -31.3728   26.1452 C   0  0  0  0  0  0
  -27.0340  -30.3008   24.6198 C   0  0  0  0  0  0
  -27.6053  -32.4324   25.7499 C   0  0  0  0  0  0
  -27.5583  -37.1796   24.8462 C   0  0  0  0  0  0
  -21.4194  -29.3043   22.3669 N   0  0  0  0  0  0
  -26.4290  -37.3780   23.9414 N   0  0  0  0  0  0
  -24.6900  -31.0580   22.0983 N   0  0  0  0  0  0
  -23.4198  -28.8155   23.3013 O   0  0  0  0  0  0
  -28.3370  -26.4331   20.1626 O   0  0  0  0  0  0
  -26.5624  -34.8919   22.4673 O   0  0  0  0  0  0
  -23.5430  -32.1396   23.7333 O   0  0  0  0  0  0
  -30.7303  -19.4518   21.1602 C   0  0  0  0  0  0
  -30.7665  -18.0194   21.1692 C   0  0  0  0  0  0
  -28.8058  -19.4076   19.7435 C   0  0  0  0  0  0
  -28.8329  -17.9726   19.7255 C   0  0  0  0  0  0
  -29.7296  -20.1951   20.4726 C   0  0  0  0  0  0
  -29.8157  -17.2243   20.4696 C   0  0  0  0  0  0
  -28.1297  -25.0328   20.2835 C   0  0  0  0  0  0
  -27.8463  -17.3099   18.8212 C   0  0  0  0  0  0
  -29.0740  -24.0283   20.2702 C   0  0  0  0  0  0
  -28.6955  -22.5741   20.3494 C   0  0  0  0  0  0
  -26.4878  -17.9806   18.6402 C   0  0  0  0  0  0
  -29.7273  -21.6707   20.4613 N   0  0  0  0  0  0
  -29.7262  -15.7569   20.6512 N   0  0  0  0  0  0
  -28.0651  -16.2549   18.2239 O   0  0  0  0  0  0
  -27.5245  -22.1876   20.3232 O   0  0  0  0  0  0
  -30.3715  -24.3531   20.1707 O   0  0  0  0  0  0
  -31.4834  -12.5685   19.1458 H   0  0  0  0  0  0
  -30.4003  -11.4375   19.9124 H   0  0  0  0  0  0
  -29.7838  -11.7496   17.4904 H   0  0  0  0  0  0
  -29.6319  -13.4718   17.7327 H   0  0  0  0  0  0
  -27.8866  -11.2732   18.8865 H   0  0  0  0  0  0
  -27.3749  -12.5395   17.8018 H   0  0  0  0  0  0
  -27.6489  -14.2261   19.5095 H   0  0  0  0  0  0
  -28.7342  -12.0876   21.3960 H   0  0  0  0  0  0
  -28.4435  -13.7509   21.8271 H   0  0  0  0  0  0
  -25.2744   -9.5658   22.4771 H   0  0  0  0  0  0
  -23.9988   -7.4605   22.7472 H   0  0  0  0  0  0
  -21.0828   -8.8756   19.8950 H   0  0  0  0  0  0
  -22.3684  -10.9661   19.6175 H   0  0  0  0  0  0
  -21.1992   -7.6141   23.9713 H   0  0  0  0  0  0
  -21.1481   -6.0519   25.9078 H   0  0  0  0  0  0
  -22.0603   -2.7605   23.2849 H   0  0  0  0  0  0
  -22.4067  -11.9869   22.4810 H   0  0  0  0  0  0
  -21.1091  -13.1258   22.2624 H   0  0  0  0  0  0
  -24.6416  -15.8183   20.4783 H   0  0  0  0  0  0
  -26.2330  -15.5779   19.9551 H   0  0  0  0  0  0
  -26.7181  -32.5442   23.1100 H   0  0  0  0  0  0
  -25.0073  -33.9723   25.0423 H   0  0  0  0  0  0
  -22.7175  -31.3023   21.3990 H   0  0  0  0  0  0
  -23.3758  -35.9616   23.3290 H   0  0  0  0  0  0
  -24.3584  -36.8923   22.2054 H   0  0  0  0  0  0
  -23.7232  -37.6485   23.6667 H   0  0  0  0  0  0
  -26.0999  -31.5426   20.6094 H   0  0  0  0  0  0
  -26.8443  -30.8317   22.0104 H   0  0  0  0  0  0
  -28.1114  -28.9536   21.2250 H   0  0  0  0  0  0
  -26.0063  -25.9556   18.9400 H   0  0  0  0  0  0
  -23.9884  -27.3244   18.9730 H   0  0  0  0  0  0
  -23.7605  -30.5924   19.4029 H   0  0  0  0  0  0
  -22.7607  -29.2454   19.8559 H   0  0  0  0  0  0
  -25.1293  -36.1932   25.0821 H   0  0  0  0  0  0
  -20.9983  -28.3269   24.1396 H   0  0  0  0  0  0
  -20.5670  -26.2304   23.3614 H   0  0  0  0  0  0
  -21.6643  -26.7436   22.1207 H   0  0  0  0  0  0
  -19.6912  -25.6293   21.1244 H   0  0  0  0  0  0
  -19.6690  -27.3192   20.6741 H   0  0  0  0  0  0
  -17.4201  -26.6681   21.4023 H   0  0  0  0  0  0
  -18.0328  -26.0070   22.9016 H   0  0  0  0  0  0
  -19.7939  -30.7274   24.2265 H   0  0  0  0  0  0
  -17.5017  -31.6268   24.5165 H   0  0  0  0  0  0
  -15.5354  -30.2989   23.7655 H   0  0  0  0  0  0
  -15.8674  -28.0823   22.7069 H   0  0  0  0  0  0
  -24.5913  -30.7060   25.7783 H   0  0  0  0  0  0
  -24.8899  -32.2892   26.4860 H   0  0  0  0  0  0
  -25.8049  -30.8925   27.0237 H   0  0  0  0  0  0
  -26.2919  -29.6756   24.1219 H   0  0  0  0  0  0
  -27.4023  -29.7268   25.4712 H   0  0  0  0  0  0
  -27.8796  -30.4287   23.9436 H   0  0  0  0  0  0
  -27.2665  -33.3628   26.2070 H   0  0  0  0  0  0
  -28.3867  -32.6878   25.0329 H   0  0  0  0  0  0
  -28.0716  -31.8453   26.5421 H   0  0  0  0  0  0
  -28.2586  -38.0109   24.7533 H   0  0  0  0  0  0
  -28.1095  -36.2641   24.6256 H   0  0  0  0  0  0
  -27.2306  -37.1407   25.8865 H   0  0  0  0  0  0
  -20.9374  -29.8772   21.6883 H   0  0  0  0  0  0
  -26.0170  -38.2851   24.1432 H   0  0  0  0  0  0
  -31.4853  -19.9838   21.7220 H   0  0  0  0  0  0
  -31.5272  -17.5292   21.7605 H   0  0  0  0  0  0
  -28.0696  -19.9326   19.1530 H   0  0  0  0  0  0
  -27.0850  -24.7792   20.4000 H   0  0  0  0  0  0
  -26.1440  -18.4109   19.5806 H   0  0  0  0  0  0
  -25.7475  -17.2552   18.3046 H   0  0  0  0  0  0
  -26.5519  -18.7714   17.8936 H   0  0  0  0  0  0
  -30.6253  -22.1212   20.5824 H   0  0  0  0  0  0
  -28.7861  -15.4176   20.7800 H   0  0  0  0  0  0
  -30.4134  -25.3003   20.1249 H   0  0  0  0  0  0
  1 25  1  0  0  0
  1 30  2  0  0  0
  1 83  1  0  0  0
  2  3  1  0  0  0
  2 25  1  0  0  0
  2 87  1  0  0  0
  2 88  1  0  0  0
  3  4  1  0  0  0
  3 89  1  0  0  0
  3 90  1  0  0  0
  4  5  1  0  0  0
  4 91  1  0  0  0
  4 92  1  0  0  0
  5  6  1  0  0  0
  5 26  1  0  0  0
  5 93  1  0  0  0
  6 25  1  0  0  0
  6 94  1  0  0  0
  6 95  1  0  0  0
  7  8  2  0  0  0
  7 26  1  0  0  0
  7 29  1  0  0  0
  8  9  1  0  0  0
  8 22  1  0  0  0
  9 10  1  0  0  0
  9 27  2  0  0  0
 10 11  2  0  0  0
 10 15  1  0  0  0
 11 12  1  0  0  0
 11 96  1  0  0  0
 12 13  2  0  0  0
 12 97  1  0  0  0
 13 14  1  0  0  0
 13 31  1  0  0  0
 14 15  2  0  0  0
 14 98  1  0  0  0
 15 99  1  0  0  0
 16 17  2  0  0  0
 16 21  1  0  0  0
 16 31  1  0  0  0
 17 18  1  0  0  0
 17100  1  0  0  0
 18 19  2  0  0  0
 18101  1  0  0  0
 19 20  1  0  0  0
 19 24  1  0  0  0
 20 21  2  0  0  0
 20102  1  0  0  0
 21 23  1  0  0  0
 22 28  1  0  0  0
 22 32  2  0  0  0
 26 27  1  0  0  0
 28103  1  0  0  0
 28104  1  0  0  0
 29105  1  0  0  0
 29106  1  0  0  0
 33 34  1  0  0  0
 33 66  1  0  0  0
 33 70  2  0  0  0
 34 36  1  0  0  0
 34 59  1  0  0  0
 34107  1  0  0  0
 35 44  2  0  0  0
 35 45  1  0  0  0
 35 68  1  0  0  0
 36 56  1  0  0  0
 36108  1  0  0  0
 37 39  1  0  0  0
 37 47  1  0  0  0
 37 66  1  0  0  0
 37109  1  0  0  0
 38 43  2  0  0  0
 38 46  1  0  0  0
 38 47  1  0  0  0
 39 64  1  0  0  0
 39 67  2  0  0  0
 40 52  1  0  0  0
 40 53  2  0  0  0
 40 58  1  0  0  0
 41110  1  0  0  0
 41111  1  0  0  0
 41112  1  0  0  0
 41 48  1  0  0  0
 42 43  1  0  0  0
 42 66  1  0  0  0
 42113  1  0  0  0
 42114  1  0  0  0
 43 44  1  0  0  0
 44115  1  0  0  0
 45 46  2  0  0  0
 45116  1  0  0  0
 46117  1  0  0  0
 47118  1  0  0  0
 47119  1  0  0  0
 48 56  1  0  0  0
 48 65  1  0  0  0
 48120  1  0  0  0
 49 50  1  0  0  0
 49 53  1  0  0  0
 49 64  1  0  0  0
 49121  1  0  0  0
 50 51  1  0  0  0
 50122  1  0  0  0
 50123  1  0  0  0
 51 52  1  0  0  0
 51124  1  0  0  0
 51125  1  0  0  0
 52126  1  0  0  0
 52127  1  0  0  0
 53 54  1  0  0  0
 54 55  2  0  0  0
 54128  1  0  0  0
 55 57  1  0  0  0
 55129  1  0  0  0
 56 69  2  0  0  0
 57 58  2  0  0  0
 57130  1  0  0  0
 58131  1  0  0  0
 59 60  1  0  0  0
 59 61  1  0  0  0
 59 62  1  0  0  0
 60132  1  0  0  0
 60133  1  0  0  0
 60134  1  0  0  0
 61135  1  0  0  0
 61136  1  0  0  0
 61137  1  0  0  0
 62138  1  0  0  0
 62139  1  0  0  0
 62140  1  0  0  0
 63 65  1  0  0  0
 63141  1  0  0  0
 63142  1  0  0  0
 63143  1  0  0  0
 64144  1  0  0  0
 65145  1  0  0  0
 68 77  1  0  0  0
 71 72  2  0  0  0
 71 75  1  0  0  0
 71146  1  0  0  0
 72 76  1  0  0  0
 72147  1  0  0  0
 73 74  1  0  0  0
 73 75  2  0  0  0
 73148  1  0  0  0
 74 76  2  0  0  0
 74 78  1  0  0  0
 75 82  1  0  0  0
 76 83  1  0  0  0
 77 79  2  0  0  0
 77149  1  0  0  0
 78 81  1  0  0  0
 78 84  2  0  0  0
 79 80  1  0  0  0
 79 86  1  0  0  0
 80 82  1  0  0  0
 80 85  2  0  0  0
 81150  1  0  0  0
 81151  1  0  0  0
 81152  1  0  0  0
 82153  1  0  0  0
 83154  1  0  0  0
 86155  1  0  0  0
M  ISO  4   1 100  68 101  77 101  83 100
M  END
> <chiral flag>
0

> <version>
0

> <s_m_source_file>
/data/baiqing/PycharmProjects/Reinvent-master-3.2/result/LINK_invent/BTK/process_docking_weight1_custom_product_contain_oxygen_bond_distance_aromatic_linkinvent_7_9_3/rearranged_h_0172.sdf

> <i_m_source_file_index>
76

> <r_mmod_Potential_Energy-OPLS-2005>
62.1041870117188

> <r_mmod_Stretch_Energy-OPLS-2005>
91.2762298583984

> <r_mmod_Bend_Energy-OPLS-2005>
137.497924804688

> <r_mmod_Torsional_Energy-OPLS-2005>
266.542449951172

> <r_mmod_Improper_Torsional_Energy-OPLS-2005>
7.36672019958496

> <r_mmod_Van_der_Waal_Energy-OPLS-2005>
144.936279296875

> <r_mmod_Electrostatic_Energy-OPLS-2005>
-426.959808349609

> <r_mmod_Solvation_Energy-OPLS-2005>
-224.52229309082

> <b_mmod_Minimization_Converged-OPLS-2005>
0

> <r_mmod_RMS_Derivative-OPLS-2005>
0.215393975377083

$$$$
76
                    3D
 Structure written by MMmdl.
176184  0  0  1  0            999 V2000
  -30.7373  -14.4014   20.6354 C   0  0  0  0  0  0
  -30.4165  -12.2929   19.3959 C   0  0  0  0  0  0
  -29.4852  -12.5203   18.1903 C   0  0  0  0  0  0
  -28.0074  -12.3818   18.6059 C   0  0  0  0  0  0
  -27.6632  -13.2020   19.8775 C   0  0  2  0  0  0
  -28.7032  -12.9505   20.9906 C   0  0  0  0  0  0
  -25.2606  -13.8157   20.5675 C   0  0  0  0  0  0
  -24.1853  -13.0438   20.9170 C   0  0  0  0  0  0
  -24.6400  -11.6907   20.8732 C   0  0  0  0  0  0
  -23.9064  -10.4298   21.0416 C   0  0  0  0  0  0
  -24.3622   -9.4209   21.9188 C   0  0  0  0  0  0
  -23.6300   -8.2245   22.0759 C   0  0  0  0  0  0
  -22.4280   -8.0286   21.3552 C   0  0  0  0  0  0
  -21.9920   -9.0254   20.4650 C   0  0  0  0  0  0
  -22.7243  -10.2136   20.3061 C   0  0  0  0  0  0
  -21.6851   -6.0741   22.5281 C   0  0  0  0  0  0
  -21.4015   -6.5647   23.8211 C   0  0  0  0  0  0
  -21.3661   -5.6800   24.9176 C   0  0  0  0  0  0
  -21.6044   -4.3059   24.7231 C   0  0  0  0  0  0
  -21.8822   -3.8156   23.4349 C   0  0  0  0  0  0
  -21.9193   -4.6972   22.3405 C   0  0  0  0  0  0
  -22.7883  -13.5242   21.1833 C   0  0  0  0  0  0
  -22.1659   -4.2155   21.0985 F   0  0  0  0  0  0
  -21.5628   -3.4543   25.7745 F   0  0  0  0  0  0
  -30.0366  -13.2543   20.4407 N   0  0  0  0  0  0
  -26.3034  -12.9319   20.3371 N   0  0  0  0  0  0
  -25.9320  -11.6480   20.5761 N   0  0  0  0  0  0
  -22.0520  -12.8239   22.0389 N   0  0  0  0  0  0
  -25.4342  -15.1875   20.4080 N   0  0  0  0  0  0
  -31.8322  -14.6205   20.1064 O   0  0  0  0  0  0
  -21.6636   -6.8887   21.4248 O   0  0  0  0  0  0
  -22.3577  -14.5548   20.6690 O   0  0  0  0  0  0
  -24.6128  -31.8678   23.2106 C   0  0  0  0  0  0
  -25.9033  -32.4820   23.8388 C   0  0  1  0  0  0
  -27.2375  -27.4498   20.0855 C   0  0  0  0  0  0
  -25.5889  -33.8618   24.2316 N   0  0  0  0  0  0
  -23.3989  -30.4924   21.5512 C   0  0  2  0  0  0
  -24.8417  -28.9566   20.1175 C   0  0  0  0  0  0
  -22.7385  -29.4669   22.5002 C   0  0  0  0  0  0
  -18.0263  -28.1382   22.8505 C   0  0  0  0  0  0
  -24.1478  -36.7307   23.2642 C   0  0  0  0  0  0
  -25.9244  -30.8401   21.3567 C   0  0  0  0  0  0
  -26.0010  -29.4739   20.7074 C   0  0  0  0  0  0
  -27.1974  -28.7257   20.6889 C   0  0  0  0  0  0
  -26.0541  -26.9400   19.4989 C   0  0  0  0  0  0
  -24.8614  -27.6875   19.5153 C   0  0  0  0  0  0
  -23.6046  -29.8236   20.1658 C   0  0  0  0  0  0
  -25.4097  -36.3102   24.0344 C   0  0  1  0  0  0
  -20.5848  -28.3660   23.1327 C   0  0  2  0  0  0
  -20.6754  -26.9401   22.5424 C   0  0  0  0  0  0
  -19.5737  -26.6389   21.5218 C   0  0  0  0  0  0
  -18.1907  -26.7936   22.1627 C   0  0  0  0  0  0
  -19.1511  -28.8836   23.2917 C   0  0  0  0  0  0
  -18.9452  -30.1441   23.8932 C   0  0  0  0  0  0
  -17.6460  -30.6602   24.0573 C   0  0  0  0  0  0
  -25.9029  -34.9475   23.5121 C   0  0  0  0  0  0
  -16.5348  -29.9104   23.6336 C   0  0  0  0  0  0
  -16.7256  -28.6511   23.0373 C   0  0  0  0  0  0
  -26.4484  -31.6605   25.0717 C   0  0  0  0  0  0
  -25.3771  -31.3700   26.1480 C   0  0  0  0  0  0
  -27.0312  -30.3051   24.6075 C   0  0  0  0  0  0
  -27.6050  -32.4335   25.7484 C   0  0  0  0  0  0
  -27.5573  -37.1791   24.8468 C   0  0  0  0  0  0
  -21.4114  -29.3027   22.3733 N   0  0  0  0  0  0
  -26.4278  -37.3785   23.9428 N   0  0  0  0  0  0
  -24.6642  -31.0798   22.0997 N   0  0  0  0  0  0
  -23.4162  -28.8216   23.3042 O   0  0  0  0  0  0
  -28.4405  -26.7723   20.0999 O   0  0  0  0  0  0
  -26.5597  -34.8932   22.4684 O   0  0  0  0  0  0
  -23.5325  -32.1425   23.7514 O   0  0  0  0  0  0
  -31.7425  -18.9608   22.8158 C   0  0  0  0  0  0
  -30.0247  -17.7741   21.5555 C   0  0  0  0  0  0
  -31.8477  -16.5369   22.6164 C   0  0  0  0  0  0
  -30.5679  -18.9920   22.0331 C   0  0  0  0  0  0
  -32.3806  -17.7425   23.1115 C   0  0  0  0  0  0
  -30.6724  -16.5492   21.8325 C   0  0  0  0  0  0
  -30.6185  -22.6791   20.8774 C   0  0  0  0  0  0
  -29.6450  -24.7090   20.5031 C   0  0  0  0  0  0
  -27.4480  -20.5186   21.9437 C   0  0  0  0  0  0
  -28.7276  -25.2885   18.2095 C   0  0  0  0  0  0
  -25.0728  -19.6875   21.7755 C   0  0  0  0  0  0
  -25.6160  -22.0991   21.3045 C   0  0  0  0  0  0
  -26.2790  -20.3114   19.6615 C   0  0  0  0  0  0
  -30.7900  -21.1757   20.7293 C   0  0  0  0  0  0
  -29.9355  -20.3532   21.7270 C   0  0  1  0  0  0
  -28.4994  -25.3900   19.7275 C   0  0  2  0  0  0
  -26.1158  -20.6459   21.1643 C   0  0  0  0  0  0
  -29.6981  -23.3362   20.2865 N   0  0  0  0  0  0
  -33.5381  -17.7326   23.8880 N   0  0  0  0  0  0
  -30.1069  -15.3355   21.3651 N   0  0  0  0  0  0
  -28.5585  -20.2724   21.2385 N   0  0  0  0  0  0
  -30.3833  -25.3923   21.2203 O   0  0  0  0  0  0
  -27.4673  -20.6821   23.1653 O   0  0  0  0  0  0
  -31.4598  -12.3940   19.0915 H   0  0  0  0  0  0
  -30.3143  -11.2740   19.7718 H   0  0  0  0  0  0
  -29.7158  -11.8116   17.3934 H   0  0  0  0  0  0
  -29.6583  -13.5145   17.7749 H   0  0  0  0  0  0
  -27.8080  -11.3243   18.7807 H   0  0  0  0  0  0
  -27.3577  -12.6802   17.7823 H   0  0  0  0  0  0
  -27.7170  -14.2554   19.6029 H   0  0  0  0  0  0
  -28.6747  -11.9072   21.3076 H   0  0  0  0  0  0
  -28.4617  -13.5258   21.8853 H   0  0  0  0  0  0
  -25.2769   -9.5679   22.4761 H   0  0  0  0  0  0
  -24.0004   -7.4638   22.7484 H   0  0  0  0  0  0
  -21.0849   -8.8787   19.8954 H   0  0  0  0  0  0
  -22.3712  -10.9684   19.6175 H   0  0  0  0  0  0
  -21.2007   -7.6151   23.9721 H   0  0  0  0  0  0
  -21.1475   -6.0527   25.9077 H   0  0  0  0  0  0
  -22.0599   -2.7618   23.2852 H   0  0  0  0  0  0
  -22.4126  -11.9883   22.4755 H   0  0  0  0  0  0
  -21.1143  -13.1283   22.2599 H   0  0  0  0  0  0
  -24.6696  -15.8449   20.5133 H   0  0  0  0  0  0
  -26.2899  -15.6245   20.0907 H   0  0  0  0  0  0
  -26.7107  -32.5543   23.1151 H   0  0  0  0  0  0
  -25.0046  -33.9788   25.0466 H   0  0  0  0  0  0
  -22.6887  -31.3097   21.4118 H   0  0  0  0  0  0
  -23.3749  -35.9630   23.3294 H   0  0  0  0  0  0
  -24.3559  -36.8932   22.2060 H   0  0  0  0  0  0
  -23.7225  -37.6504   23.6658 H   0  0  0  0  0  0
  -26.0267  -31.6060   20.5866 H   0  0  0  0  0  0
  -26.8158  -30.8988   21.9689 H   0  0  0  0  0  0
  -28.0954  -29.1256   21.1381 H   0  0  0  0  0  0
  -26.0283  -25.9745   19.0178 H   0  0  0  0  0  0
  -23.9669  -27.2824   19.0619 H   0  0  0  0  0  0
  -23.7126  -30.5988   19.4052 H   0  0  0  0  0  0
  -22.7277  -29.2434   19.8706 H   0  0  0  0  0  0
  -25.1267  -36.1959   25.0837 H   0  0  0  0  0  0
  -20.9948  -28.3232   24.1444 H   0  0  0  0  0  0
  -20.5654  -26.2273   23.3609 H   0  0  0  0  0  0
  -21.6633  -26.7439   22.1234 H   0  0  0  0  0  0
  -19.6899  -25.6302   21.1234 H   0  0  0  0  0  0
  -19.6681  -27.3218   20.6761 H   0  0  0  0  0  0
  -17.4187  -26.6710   21.4023 H   0  0  0  0  0  0
  -18.0291  -26.0068   22.9006 H   0  0  0  0  0  0
  -19.7926  -30.7236   24.2339 H   0  0  0  0  0  0
  -17.5018  -31.6293   24.5146 H   0  0  0  0  0  0
  -15.5347  -30.3025   23.7626 H   0  0  0  0  0  0
  -15.8660  -28.0823   22.7098 H   0  0  0  0  0  0
  -24.5943  -30.7039   25.7837 H   0  0  0  0  0  0
  -24.8977  -32.2859   26.4950 H   0  0  0  0  0  0
  -25.8166  -30.8874   27.0221 H   0  0  0  0  0  0
  -26.2845  -29.6796   24.1175 H   0  0  0  0  0  0
  -27.4143  -29.7300   25.4515 H   0  0  0  0  0  0
  -27.8647  -30.4377   23.9169 H   0  0  0  0  0  0
  -27.2654  -33.3624   26.2082 H   0  0  0  0  0  0
  -28.3856  -32.6918   25.0315 H   0  0  0  0  0  0
  -28.0724  -31.8455   26.5391 H   0  0  0  0  0  0
  -28.2581  -38.0097   24.7538 H   0  0  0  0  0  0
  -28.1076  -36.2629   24.6264 H   0  0  0  0  0  0
  -27.2301  -37.1443   25.8873 H   0  0  0  0  0  0
  -20.9262  -29.8746   21.6966 H   0  0  0  0  0  0
  -26.0163  -38.2845   24.1486 H   0  0  0  0  0  0
  -32.1553  -19.8893   23.1852 H   0  0  0  0  0  0
  -29.1230  -17.7732   20.9608 H   0  0  0  0  0  0
  -32.3335  -15.5974   22.8416 H   0  0  0  0  0  0
  -31.3644  -23.1346   21.5370 H   0  0  0  0  0  0
  -27.9423  -25.7913   17.6481 H   0  0  0  0  0  0
  -28.7493  -24.2491   17.8794 H   0  0  0  0  0  0
  -29.6758  -25.7477   17.9289 H   0  0  0  0  0  0
  -24.9001  -19.8952   22.8333 H   0  0  0  0  0  0
  -25.3963  -18.6482   21.6961 H   0  0  0  0  0  0
  -24.1105  -19.7719   21.2677 H   0  0  0  0  0  0
  -25.4451  -22.3678   22.3485 H   0  0  0  0  0  0
  -24.6778  -22.2543   20.7716 H   0  0  0  0  0  0
  -26.3415  -22.8080   20.9029 H   0  0  0  0  0  0
  -26.6411  -19.2926   19.5115 H   0  0  0  0  0  0
  -26.9686  -20.9942   19.1622 H   0  0  0  0  0  0
  -25.3255  -20.3892   19.1389 H   0  0  0  0  0  0
  -31.8465  -20.9781   20.9094 H   0  0  0  0  0  0
  -30.6078  -20.8716   19.6972 H   0  0  0  0  0  0
  -29.9384  -20.8893   22.6797 H   0  0  0  0  0  0
  -27.5894  -24.8652   20.0205 H   0  0  0  0  0  0
  -33.7527  -18.5388   24.4679 H   0  0  0  0  0  0
  -33.8543  -16.8570   24.2949 H   0  0  0  0  0  0
  -29.1431  -15.1510   21.5991 H   0  0  0  0  0  0
  -28.4311  -20.1495   20.2444 H   0  0  0  0  0  0
  1 25  1  0  0  0
  1 30  2  0  0  0
  1 90  1  0  0  0
  2  3  1  0  0  0
  2 25  1  0  0  0
  2 94  1  0  0  0
  2 95  1  0  0  0
  3  4  1  0  0  0
  3 96  1  0  0  0
  3 97  1  0  0  0
  4  5  1  0  0  0
  4 98  1  0  0  0
  4 99  1  0  0  0
  5  6  1  0  0  0
  5 26  1  0  0  0
  5100  1  0  0  0
  6 25  1  0  0  0
  6101  1  0  0  0
  6102  1  0  0  0
  7  8  2  0  0  0
  7 26  1  0  0  0
  7 29  1  0  0  0
  8  9  1  0  0  0
  8 22  1  0  0  0
  9 10  1  0  0  0
  9 27  2  0  0  0
 10 11  2  0  0  0
 10 15  1  0  0  0
 11 12  1  0  0  0
 11103  1  0  0  0
 12 13  2  0  0  0
 12104  1  0  0  0
 13 14  1  0  0  0
 13 31  1  0  0  0
 14 15  2  0  0  0
 14105  1  0  0  0
 15106  1  0  0  0
 16 17  2  0  0  0
 16 21  1  0  0  0
 16 31  1  0  0  0
 17 18  1  0  0  0
 17107  1  0  0  0
 18 19  2  0  0  0
 18108  1  0  0  0
 19 20  1  0  0  0
 19 24  1  0  0  0
 20 21  2  0  0  0
 20109  1  0  0  0
 21 23  1  0  0  0
 22 28  1  0  0  0
 22 32  2  0  0  0
 26 27  1  0  0  0
 28110  1  0  0  0
 28111  1  0  0  0
 29112  1  0  0  0
 29113  1  0  0  0
 33 34  1  0  0  0
 33 66  1  0  0  0
 33 70  2  0  0  0
 34 36  1  0  0  0
 34 59  1  0  0  0
 34114  1  0  0  0
 35 44  2  0  0  0
 35 45  1  0  0  0
 35 68  1  0  0  0
 36 56  1  0  0  0
 36115  1  0  0  0
 37 39  1  0  0  0
 37 47  1  0  0  0
 37 66  1  0  0  0
 37116  1  0  0  0
 38 43  2  0  0  0
 38 46  1  0  0  0
 38 47  1  0  0  0
 39 64  1  0  0  0
 39 67  2  0  0  0
 40 52  1  0  0  0
 40 53  2  0  0  0
 40 58  1  0  0  0
 41117  1  0  0  0
 41118  1  0  0  0
 41119  1  0  0  0
 41 48  1  0  0  0
 42 43  1  0  0  0
 42 66  1  0  0  0
 42120  1  0  0  0
 42121  1  0  0  0
 43 44  1  0  0  0
 44122  1  0  0  0
 45 46  2  0  0  0
 45123  1  0  0  0
 46124  1  0  0  0
 47125  1  0  0  0
 47126  1  0  0  0
 48 56  1  0  0  0
 48 65  1  0  0  0
 48127  1  0  0  0
 49 50  1  0  0  0
 49 53  1  0  0  0
 49 64  1  0  0  0
 49128  1  0  0  0
 50 51  1  0  0  0
 50129  1  0  0  0
 50130  1  0  0  0
 51 52  1  0  0  0
 51131  1  0  0  0
 51132  1  0  0  0
 52133  1  0  0  0
 52134  1  0  0  0
 53 54  1  0  0  0
 54 55  2  0  0  0
 54135  1  0  0  0
 55 57  1  0  0  0
 55136  1  0  0  0
 56 69  2  0  0  0
 57 58  2  0  0  0
 57137  1  0  0  0
 58138  1  0  0  0
 59 60  1  0  0  0
 59 61  1  0  0  0
 59 62  1  0  0  0
 60139  1  0  0  0
 60140  1  0  0  0
 60141  1  0  0  0
 61142  1  0  0  0
 61143  1  0  0  0
 61144  1  0  0  0
 62145  1  0  0  0
 62146  1  0  0  0
 62147  1  0  0  0
 63 65  1  0  0  0
 63148  1  0  0  0
 63149  1  0  0  0
 63150  1  0  0  0
 64151  1  0  0  0
 65152  1  0  0  0
 68 86  1  0  0  0
 71 74  2  0  0  0
 71 75  1  0  0  0
 71153  1  0  0  0
 72 74  1  0  0  0
 72 76  2  0  0  0
 72154  1  0  0  0
 73 75  2  0  0  0
 73 76  1  0  0  0
 73155  1  0  0  0
 74 85  1  0  0  0
 75 89  1  0  0  0
 76 90  1  0  0  0
 77 84  1  0  0  0
 77 88  2  0  0  0
 77156  1  0  0  0
 78 86  1  0  0  0
 78 88  1  0  0  0
 78 92  2  0  0  0
 79 87  1  0  0  0
 79 91  1  0  0  0
 79 93  2  0  0  0
 80157  1  0  0  0
 80158  1  0  0  0
 80159  1  0  0  0
 80 86  1  0  0  0
 81160  1  0  0  0
 81161  1  0  0  0
 81162  1  0  0  0
 81 87  1  0  0  0
 82 87  1  0  0  0
 82163  1  0  0  0
 82164  1  0  0  0
 82165  1  0  0  0
 83 87  1  0  0  0
 83166  1  0  0  0
 83167  1  0  0  0
 83168  1  0  0  0
 84169  1  0  0  0
 84170  1  0  0  0
 84 85  1  0  0  0
 85 91  1  0  0  0
 85171  1  0  0  0
 86172  1  0  0  0
 89173  1  0  0  0
 89174  1  0  0  0
 90175  1  0  0  0
 91176  1  0  0  0
M  ISO  4   1 100  68 101  86 101  90 100
M  END
> <chiral flag>
0

> <version>
0

> <s_m_source_file>
/data/baiqing/PycharmProjects/Reinvent-master-3.2/result/LINK_invent/BTK/process_docking_weight1_custom_product_contain_oxygen_bond_distance_aromatic_linkinvent_7_9_3/rearranged_h_0172.sdf

> <i_m_source_file_index>
77

> <r_mmod_Potential_Energy-OPLS-2005>
-166.538589477539

> <r_mmod_Stretch_Energy-OPLS-2005>
37.4460792541504

> <r_mmod_Bend_Energy-OPLS-2005>
110.385604858398

> <r_mmod_Torsional_Energy-OPLS-2005>
228.688262939453

> <r_mmod_Improper_Torsional_Energy-OPLS-2005>
5.45285129547119

> <r_mmod_Van_der_Waal_Energy-OPLS-2005>
168.002914428711

> <r_mmod_Electrostatic_Energy-OPLS-2005>
-481.263427734375

> <r_mmod_Solvation_Energy-OPLS-2005>
-244.427001953125

> <b_mmod_Minimization_Converged-OPLS-2005>
0

> <r_mmod_RMS_Derivative-OPLS-2005>
1.82762670516968

$$$$
77
                    3D
 Structure written by MMmdl.
158166  0  0  1  0            999 V2000
  -30.6977  -14.4475   20.6001 C   0  0  0  0  0  0
  -30.4278  -12.3018   19.4105 C   0  0  0  0  0  0
  -29.4935  -12.5153   18.2011 C   0  0  0  0  0  0
  -28.0147  -12.3718   18.6140 C   0  0  0  0  0  0
  -27.6646  -13.2004   19.8784 C   0  0  2  0  0  0
  -28.7054  -12.9525   20.9937 C   0  0  0  0  0  0
  -25.2602  -13.8145   20.5683 C   0  0  0  0  0  0
  -24.1837  -13.0428   20.9149 C   0  0  0  0  0  0
  -24.6386  -11.6894   20.8714 C   0  0  0  0  0  0
  -23.9049  -10.4286   21.0396 C   0  0  0  0  0  0
  -24.3605   -9.4207   21.9180 C   0  0  0  0  0  0
  -23.6284   -8.2242   22.0756 C   0  0  0  0  0  0
  -22.4265   -8.0278   21.3546 C   0  0  0  0  0  0
  -21.9896   -9.0248   20.4647 C   0  0  0  0  0  0
  -22.7221  -10.2127   20.3049 C   0  0  0  0  0  0
  -21.6849   -6.0735   22.5282 C   0  0  0  0  0  0
  -21.4012   -6.5641   23.8215 C   0  0  0  0  0  0
  -21.3657   -5.6795   24.9176 C   0  0  0  0  0  0
  -21.6044   -4.3057   24.7226 C   0  0  0  0  0  0
  -21.8818   -3.8147   23.4348 C   0  0  0  0  0  0
  -21.9192   -4.6963   22.3405 C   0  0  0  0  0  0
  -22.7864  -13.5237   21.1832 C   0  0  0  0  0  0
  -22.1661   -4.2152   21.0982 F   0  0  0  0  0  0
  -21.5627   -3.4539   25.7738 F   0  0  0  0  0  0
  -30.0408  -13.2657   20.4513 N   0  0  0  0  0  0
  -26.3038  -12.9306   20.3381 N   0  0  0  0  0  0
  -25.9312  -11.6468   20.5753 N   0  0  0  0  0  0
  -22.0507  -12.8229   22.0390 N   0  0  0  0  0  0
  -25.4327  -15.1862   20.4162 N   0  0  0  0  0  0
  -31.8073  -14.6715   20.1059 O   0  0  0  0  0  0
  -21.6633   -6.8874   21.4242 O   0  0  0  0  0  0
  -22.3544  -14.5551   20.6699 O   0  0  0  0  0  0
  -24.6116  -31.8701   23.2123 C   0  0  0  0  0  0
  -25.9018  -32.4838   23.8416 C   0  0  1  0  0  0
  -27.2493  -27.4566   20.1012 C   0  0  0  0  0  0
  -25.5882  -33.8635   24.2345 N   0  0  0  0  0  0
  -23.4002  -30.4916   21.5510 C   0  0  2  0  0  0
  -24.8528  -28.9597   20.1185 C   0  0  0  0  0  0
  -22.7399  -29.4662   22.5001 C   0  0  0  0  0  0
  -18.0271  -28.1375   22.8494 C   0  0  0  0  0  0
  -24.1483  -36.7326   23.2636 C   0  0  0  0  0  0
  -25.9253  -30.8433   21.3629 C   0  0  0  0  0  0
  -26.0083  -29.4759   20.7187 C   0  0  0  0  0  0
  -27.2091  -28.7321   20.7171 C   0  0  0  0  0  0
  -26.0796  -26.9572   19.4944 C   0  0  0  0  0  0
  -24.8811  -27.6954   19.5051 C   0  0  0  0  0  0
  -23.6107  -29.8209   20.1664 C   0  0  0  0  0  0
  -25.4101  -36.3124   24.0341 C   0  0  1  0  0  0
  -20.5858  -28.3658   23.1326 C   0  0  2  0  0  0
  -20.6762  -26.9397   22.5420 C   0  0  0  0  0  0
  -19.5740  -26.6386   21.5216 C   0  0  0  0  0  0
  -18.1918  -26.7924   22.1622 C   0  0  0  0  0  0
  -19.1519  -28.8834   23.2909 C   0  0  0  0  0  0
  -18.9446  -30.1441   23.8917 C   0  0  0  0  0  0
  -17.6449  -30.6582   24.0564 C   0  0  0  0  0  0
  -25.9026  -34.9485   23.5141 C   0  0  0  0  0  0
  -16.5340  -29.9085   23.6325 C   0  0  0  0  0  0
  -16.7259  -28.6501   23.0347 C   0  0  0  0  0  0
  -26.4462  -31.6604   25.0727 C   0  0  0  0  0  0
  -25.3745  -31.3693   26.1486 C   0  0  0  0  0  0
  -27.0291  -30.3055   24.6073 C   0  0  0  0  0  0
  -27.6043  -32.4318   25.7486 C   0  0  0  0  0  0
  -27.5584  -37.1813   24.8457 C   0  0  0  0  0  0
  -21.4130  -29.3028   22.3736 N   0  0  0  0  0  0
  -26.4288  -37.3808   23.9413 N   0  0  0  0  0  0
  -24.6635  -31.0819   22.1014 N   0  0  0  0  0  0
  -23.4177  -28.8207   23.3040 O   0  0  0  0  0  0
  -28.3632  -26.6474   20.0387 O   0  0  0  0  0  0
  -26.5590  -34.8929   22.4703 O   0  0  0  0  0  0
  -23.5314  -32.1440   23.7530 O   0  0  0  0  0  0
  -31.2550  -18.9397   21.1273 C   0  0  0  0  0  0
  -31.2386  -17.5439   21.3446 C   0  0  0  0  0  0
  -30.1431  -19.6129   20.5621 C   0  0  0  0  0  0
  -30.0909  -16.7912   21.0200 C   0  0  0  0  0  0
  -28.9833  -18.8511   20.2610 C   0  0  0  0  0  0
  -28.9623  -17.4553   20.4972 C   0  0  0  0  0  0
  -30.1838  -21.0792   20.3169 C   0  0  0  0  0  0
  -30.9749  -21.9660   20.9574 C   0  0  0  0  0  0
  -30.4301  -25.7318   20.9458 C   0  0  0  0  0  0
  -29.8923  -24.2961   20.8144 C   0  0  0  0  0  0
  -29.4440  -26.9138   20.9252 C   0  0  0  0  0  0
  -27.8392  -19.4522   19.7260 N   0  0  0  0  0  0
  -30.0034  -15.3913   21.2552 N   0  0  0  0  0  0
  -31.0578  -23.4118   20.5929 N   0  3  0  0  0  0
  -31.6429  -25.9350   21.0895 O   0  0  0  0  0  0
  -27.8483  -16.7405   20.1992 F   0  0  0  0  0  0
  -31.4704  -12.4130   19.1071 H   0  0  0  0  0  0
  -30.3367  -11.2831   19.7909 H   0  0  0  0  0  0
  -29.7303  -11.8029   17.4098 H   0  0  0  0  0  0
  -29.6601  -13.5072   17.7777 H   0  0  0  0  0  0
  -27.8232  -11.3145   18.8002 H   0  0  0  0  0  0
  -27.3634  -12.6565   17.7869 H   0  0  0  0  0  0
  -27.7152  -14.2510   19.5934 H   0  0  0  0  0  0
  -28.6790  -11.9071   21.3063 H   0  0  0  0  0  0
  -28.4600  -13.5218   21.8911 H   0  0  0  0  0  0
  -25.2751   -9.5687   22.4752 H   0  0  0  0  0  0
  -23.9997   -7.4634   22.7473 H   0  0  0  0  0  0
  -21.0829   -8.8757   19.8953 H   0  0  0  0  0  0
  -22.3679  -10.9662   19.6153 H   0  0  0  0  0  0
  -21.2002   -7.6150   23.9718 H   0  0  0  0  0  0
  -21.1479   -6.0526   25.9081 H   0  0  0  0  0  0
  -22.0599   -2.7609   23.2847 H   0  0  0  0  0  0
  -22.4108  -11.9873   22.4756 H   0  0  0  0  0  0
  -21.1134  -13.1272   22.2609 H   0  0  0  0  0  0
  -24.6752  -15.8452   20.5518 H   0  0  0  0  0  0
  -26.3118  -15.6409   20.1858 H   0  0  0  0  0  0
  -26.7093  -32.5576   23.1192 H   0  0  0  0  0  0
  -25.0036  -33.9804   25.0493 H   0  0  0  0  0  0
  -22.6876  -31.3071   21.4101 H   0  0  0  0  0  0
  -23.3743  -35.9660   23.3300 H   0  0  0  0  0  0
  -24.3586  -36.8939   22.2050 H   0  0  0  0  0  0
  -23.7230  -37.6530   23.6648 H   0  0  0  0  0  0
  -26.0294  -31.6064   20.5902 H   0  0  0  0  0  0
  -26.8151  -30.9051   21.9772 H   0  0  0  0  0  0
  -28.0905  -29.1513   21.1809 H   0  0  0  0  0  0
  -26.0981  -25.9873   19.0175 H   0  0  0  0  0  0
  -23.9944  -27.2898   19.0377 H   0  0  0  0  0  0
  -23.7143  -30.5936   19.4038 H   0  0  0  0  0  0
  -22.7379  -29.2347   19.8733 H   0  0  0  0  0  0
  -25.1275  -36.1993   25.0835 H   0  0  0  0  0  0
  -20.9950  -28.3220   24.1447 H   0  0  0  0  0  0
  -20.5664  -26.2264   23.3605 H   0  0  0  0  0  0
  -21.6632  -26.7444   22.1208 H   0  0  0  0  0  0
  -19.6898  -25.6300   21.1235 H   0  0  0  0  0  0
  -19.6684  -27.3206   20.6753 H   0  0  0  0  0  0
  -17.4192  -26.6680   21.4020 H   0  0  0  0  0  0
  -18.0313  -26.0058   22.9009 H   0  0  0  0  0  0
  -19.7924  -30.7251   24.2295 H   0  0  0  0  0  0
  -17.5005  -31.6267   24.5157 H   0  0  0  0  0  0
  -15.5342  -30.2991   23.7638 H   0  0  0  0  0  0
  -15.8660  -28.0825   22.7053 H   0  0  0  0  0  0
  -24.5898  -30.7065   25.7823 H   0  0  0  0  0  0
  -24.8960  -32.2842   26.4987 H   0  0  0  0  0  0
  -25.8109  -30.8818   27.0213 H   0  0  0  0  0  0
  -26.2827  -29.6822   24.1135 H   0  0  0  0  0  0
  -27.4083  -29.7279   25.4513 H   0  0  0  0  0  0
  -27.8650  -30.4390   23.9204 H   0  0  0  0  0  0
  -27.2663  -33.3600   26.2105 H   0  0  0  0  0  0
  -28.3830  -32.6909   25.0302 H   0  0  0  0  0  0
  -28.0735  -31.8419   26.5369 H   0  0  0  0  0  0
  -28.2586  -38.0127   24.7537 H   0  0  0  0  0  0
  -28.1097  -36.2662   24.6239 H   0  0  0  0  0  0
  -27.2310  -37.1404   25.8861 H   0  0  0  0  0  0
  -20.9288  -29.8749   21.6958 H   0  0  0  0  0  0
  -26.0181  -38.2884   24.1434 H   0  0  0  0  0  0
  -32.1529  -19.4854   21.3782 H   0  0  0  0  0  0
  -32.1089  -17.0584   21.7641 H   0  0  0  0  0  0
  -29.5468  -21.4436   19.5239 H   0  0  0  0  0  0
  -31.6360  -21.6985   21.7698 H   0  0  0  0  0  0
  -29.1779  -24.2134   19.9959 H   0  0  0  0  0  0
  -29.3835  -24.0286   21.7401 H   0  0  0  0  0  0
  -29.9677  -27.8161   20.6081 H   0  0  0  0  0  0
  -29.0741  -27.0770   21.9379 H   0  0  0  0  0  0
  -27.9624  -20.2851   19.1647 H   0  0  0  0  0  0
  -27.1532  -18.8150   19.3347 H   0  0  0  0  0  0
  -29.0945  -15.0703   21.5520 H   0  0  0  0  0  0
  -31.7904  -23.8540   21.1300 H   0  0  0  0  0  0
  -31.3470  -23.5142   19.6343 H   0  0  0  0  0  0
  1 25  1  0  0  0
  1 30  2  0  0  0
  1 83  1  0  0  0
  2  3  1  0  0  0
  2 25  1  0  0  0
  2 87  1  0  0  0
  2 88  1  0  0  0
  3  4  1  0  0  0
  3 89  1  0  0  0
  3 90  1  0  0  0
  4  5  1  0  0  0
  4 91  1  0  0  0
  4 92  1  0  0  0
  5  6  1  0  0  0
  5 26  1  0  0  0
  5 93  1  0  0  0
  6 25  1  0  0  0
  6 94  1  0  0  0
  6 95  1  0  0  0
  7  8  2  0  0  0
  7 26  1  0  0  0
  7 29  1  0  0  0
  8  9  1  0  0  0
  8 22  1  0  0  0
  9 10  1  0  0  0
  9 27  2  0  0  0
 10 11  2  0  0  0
 10 15  1  0  0  0
 11 12  1  0  0  0
 11 96  1  0  0  0
 12 13  2  0  0  0
 12 97  1  0  0  0
 13 14  1  0  0  0
 13 31  1  0  0  0
 14 15  2  0  0  0
 14 98  1  0  0  0
 15 99  1  0  0  0
 16 17  2  0  0  0
 16 21  1  0  0  0
 16 31  1  0  0  0
 17 18  1  0  0  0
 17100  1  0  0  0
 18 19  2  0  0  0
 18101  1  0  0  0
 19 20  1  0  0  0
 19 24  1  0  0  0
 20 21  2  0  0  0
 20102  1  0  0  0
 21 23  1  0  0  0
 22 28  1  0  0  0
 22 32  2  0  0  0
 26 27  1  0  0  0
 28103  1  0  0  0
 28104  1  0  0  0
 29105  1  0  0  0
 29106  1  0  0  0
 33 34  1  0  0  0
 33 66  1  0  0  0
 33 70  2  0  0  0
 34 36  1  0  0  0
 34 59  1  0  0  0
 34107  1  0  0  0
 35 44  2  0  0  0
 35 45  1  0  0  0
 35 68  1  0  0  0
 36 56  1  0  0  0
 36108  1  0  0  0
 37 39  1  0  0  0
 37 47  1  0  0  0
 37 66  1  0  0  0
 37109  1  0  0  0
 38 43  2  0  0  0
 38 46  1  0  0  0
 38 47  1  0  0  0
 39 64  1  0  0  0
 39 67  2  0  0  0
 40 52  1  0  0  0
 40 53  2  0  0  0
 40 58  1  0  0  0
 41110  1  0  0  0
 41111  1  0  0  0
 41112  1  0  0  0
 41 48  1  0  0  0
 42 43  1  0  0  0
 42 66  1  0  0  0
 42113  1  0  0  0
 42114  1  0  0  0
 43 44  1  0  0  0
 44115  1  0  0  0
 45 46  2  0  0  0
 45116  1  0  0  0
 46117  1  0  0  0
 47118  1  0  0  0
 47119  1  0  0  0
 48 56  1  0  0  0
 48 65  1  0  0  0
 48120  1  0  0  0
 49 50  1  0  0  0
 49 53  1  0  0  0
 49 64  1  0  0  0
 49121  1  0  0  0
 50 51  1  0  0  0
 50122  1  0  0  0
 50123  1  0  0  0
 51 52  1  0  0  0
 51124  1  0  0  0
 51125  1  0  0  0
 52126  1  0  0  0
 52127  1  0  0  0
 53 54  1  0  0  0
 54 55  2  0  0  0
 54128  1  0  0  0
 55 57  1  0  0  0
 55129  1  0  0  0
 56 69  2  0  0  0
 57 58  2  0  0  0
 57130  1  0  0  0
 58131  1  0  0  0
 59 60  1  0  0  0
 59 61  1  0  0  0
 59 62  1  0  0  0
 60132  1  0  0  0
 60133  1  0  0  0
 60134  1  0  0  0
 61135  1  0  0  0
 61136  1  0  0  0
 61137  1  0  0  0
 62138  1  0  0  0
 62139  1  0  0  0
 62140  1  0  0  0
 63 65  1  0  0  0
 63141  1  0  0  0
 63142  1  0  0  0
 63143  1  0  0  0
 64144  1  0  0  0
 65145  1  0  0  0
 68 81  1  0  0  0
 71 72  2  0  0  0
 71 73  1  0  0  0
 71146  1  0  0  0
 72 74  1  0  0  0
 72147  1  0  0  0
 73 75  2  0  0  0
 73 77  1  0  0  0
 74 76  2  0  0  0
 74 83  1  0  0  0
 75 76  1  0  0  0
 75 82  1  0  0  0
 76 86  1  0  0  0
 77 78  2  0  0  0
 77148  1  0  0  0
 78 84  1  0  0  0
 78149  1  0  0  0
 79 80  1  0  0  0
 79 81  1  0  0  0
 79 85  2  0  0  0
 80 84  1  0  0  0
 80150  1  0  0  0
 80151  1  0  0  0
 81152  1  0  0  0
 81153  1  0  0  0
 82154  1  0  0  0
 82155  1  0  0  0
 83156  1  0  0  0
 84157  1  0  0  0
 84158  1  0  0  0
M  CHG  1  84   1
M  ISO  4   1 100  68 101  81 101  83 100
M  END
> <chiral flag>
0

> <version>
0

> <s_m_source_file>
/data/baiqing/PycharmProjects/Reinvent-master-3.2/result/LINK_invent/BTK/process_docking_weight1_custom_product_contain_oxygen_bond_distance_aromatic_linkinvent_7_9_3/rearranged_h_0172.sdf

> <i_m_source_file_index>
78

> <r_mmod_Potential_Energy-OPLS-2005>
-328.155609130859

> <r_mmod_Stretch_Energy-OPLS-2005>
35.7939872741699

> <r_mmod_Bend_Energy-OPLS-2005>
102.551010131836

> <r_mmod_Torsional_Energy-OPLS-2005>
241.759765625

> <r_mmod_Improper_Torsional_Energy-OPLS-2005>
8.93708419799805

> <r_mmod_Van_der_Waal_Energy-OPLS-2005>
158.067138671875

> <r_mmod_Electrostatic_Energy-OPLS-2005>
-405.6015625

> <r_mmod_Solvation_Energy-OPLS-2005>
-479.149505615234

> <b_mmod_Minimization_Converged-OPLS-2005>
0

> <r_mmod_RMS_Derivative-OPLS-2005>
0.548517644405365

$$$$
78
                    3D
 Structure written by MMmdl.
161169  0  0  1  0            999 V2000
  -30.6602  -14.5597   20.5740 C   0  0  0  0  0  0
  -30.4500  -12.3702   19.4190 C   0  0  0  0  0  0
  -29.4963  -12.5127   18.2109 C   0  0  0  0  0  0
  -28.0250  -12.3399   18.6387 C   0  0  0  0  0  0
  -27.6650  -13.1999   19.8767 C   0  0  2  0  0  0
  -28.7177  -13.0095   20.9948 C   0  0  0  0  0  0
  -25.2638  -13.8156   20.5702 C   0  0  0  0  0  0
  -24.1872  -13.0433   20.9210 C   0  0  0  0  0  0
  -24.6419  -11.6896   20.8795 C   0  0  0  0  0  0
  -23.9096  -10.4283   21.0448 C   0  0  0  0  0  0
  -24.3646   -9.4195   21.9221 C   0  0  0  0  0  0
  -23.6291   -8.2246   22.0776 C   0  0  0  0  0  0
  -22.4272   -8.0308   21.3567 C   0  0  0  0  0  0
  -21.9937   -9.0297   20.4675 C   0  0  0  0  0  0
  -22.7278  -10.2161   20.3083 C   0  0  0  0  0  0
  -21.6860   -6.0753   22.5275 C   0  0  0  0  0  0
  -21.4004   -6.5641   23.8212 C   0  0  0  0  0  0
  -21.3650   -5.6789   24.9171 C   0  0  0  0  0  0
  -21.6049   -4.3056   24.7214 C   0  0  0  0  0  0
  -21.8824   -3.8159   23.4328 C   0  0  0  0  0  0
  -21.9178   -4.6981   22.3386 C   0  0  0  0  0  0
  -22.7896  -13.5276   21.1837 C   0  0  0  0  0  0
  -22.1661   -4.2169   21.0965 F   0  0  0  0  0  0
  -21.5634   -3.4534   25.7728 F   0  0  0  0  0  0
  -30.0358  -13.3524   20.4324 N   0  0  0  0  0  0
  -26.3077  -12.9296   20.3431 N   0  0  0  0  0  0
  -25.9355  -11.6471   20.5867 N   0  0  0  0  0  0
  -22.0511  -12.8276   22.0383 N   0  0  0  0  0  0
  -25.4349  -15.1867   20.4061 N   0  0  0  0  0  0
  -31.8126  -14.7690   20.1822 O   0  0  0  0  0  0
  -21.6628   -6.8902   21.4243 O   0  0  0  0  0  0
  -22.3583  -14.5577   20.6674 O   0  0  0  0  0  0
  -24.6200  -31.8619   23.1994 C   0  0  0  0  0  0
  -25.9037  -32.4792   23.8311 C   0  0  1  0  0  0
  -27.2506  -27.3784   20.0986 C   0  0  0  0  0  0
  -25.5885  -33.8592   24.2243 N   0  0  0  0  0  0
  -23.4140  -30.4786   21.5431 C   0  0  2  0  0  0
  -24.8673  -28.9395   20.1070 C   0  0  0  0  0  0
  -22.7480  -29.4566   22.4923 C   0  0  0  0  0  0
  -18.0310  -28.1324   22.8496 C   0  0  0  0  0  0
  -24.1466  -36.7313   23.2645 C   0  0  0  0  0  0
  -25.9475  -30.8141   21.3526 C   0  0  0  0  0  0
  -26.0293  -29.4401   20.7066 C   0  0  0  0  0  0
  -27.2215  -28.6704   20.6944 C   0  0  0  0  0  0
  -26.0700  -26.9152   19.4722 C   0  0  0  0  0  0
  -24.8884  -27.6830   19.4796 C   0  0  0  0  0  0
  -23.6284  -29.8086   20.1579 C   0  0  0  0  0  0
  -25.4084  -36.3072   24.0334 C   0  0  1  0  0  0
  -20.5914  -28.3596   23.1303 C   0  0  2  0  0  0
  -20.6731  -26.9303   22.5415 C   0  0  0  0  0  0
  -19.5692  -26.6324   21.5198 C   0  0  0  0  0  0
  -18.1898  -26.7866   22.1650 C   0  0  0  0  0  0
  -19.1567  -28.8788   23.2890 C   0  0  0  0  0  0
  -18.9499  -30.1407   23.8876 C   0  0  0  0  0  0
  -17.6494  -30.6530   24.0550 C   0  0  0  0  0  0
  -25.9039  -34.9465   23.5091 C   0  0  0  0  0  0
  -16.5384  -29.9028   23.6314 C   0  0  0  0  0  0
  -16.7304  -28.6456   23.0308 C   0  0  0  0  0  0
  -26.4432  -31.6631   25.0689 C   0  0  0  0  0  0
  -25.3691  -31.3802   26.1445 C   0  0  0  0  0  0
  -27.0260  -30.3095   24.6017 C   0  0  0  0  0  0
  -27.5955  -32.4410   25.7503 C   0  0  0  0  0  0
  -27.5561  -37.1789   24.8478 C   0  0  0  0  0  0
  -21.4196  -29.2977   22.3722 N   0  0  0  0  0  0
  -26.4268  -37.3770   23.9432 N   0  0  0  0  0  0
  -24.6803  -31.0680   22.0900 N   0  0  0  0  0  0
  -23.4237  -28.8029   23.2914 O   0  0  0  0  0  0
  -28.4172  -26.6184   20.1548 O   0  0  0  0  0  0
  -26.5614  -34.8926   22.4648 O   0  0  0  0  0  0
  -23.5392  -32.1397   23.7357 O   0  0  0  0  0  0
  -30.1389  -18.0662   20.8326 C   0  0  0  0  0  0
  -30.0051  -18.0882   23.6370 C   0  0  0  0  0  0
  -30.1138  -19.3222   21.5178 C   0  0  0  0  0  0
  -30.0602  -16.8283   21.5414 C   0  0  0  0  0  0
  -30.0869  -19.3118   22.9397 C   0  0  0  0  0  0
  -29.9682  -16.8613   22.9466 C   0  0  0  0  0  0
  -29.3688  -24.3273   20.6209 C   0  0  0  0  0  0
  -29.4562  -21.6979   20.8773 C   0  0  0  0  0  0
  -31.4870  -23.0293   20.1608 C   0  0  0  0  0  0
  -29.5593  -22.7356   18.5790 C   0  0  0  0  0  0
  -28.3918  -25.2067   19.7768 C   0  0  0  0  0  0
  -29.9392  -22.9570   20.0629 C   0  0  0  0  0  0
  -30.1707  -20.4963   23.6787 N   0  0  0  0  0  0
  -30.2127  -20.5659   20.7883 N   0  0  0  0  0  0
  -29.8153  -15.5617   20.9134 N   0  0  0  0  0  0
  -29.7279  -24.7390   21.7330 O   0  0  0  0  0  0
  -28.4071  -21.7333   21.5289 O   0  0  0  0  0  0
  -29.8010  -15.7021   23.6317 F   0  0  0  0  0  0
  -31.4823  -12.5189   19.0998 H   0  0  0  0  0  0
  -30.4080  -11.3617   19.8344 H   0  0  0  0  0  0
  -29.7506  -11.7787   17.4441 H   0  0  0  0  0  0
  -29.6263  -13.4938   17.7508 H   0  0  0  0  0  0
  -27.8779  -11.2858   18.8770 H   0  0  0  0  0  0
  -27.3541  -12.5696   17.8089 H   0  0  0  0  0  0
  -27.6981  -14.2399   19.5527 H   0  0  0  0  0  0
  -28.7276  -11.9776   21.3459 H   0  0  0  0  0  0
  -28.4779  -13.6105   21.8750 H   0  0  0  0  0  0
  -25.2795   -9.5654   22.4808 H   0  0  0  0  0  0
  -23.9989   -7.4630   22.7500 H   0  0  0  0  0  0
  -21.0864   -8.8848   19.8983 H   0  0  0  0  0  0
  -22.3763  -10.9726   19.6206 H   0  0  0  0  0  0
  -21.1992   -7.6146   23.9730 H   0  0  0  0  0  0
  -21.1478   -6.0510   25.9080 H   0  0  0  0  0  0
  -22.0607   -2.7621   23.2817 H   0  0  0  0  0  0
  -22.4049  -11.9869   22.4704 H   0  0  0  0  0  0
  -21.1175  -13.1391   22.2642 H   0  0  0  0  0  0
  -24.6673  -15.8417   20.5073 H   0  0  0  0  0  0
  -26.2743  -15.6270   20.0498 H   0  0  0  0  0  0
  -26.7113  -32.5487   23.1074 H   0  0  0  0  0  0
  -24.9948  -33.9725   25.0326 H   0  0  0  0  0  0
  -22.7058  -31.2962   21.3948 H   0  0  0  0  0  0
  -23.3702  -35.9687   23.3330 H   0  0  0  0  0  0
  -24.3550  -36.8936   22.2068 H   0  0  0  0  0  0
  -23.7256  -37.6526   23.6672 H   0  0  0  0  0  0
  -26.0477  -31.5690   20.5716 H   0  0  0  0  0  0
  -26.8404  -30.8903   21.9601 H   0  0  0  0  0  0
  -28.1190  -29.0556   21.1565 H   0  0  0  0  0  0
  -26.0351  -25.9640   18.9607 H   0  0  0  0  0  0
  -24.0054  -27.3026   18.9882 H   0  0  0  0  0  0
  -23.7288  -30.5832   19.3975 H   0  0  0  0  0  0
  -22.7565  -29.2261   19.8577 H   0  0  0  0  0  0
  -25.1253  -36.1907   25.0838 H   0  0  0  0  0  0
  -21.0038  -28.3113   24.1404 H   0  0  0  0  0  0
  -20.5537  -26.2199   23.3618 H   0  0  0  0  0  0
  -21.6591  -26.7201   22.1249 H   0  0  0  0  0  0
  -19.6816  -25.6224   21.1226 H   0  0  0  0  0  0
  -19.6641  -27.3122   20.6716 H   0  0  0  0  0  0
  -17.4153  -26.6668   21.4068 H   0  0  0  0  0  0
  -18.0283  -25.9989   22.9029 H   0  0  0  0  0  0
  -19.7969  -30.7230   24.2226 H   0  0  0  0  0  0
  -17.5028  -31.6205   24.5130 H   0  0  0  0  0  0
  -15.5353  -30.2904   23.7612 H   0  0  0  0  0  0
  -15.8724  -28.0774   22.6963 H   0  0  0  0  0  0
  -24.5810  -30.7197   25.7804 H   0  0  0  0  0  0
  -24.8927  -32.3020   26.4857 H   0  0  0  0  0  0
  -25.8018  -30.8998   27.0233 H   0  0  0  0  0  0
  -26.2777  -29.6913   24.1045 H   0  0  0  0  0  0
  -27.4051  -29.7263   25.4417 H   0  0  0  0  0  0
  -27.8604  -30.4488   23.9128 H   0  0  0  0  0  0
  -27.2488  -33.3710   26.2037 H   0  0  0  0  0  0
  -28.3790  -32.7032   25.0378 H   0  0  0  0  0  0
  -28.0577  -31.8594   26.5495 H   0  0  0  0  0  0
  -28.2554  -38.0094   24.7472 H   0  0  0  0  0  0
  -28.1057  -36.2621   24.6325 H   0  0  0  0  0  0
  -27.2303  -37.1469   25.8885 H   0  0  0  0  0  0
  -20.9335  -29.8863   21.7116 H   0  0  0  0  0  0
  -26.0143  -38.2840   24.1437 H   0  0  0  0  0  0
  -30.1750  -18.0495   19.7533 H   0  0  0  0  0  0
  -29.9476  -18.0738   24.7163 H   0  0  0  0  0  0
  -31.8311  -22.8093   21.1726 H   0  0  0  0  0  0
  -31.8679  -24.0193   19.9093 H   0  0  0  0  0  0
  -31.9719  -22.3236   19.4856 H   0  0  0  0  0  0
  -28.4829  -22.7693   18.4134 H   0  0  0  0  0  0
  -29.8917  -21.7593   18.2243 H   0  0  0  0  0  0
  -30.0284  -23.4811   17.9368 H   0  0  0  0  0  0
  -28.6376  -25.1431   18.7175 H   0  0  0  0  0  0
  -27.4051  -24.7643   19.9092 H   0  0  0  0  0  0
  -29.8947  -20.4708   24.6536 H   0  0  0  0  0  0
  -29.8427  -21.3368   23.2124 H   0  0  0  0  0  0
  -30.9760  -20.6194   20.1283 H   0  0  0  0  0  0
  -28.9095  -15.1816   21.1387 H   0  0  0  0  0  0
  1 25  1  0  0  0
  1 30  2  0  0  0
  1 85  1  0  0  0
  2  3  1  0  0  0
  2 25  1  0  0  0
  2 89  1  0  0  0
  2 90  1  0  0  0
  3  4  1  0  0  0
  3 91  1  0  0  0
  3 92  1  0  0  0
  4  5  1  0  0  0
  4 93  1  0  0  0
  4 94  1  0  0  0
  5  6  1  0  0  0
  5 26  1  0  0  0
  5 95  1  0  0  0
  6 25  1  0  0  0
  6 96  1  0  0  0
  6 97  1  0  0  0
  7  8  2  0  0  0
  7 26  1  0  0  0
  7 29  1  0  0  0
  8  9  1  0  0  0
  8 22  1  0  0  0
  9 10  1  0  0  0
  9 27  2  0  0  0
 10 11  2  0  0  0
 10 15  1  0  0  0
 11 12  1  0  0  0
 11 98  1  0  0  0
 12 13  2  0  0  0
 12 99  1  0  0  0
 13 14  1  0  0  0
 13 31  1  0  0  0
 14 15  2  0  0  0
 14100  1  0  0  0
 15101  1  0  0  0
 16 17  2  0  0  0
 16 21  1  0  0  0
 16 31  1  0  0  0
 17 18  1  0  0  0
 17102  1  0  0  0
 18 19  2  0  0  0
 18103  1  0  0  0
 19 20  1  0  0  0
 19 24  1  0  0  0
 20 21  2  0  0  0
 20104  1  0  0  0
 21 23  1  0  0  0
 22 28  1  0  0  0
 22 32  2  0  0  0
 26 27  1  0  0  0
 28105  1  0  0  0
 28106  1  0  0  0
 29107  1  0  0  0
 29108  1  0  0  0
 33 34  1  0  0  0
 33 66  1  0  0  0
 33 70  2  0  0  0
 34 36  1  0  0  0
 34 59  1  0  0  0
 34109  1  0  0  0
 35 44  2  0  0  0
 35 45  1  0  0  0
 35 68  1  0  0  0
 36 56  1  0  0  0
 36110  1  0  0  0
 37 39  1  0  0  0
 37 47  1  0  0  0
 37 66  1  0  0  0
 37111  1  0  0  0
 38 43  2  0  0  0
 38 46  1  0  0  0
 38 47  1  0  0  0
 39 64  1  0  0  0
 39 67  2  0  0  0
 40 52  1  0  0  0
 40 53  2  0  0  0
 40 58  1  0  0  0
 41112  1  0  0  0
 41113  1  0  0  0
 41114  1  0  0  0
 41 48  1  0  0  0
 42 43  1  0  0  0
 42 66  1  0  0  0
 42115  1  0  0  0
 42116  1  0  0  0
 43 44  1  0  0  0
 44117  1  0  0  0
 45 46  2  0  0  0
 45118  1  0  0  0
 46119  1  0  0  0
 47120  1  0  0  0
 47121  1  0  0  0
 48 56  1  0  0  0
 48 65  1  0  0  0
 48122  1  0  0  0
 49 50  1  0  0  0
 49 53  1  0  0  0
 49 64  1  0  0  0
 49123  1  0  0  0
 50 51  1  0  0  0
 50124  1  0  0  0
 50125  1  0  0  0
 51 52  1  0  0  0
 51126  1  0  0  0
 51127  1  0  0  0
 52128  1  0  0  0
 52129  1  0  0  0
 53 54  1  0  0  0
 54 55  2  0  0  0
 54130  1  0  0  0
 55 57  1  0  0  0
 55131  1  0  0  0
 56 69  2  0  0  0
 57 58  2  0  0  0
 57132  1  0  0  0
 58133  1  0  0  0
 59 60  1  0  0  0
 59 61  1  0  0  0
 59 62  1  0  0  0
 60134  1  0  0  0
 60135  1  0  0  0
 60136  1  0  0  0
 61137  1  0  0  0
 61138  1  0  0  0
 61139  1  0  0  0
 62140  1  0  0  0
 62141  1  0  0  0
 62142  1  0  0  0
 63 65  1  0  0  0
 63143  1  0  0  0
 63144  1  0  0  0
 63145  1  0  0  0
 64146  1  0  0  0
 65147  1  0  0  0
 68 81  1  0  0  0
 71 73  2  0  0  0
 71 74  1  0  0  0
 71148  1  0  0  0
 72 75  2  0  0  0
 72 76  1  0  0  0
 72149  1  0  0  0
 73 75  1  0  0  0
 73 84  1  0  0  0
 74 76  2  0  0  0
 74 85  1  0  0  0
 75 83  1  0  0  0
 76 88  1  0  0  0
 77 81  1  0  0  0
 77 82  1  0  0  0
 77 86  2  0  0  0
 78 82  1  0  0  0
 78 84  1  0  0  0
 78 87  2  0  0  0
 79150  1  0  0  0
 79151  1  0  0  0
 79152  1  0  0  0
 79 82  1  0  0  0
 80 82  1  0  0  0
 80153  1  0  0  0
 80154  1  0  0  0
 80155  1  0  0  0
 81156  1  0  0  0
 81157  1  0  0  0
 83158  1  0  0  0
 83159  1  0  0  0
 84160  1  0  0  0
 85161  1  0  0  0
M  ISO  4   1 100  68 101  81 101  85 100
M  END
> <chiral flag>
0

> <version>
0

> <s_m_source_file>
/data/baiqing/PycharmProjects/Reinvent-master-3.2/result/LINK_invent/BTK/process_docking_weight1_custom_product_contain_oxygen_bond_distance_aromatic_linkinvent_7_9_3/rearranged_h_0172.sdf

> <i_m_source_file_index>
79

> <r_mmod_Potential_Energy-OPLS-2005>
-29.227560043335

> <r_mmod_Stretch_Energy-OPLS-2005>
61.595085144043

> <r_mmod_Bend_Energy-OPLS-2005>
124.564727783203

> <r_mmod_Torsional_Energy-OPLS-2005>
305.138946533203

> <r_mmod_Improper_Torsional_Energy-OPLS-2005>
14.7286891937256

> <r_mmod_Van_der_Waal_Energy-OPLS-2005>
161.505310058594

> <r_mmod_Electrostatic_Energy-OPLS-2005>
-475.664245605469

> <r_mmod_Solvation_Energy-OPLS-2005>
-248.477554321289

> <b_mmod_Minimization_Converged-OPLS-2005>
0

> <r_mmod_RMS_Derivative-OPLS-2005>
5.0246376991272

$$$$
79
                    3D
 Structure written by MMmdl.
161169  0  0  1  0            999 V2000
  -30.6932  -14.4822   20.5855 C   0  0  0  0  0  0
  -30.4203  -12.3183   19.4195 C   0  0  0  0  0  0
  -29.4962  -12.5199   18.2027 C   0  0  0  0  0  0
  -28.0132  -12.3881   18.6070 C   0  0  0  0  0  0
  -27.6595  -13.2124   19.8751 C   0  0  2  0  0  0
  -28.7001  -12.9855   20.9946 C   0  0  0  0  0  0
  -25.2581  -13.8186   20.5661 C   0  0  0  0  0  0
  -24.1854  -13.0457   20.9182 C   0  0  0  0  0  0
  -24.6400  -11.6912   20.8735 C   0  0  0  0  0  0
  -23.9067  -10.4285   21.0399 C   0  0  0  0  0  0
  -24.3626   -9.4203   21.9181 C   0  0  0  0  0  0
  -23.6302   -8.2241   22.0754 C   0  0  0  0  0  0
  -22.4280   -8.0275   21.3548 C   0  0  0  0  0  0
  -21.9911   -9.0247   20.4649 C   0  0  0  0  0  0
  -22.7241  -10.2123   20.3046 C   0  0  0  0  0  0
  -21.6846   -6.0732   22.5288 C   0  0  0  0  0  0
  -21.3999   -6.5633   23.8227 C   0  0  0  0  0  0
  -21.3663   -5.6793   24.9193 C   0  0  0  0  0  0
  -21.6060   -4.3054   24.7251 C   0  0  0  0  0  0
  -21.8818   -3.8140   23.4365 C   0  0  0  0  0  0
  -21.9184   -4.6955   22.3415 C   0  0  0  0  0  0
  -22.7874  -13.5245   21.1855 C   0  0  0  0  0  0
  -22.1658   -4.2141   21.0999 F   0  0  0  0  0  0
  -21.5638   -3.4535   25.7762 F   0  0  0  0  0  0
  -30.0258  -13.3036   20.4413 N   0  0  0  0  0  0
  -26.3015  -12.9354   20.3342 N   0  0  0  0  0  0
  -25.9327  -11.6505   20.5766 N   0  0  0  0  0  0
  -22.0491  -12.8238   22.0394 N   0  0  0  0  0  0
  -25.4308  -15.1906   20.4043 N   0  0  0  0  0  0
  -31.8239  -14.6563   20.1181 O   0  0  0  0  0  0
  -21.6643   -6.8867   21.4249 O   0  0  0  0  0  0
  -22.3556  -14.5545   20.6689 O   0  0  0  0  0  0
  -24.6174  -31.8645   23.2056 C   0  0  0  0  0  0
  -25.9046  -32.4806   23.8371 C   0  0  1  0  0  0
  -27.2347  -27.3964   20.1010 C   0  0  0  0  0  0
  -25.5886  -33.8604   24.2277 N   0  0  0  0  0  0
  -23.4060  -30.4876   21.5471 C   0  0  2  0  0  0
  -24.8502  -28.9491   20.1153 C   0  0  0  0  0  0
  -22.7432  -29.4621   22.4952 C   0  0  0  0  0  0
  -18.0282  -28.1385   22.8499 C   0  0  0  0  0  0
  -24.1482  -36.7320   23.2641 C   0  0  0  0  0  0
  -25.9378  -30.8196   21.3618 C   0  0  0  0  0  0
  -26.0129  -29.4509   20.7098 C   0  0  0  0  0  0
  -27.2041  -28.6844   20.6953 C   0  0  0  0  0  0
  -26.0433  -26.9166   19.5051 C   0  0  0  0  0  0
  -24.8630  -27.6837   19.5077 C   0  0  0  0  0  0
  -23.6137  -29.8205   20.1618 C   0  0  0  0  0  0
  -25.4112  -36.3104   24.0320 C   0  0  1  0  0  0
  -20.5877  -28.3651   23.1329 C   0  0  2  0  0  0
  -20.6763  -26.9386   22.5421 C   0  0  0  0  0  0
  -19.5733  -26.6392   21.5223 C   0  0  0  0  0  0
  -18.1917  -26.7938   22.1636 C   0  0  0  0  0  0
  -19.1533  -28.8836   23.2918 C   0  0  0  0  0  0
  -18.9454  -30.1455   23.8907 C   0  0  0  0  0  0
  -17.6450  -30.6584   24.0567 C   0  0  0  0  0  0
  -25.9035  -34.9470   23.5097 C   0  0  0  0  0  0
  -16.5340  -29.9082   23.6337 C   0  0  0  0  0  0
  -16.7271  -28.6510   23.0342 C   0  0  0  0  0  0
  -26.4444  -31.6614   25.0726 C   0  0  0  0  0  0
  -25.3701  -31.3769   26.1481 C   0  0  0  0  0  0
  -27.0264  -30.3051   24.6123 C   0  0  0  0  0  0
  -27.6013  -32.4341   25.7504 C   0  0  0  0  0  0
  -27.5576  -37.1825   24.8461 C   0  0  0  0  0  0
  -21.4151  -29.3021   22.3730 N   0  0  0  0  0  0
  -26.4293  -37.3802   23.9403 N   0  0  0  0  0  0
  -24.6729  -31.0719   22.0968 N   0  0  0  0  0  0
  -23.4202  -28.8160   23.2996 O   0  0  0  0  0  0
  -28.4247  -26.6781   20.1300 O   0  0  0  0  0  0
  -26.5624  -34.8933   22.4675 O   0  0  0  0  0  0
  -23.5361  -32.1385   23.7432 O   0  0  0  0  0  0
  -31.4658  -19.4418   21.8681 C   0  0  0  0  0  0
  -31.6972  -17.0199   22.0248 C   0  0  0  0  0  0
  -29.7031  -17.9924   21.0111 C   0  0  0  0  0  0
  -32.2135  -18.3109   22.2699 C   0  0  0  0  0  0
  -30.1968  -19.3092   21.2520 C   0  0  0  0  0  0
  -30.4604  -16.8399   21.3722 C   0  0  0  0  0  0
  -33.5421  -18.4970   22.9229 C   0  0  0  0  0  0
  -28.7339  -22.7737   20.3344 C   0  0  0  0  0  0
  -29.5420  -21.7576   21.2249 C   0  0  0  0  0  0
  -34.3045  -17.2511   23.3615 C   0  0  0  0  0  0
  -27.3292  -24.3367   21.7657 C   0  0  0  0  0  0
  -28.5107  -25.2976   19.6915 C   0  0  0  0  0  0
  -28.5595  -24.2387   20.8430 C   0  0  2  0  0  0
  -29.4589  -20.4663   20.8049 N   0  0  0  0  0  0
  -29.9868  -15.5063   21.1227 N   0  0  0  0  0  0
  -34.0516  -19.6024   23.1228 O   0  0  0  0  0  0
  -28.2311  -22.4200   19.2593 O   0  0  0  0  0  0
  -30.1671  -22.1304   22.2239 O   0  0  0  0  0  0
  -31.4654  -12.4206   19.1199 H   0  0  0  0  0  0
  -30.3227  -11.3043   19.8087 H   0  0  0  0  0  0
  -29.7384  -11.8005   17.4194 H   0  0  0  0  0  0
  -29.6734  -13.5066   17.7729 H   0  0  0  0  0  0
  -27.8044  -11.3309   18.7760 H   0  0  0  0  0  0
  -27.3774  -12.6914   17.7742 H   0  0  0  0  0  0
  -27.7031  -14.2646   19.5919 H   0  0  0  0  0  0
  -28.6826  -11.9438   21.3198 H   0  0  0  0  0  0
  -28.4639  -13.5737   21.8831 H   0  0  0  0  0  0
  -25.2769   -9.5693   22.4754 H   0  0  0  0  0  0
  -24.0015   -7.4635   22.7460 H   0  0  0  0  0  0
  -21.0841   -8.8761   19.8959 H   0  0  0  0  0  0
  -22.3695  -10.9660   19.6151 H   0  0  0  0  0  0
  -21.1972   -7.6139   23.9730 H   0  0  0  0  0  0
  -21.1498   -6.0522   25.9103 H   0  0  0  0  0  0
  -22.0588   -2.7594   23.2878 H   0  0  0  0  0  0
  -22.4079  -11.9886   22.4789 H   0  0  0  0  0  0
  -21.1105  -13.1265   22.2569 H   0  0  0  0  0  0
  -24.6651  -15.8469   20.5114 H   0  0  0  0  0  0
  -26.2818  -15.6233   20.0688 H   0  0  0  0  0  0
  -26.7115  -32.5481   23.1138 H   0  0  0  0  0  0
  -25.0030  -33.9778   25.0410 H   0  0  0  0  0  0
  -22.6950  -31.3051   21.4082 H   0  0  0  0  0  0
  -23.3725  -35.9670   23.3315 H   0  0  0  0  0  0
  -24.3577  -36.8932   22.2056 H   0  0  0  0  0  0
  -23.7253  -37.6536   23.6652 H   0  0  0  0  0  0
  -26.0562  -31.5812   20.5894 H   0  0  0  0  0  0
  -26.8253  -30.8752   21.9806 H   0  0  0  0  0  0
  -28.1027  -29.0729   21.1526 H   0  0  0  0  0  0
  -25.9806  -25.9512   19.0302 H   0  0  0  0  0  0
  -23.9693  -27.2904   19.0423 H   0  0  0  0  0  0
  -23.7220  -30.5937   19.4010 H   0  0  0  0  0  0
  -22.7347  -29.2451   19.8652 H   0  0  0  0  0  0
  -25.1292  -36.1967   25.0813 H   0  0  0  0  0  0
  -20.9992  -28.3213   24.1443 H   0  0  0  0  0  0
  -20.5685  -26.2244   23.3603 H   0  0  0  0  0  0
  -21.6626  -26.7438   22.1190 H   0  0  0  0  0  0
  -19.6880  -25.6313   21.1234 H   0  0  0  0  0  0
  -19.6674  -27.3213   20.6763 H   0  0  0  0  0  0
  -17.4189  -26.6702   21.4037 H   0  0  0  0  0  0
  -18.0297  -26.0084   22.9029 H   0  0  0  0  0  0
  -19.7922  -30.7297   24.2249 H   0  0  0  0  0  0
  -17.4992  -31.6264   24.5179 H   0  0  0  0  0  0
  -15.5337  -30.2977   23.7665 H   0  0  0  0  0  0
  -15.8673  -28.0845   22.7024 H   0  0  0  0  0  0
  -24.5854  -30.7123   25.7846 H   0  0  0  0  0  0
  -24.8914  -32.2950   26.4906 H   0  0  0  0  0  0
  -25.8056  -30.8973   27.0255 H   0  0  0  0  0  0
  -26.2817  -29.6864   24.1107 H   0  0  0  0  0  0
  -27.3945  -29.7259   25.4599 H   0  0  0  0  0  0
  -27.8684  -30.4359   23.9326 H   0  0  0  0  0  0
  -27.2614  -33.3638   26.2087 H   0  0  0  0  0  0
  -28.3840  -32.6913   25.0351 H   0  0  0  0  0  0
  -28.0647  -31.8456   26.5435 H   0  0  0  0  0  0
  -28.2606  -38.0110   24.7507 H   0  0  0  0  0  0
  -28.1063  -36.2653   24.6281 H   0  0  0  0  0  0
  -27.2305  -37.1469   25.8867 H   0  0  0  0  0  0
  -20.9283  -29.8778   21.6995 H   0  0  0  0  0  0
  -26.0166  -38.2876   24.1403 H   0  0  0  0  0  0
  -31.8963  -20.4198   22.0256 H   0  0  0  0  0  0
  -32.2547  -16.1454   22.3281 H   0  0  0  0  0  0
  -28.7462  -17.8608   20.5232 H   0  0  0  0  0  0
  -35.1954  -17.5309   23.9241 H   0  0  0  0  0  0
  -34.6136  -16.6717   22.4913 H   0  0  0  0  0  0
  -33.6816  -16.6241   23.9985 H   0  0  0  0  0  0
  -27.3455  -23.5720   22.5444 H   0  0  0  0  0  0
  -26.3981  -24.2210   21.2088 H   0  0  0  0  0  0
  -27.3013  -25.3026   22.2694 H   0  0  0  0  0  0
  -27.7787  -25.0338   18.9328 H   0  0  0  0  0  0
  -29.4603  -25.2304   19.1584 H   0  0  0  0  0  0
  -29.4413  -24.4627   21.4441 H   0  0  0  0  0  0
  -28.8113  -20.3309   20.0374 H   0  0  0  0  0  0
  -29.0143  -15.3176   21.3146 H   0  0  0  0  0  0
  1 25  1  0  0  0
  1 30  2  0  0  0
  1 85  1  0  0  0
  2  3  1  0  0  0
  2 25  1  0  0  0
  2 89  1  0  0  0
  2 90  1  0  0  0
  3  4  1  0  0  0
  3 91  1  0  0  0
  3 92  1  0  0  0
  4  5  1  0  0  0
  4 93  1  0  0  0
  4 94  1  0  0  0
  5  6  1  0  0  0
  5 26  1  0  0  0
  5 95  1  0  0  0
  6 25  1  0  0  0
  6 96  1  0  0  0
  6 97  1  0  0  0
  7  8  2  0  0  0
  7 26  1  0  0  0
  7 29  1  0  0  0
  8  9  1  0  0  0
  8 22  1  0  0  0
  9 10  1  0  0  0
  9 27  2  0  0  0
 10 11  2  0  0  0
 10 15  1  0  0  0
 11 12  1  0  0  0
 11 98  1  0  0  0
 12 13  2  0  0  0
 12 99  1  0  0  0
 13 14  1  0  0  0
 13 31  1  0  0  0
 14 15  2  0  0  0
 14100  1  0  0  0
 15101  1  0  0  0
 16 17  2  0  0  0
 16 21  1  0  0  0
 16 31  1  0  0  0
 17 18  1  0  0  0
 17102  1  0  0  0
 18 19  2  0  0  0
 18103  1  0  0  0
 19 20  1  0  0  0
 19 24  1  0  0  0
 20 21  2  0  0  0
 20104  1  0  0  0
 21 23  1  0  0  0
 22 28  1  0  0  0
 22 32  2  0  0  0
 26 27  1  0  0  0
 28105  1  0  0  0
 28106  1  0  0  0
 29107  1  0  0  0
 29108  1  0  0  0
 33 34  1  0  0  0
 33 66  1  0  0  0
 33 70  2  0  0  0
 34 36  1  0  0  0
 34 59  1  0  0  0
 34109  1  0  0  0
 35 44  2  0  0  0
 35 45  1  0  0  0
 35 68  1  0  0  0
 36 56  1  0  0  0
 36110  1  0  0  0
 37 39  1  0  0  0
 37 47  1  0  0  0
 37 66  1  0  0  0
 37111  1  0  0  0
 38 43  2  0  0  0
 38 46  1  0  0  0
 38 47  1  0  0  0
 39 64  1  0  0  0
 39 67  2  0  0  0
 40 52  1  0  0  0
 40 53  2  0  0  0
 40 58  1  0  0  0
 41112  1  0  0  0
 41113  1  0  0  0
 41114  1  0  0  0
 41 48  1  0  0  0
 42 43  1  0  0  0
 42 66  1  0  0  0
 42115  1  0  0  0
 42116  1  0  0  0
 43 44  1  0  0  0
 44117  1  0  0  0
 45 46  2  0  0  0
 45118  1  0  0  0
 46119  1  0  0  0
 47120  1  0  0  0
 47121  1  0  0  0
 48 56  1  0  0  0
 48 65  1  0  0  0
 48122  1  0  0  0
 49 50  1  0  0  0
 49 53  1  0  0  0
 49 64  1  0  0  0
 49123  1  0  0  0
 50 51  1  0  0  0
 50124  1  0  0  0
 50125  1  0  0  0
 51 52  1  0  0  0
 51126  1  0  0  0
 51127  1  0  0  0
 52128  1  0  0  0
 52129  1  0  0  0
 53 54  1  0  0  0
 54 55  2  0  0  0
 54130  1  0  0  0
 55 57  1  0  0  0
 55131  1  0  0  0
 56 69  2  0  0  0
 57 58  2  0  0  0
 57132  1  0  0  0
 58133  1  0  0  0
 59 60  1  0  0  0
 59 61  1  0  0  0
 59 62  1  0  0  0
 60134  1  0  0  0
 60135  1  0  0  0
 60136  1  0  0  0
 61137  1  0  0  0
 61138  1  0  0  0
 61139  1  0  0  0
 62140  1  0  0  0
 62141  1  0  0  0
 62142  1  0  0  0
 63 65  1  0  0  0
 63143  1  0  0  0
 63144  1  0  0  0
 63145  1  0  0  0
 64146  1  0  0  0
 65147  1  0  0  0
 68 82  1  0  0  0
 71 74  2  0  0  0
 71 75  1  0  0  0
 71148  1  0  0  0
 72 74  1  0  0  0
 72 76  2  0  0  0
 72149  1  0  0  0
 73 75  2  0  0  0
 73 76  1  0  0  0
 73150  1  0  0  0
 74 77  1  0  0  0
 75 84  1  0  0  0
 76 85  1  0  0  0
 77 80  1  0  0  0
 77 86  2  0  0  0
 78 79  1  0  0  0
 78 83  1  0  0  0
 78 87  2  0  0  0
 79 84  1  0  0  0
 79 88  2  0  0  0
 80151  1  0  0  0
 80152  1  0  0  0
 80153  1  0  0  0
 81154  1  0  0  0
 81155  1  0  0  0
 81156  1  0  0  0
 81 83  1  0  0  0
 82 83  1  0  0  0
 82157  1  0  0  0
 82158  1  0  0  0
 83159  1  0  0  0
 84160  1  0  0  0
 85161  1  0  0  0
M  ISO  4   1 100  68 101  82 101  85 100
M  END
> <chiral flag>
0

> <version>
0

> <s_m_source_file>
/data/baiqing/PycharmProjects/Reinvent-master-3.2/result/LINK_invent/BTK/process_docking_weight1_custom_product_contain_oxygen_bond_distance_aromatic_linkinvent_7_9_3/rearranged_h_0172.sdf

> <i_m_source_file_index>
80

> <r_mmod_Potential_Energy-OPLS-2005>
-15.3899173736572

> <r_mmod_Stretch_Energy-OPLS-2005>
51.6433563232422

> <r_mmod_Bend_Energy-OPLS-2005>
115.933586120605

> <r_mmod_Torsional_Energy-OPLS-2005>
257.740081787109

> <r_mmod_Improper_Torsional_Energy-OPLS-2005>
3.75564932823181

> <r_mmod_Van_der_Waal_Energy-OPLS-2005>
161.438018798828

> <r_mmod_Electrostatic_Energy-OPLS-2005>
-380.753936767578

> <r_mmod_Solvation_Energy-OPLS-2005>
-240.850158691406

> <b_mmod_Minimization_Converged-OPLS-2005>
0

> <r_mmod_RMS_Derivative-OPLS-2005>
2.6933000087738

$$$$
80
                    3D
 Structure written by MMmdl.
160168  0  0  1  0            999 V2000
  -30.6089  -14.8143   20.4449 C   0  0  0  0  0  0
  -30.4372  -12.5173   19.4439 C   0  0  0  0  0  0
  -29.5050  -12.5037   18.2129 C   0  0  0  0  0  0
  -28.0390  -12.3122   18.6485 C   0  0  0  0  0  0
  -27.6343  -13.2348   19.8280 C   0  0  2  0  0  0
  -28.6904  -13.2272   20.9543 C   0  0  0  0  0  0
  -25.2490  -13.8183   20.5687 C   0  0  0  0  0  0
  -24.1794  -13.0463   20.9226 C   0  0  0  0  0  0
  -24.6373  -11.6935   20.8731 C   0  0  0  0  0  0
  -23.9058  -10.4297   21.0418 C   0  0  0  0  0  0
  -24.3581   -9.4217   21.9210 C   0  0  0  0  0  0
  -23.6289   -8.2231   22.0759 C   0  0  0  0  0  0
  -22.4276   -8.0260   21.3555 C   0  0  0  0  0  0
  -21.9921   -9.0226   20.4673 C   0  0  0  0  0  0
  -22.7220  -10.2124   20.3098 C   0  0  0  0  0  0
  -21.6813   -6.0717   22.5253 C   0  0  0  0  0  0
  -21.4004   -6.5632   23.8182 C   0  0  0  0  0  0
  -21.3668   -5.6792   24.9163 C   0  0  0  0  0  0
  -21.6065   -4.3051   24.7221 C   0  0  0  0  0  0
  -21.8837   -3.8139   23.4328 C   0  0  0  0  0  0
  -21.9182   -4.6962   22.3383 C   0  0  0  0  0  0
  -22.7812  -13.5286   21.1856 C   0  0  0  0  0  0
  -22.1661   -4.2160   21.0956 F   0  0  0  0  0  0
  -21.5595   -3.4530   25.7720 F   0  0  0  0  0  0
  -29.9716  -13.5959   20.3415 N   0  0  0  0  0  0
  -26.2909  -12.9420   20.3193 N   0  0  0  0  0  0
  -25.9304  -11.6561   20.5690 N   0  0  0  0  0  0
  -22.0413  -12.8320   22.0421 N   0  0  0  0  0  0
  -25.4154  -15.1874   20.3977 N   0  0  0  0  0  0
  -31.8223  -14.8875   20.2187 O   0  0  0  0  0  0
  -21.6622   -6.8870   21.4221 O   0  0  0  0  0  0
  -22.3570  -14.5608   20.6652 O   0  0  0  0  0  0
  -24.6362  -31.8529   23.2000 C   0  0  0  0  0  0
  -25.9187  -32.4761   23.8332 C   0  0  1  0  0  0
  -27.2193  -27.2414   20.1235 C   0  0  0  0  0  0
  -25.5971  -33.8568   24.2263 N   0  0  0  0  0  0
  -23.4336  -30.4743   21.5426 C   0  0  2  0  0  0
  -24.8803  -28.9205   20.1086 C   0  0  0  0  0  0
  -22.7546  -29.4584   22.4928 C   0  0  0  0  0  0
  -18.0290  -28.1390   22.8461 C   0  0  0  0  0  0
  -24.1473  -36.7277   23.2618 C   0  0  0  0  0  0
  -25.9799  -30.7637   21.3822 C   0  0  0  0  0  0
  -26.0502  -29.3839   20.7191 C   0  0  0  0  0  0
  -27.2219  -28.5567   20.7168 C   0  0  0  0  0  0
  -26.0193  -26.8494   19.4896 C   0  0  0  0  0  0
  -24.8687  -27.6647   19.4820 C   0  0  0  0  0  0
  -23.6542  -29.8117   20.1563 C   0  0  0  0  0  0
  -25.4099  -36.3084   24.0306 C   0  0  1  0  0  0
  -20.5891  -28.3709   23.1267 C   0  0  2  0  0  0
  -20.6777  -26.9429   22.5408 C   0  0  0  0  0  0
  -19.5764  -26.6370   21.5210 C   0  0  0  0  0  0
  -18.1934  -26.7915   22.1615 C   0  0  0  0  0  0
  -19.1539  -28.8872   23.2829 C   0  0  0  0  0  0
  -18.9452  -30.1465   23.8867 C   0  0  0  0  0  0
  -17.6450  -30.6585   24.0555 C   0  0  0  0  0  0
  -25.9059  -34.9440   23.5075 C   0  0  0  0  0  0
  -16.5342  -29.9088   23.6326 C   0  0  0  0  0  0
  -16.7272  -28.6500   23.0349 C   0  0  0  0  0  0
  -26.4494  -31.6618   25.0768 C   0  0  0  0  0  0
  -25.3690  -31.3849   26.1494 C   0  0  0  0  0  0
  -27.0290  -30.2993   24.6324 C   0  0  0  0  0  0
  -27.6054  -32.4342   25.7546 C   0  0  0  0  0  0
  -27.5562  -37.1809   24.8445 C   0  0  0  0  0  0
  -21.4251  -29.3042   22.3692 N   0  0  0  0  0  0
  -26.4269  -37.3775   23.9397 N   0  0  0  0  0  0
  -24.7017  -31.0477   22.0988 N   0  0  0  0  0  0
  -23.4203  -28.8126   23.3060 O   0  0  0  0  0  0
  -28.3240  -26.3509   20.2254 O   0  0  0  0  0  0
  -26.5600  -34.8920   22.4637 O   0  0  0  0  0  0
  -23.5504  -32.1363   23.7291 O   0  0  0  0  0  0
  -29.8320  -19.2158   22.7804 C   0  0  0  0  0  0
  -29.9072  -18.5405   24.0085 C   0  0  0  0  0  0
  -30.0287  -16.4500   22.8372 C   0  0  0  0  0  0
  -29.7671  -18.5639   21.5185 C   0  0  0  0  0  0
  -29.9205  -17.0660   21.5525 C   0  0  0  0  0  0
  -29.9849  -17.1521   24.0438 C   0  0  0  0  0  0
  -29.6041  -19.6558   20.4184 C   0  0  0  0  0  0
  -28.5560  -23.6246   20.4109 C   0  0  0  0  0  0
  -27.7299  -20.9367   17.6049 C   0  0  0  0  0  0
  -28.4034  -24.9960   19.5522 C   0  0  0  0  0  0
  -27.5198  -21.9538   18.7305 C   0  0  0  0  0  0
  -28.7357  -22.1598   19.6885 C   0  0  2  0  0  0
  -29.8476  -15.9919   20.5230 N   0  0  0  0  0  0
  -28.9539  -20.8951   20.5902 N   0  0  0  0  0  0
  -30.2069  -19.4853   19.2477 N   0  3  0  0  0  0
  -28.8996  -20.6415   17.2767 O   0  5  0  0  0  0
  -28.5588  -23.6884   21.6430 O   0  0  0  0  0  0
  -26.7251  -20.4416   17.0616 O   0  0  0  0  0  0
  -30.0041  -16.4935   25.2300 F   0  0  0  0  0  0
  -31.4694  -12.6768   19.1309 H   0  0  0  0  0  0
  -30.4096  -11.5541   19.9538 H   0  0  0  0  0  0
  -29.7988  -11.7032   17.5315 H   0  0  0  0  0  0
  -29.5985  -13.4328   17.6501 H   0  0  0  0  0  0
  -27.9183  -11.2678   18.9312 H   0  0  0  0  0  0
  -27.3728  -12.4765   17.8010 H   0  0  0  0  0  0
  -27.6089  -14.2384   19.4044 H   0  0  0  0  0  0
  -28.7610  -12.2536   21.4413 H   0  0  0  0  0  0
  -28.4051  -13.9442   21.7258 H   0  0  0  0  0  0
  -25.2700   -9.5712   22.4821 H   0  0  0  0  0  0
  -24.0020   -7.4634   22.7454 H   0  0  0  0  0  0
  -21.0883   -8.8711   19.8957 H   0  0  0  0  0  0
  -22.3650  -10.9663   19.6234 H   0  0  0  0  0  0
  -21.1989   -7.6139   23.9698 H   0  0  0  0  0  0
  -21.1487   -6.0508   25.9063 H   0  0  0  0  0  0
  -22.0623   -2.7598   23.2794 H   0  0  0  0  0  0
  -22.4034  -12.0054   22.4935 H   0  0  0  0  0  0
  -21.0984  -13.1282   22.2491 H   0  0  0  0  0  0
  -24.6064  -15.8023   20.3855 H   0  0  0  0  0  0
  -26.2188  -15.5773   19.9248 H   0  0  0  0  0  0
  -26.7287  -32.5386   23.1102 H   0  0  0  0  0  0
  -25.0241  -33.9701   25.0492 H   0  0  0  0  0  0
  -22.7274  -31.2941   21.3966 H   0  0  0  0  0  0
  -23.3747  -35.9604   23.3271 H   0  0  0  0  0  0
  -24.3575  -36.8907   22.2037 H   0  0  0  0  0  0
  -23.7208  -37.6459   23.6656 H   0  0  0  0  0  0
  -26.1197  -31.5321   20.6182 H   0  0  0  0  0  0
  -26.8539  -30.8061   22.0191 H   0  0  0  0  0  0
  -28.1191  -28.9065   21.2077 H   0  0  0  0  0  0
  -25.9068  -25.8849   19.0218 H   0  0  0  0  0  0
  -23.9707  -27.3089   18.9984 H   0  0  0  0  0  0
  -23.8005  -30.5884   19.4054 H   0  0  0  0  0  0
  -22.7681  -29.2582   19.8413 H   0  0  0  0  0  0
  -25.1289  -36.1900   25.0794 H   0  0  0  0  0  0
  -20.9919  -28.3285   24.1408 H   0  0  0  0  0  0
  -20.5676  -26.2326   23.3616 H   0  0  0  0  0  0
  -21.6650  -26.7479   22.1205 H   0  0  0  0  0  0
  -19.6929  -25.6266   21.1274 H   0  0  0  0  0  0
  -19.6683  -27.3153   20.6709 H   0  0  0  0  0  0
  -17.4202  -26.6645   21.4014 H   0  0  0  0  0  0
  -18.0340  -26.0069   22.9019 H   0  0  0  0  0  0
  -19.7934  -30.7281   24.2207 H   0  0  0  0  0  0
  -17.5020  -31.6262   24.5172 H   0  0  0  0  0  0
  -15.5347  -30.2983   23.7665 H   0  0  0  0  0  0
  -15.8666  -28.0818   22.7076 H   0  0  0  0  0  0
  -24.5903  -30.7117   25.7909 H   0  0  0  0  0  0
  -24.8841  -32.3061   26.4770 H   0  0  0  0  0  0
  -25.8018  -30.9203   27.0375 H   0  0  0  0  0  0
  -26.2902  -29.6781   24.1274 H   0  0  0  0  0  0
  -27.3789  -29.7238   25.4900 H   0  0  0  0  0  0
  -27.8863  -30.4168   23.9690 H   0  0  0  0  0  0
  -27.2682  -33.3680   26.2059 H   0  0  0  0  0  0
  -28.3934  -32.6831   25.0429 H   0  0  0  0  0  0
  -28.0647  -31.8504   26.5532 H   0  0  0  0  0  0
  -28.2590  -38.0097   24.7527 H   0  0  0  0  0  0
  -28.1043  -36.2642   24.6234 H   0  0  0  0  0  0
  -27.2295  -37.1427   25.8848 H   0  0  0  0  0  0
  -20.9472  -29.8779   21.6887 H   0  0  0  0  0  0
  -26.0130  -38.2836   24.1430 H   0  0  0  0  0  0
  -29.8129  -20.2926   22.8618 H   0  0  0  0  0  0
  -29.8938  -19.0956   24.9316 H   0  0  0  0  0  0
  -30.1025  -15.3765   22.9460 H   0  0  0  0  0  0
  -27.6275  -24.8842   18.8032 H   0  0  0  0  0  0
  -29.3197  -25.0378   18.9649 H   0  0  0  0  0  0
  -26.6479  -21.6608   19.3246 H   0  0  0  0  0  0
  -27.2231  -22.8815   18.2393 H   0  0  0  0  0  0
  -29.6344  -22.2545   19.0803 H   0  0  0  0  0  0
  -28.9038  -15.8550   20.1872 H   0  0  0  0  0  0
  -28.5125  -20.9999   21.4953 H   0  0  0  0  0  0
  -30.8126  -18.6964   19.1053 H   0  0  0  0  0  0
  -29.8308  -19.9982   18.4256 H   0  0  0  0  0  0
  1 25  1  0  0  0
  1 30  2  0  0  0
  1 83  1  0  0  0
  2  3  1  0  0  0
  2 25  1  0  0  0
  2 90  1  0  0  0
  2 91  1  0  0  0
  3  4  1  0  0  0
  3 92  1  0  0  0
  3 93  1  0  0  0
  4  5  1  0  0  0
  4 94  1  0  0  0
  4 95  1  0  0  0
  5  6  1  0  0  0
  5 26  1  0  0  0
  5 96  1  0  0  0
  6 25  1  0  0  0
  6 97  1  0  0  0
  6 98  1  0  0  0
  7  8  2  0  0  0
  7 26  1  0  0  0
  7 29  1  0  0  0
  8  9  1  0  0  0
  8 22  1  0  0  0
  9 10  1  0  0  0
  9 27  2  0  0  0
 10 11  2  0  0  0
 10 15  1  0  0  0
 11 12  1  0  0  0
 11 99  1  0  0  0
 12 13  2  0  0  0
 12100  1  0  0  0
 13 14  1  0  0  0
 13 31  1  0  0  0
 14 15  2  0  0  0
 14101  1  0  0  0
 15102  1  0  0  0
 16 17  2  0  0  0
 16 21  1  0  0  0
 16 31  1  0  0  0
 17 18  1  0  0  0
 17103  1  0  0  0
 18 19  2  0  0  0
 18104  1  0  0  0
 19 20  1  0  0  0
 19 24  1  0  0  0
 20 21  2  0  0  0
 20105  1  0  0  0
 21 23  1  0  0  0
 22 28  1  0  0  0
 22 32  2  0  0  0
 26 27  1  0  0  0
 28106  1  0  0  0
 28107  1  0  0  0
 29108  1  0  0  0
 29109  1  0  0  0
 33 34  1  0  0  0
 33 66  1  0  0  0
 33 70  2  0  0  0
 34 36  1  0  0  0
 34 59  1  0  0  0
 34110  1  0  0  0
 35 44  2  0  0  0
 35 45  1  0  0  0
 35 68  1  0  0  0
 36 56  1  0  0  0
 36111  1  0  0  0
 37 39  1  0  0  0
 37 47  1  0  0  0
 37 66  1  0  0  0
 37112  1  0  0  0
 38 43  2  0  0  0
 38 46  1  0  0  0
 38 47  1  0  0  0
 39 64  1  0  0  0
 39 67  2  0  0  0
 40 52  1  0  0  0
 40 53  2  0  0  0
 40 58  1  0  0  0
 41113  1  0  0  0
 41114  1  0  0  0
 41115  1  0  0  0
 41 48  1  0  0  0
 42 43  1  0  0  0
 42 66  1  0  0  0
 42116  1  0  0  0
 42117  1  0  0  0
 43 44  1  0  0  0
 44118  1  0  0  0
 45 46  2  0  0  0
 45119  1  0  0  0
 46120  1  0  0  0
 47121  1  0  0  0
 47122  1  0  0  0
 48 56  1  0  0  0
 48 65  1  0  0  0
 48123  1  0  0  0
 49 50  1  0  0  0
 49 53  1  0  0  0
 49 64  1  0  0  0
 49124  1  0  0  0
 50 51  1  0  0  0
 50125  1  0  0  0
 50126  1  0  0  0
 51 52  1  0  0  0
 51127  1  0  0  0
 51128  1  0  0  0
 52129  1  0  0  0
 52130  1  0  0  0
 53 54  1  0  0  0
 54 55  2  0  0  0
 54131  1  0  0  0
 55 57  1  0  0  0
 55132  1  0  0  0
 56 69  2  0  0  0
 57 58  2  0  0  0
 57133  1  0  0  0
 58134  1  0  0  0
 59 60  1  0  0  0
 59 61  1  0  0  0
 59 62  1  0  0  0
 60135  1  0  0  0
 60136  1  0  0  0
 60137  1  0  0  0
 61138  1  0  0  0
 61139  1  0  0  0
 61140  1  0  0  0
 62141  1  0  0  0
 62142  1  0  0  0
 62143  1  0  0  0
 63 65  1  0  0  0
 63144  1  0  0  0
 63145  1  0  0  0
 63146  1  0  0  0
 64147  1  0  0  0
 65148  1  0  0  0
 68 80  1  0  0  0
 71 72  2  0  0  0
 71 74  1  0  0  0
 71149  1  0  0  0
 72 76  1  0  0  0
 72150  1  0  0  0
 73 75  1  0  0  0
 73 76  2  0  0  0
 73151  1  0  0  0
 74 75  2  0  0  0
 74 77  1  0  0  0
 75 83  1  0  0  0
 76 89  1  0  0  0
 77 84  1  0  0  0
 77 85  2  0  0  0
 78 80  1  0  0  0
 78 82  1  0  0  0
 78 87  2  0  0  0
 79 81  1  0  0  0
 79 86  1  0  0  0
 79 88  2  0  0  0
 80152  1  0  0  0
 80153  1  0  0  0
 81154  1  0  0  0
 81155  1  0  0  0
 81 82  1  0  0  0
 82 84  1  0  0  0
 82156  1  0  0  0
 83157  1  0  0  0
 84158  1  0  0  0
 85159  1  0  0  0
 85160  1  0  0  0
M  CHG  2  85   1  86  -1
M  ISO  4   1 100  68 101  80 101  83 100
M  END
> <chiral flag>
0

> <version>
0

> <s_m_source_file>
/data/baiqing/PycharmProjects/Reinvent-master-3.2/result/LINK_invent/BTK/process_docking_weight1_custom_product_contain_oxygen_bond_distance_aromatic_linkinvent_7_9_3/rearranged_h_0172.sdf

> <i_m_source_file_index>
81

> <r_mmod_Potential_Energy-OPLS-2005>
-166.989318847656

> <r_mmod_Stretch_Energy-OPLS-2005>
181.458908081055

> <r_mmod_Bend_Energy-OPLS-2005>
245.046981811523

> <r_mmod_Torsional_Energy-OPLS-2005>
232.30517578125

> <r_mmod_Improper_Torsional_Energy-OPLS-2005>
12.7860584259033

> <r_mmod_Van_der_Waal_Energy-OPLS-2005>
156.378295898438

> <r_mmod_Electrostatic_Energy-OPLS-2005>
-681.145629882812

> <r_mmod_Solvation_Energy-OPLS-2005>
-428.501556396484

> <b_mmod_Minimization_Converged-OPLS-2005>
0

> <r_mmod_RMS_Derivative-OPLS-2005>
7.0875391960144

$$$$
81
                    3D
 Structure written by MMmdl.
156164  0  0  1  0            999 V2000
  -30.6732  -14.5563   20.4982 C   0  0  0  0  0  0
  -30.4258  -12.3380   19.4497 C   0  0  0  0  0  0
  -29.5031  -12.4966   18.2221 C   0  0  0  0  0  0
  -28.0243  -12.3516   18.6317 C   0  0  0  0  0  0
  -27.6569  -13.2139   19.8690 C   0  0  2  0  0  0
  -28.7011  -13.0555   20.9991 C   0  0  0  0  0  0
  -25.2571  -13.8168   20.5682 C   0  0  0  0  0  0
  -24.1832  -13.0441   20.9187 C   0  0  0  0  0  0
  -24.6394  -11.6911   20.8741 C   0  0  0  0  0  0
  -23.9060  -10.4295   21.0404 C   0  0  0  0  0  0
  -24.3614   -9.4207   21.9180 C   0  0  0  0  0  0
  -23.6297   -8.2238   22.0750 C   0  0  0  0  0  0
  -22.4276   -8.0276   21.3542 C   0  0  0  0  0  0
  -21.9907   -9.0248   20.4643 C   0  0  0  0  0  0
  -22.7232  -10.2131   20.3054 C   0  0  0  0  0  0
  -21.6851   -6.0734   22.5283 C   0  0  0  0  0  0
  -21.4010   -6.5643   23.8214 C   0  0  0  0  0  0
  -21.3658   -5.6796   24.9176 C   0  0  0  0  0  0
  -21.6047   -4.3058   24.7227 C   0  0  0  0  0  0
  -21.8821   -3.8146   23.4349 C   0  0  0  0  0  0
  -21.9190   -4.6961   22.3405 C   0  0  0  0  0  0
  -22.7854  -13.5233   21.1856 C   0  0  0  0  0  0
  -22.1662   -4.2148   21.0983 F   0  0  0  0  0  0
  -21.5630   -3.4544   25.7738 F   0  0  0  0  0  0
  -30.0266  -13.3567   20.4374 N   0  0  0  0  0  0
  -26.3004  -12.9346   20.3345 N   0  0  0  0  0  0
  -25.9325  -11.6503   20.5770 N   0  0  0  0  0  0
  -22.0497  -12.8220   22.0410 N   0  0  0  0  0  0
  -25.4292  -15.1885   20.4079 N   0  0  0  0  0  0
  -31.8324  -14.6974   20.1041 O   0  0  0  0  0  0
  -21.6639   -6.8873   21.4240 O   0  0  0  0  0  0
  -22.3542  -14.5542   20.6711 O   0  0  0  0  0  0
  -24.6210  -31.8641   23.2078 C   0  0  0  0  0  0
  -25.9081  -32.4799   23.8382 C   0  0  1  0  0  0
  -27.2231  -27.3695   20.1068 C   0  0  0  0  0  0
  -25.5917  -33.8603   24.2306 N   0  0  0  0  0  0
  -23.4109  -30.4897   21.5499 C   0  0  2  0  0  0
  -24.8558  -28.9540   20.1108 C   0  0  0  0  0  0
  -22.7441  -29.4645   22.4965 C   0  0  0  0  0  0
  -18.0279  -28.1382   22.8488 C   0  0  0  0  0  0
  -24.1487  -36.7303   23.2638 C   0  0  0  0  0  0
  -25.9481  -30.8096   21.3726 C   0  0  0  0  0  0
  -26.0213  -29.4421   20.7142 C   0  0  0  0  0  0
  -27.2071  -28.6589   20.7073 C   0  0  0  0  0  0
  -26.0364  -26.9261   19.4746 C   0  0  0  0  0  0
  -24.8622  -27.6987   19.4853 C   0  0  0  0  0  0
  -23.6213  -29.8273   20.1632 C   0  0  0  0  0  0
  -25.4110  -36.3095   24.0333 C   0  0  1  0  0  0
  -20.5876  -28.3676   23.1304 C   0  0  2  0  0  0
  -20.6768  -26.9402   22.5421 C   0  0  0  0  0  0
  -19.5747  -26.6383   21.5218 C   0  0  0  0  0  0
  -18.1925  -26.7928   22.1620 C   0  0  0  0  0  0
  -19.1531  -28.8844   23.2893 C   0  0  0  0  0  0
  -18.9457  -30.1453   23.8901 C   0  0  0  0  0  0
  -17.6457  -30.6584   24.0569 C   0  0  0  0  0  0
  -25.9045  -34.9464   23.5115 C   0  0  0  0  0  0
  -16.5350  -29.9082   23.6335 C   0  0  0  0  0  0
  -16.7269  -28.6505   23.0347 C   0  0  0  0  0  0
  -26.4484  -31.6598   25.0734 C   0  0  0  0  0  0
  -25.3731  -31.3739   26.1472 C   0  0  0  0  0  0
  -27.0325  -30.3028   24.6165 C   0  0  0  0  0  0
  -27.6056  -32.4326   25.7493 C   0  0  0  0  0  0
  -27.5586  -37.1794   24.8453 C   0  0  0  0  0  0
  -21.4162  -29.3033   22.3699 N   0  0  0  0  0  0
  -26.4288  -37.3787   23.9416 N   0  0  0  0  0  0
  -24.6785  -31.0697   22.1006 N   0  0  0  0  0  0
  -23.4190  -28.8185   23.3023 O   0  0  0  0  0  0
  -28.3587  -26.5619   20.1639 O   0  0  0  0  0  0
  -26.5608  -34.8922   22.4679 O   0  0  0  0  0  0
  -23.5385  -32.1421   23.7436 O   0  0  0  0  0  0
  -30.1373  -18.2230   21.1139 C   0  0  0  0  0  0
  -30.5958  -18.2689   22.4170 C   0  0  0  0  0  0
  -29.9137  -20.5009   21.5092 C   0  0  0  0  0  0
  -29.2134  -24.2013   20.6055 C   0  0  0  0  0  0
  -29.1363  -22.6409   20.3242 C   0  0  0  0  0  0
  -31.5211  -17.1093   24.3718 C   0  0  0  0  0  0
  -32.0405  -15.7428   24.7984 C   0  0  0  0  0  0
  -30.1005  -16.9999   20.1861 C   0  0  0  0  0  0
  -28.1740  -25.1290   19.9108 C   0  0  0  0  0  0
  -29.7519  -19.5017   20.6167 N   0  0  0  0  0  0
  -31.0784  -17.1986   23.1068 N   0  0  0  0  0  0
  -29.7070  -21.9121   21.3114 N   0  0  0  0  0  0
  -29.9051  -15.6401   20.7730 N   0  0  0  0  0  0
  -30.0601  -24.6694   21.3794 O   0  0  0  0  0  0
  -28.6054  -22.1695   19.3123 O   0  0  0  0  0  0
  -31.5302  -18.0359   25.1840 O   0  0  0  0  0  0
  -30.5238  -19.9143   23.0446 S   0  0  0  0  0  0
  -31.4713  -12.4323   19.1514 H   0  0  0  0  0  0
  -30.3280  -11.3389   19.8779 H   0  0  0  0  0  0
  -29.7544  -11.7546   17.4630 H   0  0  0  0  0  0
  -29.6634  -13.4721   17.7602 H   0  0  0  0  0  0
  -27.8460  -11.2984   18.8506 H   0  0  0  0  0  0
  -27.3729  -12.6003   17.7930 H   0  0  0  0  0  0
  -27.6811  -14.2516   19.5368 H   0  0  0  0  0  0
  -28.6881  -12.0380   21.3923 H   0  0  0  0  0  0
  -28.4637  -13.7044   21.8431 H   0  0  0  0  0  0
  -25.2757   -9.5689   22.4753 H   0  0  0  0  0  0
  -24.0012   -7.4630   22.7469 H   0  0  0  0  0  0
  -21.0836   -8.8759   19.8953 H   0  0  0  0  0  0
  -22.3681  -10.9669   19.6165 H   0  0  0  0  0  0
  -21.2000   -7.6153   23.9716 H   0  0  0  0  0  0
  -21.1480   -6.0526   25.9078 H   0  0  0  0  0  0
  -22.0599   -2.7608   23.2844 H   0  0  0  0  0  0
  -22.4113  -11.9878   22.4793 H   0  0  0  0  0  0
  -21.1117  -13.1242   22.2623 H   0  0  0  0  0  0
  -24.6612  -15.8428   20.5115 H   0  0  0  0  0  0
  -26.2755  -15.6251   20.0663 H   0  0  0  0  0  0
  -26.7149  -32.5485   23.1136 H   0  0  0  0  0  0
  -25.0061  -33.9758   25.0445 H   0  0  0  0  0  0
  -22.7024  -31.3094   21.4120 H   0  0  0  0  0  0
  -23.3752  -35.9630   23.3284 H   0  0  0  0  0  0
  -24.3587  -36.8937   22.2055 H   0  0  0  0  0  0
  -23.7228  -37.6497   23.6668 H   0  0  0  0  0  0
  -26.0745  -31.5767   20.6073 H   0  0  0  0  0  0
  -26.8304  -30.8555   21.9992 H   0  0  0  0  0  0
  -28.1013  -29.0275   21.1906 H   0  0  0  0  0  0
  -25.9846  -25.9747   18.9668 H   0  0  0  0  0  0
  -23.9685  -27.3208   19.0077 H   0  0  0  0  0  0
  -23.7331  -30.6054   19.4070 H   0  0  0  0  0  0
  -22.7427  -29.2526   19.8639 H   0  0  0  0  0  0
  -25.1284  -36.1950   25.0823 H   0  0  0  0  0  0
  -20.9974  -28.3247   24.1423 H   0  0  0  0  0  0
  -20.5676  -26.2281   23.3614 H   0  0  0  0  0  0
  -21.6638  -26.7438   22.1216 H   0  0  0  0  0  0
  -19.6911  -25.6297   21.1241 H   0  0  0  0  0  0
  -19.6698  -27.3200   20.6754 H   0  0  0  0  0  0
  -17.4204  -26.6688   21.4013 H   0  0  0  0  0  0
  -18.0315  -26.0070   22.9014 H   0  0  0  0  0  0
  -19.7934  -30.7270   24.2264 H   0  0  0  0  0  0
  -17.5014  -31.6264   24.5168 H   0  0  0  0  0  0
  -15.5348  -30.2985   23.7661 H   0  0  0  0  0  0
  -15.8671  -28.0834   22.7044 H   0  0  0  0  0  0
  -24.5891  -30.7102   25.7810 H   0  0  0  0  0  0
  -24.8942  -32.2913   26.4907 H   0  0  0  0  0  0
  -25.8060  -30.8911   27.0242 H   0  0  0  0  0  0
  -26.2893  -29.6777   24.1202 H   0  0  0  0  0  0
  -27.4047  -29.7281   25.4658 H   0  0  0  0  0  0
  -27.8752  -30.4324   23.9370 H   0  0  0  0  0  0
  -27.2670  -33.3614   26.2095 H   0  0  0  0  0  0
  -28.3848  -32.6901   25.0307 H   0  0  0  0  0  0
  -28.0748  -31.8438   26.5384 H   0  0  0  0  0  0
  -28.2578  -38.0117   24.7540 H   0  0  0  0  0  0
  -28.1106  -36.2652   24.6220 H   0  0  0  0  0  0
  -27.2318  -37.1368   25.8857 H   0  0  0  0  0  0
  -20.9326  -29.8756   21.6921 H   0  0  0  0  0  0
  -26.0171  -38.2857   24.1444 H   0  0  0  0  0  0
  -31.4679  -14.9377   24.3373 H   0  0  0  0  0  0
  -31.9712  -15.6258   25.8797 H   0  0  0  0  0  0
  -33.0861  -15.6322   24.5106 H   0  0  0  0  0  0
  -31.0052  -17.0096   19.5766 H   0  0  0  0  0  0
  -29.2932  -17.1322   19.4649 H   0  0  0  0  0  0
  -27.2021  -24.8024   20.2811 H   0  0  0  0  0  0
  -28.1948  -24.9443   18.8367 H   0  0  0  0  0  0
  -31.1209  -16.3376   22.5799 H   0  0  0  0  0  0
  -30.0549  -22.5001   22.0577 H   0  0  0  0  0  0
  -28.9748  -15.4419   21.1085 H   0  0  0  0  0  0
  1 25  1  0  0  0
  1 30  2  0  0  0
  1 83  1  0  0  0
  2  3  1  0  0  0
  2 25  1  0  0  0
  2 88  1  0  0  0
  2 89  1  0  0  0
  3  4  1  0  0  0
  3 90  1  0  0  0
  3 91  1  0  0  0
  4  5  1  0  0  0
  4 92  1  0  0  0
  4 93  1  0  0  0
  5  6  1  0  0  0
  5 26  1  0  0  0
  5 94  1  0  0  0
  6 25  1  0  0  0
  6 95  1  0  0  0
  6 96  1  0  0  0
  7  8  2  0  0  0
  7 26  1  0  0  0
  7 29  1  0  0  0
  8  9  1  0  0  0
  8 22  1  0  0  0
  9 10  1  0  0  0
  9 27  2  0  0  0
 10 11  2  0  0  0
 10 15  1  0  0  0
 11 12  1  0  0  0
 11 97  1  0  0  0
 12 13  2  0  0  0
 12 98  1  0  0  0
 13 14  1  0  0  0
 13 31  1  0  0  0
 14 15  2  0  0  0
 14 99  1  0  0  0
 15100  1  0  0  0
 16 17  2  0  0  0
 16 21  1  0  0  0
 16 31  1  0  0  0
 17 18  1  0  0  0
 17101  1  0  0  0
 18 19  2  0  0  0
 18102  1  0  0  0
 19 20  1  0  0  0
 19 24  1  0  0  0
 20 21  2  0  0  0
 20103  1  0  0  0
 21 23  1  0  0  0
 22 28  1  0  0  0
 22 32  2  0  0  0
 26 27  1  0  0  0
 28104  1  0  0  0
 28105  1  0  0  0
 29106  1  0  0  0
 29107  1  0  0  0
 33 34  1  0  0  0
 33 66  1  0  0  0
 33 70  2  0  0  0
 34 36  1  0  0  0
 34 59  1  0  0  0
 34108  1  0  0  0
 35 44  2  0  0  0
 35 45  1  0  0  0
 35 68  1  0  0  0
 36 56  1  0  0  0
 36109  1  0  0  0
 37 39  1  0  0  0
 37 47  1  0  0  0
 37 66  1  0  0  0
 37110  1  0  0  0
 38 43  2  0  0  0
 38 46  1  0  0  0
 38 47  1  0  0  0
 39 64  1  0  0  0
 39 67  2  0  0  0
 40 52  1  0  0  0
 40 53  2  0  0  0
 40 58  1  0  0  0
 41111  1  0  0  0
 41112  1  0  0  0
 41113  1  0  0  0
 41 48  1  0  0  0
 42 43  1  0  0  0
 42 66  1  0  0  0
 42114  1  0  0  0
 42115  1  0  0  0
 43 44  1  0  0  0
 44116  1  0  0  0
 45 46  2  0  0  0
 45117  1  0  0  0
 46118  1  0  0  0
 47119  1  0  0  0
 47120  1  0  0  0
 48 56  1  0  0  0
 48 65  1  0  0  0
 48121  1  0  0  0
 49 50  1  0  0  0
 49 53  1  0  0  0
 49 64  1  0  0  0
 49122  1  0  0  0
 50 51  1  0  0  0
 50123  1  0  0  0
 50124  1  0  0  0
 51 52  1  0  0  0
 51125  1  0  0  0
 51126  1  0  0  0
 52127  1  0  0  0
 52128  1  0  0  0
 53 54  1  0  0  0
 54 55  2  0  0  0
 54129  1  0  0  0
 55 57  1  0  0  0
 55130  1  0  0  0
 56 69  2  0  0  0
 57 58  2  0  0  0
 57131  1  0  0  0
 58132  1  0  0  0
 59 60  1  0  0  0
 59 61  1  0  0  0
 59 62  1  0  0  0
 60133  1  0  0  0
 60134  1  0  0  0
 60135  1  0  0  0
 61136  1  0  0  0
 61137  1  0  0  0
 61138  1  0  0  0
 62139  1  0  0  0
 62140  1  0  0  0
 62141  1  0  0  0
 63 65  1  0  0  0
 63142  1  0  0  0
 63143  1  0  0  0
 63144  1  0  0  0
 64145  1  0  0  0
 65146  1  0  0  0
 68 79  1  0  0  0
 71 72  2  0  0  0
 71 78  1  0  0  0
 71 80  1  0  0  0
 72 81  1  0  0  0
 72 87  1  0  0  0
 73 80  2  0  0  0
 73 82  1  0  0  0
 73 87  1  0  0  0
 74 75  1  0  0  0
 74 79  1  0  0  0
 74 84  2  0  0  0
 75 82  1  0  0  0
 75 85  2  0  0  0
 76 77  1  0  0  0
 76 81  1  0  0  0
 76 86  2  0  0  0
 77147  1  0  0  0
 77148  1  0  0  0
 77149  1  0  0  0
 78 83  1  0  0  0
 78150  1  0  0  0
 78151  1  0  0  0
 79152  1  0  0  0
 79153  1  0  0  0
 81154  1  0  0  0
 82155  1  0  0  0
 83156  1  0  0  0
M  ISO  4   1 100  68 101  79 101  83 100
M  END
> <chiral flag>
0

> <version>
0

> <s_m_source_file>
/data/baiqing/PycharmProjects/Reinvent-master-3.2/result/LINK_invent/BTK/process_docking_weight1_custom_product_contain_oxygen_bond_distance_aromatic_linkinvent_7_9_3/rearranged_h_0172.sdf

> <i_m_source_file_index>
82

> <r_mmod_Potential_Energy-OPLS-2005>
-205.471725463867

> <r_mmod_Stretch_Energy-OPLS-2005>
55.6759338378906

> <r_mmod_Bend_Energy-OPLS-2005>
134.462783813477

> <r_mmod_Torsional_Energy-OPLS-2005>
205.376998901367

> <r_mmod_Improper_Torsional_Energy-OPLS-2005>
7.51718139648438

> <r_mmod_Van_der_Waal_Energy-OPLS-2005>
132.299041748047

> <r_mmod_Electrostatic_Energy-OPLS-2005>
-497.247589111328

> <r_mmod_Solvation_Energy-OPLS-2005>
-273.073547363281

> <b_mmod_Minimization_Converged-OPLS-2005>
0

> <r_mmod_RMS_Derivative-OPLS-2005>
0.849169552326202

$$$$
82
                    3D
 Structure written by MMmdl.
163171  0  0  1  0            999 V2000
  -30.7338  -14.4298   20.6427 C   0  0  0  0  0  0
  -30.4261  -12.3119   19.4066 C   0  0  0  0  0  0
  -29.4894  -12.5210   18.2005 C   0  0  0  0  0  0
  -28.0141  -12.3757   18.6173 C   0  0  0  0  0  0
  -27.6657  -13.2040   19.8821 C   0  0  2  0  0  0
  -28.7065  -12.9694   20.9986 C   0  0  0  0  0  0
  -25.2622  -13.8156   20.5681 C   0  0  0  0  0  0
  -24.1861  -13.0431   20.9154 C   0  0  0  0  0  0
  -24.6410  -11.6901   20.8730 C   0  0  0  0  0  0
  -23.9071  -10.4283   21.0408 C   0  0  0  0  0  0
  -24.3612   -9.4208   21.9194 C   0  0  0  0  0  0
  -23.6287   -8.2246   22.0773 C   0  0  0  0  0  0
  -22.4278   -8.0274   21.3553 C   0  0  0  0  0  0
  -21.9912   -9.0250   20.4651 C   0  0  0  0  0  0
  -22.7246  -10.2132   20.3056 C   0  0  0  0  0  0
  -21.6865   -6.0735   22.5274 C   0  0  0  0  0  0
  -21.4018   -6.5632   23.8202 C   0  0  0  0  0  0
  -21.3655   -5.6791   24.9164 C   0  0  0  0  0  0
  -21.6047   -4.3059   24.7230 C   0  0  0  0  0  0
  -21.8832   -3.8141   23.4359 C   0  0  0  0  0  0
  -21.9196   -4.6954   22.3402 C   0  0  0  0  0  0
  -22.7886  -13.5224   21.1816 C   0  0  0  0  0  0
  -22.1664   -4.2130   21.0980 F   0  0  0  0  0  0
  -21.5621   -3.4545   25.7750 F   0  0  0  0  0  0
  -30.0412  -13.2753   20.4473 N   0  0  0  0  0  0
  -26.3056  -12.9311   20.3393 N   0  0  0  0  0  0
  -25.9341  -11.6491   20.5786 N   0  0  0  0  0  0
  -22.0534  -12.8210   22.0360 N   0  0  0  0  0  0
  -25.4338  -15.1884   20.4103 N   0  0  0  0  0  0
  -31.8283  -14.6570   20.1151 O   0  0  0  0  0  0
  -21.6648   -6.8878   21.4240 O   0  0  0  0  0  0
  -22.3570  -14.5542   20.6674 O   0  0  0  0  0  0
  -24.6086  -31.8714   23.2095 C   0  0  0  0  0  0
  -25.9009  -32.4836   23.8374 C   0  0  1  0  0  0
  -27.2307  -27.4616   20.1026 C   0  0  0  0  0  0
  -25.5887  -33.8619   24.2328 N   0  0  0  0  0  0
  -23.3969  -30.4901   21.5524 C   0  0  2  0  0  0
  -24.8431  -28.9583   20.1170 C   0  0  0  0  0  0
  -22.7384  -29.4669   22.5030 C   0  0  0  0  0  0
  -18.0257  -28.1344   22.8524 C   0  0  0  0  0  0
  -24.1467  -36.7277   23.2649 C   0  0  0  0  0  0
  -25.9191  -30.8456   21.3571 C   0  0  0  0  0  0
  -26.0004  -29.4783   20.7120 C   0  0  0  0  0  0
  -27.1991  -28.7350   20.7081 C   0  0  0  0  0  0
  -26.0658  -26.9427   19.5071 C   0  0  0  0  0  0
  -24.8700  -27.6873   19.5118 C   0  0  0  0  0  0
  -23.5986  -29.8187   20.1678 C   0  0  0  0  0  0
  -25.4095  -36.3116   24.0354 C   0  0  1  0  0  0
  -20.5855  -28.3639   23.1341 C   0  0  2  0  0  0
  -20.6743  -26.9383   22.5405 C   0  0  0  0  0  0
  -19.5719  -26.6362   21.5198 C   0  0  0  0  0  0
  -18.1893  -26.7912   22.1607 C   0  0  0  0  0  0
  -19.1513  -28.8800   23.2934 C   0  0  0  0  0  0
  -18.9455  -30.1409   23.8948 C   0  0  0  0  0  0
  -17.6465  -30.6591   24.0548 C   0  0  0  0  0  0
  -25.9022  -34.9487   23.5145 C   0  0  0  0  0  0
  -16.5346  -29.9095   23.6327 C   0  0  0  0  0  0
  -16.7256  -28.6478   23.0420 C   0  0  0  0  0  0
  -26.4448  -31.6605   25.0678 C   0  0  0  0  0  0
  -25.3729  -31.3671   26.1438 C   0  0  0  0  0  0
  -27.0318  -30.3078   24.6016 C   0  0  0  0  0  0
  -27.6022  -32.4326   25.7462 C   0  0  0  0  0  0
  -27.5580  -37.1801   24.8482 C   0  0  0  0  0  0
  -21.4128  -29.3023   22.3757 N   0  0  0  0  0  0
  -26.4283  -37.3792   23.9424 N   0  0  0  0  0  0
  -24.6596  -31.0832   22.0981 N   0  0  0  0  0  0
  -23.4162  -28.8210   23.3065 O   0  0  0  0  0  0
  -28.3842  -26.7242   20.0692 O   0  0  0  0  0  0
  -26.5615  -34.8955   22.4718 O   0  0  0  0  0  0
  -23.5299  -32.1500   23.7491 O   0  0  0  0  0  0
  -31.8529  -16.8786   22.2273 C   0  0  0  0  0  0
  -29.5562  -17.6418   21.9888 C   0  0  0  0  0  0
  -32.2375  -18.1298   22.7716 C   0  0  0  0  0  0
  -30.5195  -16.6232   21.8379 C   0  0  0  0  0  0
  -29.9136  -18.9061   22.5127 C   0  0  0  0  0  0
  -31.2463  -19.1443   22.9333 C   0  0  0  0  0  0
  -33.6564  -18.3362   23.1710 C   0  0  0  0  0  0
  -27.1957  -22.6991   21.7820 C   0  0  0  0  0  0
  -28.7851  -24.4351   20.8111 C   0  0  0  0  0  0
  -27.8567  -20.2335   21.9880 C   0  0  0  0  0  0
  -28.5833  -23.3612   21.8879 C   0  0  0  0  0  0
  -26.9712  -21.3709   22.5233 C   0  0  0  0  0  0
  -28.5581  -25.8974   21.2227 C   0  0  0  0  0  0
  -34.5355  -17.4297   23.2967 N   0  0  0  0  0  0
  -31.5429  -20.3887   23.5181 N   0  0  0  0  0  0
  -28.9571  -19.9442   22.7076 N   0  0  0  0  0  0
  -30.0802  -15.3517   21.3731 N   0  0  0  0  0  0
  -26.2450  -23.2536   21.2163 O   0  0  0  0  0  0
  -29.1535  -24.1268   19.6702 O   0  0  0  0  0  0
  -27.5325  -19.6254   20.9631 O   0  0  0  0  0  0
  -31.4673  -12.4231   19.0989 H   0  0  0  0  0  0
  -30.3351  -11.2960   19.7932 H   0  0  0  0  0  0
  -29.7218  -11.8053   17.4106 H   0  0  0  0  0  0
  -29.6554  -13.5136   17.7795 H   0  0  0  0  0  0
  -27.8226  -11.3164   18.7949 H   0  0  0  0  0  0
  -27.3633  -12.6727   17.7934 H   0  0  0  0  0  0
  -27.7123  -14.2546   19.5975 H   0  0  0  0  0  0
  -28.6879  -11.9314   21.3302 H   0  0  0  0  0  0
  -28.4553  -13.5528   21.8840 H   0  0  0  0  0  0
  -25.2769   -9.5693   22.4766 H   0  0  0  0  0  0
  -23.9999   -7.4655   22.7512 H   0  0  0  0  0  0
  -21.0843   -8.8791   19.8947 H   0  0  0  0  0  0
  -22.3729  -10.9682   19.6159 H   0  0  0  0  0  0
  -21.2020   -7.6147   23.9703 H   0  0  0  0  0  0
  -21.1449   -6.0522   25.9061 H   0  0  0  0  0  0
  -22.0613   -2.7604   23.2873 H   0  0  0  0  0  0
  -22.4158  -11.9858   22.4710 H   0  0  0  0  0  0
  -21.1164  -13.1250   22.2592 H   0  0  0  0  0  0
  -24.6660  -15.8445   20.5066 H   0  0  0  0  0  0
  -26.2858  -15.6298   20.0843 H   0  0  0  0  0  0
  -26.7084  -32.5579   23.1143 H   0  0  0  0  0  0
  -25.0047  -33.9736   25.0495 H   0  0  0  0  0  0
  -22.6861  -31.3061   21.4143 H   0  0  0  0  0  0
  -23.3766  -35.9577   23.3274 H   0  0  0  0  0  0
  -24.3572  -36.8906   22.2072 H   0  0  0  0  0  0
  -23.7164  -37.6447   23.6668 H   0  0  0  0  0  0
  -26.0235  -31.6067   20.5853 H   0  0  0  0  0  0
  -26.8088  -30.8987   21.9740 H   0  0  0  0  0  0
  -28.0962  -29.1328   21.1641 H   0  0  0  0  0  0
  -26.0880  -25.9626   19.0516 H   0  0  0  0  0  0
  -23.9817  -27.2764   19.0511 H   0  0  0  0  0  0
  -23.6955  -30.5922   19.4070 H   0  0  0  0  0  0
  -22.7214  -29.2338   19.8822 H   0  0  0  0  0  0
  -25.1266  -36.1968   25.0844 H   0  0  0  0  0  0
  -20.9926  -28.3204   24.1480 H   0  0  0  0  0  0
  -20.5616  -26.2273   23.3602 H   0  0  0  0  0  0
  -21.6639  -26.7398   22.1233 H   0  0  0  0  0  0
  -19.6884  -25.6274   21.1232 H   0  0  0  0  0  0
  -19.6620  -27.3180   20.6737 H   0  0  0  0  0  0
  -17.4136  -26.6680   21.4016 H   0  0  0  0  0  0
  -18.0259  -26.0023   22.8972 H   0  0  0  0  0  0
  -19.7931  -30.7194   24.2377 H   0  0  0  0  0  0
  -17.5020  -31.6291   24.5123 H   0  0  0  0  0  0
  -15.5354  -30.3023   23.7617 H   0  0  0  0  0  0
  -15.8661  -28.0778   22.7205 H   0  0  0  0  0  0
  -24.5866  -30.7062   25.7735 H   0  0  0  0  0  0
  -24.8968  -32.2824   26.4983 H   0  0  0  0  0  0
  -25.8088  -30.8742   27.0149 H   0  0  0  0  0  0
  -26.2860  -29.6789   24.1143 H   0  0  0  0  0  0
  -27.4210  -29.7334   25.4439 H   0  0  0  0  0  0
  -27.8614  -30.4414   23.9074 H   0  0  0  0  0  0
  -27.2634  -33.3635   26.2023 H   0  0  0  0  0  0
  -28.3867  -32.6868   25.0318 H   0  0  0  0  0  0
  -28.0647  -31.8453   26.5409 H   0  0  0  0  0  0
  -28.2613  -38.0090   24.7609 H   0  0  0  0  0  0
  -28.1070  -36.2651   24.6236 H   0  0  0  0  0  0
  -27.2306  -37.1369   25.8882 H   0  0  0  0  0  0
  -20.9257  -29.8806   21.7052 H   0  0  0  0  0  0
  -26.0180  -38.2863   24.1452 H   0  0  0  0  0  0
  -32.5908  -16.0963   22.1251 H   0  0  0  0  0  0
  -28.5327  -17.4408   21.7109 H   0  0  0  0  0  0
  -33.9504  -19.3693   23.3663 H   0  0  0  0  0  0
  -29.3688  -22.6136   21.7885 H   0  0  0  0  0  0
  -28.6888  -23.8134   22.8732 H   0  0  0  0  0  0
  -25.9262  -21.0737   22.4107 H   0  0  0  0  0  0
  -27.1416  -21.5245   23.5902 H   0  0  0  0  0  0
  -29.4303  -26.2550   21.7707 H   0  0  0  0  0  0
  -27.7076  -25.9541   21.9046 H   0  0  0  0  0  0
  -34.1550  -16.5109   23.1055 H   0  0  0  0  0  0
  -32.4495  -20.4923   23.9581 H   0  0  0  0  0  0
  -30.8299  -20.8182   24.0956 H   0  0  0  0  0  0
  -29.1955  -20.5911   23.4436 H   0  0  0  0  0  0
  -29.1258  -15.1043   21.5882 H   0  0  0  0  0  0
  1 25  1  0  0  0
  1 30  2  0  0  0
  1 87  1  0  0  0
  2  3  1  0  0  0
  2 25  1  0  0  0
  2 91  1  0  0  0
  2 92  1  0  0  0
  3  4  1  0  0  0
  3 93  1  0  0  0
  3 94  1  0  0  0
  4  5  1  0  0  0
  4 95  1  0  0  0
  4 96  1  0  0  0
  5  6  1  0  0  0
  5 26  1  0  0  0
  5 97  1  0  0  0
  6 25  1  0  0  0
  6 98  1  0  0  0
  6 99  1  0  0  0
  7  8  2  0  0  0
  7 26  1  0  0  0
  7 29  1  0  0  0
  8  9  1  0  0  0
  8 22  1  0  0  0
  9 10  1  0  0  0
  9 27  2  0  0  0
 10 11  2  0  0  0
 10 15  1  0  0  0
 11 12  1  0  0  0
 11100  1  0  0  0
 12 13  2  0  0  0
 12101  1  0  0  0
 13 14  1  0  0  0
 13 31  1  0  0  0
 14 15  2  0  0  0
 14102  1  0  0  0
 15103  1  0  0  0
 16 17  2  0  0  0
 16 21  1  0  0  0
 16 31  1  0  0  0
 17 18  1  0  0  0
 17104  1  0  0  0
 18 19  2  0  0  0
 18105  1  0  0  0
 19 20  1  0  0  0
 19 24  1  0  0  0
 20 21  2  0  0  0
 20106  1  0  0  0
 21 23  1  0  0  0
 22 28  1  0  0  0
 22 32  2  0  0  0
 26 27  1  0  0  0
 28107  1  0  0  0
 28108  1  0  0  0
 29109  1  0  0  0
 29110  1  0  0  0
 33 34  1  0  0  0
 33 66  1  0  0  0
 33 70  2  0  0  0
 34 36  1  0  0  0
 34 59  1  0  0  0
 34111  1  0  0  0
 35 44  2  0  0  0
 35 45  1  0  0  0
 35 68  1  0  0  0
 36 56  1  0  0  0
 36112  1  0  0  0
 37 39  1  0  0  0
 37 47  1  0  0  0
 37 66  1  0  0  0
 37113  1  0  0  0
 38 43  2  0  0  0
 38 46  1  0  0  0
 38 47  1  0  0  0
 39 64  1  0  0  0
 39 67  2  0  0  0
 40 52  1  0  0  0
 40 53  2  0  0  0
 40 58  1  0  0  0
 41114  1  0  0  0
 41115  1  0  0  0
 41116  1  0  0  0
 41 48  1  0  0  0
 42 43  1  0  0  0
 42 66  1  0  0  0
 42117  1  0  0  0
 42118  1  0  0  0
 43 44  1  0  0  0
 44119  1  0  0  0
 45 46  2  0  0  0
 45120  1  0  0  0
 46121  1  0  0  0
 47122  1  0  0  0
 47123  1  0  0  0
 48 56  1  0  0  0
 48 65  1  0  0  0
 48124  1  0  0  0
 49 50  1  0  0  0
 49 53  1  0  0  0
 49 64  1  0  0  0
 49125  1  0  0  0
 50 51  1  0  0  0
 50126  1  0  0  0
 50127  1  0  0  0
 51 52  1  0  0  0
 51128  1  0  0  0
 51129  1  0  0  0
 52130  1  0  0  0
 52131  1  0  0  0
 53 54  1  0  0  0
 54 55  2  0  0  0
 54132  1  0  0  0
 55 57  1  0  0  0
 55133  1  0  0  0
 56 69  2  0  0  0
 57 58  2  0  0  0
 57134  1  0  0  0
 58135  1  0  0  0
 59 60  1  0  0  0
 59 61  1  0  0  0
 59 62  1  0  0  0
 60136  1  0  0  0
 60137  1  0  0  0
 60138  1  0  0  0
 61139  1  0  0  0
 61140  1  0  0  0
 61141  1  0  0  0
 62142  1  0  0  0
 62143  1  0  0  0
 62144  1  0  0  0
 63 65  1  0  0  0
 63145  1  0  0  0
 63146  1  0  0  0
 63147  1  0  0  0
 64148  1  0  0  0
 65149  1  0  0  0
 68 83  1  0  0  0
 71 73  2  0  0  0
 71 74  1  0  0  0
 71150  1  0  0  0
 72 74  2  0  0  0
 72 75  1  0  0  0
 72151  1  0  0  0
 73 76  1  0  0  0
 73 77  1  0  0  0
 74 87  1  0  0  0
 75 76  2  0  0  0
 75 86  1  0  0  0
 76 85  1  0  0  0
 77 84  2  0  0  0
 77152  1  0  0  0
 78 81  1  0  0  0
 78 82  1  0  0  0
 78 88  2  0  0  0
 79 81  1  0  0  0
 79 83  1  0  0  0
 79 89  2  0  0  0
 80 82  1  0  0  0
 80 86  1  0  0  0
 80 90  2  0  0  0
 81153  1  0  0  0
 81154  1  0  0  0
 82155  1  0  0  0
 82156  1  0  0  0
 83157  1  0  0  0
 83158  1  0  0  0
 84159  1  0  0  0
 85160  1  0  0  0
 85161  1  0  0  0
 86162  1  0  0  0
 87163  1  0  0  0
M  ISO  4   1 100  68 101  83 101  87 100
M  END
> <chiral flag>
0

> <version>
0

> <s_m_source_file>
/data/baiqing/PycharmProjects/Reinvent-master-3.2/result/LINK_invent/BTK/process_docking_weight1_custom_product_contain_oxygen_bond_distance_aromatic_linkinvent_7_9_3/rearranged_h_0172.sdf

> <i_m_source_file_index>
83

> <r_mmod_Potential_Energy-OPLS-2005>
-142.613540649414

> <r_mmod_Stretch_Energy-OPLS-2005>
37.2674179077148

> <r_mmod_Bend_Energy-OPLS-2005>
100.213180541992

> <r_mmod_Torsional_Energy-OPLS-2005>
276.960388183594

> <r_mmod_Improper_Torsional_Energy-OPLS-2005>
8.11588287353516

> <r_mmod_Van_der_Waal_Energy-OPLS-2005>
163.707794189453

> <r_mmod_Electrostatic_Energy-OPLS-2005>
-427.327758789062

> <r_mmod_Solvation_Energy-OPLS-2005>
-309.785308837891

> <b_mmod_Minimization_Converged-OPLS-2005>
0

> <r_mmod_RMS_Derivative-OPLS-2005>
4.13969612121582

$$$$
83
                    3D
 Structure written by MMmdl.
160168  0  0  1  0            999 V2000
  -30.7011  -14.5772   20.6127 C   0  0  0  0  0  0
  -30.4433  -12.3870   19.4529 C   0  0  0  0  0  0
  -29.5079  -12.5299   18.2319 C   0  0  0  0  0  0
  -28.0323  -12.3619   18.6406 C   0  0  0  0  0  0
  -27.6617  -13.2187   19.8795 C   0  0  2  0  0  0
  -28.7093  -13.0406   21.0082 C   0  0  0  0  0  0
  -25.2348  -13.8061   20.5374 C   0  0  0  0  0  0
  -24.1713  -13.0327   20.9048 C   0  0  0  0  0  0
  -24.6379  -11.6845   20.8722 C   0  0  0  0  0  0
  -23.9062  -10.4241   21.0401 C   0  0  0  0  0  0
  -24.3613   -9.4171   21.9184 C   0  0  0  0  0  0
  -23.6280   -8.2216   22.0757 C   0  0  0  0  0  0
  -22.4261   -8.0260   21.3549 C   0  0  0  0  0  0
  -21.9897   -9.0228   20.4653 C   0  0  0  0  0  0
  -22.7234  -10.2097   20.3048 C   0  0  0  0  0  0
  -21.6847   -6.0719   22.5278 C   0  0  0  0  0  0
  -21.4014   -6.5623   23.8208 C   0  0  0  0  0  0
  -21.3653   -5.6777   24.9171 C   0  0  0  0  0  0
  -21.6044   -4.3045   24.7225 C   0  0  0  0  0  0
  -21.8827   -3.8128   23.4342 C   0  0  0  0  0  0
  -21.9199   -4.6942   22.3401 C   0  0  0  0  0  0
  -22.7746  -13.5136   21.1761 C   0  0  0  0  0  0
  -22.1678   -4.2140   21.0972 F   0  0  0  0  0  0
  -21.5622   -3.4523   25.7730 F   0  0  0  0  0  0
  -30.0432  -13.3787   20.4726 N   0  0  0  0  0  0
  -26.2990  -12.9368   20.3394 N   0  0  0  0  0  0
  -25.9355  -11.6510   20.5878 N   0  0  0  0  0  0
  -22.0441  -12.8187   22.0400 N   0  0  0  0  0  0
  -25.3617  -15.1719   20.3371 N   0  0  0  0  0  0
  -31.7635  -14.8067   20.0299 O   0  0  0  0  0  0
  -21.6628   -6.8853   21.4240 O   0  0  0  0  0  0
  -22.3419  -14.5456   20.6643 O   0  0  0  0  0  0
  -24.6206  -31.8631   23.2044 C   0  0  0  0  0  0
  -25.9062  -32.4802   23.8367 C   0  0  1  0  0  0
  -27.2466  -27.3755   20.1300 C   0  0  0  0  0  0
  -25.5900  -33.8597   24.2298 N   0  0  0  0  0  0
  -23.4146  -30.4810   21.5451 C   0  0  2  0  0  0
  -24.8676  -28.9326   20.1213 C   0  0  0  0  0  0
  -22.7448  -29.4624   22.4965 C   0  0  0  0  0  0
  -18.0278  -28.1384   22.8489 C   0  0  0  0  0  0
  -24.1484  -36.7303   23.2639 C   0  0  0  0  0  0
  -25.9478  -30.8113   21.3667 C   0  0  0  0  0  0
  -26.0293  -29.4379   20.7191 C   0  0  0  0  0  0
  -27.2240  -28.6707   20.7125 C   0  0  0  0  0  0
  -26.0682  -26.8947   19.5234 C   0  0  0  0  0  0
  -24.8850  -27.6623   19.5163 C   0  0  0  0  0  0
  -23.6306  -29.8058   20.1634 C   0  0  0  0  0  0
  -25.4100  -36.3094   24.0341 C   0  0  1  0  0  0
  -20.5873  -28.3674   23.1307 C   0  0  2  0  0  0
  -20.6761  -26.9405   22.5418 C   0  0  0  0  0  0
  -19.5746  -26.6382   21.5213 C   0  0  0  0  0  0
  -18.1922  -26.7925   22.1626 C   0  0  0  0  0  0
  -19.1527  -28.8849   23.2892 C   0  0  0  0  0  0
  -18.9454  -30.1454   23.8907 C   0  0  0  0  0  0
  -17.6453  -30.6589   24.0564 C   0  0  0  0  0  0
  -25.9034  -34.9462   23.5117 C   0  0  0  0  0  0
  -16.5348  -29.9089   23.6328 C   0  0  0  0  0  0
  -16.7264  -28.6504   23.0352 C   0  0  0  0  0  0
  -26.4465  -31.6612   25.0726 C   0  0  0  0  0  0
  -25.3720  -31.3752   26.1482 C   0  0  0  0  0  0
  -27.0311  -30.3043   24.6155 C   0  0  0  0  0  0
  -27.6043  -32.4344   25.7477 C   0  0  0  0  0  0
  -27.5591  -37.1781   24.8448 C   0  0  0  0  0  0
  -21.4164  -29.3033   22.3709 N   0  0  0  0  0  0
  -26.4278  -37.3797   23.9437 N   0  0  0  0  0  0
  -24.6793  -31.0679   22.0969 N   0  0  0  0  0  0
  -23.4188  -28.8179   23.3045 O   0  0  0  0  0  0
  -28.3944  -26.5951   20.1050 O   0  0  0  0  0  0
  -26.5602  -34.8930   22.4683 O   0  0  0  0  0  0
  -23.5375  -32.1402   23.7394 O   0  0  0  0  0  0
  -28.5401  -19.4096   20.7610 C   0  0  0  0  0  0
  -27.7455  -18.2579   20.8747 C   0  0  0  0  0  0
  -29.9382  -19.3245   20.9104 C   0  0  0  0  0  0
  -29.7351  -16.8427   21.1579 C   0  0  0  0  0  0
  -28.3423  -17.0112   21.1200 C   0  0  0  0  0  0
  -30.5439  -18.0253   21.0819 C   0  0  0  0  0  0
  -28.7703  -24.0724   20.1849 C   0  0  0  0  0  0
  -32.7519  -23.1447   19.9063 C   0  0  0  0  0  0
  -30.7287  -20.6534   21.0152 C   0  0  0  0  0  0
  -29.5967  -22.9698   20.9430 C   0  0  0  0  0  0
  -28.3904  -25.3924   20.9360 C   0  0  0  0  0  0
  -30.1477  -15.4839   21.4541 N   0  0  0  0  0  0
  -30.2865  -21.8454   20.1850 N   0  0  0  0  0  0
  -28.3089  -23.8559   19.0605 O   0  0  0  0  0  0
  -31.9905  -21.0716   18.3898 O   0  0  0  0  0  0
  -30.8363  -23.2991   18.0609 O   0  0  0  0  0  0
  -27.5697  -15.9419   21.3840 F   0  0  0  0  0  0
  -31.8849  -17.9302   21.2465 F   0  0  0  0  0  0
  -31.4373  -22.3079   18.9626 S   0  0  0  0  0  0
  -31.4828  -12.5103   19.1449 H   0  0  0  0  0  0
  -30.3808  -11.3815   19.8723 H   0  0  0  0  0  0
  -29.7724  -11.7943   17.4727 H   0  0  0  0  0  0
  -29.6516  -13.5086   17.7722 H   0  0  0  0  0  0
  -27.8663  -11.3067   18.8578 H   0  0  0  0  0  0
  -27.3775  -12.6063   17.8031 H   0  0  0  0  0  0
  -27.6900  -14.2592   19.5547 H   0  0  0  0  0  0
  -28.7107  -12.0083   21.3622 H   0  0  0  0  0  0
  -28.4389  -13.6409   21.8765 H   0  0  0  0  0  0
  -25.2755   -9.5666   22.4761 H   0  0  0  0  0  0
  -23.9983   -7.4615   22.7490 H   0  0  0  0  0  0
  -21.0815   -8.8758   19.8970 H   0  0  0  0  0  0
  -22.3692  -10.9633   19.6156 H   0  0  0  0  0  0
  -21.2011   -7.6134   23.9715 H   0  0  0  0  0  0
  -21.1463   -6.0501   25.9080 H   0  0  0  0  0  0
  -22.0608   -2.7591   23.2839 H   0  0  0  0  0  0
  -22.4055  -11.9887   22.4858 H   0  0  0  0  0  0
  -21.1089  -13.1276   22.2637 H   0  0  0  0  0  0
  -24.5966  -15.7932   20.5708 H   0  0  0  0  0  0
  -26.2745  -15.6034   20.4632 H   0  0  0  0  0  0
  -26.7145  -32.5498   23.1141 H   0  0  0  0  0  0
  -25.0058  -33.9753   25.0450 H   0  0  0  0  0  0
  -22.7060  -31.2985   21.3974 H   0  0  0  0  0  0
  -23.3758  -35.9621   23.3262 H   0  0  0  0  0  0
  -24.3594  -36.8955   22.2059 H   0  0  0  0  0  0
  -23.7210  -37.6488   23.6671 H   0  0  0  0  0  0
  -26.0656  -31.5722   20.5944 H   0  0  0  0  0  0
  -26.8325  -30.8689   21.9889 H   0  0  0  0  0  0
  -28.1223  -29.0598   21.1716 H   0  0  0  0  0  0
  -26.0676  -25.9201   19.0547 H   0  0  0  0  0  0
  -23.9941  -27.2658   19.0490 H   0  0  0  0  0  0
  -23.7469  -30.5772   19.4014 H   0  0  0  0  0  0
  -22.7546  -29.2277   19.8643 H   0  0  0  0  0  0
  -25.1267  -36.1947   25.0829 H   0  0  0  0  0  0
  -20.9956  -28.3243   24.1434 H   0  0  0  0  0  0
  -20.5660  -26.2287   23.3611 H   0  0  0  0  0  0
  -21.6633  -26.7443   22.1217 H   0  0  0  0  0  0
  -19.6899  -25.6294   21.1249 H   0  0  0  0  0  0
  -19.6682  -27.3192   20.6744 H   0  0  0  0  0  0
  -17.4191  -26.6682   21.4025 H   0  0  0  0  0  0
  -18.0317  -26.0072   22.9021 H   0  0  0  0  0  0
  -19.7931  -30.7260   24.2283 H   0  0  0  0  0  0
  -17.5013  -31.6270   24.5164 H   0  0  0  0  0  0
  -15.5347  -30.2995   23.7645 H   0  0  0  0  0  0
  -15.8664  -28.0824   22.7064 H   0  0  0  0  0  0
  -24.5862  -30.7134   25.7821 H   0  0  0  0  0  0
  -24.8951  -32.2929   26.4936 H   0  0  0  0  0  0
  -25.8057  -30.8905   27.0242 H   0  0  0  0  0  0
  -26.2880  -29.6801   24.1180 H   0  0  0  0  0  0
  -27.4032  -29.7288   25.4643 H   0  0  0  0  0  0
  -27.8732  -30.4352   23.9354 H   0  0  0  0  0  0
  -27.2657  -33.3626   26.2093 H   0  0  0  0  0  0
  -28.3814  -32.6946   25.0276 H   0  0  0  0  0  0
  -28.0766  -31.8462   26.5359 H   0  0  0  0  0  0
  -28.2551  -38.0137   24.7594 H   0  0  0  0  0  0
  -28.1144  -36.2677   24.6131 H   0  0  0  0  0  0
  -27.2338  -37.1262   25.8855 H   0  0  0  0  0  0
  -20.9340  -29.8758   21.6919 H   0  0  0  0  0  0
  -26.0156  -38.2860   24.1504 H   0  0  0  0  0  0
  -28.0632  -20.3697   20.6259 H   0  0  0  0  0  0
  -26.6687  -18.3365   20.8287 H   0  0  0  0  0  0
  -33.1428  -22.4925   20.6832 H   0  0  0  0  0  0
  -32.3709  -24.0619   20.3493 H   0  0  0  0  0  0
  -33.5587  -23.3993   19.2216 H   0  0  0  0  0  0
  -31.7759  -20.4302   20.8089 H   0  0  0  0  0  0
  -30.7242  -20.9372   22.0678 H   0  0  0  0  0  0
  -28.9104  -22.5251   21.6632 H   0  0  0  0  0  0
  -30.3454  -23.4862   21.5435 H   0  0  0  0  0  0
  -29.0864  -25.5411   21.7613 H   0  0  0  0  0  0
  -27.4075  -25.2483   21.3866 H   0  0  0  0  0  0
  -29.4299  -15.0201   21.9905 H   0  0  0  0  0  0
  1 25  1  0  0  0
  1 30  2  0  0  0
  1 82  1  0  0  0
  2  3  1  0  0  0
  2 25  1  0  0  0
  2 90  1  0  0  0
  2 91  1  0  0  0
  3  4  1  0  0  0
  3 92  1  0  0  0
  3 93  1  0  0  0
  4  5  1  0  0  0
  4 94  1  0  0  0
  4 95  1  0  0  0
  5  6  1  0  0  0
  5 26  1  0  0  0
  5 96  1  0  0  0
  6 25  1  0  0  0
  6 97  1  0  0  0
  6 98  1  0  0  0
  7  8  2  0  0  0
  7 26  1  0  0  0
  7 29  1  0  0  0
  8  9  1  0  0  0
  8 22  1  0  0  0
  9 10  1  0  0  0
  9 27  2  0  0  0
 10 11  2  0  0  0
 10 15  1  0  0  0
 11 12  1  0  0  0
 11 99  1  0  0  0
 12 13  2  0  0  0
 12100  1  0  0  0
 13 14  1  0  0  0
 13 31  1  0  0  0
 14 15  2  0  0  0
 14101  1  0  0  0
 15102  1  0  0  0
 16 17  2  0  0  0
 16 21  1  0  0  0
 16 31  1  0  0  0
 17 18  1  0  0  0
 17103  1  0  0  0
 18 19  2  0  0  0
 18104  1  0  0  0
 19 20  1  0  0  0
 19 24  1  0  0  0
 20 21  2  0  0  0
 20105  1  0  0  0
 21 23  1  0  0  0
 22 28  1  0  0  0
 22 32  2  0  0  0
 26 27  1  0  0  0
 28106  1  0  0  0
 28107  1  0  0  0
 29108  1  0  0  0
 29109  1  0  0  0
 33 34  1  0  0  0
 33 66  1  0  0  0
 33 70  2  0  0  0
 34 36  1  0  0  0
 34 59  1  0  0  0
 34110  1  0  0  0
 35 44  2  0  0  0
 35 45  1  0  0  0
 35 68  1  0  0  0
 36 56  1  0  0  0
 36111  1  0  0  0
 37 39  1  0  0  0
 37 47  1  0  0  0
 37 66  1  0  0  0
 37112  1  0  0  0
 38 43  2  0  0  0
 38 46  1  0  0  0
 38 47  1  0  0  0
 39 64  1  0  0  0
 39 67  2  0  0  0
 40 52  1  0  0  0
 40 53  2  0  0  0
 40 58  1  0  0  0
 41113  1  0  0  0
 41114  1  0  0  0
 41115  1  0  0  0
 41 48  1  0  0  0
 42 43  1  0  0  0
 42 66  1  0  0  0
 42116  1  0  0  0
 42117  1  0  0  0
 43 44  1  0  0  0
 44118  1  0  0  0
 45 46  2  0  0  0
 45119  1  0  0  0
 46120  1  0  0  0
 47121  1  0  0  0
 47122  1  0  0  0
 48 56  1  0  0  0
 48 65  1  0  0  0
 48123  1  0  0  0
 49 50  1  0  0  0
 49 53  1  0  0  0
 49 64  1  0  0  0
 49124  1  0  0  0
 50 51  1  0  0  0
 50125  1  0  0  0
 50126  1  0  0  0
 51 52  1  0  0  0
 51127  1  0  0  0
 51128  1  0  0  0
 52129  1  0  0  0
 52130  1  0  0  0
 53 54  1  0  0  0
 54 55  2  0  0  0
 54131  1  0  0  0
 55 57  1  0  0  0
 55132  1  0  0  0
 56 69  2  0  0  0
 57 58  2  0  0  0
 57133  1  0  0  0
 58134  1  0  0  0
 59 60  1  0  0  0
 59 61  1  0  0  0
 59 62  1  0  0  0
 60135  1  0  0  0
 60136  1  0  0  0
 60137  1  0  0  0
 61138  1  0  0  0
 61139  1  0  0  0
 61140  1  0  0  0
 62141  1  0  0  0
 62142  1  0  0  0
 62143  1  0  0  0
 63 65  1  0  0  0
 63144  1  0  0  0
 63145  1  0  0  0
 63146  1  0  0  0
 64147  1  0  0  0
 65148  1  0  0  0
 68 81  1  0  0  0
 71 72  2  0  0  0
 71 73  1  0  0  0
 71149  1  0  0  0
 72 75  1  0  0  0
 72150  1  0  0  0
 73 76  2  0  0  0
 73 79  1  0  0  0
 74 75  2  0  0  0
 74 76  1  0  0  0
 74 82  1  0  0  0
 75 87  1  0  0  0
 76 88  1  0  0  0
 77 80  1  0  0  0
 77 81  1  0  0  0
 77 84  2  0  0  0
 78151  1  0  0  0
 78152  1  0  0  0
 78153  1  0  0  0
 78 89  1  0  0  0
 79 83  1  0  0  0
 79154  1  0  0  0
 79155  1  0  0  0
 80 83  1  0  0  0
 80156  1  0  0  0
 80157  1  0  0  0
 81158  1  0  0  0
 81159  1  0  0  0
 82160  1  0  0  0
 83 89  1  0  0  0
 85 89  2  0  0  0
 86 89  2  0  0  0
M  ISO  4   1 100  68 101  81 101  82 100
M  END
> <chiral flag>
0

> <version>
0

> <s_m_source_file>
/data/baiqing/PycharmProjects/Reinvent-master-3.2/result/LINK_invent/BTK/process_docking_weight1_custom_product_contain_oxygen_bond_distance_aromatic_linkinvent_7_9_3/rearranged_h_0172.sdf

> <i_m_source_file_index>
84

> <r_mmod_Potential_Energy-OPLS-2005>
-307.304412841797

> <r_mmod_Stretch_Energy-OPLS-2005>
67.5131225585938

> <r_mmod_Bend_Energy-OPLS-2005>
128.894760131836

> <r_mmod_Torsional_Energy-OPLS-2005>
279.922088623047

> <r_mmod_Improper_Torsional_Energy-OPLS-2005>
15.1102018356323

> <r_mmod_Van_der_Waal_Energy-OPLS-2005>
138.80387878418

> <r_mmod_Electrostatic_Energy-OPLS-2005>
-669.152954101562

> <r_mmod_Solvation_Energy-OPLS-2005>
-297.030059814453

> <b_mmod_Minimization_Converged-OPLS-2005>
0

> <r_mmod_RMS_Derivative-OPLS-2005>
1.95400512218475

$$$$
84
                    3D
 Structure written by MMmdl.
164172  0  0  1  0            999 V2000
  -30.7178  -14.4940   20.5703 C   0  0  0  0  0  0
  -30.4192  -12.3200   19.4321 C   0  0  0  0  0  0
  -29.4960  -12.4997   18.2105 C   0  0  0  0  0  0
  -28.0176  -12.3566   18.6237 C   0  0  0  0  0  0
  -27.6580  -13.2121   19.8687 C   0  0  2  0  0  0
  -28.7017  -13.0270   20.9942 C   0  0  0  0  0  0
  -25.2575  -13.8171   20.5679 C   0  0  0  0  0  0
  -24.1833  -13.0441   20.9182 C   0  0  0  0  0  0
  -24.6393  -11.6906   20.8736 C   0  0  0  0  0  0
  -23.9056  -10.4290   21.0399 C   0  0  0  0  0  0
  -24.3609   -9.4208   21.9182 C   0  0  0  0  0  0
  -23.6285   -8.2242   22.0759 C   0  0  0  0  0  0
  -22.4268   -8.0277   21.3546 C   0  0  0  0  0  0
  -21.9903   -9.0243   20.4647 C   0  0  0  0  0  0
  -22.7228  -10.2125   20.3049 C   0  0  0  0  0  0
  -21.6851   -6.0729   22.5279 C   0  0  0  0  0  0
  -21.4009   -6.5635   23.8213 C   0  0  0  0  0  0
  -21.3659   -5.6788   24.9175 C   0  0  0  0  0  0
  -21.6049   -4.3052   24.7226 C   0  0  0  0  0  0
  -21.8819   -3.8141   23.4348 C   0  0  0  0  0  0
  -21.9194   -4.6957   22.3402 C   0  0  0  0  0  0
  -22.7857  -13.5240   21.1837 C   0  0  0  0  0  0
  -22.1663   -4.2143   21.0980 F   0  0  0  0  0  0
  -21.5628   -3.4536   25.7739 F   0  0  0  0  0  0
  -30.0290  -13.3264   20.4342 N   0  0  0  0  0  0
  -26.3011  -12.9352   20.3349 N   0  0  0  0  0  0
  -25.9323  -11.6504   20.5768 N   0  0  0  0  0  0
  -22.0490  -12.8231   22.0393 N   0  0  0  0  0  0
  -25.4292  -15.1893   20.4067 N   0  0  0  0  0  0
  -31.8531  -14.6411   20.1105 O   0  0  0  0  0  0
  -21.6640   -6.8868   21.4238 O   0  0  0  0  0  0
  -22.3542  -14.5542   20.6680 O   0  0  0  0  0  0
  -24.6174  -31.8659   23.2107 C   0  0  0  0  0  0
  -25.9058  -32.4811   23.8392 C   0  0  1  0  0  0
  -27.2236  -27.4013   20.0918 C   0  0  0  0  0  0
  -25.5914  -33.8610   24.2330 N   0  0  0  0  0  0
  -23.4064  -30.4930   21.5514 C   0  0  2  0  0  0
  -24.8504  -28.9674   20.1094 C   0  0  0  0  0  0
  -22.7429  -29.4648   22.4972 C   0  0  0  0  0  0
  -18.0267  -28.1386   22.8482 C   0  0  0  0  0  0
  -24.1482  -36.7293   23.2638 C   0  0  0  0  0  0
  -25.9418  -30.8222   21.3710 C   0  0  0  0  0  0
  -26.0152  -29.4571   20.7126 C   0  0  0  0  0  0
  -27.2035  -28.6818   20.7028 C   0  0  0  0  0  0
  -26.0364  -26.9538   19.4593 C   0  0  0  0  0  0
  -24.8581  -27.7164   19.4785 C   0  0  0  0  0  0
  -23.6138  -29.8346   20.1634 C   0  0  0  0  0  0
  -25.4109  -36.3101   24.0335 C   0  0  1  0  0  0
  -20.5866  -28.3656   23.1308 C   0  0  2  0  0  0
  -20.6767  -26.9384   22.5417 C   0  0  0  0  0  0
  -19.5745  -26.6379   21.5215 C   0  0  0  0  0  0
  -18.1914  -26.7940   22.1609 C   0  0  0  0  0  0
  -19.1521  -28.8835   23.2897 C   0  0  0  0  0  0
  -18.9458  -30.1445   23.8902 C   0  0  0  0  0  0
  -17.6460  -30.6593   24.0548 C   0  0  0  0  0  0
  -25.9036  -34.9467   23.5126 C   0  0  0  0  0  0
  -16.5341  -29.9089   23.6334 C   0  0  0  0  0  0
  -16.7254  -28.6504   23.0355 C   0  0  0  0  0  0
  -26.4482  -31.6599   25.0728 C   0  0  0  0  0  0
  -25.3739  -31.3716   26.1466 C   0  0  0  0  0  0
  -27.0324  -30.3041   24.6121 C   0  0  0  0  0  0
  -27.6045  -32.4332   25.7504 C   0  0  0  0  0  0
  -27.5579  -37.1807   24.8471 C   0  0  0  0  0  0
  -21.4147  -29.3030   22.3721 N   0  0  0  0  0  0
  -26.4290  -37.3797   23.9411 N   0  0  0  0  0  0
  -24.6737  -31.0749   22.1018 N   0  0  0  0  0  0
  -23.4196  -28.8180   23.3012 O   0  0  0  0  0  0
  -28.3635  -26.6049   20.1377 O   0  0  0  0  0  0
  -26.5590  -34.8924   22.4682 O   0  0  0  0  0  0
  -23.5361  -32.1408   23.7485 O   0  0  0  0  0  0
  -29.6477  -17.9964   21.0007 C   0  0  0  0  0  0
  -31.7936  -17.1500   21.7705 C   0  0  0  0  0  0
  -30.0799  -19.3457   21.1784 C   0  0  0  0  0  0
  -30.4979  -16.8891   21.2693 C   0  0  0  0  0  0
  -32.2353  -18.4729   21.9701 C   0  0  0  0  0  0
  -31.3944  -19.5644   21.6653 C   0  0  0  0  0  0
  -29.1312  -20.4953   20.8714 C   0  0  0  0  0  0
  -29.1891  -24.2381   20.5247 C   0  0  0  0  0  0
  -29.4048  -23.4247   23.6440 C   0  0  0  0  0  0
  -27.2691  -22.1323   23.2516 C   0  0  0  0  0  0
  -28.1270  -25.1886   19.9239 C   0  0  0  0  0  0
  -28.6342  -22.9537   21.2205 C   0  0  2  0  0  0
  -28.2084  -23.2155   22.6948 C   0  0  0  0  0  0
  -33.5125  -18.7144   22.4823 N   0  0  0  0  0  0
  -30.0284  -15.5414   21.0831 N   0  0  0  0  0  0
  -29.5163  -21.7637   21.1366 N   0  0  0  0  0  0
  -28.0052  -20.2491   20.4306 O   0  0  0  0  0  0
  -30.3944  -24.5005   20.4438 O   0  0  0  0  0  0
  -31.8768  -20.8185   21.8636 F   0  0  0  0  0  0
  -31.4655  -12.4049   19.1344 H   0  0  0  0  0  0
  -30.3116  -11.3173   19.8481 H   0  0  0  0  0  0
  -29.7425  -11.7649   17.4431 H   0  0  0  0  0  0
  -29.6612  -13.4806   17.7610 H   0  0  0  0  0  0
  -27.8371  -11.3016   18.8345 H   0  0  0  0  0  0
  -27.3647  -12.6132   17.7886 H   0  0  0  0  0  0
  -27.6921  -14.2549   19.5518 H   0  0  0  0  0  0
  -28.6845  -12.0006   21.3649 H   0  0  0  0  0  0
  -28.4646  -13.6540   21.8551 H   0  0  0  0  0  0
  -25.2754   -9.5687   22.4757 H   0  0  0  0  0  0
  -23.9998   -7.4635   22.7479 H   0  0  0  0  0  0
  -21.0838   -8.8742   19.8952 H   0  0  0  0  0  0
  -22.3680  -10.9648   19.6150 H   0  0  0  0  0  0
  -21.1996   -7.6142   23.9711 H   0  0  0  0  0  0
  -21.1486   -6.0522   25.9079 H   0  0  0  0  0  0
  -22.0601   -2.7601   23.2847 H   0  0  0  0  0  0
  -22.4094  -11.9887   22.4773 H   0  0  0  0  0  0
  -21.1109  -13.1258   22.2584 H   0  0  0  0  0  0
  -24.6585  -15.8419   20.5004 H   0  0  0  0  0  0
  -26.2768  -15.6251   20.0666 H   0  0  0  0  0  0
  -26.7114  -32.5501   23.1139 H   0  0  0  0  0  0
  -25.0098  -33.9774   25.0496 H   0  0  0  0  0  0
  -22.6965  -31.3112   21.4155 H   0  0  0  0  0  0
  -23.3757  -35.9616   23.3316 H   0  0  0  0  0  0
  -24.3573  -36.8892   22.2054 H   0  0  0  0  0  0
  -23.7234  -37.6499   23.6639 H   0  0  0  0  0  0
  -26.0654  -31.5910   20.6069 H   0  0  0  0  0  0
  -26.8265  -30.8668   21.9940 H   0  0  0  0  0  0
  -28.0970  -29.0508   21.1869 H   0  0  0  0  0  0
  -25.9833  -26.0078   18.9414 H   0  0  0  0  0  0
  -23.9645  -27.3390   18.9995 H   0  0  0  0  0  0
  -23.7210  -30.6112   19.4058 H   0  0  0  0  0  0
  -22.7372  -29.2558   19.8653 H   0  0  0  0  0  0
  -25.1303  -36.1951   25.0833 H   0  0  0  0  0  0
  -20.9945  -28.3202   24.1434 H   0  0  0  0  0  0
  -20.5683  -26.2244   23.3600 H   0  0  0  0  0  0
  -21.6636  -26.7439   22.1197 H   0  0  0  0  0  0
  -19.6892  -25.6299   21.1223 H   0  0  0  0  0  0
  -19.6698  -27.3203   20.6767 H   0  0  0  0  0  0
  -17.4199  -26.6676   21.3997 H   0  0  0  0  0  0
  -18.0294  -26.0089   22.9015 H   0  0  0  0  0  0
  -19.7932  -30.7251   24.2273 H   0  0  0  0  0  0
  -17.5022  -31.6280   24.5147 H   0  0  0  0  0  0
  -15.5345  -30.2996   23.7703 H   0  0  0  0  0  0
  -15.8642  -28.0836   22.7094 H   0  0  0  0  0  0
  -24.5912  -30.7059   25.7810 H   0  0  0  0  0  0
  -24.8918  -32.2874   26.4891 H   0  0  0  0  0  0
  -25.8081  -30.8902   27.0231 H   0  0  0  0  0  0
  -26.2876  -29.6798   24.1166 H   0  0  0  0  0  0
  -27.4100  -29.7284   25.4580 H   0  0  0  0  0  0
  -27.8709  -30.4386   23.9284 H   0  0  0  0  0  0
  -27.2650  -33.3629   26.2088 H   0  0  0  0  0  0
  -28.3856  -32.6900   25.0336 H   0  0  0  0  0  0
  -28.0701  -31.8445   26.5417 H   0  0  0  0  0  0
  -28.2614  -38.0091   24.7525 H   0  0  0  0  0  0
  -28.1064  -36.2628   24.6300 H   0  0  0  0  0  0
  -27.2289  -37.1466   25.8872 H   0  0  0  0  0  0
  -20.9295  -29.8766   21.6959 H   0  0  0  0  0  0
  -26.0168  -38.2868   24.1424 H   0  0  0  0  0  0
  -28.6466  -17.8096   20.6381 H   0  0  0  0  0  0
  -32.4513  -16.3284   22.0154 H   0  0  0  0  0  0
  -29.0669  -23.6811   24.6484 H   0  0  0  0  0  0
  -30.0525  -24.2350   23.3063 H   0  0  0  0  0  0
  -30.0186  -22.5272   23.7271 H   0  0  0  0  0  0
  -26.8797  -22.4202   24.2291 H   0  0  0  0  0  0
  -27.7788  -21.1769   23.3729 H   0  0  0  0  0  0
  -26.4137  -21.9752   22.5937 H   0  0  0  0  0  0
  -27.1763  -24.9030   20.3747 H   0  0  0  0  0  0
  -28.0541  -24.9933   18.8539 H   0  0  0  0  0  0
  -27.7187  -22.7153   20.6770 H   0  0  0  0  0  0
  -27.6340  -24.1441   22.7057 H   0  0  0  0  0  0
  -34.2240  -17.9937   22.4143 H   0  0  0  0  0  0
  -33.8746  -19.6587   22.3963 H   0  0  0  0  0  0
  -29.0537  -15.3650   21.2735 H   0  0  0  0  0  0
  -30.4723  -21.8889   21.4488 H   0  0  0  0  0  0
  1 25  1  0  0  0
  1 30  2  0  0  0
  1 85  1  0  0  0
  2  3  1  0  0  0
  2 25  1  0  0  0
  2 90  1  0  0  0
  2 91  1  0  0  0
  3  4  1  0  0  0
  3 92  1  0  0  0
  3 93  1  0  0  0
  4  5  1  0  0  0
  4 94  1  0  0  0
  4 95  1  0  0  0
  5  6  1  0  0  0
  5 26  1  0  0  0
  5 96  1  0  0  0
  6 25  1  0  0  0
  6 97  1  0  0  0
  6 98  1  0  0  0
  7  8  2  0  0  0
  7 26  1  0  0  0
  7 29  1  0  0  0
  8  9  1  0  0  0
  8 22  1  0  0  0
  9 10  1  0  0  0
  9 27  2  0  0  0
 10 11  2  0  0  0
 10 15  1  0  0  0
 11 12  1  0  0  0
 11 99  1  0  0  0
 12 13  2  0  0  0
 12100  1  0  0  0
 13 14  1  0  0  0
 13 31  1  0  0  0
 14 15  2  0  0  0
 14101  1  0  0  0
 15102  1  0  0  0
 16 17  2  0  0  0
 16 21  1  0  0  0
 16 31  1  0  0  0
 17 18  1  0  0  0
 17103  1  0  0  0
 18 19  2  0  0  0
 18104  1  0  0  0
 19 20  1  0  0  0
 19 24  1  0  0  0
 20 21  2  0  0  0
 20105  1  0  0  0
 21 23  1  0  0  0
 22 28  1  0  0  0
 22 32  2  0  0  0
 26 27  1  0  0  0
 28106  1  0  0  0
 28107  1  0  0  0
 29108  1  0  0  0
 29109  1  0  0  0
 33 34  1  0  0  0
 33 66  1  0  0  0
 33 70  2  0  0  0
 34 36  1  0  0  0
 34 59  1  0  0  0
 34110  1  0  0  0
 35 44  2  0  0  0
 35 45  1  0  0  0
 35 68  1  0  0  0
 36 56  1  0  0  0
 36111  1  0  0  0
 37 39  1  0  0  0
 37 47  1  0  0  0
 37 66  1  0  0  0
 37112  1  0  0  0
 38 43  2  0  0  0
 38 46  1  0  0  0
 38 47  1  0  0  0
 39 64  1  0  0  0
 39 67  2  0  0  0
 40 52  1  0  0  0
 40 53  2  0  0  0
 40 58  1  0  0  0
 41113  1  0  0  0
 41114  1  0  0  0
 41115  1  0  0  0
 41 48  1  0  0  0
 42 43  1  0  0  0
 42 66  1  0  0  0
 42116  1  0  0  0
 42117  1  0  0  0
 43 44  1  0  0  0
 44118  1  0  0  0
 45 46  2  0  0  0
 45119  1  0  0  0
 46120  1  0  0  0
 47121  1  0  0  0
 47122  1  0  0  0
 48 56  1  0  0  0
 48 65  1  0  0  0
 48123  1  0  0  0
 49 50  1  0  0  0
 49 53  1  0  0  0
 49 64  1  0  0  0
 49124  1  0  0  0
 50 51  1  0  0  0
 50125  1  0  0  0
 50126  1  0  0  0
 51 52  1  0  0  0
 51127  1  0  0  0
 51128  1  0  0  0
 52129  1  0  0  0
 52130  1  0  0  0
 53 54  1  0  0  0
 54 55  2  0  0  0
 54131  1  0  0  0
 55 57  1  0  0  0
 55132  1  0  0  0
 56 69  2  0  0  0
 57 58  2  0  0  0
 57133  1  0  0  0
 58134  1  0  0  0
 59 60  1  0  0  0
 59 61  1  0  0  0
 59 62  1  0  0  0
 60135  1  0  0  0
 60136  1  0  0  0
 60137  1  0  0  0
 61138  1  0  0  0
 61139  1  0  0  0
 61140  1  0  0  0
 62141  1  0  0  0
 62142  1  0  0  0
 62143  1  0  0  0
 63 65  1  0  0  0
 63144  1  0  0  0
 63145  1  0  0  0
 63146  1  0  0  0
 64147  1  0  0  0
 65148  1  0  0  0
 68 81  1  0  0  0
 71 73  2  0  0  0
 71 74  1  0  0  0
 71149  1  0  0  0
 72 74  2  0  0  0
 72 75  1  0  0  0
 72150  1  0  0  0
 73 76  1  0  0  0
 73 77  1  0  0  0
 74 85  1  0  0  0
 75 76  2  0  0  0
 75 84  1  0  0  0
 76 89  1  0  0  0
 77 86  1  0  0  0
 77 87  2  0  0  0
 78 81  1  0  0  0
 78 82  1  0  0  0
 78 88  2  0  0  0
 79151  1  0  0  0
 79152  1  0  0  0
 79153  1  0  0  0
 79 83  1  0  0  0
 80 83  1  0  0  0
 80154  1  0  0  0
 80155  1  0  0  0
 80156  1  0  0  0
 81157  1  0  0  0
 81158  1  0  0  0
 82 83  1  0  0  0
 82 86  1  0  0  0
 82159  1  0  0  0
 83160  1  0  0  0
 84161  1  0  0  0
 84162  1  0  0  0
 85163  1  0  0  0
 86164  1  0  0  0
M  ISO  4   1 100  68 101  81 101  85 100
M  END
> <chiral flag>
0

> <version>
0

> <s_m_source_file>
/data/baiqing/PycharmProjects/Reinvent-master-3.2/result/LINK_invent/BTK/process_docking_weight1_custom_product_contain_oxygen_bond_distance_aromatic_linkinvent_7_9_3/rearranged_h_0172.sdf

> <i_m_source_file_index>
85

> <r_mmod_Potential_Energy-OPLS-2005>
-77.6614456176758

> <r_mmod_Stretch_Energy-OPLS-2005>
48.852653503418

> <r_mmod_Bend_Energy-OPLS-2005>
108.909675598145

> <r_mmod_Torsional_Energy-OPLS-2005>
243.066711425781

> <r_mmod_Improper_Torsional_Energy-OPLS-2005>
7.0548415184021

> <r_mmod_Van_der_Waal_Energy-OPLS-2005>
165.965515136719

> <r_mmod_Electrostatic_Energy-OPLS-2005>
-436.230834960938

> <r_mmod_Solvation_Energy-OPLS-2005>
-234.829681396484

> <b_mmod_Minimization_Converged-OPLS-2005>
0

> <r_mmod_RMS_Derivative-OPLS-2005>
1.68834817409515

$$$$
85
                    3D
 Structure written by MMmdl.
158166  0  0  1  0            999 V2000
  -30.6249  -14.8138   20.4285 C   0  0  0  0  0  0
  -30.4274  -12.4969   19.4816 C   0  0  0  0  0  0
  -29.5084  -12.5076   18.2412 C   0  0  0  0  0  0
  -28.0382  -12.3270   18.6609 C   0  0  0  0  0  0
  -27.6352  -13.2472   19.8447 C   0  0  2  0  0  0
  -28.6842  -13.2335   20.9785 C   0  0  0  0  0  0
  -25.2446  -13.8202   20.5716 C   0  0  0  0  0  0
  -24.1774  -13.0412   20.9216 C   0  0  0  0  0  0
  -24.6410  -11.6911   20.8761 C   0  0  0  0  0  0
  -23.9097  -10.4277   21.0412 C   0  0  0  0  0  0
  -24.3639   -9.4188   21.9189 C   0  0  0  0  0  0
  -23.6303   -8.2229   22.0756 C   0  0  0  0  0  0
  -22.4285   -8.0280   21.3545 C   0  0  0  0  0  0
  -21.9927   -9.0256   20.4648 C   0  0  0  0  0  0
  -22.7267  -10.2124   20.3059 C   0  0  0  0  0  0
  -21.6849   -6.0740   22.5285 C   0  0  0  0  0  0
  -21.4013   -6.5640   23.8221 C   0  0  0  0  0  0
  -21.3653   -5.6794   24.9180 C   0  0  0  0  0  0
  -21.6043   -4.3059   24.7228 C   0  0  0  0  0  0
  -21.8821   -3.8150   23.4352 C   0  0  0  0  0  0
  -21.9188   -4.6968   22.3409 C   0  0  0  0  0  0
  -22.7791  -13.5179   21.1877 C   0  0  0  0  0  0
  -22.1651   -4.2155   21.0985 F   0  0  0  0  0  0
  -21.5626   -3.4539   25.7736 F   0  0  0  0  0  0
  -29.9763  -13.5914   20.3799 N   0  0  0  0  0  0
  -26.2920  -12.9469   20.3301 N   0  0  0  0  0  0
  -25.9353  -11.6588   20.5779 N   0  0  0  0  0  0
  -22.0451  -12.8173   22.0444 N   0  0  0  0  0  0
  -25.3951  -15.1935   20.4178 N   0  0  0  0  0  0
  -31.8261  -14.8303   20.1527 O   0  0  0  0  0  0
  -21.6639   -6.8885   21.4247 O   0  0  0  0  0  0
  -22.3468  -14.5483   20.6722 O   0  0  0  0  0  0
  -24.6363  -31.8522   23.1959 C   0  0  0  0  0  0
  -25.9176  -32.4737   23.8317 C   0  0  1  0  0  0
  -27.2191  -27.2267   20.1312 C   0  0  0  0  0  0
  -25.5967  -33.8537   24.2245 N   0  0  0  0  0  0
  -23.4362  -30.4740   21.5390 C   0  0  2  0  0  0
  -24.8893  -28.9226   20.1018 C   0  0  0  0  0  0
  -22.7535  -29.4580   22.4883 C   0  0  0  0  0  0
  -18.0296  -28.1390   22.8482 C   0  0  0  0  0  0
  -24.1489  -36.7261   23.2637 C   0  0  0  0  0  0
  -25.9868  -30.7529   21.3845 C   0  0  0  0  0  0
  -26.0628  -29.3740   20.7226 C   0  0  0  0  0  0
  -27.2335  -28.5374   20.7315 C   0  0  0  0  0  0
  -26.0310  -26.8677   19.4580 C   0  0  0  0  0  0
  -24.8807  -27.6787   19.4552 C   0  0  0  0  0  0
  -23.6582  -29.8092   20.1549 C   0  0  0  0  0  0
  -25.4117  -36.3048   24.0327 C   0  0  1  0  0  0
  -20.5907  -28.3705   23.1252 C   0  0  2  0  0  0
  -20.6782  -26.9417   22.5400 C   0  0  0  0  0  0
  -19.5751  -26.6380   21.5208 C   0  0  0  0  0  0
  -18.1934  -26.7933   22.1622 C   0  0  0  0  0  0
  -19.1555  -28.8865   23.2858 C   0  0  0  0  0  0
  -18.9476  -30.1468   23.8870 C   0  0  0  0  0  0
  -17.6474  -30.6589   24.0556 C   0  0  0  0  0  0
  -25.9064  -34.9426   23.5082 C   0  0  0  0  0  0
  -16.5362  -29.9082   23.6342 C   0  0  0  0  0  0
  -16.7284  -28.6502   23.0361 C   0  0  0  0  0  0
  -26.4529  -31.6570   25.0721 C   0  0  0  0  0  0
  -25.3744  -31.3748   26.1438 C   0  0  0  0  0  0
  -27.0378  -30.2972   24.6245 C   0  0  0  0  0  0
  -27.6069  -32.4324   25.7503 C   0  0  0  0  0  0
  -27.5576  -37.1784   24.8465 C   0  0  0  0  0  0
  -21.4235  -29.3046   22.3634 N   0  0  0  0  0  0
  -26.4279  -37.3760   23.9420 N   0  0  0  0  0  0
  -24.7052  -31.0452   22.0952 N   0  0  0  0  0  0
  -23.4212  -28.8115   23.2994 O   0  0  0  0  0  0
  -28.2169  -26.2122   20.2255 O   0  0  0  0  0  0
  -26.5618  -34.8910   22.4637 O   0  0  0  0  0  0
  -23.5502  -32.1359   23.7230 O   0  0  0  0  0  0
  -32.0353  -19.1657   20.1946 C   0  0  0  0  0  0
  -31.1406  -20.2473   20.2471 C   0  0  0  0  0  0
  -31.6039  -17.8320   20.3052 C   0  0  0  0  0  0
  -29.3135  -18.6418   20.5275 C   0  0  0  0  0  0
  -29.7521  -20.0619   20.4166 C   0  0  0  0  0  0
  -30.2415  -17.4816   20.4633 C   0  0  0  0  0  0
  -27.7561  -24.9811   20.8062 C   0  0  0  0  0  0
  -27.8576  -18.3174   20.6346 C   0  0  0  0  0  0
  -28.0398  -23.5997   20.8507 C   0  0  0  0  0  0
  -29.1062  -22.6909   20.2677 C   0  0  0  0  0  0
  -25.8817  -19.9251   20.7689 C   0  0  0  0  0  0
  -26.9743  -19.1718   21.5473 C   0  0  0  0  0  0
  -28.9146  -21.3176   20.5289 N   0  0  0  0  0  0
  -29.8849  -16.0035   20.5675 N   0  0  0  0  0  0
  -27.3461  -17.3503   20.0624 O   0  0  0  0  0  0
  -30.0581  -23.1052   19.6053 O   0  0  0  0  0  0
  -27.1562  -22.9164   21.6019 O   0  0  0  0  0  0
  -31.4673  -12.6116   19.1715 H   0  0  0  0  0  0
  -30.3751  -11.5349   19.9940 H   0  0  0  0  0  0
  -29.7981  -11.7170   17.5476 H   0  0  0  0  0  0
  -29.6257  -13.4482   17.7006 H   0  0  0  0  0  0
  -27.9088  -11.2831   18.9479 H   0  0  0  0  0  0
  -27.3761  -12.4907   17.8100 H   0  0  0  0  0  0
  -27.6094  -14.2596   19.4397 H   0  0  0  0  0  0
  -28.7361  -12.2534   21.4552 H   0  0  0  0  0  0
  -28.4129  -13.9438   21.7612 H   0  0  0  0  0  0
  -25.2778   -9.5653   22.4773 H   0  0  0  0  0  0
  -24.0006   -7.4609   22.7469 H   0  0  0  0  0  0
  -21.0860   -8.8783   19.8948 H   0  0  0  0  0  0
  -22.3735  -10.9669   19.6176 H   0  0  0  0  0  0
  -21.2010   -7.6149   23.9726 H   0  0  0  0  0  0
  -21.1467   -6.0522   25.9084 H   0  0  0  0  0  0
  -22.0607   -2.7614   23.2852 H   0  0  0  0  0  0
  -22.4083  -11.9841   22.4835 H   0  0  0  0  0  0
  -21.1074  -13.1206   22.2663 H   0  0  0  0  0  0
  -24.6057  -15.8187   20.5298 H   0  0  0  0  0  0
  -26.2389  -15.6892   20.1402 H   0  0  0  0  0  0
  -26.7242  -32.5381   23.1055 H   0  0  0  0  0  0
  -25.0158  -33.9663   25.0424 H   0  0  0  0  0  0
  -22.7347  -31.2980   21.3909 H   0  0  0  0  0  0
  -23.3761  -35.9580   23.3284 H   0  0  0  0  0  0
  -24.3584  -36.8897   22.2053 H   0  0  0  0  0  0
  -23.7225  -37.6454   23.6669 H   0  0  0  0  0  0
  -26.1337  -31.5147   20.6176 H   0  0  0  0  0  0
  -26.8599  -30.8008   22.0235 H   0  0  0  0  0  0
  -28.1216  -28.8651   21.2533 H   0  0  0  0  0  0
  -25.9728  -25.9050   18.9702 H   0  0  0  0  0  0
  -23.9859  -27.3290   18.9586 H   0  0  0  0  0  0
  -23.7801  -30.5863   19.3993 H   0  0  0  0  0  0
  -22.7771  -29.2414   19.8496 H   0  0  0  0  0  0
  -25.1296  -36.1884   25.0819 H   0  0  0  0  0  0
  -21.0005  -28.3285   24.1371 H   0  0  0  0  0  0
  -20.5677  -26.2316   23.3610 H   0  0  0  0  0  0
  -21.6647  -26.7429   22.1195 H   0  0  0  0  0  0
  -19.6908  -25.6286   21.1248 H   0  0  0  0  0  0
  -19.6690  -27.3180   20.6729 H   0  0  0  0  0  0
  -17.4206  -26.6683   21.4023 H   0  0  0  0  0  0
  -18.0331  -26.0077   22.9019 H   0  0  0  0  0  0
  -19.7954  -30.7292   24.2220 H   0  0  0  0  0  0
  -17.5032  -31.6267   24.5155 H   0  0  0  0  0  0
  -15.5362  -30.2972   23.7685 H   0  0  0  0  0  0
  -15.8687  -28.0811   22.7089 H   0  0  0  0  0  0
  -24.5912  -30.7101   25.7778 H   0  0  0  0  0  0
  -24.8948  -32.2927   26.4841 H   0  0  0  0  0  0
  -25.8056  -30.8943   27.0228 H   0  0  0  0  0  0
  -26.2971  -29.6712   24.1250 H   0  0  0  0  0  0
  -27.4015  -29.7250   25.4792 H   0  0  0  0  0  0
  -27.8877  -30.4221   23.9530 H   0  0  0  0  0  0
  -27.2669  -33.3651   26.2017 H   0  0  0  0  0  0
  -28.3916  -32.6835   25.0356 H   0  0  0  0  0  0
  -28.0689  -31.8484   26.5475 H   0  0  0  0  0  0
  -28.2575  -38.0101   24.7535 H   0  0  0  0  0  0
  -28.1086  -36.2628   24.6255 H   0  0  0  0  0  0
  -27.2298  -37.1395   25.8869 H   0  0  0  0  0  0
  -20.9426  -29.8778   21.6844 H   0  0  0  0  0  0
  -26.0150  -38.2827   24.1439 H   0  0  0  0  0  0
  -33.0911  -19.3648   20.0736 H   0  0  0  0  0  0
  -31.5609  -21.2393   20.1744 H   0  0  0  0  0  0
  -32.3802  -17.0862   20.2639 H   0  0  0  0  0  0
  -26.8947  -25.2497   21.4051 H   0  0  0  0  0  0
  -25.2775  -20.5331   21.4426 H   0  0  0  0  0  0
  -25.2099  -19.2331   20.2596 H   0  0  0  0  0  0
  -26.3013  -20.5883   20.0123 H   0  0  0  0  0  0
  -27.5841  -19.8562   22.1346 H   0  0  0  0  0  0
  -26.5042  -18.5035   22.2684 H   0  0  0  0  0  0
  -28.0160  -21.1993   20.9795 H   0  0  0  0  0  0
  -28.8978  -15.8271   20.6899 H   0  0  0  0  0  0
  -26.5240  -23.5357   21.9409 H   0  0  0  0  0  0
  1 25  1  0  0  0
  1 30  2  0  0  0
  1 84  1  0  0  0
  2  3  1  0  0  0
  2 25  1  0  0  0
  2 88  1  0  0  0
  2 89  1  0  0  0
  3  4  1  0  0  0
  3 90  1  0  0  0
  3 91  1  0  0  0
  4  5  1  0  0  0
  4 92  1  0  0  0
  4 93  1  0  0  0
  5  6  1  0  0  0
  5 26  1  0  0  0
  5 94  1  0  0  0
  6 25  1  0  0  0
  6 95  1  0  0  0
  6 96  1  0  0  0
  7  8  2  0  0  0
  7 26  1  0  0  0
  7 29  1  0  0  0
  8  9  1  0  0  0
  8 22  1  0  0  0
  9 10  1  0  0  0
  9 27  2  0  0  0
 10 11  2  0  0  0
 10 15  1  0  0  0
 11 12  1  0  0  0
 11 97  1  0  0  0
 12 13  2  0  0  0
 12 98  1  0  0  0
 13 14  1  0  0  0
 13 31  1  0  0  0
 14 15  2  0  0  0
 14 99  1  0  0  0
 15100  1  0  0  0
 16 17  2  0  0  0
 16 21  1  0  0  0
 16 31  1  0  0  0
 17 18  1  0  0  0
 17101  1  0  0  0
 18 19  2  0  0  0
 18102  1  0  0  0
 19 20  1  0  0  0
 19 24  1  0  0  0
 20 21  2  0  0  0
 20103  1  0  0  0
 21 23  1  0  0  0
 22 28  1  0  0  0
 22 32  2  0  0  0
 26 27  1  0  0  0
 28104  1  0  0  0
 28105  1  0  0  0
 29106  1  0  0  0
 29107  1  0  0  0
 33 34  1  0  0  0
 33 66  1  0  0  0
 33 70  2  0  0  0
 34 36  1  0  0  0
 34 59  1  0  0  0
 34108  1  0  0  0
 35 44  2  0  0  0
 35 45  1  0  0  0
 35 68  1  0  0  0
 36 56  1  0  0  0
 36109  1  0  0  0
 37 39  1  0  0  0
 37 47  1  0  0  0
 37 66  1  0  0  0
 37110  1  0  0  0
 38 43  2  0  0  0
 38 46  1  0  0  0
 38 47  1  0  0  0
 39 64  1  0  0  0
 39 67  2  0  0  0
 40 52  1  0  0  0
 40 53  2  0  0  0
 40 58  1  0  0  0
 41111  1  0  0  0
 41112  1  0  0  0
 41113  1  0  0  0
 41 48  1  0  0  0
 42 43  1  0  0  0
 42 66  1  0  0  0
 42114  1  0  0  0
 42115  1  0  0  0
 43 44  1  0  0  0
 44116  1  0  0  0
 45 46  2  0  0  0
 45117  1  0  0  0
 46118  1  0  0  0
 47119  1  0  0  0
 47120  1  0  0  0
 48 56  1  0  0  0
 48 65  1  0  0  0
 48121  1  0  0  0
 49 50  1  0  0  0
 49 53  1  0  0  0
 49 64  1  0  0  0
 49122  1  0  0  0
 50 51  1  0  0  0
 50123  1  0  0  0
 50124  1  0  0  0
 51 52  1  0  0  0
 51125  1  0  0  0
 51126  1  0  0  0
 52127  1  0  0  0
 52128  1  0  0  0
 53 54  1  0  0  0
 54 55  2  0  0  0
 54129  1  0  0  0
 55 57  1  0  0  0
 55130  1  0  0  0
 56 69  2  0  0  0
 57 58  2  0  0  0
 57131  1  0  0  0
 58132  1  0  0  0
 59 60  1  0  0  0
 59 61  1  0  0  0
 59 62  1  0  0  0
 60133  1  0  0  0
 60134  1  0  0  0
 60135  1  0  0  0
 61136  1  0  0  0
 61137  1  0  0  0
 61138  1  0  0  0
 62139  1  0  0  0
 62140  1  0  0  0
 62141  1  0  0  0
 63 65  1  0  0  0
 63142  1  0  0  0
 63143  1  0  0  0
 63144  1  0  0  0
 64145  1  0  0  0
 65146  1  0  0  0
 68 77  1  0  0  0
 71 72  2  0  0  0
 71 73  1  0  0  0
 71147  1  0  0  0
 72 75  1  0  0  0
 72148  1  0  0  0
 73 76  2  0  0  0
 73149  1  0  0  0
 74 75  2  0  0  0
 74 76  1  0  0  0
 74 78  1  0  0  0
 75 83  1  0  0  0
 76 84  1  0  0  0
 77 79  2  0  0  0
 77150  1  0  0  0
 78 82  1  0  0  0
 78 85  2  0  0  0
 79 80  1  0  0  0
 79 87  1  0  0  0
 80 83  1  0  0  0
 80 86  2  0  0  0
 81 82  1  0  0  0
 81151  1  0  0  0
 81152  1  0  0  0
 81153  1  0  0  0
 82154  1  0  0  0
 82155  1  0  0  0
 83156  1  0  0  0
 84157  1  0  0  0
 87158  1  0  0  0
M  ISO  4   1 100  68 101  77 101  84 100
M  END
> <chiral flag>
0

> <version>
0

> <s_m_source_file>
/data/baiqing/PycharmProjects/Reinvent-master-3.2/result/LINK_invent/BTK/process_docking_weight1_custom_product_contain_oxygen_bond_distance_aromatic_linkinvent_7_9_3/rearranged_h_0172.sdf

> <i_m_source_file_index>
86

> <r_mmod_Potential_Energy-OPLS-2005>
428.880249023438

> <r_mmod_Stretch_Energy-OPLS-2005>
176.770202636719

> <r_mmod_Bend_Energy-OPLS-2005>
256.089141845703

> <r_mmod_Torsional_Energy-OPLS-2005>
257.202850341797

> <r_mmod_Improper_Torsional_Energy-OPLS-2005>
5.55960702896118

> <r_mmod_Van_der_Waal_Energy-OPLS-2005>
154.838150024414

> <r_mmod_Electrostatic_Energy-OPLS-2005>
-323.52978515625

> <r_mmod_Solvation_Energy-OPLS-2005>
-225.271072387695

> <b_mmod_Minimization_Converged-OPLS-2005>
0

> <r_mmod_RMS_Derivative-OPLS-2005>
0.983016431331635

$$$$
86
                    3D
 Structure written by MMmdl.
150158  0  0  1  0            999 V2000
  -30.5904  -14.8018   20.4190 C   0  0  0  0  0  0
  -30.4294  -12.4828   19.4935 C   0  0  0  0  0  0
  -29.5133  -12.5065   18.2495 C   0  0  0  0  0  0
  -28.0413  -12.3215   18.6610 C   0  0  0  0  0  0
  -27.6363  -13.2360   19.8467 C   0  0  2  0  0  0
  -28.6774  -13.2035   20.9867 C   0  0  0  0  0  0
  -25.2485  -13.8208   20.5701 C   0  0  0  0  0  0
  -24.1777  -13.0445   20.9208 C   0  0  0  0  0  0
  -24.6373  -11.6924   20.8750 C   0  0  0  0  0  0
  -23.9052  -10.4292   21.0409 C   0  0  0  0  0  0
  -24.3613   -9.4211   21.9187 C   0  0  0  0  0  0
  -23.6292   -8.2246   22.0757 C   0  0  0  0  0  0
  -22.4275   -8.0279   21.3542 C   0  0  0  0  0  0
  -21.9904   -9.0248   20.4649 C   0  0  0  0  0  0
  -22.7223  -10.2131   20.3055 C   0  0  0  0  0  0
  -21.6861   -6.0734   22.5278 C   0  0  0  0  0  0
  -21.4012   -6.5639   23.8206 C   0  0  0  0  0  0
  -21.3661   -5.6796   24.9173 C   0  0  0  0  0  0
  -21.6037   -4.3056   24.7226 C   0  0  0  0  0  0
  -21.8818   -3.8143   23.4349 C   0  0  0  0  0  0
  -21.9190   -4.6959   22.3403 C   0  0  0  0  0  0
  -22.7800  -13.5219   21.1873 C   0  0  0  0  0  0
  -22.1662   -4.2146   21.0982 F   0  0  0  0  0  0
  -21.5632   -3.4539   25.7742 F   0  0  0  0  0  0
  -29.9761  -13.5638   20.4057 N   0  0  0  0  0  0
  -26.2900  -12.9417   20.3263 N   0  0  0  0  0  0
  -25.9302  -11.6561   20.5755 N   0  0  0  0  0  0
  -22.0449  -12.8210   22.0444 N   0  0  0  0  0  0
  -25.4169  -15.1935   20.4118 N   0  0  0  0  0  0
  -31.7854  -14.8699   20.1150 O   0  0  0  0  0  0
  -21.6638   -6.8878   21.4239 O   0  0  0  0  0  0
  -22.3477  -14.5520   20.6722 O   0  0  0  0  0  0
  -24.6336  -31.8513   23.1934 C   0  0  0  0  0  0
  -25.9151  -32.4725   23.8298 C   0  0  1  0  0  0
  -27.2203  -27.2278   20.1228 C   0  0  0  0  0  0
  -25.5930  -33.8532   24.2223 N   0  0  0  0  0  0
  -23.4330  -30.4726   21.5370 C   0  0  2  0  0  0
  -24.8797  -28.9118   20.1046 C   0  0  0  0  0  0
  -22.7529  -29.4582   22.4878 C   0  0  0  0  0  0
  -18.0299  -28.1399   22.8478 C   0  0  0  0  0  0
  -24.1488  -36.7275   23.2642 C   0  0  0  0  0  0
  -25.9814  -30.7511   21.3796 C   0  0  0  0  0  0
  -26.0514  -29.3718   20.7179 C   0  0  0  0  0  0
  -27.2203  -28.5401   20.7178 C   0  0  0  0  0  0
  -26.0224  -26.8407   19.4831 C   0  0  0  0  0  0
  -24.8709  -27.6559   19.4782 C   0  0  0  0  0  0
  -23.6539  -29.8045   20.1540 C   0  0  0  0  0  0
  -25.4117  -36.3049   24.0318 C   0  0  1  0  0  0
  -20.5906  -28.3715   23.1249 C   0  0  2  0  0  0
  -20.6785  -26.9422   22.5409 C   0  0  0  0  0  0
  -19.5755  -26.6383   21.5221 C   0  0  0  0  0  0
  -18.1939  -26.7938   22.1628 C   0  0  0  0  0  0
  -19.1555  -28.8875   23.2857 C   0  0  0  0  0  0
  -18.9471  -30.1476   23.8874 C   0  0  0  0  0  0
  -17.6474  -30.6592   24.0572 C   0  0  0  0  0  0
  -25.9055  -34.9425   23.5076 C   0  0  0  0  0  0
  -16.5364  -29.9093   23.6328 C   0  0  0  0  0  0
  -16.7289  -28.6514   23.0345 C   0  0  0  0  0  0
  -26.4511  -31.6573   25.0715 C   0  0  0  0  0  0
  -25.3729  -31.3764   26.1440 C   0  0  0  0  0  0
  -27.0372  -30.2965   24.6267 C   0  0  0  0  0  0
  -27.6044  -32.4343   25.7500 C   0  0  0  0  0  0
  -27.5568  -37.1794   24.8468 C   0  0  0  0  0  0
  -21.4232  -29.3046   22.3632 N   0  0  0  0  0  0
  -26.4288  -37.3751   23.9402 N   0  0  0  0  0  0
  -24.7018  -31.0446   22.0923 N   0  0  0  0  0  0
  -23.4217  -28.8128   23.2998 O   0  0  0  0  0  0
  -28.3037  -26.3133   20.2259 O   0  0  0  0  0  0
  -26.5643  -34.8917   22.4655 O   0  0  0  0  0  0
  -23.5475  -32.1356   23.7199 O   0  0  0  0  0  0
  -29.3879  -18.6067   20.5267 C   0  0  0  0  0  0
  -30.2924  -19.8983   18.6751 C   0  0  0  0  0  0
  -30.7363  -17.4852   18.8409 C   0  0  0  0  0  0
  -29.5245  -19.9161   19.8631 C   0  0  0  0  0  0
  -29.9874  -17.3525   20.0341 C   0  0  0  0  0  0
  -30.8833  -18.7201   18.1799 C   0  0  0  0  0  0
  -28.2903  -24.9706   19.7103 C   0  0  0  0  0  0
  -28.6338  -23.7696   20.3436 C   0  0  0  0  0  0
  -28.7126  -22.4230   19.6306 C   0  0  0  0  0  0
  -29.0302  -21.2582   20.3473 N   0  0  0  0  0  0
  -29.8277  -15.9656   20.6077 N   0  0  0  0  0  0
  -28.4825  -22.3386   18.4221 O   0  0  0  0  0  0
  -28.9419  -23.8018   21.6466 O   0  0  0  0  0  0
  -31.6123  -18.7757   17.0401 F   0  0  0  0  0  0
  -31.4713  -12.6029   19.1930 H   0  0  0  0  0  0
  -30.3765  -11.5155   19.9954 H   0  0  0  0  0  0
  -29.8091  -11.7253   17.5482 H   0  0  0  0  0  0
  -29.6306  -13.4537   17.7208 H   0  0  0  0  0  0
  -27.9103  -11.2764   18.9419 H   0  0  0  0  0  0
  -27.3822  -12.4907   17.8082 H   0  0  0  0  0  0
  -27.6220  -14.2502   19.4464 H   0  0  0  0  0  0
  -28.7223  -12.2151   21.4471 H   0  0  0  0  0  0
  -28.3989  -13.9000   21.7792 H   0  0  0  0  0  0
  -25.2758   -9.5697   22.4757 H   0  0  0  0  0  0
  -24.0005   -7.4639   22.7476 H   0  0  0  0  0  0
  -21.0843   -8.8751   19.8960 H   0  0  0  0  0  0
  -22.3669  -10.9667   19.6162 H   0  0  0  0  0  0
  -21.2001   -7.6146   23.9711 H   0  0  0  0  0  0
  -21.1489   -6.0527   25.9078 H   0  0  0  0  0  0
  -22.0595   -2.7604   23.2847 H   0  0  0  0  0  0
  -22.4078  -11.9870   22.4825 H   0  0  0  0  0  0
  -21.1061  -13.1227   22.2652 H   0  0  0  0  0  0
  -24.6478  -15.8458   20.5185 H   0  0  0  0  0  0
  -26.2613  -15.6335   20.0688 H   0  0  0  0  0  0
  -26.7234  -32.5347   23.1046 H   0  0  0  0  0  0
  -25.0067  -33.9670   25.0356 H   0  0  0  0  0  0
  -22.7305  -31.2949   21.3874 H   0  0  0  0  0  0
  -23.3739  -35.9619   23.3321 H   0  0  0  0  0  0
  -24.3559  -36.8883   22.2051 H   0  0  0  0  0  0
  -23.7274  -37.6493   23.6667 H   0  0  0  0  0  0
  -26.1298  -31.5110   20.6116 H   0  0  0  0  0  0
  -26.8561  -30.7953   22.0175 H   0  0  0  0  0  0
  -28.1143  -28.8815   21.2201 H   0  0  0  0  0  0
  -25.9423  -25.8723   19.0117 H   0  0  0  0  0  0
  -23.9702  -27.2965   19.0000 H   0  0  0  0  0  0
  -23.7845  -30.5798   19.3995 H   0  0  0  0  0  0
  -22.7711  -29.2430   19.8449 H   0  0  0  0  0  0
  -25.1305  -36.1878   25.0812 H   0  0  0  0  0  0
  -20.9998  -28.3302   24.1370 H   0  0  0  0  0  0
  -20.5676  -26.2330   23.3636 H   0  0  0  0  0  0
  -21.6653  -26.7433   22.1202 H   0  0  0  0  0  0
  -19.6911  -25.6294   21.1248 H   0  0  0  0  0  0
  -19.6679  -27.3194   20.6758 H   0  0  0  0  0  0
  -17.4206  -26.6692   21.4031 H   0  0  0  0  0  0
  -18.0314  -26.0096   22.9030 H   0  0  0  0  0  0
  -19.7953  -30.7304   24.2209 H   0  0  0  0  0  0
  -17.5028  -31.6254   24.5209 H   0  0  0  0  0  0
  -15.5360  -30.2996   23.7660 H   0  0  0  0  0  0
  -15.8693  -28.0841   22.7053 H   0  0  0  0  0  0
  -24.5894  -30.7111   25.7796 H   0  0  0  0  0  0
  -24.8936  -32.2955   26.4821 H   0  0  0  0  0  0
  -25.8023  -30.8985   27.0252 H   0  0  0  0  0  0
  -26.2979  -29.6697   24.1265 H   0  0  0  0  0  0
  -27.3999  -29.7243   25.4824 H   0  0  0  0  0  0
  -27.8879  -30.4213   23.9566 H   0  0  0  0  0  0
  -27.2624  -33.3648   26.2052 H   0  0  0  0  0  0
  -28.3871  -32.6901   25.0346 H   0  0  0  0  0  0
  -28.0717  -31.8506   26.5450 H   0  0  0  0  0  0
  -28.2603  -38.0070   24.7460 H   0  0  0  0  0  0
  -28.1047  -36.2592   24.6352 H   0  0  0  0  0  0
  -27.2279  -37.1515   25.8873 H   0  0  0  0  0  0
  -20.9426  -29.8785   21.6843 H   0  0  0  0  0  0
  -26.0155  -38.2821   24.1380 H   0  0  0  0  0  0
  -28.8090  -18.5656   21.4391 H   0  0  0  0  0  0
  -30.4709  -20.8086   18.1217 H   0  0  0  0  0  0
  -31.2021  -16.6255   18.3817 H   0  0  0  0  0  0
  -28.0174  -24.9774   18.6644 H   0  0  0  0  0  0
  -29.0035  -21.3847   21.3503 H   0  0  0  0  0  0
  -28.9424  -15.7963   21.0613 H   0  0  0  0  0  0
  -28.8605  -24.7058   21.9236 H   0  0  0  0  0  0
  1 25  1  0  0  0
  1 30  2  0  0  0
  1 81  1  0  0  0
  2  3  1  0  0  0
  2 25  1  0  0  0
  2 85  1  0  0  0
  2 86  1  0  0  0
  3  4  1  0  0  0
  3 87  1  0  0  0
  3 88  1  0  0  0
  4  5  1  0  0  0
  4 89  1  0  0  0
  4 90  1  0  0  0
  5  6  1  0  0  0
  5 26  1  0  0  0
  5 91  1  0  0  0
  6 25  1  0  0  0
  6 92  1  0  0  0
  6 93  1  0  0  0
  7  8  2  0  0  0
  7 26  1  0  0  0
  7 29  1  0  0  0
  8  9  1  0  0  0
  8 22  1  0  0  0
  9 10  1  0  0  0
  9 27  2  0  0  0
 10 11  2  0  0  0
 10 15  1  0  0  0
 11 12  1  0  0  0
 11 94  1  0  0  0
 12 13  2  0  0  0
 12 95  1  0  0  0
 13 14  1  0  0  0
 13 31  1  0  0  0
 14 15  2  0  0  0
 14 96  1  0  0  0
 15 97  1  0  0  0
 16 17  2  0  0  0
 16 21  1  0  0  0
 16 31  1  0  0  0
 17 18  1  0  0  0
 17 98  1  0  0  0
 18 19  2  0  0  0
 18 99  1  0  0  0
 19 20  1  0  0  0
 19 24  1  0  0  0
 20 21  2  0  0  0
 20100  1  0  0  0
 21 23  1  0  0  0
 22 28  1  0  0  0
 22 32  2  0  0  0
 26 27  1  0  0  0
 28101  1  0  0  0
 28102  1  0  0  0
 29103  1  0  0  0
 29104  1  0  0  0
 33 34  1  0  0  0
 33 66  1  0  0  0
 33 70  2  0  0  0
 34 36  1  0  0  0
 34 59  1  0  0  0
 34105  1  0  0  0
 35 44  2  0  0  0
 35 45  1  0  0  0
 35 68  1  0  0  0
 36 56  1  0  0  0
 36106  1  0  0  0
 37 39  1  0  0  0
 37 47  1  0  0  0
 37 66  1  0  0  0
 37107  1  0  0  0
 38 43  2  0  0  0
 38 46  1  0  0  0
 38 47  1  0  0  0
 39 64  1  0  0  0
 39 67  2  0  0  0
 40 52  1  0  0  0
 40 53  2  0  0  0
 40 58  1  0  0  0
 41108  1  0  0  0
 41109  1  0  0  0
 41110  1  0  0  0
 41 48  1  0  0  0
 42 43  1  0  0  0
 42 66  1  0  0  0
 42111  1  0  0  0
 42112  1  0  0  0
 43 44  1  0  0  0
 44113  1  0  0  0
 45 46  2  0  0  0
 45114  1  0  0  0
 46115  1  0  0  0
 47116  1  0  0  0
 47117  1  0  0  0
 48 56  1  0  0  0
 48 65  1  0  0  0
 48118  1  0  0  0
 49 50  1  0  0  0
 49 53  1  0  0  0
 49 64  1  0  0  0
 49119  1  0  0  0
 50 51  1  0  0  0
 50120  1  0  0  0
 50121  1  0  0  0
 51 52  1  0  0  0
 51122  1  0  0  0
 51123  1  0  0  0
 52124  1  0  0  0
 52125  1  0  0  0
 53 54  1  0  0  0
 54 55  2  0  0  0
 54126  1  0  0  0
 55 57  1  0  0  0
 55127  1  0  0  0
 56 69  2  0  0  0
 57 58  2  0  0  0
 57128  1  0  0  0
 58129  1  0  0  0
 59 60  1  0  0  0
 59 61  1  0  0  0
 59 62  1  0  0  0
 60130  1  0  0  0
 60131  1  0  0  0
 60132  1  0  0  0
 61133  1  0  0  0
 61134  1  0  0  0
 61135  1  0  0  0
 62136  1  0  0  0
 62137  1  0  0  0
 62138  1  0  0  0
 63 65  1  0  0  0
 63139  1  0  0  0
 63140  1  0  0  0
 63141  1  0  0  0
 64142  1  0  0  0
 65143  1  0  0  0
 68 77  1  0  0  0
 71 74  2  0  0  0
 71 75  1  0  0  0
 71144  1  0  0  0
 72 74  1  0  0  0
 72 76  2  0  0  0
 72145  1  0  0  0
 73 75  2  0  0  0
 73 76  1  0  0  0
 73146  1  0  0  0
 74 80  1  0  0  0
 75 81  1  0  0  0
 76 84  1  0  0  0
 77 78  2  0  0  0
 77147  1  0  0  0
 78 79  1  0  0  0
 78 83  1  0  0  0
 79 80  1  0  0  0
 79 82  2  0  0  0
 80148  1  0  0  0
 81149  1  0  0  0
 83150  1  0  0  0
M  ISO  4   1 100  68 101  77 101  81 100
M  END
> <chiral flag>
0

> <version>
0

> <s_m_source_file>
/data/baiqing/PycharmProjects/Reinvent-master-3.2/result/LINK_invent/BTK/process_docking_weight1_custom_product_contain_oxygen_bond_distance_aromatic_linkinvent_7_9_3/rearranged_h_0172.sdf

> <i_m_source_file_index>
87

> <r_mmod_Potential_Energy-OPLS-2005>
216.617080688477

> <r_mmod_Stretch_Energy-OPLS-2005>
154.33869934082

> <r_mmod_Bend_Energy-OPLS-2005>
168.503341674805

> <r_mmod_Torsional_Energy-OPLS-2005>
239.565368652344

> <r_mmod_Improper_Torsional_Energy-OPLS-2005>
5.22919082641602

> <r_mmod_Van_der_Waal_Energy-OPLS-2005>
142.711944580078

> <r_mmod_Electrostatic_Energy-OPLS-2005>
-380.899383544922

> <r_mmod_Solvation_Energy-OPLS-2005>
-224.927444458008

> <b_mmod_Minimization_Converged-OPLS-2005>
0

> <r_mmod_RMS_Derivative-OPLS-2005>
2.0337073802948

$$$$
87
                    3D
 Structure written by MMmdl.
153161  0  0  1  0            999 V2000
  -30.5866  -14.7998   20.4897 C   0  0  0  0  0  0
  -30.4328  -12.5100   19.4492 C   0  0  0  0  0  0
  -29.4991  -12.5190   18.2230 C   0  0  0  0  0  0
  -28.0353  -12.3084   18.6642 C   0  0  0  0  0  0
  -27.6343  -13.2322   19.8459 C   0  0  2  0  0  0
  -28.6845  -13.1996   20.9731 C   0  0  0  0  0  0
  -25.2476  -13.8188   20.5676 C   0  0  0  0  0  0
  -24.1779  -13.0424   20.9189 C   0  0  0  0  0  0
  -24.6385  -11.6904   20.8721 C   0  0  0  0  0  0
  -23.9054  -10.4285   21.0390 C   0  0  0  0  0  0
  -24.3596   -9.4201   21.9180 C   0  0  0  0  0  0
  -23.6292   -8.2233   22.0748 C   0  0  0  0  0  0
  -22.4278   -8.0255   21.3539 C   0  0  0  0  0  0
  -21.9893   -9.0217   20.4647 C   0  0  0  0  0  0
  -22.7209  -10.2109   20.3056 C   0  0  0  0  0  0
  -21.6877   -6.0700   22.5263 C   0  0  0  0  0  0
  -21.4029   -6.5610   23.8183 C   0  0  0  0  0  0
  -21.3662   -5.6771   24.9156 C   0  0  0  0  0  0
  -21.6046   -4.3033   24.7223 C   0  0  0  0  0  0
  -21.8835   -3.8114   23.4343 C   0  0  0  0  0  0
  -21.9203   -4.6926   22.3390 C   0  0  0  0  0  0
  -22.7805  -13.5181   21.1897 C   0  0  0  0  0  0
  -22.1655   -4.2095   21.0977 F   0  0  0  0  0  0
  -21.5649   -3.4523   25.7750 F   0  0  0  0  0  0
  -29.9602  -13.5788   20.3619 N   0  0  0  0  0  0
  -26.2911  -12.9391   20.3311 N   0  0  0  0  0  0
  -25.9317  -11.6532   20.5767 N   0  0  0  0  0  0
  -22.0474  -12.8110   22.0435 N   0  0  0  0  0  0
  -25.4155  -15.1907   20.4036 N   0  0  0  0  0  0
  -31.7946  -14.8828   20.2496 O   0  0  0  0  0  0
  -21.6668   -6.8819   21.4221 O   0  0  0  0  0  0
  -22.3455  -14.5474   20.6757 O   0  0  0  0  0  0
  -24.6354  -31.8467   23.1922 C   0  0  0  0  0  0
  -25.9171  -32.4704   23.8246 C   0  0  1  0  0  0
  -27.2215  -27.2199   20.1171 C   0  0  0  0  0  0
  -25.5961  -33.8515   24.2185 N   0  0  0  0  0  0
  -23.4332  -30.4684   21.5394 C   0  0  2  0  0  0
  -24.8825  -28.9101   20.1010 C   0  0  0  0  0  0
  -22.7500  -29.4538   22.4880 C   0  0  0  0  0  0
  -18.0338  -28.1370   22.8490 C   0  0  0  0  0  0
  -24.1502  -36.7271   23.2644 C   0  0  0  0  0  0
  -25.9823  -30.7422   21.3825 C   0  0  0  0  0  0
  -26.0542  -29.3650   20.7157 C   0  0  0  0  0  0
  -27.2239  -28.5332   20.7081 C   0  0  0  0  0  0
  -26.0190  -26.8321   19.4869 C   0  0  0  0  0  0
  -24.8719  -27.6529   19.4767 C   0  0  0  0  0  0
  -23.6530  -29.8009   20.1547 C   0  0  0  0  0  0
  -25.4133  -36.3050   24.0315 C   0  0  1  0  0  0
  -20.5916  -28.3644   23.1290 C   0  0  2  0  0  0
  -20.6749  -26.9346   22.5463 C   0  0  0  0  0  0
  -19.5770  -26.6367   21.5226 C   0  0  0  0  0  0
  -18.2001  -26.7837   22.1738 C   0  0  0  0  0  0
  -19.1606  -28.8840   23.2869 C   0  0  0  0  0  0
  -18.9528  -30.1467   23.8797 C   0  0  0  0  0  0
  -17.6527  -30.6605   24.0512 C   0  0  0  0  0  0
  -25.9070  -34.9426   23.5058 C   0  0  0  0  0  0
  -16.5426  -29.9067   23.6381 C   0  0  0  0  0  0
  -16.7331  -28.6501   23.0351 C   0  0  0  0  0  0
  -26.4513  -31.6565   25.0679 C   0  0  0  0  0  0
  -25.3705  -31.3760   26.1385 C   0  0  0  0  0  0
  -27.0395  -30.2952   24.6287 C   0  0  0  0  0  0
  -27.6022  -32.4327   25.7470 C   0  0  0  0  0  0
  -27.5582  -37.1805   24.8469 C   0  0  0  0  0  0
  -21.4198  -29.2969   22.3613 N   0  0  0  0  0  0
  -26.4295  -37.3765   23.9407 N   0  0  0  0  0  0
  -24.7021  -31.0398   22.0926 N   0  0  0  0  0  0
  -23.4186  -28.8088   23.2996 O   0  0  0  0  0  0
  -28.3243  -26.3270   20.1977 O   0  0  0  0  0  0
  -26.5661  -34.8903   22.4643 O   0  0  0  0  0  0
  -23.5500  -32.1337   23.7228 O   0  0  0  0  0  0
  -30.1456  -16.4415   22.9204 C   0  0  0  0  0  0
  -30.1948  -17.1587   24.1213 C   0  0  0  0  0  0
  -29.7529  -19.1813   22.8836 C   0  0  0  0  0  0
  -29.6162  -18.5147   21.6269 C   0  0  0  0  0  0
  -29.8806  -17.0330   21.6506 C   0  0  0  0  0  0
  -30.0123  -18.5391   24.0988 C   0  0  0  0  0  0
  -28.9070  -22.2088   20.1738 C   0  0  0  0  0  0
  -29.2401  -19.5604   20.4951 C   0  0  0  0  0  0
  -28.6274  -20.9907   20.8079 C   0  0  0  0  0  0
  -28.3407  -23.6264   20.5476 C   0  0  0  0  0  0
  -28.3734  -24.9298   19.5932 C   0  0  0  0  0  0
  -29.8096  -15.9657   20.6115 N   0  0  0  0  0  0
  -29.4317  -19.2454   19.3175 O   0  0  0  0  0  0
  -27.7992  -23.7837   21.6474 O   0  0  0  0  0  0
  -27.7146  -21.0001   21.7963 O   0  0  0  0  0  0
  -30.0846  -19.2529   25.2511 F   0  0  0  0  0  0
  -31.4674  -12.6560   19.1301 H   0  0  0  0  0  0
  -30.4022  -11.5383   19.9446 H   0  0  0  0  0  0
  -29.7936  -11.7472   17.5116 H   0  0  0  0  0  0
  -29.5929  -13.4711   17.6954 H   0  0  0  0  0  0
  -27.9339  -11.2648   18.9677 H   0  0  0  0  0  0
  -27.3580  -12.4457   17.8218 H   0  0  0  0  0  0
  -27.6107  -14.2438   19.4403 H   0  0  0  0  0  0
  -28.7566  -12.2109   21.4274 H   0  0  0  0  0  0
  -28.4161  -13.8940   21.7720 H   0  0  0  0  0  0
  -25.2731   -9.5687   22.4750 H   0  0  0  0  0  0
  -23.9988   -7.4626   22.7465 H   0  0  0  0  0  0
  -21.0816   -8.8733   19.8946 H   0  0  0  0  0  0
  -22.3654  -10.9636   19.6153 H   0  0  0  0  0  0
  -21.2024   -7.6117   23.9661 H   0  0  0  0  0  0
  -21.1479   -6.0514   25.9046 H   0  0  0  0  0  0
  -22.0619   -2.7569   23.2889 H   0  0  0  0  0  0
  -22.4120  -11.9758   22.4756 H   0  0  0  0  0  0
  -21.1112  -13.1114   22.2736 H   0  0  0  0  0  0
  -24.6432  -15.8378   20.5045 H   0  0  0  0  0  0
  -26.2649  -15.6319   20.0769 H   0  0  0  0  0  0
  -26.7204  -32.5327   23.0941 H   0  0  0  0  0  0
  -25.0048  -33.9622   25.0292 H   0  0  0  0  0  0
  -22.7307  -31.2930   21.3944 H   0  0  0  0  0  0
  -23.3767  -35.9608   23.3310 H   0  0  0  0  0  0
  -24.3567  -36.8896   22.2055 H   0  0  0  0  0  0
  -23.7250  -37.6467   23.6661 H   0  0  0  0  0  0
  -26.1411  -31.5019   20.6167 H   0  0  0  0  0  0
  -26.8502  -30.7777   22.0294 H   0  0  0  0  0  0
  -28.1248  -28.8807   21.1943 H   0  0  0  0  0  0
  -25.9171  -25.8684   19.0169 H   0  0  0  0  0  0
  -23.9716  -27.2922   18.9990 H   0  0  0  0  0  0
  -23.7782  -30.5809   19.3999 H   0  0  0  0  0  0
  -22.7661  -29.2392   19.8489 H   0  0  0  0  0  0
  -25.1333  -36.1876   25.0804 H   0  0  0  0  0  0
  -21.0004  -28.3279   24.1414 H   0  0  0  0  0  0
  -20.5488  -26.2304   23.3719 H   0  0  0  0  0  0
  -21.6624  -26.7229   22.1401 H   0  0  0  0  0  0
  -19.6974  -25.6253   21.1316 H   0  0  0  0  0  0
  -19.6697  -27.3185   20.6758 H   0  0  0  0  0  0
  -17.4172  -26.6410   21.4265 H   0  0  0  0  0  0
  -18.0602  -26.0065   22.9272 H   0  0  0  0  0  0
  -19.7998  -30.7268   24.2187 H   0  0  0  0  0  0
  -17.5130  -31.6262   24.5140 H   0  0  0  0  0  0
  -15.5414  -30.2910   23.7917 H   0  0  0  0  0  0
  -15.8713  -28.0858   22.7058 H   0  0  0  0  0  0
  -24.5847  -30.7162   25.7690 H   0  0  0  0  0  0
  -24.8964  -32.2969   26.4772 H   0  0  0  0  0  0
  -25.7998  -30.8917   27.0162 H   0  0  0  0  0  0
  -26.3028  -29.6622   24.1317 H   0  0  0  0  0  0
  -27.4006  -29.7301   25.4881 H   0  0  0  0  0  0
  -27.8919  -30.4143   23.9599 H   0  0  0  0  0  0
  -27.2561  -33.3591   26.2039 H   0  0  0  0  0  0
  -28.3831  -32.6932   25.0327 H   0  0  0  0  0  0
  -28.0667  -31.8463   26.5399 H   0  0  0  0  0  0
  -28.2631  -38.0074   24.7511 H   0  0  0  0  0  0
  -28.1050  -36.2615   24.6317 H   0  0  0  0  0  0
  -27.2295  -37.1483   25.8868 H   0  0  0  0  0  0
  -20.9373  -29.8664   21.6824 H   0  0  0  0  0  0
  -26.0178  -38.2849   24.1379 H   0  0  0  0  0  0
  -30.2900  -15.3744   23.0222 H   0  0  0  0  0  0
  -30.3744  -16.6522   25.0592 H   0  0  0  0  0  0
  -29.6662  -20.2514   22.9726 H   0  0  0  0  0  0
  -29.6028  -22.1884   19.3481 H   0  0  0  0  0  0
  -27.6010  -24.7977   18.8399 H   0  0  0  0  0  0
  -29.3021  -24.8702   19.0229 H   0  0  0  0  0  0
  -28.8988  -15.8759   20.1913 H   0  0  0  0  0  0
  -27.4482  -21.9048   21.9231 H   0  0  0  0  0  0
  1 25  1  0  0  0
  1 30  2  0  0  0
  1 82  1  0  0  0
  2  3  1  0  0  0
  2 25  1  0  0  0
  2 87  1  0  0  0
  2 88  1  0  0  0
  3  4  1  0  0  0
  3 89  1  0  0  0
  3 90  1  0  0  0
  4  5  1  0  0  0
  4 91  1  0  0  0
  4 92  1  0  0  0
  5  6  1  0  0  0
  5 26  1  0  0  0
  5 93  1  0  0  0
  6 25  1  0  0  0
  6 94  1  0  0  0
  6 95  1  0  0  0
  7  8  2  0  0  0
  7 26  1  0  0  0
  7 29  1  0  0  0
  8  9  1  0  0  0
  8 22  1  0  0  0
  9 10  1  0  0  0
  9 27  2  0  0  0
 10 11  2  0  0  0
 10 15  1  0  0  0
 11 12  1  0  0  0
 11 96  1  0  0  0
 12 13  2  0  0  0
 12 97  1  0  0  0
 13 14  1  0  0  0
 13 31  1  0  0  0
 14 15  2  0  0  0
 14 98  1  0  0  0
 15 99  1  0  0  0
 16 17  2  0  0  0
 16 21  1  0  0  0
 16 31  1  0  0  0
 17 18  1  0  0  0
 17100  1  0  0  0
 18 19  2  0  0  0
 18101  1  0  0  0
 19 20  1  0  0  0
 19 24  1  0  0  0
 20 21  2  0  0  0
 20102  1  0  0  0
 21 23  1  0  0  0
 22 28  1  0  0  0
 22 32  2  0  0  0
 26 27  1  0  0  0
 28103  1  0  0  0
 28104  1  0  0  0
 29105  1  0  0  0
 29106  1  0  0  0
 33 34  1  0  0  0
 33 66  1  0  0  0
 33 70  2  0  0  0
 34 36  1  0  0  0
 34 59  1  0  0  0
 34107  1  0  0  0
 35 44  2  0  0  0
 35 45  1  0  0  0
 35 68  1  0  0  0
 36 56  1  0  0  0
 36108  1  0  0  0
 37 39  1  0  0  0
 37 47  1  0  0  0
 37 66  1  0  0  0
 37109  1  0  0  0
 38 43  2  0  0  0
 38 46  1  0  0  0
 38 47  1  0  0  0
 39 64  1  0  0  0
 39 67  2  0  0  0
 40 52  1  0  0  0
 40 53  2  0  0  0
 40 58  1  0  0  0
 41110  1  0  0  0
 41111  1  0  0  0
 41112  1  0  0  0
 41 48  1  0  0  0
 42 43  1  0  0  0
 42 66  1  0  0  0
 42113  1  0  0  0
 42114  1  0  0  0
 43 44  1  0  0  0
 44115  1  0  0  0
 45 46  2  0  0  0
 45116  1  0  0  0
 46117  1  0  0  0
 47118  1  0  0  0
 47119  1  0  0  0
 48 56  1  0  0  0
 48 65  1  0  0  0
 48120  1  0  0  0
 49 50  1  0  0  0
 49 53  1  0  0  0
 49 64  1  0  0  0
 49121  1  0  0  0
 50 51  1  0  0  0
 50122  1  0  0  0
 50123  1  0  0  0
 51 52  1  0  0  0
 51124  1  0  0  0
 51125  1  0  0  0
 52126  1  0  0  0
 52127  1  0  0  0
 53 54  1  0  0  0
 54 55  2  0  0  0
 54128  1  0  0  0
 55 57  1  0  0  0
 55129  1  0  0  0
 56 69  2  0  0  0
 57 58  2  0  0  0
 57130  1  0  0  0
 58131  1  0  0  0
 59 60  1  0  0  0
 59 61  1  0  0  0
 59 62  1  0  0  0
 60132  1  0  0  0
 60133  1  0  0  0
 60134  1  0  0  0
 61135  1  0  0  0
 61136  1  0  0  0
 61137  1  0  0  0
 62138  1  0  0  0
 62139  1  0  0  0
 62140  1  0  0  0
 63 65  1  0  0  0
 63141  1  0  0  0
 63142  1  0  0  0
 63143  1  0  0  0
 64144  1  0  0  0
 65145  1  0  0  0
 68 81  1  0  0  0
 71 72  2  0  0  0
 71 75  1  0  0  0
 71146  1  0  0  0
 72 76  1  0  0  0
 72147  1  0  0  0
 73 74  1  0  0  0
 73 76  2  0  0  0
 73148  1  0  0  0
 74 75  2  0  0  0
 74 78  1  0  0  0
 75 82  1  0  0  0
 76 86  1  0  0  0
 77 79  2  0  0  0
 77 80  1  0  0  0
 77149  1  0  0  0
 78 79  1  0  0  0
 78 83  2  0  0  0
 79 85  1  0  0  0
 80 81  1  0  0  0
 80 84  2  0  0  0
 81150  1  0  0  0
 81151  1  0  0  0
 82152  1  0  0  0
 85153  1  0  0  0
M  ISO  4   1 100  68 101  81 101  82 100
M  END
> <chiral flag>
0

> <version>
0

> <s_m_source_file>
/data/baiqing/PycharmProjects/Reinvent-master-3.2/result/LINK_invent/BTK/process_docking_weight1_custom_product_contain_oxygen_bond_distance_aromatic_linkinvent_7_9_3/rearranged_h_0172.sdf

> <i_m_source_file_index>
88

> <r_mmod_Potential_Energy-OPLS-2005>
358.409576416016

> <r_mmod_Stretch_Energy-OPLS-2005>
184.697296142578

> <r_mmod_Bend_Energy-OPLS-2005>
225.961639404297

> <r_mmod_Torsional_Energy-OPLS-2005>
250.129852294922

> <r_mmod_Improper_Torsional_Energy-OPLS-2005>
8.39302539825439

> <r_mmod_Van_der_Waal_Energy-OPLS-2005>
152.580184936523

> <r_mmod_Electrostatic_Energy-OPLS-2005>
-339.970886230469

> <r_mmod_Solvation_Energy-OPLS-2005>
-238.040390014648

> <b_mmod_Minimization_Converged-OPLS-2005>
0

> <r_mmod_RMS_Derivative-OPLS-2005>
5.70594453811646

$$$$
88
                    3D
 Structure written by MMmdl.
156164  0  0  1  0            999 V2000
  -30.5994  -14.6883   20.4944 C   0  0  0  0  0  0
  -30.4433  -12.4220   19.4586 C   0  0  0  0  0  0
  -29.5114  -12.5117   18.2287 C   0  0  0  0  0  0
  -28.0359  -12.3375   18.6418 C   0  0  0  0  0  0
  -27.6510  -13.2183   19.8598 C   0  0  2  0  0  0
  -28.6963  -13.0937   20.9910 C   0  0  0  0  0  0
  -25.2555  -13.8174   20.5686 C   0  0  0  0  0  0
  -24.1826  -13.0436   20.9206 C   0  0  0  0  0  0
  -24.6397  -11.6909   20.8748 C   0  0  0  0  0  0
  -23.9067  -10.4289   21.0410 C   0  0  0  0  0  0
  -24.3621   -9.4203   21.9183 C   0  0  0  0  0  0
  -23.6292   -8.2240   22.0753 C   0  0  0  0  0  0
  -22.4275   -8.0277   21.3541 C   0  0  0  0  0  0
  -21.9910   -9.0253   20.4645 C   0  0  0  0  0  0
  -22.7242  -10.2130   20.3056 C   0  0  0  0  0  0
  -21.6845   -6.0737   22.5279 C   0  0  0  0  0  0
  -21.4013   -6.5641   23.8214 C   0  0  0  0  0  0
  -21.3662   -5.6793   24.9175 C   0  0  0  0  0  0
  -21.6043   -4.3054   24.7227 C   0  0  0  0  0  0
  -21.8819   -3.8147   23.4348 C   0  0  0  0  0  0
  -21.9192   -4.6964   22.3404 C   0  0  0  0  0  0
  -22.7846  -13.5219   21.1860 C   0  0  0  0  0  0
  -22.1660   -4.2156   21.0981 F   0  0  0  0  0  0
  -21.5628   -3.4542   25.7740 F   0  0  0  0  0  0
  -30.0058  -13.4514   20.4242 N   0  0  0  0  0  0
  -26.2980  -12.9355   20.3309 N   0  0  0  0  0  0
  -25.9326  -11.6515   20.5767 N   0  0  0  0  0  0
  -22.0492  -12.8215   22.0423 N   0  0  0  0  0  0
  -25.4250  -15.1894   20.4067 N   0  0  0  0  0  0
  -31.7695  -14.8505   20.1347 O   0  0  0  0  0  0
  -21.6632   -6.8878   21.4242 O   0  0  0  0  0  0
  -22.3530  -14.5520   20.6695 O   0  0  0  0  0  0
  -24.6293  -31.8584   23.2017 C   0  0  0  0  0  0
  -25.9129  -32.4769   23.8354 C   0  0  1  0  0  0
  -27.2272  -27.2925   20.1127 C   0  0  0  0  0  0
  -25.5933  -33.8571   24.2282 N   0  0  0  0  0  0
  -23.4239  -30.4832   21.5446 C   0  0  2  0  0  0
  -24.8705  -28.9359   20.1120 C   0  0  0  0  0  0
  -22.7487  -29.4626   22.4925 C   0  0  0  0  0  0
  -18.0285  -28.1392   22.8484 C   0  0  0  0  0  0
  -24.1487  -36.7288   23.2638 C   0  0  0  0  0  0
  -25.9690  -30.7803   21.3780 C   0  0  0  0  0  0
  -26.0412  -29.4055   20.7193 C   0  0  0  0  0  0
  -27.2186  -28.5947   20.7129 C   0  0  0  0  0  0
  -26.0250  -26.8828   19.4870 C   0  0  0  0  0  0
  -24.8658  -27.6804   19.4893 C   0  0  0  0  0  0
  -23.6409  -29.8200   20.1596 C   0  0  0  0  0  0
  -25.4115  -36.3081   24.0329 C   0  0  1  0  0  0
  -20.5890  -28.3699   23.1279 C   0  0  2  0  0  0
  -20.6782  -26.9418   22.5410 C   0  0  0  0  0  0
  -19.5756  -26.6387   21.5214 C   0  0  0  0  0  0
  -18.1934  -26.7936   22.1624 C   0  0  0  0  0  0
  -19.1539  -28.8863   23.2876 C   0  0  0  0  0  0
  -18.9460  -30.1466   23.8894 C   0  0  0  0  0  0
  -17.6459  -30.6593   24.0570 C   0  0  0  0  0  0
  -25.9053  -34.9446   23.5107 C   0  0  0  0  0  0
  -16.5352  -29.9096   23.6326 C   0  0  0  0  0  0
  -16.7273  -28.6512   23.0352 C   0  0  0  0  0  0
  -26.4501  -31.6581   25.0732 C   0  0  0  0  0  0
  -25.3735  -31.3729   26.1462 C   0  0  0  0  0  0
  -27.0342  -30.2999   24.6206 C   0  0  0  0  0  0
  -27.6066  -32.4310   25.7497 C   0  0  0  0  0  0
  -27.5584  -37.1799   24.8461 C   0  0  0  0  0  0
  -21.4196  -29.3052   22.3673 N   0  0  0  0  0  0
  -26.4296  -37.3775   23.9407 N   0  0  0  0  0  0
  -24.6931  -31.0579   22.0977 N   0  0  0  0  0  0
  -23.4205  -28.8165   23.3010 O   0  0  0  0  0  0
  -28.3518  -26.4390   20.1667 O   0  0  0  0  0  0
  -26.5617  -34.8914   22.4669 O   0  0  0  0  0  0
  -23.5451  -32.1388   23.7334 O   0  0  0  0  0  0
  -28.8643  -17.9108   19.9815 C   0  0  0  0  0  0
  -28.7686  -19.3320   19.9617 C   0  0  0  0  0  0
  -30.7813  -18.0290   21.4320 C   0  0  0  0  0  0
  -30.7111  -19.4826   21.3984 C   0  0  0  0  0  0
  -29.8631  -17.2088   20.7052 C   0  0  0  0  0  0
  -29.6681  -20.1732   20.6723 C   0  0  0  0  0  0
  -28.2724  -25.0537   19.8563 C   0  0  0  0  0  0
  -28.9230  -24.0076   20.4786 C   0  0  0  0  0  0
  -28.7516  -22.5722   20.0517 C   0  0  0  0  0  0
  -31.8228  -17.3206   22.2987 C   0  0  0  0  0  0
  -31.7629  -20.2848   22.1994 C   0  0  0  0  0  0
  -29.5229  -21.6511   20.7213 N   0  0  0  0  0  0
  -29.7611  -15.7377   20.8064 N   0  0  0  0  0  0
  -27.9773  -22.2279   19.1569 O   0  0  0  0  0  0
  -29.7397  -24.2745   21.5087 O   0  0  0  0  0  0
  -32.9938  -19.8290   21.9591 F   0  0  0  0  0  0
  -31.8040  -21.5882   21.9245 F   0  0  0  0  0  0
  -31.5087  -20.1745   23.5037 F   0  0  0  0  0  0
  -31.4835  -12.5600   19.1571 H   0  0  0  0  0  0
  -30.3913  -11.4309   19.9111 H   0  0  0  0  0  0
  -29.7867  -11.7563   17.4919 H   0  0  0  0  0  0
  -29.6428  -13.4779   17.7392 H   0  0  0  0  0  0
  -27.8836  -11.2853   18.8852 H   0  0  0  0  0  0
  -27.3772  -12.5508   17.7988 H   0  0  0  0  0  0
  -27.6613  -14.2490   19.5049 H   0  0  0  0  0  0
  -28.7214  -12.0758   21.3820 H   0  0  0  0  0  0
  -28.4347  -13.7303   21.8381 H   0  0  0  0  0  0
  -25.2767   -9.5681   22.4761 H   0  0  0  0  0  0
  -23.9996   -7.4629   22.7473 H   0  0  0  0  0  0
  -21.0837   -8.8779   19.8954 H   0  0  0  0  0  0
  -22.3701  -10.9671   19.6167 H   0  0  0  0  0  0
  -21.2002   -7.6144   23.9720 H   0  0  0  0  0  0
  -21.1487   -6.0523   25.9078 H   0  0  0  0  0  0
  -22.0594   -2.7608   23.2849 H   0  0  0  0  0  0
  -22.4097  -11.9857   22.4789 H   0  0  0  0  0  0
  -21.1118  -13.1258   22.2645 H   0  0  0  0  0  0
  -24.6520  -15.8394   20.5011 H   0  0  0  0  0  0
  -26.2624  -15.6259   20.0451 H   0  0  0  0  0  0
  -26.7197  -32.5429   23.1103 H   0  0  0  0  0  0
  -25.0082  -33.9700   25.0432 H   0  0  0  0  0  0
  -22.7197  -31.3054   21.4003 H   0  0  0  0  0  0
  -23.3752  -35.9615   23.3294 H   0  0  0  0  0  0
  -24.3579  -36.8913   22.2052 H   0  0  0  0  0  0
  -23.7231  -37.6486   23.6662 H   0  0  0  0  0  0
  -26.1065  -31.5438   20.6110 H   0  0  0  0  0  0
  -26.8477  -30.8274   22.0098 H   0  0  0  0  0  0
  -28.1157  -28.9523   21.1988 H   0  0  0  0  0  0
  -25.9304  -25.9252   19.0026 H   0  0  0  0  0  0
  -23.9663  -27.3131   19.0147 H   0  0  0  0  0  0
  -23.7671  -30.5979   19.4058 H   0  0  0  0  0  0
  -22.7595  -29.2546   19.8524 H   0  0  0  0  0  0
  -25.1296  -36.1937   25.0823 H   0  0  0  0  0  0
  -20.9975  -28.3270   24.1403 H   0  0  0  0  0  0
  -20.5689  -26.2300   23.3606 H   0  0  0  0  0  0
  -21.6650  -26.7454   22.1197 H   0  0  0  0  0  0
  -19.6920  -25.6296   21.1247 H   0  0  0  0  0  0
  -19.6705  -27.3195   20.6745 H   0  0  0  0  0  0
  -17.4202  -26.6677   21.4026 H   0  0  0  0  0  0
  -18.0340  -26.0083   22.9026 H   0  0  0  0  0  0
  -19.7937  -30.7287   24.2257 H   0  0  0  0  0  0
  -17.5014  -31.6265   24.5185 H   0  0  0  0  0  0
  -15.5357  -30.3009   23.7643 H   0  0  0  0  0  0
  -15.8669  -28.0837   22.7075 H   0  0  0  0  0  0
  -24.5887  -30.7105   25.7790 H   0  0  0  0  0  0
  -24.8959  -32.2902   26.4915 H   0  0  0  0  0  0
  -25.8057  -30.8877   27.0221 H   0  0  0  0  0  0
  -26.2926  -29.6745   24.1226 H   0  0  0  0  0  0
  -27.4020  -29.7263   25.4721 H   0  0  0  0  0  0
  -27.8804  -30.4271   23.9451 H   0  0  0  0  0  0
  -27.2683  -33.3603   26.2088 H   0  0  0  0  0  0
  -28.3870  -32.6874   25.0322 H   0  0  0  0  0  0
  -28.0740  -31.8425   26.5400 H   0  0  0  0  0  0
  -28.2596  -38.0102   24.7513 H   0  0  0  0  0  0
  -28.1085  -36.2631   24.6285 H   0  0  0  0  0  0
  -27.2294  -37.1443   25.8862 H   0  0  0  0  0  0
  -20.9378  -29.8777   21.6884 H   0  0  0  0  0  0
  -26.0176  -38.2846   24.1424 H   0  0  0  0  0  0
  -28.1173  -17.3499   19.4380 H   0  0  0  0  0  0
  -27.9533  -19.7645   19.4020 H   0  0  0  0  0  0
  -27.6386  -24.8560   19.0061 H   0  0  0  0  0  0
  -32.0815  -17.8783   23.1961 H   0  0  0  0  0  0
  -32.7338  -17.1491   21.7250 H   0  0  0  0  0  0
  -31.4661  -16.3567   22.6591 H   0  0  0  0  0  0
  -30.1495  -22.1134   21.3718 H   0  0  0  0  0  0
  -28.8245  -15.4086   20.9822 H   0  0  0  0  0  0
  -29.7237  -25.2148   21.6344 H   0  0  0  0  0  0
  1 25  1  0  0  0
  1 30  2  0  0  0
  1 83  1  0  0  0
  2  3  1  0  0  0
  2 25  1  0  0  0
  2 89  1  0  0  0
  2 90  1  0  0  0
  3  4  1  0  0  0
  3 91  1  0  0  0
  3 92  1  0  0  0
  4  5  1  0  0  0
  4 93  1  0  0  0
  4 94  1  0  0  0
  5  6  1  0  0  0
  5 26  1  0  0  0
  5 95  1  0  0  0
  6 25  1  0  0  0
  6 96  1  0  0  0
  6 97  1  0  0  0
  7  8  2  0  0  0
  7 26  1  0  0  0
  7 29  1  0  0  0
  8  9  1  0  0  0
  8 22  1  0  0  0
  9 10  1  0  0  0
  9 27  2  0  0  0
 10 11  2  0  0  0
 10 15  1  0  0  0
 11 12  1  0  0  0
 11 98  1  0  0  0
 12 13  2  0  0  0
 12 99  1  0  0  0
 13 14  1  0  0  0
 13 31  1  0  0  0
 14 15  2  0  0  0
 14100  1  0  0  0
 15101  1  0  0  0
 16 17  2  0  0  0
 16 21  1  0  0  0
 16 31  1  0  0  0
 17 18  1  0  0  0
 17102  1  0  0  0
 18 19  2  0  0  0
 18103  1  0  0  0
 19 20  1  0  0  0
 19 24  1  0  0  0
 20 21  2  0  0  0
 20104  1  0  0  0
 21 23  1  0  0  0
 22 28  1  0  0  0
 22 32  2  0  0  0
 26 27  1  0  0  0
 28105  1  0  0  0
 28106  1  0  0  0
 29107  1  0  0  0
 29108  1  0  0  0
 33 34  1  0  0  0
 33 66  1  0  0  0
 33 70  2  0  0  0
 34 36  1  0  0  0
 34 59  1  0  0  0
 34109  1  0  0  0
 35 44  2  0  0  0
 35 45  1  0  0  0
 35 68  1  0  0  0
 36 56  1  0  0  0
 36110  1  0  0  0
 37 39  1  0  0  0
 37 47  1  0  0  0
 37 66  1  0  0  0
 37111  1  0  0  0
 38 43  2  0  0  0
 38 46  1  0  0  0
 38 47  1  0  0  0
 39 64  1  0  0  0
 39 67  2  0  0  0
 40 52  1  0  0  0
 40 53  2  0  0  0
 40 58  1  0  0  0
 41112  1  0  0  0
 41113  1  0  0  0
 41114  1  0  0  0
 41 48  1  0  0  0
 42 43  1  0  0  0
 42 66  1  0  0  0
 42115  1  0  0  0
 42116  1  0  0  0
 43 44  1  0  0  0
 44117  1  0  0  0
 45 46  2  0  0  0
 45118  1  0  0  0
 46119  1  0  0  0
 47120  1  0  0  0
 47121  1  0  0  0
 48 56  1  0  0  0
 48 65  1  0  0  0
 48122  1  0  0  0
 49 50  1  0  0  0
 49 53  1  0  0  0
 49 64  1  0  0  0
 49123  1  0  0  0
 50 51  1  0  0  0
 50124  1  0  0  0
 50125  1  0  0  0
 51 52  1  0  0  0
 51126  1  0  0  0
 51127  1  0  0  0
 52128  1  0  0  0
 52129  1  0  0  0
 53 54  1  0  0  0
 54 55  2  0  0  0
 54130  1  0  0  0
 55 57  1  0  0  0
 55131  1  0  0  0
 56 69  2  0  0  0
 57 58  2  0  0  0
 57132  1  0  0  0
 58133  1  0  0  0
 59 60  1  0  0  0
 59 61  1  0  0  0
 59 62  1  0  0  0
 60134  1  0  0  0
 60135  1  0  0  0
 60136  1  0  0  0
 61137  1  0  0  0
 61138  1  0  0  0
 61139  1  0  0  0
 62140  1  0  0  0
 62141  1  0  0  0
 62142  1  0  0  0
 63 65  1  0  0  0
 63143  1  0  0  0
 63144  1  0  0  0
 63145  1  0  0  0
 64146  1  0  0  0
 65147  1  0  0  0
 68 77  1  0  0  0
 71 72  2  0  0  0
 71 75  1  0  0  0
 71148  1  0  0  0
 72 76  1  0  0  0
 72149  1  0  0  0
 73 74  1  0  0  0
 73 75  2  0  0  0
 73 80  1  0  0  0
 74 76  2  0  0  0
 74 81  1  0  0  0
 75 83  1  0  0  0
 76 82  1  0  0  0
 77 78  2  0  0  0
 77150  1  0  0  0
 78 79  1  0  0  0
 78 85  1  0  0  0
 79 82  1  0  0  0
 79 84  2  0  0  0
 80151  1  0  0  0
 80152  1  0  0  0
 80153  1  0  0  0
 81 86  1  0  0  0
 81 87  1  0  0  0
 81 88  1  0  0  0
 82154  1  0  0  0
 83155  1  0  0  0
 85156  1  0  0  0
M  ISO  4   1 100  68 101  77 101  83 100
M  END
> <chiral flag>
0

> <version>
0

> <s_m_source_file>
/data/baiqing/PycharmProjects/Reinvent-master-3.2/result/LINK_invent/BTK/process_docking_weight1_custom_product_contain_oxygen_bond_distance_aromatic_linkinvent_7_9_3/rearranged_h_0172.sdf

> <i_m_source_file_index>
89

> <r_mmod_Potential_Energy-OPLS-2005>
103.058486938477

> <r_mmod_Stretch_Energy-OPLS-2005>
101.32869720459

> <r_mmod_Bend_Energy-OPLS-2005>
153.905487060547

> <r_mmod_Torsional_Energy-OPLS-2005>
226.700881958008

> <r_mmod_Improper_Torsional_Energy-OPLS-2005>
5.82058191299438

> <r_mmod_Van_der_Waal_Energy-OPLS-2005>
163.649948120117

> <r_mmod_Electrostatic_Energy-OPLS-2005>
-396.801788330078

> <r_mmod_Solvation_Energy-OPLS-2005>
-214.100936889648

> <b_mmod_Minimization_Converged-OPLS-2005>
0

> <r_mmod_RMS_Derivative-OPLS-2005>
1.06239926815033

$$$$
89
                    3D
 Structure written by MMmdl.
152160  0  0  1  0            999 V2000
  -30.6976  -14.4349   20.5928 C   0  0  0  0  0  0
  -30.4245  -12.2913   19.4114 C   0  0  0  0  0  0
  -29.4929  -12.5197   18.2031 C   0  0  0  0  0  0
  -28.0123  -12.3861   18.6138 C   0  0  0  0  0  0
  -27.6657  -13.2047   19.8870 C   0  0  2  0  0  0
  -28.7075  -12.9428   20.9992 C   0  0  0  0  0  0
  -25.2574  -13.8136   20.5676 C   0  0  0  0  0  0
  -24.1814  -13.0417   20.9129 C   0  0  0  0  0  0
  -24.6381  -11.6891   20.8717 C   0  0  0  0  0  0
  -23.9045  -10.4281   21.0396 C   0  0  0  0  0  0
  -24.3601   -9.4199   21.9180 C   0  0  0  0  0  0
  -23.6283   -8.2234   22.0749 C   0  0  0  0  0  0
  -22.4267   -8.0270   21.3542 C   0  0  0  0  0  0
  -21.9897   -9.0238   20.4643 C   0  0  0  0  0  0
  -22.7218  -10.2117   20.3046 C   0  0  0  0  0  0
  -21.6846   -6.0730   22.5279 C   0  0  0  0  0  0
  -21.4008   -6.5635   23.8212 C   0  0  0  0  0  0
  -21.3662   -5.6788   24.9178 C   0  0  0  0  0  0
  -21.6051   -4.3052   24.7227 C   0  0  0  0  0  0
  -21.8814   -3.8140   23.4346 C   0  0  0  0  0  0
  -21.9190   -4.6960   22.3404 C   0  0  0  0  0  0
  -22.7840  -13.5223   21.1829 C   0  0  0  0  0  0
  -22.1658   -4.2144   21.0983 F   0  0  0  0  0  0
  -21.5639   -3.4535   25.7739 F   0  0  0  0  0  0
  -30.0438  -13.2519   20.4563 N   0  0  0  0  0  0
  -26.3044  -12.9322   20.3437 N   0  0  0  0  0  0
  -25.9320  -11.6481   20.5792 N   0  0  0  0  0  0
  -22.0485  -12.8219   22.0392 N   0  0  0  0  0  0
  -25.4260  -15.1855   20.4151 N   0  0  0  0  0  0
  -31.8008  -14.6643   20.0886 O   0  0  0  0  0  0
  -21.6634   -6.8868   21.4236 O   0  0  0  0  0  0
  -22.3525  -14.5544   20.6704 O   0  0  0  0  0  0
  -24.6140  -31.8699   23.2098 C   0  0  0  0  0  0
  -25.9032  -32.4831   23.8407 C   0  0  1  0  0  0
  -27.2423  -27.4448   20.0724 C   0  0  0  0  0  0
  -25.5888  -33.8628   24.2336 N   0  0  0  0  0  0
  -23.4015  -30.4937   21.5506 C   0  0  2  0  0  0
  -24.8455  -28.9558   20.1180 C   0  0  0  0  0  0
  -22.7395  -29.4683   22.4999 C   0  0  0  0  0  0
  -18.0268  -28.1388   22.8496 C   0  0  0  0  0  0
  -24.1486  -36.7324   23.2638 C   0  0  0  0  0  0
  -25.9298  -30.8341   21.3625 C   0  0  0  0  0  0
  -26.0044  -29.4674   20.7116 C   0  0  0  0  0  0
  -27.1997  -28.7162   20.6914 C   0  0  0  0  0  0
  -26.0527  -26.9342   19.4991 C   0  0  0  0  0  0
  -24.8623  -27.6859   19.5175 C   0  0  0  0  0  0
  -23.6085  -29.8243   20.1662 C   0  0  0  0  0  0
  -25.4102  -36.3119   24.0343 C   0  0  1  0  0  0
  -20.5857  -28.3669   23.1333 C   0  0  2  0  0  0
  -20.6762  -26.9415   22.5421 C   0  0  0  0  0  0
  -19.5741  -26.6397   21.5218 C   0  0  0  0  0  0
  -18.1914  -26.7935   22.1625 C   0  0  0  0  0  0
  -19.1514  -28.8839   23.2918 C   0  0  0  0  0  0
  -18.9443  -30.1439   23.8936 C   0  0  0  0  0  0
  -17.6449  -30.6599   24.0561 C   0  0  0  0  0  0
  -25.9029  -34.9485   23.5142 C   0  0  0  0  0  0
  -16.5334  -29.9105   23.6329 C   0  0  0  0  0  0
  -16.7258  -28.6515   23.0358 C   0  0  0  0  0  0
  -26.4456  -31.6606   25.0727 C   0  0  0  0  0  0
  -25.3727  -31.3703   26.1471 C   0  0  0  0  0  0
  -27.0280  -30.3049   24.6103 C   0  0  0  0  0  0
  -27.6050  -32.4304   25.7486 C   0  0  0  0  0  0
  -27.5589  -37.1812   24.8460 C   0  0  0  0  0  0
  -21.4125  -29.3044   22.3730 N   0  0  0  0  0  0
  -26.4292  -37.3802   23.9411 N   0  0  0  0  0  0
  -24.6668  -31.0799   22.0997 N   0  0  0  0  0  0
  -23.4166  -28.8231   23.3044 O   0  0  0  0  0  0
  -28.4487  -26.7717   20.0729 O   0  0  0  0  0  0
  -26.5598  -34.8933   22.4710 O   0  0  0  0  0  0
  -23.5331  -32.1468   23.7478 O   0  0  0  0  0  0
  -28.7965  -18.8458   20.6621 C   0  0  0  0  0  0
  -31.1989  -17.5169   20.7097 C   0  0  0  0  0  0
  -30.0286  -16.7765   20.9653 C   0  0  0  0  0  0
  -28.8128  -17.4729   20.9502 C   0  0  0  0  0  0
  -30.0111  -19.5145   20.3890 C   0  0  0  0  0  0
  -28.9444  -24.3663   20.0691 C   0  0  0  0  0  0
  -29.1155  -21.8028   19.7542 C   0  0  0  0  0  0
  -29.6198  -23.1952   19.3312 C   0  0  0  0  0  0
  -28.6561  -25.6247   19.2320 C   0  0  0  0  0  0
  -31.1843  -18.8404   20.4324 N   0  0  0  0  0  0
  -30.0020  -15.3803   21.2416 N   0  0  0  0  0  0
  -30.0721  -20.9018   20.0684 N   0  0  0  0  0  0
  -28.7119  -24.3359   21.2851 O   0  0  0  0  0  0
  -27.9041  -21.5630   19.7407 O   0  0  0  0  0  0
  -27.6573  -16.8090   21.1957 F   0  0  0  0  0  0
  -31.4701  -12.3902   19.1134 H   0  0  0  0  0  0
  -30.3183  -11.2722   19.7865 H   0  0  0  0  0  0
  -29.7247  -11.8100   17.4080 H   0  0  0  0  0  0
  -29.6678  -13.5134   17.7875 H   0  0  0  0  0  0
  -27.8110  -11.3291   18.7885 H   0  0  0  0  0  0
  -27.3636  -12.6858   17.7898 H   0  0  0  0  0  0
  -27.7206  -14.2604   19.6164 H   0  0  0  0  0  0
  -28.6777  -11.8951   21.3026 H   0  0  0  0  0  0
  -28.4702  -13.5052   21.9029 H   0  0  0  0  0  0
  -25.2742   -9.5683   22.4761 H   0  0  0  0  0  0
  -23.9992   -7.4624   22.7464 H   0  0  0  0  0  0
  -21.0827   -8.8748   19.8953 H   0  0  0  0  0  0
  -22.3671  -10.9653   19.6157 H   0  0  0  0  0  0
  -21.1987   -7.6142   23.9714 H   0  0  0  0  0  0
  -21.1501   -6.0522   25.9083 H   0  0  0  0  0  0
  -22.0595   -2.7603   23.2845 H   0  0  0  0  0  0
  -22.4090  -11.9867   22.4757 H   0  0  0  0  0  0
  -21.1117  -13.1267   22.2633 H   0  0  0  0  0  0
  -24.6689  -15.8389   20.5781 H   0  0  0  0  0  0
  -26.3221  -15.6448   20.2990 H   0  0  0  0  0  0
  -26.7102  -32.5543   23.1175 H   0  0  0  0  0  0
  -25.0027  -33.9795   25.0469 H   0  0  0  0  0  0
  -22.6930  -31.3128   21.4103 H   0  0  0  0  0  0
  -23.3751  -35.9656   23.3294 H   0  0  0  0  0  0
  -24.3606  -36.8938   22.2059 H   0  0  0  0  0  0
  -23.7224  -37.6523   23.6657 H   0  0  0  0  0  0
  -26.0434  -31.5993   20.5917 H   0  0  0  0  0  0
  -26.8179  -30.8887   21.9813 H   0  0  0  0  0  0
  -28.0977  -29.1146   21.1430 H   0  0  0  0  0  0
  -26.0049  -25.9566   19.0456 H   0  0  0  0  0  0
  -23.9639  -27.2810   19.0714 H   0  0  0  0  0  0
  -23.7202  -30.5995   19.4062 H   0  0  0  0  0  0
  -22.7304  -29.2461   19.8702 H   0  0  0  0  0  0
  -25.1277  -36.2002   25.0837 H   0  0  0  0  0  0
  -20.9947  -28.3229   24.1451 H   0  0  0  0  0  0
  -20.5676  -26.2280   23.3602 H   0  0  0  0  0  0
  -21.6637  -26.7482   22.1206 H   0  0  0  0  0  0
  -19.6908  -25.6313   21.1244 H   0  0  0  0  0  0
  -19.6679  -27.3215   20.6754 H   0  0  0  0  0  0
  -17.4190  -26.6685   21.4021 H   0  0  0  0  0  0
  -18.0307  -26.0076   22.9018 H   0  0  0  0  0  0
  -19.7916  -30.7232   24.2340 H   0  0  0  0  0  0
  -17.5010  -31.6290   24.5142 H   0  0  0  0  0  0
  -15.5334  -30.3016   23.7647 H   0  0  0  0  0  0
  -15.8649  -28.0838   22.7076 H   0  0  0  0  0  0
  -24.5892  -30.7059   25.7804 H   0  0  0  0  0  0
  -24.8916  -32.2848   26.4954 H   0  0  0  0  0  0
  -25.8068  -30.8846   27.0217 H   0  0  0  0  0  0
  -26.2826  -29.6807   24.1145 H   0  0  0  0  0  0
  -27.4037  -29.7278   25.4566 H   0  0  0  0  0  0
  -27.8676  -30.4363   23.9266 H   0  0  0  0  0  0
  -27.2699  -33.3587   26.2125 H   0  0  0  0  0  0
  -28.3837  -32.6876   25.0293 H   0  0  0  0  0  0
  -28.0753  -31.8382   26.5347 H   0  0  0  0  0  0
  -28.2591  -38.0126   24.7541 H   0  0  0  0  0  0
  -28.1098  -36.2662   24.6240 H   0  0  0  0  0  0
  -27.2324  -37.1407   25.8866 H   0  0  0  0  0  0
  -20.9272  -29.8744   21.6935 H   0  0  0  0  0  0
  -26.0186  -38.2881   24.1417 H   0  0  0  0  0  0
  -27.8442  -19.3500   20.6545 H   0  0  0  0  0  0
  -32.1778  -17.0613   20.7383 H   0  0  0  0  0  0
  -30.6958  -23.2713   19.4875 H   0  0  0  0  0  0
  -29.4517  -23.3020   18.2602 H   0  0  0  0  0  0
  -27.8532  -25.4228   18.5282 H   0  0  0  0  0  0
  -29.5356  -25.8224   18.6200 H   0  0  0  0  0  0
  -29.1317  -15.0461   21.6296 H   0  0  0  0  0  0
  -31.0144  -21.2569   20.0022 H   0  0  0  0  0  0
  1 25  1  0  0  0
  1 30  2  0  0  0
  1 81  1  0  0  0
  2  3  1  0  0  0
  2 25  1  0  0  0
  2 86  1  0  0  0
  2 87  1  0  0  0
  3  4  1  0  0  0
  3 88  1  0  0  0
  3 89  1  0  0  0
  4  5  1  0  0  0
  4 90  1  0  0  0
  4 91  1  0  0  0
  5  6  1  0  0  0
  5 26  1  0  0  0
  5 92  1  0  0  0
  6 25  1  0  0  0
  6 93  1  0  0  0
  6 94  1  0  0  0
  7  8  2  0  0  0
  7 26  1  0  0  0
  7 29  1  0  0  0
  8  9  1  0  0  0
  8 22  1  0  0  0
  9 10  1  0  0  0
  9 27  2  0  0  0
 10 11  2  0  0  0
 10 15  1  0  0  0
 11 12  1  0  0  0
 11 95  1  0  0  0
 12 13  2  0  0  0
 12 96  1  0  0  0
 13 14  1  0  0  0
 13 31  1  0  0  0
 14 15  2  0  0  0
 14 97  1  0  0  0
 15 98  1  0  0  0
 16 17  2  0  0  0
 16 21  1  0  0  0
 16 31  1  0  0  0
 17 18  1  0  0  0
 17 99  1  0  0  0
 18 19  2  0  0  0
 18100  1  0  0  0
 19 20  1  0  0  0
 19 24  1  0  0  0
 20 21  2  0  0  0
 20101  1  0  0  0
 21 23  1  0  0  0
 22 28  1  0  0  0
 22 32  2  0  0  0
 26 27  1  0  0  0
 28102  1  0  0  0
 28103  1  0  0  0
 29104  1  0  0  0
 29105  1  0  0  0
 33 34  1  0  0  0
 33 66  1  0  0  0
 33 70  2  0  0  0
 34 36  1  0  0  0
 34 59  1  0  0  0
 34106  1  0  0  0
 35 44  2  0  0  0
 35 45  1  0  0  0
 35 68  1  0  0  0
 36 56  1  0  0  0
 36107  1  0  0  0
 37 39  1  0  0  0
 37 47  1  0  0  0
 37 66  1  0  0  0
 37108  1  0  0  0
 38 43  2  0  0  0
 38 46  1  0  0  0
 38 47  1  0  0  0
 39 64  1  0  0  0
 39 67  2  0  0  0
 40 52  1  0  0  0
 40 53  2  0  0  0
 40 58  1  0  0  0
 41109  1  0  0  0
 41110  1  0  0  0
 41111  1  0  0  0
 41 48  1  0  0  0
 42 43  1  0  0  0
 42 66  1  0  0  0
 42112  1  0  0  0
 42113  1  0  0  0
 43 44  1  0  0  0
 44114  1  0  0  0
 45 46  2  0  0  0
 45115  1  0  0  0
 46116  1  0  0  0
 47117  1  0  0  0
 47118  1  0  0  0
 48 56  1  0  0  0
 48 65  1  0  0  0
 48119  1  0  0  0
 49 50  1  0  0  0
 49 53  1  0  0  0
 49 64  1  0  0  0
 49120  1  0  0  0
 50 51  1  0  0  0
 50121  1  0  0  0
 50122  1  0  0  0
 51 52  1  0  0  0
 51123  1  0  0  0
 51124  1  0  0  0
 52125  1  0  0  0
 52126  1  0  0  0
 53 54  1  0  0  0
 54 55  2  0  0  0
 54127  1  0  0  0
 55 57  1  0  0  0
 55128  1  0  0  0
 56 69  2  0  0  0
 57 58  2  0  0  0
 57129  1  0  0  0
 58130  1  0  0  0
 59 60  1  0  0  0
 59 61  1  0  0  0
 59 62  1  0  0  0
 60131  1  0  0  0
 60132  1  0  0  0
 60133  1  0  0  0
 61134  1  0  0  0
 61135  1  0  0  0
 61136  1  0  0  0
 62137  1  0  0  0
 62138  1  0  0  0
 62139  1  0  0  0
 63 65  1  0  0  0
 63140  1  0  0  0
 63141  1  0  0  0
 63142  1  0  0  0
 64143  1  0  0  0
 65144  1  0  0  0
 68 79  1  0  0  0
 71 74  2  0  0  0
 71 75  1  0  0  0
 71145  1  0  0  0
 72 73  2  0  0  0
 72 80  1  0  0  0
 72146  1  0  0  0
 73 74  1  0  0  0
 73 81  1  0  0  0
 74 85  1  0  0  0
 75 80  2  0  0  0
 75 82  1  0  0  0
 76 78  1  0  0  0
 76 79  1  0  0  0
 76 83  2  0  0  0
 77 78  1  0  0  0
 77 82  1  0  0  0
 77 84  2  0  0  0
 78147  1  0  0  0
 78148  1  0  0  0
 79149  1  0  0  0
 79150  1  0  0  0
 81151  1  0  0  0
 82152  1  0  0  0
M  ISO  4   1 100  68 101  79 101  81 100
M  END
> <chiral flag>
0

> <version>
0

> <s_m_source_file>
/data/baiqing/PycharmProjects/Reinvent-master-3.2/result/LINK_invent/BTK/process_docking_weight1_custom_product_contain_oxygen_bond_distance_aromatic_linkinvent_7_9_3/rearranged_h_0172.sdf

> <i_m_source_file_index>
90

> <r_mmod_Potential_Energy-OPLS-2005>
-353.282196044922

> <r_mmod_Stretch_Energy-OPLS-2005>
35.3367462158203

> <r_mmod_Bend_Energy-OPLS-2005>
120.630897521973

> <r_mmod_Torsional_Energy-OPLS-2005>
224.882720947266

> <r_mmod_Improper_Torsional_Energy-OPLS-2005>
5.43610763549805

> <r_mmod_Van_der_Waal_Energy-OPLS-2005>
165.531524658203

> <r_mmod_Electrostatic_Energy-OPLS-2005>
-663.346557617188

> <r_mmod_Solvation_Energy-OPLS-2005>
-251.764007568359

> <b_mmod_Minimization_Converged-OPLS-2005>
0

> <r_mmod_RMS_Derivative-OPLS-2005>
1.77672743797302

$$$$
90
                    3D
 Structure written by MMmdl.
155163  0  0  1  0            999 V2000
  -30.7352  -14.5144   20.5707 C   0  0  0  0  0  0
  -30.4295  -12.3323   19.4458 C   0  0  0  0  0  0
  -29.5003  -12.4818   18.2230 C   0  0  0  0  0  0
  -28.0320  -12.3188   18.6497 C   0  0  0  0  0  0
  -27.6623  -13.2061   19.8644 C   0  0  2  0  0  0
  -28.7044  -13.0516   20.9954 C   0  0  0  0  0  0
  -25.2629  -13.8157   20.5713 C   0  0  0  0  0  0
  -24.1869  -13.0444   20.9180 C   0  0  0  0  0  0
  -24.6399  -11.6912   20.8729 C   0  0  0  0  0  0
  -23.9054  -10.4287   21.0385 C   0  0  0  0  0  0
  -24.3596   -9.4206   21.9175 C   0  0  0  0  0  0
  -23.6261   -8.2251   22.0751 C   0  0  0  0  0  0
  -22.4253   -8.0283   21.3524 C   0  0  0  0  0  0
  -21.9879   -9.0278   20.4648 C   0  0  0  0  0  0
  -22.7212  -10.2149   20.3045 C   0  0  0  0  0  0
  -21.6851   -6.0715   22.5274 C   0  0  0  0  0  0
  -21.4022   -6.5617   23.8205 C   0  0  0  0  0  0
  -21.3666   -5.6772   24.9169 C   0  0  0  0  0  0
  -21.6050   -4.3032   24.7222 C   0  0  0  0  0  0
  -21.8832   -3.8123   23.4342 C   0  0  0  0  0  0
  -21.9190   -4.6942   22.3396 C   0  0  0  0  0  0
  -22.7889  -13.5266   21.1829 C   0  0  0  0  0  0
  -22.1677   -4.2137   21.0966 F   0  0  0  0  0  0
  -21.5620   -3.4520   25.7728 F   0  0  0  0  0  0
  -30.0371  -13.3471   20.4407 N   0  0  0  0  0  0
  -26.3053  -12.9326   20.3339 N   0  0  0  0  0  0
  -25.9321  -11.6489   20.5751 N   0  0  0  0  0  0
  -22.0506  -12.8309   22.0397 N   0  0  0  0  0  0
  -25.4376  -15.1868   20.4163 N   0  0  0  0  0  0
  -31.8606  -14.6473   20.0832 O   0  0  0  0  0  0
  -21.6637   -6.8867   21.4226 O   0  0  0  0  0  0
  -22.3590  -14.5561   20.6623 O   0  0  0  0  0  0
  -24.6190  -31.8661   23.2074 C   0  0  0  0  0  0
  -25.9048  -32.4832   23.8400 C   0  0  1  0  0  0
  -27.2438  -27.4064   20.1007 C   0  0  0  0  0  0
  -25.5882  -33.8623   24.2324 N   0  0  0  0  0  0
  -23.4124  -30.4906   21.5467 C   0  0  2  0  0  0
  -24.8627  -28.9586   20.1163 C   0  0  0  0  0  0
  -22.7447  -29.4655   22.4943 C   0  0  0  0  0  0
  -18.0288  -28.1378   22.8499 C   0  0  0  0  0  0
  -24.1476  -36.7340   23.2644 C   0  0  0  0  0  0
  -25.9442  -30.8283   21.3624 C   0  0  0  0  0  0
  -26.0253  -29.4579   20.7137 C   0  0  0  0  0  0
  -27.2220  -28.6931   20.6975 C   0  0  0  0  0  0
  -26.0586  -26.9444   19.4774 C   0  0  0  0  0  0
  -24.8759  -27.7026   19.4905 C   0  0  0  0  0  0
  -23.6248  -29.8256   20.1617 C   0  0  0  0  0  0
  -25.4096  -36.3119   24.0344 C   0  0  1  0  0  0
  -20.5887  -28.3681   23.1296 C   0  0  2  0  0  0
  -20.6756  -26.9403   22.5415 C   0  0  0  0  0  0
  -19.5736  -26.6389   21.5204 C   0  0  0  0  0  0
  -18.1919  -26.7937   22.1622 C   0  0  0  0  0  0
  -19.1541  -28.8844   23.2907 C   0  0  0  0  0  0
  -18.9466  -30.1438   23.8932 C   0  0  0  0  0  0
  -17.6465  -30.6581   24.0584 C   0  0  0  0  0  0
  -25.9028  -34.9481   23.5153 C   0  0  0  0  0  0
  -16.5355  -29.9085   23.6324 C   0  0  0  0  0  0
  -16.7276  -28.6501   23.0353 C   0  0  0  0  0  0
  -26.4492  -31.6616   25.0719 C   0  0  0  0  0  0
  -25.3775  -31.3704   26.1497 C   0  0  0  0  0  0
  -27.0330  -30.3068   24.6078 C   0  0  0  0  0  0
  -27.6099  -32.4325   25.7451 C   0  0  0  0  0  0
  -27.5585  -37.1828   24.8468 C   0  0  0  0  0  0
  -21.4167  -29.3058   22.3693 N   0  0  0  0  0  0
  -26.4292  -37.3802   23.9415 N   0  0  0  0  0  0
  -24.6773  -31.0747   22.0979 N   0  0  0  0  0  0
  -23.4206  -28.8181   23.2986 O   0  0  0  0  0  0
  -28.3771  -26.6037   20.1451 O   0  0  0  0  0  0
  -26.5605  -34.8936   22.4730 O   0  0  0  0  0  0
  -23.5368  -32.1417   23.7423 O   0  0  0  0  0  0
  -29.5023  -17.9378   21.2841 C   0  0  0  0  0  0
  -30.0617  -19.2710   21.2249 C   0  0  0  0  0  0
  -30.3909  -16.8934   21.1338 C   0  0  0  0  0  0
  -31.4373  -19.2231   21.0923 C   0  0  0  0  0  0
  -29.1636  -20.4977   21.3490 C   0  0  0  0  0  0
  -29.2774  -24.2623   20.6501 C   0  0  0  0  0  0
  -29.1411  -23.2806   23.0130 C   0  0  0  0  0  0
  -28.0750  -25.2244   20.4830 C   0  0  0  0  0  0
  -28.9764  -22.9972   21.5113 C   0  0  2  0  0  0
  -32.4021  -20.2352   21.0603 N   0  0  0  0  0  0
  -30.0749  -15.5525   21.1427 N   0  0  0  0  0  0
  -29.6822  -21.7356   21.1522 N   0  0  0  0  0  0
  -27.9717  -20.3583   21.6339 O   0  0  0  0  0  0
  -30.3796  -24.5071   20.1458 O   0  0  0  0  0  0
  -32.0004  -17.5661   20.9547 S   0  0  0  0  0  0
  -31.4732  -12.4194   19.1327 H   0  0  0  0  0  0
  -30.3408  -11.3385   19.8862 H   0  0  0  0  0  0
  -29.7632  -11.7397   17.4677 H   0  0  0  0  0  0
  -29.6421  -13.4608   17.7576 H   0  0  0  0  0  0
  -27.8895  -11.2701   18.9159 H   0  0  0  0  0  0
  -27.3643  -12.5129   17.8100 H   0  0  0  0  0  0
  -27.6952  -14.2371   19.5143 H   0  0  0  0  0  0
  -28.6881  -12.0387   21.3984 H   0  0  0  0  0  0
  -28.4517  -13.7030   21.8341 H   0  0  0  0  0  0
  -25.2736   -9.5692   22.4752 H   0  0  0  0  0  0
  -23.9978   -7.4643   22.7473 H   0  0  0  0  0  0
  -21.0810   -8.8792   19.8965 H   0  0  0  0  0  0
  -22.3658  -10.9695   19.6157 H   0  0  0  0  0  0
  -21.2031   -7.6125   23.9709 H   0  0  0  0  0  0
  -21.1469   -6.0491   25.9071 H   0  0  0  0  0  0
  -22.0591   -2.7591   23.2834 H   0  0  0  0  0  0
  -22.4081  -11.9979   22.4840 H   0  0  0  0  0  0
  -21.1140  -13.1357   22.2582 H   0  0  0  0  0  0
  -24.6625  -15.8369   20.5046 H   0  0  0  0  0  0
  -26.2781  -15.6169   20.0526 H   0  0  0  0  0  0
  -26.7124  -32.5557   23.1167 H   0  0  0  0  0  0
  -25.0007  -33.9735   25.0465 H   0  0  0  0  0  0
  -22.7054  -31.3094   21.4032 H   0  0  0  0  0  0
  -23.3701  -35.9707   23.3338 H   0  0  0  0  0  0
  -24.3568  -36.8931   22.2056 H   0  0  0  0  0  0
  -23.7253  -37.6563   23.6657 H   0  0  0  0  0  0
  -26.0495  -31.5833   20.5815 H   0  0  0  0  0  0
  -26.8374  -30.8938   21.9733 H   0  0  0  0  0  0
  -28.1187  -29.0737   21.1681 H   0  0  0  0  0  0
  -26.0238  -25.9935   18.9692 H   0  0  0  0  0  0
  -23.9881  -27.3181   19.0083 H   0  0  0  0  0  0
  -23.7345  -30.6007   19.4014 H   0  0  0  0  0  0
  -22.7498  -29.2429   19.8668 H   0  0  0  0  0  0
  -25.1261  -36.2013   25.0828 H   0  0  0  0  0  0
  -21.0011  -28.3258   24.1411 H   0  0  0  0  0  0
  -20.5619  -26.2291   23.3619 H   0  0  0  0  0  0
  -21.6625  -26.7406   22.1240 H   0  0  0  0  0  0
  -19.6877  -25.6301   21.1227 H   0  0  0  0  0  0
  -19.6659  -27.3198   20.6744 H   0  0  0  0  0  0
  -17.4186  -26.6709   21.4018 H   0  0  0  0  0  0
  -18.0308  -26.0044   22.8993 H   0  0  0  0  0  0
  -19.7931  -30.7238   24.2321 H   0  0  0  0  0  0
  -17.5021  -31.6259   24.5179 H   0  0  0  0  0  0
  -15.5357  -30.3010   23.7599 H   0  0  0  0  0  0
  -15.8690  -28.0824   22.7065 H   0  0  0  0  0  0
  -24.5899  -30.7099   25.7861 H   0  0  0  0  0  0
  -24.9005  -32.2827   26.5073 H   0  0  0  0  0  0
  -25.8148  -30.8802   27.0194 H   0  0  0  0  0  0
  -26.2845  -29.6773   24.1246 H   0  0  0  0  0  0
  -27.4247  -29.7370   25.4515 H   0  0  0  0  0  0
  -27.8611  -30.4429   23.9115 H   0  0  0  0  0  0
  -27.2763  -33.3619   26.2077 H   0  0  0  0  0  0
  -28.3867  -32.6905   25.0237 H   0  0  0  0  0  0
  -28.0831  -31.8427   26.5309 H   0  0  0  0  0  0
  -28.2647  -38.0089   24.7484 H   0  0  0  0  0  0
  -28.1031  -36.2627   24.6320 H   0  0  0  0  0  0
  -27.2310  -37.1532   25.8871 H   0  0  0  0  0  0
  -20.9313  -29.8843   21.6979 H   0  0  0  0  0  0
  -26.0190  -38.2886   24.1368 H   0  0  0  0  0  0
  -28.4397  -17.7901   21.4196 H   0  0  0  0  0  0
  -28.6793  -24.2268   23.3026 H   0  0  0  0  0  0
  -30.1946  -23.3317   23.2906 H   0  0  0  0  0  0
  -28.6705  -22.4997   23.6089 H   0  0  0  0  0  0
  -27.5081  -25.2124   21.4145 H   0  0  0  0  0  0
  -27.4431  -24.7651   19.7248 H   0  0  0  0  0  0
  -27.9107  -22.8158   21.3525 H   0  0  0  0  0  0
  -32.3143  -21.1087   21.5730 H   0  0  0  0  0  0
  -33.3832  -19.9804   20.9577 H   0  0  0  0  0  0
  -29.1597  -15.3189   21.5006 H   0  0  0  0  0  0
  -30.6396  -21.7956   20.8343 H   0  0  0  0  0  0
  1 25  1  0  0  0
  1 30  2  0  0  0
  1 81  1  0  0  0
  2  3  1  0  0  0
  2 25  1  0  0  0
  2 86  1  0  0  0
  2 87  1  0  0  0
  3  4  1  0  0  0
  3 88  1  0  0  0
  3 89  1  0  0  0
  4  5  1  0  0  0
  4 90  1  0  0  0
  4 91  1  0  0  0
  5  6  1  0  0  0
  5 26  1  0  0  0
  5 92  1  0  0  0
  6 25  1  0  0  0
  6 93  1  0  0  0
  6 94  1  0  0  0
  7  8  2  0  0  0
  7 26  1  0  0  0
  7 29  1  0  0  0
  8  9  1  0  0  0
  8 22  1  0  0  0
  9 10  1  0  0  0
  9 27  2  0  0  0
 10 11  2  0  0  0
 10 15  1  0  0  0
 11 12  1  0  0  0
 11 95  1  0  0  0
 12 13  2  0  0  0
 12 96  1  0  0  0
 13 14  1  0  0  0
 13 31  1  0  0  0
 14 15  2  0  0  0
 14 97  1  0  0  0
 15 98  1  0  0  0
 16 17  2  0  0  0
 16 21  1  0  0  0
 16 31  1  0  0  0
 17 18  1  0  0  0
 17 99  1  0  0  0
 18 19  2  0  0  0
 18100  1  0  0  0
 19 20  1  0  0  0
 19 24  1  0  0  0
 20 21  2  0  0  0
 20101  1  0  0  0
 21 23  1  0  0  0
 22 28  1  0  0  0
 22 32  2  0  0  0
 26 27  1  0  0  0
 28102  1  0  0  0
 28103  1  0  0  0
 29104  1  0  0  0
 29105  1  0  0  0
 33 34  1  0  0  0
 33 66  1  0  0  0
 33 70  2  0  0  0
 34 36  1  0  0  0
 34 59  1  0  0  0
 34106  1  0  0  0
 35 44  2  0  0  0
 35 45  1  0  0  0
 35 68  1  0  0  0
 36 56  1  0  0  0
 36107  1  0  0  0
 37 39  1  0  0  0
 37 47  1  0  0  0
 37 66  1  0  0  0
 37108  1  0  0  0
 38 43  2  0  0  0
 38 46  1  0  0  0
 38 47  1  0  0  0
 39 64  1  0  0  0
 39 67  2  0  0  0
 40 52  1  0  0  0
 40 53  2  0  0  0
 40 58  1  0  0  0
 41109  1  0  0  0
 41110  1  0  0  0
 41111  1  0  0  0
 41 48  1  0  0  0
 42 43  1  0  0  0
 42 66  1  0  0  0
 42112  1  0  0  0
 42113  1  0  0  0
 43 44  1  0  0  0
 44114  1  0  0  0
 45 46  2  0  0  0
 45115  1  0  0  0
 46116  1  0  0  0
 47117  1  0  0  0
 47118  1  0  0  0
 48 56  1  0  0  0
 48 65  1  0  0  0
 48119  1  0  0  0
 49 50  1  0  0  0
 49 53  1  0  0  0
 49 64  1  0  0  0
 49120  1  0  0  0
 50 51  1  0  0  0
 50121  1  0  0  0
 50122  1  0  0  0
 51 52  1  0  0  0
 51123  1  0  0  0
 51124  1  0  0  0
 52125  1  0  0  0
 52126  1  0  0  0
 53 54  1  0  0  0
 54 55  2  0  0  0
 54127  1  0  0  0
 55 57  1  0  0  0
 55128  1  0  0  0
 56 69  2  0  0  0
 57 58  2  0  0  0
 57129  1  0  0  0
 58130  1  0  0  0
 59 60  1  0  0  0
 59 61  1  0  0  0
 59 62  1  0  0  0
 60131  1  0  0  0
 60132  1  0  0  0
 60133  1  0  0  0
 61134  1  0  0  0
 61135  1  0  0  0
 61136  1  0  0  0
 62137  1  0  0  0
 62138  1  0  0  0
 62139  1  0  0  0
 63 65  1  0  0  0
 63140  1  0  0  0
 63141  1  0  0  0
 63142  1  0  0  0
 64143  1  0  0  0
 65144  1  0  0  0
 68 78  1  0  0  0
 71 72  1  0  0  0
 71 73  2  0  0  0
 71145  1  0  0  0
 72 74  2  0  0  0
 72 75  1  0  0  0
 73 81  1  0  0  0
 73 85  1  0  0  0
 74 80  1  0  0  0
 74 85  1  0  0  0
 75 82  1  0  0  0
 75 83  2  0  0  0
 76 78  1  0  0  0
 76 79  1  0  0  0
 76 84  2  0  0  0
 77146  1  0  0  0
 77147  1  0  0  0
 77148  1  0  0  0
 77 79  1  0  0  0
 78149  1  0  0  0
 78150  1  0  0  0
 79 82  1  0  0  0
 79151  1  0  0  0
 80152  1  0  0  0
 80153  1  0  0  0
 81154  1  0  0  0
 82155  1  0  0  0
M  ISO  4   1 100  68 101  78 101  81 100
M  END
> <chiral flag>
0

> <version>
0

> <s_m_source_file>
/data/baiqing/PycharmProjects/Reinvent-master-3.2/result/LINK_invent/BTK/process_docking_weight1_custom_product_contain_oxygen_bond_distance_aromatic_linkinvent_7_9_3/rearranged_h_0172.sdf

> <i_m_source_file_index>
91

> <r_mmod_Potential_Energy-OPLS-2005>
-11.3010540008545

> <r_mmod_Stretch_Energy-OPLS-2005>
48.9397201538086

> <r_mmod_Bend_Energy-OPLS-2005>
126.253814697266

> <r_mmod_Torsional_Energy-OPLS-2005>
229.765502929688

> <r_mmod_Improper_Torsional_Energy-OPLS-2005>
5.87420606613159

> <r_mmod_Van_der_Waal_Energy-OPLS-2005>
138.831726074219

> <r_mmod_Electrostatic_Energy-OPLS-2005>
-331.725982666016

> <r_mmod_Solvation_Energy-OPLS-2005>
-250.632263183594

> <b_mmod_Minimization_Converged-OPLS-2005>
0

> <r_mmod_RMS_Derivative-OPLS-2005>
5.09188318252563

$$$$
91
                    3D
 Structure written by MMmdl.
162170  0  0  1  0            999 V2000
  -30.7231  -14.4672   20.5313 C   0  0  0  0  0  0
  -30.4192  -12.2847   19.4422 C   0  0  0  0  0  0
  -29.4998  -12.4727   18.2167 C   0  0  0  0  0  0
  -28.0152  -12.3687   18.6215 C   0  0  0  0  0  0
  -27.6616  -13.2117   19.8782 C   0  0  2  0  0  0
  -28.7068  -13.0163   21.0019 C   0  0  0  0  0  0
  -25.2575  -13.8175   20.5698 C   0  0  0  0  0  0
  -24.1827  -13.0441   20.9175 C   0  0  0  0  0  0
  -24.6382  -11.6913   20.8731 C   0  0  0  0  0  0
  -23.9047  -10.4293   21.0387 C   0  0  0  0  0  0
  -24.3604   -9.4215   21.9169 C   0  0  0  0  0  0
  -23.6280   -8.2245   22.0743 C   0  0  0  0  0  0
  -22.4263   -8.0274   21.3531 C   0  0  0  0  0  0
  -21.9897   -9.0252   20.4638 C   0  0  0  0  0  0
  -22.7216  -10.2131   20.3039 C   0  0  0  0  0  0
  -21.6856   -6.0716   22.5276 C   0  0  0  0  0  0
  -21.4013   -6.5621   23.8209 C   0  0  0  0  0  0
  -21.3664   -5.6778   24.9174 C   0  0  0  0  0  0
  -21.6057   -4.3043   24.7224 C   0  0  0  0  0  0
  -21.8822   -3.8127   23.4346 C   0  0  0  0  0  0
  -21.9191   -4.6942   22.3403 C   0  0  0  0  0  0
  -22.7846  -13.5229   21.1842 C   0  0  0  0  0  0
  -22.1660   -4.2122   21.0986 F   0  0  0  0  0  0
  -21.5637   -3.4531   25.7742 F   0  0  0  0  0  0
  -30.0411  -13.2919   20.4453 N   0  0  0  0  0  0
  -26.3028  -12.9354   20.3417 N   0  0  0  0  0  0
  -25.9328  -11.6514   20.5799 N   0  0  0  0  0  0
  -22.0487  -12.8229   22.0401 N   0  0  0  0  0  0
  -25.4279  -15.1889   20.4109 N   0  0  0  0  0  0
  -31.8756  -14.6053   20.1155 O   0  0  0  0  0  0
  -21.6642   -6.8852   21.4233 O   0  0  0  0  0  0
  -22.3532  -14.5528   20.6677 O   0  0  0  0  0  0
  -24.6115  -31.8699   23.2105 C   0  0  0  0  0  0
  -25.9019  -32.4837   23.8394 C   0  0  1  0  0  0
  -27.2387  -27.4570   20.0951 C   0  0  0  0  0  0
  -25.5886  -33.8632   24.2330 N   0  0  0  0  0  0
  -23.3995  -30.4902   21.5506 C   0  0  2  0  0  0
  -24.8492  -28.9554   20.1211 C   0  0  0  0  0  0
  -22.7394  -29.4652   22.4996 C   0  0  0  0  0  0
  -18.0276  -28.1373   22.8481 C   0  0  0  0  0  0
  -24.1487  -36.7322   23.2630 C   0  0  0  0  0  0
  -25.9256  -30.8395   21.3634 C   0  0  0  0  0  0
  -26.0059  -29.4712   20.7212 C   0  0  0  0  0  0
  -27.2042  -28.7260   20.7161 C   0  0  0  0  0  0
  -26.0726  -26.9499   19.4889 C   0  0  0  0  0  0
  -24.8754  -27.6910   19.5053 C   0  0  0  0  0  0
  -23.6090  -29.8183   20.1667 C   0  0  0  0  0  0
  -25.4108  -36.3122   24.0334 C   0  0  1  0  0  0
  -20.5861  -28.3651   23.1327 C   0  0  2  0  0  0
  -20.6758  -26.9392   22.5418 C   0  0  0  0  0  0
  -19.5744  -26.6381   21.5207 C   0  0  0  0  0  0
  -18.1925  -26.7915   22.1616 C   0  0  0  0  0  0
  -19.1519  -28.8820   23.2903 C   0  0  0  0  0  0
  -18.9448  -30.1423   23.8910 C   0  0  0  0  0  0
  -17.6456  -30.6572   24.0561 C   0  0  0  0  0  0
  -25.9036  -34.9484   23.5130 C   0  0  0  0  0  0
  -16.5347  -29.9073   23.6323 C   0  0  0  0  0  0
  -16.7265  -28.6490   23.0337 C   0  0  0  0  0  0
  -26.4457  -31.6601   25.0705 C   0  0  0  0  0  0
  -25.3733  -31.3716   26.1458 C   0  0  0  0  0  0
  -27.0273  -30.3043   24.6052 C   0  0  0  0  0  0
  -27.6029  -32.4316   25.7484 C   0  0  0  0  0  0
  -27.5596  -37.1809   24.8450 C   0  0  0  0  0  0
  -21.4126  -29.3027   22.3739 N   0  0  0  0  0  0
  -26.4289  -37.3801   23.9418 N   0  0  0  0  0  0
  -24.6632  -31.0796   22.1013 N   0  0  0  0  0  0
  -23.4172  -28.8193   23.3027 O   0  0  0  0  0  0
  -28.3910  -26.7146   20.0211 O   0  0  0  0  0  0
  -26.5596  -34.8923   22.4691 O   0  0  0  0  0  0
  -23.5312  -32.1437   23.7509 O   0  0  0  0  0  0
  -30.7965  -19.5637   19.7394 C   0  0  0  0  0  0
  -30.4884  -17.8869   21.4774 C   0  0  0  0  0  0
  -30.5402  -18.6031   18.7399 C   0  0  0  0  0  0
  -30.2347  -17.2656   19.1184 C   0  0  0  0  0  0
  -30.7510  -19.2238   21.1020 C   0  0  0  0  0  0
  -30.2568  -16.8903   20.4957 C   0  0  0  0  0  0
  -30.5381  -22.6610   21.9094 C   0  0  0  0  0  0
  -29.1398  -24.6240   21.0350 C   0  0  0  0  0  0
  -29.8735  -16.2402   18.0485 C   0  0  0  0  0  0
  -29.6594  -23.8656   22.2649 C   0  0  0  0  0  0
  -29.9503  -21.2548   22.1110 C   0  0  0  0  0  0
  -28.7937  -26.1092   21.2507 C   0  0  0  0  0  0
  -30.5786  -19.0496   17.2749 C   0  0  0  0  0  0
  -30.0048  -15.5402   20.9175 N   0  0  0  0  0  0
  -30.9826  -20.2120   22.0701 N   0  0  0  0  0  0
  -31.7096  -22.7988   21.5306 O   0  0  0  0  0  0
  -28.9614  -24.0707   19.9426 O   0  0  0  0  0  0
  -31.0858  -20.2749   17.1377 F   0  0  0  0  0  0
  -31.3334  -18.2277   16.5449 F   0  0  0  0  0  0
  -29.3413  -19.0665   16.7791 F   0  0  0  0  0  0
  -31.4676  -12.3591   19.1456 H   0  0  0  0  0  0
  -30.3034  -11.2818   19.8576 H   0  0  0  0  0  0
  -29.7299  -11.7234   17.4590 H   0  0  0  0  0  0
  -29.6920  -13.4359   17.7476 H   0  0  0  0  0  0
  -27.7994  -11.3163   18.8086 H   0  0  0  0  0  0
  -27.3778  -12.6619   17.7860 H   0  0  0  0  0  0
  -27.6925  -14.2575   19.5787 H   0  0  0  0  0  0
  -28.6743  -11.9923   21.3779 H   0  0  0  0  0  0
  -28.4813  -13.6532   21.8600 H   0  0  0  0  0  0
  -25.2753   -9.5709   22.4738 H   0  0  0  0  0  0
  -24.0005   -7.4636   22.7463 H   0  0  0  0  0  0
  -21.0828   -8.8752   19.8948 H   0  0  0  0  0  0
  -22.3660  -10.9663   19.6145 H   0  0  0  0  0  0
  -21.2001   -7.6125   23.9705 H   0  0  0  0  0  0
  -21.1490   -6.0507   25.9079 H   0  0  0  0  0  0
  -22.0596   -2.7585   23.2853 H   0  0  0  0  0  0
  -22.4099  -11.9895   22.4808 H   0  0  0  0  0  0
  -21.1105  -13.1254   22.2596 H   0  0  0  0  0  0
  -24.6617  -15.8424   20.5251 H   0  0  0  0  0  0
  -26.2840  -15.6340   20.1063 H   0  0  0  0  0  0
  -26.7090  -32.5543   23.1164 H   0  0  0  0  0  0
  -25.0041  -33.9803   25.0474 H   0  0  0  0  0  0
  -22.6869  -31.3057   21.4112 H   0  0  0  0  0  0
  -23.3746  -35.9658   23.3279 H   0  0  0  0  0  0
  -24.3585  -36.8944   22.2047 H   0  0  0  0  0  0
  -23.7230  -37.6517   23.6650 H   0  0  0  0  0  0
  -26.0312  -31.6028   20.5902 H   0  0  0  0  0  0
  -26.8160  -30.9006   21.9773 H   0  0  0  0  0  0
  -28.1019  -29.1266   21.1660 H   0  0  0  0  0  0
  -26.0955  -25.9851   19.0005 H   0  0  0  0  0  0
  -23.9884  -27.2887   19.0361 H   0  0  0  0  0  0
  -23.7129  -30.5909   19.4032 H   0  0  0  0  0  0
  -22.7361  -29.2311   19.8753 H   0  0  0  0  0  0
  -25.1287  -36.1988   25.0823 H   0  0  0  0  0  0
  -20.9948  -28.3206   24.1449 H   0  0  0  0  0  0
  -20.5653  -26.2253   23.3589 H   0  0  0  0  0  0
  -21.6630  -26.7430   22.1220 H   0  0  0  0  0  0
  -19.6899  -25.6292   21.1225 H   0  0  0  0  0  0
  -19.6698  -27.3192   20.6738 H   0  0  0  0  0  0
  -17.4200  -26.6660   21.4019 H   0  0  0  0  0  0
  -18.0335  -26.0051   22.9001 H   0  0  0  0  0  0
  -19.7925  -30.7233   24.2291 H   0  0  0  0  0  0
  -17.5011  -31.6259   24.5154 H   0  0  0  0  0  0
  -15.5342  -30.2996   23.7614 H   0  0  0  0  0  0
  -15.8660  -28.0815   22.7047 H   0  0  0  0  0  0
  -24.5885  -30.7095   25.7786 H   0  0  0  0  0  0
  -24.8955  -32.2884   26.4925 H   0  0  0  0  0  0
  -25.8086  -30.8854   27.0200 H   0  0  0  0  0  0
  -26.2808  -29.6830   24.1092 H   0  0  0  0  0  0
  -27.4031  -29.7249   25.4494 H   0  0  0  0  0  0
  -27.8650  -30.4359   23.9200 H   0  0  0  0  0  0
  -27.2641  -33.3600   26.2100 H   0  0  0  0  0  0
  -28.3840  -32.6912   25.0327 H   0  0  0  0  0  0
  -28.0703  -31.8414   26.5377 H   0  0  0  0  0  0
  -28.2586  -38.0140   24.7556 H   0  0  0  0  0  0
  -28.1130  -36.2672   24.6212 H   0  0  0  0  0  0
  -27.2319  -37.1365   25.8851 H   0  0  0  0  0  0
  -20.9266  -29.8759   21.6980 H   0  0  0  0  0  0
  -26.0179  -38.2872   24.1445 H   0  0  0  0  0  0
  -31.0151  -20.5809   19.4498 H   0  0  0  0  0  0
  -30.4815  -17.6243   22.5259 H   0  0  0  0  0  0
  -29.5083  -16.6840   17.1259 H   0  0  0  0  0  0
  -29.0761  -15.5892   18.3972 H   0  0  0  0  0  0
  -30.7466  -15.6346   17.8038 H   0  0  0  0  0  0
  -30.2343  -24.5503   22.8862 H   0  0  0  0  0  0
  -28.8101  -23.5288   22.8565 H   0  0  0  0  0  0
  -29.1849  -21.0902   21.3518 H   0  0  0  0  0  0
  -29.4475  -21.2241   23.0780 H   0  0  0  0  0  0
  -29.6675  -26.6293   21.6427 H   0  0  0  0  0  0
  -28.0056  -26.1756   22.0014 H   0  0  0  0  0  0
  -29.1273  -15.3560   21.3787 H   0  0  0  0  0  0
  -31.8539  -20.7132   21.8868 H   0  0  0  0  0  0
  1 25  1  0  0  0
  1 30  2  0  0  0
  1 84  1  0  0  0
  2  3  1  0  0  0
  2 25  1  0  0  0
  2 91  1  0  0  0
  2 92  1  0  0  0
  3  4  1  0  0  0
  3 93  1  0  0  0
  3 94  1  0  0  0
  4  5  1  0  0  0
  4 95  1  0  0  0
  4 96  1  0  0  0
  5  6  1  0  0  0
  5 26  1  0  0  0
  5 97  1  0  0  0
  6 25  1  0  0  0
  6 98  1  0  0  0
  6 99  1  0  0  0
  7  8  2  0  0  0
  7 26  1  0  0  0
  7 29  1  0  0  0
  8  9  1  0  0  0
  8 22  1  0  0  0
  9 10  1  0  0  0
  9 27  2  0  0  0
 10 11  2  0  0  0
 10 15  1  0  0  0
 11 12  1  0  0  0
 11100  1  0  0  0
 12 13  2  0  0  0
 12101  1  0  0  0
 13 14  1  0  0  0
 13 31  1  0  0  0
 14 15  2  0  0  0
 14102  1  0  0  0
 15103  1  0  0  0
 16 17  2  0  0  0
 16 21  1  0  0  0
 16 31  1  0  0  0
 17 18  1  0  0  0
 17104  1  0  0  0
 18 19  2  0  0  0
 18105  1  0  0  0
 19 20  1  0  0  0
 19 24  1  0  0  0
 20 21  2  0  0  0
 20106  1  0  0  0
 21 23  1  0  0  0
 22 28  1  0  0  0
 22 32  2  0  0  0
 26 27  1  0  0  0
 28107  1  0  0  0
 28108  1  0  0  0
 29109  1  0  0  0
 29110  1  0  0  0
 33 34  1  0  0  0
 33 66  1  0  0  0
 33 70  2  0  0  0
 34 36  1  0  0  0
 34 59  1  0  0  0
 34111  1  0  0  0
 35 44  2  0  0  0
 35 45  1  0  0  0
 35 68  1  0  0  0
 36 56  1  0  0  0
 36112  1  0  0  0
 37 39  1  0  0  0
 37 47  1  0  0  0
 37 66  1  0  0  0
 37113  1  0  0  0
 38 43  2  0  0  0
 38 46  1  0  0  0
 38 47  1  0  0  0
 39 64  1  0  0  0
 39 67  2  0  0  0
 40 52  1  0  0  0
 40 53  2  0  0  0
 40 58  1  0  0  0
 41114  1  0  0  0
 41115  1  0  0  0
 41116  1  0  0  0
 41 48  1  0  0  0
 42 43  1  0  0  0
 42 66  1  0  0  0
 42117  1  0  0  0
 42118  1  0  0  0
 43 44  1  0  0  0
 44119  1  0  0  0
 45 46  2  0  0  0
 45120  1  0  0  0
 46121  1  0  0  0
 47122  1  0  0  0
 47123  1  0  0  0
 48 56  1  0  0  0
 48 65  1  0  0  0
 48124  1  0  0  0
 49 50  1  0  0  0
 49 53  1  0  0  0
 49 64  1  0  0  0
 49125  1  0  0  0
 50 51  1  0  0  0
 50126  1  0  0  0
 50127  1  0  0  0
 51 52  1  0  0  0
 51128  1  0  0  0
 51129  1  0  0  0
 52130  1  0  0  0
 52131  1  0  0  0
 53 54  1  0  0  0
 54 55  2  0  0  0
 54132  1  0  0  0
 55 57  1  0  0  0
 55133  1  0  0  0
 56 69  2  0  0  0
 57 58  2  0  0  0
 57134  1  0  0  0
 58135  1  0  0  0
 59 60  1  0  0  0
 59 61  1  0  0  0
 59 62  1  0  0  0
 60136  1  0  0  0
 60137  1  0  0  0
 60138  1  0  0  0
 61139  1  0  0  0
 61140  1  0  0  0
 61141  1  0  0  0
 62142  1  0  0  0
 62143  1  0  0  0
 62144  1  0  0  0
 63 65  1  0  0  0
 63145  1  0  0  0
 63146  1  0  0  0
 63147  1  0  0  0
 64148  1  0  0  0
 65149  1  0  0  0
 68 82  1  0  0  0
 71 73  2  0  0  0
 71 75  1  0  0  0
 71150  1  0  0  0
 72 75  2  0  0  0
 72 76  1  0  0  0
 72151  1  0  0  0
 73 74  1  0  0  0
 73 83  1  0  0  0
 74 76  2  0  0  0
 74 79  1  0  0  0
 75 85  1  0  0  0
 76 84  1  0  0  0
 77 80  1  0  0  0
 77 81  1  0  0  0
 77 86  2  0  0  0
 78 80  1  0  0  0
 78 82  1  0  0  0
 78 87  2  0  0  0
 79152  1  0  0  0
 79153  1  0  0  0
 79154  1  0  0  0
 80155  1  0  0  0
 80156  1  0  0  0
 81 85  1  0  0  0
 81157  1  0  0  0
 81158  1  0  0  0
 82159  1  0  0  0
 82160  1  0  0  0
 83 88  1  0  0  0
 83 89  1  0  0  0
 83 90  1  0  0  0
 84161  1  0  0  0
 85162  1  0  0  0
M  ISO  4   1 100  68 101  82 101  84 100
M  END
> <chiral flag>
0

> <version>
0

> <s_m_source_file>
/data/baiqing/PycharmProjects/Reinvent-master-3.2/result/LINK_invent/BTK/process_docking_weight1_custom_product_contain_oxygen_bond_distance_aromatic_linkinvent_7_9_3/rearranged_h_0172.sdf

> <i_m_source_file_index>
92

> <r_mmod_Potential_Energy-OPLS-2005>
-27.8710193634033

> <r_mmod_Stretch_Energy-OPLS-2005>
38.7311630249023

> <r_mmod_Bend_Energy-OPLS-2005>
92.1278839111328

> <r_mmod_Torsional_Energy-OPLS-2005>
291.466827392578

> <r_mmod_Improper_Torsional_Energy-OPLS-2005>
11.7135305404663

> <r_mmod_Van_der_Waal_Energy-OPLS-2005>
156.547210693359

> <r_mmod_Electrostatic_Energy-OPLS-2005>
-381.496673583984

> <r_mmod_Solvation_Energy-OPLS-2005>
-249.907363891602

> <b_mmod_Minimization_Converged-OPLS-2005>
0

> <r_mmod_RMS_Derivative-OPLS-2005>
2.58233904838562

$$$$
92
                    3D
 Structure written by MMmdl.
166174  0  0  1  0            999 V2000
  -30.7124  -14.4100   20.7214 C   0  0  0  0  0  0
  -30.4482  -12.3361   19.3757 C   0  0  0  0  0  0
  -29.4972  -12.5620   18.1805 C   0  0  0  0  0  0
  -28.0146  -12.4062   18.5870 C   0  0  0  0  0  0
  -27.6727  -13.1994   19.8782 C   0  0  2  0  0  0
  -28.7133  -12.8850   20.9750 C   0  0  0  0  0  0
  -25.2594  -13.8172   20.5616 C   0  0  0  0  0  0
  -24.1843  -13.0460   20.9130 C   0  0  0  0  0  0
  -24.6400  -11.6910   20.8703 C   0  0  0  0  0  0
  -23.9083  -10.4290   21.0393 C   0  0  0  0  0  0
  -24.3636   -9.4207   21.9169 C   0  0  0  0  0  0
  -23.6295   -8.2250   22.0762 C   0  0  0  0  0  0
  -22.4268   -8.0297   21.3565 C   0  0  0  0  0  0
  -21.9911   -9.0274   20.4656 C   0  0  0  0  0  0
  -22.7253  -10.2135   20.3044 C   0  0  0  0  0  0
  -21.6846   -6.0755   22.5293 C   0  0  0  0  0  0
  -21.4004   -6.5647   23.8239 C   0  0  0  0  0  0
  -21.3645   -5.6783   24.9193 C   0  0  0  0  0  0
  -21.6052   -4.3056   24.7230 C   0  0  0  0  0  0
  -21.8814   -3.8160   23.4342 C   0  0  0  0  0  0
  -21.9179   -4.6979   22.3409 C   0  0  0  0  0  0
  -22.7842  -13.5236   21.1804 C   0  0  0  0  0  0
  -22.1645   -4.2173   21.0981 F   0  0  0  0  0  0
  -21.5626   -3.4528   25.7732 F   0  0  0  0  0  0
  -30.0564  -13.2409   20.4641 N   0  0  0  0  0  0
  -26.3067  -12.9332   20.3315 N   0  0  0  0  0  0
  -25.9325  -11.6499   20.5721 N   0  0  0  0  0  0
  -22.0469  -12.8266   22.0375 N   0  0  0  0  0  0
  -25.4309  -15.1917   20.4045 N   0  0  0  0  0  0
  -31.7082  -14.7895   20.0962 O   0  0  0  0  0  0
  -21.6629   -6.8895   21.4259 O   0  0  0  0  0  0
  -22.3506  -14.5528   20.6619 O   0  0  0  0  0  0
  -24.6172  -31.8663   23.2059 C   0  0  0  0  0  0
  -25.9069  -32.4823   23.8322 C   0  0  1  0  0  0
  -27.2682  -27.4339   20.0839 C   0  0  0  0  0  0
  -25.5930  -33.8623   24.2262 N   0  0  0  0  0  0
  -23.4041  -30.4913   21.5426 C   0  0  2  0  0  0
  -24.8586  -28.9547   20.1130 C   0  0  0  0  0  0
  -22.7393  -29.4682   22.4907 C   0  0  0  0  0  0
  -18.0263  -28.1448   22.8450 C   0  0  0  0  0  0
  -24.1501  -36.7298   23.2637 C   0  0  0  0  0  0
  -25.9347  -30.8327   21.3592 C   0  0  0  0  0  0
  -26.0181  -29.4664   20.7079 C   0  0  0  0  0  0
  -27.2195  -28.7161   20.6901 C   0  0  0  0  0  0
  -26.0740  -26.9341   19.5058 C   0  0  0  0  0  0
  -24.8827  -27.6855   19.5128 C   0  0  0  0  0  0
  -23.6188  -29.8240   20.1576 C   0  0  0  0  0  0
  -25.4135  -36.3091   24.0304 C   0  0  1  0  0  0
  -20.5846  -28.3723   23.1299 C   0  0  2  0  0  0
  -20.6793  -26.9466   22.5414 C   0  0  0  0  0  0
  -19.5777  -26.6419   21.5214 C   0  0  0  0  0  0
  -18.1938  -26.7973   22.1603 C   0  0  0  0  0  0
  -19.1516  -28.8890   23.2877 C   0  0  0  0  0  0
  -18.9460  -30.1491   23.8901 C   0  0  0  0  0  0
  -17.6475  -30.6643   24.0594 C   0  0  0  0  0  0
  -25.9052  -34.9470   23.5072 C   0  0  0  0  0  0
  -16.5357  -29.9146   23.6364 C   0  0  0  0  0  0
  -16.7257  -28.6586   23.0312 C   0  0  0  0  0  0
  -26.4487  -31.6610   25.0660 C   0  0  0  0  0  0
  -25.3728  -31.3719   26.1379 C   0  0  0  0  0  0
  -27.0326  -30.3054   24.6059 C   0  0  0  0  0  0
  -27.6069  -32.4317   25.7423 C   0  0  0  0  0  0
  -27.5573  -37.1797   24.8455 C   0  0  0  0  0  0
  -21.4114  -29.3064   22.3667 N   0  0  0  0  0  0
  -26.4297  -37.3792   23.9387 N   0  0  0  0  0  0
  -24.6700  -31.0765   22.0953 N   0  0  0  0  0  0
  -23.4157  -28.8229   23.2966 O   0  0  0  0  0  0
  -28.4738  -26.7357   20.0803 O   0  0  0  0  0  0
  -26.5606  -34.8932   22.4622 O   0  0  0  0  0  0
  -23.5371  -32.1392   23.7484 O   0  0  0  0  0  0
  -30.6160  -17.5477   21.5977 C   0  0  0  0  0  0
  -30.0138  -16.4588   23.6993 C   0  0  0  0  0  0
  -30.2781  -18.8851   23.6406 C   0  0  0  0  0  0
  -30.3306  -16.3591   22.3294 C   0  0  0  0  0  0
  -30.5638  -18.8189   22.2486 C   0  0  0  0  0  0
  -29.9935  -17.7008   24.3483 C   0  0  0  0  0  0
  -30.3042  -22.3007   20.8209 C   0  0  0  0  0  0
  -29.9450  -20.7994   20.9101 C   0  0  0  0  0  0
  -31.6412  -22.7099   21.4584 C   0  0  0  0  0  0
  -31.6141  -20.5204   25.0777 C   0  0  0  0  0  0
  -28.6225  -25.3509   18.0842 C   0  0  0  0  0  0
  -30.2612  -20.1994   24.4203 C   0  0  0  0  0  0
  -29.7409  -24.5912   20.2434 C   0  0  0  0  0  0
  -28.5306  -25.3652   19.6205 C   0  0  1  0  0  0
  -29.4908  -23.1426   20.2762 N   0  0  0  0  0  0
  -30.8513  -20.0370   21.5580 N   0  0  0  0  0  0
  -30.2273  -15.0363   21.8060 N   0  0  0  0  0  0
  -28.9087  -20.3427   20.4145 O   0  0  0  0  0  0
  -29.6961  -17.7517   25.6693 F   0  0  0  0  0  0
  -31.4841  -12.5009   19.0729 H   0  0  0  0  0  0
  -30.3990  -11.3004   19.7179 H   0  0  0  0  0  0
  -29.7506  -11.8760   17.3700 H   0  0  0  0  0  0
  -29.6515  -13.5677   17.7840 H   0  0  0  0  0  0
  -27.8058  -11.3438   18.7269 H   0  0  0  0  0  0
  -27.3754  -12.7387   17.7667 H   0  0  0  0  0  0
  -27.7451  -14.2606   19.6393 H   0  0  0  0  0  0
  -28.6885  -11.8162   21.1945 H   0  0  0  0  0  0
  -28.4418  -13.3654   21.9138 H   0  0  0  0  0  0
  -25.2806   -9.5664   22.4727 H   0  0  0  0  0  0
  -24.0007   -7.4641   22.7483 H   0  0  0  0  0  0
  -21.0849   -8.8807   19.8964 H   0  0  0  0  0  0
  -22.3756  -10.9676   19.6132 H   0  0  0  0  0  0
  -21.2000   -7.6149   23.9767 H   0  0  0  0  0  0
  -21.1470   -6.0497   25.9101 H   0  0  0  0  0  0
  -22.0610   -2.7622   23.2843 H   0  0  0  0  0  0
  -22.4039  -11.9938   22.4829 H   0  0  0  0  0  0
  -21.1097  -13.1360   22.2584 H   0  0  0  0  0  0
  -24.6662  -15.8462   20.5260 H   0  0  0  0  0  0
  -26.2921  -15.6468   20.1259 H   0  0  0  0  0  0
  -26.7130  -32.5527   23.1064 H   0  0  0  0  0  0
  -25.0127  -33.9784   25.0432 H   0  0  0  0  0  0
  -22.6914  -31.3082   21.4010 H   0  0  0  0  0  0
  -23.3764  -35.9630   23.3340 H   0  0  0  0  0  0
  -24.3604  -36.8894   22.2047 H   0  0  0  0  0  0
  -23.7243  -37.6502   23.6652 H   0  0  0  0  0  0
  -26.0444  -31.6019   20.5938 H   0  0  0  0  0  0
  -26.8239  -30.8879   21.9755 H   0  0  0  0  0  0
  -28.1115  -29.1256   21.1415 H   0  0  0  0  0  0
  -26.0369  -25.9657   19.0314 H   0  0  0  0  0  0
  -23.9942  -27.2764   19.0541 H   0  0  0  0  0  0
  -23.7343  -30.6023   19.4020 H   0  0  0  0  0  0
  -22.7414  -29.2485   19.8579 H   0  0  0  0  0  0
  -25.1333  -36.1930   25.0795 H   0  0  0  0  0  0
  -20.9950  -28.3346   24.1413 H   0  0  0  0  0  0
  -20.5766  -26.2325   23.3598 H   0  0  0  0  0  0
  -21.6666  -26.7574   22.1181 H   0  0  0  0  0  0
  -19.6981  -25.6318   21.1271 H   0  0  0  0  0  0
  -19.6777  -27.3229   20.6745 H   0  0  0  0  0  0
  -17.4223  -26.6676   21.4012 H   0  0  0  0  0  0
  -18.0383  -26.0145   22.9033 H   0  0  0  0  0  0
  -19.7949  -30.7298   24.2278 H   0  0  0  0  0  0
  -17.5050  -31.6327   24.5195 H   0  0  0  0  0  0
  -15.5378  -30.3077   23.7711 H   0  0  0  0  0  0
  -15.8628  -28.0979   22.6959 H   0  0  0  0  0  0
  -24.5915  -30.7078   25.7667 H   0  0  0  0  0  0
  -24.8909  -32.2884   26.4806 H   0  0  0  0  0  0
  -25.8058  -30.8864   27.0132 H   0  0  0  0  0  0
  -26.2880  -29.6783   24.1155 H   0  0  0  0  0  0
  -27.4127  -29.7346   25.4537 H   0  0  0  0  0  0
  -27.8692  -30.4375   23.9197 H   0  0  0  0  0  0
  -27.2725  -33.3624   26.2021 H   0  0  0  0  0  0
  -28.3889  -32.6862   25.0253 H   0  0  0  0  0  0
  -28.0722  -31.8401   26.5313 H   0  0  0  0  0  0
  -28.2600  -38.0087   24.7540 H   0  0  0  0  0  0
  -28.1059  -36.2620   24.6275 H   0  0  0  0  0  0
  -27.2284  -37.1452   25.8855 H   0  0  0  0  0  0
  -20.9258  -29.8729   21.6853 H   0  0  0  0  0  0
  -26.0176  -38.2856   24.1432 H   0  0  0  0  0  0
  -30.8496  -17.4876   20.5439 H   0  0  0  0  0  0
  -29.7740  -15.5732   24.2720 H   0  0  0  0  0  0
  -31.5583  -22.6981   22.5460 H   0  0  0  0  0  0
  -31.9826  -23.7015   21.1652 H   0  0  0  0  0  0
  -32.4403  -22.0271   21.1700 H   0  0  0  0  0  0
  -31.5483  -21.4172   25.6961 H   0  0  0  0  0  0
  -32.3969  -20.6933   24.3388 H   0  0  0  0  0  0
  -31.9428  -19.7002   25.7180 H   0  0  0  0  0  0
  -28.5245  -24.3344   17.7031 H   0  0  0  0  0  0
  -29.5863  -25.7378   17.7534 H   0  0  0  0  0  0
  -27.8520  -25.9581   17.6107 H   0  0  0  0  0  0
  -29.4929  -20.1400   25.1931 H   0  0  0  0  0  0
  -29.9440  -21.0294   23.7906 H   0  0  0  0  0  0
  -29.9228  -24.9634   21.2530 H   0  0  0  0  0  0
  -30.6488  -24.8077   19.6744 H   0  0  0  0  0  0
  -27.6260  -24.8496   19.9423 H   0  0  0  0  0  0
  -31.6488  -20.5537   21.8992 H   0  0  0  0  0  0
  -29.5926  -14.4420   22.3174 H   0  0  0  0  0  0
  1 25  1  0  0  0
  1 30  2  0  0  0
  1 87  1  0  0  0
  2  3  1  0  0  0
  2 25  1  0  0  0
  2 90  1  0  0  0
  2 91  1  0  0  0
  3  4  1  0  0  0
  3 92  1  0  0  0
  3 93  1  0  0  0
  4  5  1  0  0  0
  4 94  1  0  0  0
  4 95  1  0  0  0
  5  6  1  0  0  0
  5 26  1  0  0  0
  5 96  1  0  0  0
  6 25  1  0  0  0
  6 97  1  0  0  0
  6 98  1  0  0  0
  7  8  2  0  0  0
  7 26  1  0  0  0
  7 29  1  0  0  0
  8  9  1  0  0  0
  8 22  1  0  0  0
  9 10  1  0  0  0
  9 27  2  0  0  0
 10 11  2  0  0  0
 10 15  1  0  0  0
 11 12  1  0  0  0
 11 99  1  0  0  0
 12 13  2  0  0  0
 12100  1  0  0  0
 13 14  1  0  0  0
 13 31  1  0  0  0
 14 15  2  0  0  0
 14101  1  0  0  0
 15102  1  0  0  0
 16 17  2  0  0  0
 16 21  1  0  0  0
 16 31  1  0  0  0
 17 18  1  0  0  0
 17103  1  0  0  0
 18 19  2  0  0  0
 18104  1  0  0  0
 19 20  1  0  0  0
 19 24  1  0  0  0
 20 21  2  0  0  0
 20105  1  0  0  0
 21 23  1  0  0  0
 22 28  1  0  0  0
 22 32  2  0  0  0
 26 27  1  0  0  0
 28106  1  0  0  0
 28107  1  0  0  0
 29108  1  0  0  0
 29109  1  0  0  0
 33 34  1  0  0  0
 33 66  1  0  0  0
 33 70  2  0  0  0
 34 36  1  0  0  0
 34 59  1  0  0  0
 34110  1  0  0  0
 35 44  2  0  0  0
 35 45  1  0  0  0
 35 68  1  0  0  0
 36 56  1  0  0  0
 36111  1  0  0  0
 37 39  1  0  0  0
 37 47  1  0  0  0
 37 66  1  0  0  0
 37112  1  0  0  0
 38 43  2  0  0  0
 38 46  1  0  0  0
 38 47  1  0  0  0
 39 64  1  0  0  0
 39 67  2  0  0  0
 40 52  1  0  0  0
 40 53  2  0  0  0
 40 58  1  0  0  0
 41113  1  0  0  0
 41114  1  0  0  0
 41115  1  0  0  0
 41 48  1  0  0  0
 42 43  1  0  0  0
 42 66  1  0  0  0
 42116  1  0  0  0
 42117  1  0  0  0
 43 44  1  0  0  0
 44118  1  0  0  0
 45 46  2  0  0  0
 45119  1  0  0  0
 46120  1  0  0  0
 47121  1  0  0  0
 47122  1  0  0  0
 48 56  1  0  0  0
 48 65  1  0  0  0
 48123  1  0  0  0
 49 50  1  0  0  0
 49 53  1  0  0  0
 49 64  1  0  0  0
 49124  1  0  0  0
 50 51  1  0  0  0
 50125  1  0  0  0
 50126  1  0  0  0
 51 52  1  0  0  0
 51127  1  0  0  0
 51128  1  0  0  0
 52129  1  0  0  0
 52130  1  0  0  0
 53 54  1  0  0  0
 54 55  2  0  0  0
 54131  1  0  0  0
 55 57  1  0  0  0
 55132  1  0  0  0
 56 69  2  0  0  0
 57 58  2  0  0  0
 57133  1  0  0  0
 58134  1  0  0  0
 59 60  1  0  0  0
 59 61  1  0  0  0
 59 62  1  0  0  0
 60135  1  0  0  0
 60136  1  0  0  0
 60137  1  0  0  0
 61138  1  0  0  0
 61139  1  0  0  0
 61140  1  0  0  0
 62141  1  0  0  0
 62142  1  0  0  0
 62143  1  0  0  0
 63 65  1  0  0  0
 63144  1  0  0  0
 63145  1  0  0  0
 63146  1  0  0  0
 64147  1  0  0  0
 65148  1  0  0  0
 68 84  1  0  0  0
 71 74  2  0  0  0
 71 75  1  0  0  0
 71149  1  0  0  0
 72 74  1  0  0  0
 72 76  2  0  0  0
 72150  1  0  0  0
 73 75  2  0  0  0
 73 76  1  0  0  0
 73 82  1  0  0  0
 74 87  1  0  0  0
 75 86  1  0  0  0
 76 89  1  0  0  0
 77 78  1  0  0  0
 77 79  1  0  0  0
 77 85  2  0  0  0
 78 86  1  0  0  0
 78 88  2  0  0  0
 79151  1  0  0  0
 79152  1  0  0  0
 79153  1  0  0  0
 80 82  1  0  0  0
 80154  1  0  0  0
 80155  1  0  0  0
 80156  1  0  0  0
 81157  1  0  0  0
 81158  1  0  0  0
 81159  1  0  0  0
 81 84  1  0  0  0
 82160  1  0  0  0
 82161  1  0  0  0
 83 84  1  0  0  0
 83 85  1  0  0  0
 83162  1  0  0  0
 83163  1  0  0  0
 84164  1  0  0  0
 86165  1  0  0  0
 87166  1  0  0  0
M  ISO  4   1 100  68 101  84 101  87 100
M  END
> <chiral flag>
0

> <version>
0

> <s_m_source_file>
/data/baiqing/PycharmProjects/Reinvent-master-3.2/result/LINK_invent/BTK/process_docking_weight1_custom_product_contain_oxygen_bond_distance_aromatic_linkinvent_7_9_3/rearranged_h_0172.sdf

> <i_m_source_file_index>
93

> <r_mmod_Potential_Energy-OPLS-2005>
43.8069801330566

> <r_mmod_Stretch_Energy-OPLS-2005>
52.5108680725098

> <r_mmod_Bend_Energy-OPLS-2005>
133.741287231445

> <r_mmod_Torsional_Energy-OPLS-2005>
247.816314697266

> <r_mmod_Improper_Torsional_Energy-OPLS-2005>
4.86065483093262

> <r_mmod_Van_der_Waal_Energy-OPLS-2005>
160.845184326172

> <r_mmod_Electrostatic_Energy-OPLS-2005>
-324.071258544922

> <r_mmod_Solvation_Energy-OPLS-2005>
-245.111862182617

> <b_mmod_Minimization_Converged-OPLS-2005>
0

> <r_mmod_RMS_Derivative-OPLS-2005>
4.00900840759277

$$$$
93
                    3D
 Structure written by MMmdl.
156164  0  0  1  0            999 V2000
  -30.7737  -14.3533   20.6743 C   0  0  0  0  0  0
  -30.4084  -12.2745   19.3892 C   0  0  0  0  0  0
  -29.4783  -12.5220   18.1889 C   0  0  0  0  0  0
  -28.0013  -12.3879   18.6059 C   0  0  0  0  0  0
  -27.6664  -13.2023   19.8825 C   0  0  2  0  0  0
  -28.7070  -12.9381   20.9935 C   0  0  0  0  0  0
  -25.2606  -13.8169   20.5682 C   0  0  0  0  0  0
  -24.1840  -13.0453   20.9153 C   0  0  0  0  0  0
  -24.6380  -11.6913   20.8723 C   0  0  0  0  0  0
  -23.9047  -10.4294   21.0405 C   0  0  0  0  0  0
  -24.3602   -9.4213   21.9187 C   0  0  0  0  0  0
  -23.6281   -8.2248   22.0760 C   0  0  0  0  0  0
  -22.4266   -8.0287   21.3553 C   0  0  0  0  0  0
  -21.9899   -9.0258   20.4656 C   0  0  0  0  0  0
  -22.7218  -10.2139   20.3059 C   0  0  0  0  0  0
  -21.6852   -6.0736   22.5281 C   0  0  0  0  0  0
  -21.4014   -6.5643   23.8209 C   0  0  0  0  0  0
  -21.3656   -5.6799   24.9170 C   0  0  0  0  0  0
  -21.6042   -4.3062   24.7234 C   0  0  0  0  0  0
  -21.8815   -3.8156   23.4353 C   0  0  0  0  0  0
  -21.9186   -4.6965   22.3404 C   0  0  0  0  0  0
  -22.7858  -13.5258   21.1813 C   0  0  0  0  0  0
  -22.1652   -4.2146   21.0981 F   0  0  0  0  0  0
  -21.5623   -3.4548   25.7748 F   0  0  0  0  0  0
  -30.0443  -13.2294   20.4462 N   0  0  0  0  0  0
  -26.3043  -12.9327   20.3410 N   0  0  0  0  0  0
  -25.9303  -11.6487   20.5768 N   0  0  0  0  0  0
  -22.0488  -12.8271   22.0379 N   0  0  0  0  0  0
  -25.4389  -15.1881   20.4075 N   0  0  0  0  0  0
  -31.8212  -14.5799   20.0606 O   0  0  0  0  0  0
  -21.6640   -6.8880   21.4243 O   0  0  0  0  0  0
  -22.3536  -14.5545   20.6626 O   0  0  0  0  0  0
  -24.6106  -31.8718   23.2118 C   0  0  0  0  0  0
  -25.9016  -32.4841   23.8396 C   0  0  1  0  0  0
  -27.2308  -27.4704   20.0887 C   0  0  0  0  0  0
  -25.5889  -33.8637   24.2338 N   0  0  0  0  0  0
  -23.3954  -30.4972   21.5525 C   0  0  2  0  0  0
  -24.8388  -28.9643   20.1173 C   0  0  0  0  0  0
  -22.7370  -29.4702   22.5011 C   0  0  0  0  0  0
  -18.0261  -28.1378   22.8492 C   0  0  0  0  0  0
  -24.1489  -36.7318   23.2639 C   0  0  0  0  0  0
  -25.9197  -30.8493   21.3587 C   0  0  0  0  0  0
  -25.9971  -29.4856   20.7074 C   0  0  0  0  0  0
  -27.1972  -28.7461   20.6873 C   0  0  0  0  0  0
  -26.0565  -26.9537   19.4983 C   0  0  0  0  0  0
  -24.8613  -27.6967   19.5108 C   0  0  0  0  0  0
  -23.5997  -29.8275   20.1670 C   0  0  0  0  0  0
  -25.4108  -36.3128   24.0343 C   0  0  1  0  0  0
  -20.5848  -28.3680   23.1320 C   0  0  2  0  0  0
  -20.6765  -26.9421   22.5411 C   0  0  0  0  0  0
  -19.5745  -26.6393   21.5208 C   0  0  0  0  0  0
  -18.1928  -26.7919   22.1631 C   0  0  0  0  0  0
  -19.1506  -28.8835   23.2904 C   0  0  0  0  0  0
  -18.9435  -30.1441   23.8922 C   0  0  0  0  0  0
  -17.6436  -30.6586   24.0568 C   0  0  0  0  0  0
  -25.9028  -34.9491   23.5142 C   0  0  0  0  0  0
  -16.5328  -29.9092   23.6320 C   0  0  0  0  0  0
  -16.7248  -28.6507   23.0343 C   0  0  0  0  0  0
  -26.4455  -31.6601   25.0706 C   0  0  0  0  0  0
  -25.3724  -31.3691   26.1458 C   0  0  0  0  0  0
  -27.0275  -30.3056   24.6043 C   0  0  0  0  0  0
  -27.6051  -32.4306   25.7456 C   0  0  0  0  0  0
  -27.5583  -37.1817   24.8465 C   0  0  0  0  0  0
  -21.4105  -29.3063   22.3740 N   0  0  0  0  0  0
  -26.4299  -37.3805   23.9407 N   0  0  0  0  0  0
  -24.6596  -31.0864   22.0992 N   0  0  0  0  0  0
  -23.4161  -28.8238   23.3038 O   0  0  0  0  0  0
  -28.4184  -26.7823   20.0691 O   0  0  0  0  0  0
  -26.5590  -34.8937   22.4705 O   0  0  0  0  0  0
  -23.5316  -32.1455   23.7546 O   0  0  0  0  0  0
  -29.6886  -18.8484   21.1387 C   0  0  0  0  0  0
  -28.7824  -18.9196   23.7847 C   0  0  0  0  0  0
  -29.6365  -17.6424   21.8702 C   0  0  0  0  0  0
  -29.2857  -20.0714   21.6998 C   0  0  0  0  0  0
  -29.1706  -17.6854   23.2183 C   0  0  0  0  0  0
  -28.8428  -20.1116   23.0386 C   0  0  0  0  0  0
  -30.1034  -16.4390   21.1295 C   0  0  0  0  0  0
  -29.0188  -23.1570   19.5733 C   0  0  0  0  0  0
  -28.5007  -22.1689   20.6485 C   0  0  0  0  0  0
  -28.2203  -24.4392   19.3526 C   0  0  0  0  0  0
  -28.3774  -25.4305   20.5181 C   0  0  0  0  0  0
  -30.2022  -15.2436   21.5668 N   0  0  0  0  0  0
  -29.0959  -16.5495   24.0313 N   0  0  0  0  0  0
  -29.4191  -21.2263   20.8955 N   0  0  0  0  0  0
  -30.0351  -22.9277   18.9042 O   0  0  0  0  0  0
  -27.3868  -22.2518   21.1755 O   0  0  0  0  0  0
  -28.5141  -21.2858   23.6296 F   0  0  0  0  0  0
  -31.4503  -12.3533   19.0760 H   0  0  0  0  0  0
  -30.2912  -11.2532   19.7560 H   0  0  0  0  0  0
  -29.7021  -11.8219   17.3828 H   0  0  0  0  0  0
  -29.6572  -13.5214   17.7885 H   0  0  0  0  0  0
  -27.7911  -11.3306   18.7722 H   0  0  0  0  0  0
  -27.3540  -12.6973   17.7845 H   0  0  0  0  0  0
  -27.7276  -14.2579   19.6159 H   0  0  0  0  0  0
  -28.6678  -11.8942   21.3071 H   0  0  0  0  0  0
  -28.4651  -13.5163   21.8861 H   0  0  0  0  0  0
  -25.2744   -9.5687   22.4761 H   0  0  0  0  0  0
  -23.9991   -7.4641   22.7477 H   0  0  0  0  0  0
  -21.0832   -8.8770   19.8964 H   0  0  0  0  0  0
  -22.3675  -10.9675   19.6171 H   0  0  0  0  0  0
  -21.2007   -7.6153   23.9713 H   0  0  0  0  0  0
  -21.1478   -6.0529   25.9069 H   0  0  0  0  0  0
  -22.0594   -2.7622   23.2855 H   0  0  0  0  0  0
  -22.4104  -11.9945   22.4788 H   0  0  0  0  0  0
  -21.1111  -13.1315   22.2587 H   0  0  0  0  0  0
  -24.6862  -15.8584   20.5173 H   0  0  0  0  0  0
  -26.3150  -15.6160   20.1333 H   0  0  0  0  0  0
  -26.7095  -32.5592   23.1171 H   0  0  0  0  0  0
  -25.0030  -33.9802   25.0482 H   0  0  0  0  0  0
  -22.6832  -31.3134   21.4155 H   0  0  0  0  0  0
  -23.3752  -35.9653   23.3318 H   0  0  0  0  0  0
  -24.3576  -36.8912   22.2049 H   0  0  0  0  0  0
  -23.7245  -37.6532   23.6629 H   0  0  0  0  0  0
  -26.0266  -31.6170   20.5909 H   0  0  0  0  0  0
  -26.8107  -30.9029   21.9728 H   0  0  0  0  0  0
  -28.0960  -29.1470   21.1358 H   0  0  0  0  0  0
  -26.0569  -25.9940   19.0074 H   0  0  0  0  0  0
  -23.9708  -27.2941   19.0484 H   0  0  0  0  0  0
  -23.7058  -30.6006   19.4053 H   0  0  0  0  0  0
  -22.7239  -29.2443   19.8744 H   0  0  0  0  0  0
  -25.1293  -36.1989   25.0837 H   0  0  0  0  0  0
  -20.9937  -28.3246   24.1439 H   0  0  0  0  0  0
  -20.5676  -26.2288   23.3595 H   0  0  0  0  0  0
  -21.6640  -26.7482   22.1202 H   0  0  0  0  0  0
  -19.6913  -25.6306   21.1236 H   0  0  0  0  0  0
  -19.6672  -27.3211   20.6740 H   0  0  0  0  0  0
  -17.4193  -26.6644   21.4042 H   0  0  0  0  0  0
  -18.0349  -26.0066   22.9035 H   0  0  0  0  0  0
  -19.7907  -30.7250   24.2320 H   0  0  0  0  0  0
  -17.4989  -31.6265   24.5173 H   0  0  0  0  0  0
  -15.5331  -30.3003   23.7625 H   0  0  0  0  0  0
  -15.8651  -28.0828   22.7050 H   0  0  0  0  0  0
  -24.5903  -30.7035   25.7772 H   0  0  0  0  0  0
  -24.8907  -32.2846   26.4909 H   0  0  0  0  0  0
  -25.8089  -30.8844   27.0203 H   0  0  0  0  0  0
  -26.2800  -29.6830   24.1109 H   0  0  0  0  0  0
  -27.4071  -29.7275   25.4477 H   0  0  0  0  0  0
  -27.8620  -30.4387   23.9156 H   0  0  0  0  0  0
  -27.2684  -33.3596   26.2070 H   0  0  0  0  0  0
  -28.3830  -32.6883   25.0252 H   0  0  0  0  0  0
  -28.0741  -31.8395   26.5334 H   0  0  0  0  0  0
  -28.2623  -38.0096   24.7514 H   0  0  0  0  0  0
  -28.1068  -36.2637   24.6300 H   0  0  0  0  0  0
  -27.2299  -37.1476   25.8867 H   0  0  0  0  0  0
  -20.9256  -29.8775   21.6960 H   0  0  0  0  0  0
  -26.0198  -38.2892   24.1395 H   0  0  0  0  0  0
  -30.0446  -18.8425   20.1178 H   0  0  0  0  0  0
  -28.4523  -18.9700   24.8121 H   0  0  0  0  0  0
  -30.3862  -16.6643   20.0937 H   0  0  0  0  0  0
  -28.5805  -24.8919   18.4300 H   0  0  0  0  0  0
  -27.1746  -24.1805   19.1962 H   0  0  0  0  0  0
  -27.5922  -25.2809   21.2616 H   0  0  0  0  0  0
  -29.3194  -25.2586   21.0413 H   0  0  0  0  0  0
  -28.4581  -16.5365   24.8209 H   0  0  0  0  0  0
  -29.2082  -15.6441   23.5802 H   0  0  0  0  0  0
  -30.2165  -21.2809   20.2742 H   0  0  0  0  0  0
  1 25  1  0  0  0
  1 30  2  0  0  0
  1 82  1  0  0  0
  2  3  1  0  0  0
  2 25  1  0  0  0
  2 88  1  0  0  0
  2 89  1  0  0  0
  3  4  1  0  0  0
  3 90  1  0  0  0
  3 91  1  0  0  0
  4  5  1  0  0  0
  4 92  1  0  0  0
  4 93  1  0  0  0
  5  6  1  0  0  0
  5 26  1  0  0  0
  5 94  1  0  0  0
  6 25  1  0  0  0
  6 95  1  0  0  0
  6 96  1  0  0  0
  7  8  2  0  0  0
  7 26  1  0  0  0
  7 29  1  0  0  0
  8  9  1  0  0  0
  8 22  1  0  0  0
  9 10  1  0  0  0
  9 27  2  0  0  0
 10 11  2  0  0  0
 10 15  1  0  0  0
 11 12  1  0  0  0
 11 97  1  0  0  0
 12 13  2  0  0  0
 12 98  1  0  0  0
 13 14  1  0  0  0
 13 31  1  0  0  0
 14 15  2  0  0  0
 14 99  1  0  0  0
 15100  1  0  0  0
 16 17  2  0  0  0
 16 21  1  0  0  0
 16 31  1  0  0  0
 17 18  1  0  0  0
 17101  1  0  0  0
 18 19  2  0  0  0
 18102  1  0  0  0
 19 20  1  0  0  0
 19 24  1  0  0  0
 20 21  2  0  0  0
 20103  1  0  0  0
 21 23  1  0  0  0
 22 28  1  0  0  0
 22 32  2  0  0  0
 26 27  1  0  0  0
 28104  1  0  0  0
 28105  1  0  0  0
 29106  1  0  0  0
 29107  1  0  0  0
 33 34  1  0  0  0
 33 66  1  0  0  0
 33 70  2  0  0  0
 34 36  1  0  0  0
 34 59  1  0  0  0
 34108  1  0  0  0
 35 44  2  0  0  0
 35 45  1  0  0  0
 35 68  1  0  0  0
 36 56  1  0  0  0
 36109  1  0  0  0
 37 39  1  0  0  0
 37 47  1  0  0  0
 37 66  1  0  0  0
 37110  1  0  0  0
 38 43  2  0  0  0
 38 46  1  0  0  0
 38 47  1  0  0  0
 39 64  1  0  0  0
 39 67  2  0  0  0
 40 52  1  0  0  0
 40 53  2  0  0  0
 40 58  1  0  0  0
 41111  1  0  0  0
 41112  1  0  0  0
 41113  1  0  0  0
 41 48  1  0  0  0
 42 43  1  0  0  0
 42 66  1  0  0  0
 42114  1  0  0  0
 42115  1  0  0  0
 43 44  1  0  0  0
 44116  1  0  0  0
 45 46  2  0  0  0
 45117  1  0  0  0
 46118  1  0  0  0
 47119  1  0  0  0
 47120  1  0  0  0
 48 56  1  0  0  0
 48 65  1  0  0  0
 48121  1  0  0  0
 49 50  1  0  0  0
 49 53  1  0  0  0
 49 64  1  0  0  0
 49122  1  0  0  0
 50 51  1  0  0  0
 50123  1  0  0  0
 50124  1  0  0  0
 51 52  1  0  0  0
 51125  1  0  0  0
 51126  1  0  0  0
 52127  1  0  0  0
 52128  1  0  0  0
 53 54  1  0  0  0
 54 55  2  0  0  0
 54129  1  0  0  0
 55 57  1  0  0  0
 55130  1  0  0  0
 56 69  2  0  0  0
 57 58  2  0  0  0
 57131  1  0  0  0
 58132  1  0  0  0
 59 60  1  0  0  0
 59 61  1  0  0  0
 59 62  1  0  0  0
 60133  1  0  0  0
 60134  1  0  0  0
 60135  1  0  0  0
 61136  1  0  0  0
 61137  1  0  0  0
 61138  1  0  0  0
 62139  1  0  0  0
 62140  1  0  0  0
 62141  1  0  0  0
 63 65  1  0  0  0
 63142  1  0  0  0
 63143  1  0  0  0
 63144  1  0  0  0
 64145  1  0  0  0
 65146  1  0  0  0
 68 81  1  0  0  0
 71 73  2  0  0  0
 71 74  1  0  0  0
 71147  1  0  0  0
 72 75  2  0  0  0
 72 76  1  0  0  0
 72148  1  0  0  0
 73 75  1  0  0  0
 73 77  1  0  0  0
 74 76  2  0  0  0
 74 84  1  0  0  0
 75 83  1  0  0  0
 76 87  1  0  0  0
 77 82  2  0  0  0
 77149  1  0  0  0
 78 79  1  0  0  0
 78 80  1  0  0  0
 78 85  2  0  0  0
 79 84  1  0  0  0
 79 86  2  0  0  0
 80 81  1  0  0  0
 80150  1  0  0  0
 80151  1  0  0  0
 81152  1  0  0  0
 81153  1  0  0  0
 83154  1  0  0  0
 83155  1  0  0  0
 84156  1  0  0  0
M  ISO  4   1 100  68 101  81 101  82 100
M  END
> <chiral flag>
0

> <version>
0

> <s_m_source_file>
/data/baiqing/PycharmProjects/Reinvent-master-3.2/result/LINK_invent/BTK/process_docking_weight1_custom_product_contain_oxygen_bond_distance_aromatic_linkinvent_7_9_3/rearranged_h_0172.sdf

> <i_m_source_file_index>
94

> <r_mmod_Potential_Energy-OPLS-2005>
-19.6386947631836

> <r_mmod_Stretch_Energy-OPLS-2005>
33.7463073730469

> <r_mmod_Bend_Energy-OPLS-2005>
104.930191040039

> <r_mmod_Torsional_Energy-OPLS-2005>
210.316131591797

> <r_mmod_Improper_Torsional_Energy-OPLS-2005>
5.43825817108154

> <r_mmod_Van_der_Waal_Energy-OPLS-2005>
175.561889648438

> <r_mmod_Electrostatic_Energy-OPLS-2005>
-338.325805664062

> <r_mmod_Solvation_Energy-OPLS-2005>
-219.118576049805

> <b_mmod_Minimization_Converged-OPLS-2005>
0

> <r_mmod_RMS_Derivative-OPLS-2005>
1.65105473995209

$$$$
94
                    3D
 Structure written by MMmdl.
160168  0  0  1  0            999 V2000
  -30.5979  -14.4015   20.6916 C   0  0  0  0  0  0
  -30.4683  -12.3244   19.3766 C   0  0  0  0  0  0
  -29.5134  -12.5327   18.1829 C   0  0  0  0  0  0
  -28.0285  -12.3843   18.5831 C   0  0  0  0  0  0
  -27.6724  -13.1699   19.8754 C   0  0  2  0  0  0
  -28.6907  -12.7959   20.9670 C   0  0  0  0  0  0
  -25.2624  -13.8027   20.5481 C   0  0  0  0  0  0
  -24.1882  -13.0404   20.9132 C   0  0  0  0  0  0
  -24.6424  -11.6847   20.8721 C   0  0  0  0  0  0
  -23.9069  -10.4274   21.0426 C   0  0  0  0  0  0
  -24.3642   -9.4166   21.9196 C   0  0  0  0  0  0
  -23.6297   -8.2211   22.0769 C   0  0  0  0  0  0
  -22.4264   -8.0274   21.3565 C   0  0  0  0  0  0
  -21.9910   -9.0236   20.4649 C   0  0  0  0  0  0
  -22.7264  -10.2108   20.3043 C   0  0  0  0  0  0
  -21.6815   -6.0745   22.5284 C   0  0  0  0  0  0
  -21.4022   -6.5619   23.8239 C   0  0  0  0  0  0
  -21.3649   -5.6745   24.9174 C   0  0  0  0  0  0
  -21.6029   -4.3017   24.7212 C   0  0  0  0  0  0
  -21.8831   -3.8145   23.4324 C   0  0  0  0  0  0
  -21.9201   -4.6978   22.3394 C   0  0  0  0  0  0
  -22.7908  -13.5185   21.1777 C   0  0  0  0  0  0
  -22.1646   -4.2155   21.0986 F   0  0  0  0  0  0
  -21.5610   -3.4503   25.7730 F   0  0  0  0  0  0
  -30.0231  -13.1925   20.4744 N   0  0  0  0  0  0
  -26.3050  -12.9152   20.3185 N   0  0  0  0  0  0
  -25.9302  -11.6343   20.5619 N   0  0  0  0  0  0
  -22.0484  -12.8269   22.0392 N   0  0  0  0  0  0
  -25.4223  -15.1787   20.3695 N   0  0  0  0  0  0
  -31.6773  -14.7467   20.1882 O   0  0  0  0  0  0
  -21.6593   -6.8904   21.4257 O   0  0  0  0  0  0
  -22.3621  -14.5508   20.6598 O   0  0  0  0  0  0
  -24.6190  -31.8652   23.2089 C   0  0  0  0  0  0
  -25.9124  -32.4807   23.8330 C   0  0  1  0  0  0
  -27.2421  -27.4748   20.0396 C   0  0  0  0  0  0
  -25.6036  -33.8618   24.2324 N   0  0  0  0  0  0
  -23.4018  -30.4897   21.5484 C   0  0  2  0  0  0
  -24.8441  -28.9526   20.1070 C   0  0  0  0  0  0
  -22.7398  -29.4714   22.5045 C   0  0  0  0  0  0
  -18.0280  -28.1490   22.8321 C   0  0  0  0  0  0
  -24.1516  -36.7312   23.2639 C   0  0  0  0  0  0
  -25.9293  -30.8291   21.3635 C   0  0  0  0  0  0
  -26.0043  -29.4721   20.6937 C   0  0  0  0  0  0
  -27.2079  -28.7398   20.6565 C   0  0  0  0  0  0
  -26.0703  -26.9546   19.4534 C   0  0  0  0  0  0
  -24.8711  -27.6948   19.4762 C   0  0  0  0  0  0
  -23.6029  -29.8118   20.1648 C   0  0  0  0  0  0
  -25.4132  -36.3095   24.0329 C   0  0  1  0  0  0
  -20.5846  -28.3755   23.1313 C   0  0  2  0  0  0
  -20.6836  -26.9473   22.5436 C   0  0  0  0  0  0
  -19.5880  -26.6161   21.5291 C   0  0  0  0  0  0
  -18.1863  -26.8186   22.1158 C   0  0  0  0  0  0
  -19.1515  -28.8863   23.2868 C   0  0  0  0  0  0
  -18.9403  -30.1383   23.9005 C   0  0  0  0  0  0
  -17.6422  -30.6545   24.0700 C   0  0  0  0  0  0
  -25.9053  -34.9482   23.5109 C   0  0  0  0  0  0
  -16.5319  -29.9155   23.6283 C   0  0  0  0  0  0
  -16.7241  -28.6642   23.0153 C   0  0  0  0  0  0
  -26.4484  -31.6578   25.0643 C   0  0  0  0  0  0
  -25.3742  -31.3688   26.1404 C   0  0  0  0  0  0
  -27.0414  -30.3046   24.6029 C   0  0  0  0  0  0
  -27.6000  -32.4322   25.7417 C   0  0  0  0  0  0
  -27.5622  -37.1810   24.8464 C   0  0  0  0  0  0
  -21.4128  -29.3172   22.3862 N   0  0  0  0  0  0
  -26.4329  -37.3787   23.9379 N   0  0  0  0  0  0
  -24.6658  -31.0778   22.0950 N   0  0  0  0  0  0
  -23.4178  -28.8234   23.3069 O   0  0  0  0  0  0
  -28.4305  -26.7895   19.9771 O   0  0  0  0  0  0
  -26.5565  -34.8953   22.4645 O   0  0  0  0  0  0
  -23.5403  -32.1494   23.7503 O   0  0  0  0  0  0
  -29.0933  -17.5340   20.9022 C   0  0  0  0  0  0
  -31.1337  -17.1535   22.1485 C   0  0  0  0  0  0
  -29.3561  -18.9310   20.9378 C   0  0  0  0  0  0
  -30.0065  -16.6339   21.4959 C   0  0  0  0  0  0
  -30.5060  -19.3281   21.6704 C   0  0  0  0  0  0
  -27.6470  -20.5889   21.3343 C   0  0  0  0  0  0
  -28.9150  -24.4222   19.5077 C   0  0  0  0  0  0
  -29.8687  -22.0027   19.2379 C   0  0  0  0  0  0
  -26.1394  -20.4190   21.2178 C   0  0  0  0  0  0
  -29.4997  -23.1667   20.1803 C   0  0  0  0  0  0
  -28.3892  -25.4662   20.5020 C   0  0  0  0  0  0
  -28.4908  -19.9223   20.2097 C   0  0  1  0  0  0
  -31.3652  -18.4730   22.2510 N   0  0  0  0  0  0
  -29.8381  -15.2333   21.4314 N   0  0  0  0  0  0
  -29.3852  -20.7406   19.3443 N   0  0  0  0  0  0
  -28.1085  -21.1406   22.3341 O   0  0  0  0  0  0
  -28.8588  -24.5962   18.2852 O   0  0  0  0  0  0
  -30.7338  -22.1914   18.3794 O   0  0  0  0  0  0
  -30.8167  -20.6410   21.7989 F   0  0  0  0  0  0
  -31.4926  -12.5475   19.0747 H   0  0  0  0  0  0
  -30.4776  -11.2812   19.6912 H   0  0  0  0  0  0
  -29.7592  -11.8223   17.3913 H   0  0  0  0  0  0
  -29.6783  -13.5243   17.7621 H   0  0  0  0  0  0
  -27.8311  -11.3191   18.7291 H   0  0  0  0  0  0
  -27.3915  -12.6992   17.7534 H   0  0  0  0  0  0
  -27.7617  -14.2372   19.6634 H   0  0  0  0  0  0
  -28.6799  -11.7099   21.0958 H   0  0  0  0  0  0
  -28.4237  -13.1938   21.9488 H   0  0  0  0  0  0
  -25.2813   -9.5582   22.4740 H   0  0  0  0  0  0
  -23.9952   -7.4583   22.7510 H   0  0  0  0  0  0
  -21.0814   -8.8821   19.8962 H   0  0  0  0  0  0
  -22.3800  -10.9650   19.6120 H   0  0  0  0  0  0
  -21.2026   -7.6124   23.9747 H   0  0  0  0  0  0
  -21.1434   -6.0471   25.9088 H   0  0  0  0  0  0
  -22.0648   -2.7602   23.2820 H   0  0  0  0  0  0
  -22.3996  -11.9945   22.4841 H   0  0  0  0  0  0
  -21.1107  -13.1397   22.2467 H   0  0  0  0  0  0
  -24.6068  -15.7798   20.3788 H   0  0  0  0  0  0
  -26.2021  -15.5850   19.8654 H   0  0  0  0  0  0
  -26.7194  -32.5495   23.1093 H   0  0  0  0  0  0
  -25.0289  -33.9719   25.0544 H   0  0  0  0  0  0
  -22.6982  -31.3143   21.4030 H   0  0  0  0  0  0
  -23.3799  -35.9660   23.3313 H   0  0  0  0  0  0
  -24.3571  -36.8873   22.2047 H   0  0  0  0  0  0
  -23.7303  -37.6524   23.6640 H   0  0  0  0  0  0
  -26.0762  -31.6033   20.6031 H   0  0  0  0  0  0
  -26.8029  -30.8542   22.0039 H   0  0  0  0  0  0
  -28.1232  -29.1462   21.0724 H   0  0  0  0  0  0
  -26.0846  -25.9934   18.9501 H   0  0  0  0  0  0
  -23.9817  -27.3089   18.9905 H   0  0  0  0  0  0
  -23.7046  -30.5694   19.3857 H   0  0  0  0  0  0
  -22.7281  -29.2155   19.8931 H   0  0  0  0  0  0
  -25.1361  -36.1930   25.0834 H   0  0  0  0  0  0
  -20.9898  -28.3382   24.1464 H   0  0  0  0  0  0
  -20.5876  -26.2455   23.3772 H   0  0  0  0  0  0
  -21.6739  -26.7647   22.1185 H   0  0  0  0  0  0
  -19.7017  -25.5872   21.1756 H   0  0  0  0  0  0
  -19.7127  -27.2541   20.6543 H   0  0  0  0  0  0
  -17.4578  -26.7614   21.3043 H   0  0  0  0  0  0
  -17.9405  -26.0092   22.8019 H   0  0  0  0  0  0
  -19.7843  -30.7086   24.2630 H   0  0  0  0  0  0
  -17.4987  -31.6151   24.5429 H   0  0  0  0  0  0
  -15.5318  -30.3021   23.7654 H   0  0  0  0  0  0
  -15.8633  -28.1030   22.6743 H   0  0  0  0  0  0
  -24.5797  -30.7199   25.7702 H   0  0  0  0  0  0
  -24.9108  -32.2884   26.4980 H   0  0  0  0  0  0
  -25.8086  -30.8647   27.0067 H   0  0  0  0  0  0
  -26.2984  -29.6614   24.1276 H   0  0  0  0  0  0
  -27.4483  -29.7445   25.4472 H   0  0  0  0  0  0
  -27.8693  -30.4419   23.9066 H   0  0  0  0  0  0
  -27.2516  -33.3556   26.2102 H   0  0  0  0  0  0
  -28.3738  -32.6996   25.0200 H   0  0  0  0  0  0
  -28.0799  -31.8384   26.5202 H   0  0  0  0  0  0
  -28.2647  -38.0100   24.7525 H   0  0  0  0  0  0
  -28.1102  -36.2627   24.6316 H   0  0  0  0  0  0
  -27.2293  -37.1515   25.8849 H   0  0  0  0  0  0
  -20.9320  -29.9058   21.7225 H   0  0  0  0  0  0
  -26.0226  -38.2896   24.1291 H   0  0  0  0  0  0
  -28.2285  -17.1560   20.3663 H   0  0  0  0  0  0
  -31.8591  -16.5020   22.6150 H   0  0  0  0  0  0
  -25.8711  -19.3988   21.4892 H   0  0  0  0  0  0
  -25.8268  -20.6207   20.1909 H   0  0  0  0  0  0
  -25.6205  -21.0984   21.8902 H   0  0  0  0  0  0
  -28.7826  -22.8862   20.9329 H   0  0  0  0  0  0
  -30.3864  -23.4756   20.7284 H   0  0  0  0  0  0
  -29.0447  -25.4518   21.3744 H   0  0  0  0  0  0
  -27.3828  -25.2022   20.8345 H   0  0  0  0  0  0
  -27.8090  -19.4037   19.5313 H   0  0  0  0  0  0
  -29.0069  -14.8292   21.8508 H   0  0  0  0  0  0
  -29.8009  -20.1592   18.6345 H   0  0  0  0  0  0
  1 25  1  0  0  0
  1 30  2  0  0  0
  1 84  1  0  0  0
  2  3  1  0  0  0
  2 25  1  0  0  0
  2 90  1  0  0  0
  2 91  1  0  0  0
  3  4  1  0  0  0
  3 92  1  0  0  0
  3 93  1  0  0  0
  4  5  1  0  0  0
  4 94  1  0  0  0
  4 95  1  0  0  0
  5  6  1  0  0  0
  5 26  1  0  0  0
  5 96  1  0  0  0
  6 25  1  0  0  0
  6 97  1  0  0  0
  6 98  1  0  0  0
  7  8  2  0  0  0
  7 26  1  0  0  0
  7 29  1  0  0  0
  8  9  1  0  0  0
  8 22  1  0  0  0
  9 10  1  0  0  0
  9 27  2  0  0  0
 10 11  2  0  0  0
 10 15  1  0  0  0
 11 12  1  0  0  0
 11 99  1  0  0  0
 12 13  2  0  0  0
 12100  1  0  0  0
 13 14  1  0  0  0
 13 31  1  0  0  0
 14 15  2  0  0  0
 14101  1  0  0  0
 15102  1  0  0  0
 16 17  2  0  0  0
 16 21  1  0  0  0
 16 31  1  0  0  0
 17 18  1  0  0  0
 17103  1  0  0  0
 18 19  2  0  0  0
 18104  1  0  0  0
 19 20  1  0  0  0
 19 24  1  0  0  0
 20 21  2  0  0  0
 20105  1  0  0  0
 21 23  1  0  0  0
 22 28  1  0  0  0
 22 32  2  0  0  0
 26 27  1  0  0  0
 28106  1  0  0  0
 28107  1  0  0  0
 29108  1  0  0  0
 29109  1  0  0  0
 33 34  1  0  0  0
 33 66  1  0  0  0
 33 70  2  0  0  0
 34 36  1  0  0  0
 34 59  1  0  0  0
 34110  1  0  0  0
 35 44  2  0  0  0
 35 45  1  0  0  0
 35 68  1  0  0  0
 36 56  1  0  0  0
 36111  1  0  0  0
 37 39  1  0  0  0
 37 47  1  0  0  0
 37 66  1  0  0  0
 37112  1  0  0  0
 38 43  2  0  0  0
 38 46  1  0  0  0
 38 47  1  0  0  0
 39 64  1  0  0  0
 39 67  2  0  0  0
 40 52  1  0  0  0
 40 53  2  0  0  0
 40 58  1  0  0  0
 41113  1  0  0  0
 41114  1  0  0  0
 41115  1  0  0  0
 41 48  1  0  0  0
 42 43  1  0  0  0
 42 66  1  0  0  0
 42116  1  0  0  0
 42117  1  0  0  0
 43 44  1  0  0  0
 44118  1  0  0  0
 45 46  2  0  0  0
 45119  1  0  0  0
 46120  1  0  0  0
 47121  1  0  0  0
 47122  1  0  0  0
 48 56  1  0  0  0
 48 65  1  0  0  0
 48123  1  0  0  0
 49 50  1  0  0  0
 49 53  1  0  0  0
 49 64  1  0  0  0
 49124  1  0  0  0
 50 51  1  0  0  0
 50125  1  0  0  0
 50126  1  0  0  0
 51 52  1  0  0  0
 51127  1  0  0  0
 51128  1  0  0  0
 52129  1  0  0  0
 52130  1  0  0  0
 53 54  1  0  0  0
 54 55  2  0  0  0
 54131  1  0  0  0
 55 57  1  0  0  0
 55132  1  0  0  0
 56 69  2  0  0  0
 57 58  2  0  0  0
 57133  1  0  0  0
 58134  1  0  0  0
 59 60  1  0  0  0
 59 61  1  0  0  0
 59 62  1  0  0  0
 60135  1  0  0  0
 60136  1  0  0  0
 60137  1  0  0  0
 61138  1  0  0  0
 61139  1  0  0  0
 61140  1  0  0  0
 62141  1  0  0  0
 62142  1  0  0  0
 62143  1  0  0  0
 63 65  1  0  0  0
 63144  1  0  0  0
 63145  1  0  0  0
 63146  1  0  0  0
 64147  1  0  0  0
 65148  1  0  0  0
 68 81  1  0  0  0
 71 73  2  0  0  0
 71 74  1  0  0  0
 71149  1  0  0  0
 72 74  2  0  0  0
 72 83  1  0  0  0
 72150  1  0  0  0
 73 75  1  0  0  0
 73 82  1  0  0  0
 74 84  1  0  0  0
 75 83  2  0  0  0
 75 89  1  0  0  0
 76 79  1  0  0  0
 76 82  1  0  0  0
 76 86  2  0  0  0
 77 80  1  0  0  0
 77 81  1  0  0  0
 77 87  2  0  0  0
 78 80  1  0  0  0
 78 85  1  0  0  0
 78 88  2  0  0  0
 79151  1  0  0  0
 79152  1  0  0  0
 79153  1  0  0  0
 80154  1  0  0  0
 80155  1  0  0  0
 81156  1  0  0  0
 81157  1  0  0  0
 82 85  1  0  0  0
 82158  1  0  0  0
 84159  1  0  0  0
 85160  1  0  0  0
M  ISO  4   1 100  68 101  81 101  84 100
M  END
> <chiral flag>
0

> <version>
0

> <s_m_source_file>
/data/baiqing/PycharmProjects/Reinvent-master-3.2/result/LINK_invent/BTK/process_docking_weight1_custom_product_contain_oxygen_bond_distance_aromatic_linkinvent_7_9_3/rearranged_h_0172.sdf

> <i_m_source_file_index>
95

> <r_mmod_Potential_Energy-OPLS-2005>
-310.306030273438

> <r_mmod_Stretch_Energy-OPLS-2005>
38.6424522399902

> <r_mmod_Bend_Energy-OPLS-2005>
150.594360351562

> <r_mmod_Torsional_Energy-OPLS-2005>
250.432327270508

> <r_mmod_Improper_Torsional_Energy-OPLS-2005>
6.59090852737427

> <r_mmod_Van_der_Waal_Energy-OPLS-2005>
165.021820068359

> <r_mmod_Electrostatic_Energy-OPLS-2005>
-651.809020996094

> <r_mmod_Solvation_Energy-OPLS-2005>
-289.517730712891

> <b_mmod_Minimization_Converged-OPLS-2005>
0

> <r_mmod_RMS_Derivative-OPLS-2005>
11.444896697998

$$$$
95
                    3D
 Structure written by MMmdl.
172180  0  0  1  0            999 V2000
  -30.6281  -14.6354   20.4985 C   0  0  0  0  0  0
  -30.4187  -12.3750   19.4931 C   0  0  0  0  0  0
  -29.5129  -12.4897   18.2470 C   0  0  0  0  0  0
  -28.0291  -12.3524   18.6410 C   0  0  0  0  0  0
  -27.6475  -13.2240   19.8678 C   0  0  2  0  0  0
  -28.6804  -13.1002   21.0106 C   0  0  0  0  0  0
  -25.2525  -13.8200   20.5697 C   0  0  0  0  0  0
  -24.1801  -13.0440   20.9174 C   0  0  0  0  0  0
  -24.6371  -11.6919   20.8706 C   0  0  0  0  0  0
  -23.9066  -10.4287   21.0382 C   0  0  0  0  0  0
  -24.3609   -9.4215   21.9168 C   0  0  0  0  0  0
  -23.6288   -8.2248   22.0748 C   0  0  0  0  0  0
  -22.4271   -8.0281   21.3554 C   0  0  0  0  0  0
  -21.9909   -9.0239   20.4644 C   0  0  0  0  0  0
  -22.7236  -10.2117   20.3047 C   0  0  0  0  0  0
  -21.6852   -6.0725   22.5269 C   0  0  0  0  0  0
  -21.4001   -6.5629   23.8207 C   0  0  0  0  0  0
  -21.3669   -5.6794   24.9163 C   0  0  0  0  0  0
  -21.6036   -4.3049   24.7225 C   0  0  0  0  0  0
  -21.8845   -3.8158   23.4349 C   0  0  0  0  0  0
  -21.9194   -4.6962   22.3400 C   0  0  0  0  0  0
  -22.7831  -13.5212   21.1892 C   0  0  0  0  0  0
  -22.1654   -4.2156   21.0976 F   0  0  0  0  0  0
  -21.5671   -3.4537   25.7749 F   0  0  0  0  0  0
  -30.0022  -13.4171   20.4557 N   0  0  0  0  0  0
  -26.2941  -12.9388   20.3320 N   0  0  0  0  0  0
  -25.9301  -11.6538   20.5737 N   0  0  0  0  0  0
  -22.0504  -12.8122   22.0426 N   0  0  0  0  0  0
  -25.4300  -15.1927   20.4191 N   0  0  0  0  0  0
  -31.7900  -14.7656   20.1011 O   0  0  0  0  0  0
  -21.6637   -6.8868   21.4241 O   0  0  0  0  0  0
  -22.3512  -14.5539   20.6812 O   0  0  0  0  0  0
  -24.6274  -31.8595   23.2064 C   0  0  0  0  0  0
  -25.9130  -32.4768   23.8385 C   0  0  1  0  0  0
  -27.2236  -27.3216   20.1261 C   0  0  0  0  0  0
  -25.5960  -33.8568   24.2306 N   0  0  0  0  0  0
  -23.4235  -30.4833   21.5464 C   0  0  2  0  0  0
  -24.8747  -28.9420   20.1074 C   0  0  0  0  0  0
  -22.7479  -29.4624   22.4926 C   0  0  0  0  0  0
  -18.0291  -28.1380   22.8507 C   0  0  0  0  0  0
  -24.1475  -36.7247   23.2650 C   0  0  0  0  0  0
  -25.9677  -30.7815   21.3916 C   0  0  0  0  0  0
  -26.0403  -29.4134   20.7263 C   0  0  0  0  0  0
  -27.2200  -28.6112   20.7357 C   0  0  0  0  0  0
  -26.0486  -26.9026   19.4711 C   0  0  0  0  0  0
  -24.8802  -27.6902   19.4697 C   0  0  0  0  0  0
  -23.6441  -29.8254   20.1591 C   0  0  0  0  0  0
  -25.4110  -36.3056   24.0338 C   0  0  1  0  0  0
  -20.5894  -28.3701   23.1248 C   0  0  2  0  0  0
  -20.6781  -26.9414   22.5405 C   0  0  0  0  0  0
  -19.5753  -26.6365   21.5222 C   0  0  0  0  0  0
  -18.1926  -26.7923   22.1630 C   0  0  0  0  0  0
  -19.1549  -28.8863   23.2869 C   0  0  0  0  0  0
  -18.9484  -30.1466   23.8879 C   0  0  0  0  0  0
  -17.6484  -30.6598   24.0557 C   0  0  0  0  0  0
  -25.9057  -34.9434   23.5107 C   0  0  0  0  0  0
  -16.5368  -29.9088   23.6350 C   0  0  0  0  0  0
  -16.7280  -28.6497   23.0389 C   0  0  0  0  0  0
  -26.4528  -31.6598   25.0772 C   0  0  0  0  0  0
  -25.3772  -31.3695   26.1506 C   0  0  0  0  0  0
  -27.0445  -30.3036   24.6280 C   0  0  0  0  0  0
  -27.6073  -32.4390   25.7529 C   0  0  0  0  0  0
  -27.5568  -37.1752   24.8475 C   0  0  0  0  0  0
  -21.4208  -29.3036   22.3634 N   0  0  0  0  0  0
  -26.4265  -37.3774   23.9447 N   0  0  0  0  0  0
  -24.6895  -31.0594   22.1031 N   0  0  0  0  0  0
  -23.4170  -28.8187   23.3049 O   0  0  0  0  0  0
  -28.2701  -26.3989   20.1976 O   0  0  0  0  0  0
  -26.5615  -34.8896   22.4666 O   0  0  0  0  0  0
  -23.5434  -32.1432   23.7356 O   0  0  0  0  0  0
  -29.1211  -19.0712   18.2044 C   0  0  0  0  0  0
  -29.5411  -16.7082   18.6144 C   0  0  0  0  0  0
  -29.5160  -18.2905   20.4855 C   0  0  0  0  0  0
  -29.2637  -17.7572   17.7245 C   0  0  0  0  0  0
  -29.2278  -19.3836   19.5766 C   0  0  0  0  0  0
  -29.6887  -16.9297   20.0014 C   0  0  0  0  0  0
  -28.3038  -24.1630   21.1845 C   0  0  0  0  0  0
  -29.4880  -21.7877   20.5444 C   0  0  0  0  0  0
  -29.0970  -17.4593   16.2468 C   0  0  0  0  0  0
  -27.7527  -23.3448   22.3477 C   0  0  0  0  0  0
  -31.1952  -22.5372   17.8876 C   0  0  0  0  0  0
  -30.1300  -24.7707   17.4114 C   0  0  0  0  0  0
  -32.4392  -24.6588   18.3526 C   0  0  0  0  0  0
  -30.5066  -24.0715   19.8305 C   0  0  0  0  0  0
  -29.1759  -23.3209   20.1562 C   0  0  2  0  0  0
  -31.0481  -23.9921   18.3754 C   0  0  0  0  0  0
  -27.9405  -25.4232   21.2132 N   0  0  0  0  0  0
  -28.8787  -20.7826   19.8485 N   0  0  0  0  0  0
  -29.8727  -15.7362   20.8283 N   0  0  0  0  0  0
  -30.2892  -21.5304   21.4479 O   0  0  0  0  0  0
  -31.4693  -12.4668   19.2128 H   0  0  0  0  0  0
  -30.3163  -11.3878   19.9483 H   0  0  0  0  0  0
  -29.7764  -11.7182   17.5211 H   0  0  0  0  0  0
  -29.6843  -13.4448   17.7492 H   0  0  0  0  0  0
  -27.8429  -11.3002   18.8605 H   0  0  0  0  0  0
  -27.3904  -12.5977   17.7916 H   0  0  0  0  0  0
  -27.6631  -14.2563   19.5218 H   0  0  0  0  0  0
  -28.6773  -12.0951   21.4351 H   0  0  0  0  0  0
  -28.4209  -13.7708   21.8308 H   0  0  0  0  0  0
  -25.2754   -9.5703   22.4722 H   0  0  0  0  0  0
  -24.0006   -7.4642   22.7460 H   0  0  0  0  0  0
  -21.0856   -8.8750   19.8919 H   0  0  0  0  0  0
  -22.3690  -10.9644   19.6163 H   0  0  0  0  0  0
  -21.1936   -7.6129   23.9706 H   0  0  0  0  0  0
  -21.1497   -6.0512   25.9059 H   0  0  0  0  0  0
  -22.0609   -2.7618   23.2856 H   0  0  0  0  0  0
  -22.4086  -11.9674   22.4624 H   0  0  0  0  0  0
  -21.1171  -13.1194   22.2772 H   0  0  0  0  0  0
  -24.6758  -15.8613   20.5358 H   0  0  0  0  0  0
  -26.3029  -15.6283   20.1481 H   0  0  0  0  0  0
  -26.7201  -32.5424   23.1131 H   0  0  0  0  0  0
  -25.0147  -33.9745   25.0476 H   0  0  0  0  0  0
  -22.7200  -31.3056   21.4017 H   0  0  0  0  0  0
  -23.3770  -35.9538   23.3295 H   0  0  0  0  0  0
  -24.3541  -36.8903   22.2064 H   0  0  0  0  0  0
  -23.7190  -37.6417   23.6708 H   0  0  0  0  0  0
  -26.1237  -31.5508   20.6341 H   0  0  0  0  0  0
  -26.8372  -30.8108   22.0374 H   0  0  0  0  0  0
  -28.1090  -28.9527   21.2457 H   0  0  0  0  0  0
  -26.0260  -25.9314   18.9962 H   0  0  0  0  0  0
  -23.9895  -27.3232   18.9809 H   0  0  0  0  0  0
  -23.7740  -30.6101   19.4129 H   0  0  0  0  0  0
  -22.7638  -29.2638   19.8442 H   0  0  0  0  0  0
  -25.1277  -36.1883   25.0828 H   0  0  0  0  0  0
  -20.9983  -28.3296   24.1372 H   0  0  0  0  0  0
  -20.5705  -26.2320   23.3625 H   0  0  0  0  0  0
  -21.6639  -26.7441   22.1184 H   0  0  0  0  0  0
  -19.6911  -25.6264   21.1286 H   0  0  0  0  0  0
  -19.6685  -27.3139   20.6715 H   0  0  0  0  0  0
  -17.4193  -26.6705   21.4020 H   0  0  0  0  0  0
  -18.0306  -26.0054   22.9010 H   0  0  0  0  0  0
  -19.7966  -30.7300   24.2224 H   0  0  0  0  0  0
  -17.5041  -31.6272   24.5164 H   0  0  0  0  0  0
  -15.5370  -30.2979   23.7713 H   0  0  0  0  0  0
  -15.8677  -28.0801   22.7139 H   0  0  0  0  0  0
  -24.5907  -30.7119   25.7797 H   0  0  0  0  0  0
  -24.9016  -32.2841   26.5045 H   0  0  0  0  0  0
  -25.8096  -30.8759   27.0218 H   0  0  0  0  0  0
  -26.3044  -29.6708   24.1374 H   0  0  0  0  0  0
  -27.4230  -29.7381   25.4808 H   0  0  0  0  0  0
  -27.8868  -30.4362   23.9491 H   0  0  0  0  0  0
  -27.2656  -33.3686   26.2095 H   0  0  0  0  0  0
  -28.3845  -32.6985   25.0328 H   0  0  0  0  0  0
  -28.0798  -31.8553   26.5443 H   0  0  0  0  0  0
  -28.2550  -38.0090   24.7598 H   0  0  0  0  0  0
  -28.1107  -36.2619   24.6215 H   0  0  0  0  0  0
  -27.2289  -37.1290   25.8879 H   0  0  0  0  0  0
  -20.9414  -29.8703   21.6794 H   0  0  0  0  0  0
  -26.0134  -38.2826   24.1531 H   0  0  0  0  0  0
  -28.9055  -19.8558   17.4937 H   0  0  0  0  0  0
  -29.6092  -15.7092   18.2065 H   0  0  0  0  0  0
  -29.5747  -18.4873   21.5483 H   0  0  0  0  0  0
  -28.6233  -18.2888   15.7206 H   0  0  0  0  0  0
  -28.4778  -16.5728   16.1013 H   0  0  0  0  0  0
  -30.0637  -17.2749   15.7794 H   0  0  0  0  0  0
  -28.5506  -23.0678   23.0361 H   0  0  0  0  0  0
  -27.2529  -22.4406   21.9973 H   0  0  0  0  0  0
  -27.0100  -23.9129   22.9119 H   0  0  0  0  0  0
  -31.7887  -22.4747   16.9754 H   0  0  0  0  0  0
  -30.2276  -22.0901   17.6589 H   0  0  0  0  0  0
  -31.6848  -21.9096   18.6338 H   0  0  0  0  0  0
  -30.5303  -24.7698   16.3963 H   0  0  0  0  0  0
  -30.0218  -25.8125   17.7166 H   0  0  0  0  0  0
  -29.1297  -24.3433   17.3584 H   0  0  0  0  0  0
  -32.9018  -24.5983   17.3668 H   0  0  0  0  0  0
  -33.1253  -24.1890   19.0584 H   0  0  0  0  0  0
  -32.3818  -25.7163   18.6136 H   0  0  0  0  0  0
  -31.2801  -23.7187   20.5124 H   0  0  0  0  0  0
  -30.4173  -25.1268   20.0829 H   0  0  0  0  0  0
  -28.5733  -23.2894   19.2504 H   0  0  0  0  0  0
  -28.2405  -21.1591   19.1615 H   0  0  0  0  0  0
  -29.0800  -15.5251   21.4174 H   0  0  0  0  0  0
  1 25  1  0  0  0
  1 30  2  0  0  0
  1 89  1  0  0  0
  2  3  1  0  0  0
  2 25  1  0  0  0
  2 91  1  0  0  0
  2 92  1  0  0  0
  3  4  1  0  0  0
  3 93  1  0  0  0
  3 94  1  0  0  0
  4  5  1  0  0  0
  4 95  1  0  0  0
  4 96  1  0  0  0
  5  6  1  0  0  0
  5 26  1  0  0  0
  5 97  1  0  0  0
  6 25  1  0  0  0
  6 98  1  0  0  0
  6 99  1  0  0  0
  7  8  2  0  0  0
  7 26  1  0  0  0
  7 29  1  0  0  0
  8  9  1  0  0  0
  8 22  1  0  0  0
  9 10  1  0  0  0
  9 27  2  0  0  0
 10 11  2  0  0  0
 10 15  1  0  0  0
 11 12  1  0  0  0
 11100  1  0  0  0
 12 13  2  0  0  0
 12101  1  0  0  0
 13 14  1  0  0  0
 13 31  1  0  0  0
 14 15  2  0  0  0
 14102  1  0  0  0
 15103  1  0  0  0
 16 17  2  0  0  0
 16 21  1  0  0  0
 16 31  1  0  0  0
 17 18  1  0  0  0
 17104  1  0  0  0
 18 19  2  0  0  0
 18105  1  0  0  0
 19 20  1  0  0  0
 19 24  1  0  0  0
 20 21  2  0  0  0
 20106  1  0  0  0
 21 23  1  0  0  0
 22 28  1  0  0  0
 22 32  2  0  0  0
 26 27  1  0  0  0
 28107  1  0  0  0
 28108  1  0  0  0
 29109  1  0  0  0
 29110  1  0  0  0
 33 34  1  0  0  0
 33 66  1  0  0  0
 33 70  2  0  0  0
 34 36  1  0  0  0
 34 59  1  0  0  0
 34111  1  0  0  0
 35 44  2  0  0  0
 35 45  1  0  0  0
 35 68  1  0  0  0
 36 56  1  0  0  0
 36112  1  0  0  0
 37 39  1  0  0  0
 37 47  1  0  0  0
 37 66  1  0  0  0
 37113  1  0  0  0
 38 43  2  0  0  0
 38 46  1  0  0  0
 38 47  1  0  0  0
 39 64  1  0  0  0
 39 67  2  0  0  0
 40 52  1  0  0  0
 40 53  2  0  0  0
 40 58  1  0  0  0
 41114  1  0  0  0
 41115  1  0  0  0
 41116  1  0  0  0
 41 48  1  0  0  0
 42 43  1  0  0  0
 42 66  1  0  0  0
 42117  1  0  0  0
 42118  1  0  0  0
 43 44  1  0  0  0
 44119  1  0  0  0
 45 46  2  0  0  0
 45120  1  0  0  0
 46121  1  0  0  0
 47122  1  0  0  0
 47123  1  0  0  0
 48 56  1  0  0  0
 48 65  1  0  0  0
 48124  1  0  0  0
 49 50  1  0  0  0
 49 53  1  0  0  0
 49 64  1  0  0  0
 49125  1  0  0  0
 50 51  1  0  0  0
 50126  1  0  0  0
 50127  1  0  0  0
 51 52  1  0  0  0
 51128  1  0  0  0
 51129  1  0  0  0
 52130  1  0  0  0
 52131  1  0  0  0
 53 54  1  0  0  0
 54 55  2  0  0  0
 54132  1  0  0  0
 55 57  1  0  0  0
 55133  1  0  0  0
 56 69  2  0  0  0
 57 58  2  0  0  0
 57134  1  0  0  0
 58135  1  0  0  0
 59 60  1  0  0  0
 59 61  1  0  0  0
 59 62  1  0  0  0
 60136  1  0  0  0
 60137  1  0  0  0
 60138  1  0  0  0
 61139  1  0  0  0
 61140  1  0  0  0
 61141  1  0  0  0
 62142  1  0  0  0
 62143  1  0  0  0
 62144  1  0  0  0
 63 65  1  0  0  0
 63145  1  0  0  0
 63146  1  0  0  0
 63147  1  0  0  0
 64148  1  0  0  0
 65149  1  0  0  0
 68 87  1  0  0  0
 71 74  2  0  0  0
 71 75  1  0  0  0
 71150  1  0  0  0
 72 74  1  0  0  0
 72 76  2  0  0  0
 72151  1  0  0  0
 73 75  2  0  0  0
 73 76  1  0  0  0
 73152  1  0  0  0
 74 79  1  0  0  0
 75 88  1  0  0  0
 76 89  1  0  0  0
 77 80  1  0  0  0
 77 85  1  0  0  0
 77 87  2  0  0  0
 78 85  1  0  0  0
 78 88  1  0  0  0
 78 90  2  0  0  0
 79153  1  0  0  0
 79154  1  0  0  0
 79155  1  0  0  0
 80156  1  0  0  0
 80157  1  0  0  0
 80158  1  0  0  0
 81159  1  0  0  0
 81160  1  0  0  0
 81161  1  0  0  0
 81 86  1  0  0  0
 82 86  1  0  0  0
 82162  1  0  0  0
 82163  1  0  0  0
 82164  1  0  0  0
 83 86  1  0  0  0
 83165  1  0  0  0
 83166  1  0  0  0
 83167  1  0  0  0
 84 86  1  0  0  0
 84168  1  0  0  0
 84169  1  0  0  0
 84 85  1  0  0  0
 85170  1  0  0  0
 88171  1  0  0  0
 89172  1  0  0  0
M  ISO  4   1 100  68 101  87 101  89 100
M  END
> <chiral flag>
0

> <version>
0

> <s_m_source_file>
/data/baiqing/PycharmProjects/Reinvent-master-3.2/result/LINK_invent/BTK/process_docking_weight1_custom_product_contain_oxygen_bond_distance_aromatic_linkinvent_7_9_3/rearranged_h_0172.sdf

> <i_m_source_file_index>
96

> <r_mmod_Potential_Energy-OPLS-2005>
151.647064208984

> <r_mmod_Stretch_Energy-OPLS-2005>
93.9986801147461

> <r_mmod_Bend_Energy-OPLS-2005>
195.501739501953

> <r_mmod_Torsional_Energy-OPLS-2005>
282.540802001953

> <r_mmod_Improper_Torsional_Energy-OPLS-2005>
8.48470211029053

> <r_mmod_Van_der_Waal_Energy-OPLS-2005>
137.022705078125

> <r_mmod_Electrostatic_Energy-OPLS-2005>
-390.584991455078

> <r_mmod_Solvation_Energy-OPLS-2005>
-231.631256103516

> <b_mmod_Minimization_Converged-OPLS-2005>
0

> <r_mmod_RMS_Derivative-OPLS-2005>
3.67934274673462

$$$$
96
                    3D
 Structure written by MMmdl.
167175  0  0  1  0            999 V2000
  -30.8041  -14.4748   20.4546 C   0  0  0  0  0  0
  -30.3839  -12.2917   19.4452 C   0  0  0  0  0  0
  -29.4735  -12.4449   18.2127 C   0  0  0  0  0  0
  -27.9960  -12.3492   18.6305 C   0  0  0  0  0  0
  -27.6427  -13.2350   19.8560 C   0  0  2  0  0  0
  -28.6977  -13.1161   20.9763 C   0  0  0  0  0  0
  -25.2506  -13.8293   20.5819 C   0  0  0  0  0  0
  -24.1771  -13.0497   20.9307 C   0  0  0  0  0  0
  -24.6331  -11.6994   20.8819 C   0  0  0  0  0  0
  -23.8999  -10.4353   21.0401 C   0  0  0  0  0  0
  -24.3572   -9.4262   21.9200 C   0  0  0  0  0  0
  -23.6304   -8.2251   22.0697 C   0  0  0  0  0  0
  -22.4290   -8.0278   21.3487 C   0  0  0  0  0  0
  -21.9925   -9.0242   20.4603 C   0  0  0  0  0  0
  -22.7191  -10.2170   20.3048 C   0  0  0  0  0  0
  -21.6848   -6.0746   22.5278 C   0  0  0  0  0  0
  -21.4011   -6.5644   23.8223 C   0  0  0  0  0  0
  -21.3662   -5.6786   24.9176 C   0  0  0  0  0  0
  -21.6036   -4.3042   24.7226 C   0  0  0  0  0  0
  -21.8809   -3.8146   23.4332 C   0  0  0  0  0  0
  -21.9195   -4.6978   22.3386 C   0  0  0  0  0  0
  -22.7799  -13.5291   21.1942 C   0  0  0  0  0  0
  -22.1650   -4.2163   21.0970 F   0  0  0  0  0  0
  -21.5630   -3.4515   25.7724 F   0  0  0  0  0  0
  -30.0146  -13.3689   20.3781 N   0  0  0  0  0  0
  -26.2945  -12.9502   20.3444 N   0  0  0  0  0  0
  -25.9286  -11.6641   20.5906 N   0  0  0  0  0  0
  -22.0380  -12.8296   22.0482 N   0  0  0  0  0  0
  -25.4170  -15.2002   20.4240 N   0  0  0  0  0  0
  -32.0157  -14.3855   20.2571 O   0  0  0  0  0  0
  -21.6639   -6.8880   21.4225 O   0  0  0  0  0  0
  -22.3521  -14.5602   20.6802 O   0  0  0  0  0  0
  -24.6150  -31.8652   23.2080 C   0  0  0  0  0  0
  -25.9048  -32.4792   23.8368 C   0  0  1  0  0  0
  -27.1980  -27.4155   20.1046 C   0  0  0  0  0  0
  -25.5929  -33.8594   24.2308 N   0  0  0  0  0  0
  -23.4005  -30.4954   21.5465 C   0  0  2  0  0  0
  -24.8400  -28.9623   20.1036 C   0  0  0  0  0  0
  -22.7405  -29.4678   22.4933 C   0  0  0  0  0  0
  -18.0278  -28.1378   22.8460 C   0  0  0  0  0  0
  -24.1490  -36.7313   23.2637 C   0  0  0  0  0  0
  -25.9301  -30.8274   21.3597 C   0  0  0  0  0  0
  -26.0017  -29.4609   20.7077 C   0  0  0  0  0  0
  -27.1888  -28.6933   20.7085 C   0  0  0  0  0  0
  -26.0301  -26.9410   19.4750 C   0  0  0  0  0  0
  -24.8487  -27.7030   19.4806 C   0  0  0  0  0  0
  -23.6046  -29.8315   20.1587 C   0  0  0  0  0  0
  -25.4103  -36.3090   24.0339 C   0  0  1  0  0  0
  -20.5871  -28.3677   23.1278 C   0  0  2  0  0  0
  -20.6783  -26.9412   22.5405 C   0  0  0  0  0  0
  -19.5783  -26.6377   21.5189 C   0  0  0  0  0  0
  -18.1945  -26.7917   22.1589 C   0  0  0  0  0  0
  -19.1528  -28.8848   23.2866 C   0  0  0  0  0  0
  -18.9460  -30.1451   23.8877 C   0  0  0  0  0  0
  -17.6466  -30.6581   24.0555 C   0  0  0  0  0  0
  -25.9040  -34.9456   23.5113 C   0  0  0  0  0  0
  -16.5352  -29.9084   23.6327 C   0  0  0  0  0  0
  -16.7267  -28.6511   23.0321 C   0  0  0  0  0  0
  -26.4490  -31.6554   25.0676 C   0  0  0  0  0  0
  -25.3837  -31.3646   26.1489 C   0  0  0  0  0  0
  -27.0279  -30.2991   24.6008 C   0  0  0  0  0  0
  -27.6013  -32.4303   25.7505 C   0  0  0  0  0  0
  -27.5583  -37.1815   24.8464 C   0  0  0  0  0  0
  -21.4137  -29.3046   22.3683 N   0  0  0  0  0  0
  -26.4293  -37.3774   23.9406 N   0  0  0  0  0  0
  -24.6665  -31.0787   22.0956 N   0  0  0  0  0  0
  -23.4174  -28.8220   23.2971 O   0  0  0  0  0  0
  -28.3008  -26.5995   20.1686 O   0  0  0  0  0  0
  -26.5568  -34.8917   22.4653 O   0  0  0  0  0  0
  -23.5356  -32.1394   23.7499 O   0  0  0  0  0  0
  -28.7192  -16.7324   23.6196 C   0  0  0  0  0  0
  -27.9787  -17.8625   23.2324 C   0  0  0  0  0  0
  -29.4437  -16.0020   22.6609 C   0  0  0  0  0  0
  -28.4974  -17.4028   20.8899 C   0  0  0  0  0  0
  -27.9201  -18.2381   21.8718 C   0  0  0  0  0  0
  -29.3532  -16.3266   21.2841 C   0  0  0  0  0  0
  -31.1143  -16.3395   18.0394 C   0  0  0  0  0  0
  -27.6523  -24.2306   20.6881 C   0  0  0  0  0  0
  -27.3168  -20.6513   22.0493 C   0  0  0  0  0  0
  -28.2282  -17.7366   19.4229 C   0  0  0  0  0  0
  -32.4254  -16.5656   17.3088 C   0  0  0  0  0  0
  -27.1731  -23.2259   21.7567 C   0  0  0  0  0  0
  -31.0558  -16.6892   19.5393 C   0  0  0  0  0  0
  -28.1734  -25.5944   21.2015 C   0  0  0  0  0  0
  -26.7276  -21.8213   21.2485 C   0  0  0  0  0  0
  -27.3187  -19.4549   21.4371 N   0  0  0  0  0  0
  -30.2382  -15.7151   20.3310 N   0  0  0  0  0  0
  -30.1492  -15.8663   17.4387 O   0  0  0  0  0  0
  -27.6323  -23.9558   19.4832 O   0  0  0  0  0  0
  -27.7509  -20.8363   23.1890 O   0  0  0  0  0  0
  -31.4337  -12.3051   19.1405 H   0  0  0  0  0  0
  -30.2237  -11.3226   19.9180 H   0  0  0  0  0  0
  -29.6985  -11.6683   17.4808 H   0  0  0  0  0  0
  -29.6610  -13.3950   17.7117 H   0  0  0  0  0  0
  -27.8029  -11.3001   18.8655 H   0  0  0  0  0  0
  -27.3436  -12.5963   17.7933 H   0  0  0  0  0  0
  -27.6541  -14.2680   19.5034 H   0  0  0  0  0  0
  -28.6875  -12.1208   21.4210 H   0  0  0  0  0  0
  -28.4697  -13.7944   21.7916 H   0  0  0  0  0  0
  -25.2628   -9.5828   22.4866 H   0  0  0  0  0  0
  -23.9994   -7.4672   22.7420 H   0  0  0  0  0  0
  -21.0831   -8.8751   19.8948 H   0  0  0  0  0  0
  -22.3534  -10.9722   19.6218 H   0  0  0  0  0  0
  -21.1960   -7.6146   23.9729 H   0  0  0  0  0  0
  -21.1499   -6.0503   25.9095 H   0  0  0  0  0  0
  -22.0574   -2.7611   23.2789 H   0  0  0  0  0  0
  -22.3907  -11.9950   22.4933 H   0  0  0  0  0  0
  -21.0963  -13.1384   22.2539 H   0  0  0  0  0  0
  -24.6606  -15.8635   20.5626 H   0  0  0  0  0  0
  -26.2923  -15.6459   20.1836 H   0  0  0  0  0  0
  -26.7109  -32.5474   23.1115 H   0  0  0  0  0  0
  -25.0187  -33.9749   25.0534 H   0  0  0  0  0  0
  -22.6895  -31.3124   21.4090 H   0  0  0  0  0  0
  -23.3734  -35.9670   23.3297 H   0  0  0  0  0  0
  -24.3595  -36.8921   22.2049 H   0  0  0  0  0  0
  -23.7280  -37.6539   23.6647 H   0  0  0  0  0  0
  -26.0454  -31.5868   20.5835 H   0  0  0  0  0  0
  -26.8204  -30.8775   21.9758 H   0  0  0  0  0  0
  -28.0818  -29.0614   21.1910 H   0  0  0  0  0  0
  -26.0194  -25.9732   18.9928 H   0  0  0  0  0  0
  -23.9566  -27.3154   19.0037 H   0  0  0  0  0  0
  -23.7143  -30.6041   19.3977 H   0  0  0  0  0  0
  -22.7263  -29.2539   19.8632 H   0  0  0  0  0  0
  -25.1293  -36.1944   25.0831 H   0  0  0  0  0  0
  -20.9958  -28.3257   24.1400 H   0  0  0  0  0  0
  -20.5680  -26.2295   23.3593 H   0  0  0  0  0  0
  -21.6653  -26.7462   22.1197 H   0  0  0  0  0  0
  -19.6951  -25.6283   21.1217 H   0  0  0  0  0  0
  -19.6734  -27.3176   20.6700 H   0  0  0  0  0  0
  -17.4231  -26.6646   21.3979 H   0  0  0  0  0  0
  -18.0360  -26.0064   22.8987 H   0  0  0  0  0  0
  -19.7949  -30.7253   24.2214 H   0  0  0  0  0  0
  -17.5044  -31.6255   24.5170 H   0  0  0  0  0  0
  -15.5364  -30.2988   23.7681 H   0  0  0  0  0  0
  -15.8663  -28.0846   22.7015 H   0  0  0  0  0  0
  -24.6043  -30.6902   25.7941 H   0  0  0  0  0  0
  -24.9006  -32.2777   26.4967 H   0  0  0  0  0  0
  -25.8319  -30.8899   27.0226 H   0  0  0  0  0  0
  -26.2750  -29.6792   24.1111 H   0  0  0  0  0  0
  -27.4098  -29.7187   25.4412 H   0  0  0  0  0  0
  -27.8585  -30.4285   23.9065 H   0  0  0  0  0  0
  -27.2534  -33.3584   26.2069 H   0  0  0  0  0  0
  -28.3884  -32.6899   25.0411 H   0  0  0  0  0  0
  -28.0606  -31.8441   26.5484 H   0  0  0  0  0  0
  -28.2583  -38.0120   24.7501 H   0  0  0  0  0  0
  -28.1087  -36.2650   24.6290 H   0  0  0  0  0  0
  -27.2299  -37.1461   25.8866 H   0  0  0  0  0  0
  -20.9297  -29.8768   21.6905 H   0  0  0  0  0  0
  -26.0165  -38.2855   24.1395 H   0  0  0  0  0  0
  -28.7790  -16.4620   24.6633 H   0  0  0  0  0  0
  -27.4811  -18.4489   23.9888 H   0  0  0  0  0  0
  -30.0878  -15.2072   23.0131 H   0  0  0  0  0  0
  -27.2030  -18.0495   19.2402 H   0  0  0  0  0  0
  -28.3907  -16.8616   18.7972 H   0  0  0  0  0  0
  -28.8674  -18.5563   19.0967 H   0  0  0  0  0  0
  -32.2780  -17.2074   16.4403 H   0  0  0  0  0  0
  -32.8081  -15.6011   16.9774 H   0  0  0  0  0  0
  -33.1634  -17.0191   17.9667 H   0  0  0  0  0  0
  -26.3424  -23.6793   22.3020 H   0  0  0  0  0  0
  -27.9820  -23.1296   22.4811 H   0  0  0  0  0  0
  -30.7495  -17.7274   19.6395 H   0  0  0  0  0  0
  -32.0624  -16.7475   19.9520 H   0  0  0  0  0  0
  -29.1490  -25.4308   21.6571 H   0  0  0  0  0  0
  -27.5124  -25.9413   21.9996 H   0  0  0  0  0  0
  -25.6415  -21.7344   21.3187 H   0  0  0  0  0  0
  -26.9732  -21.6749   20.1969 H   0  0  0  0  0  0
  -27.0640  -19.4801   20.4604 H   0  0  0  0  0  0
  1 25  1  0  0  0
  1 30  2  0  0  0
  1 87  1  0  0  0
  2  3  1  0  0  0
  2 25  1  0  0  0
  2 91  1  0  0  0
  2 92  1  0  0  0
  3  4  1  0  0  0
  3 93  1  0  0  0
  3 94  1  0  0  0
  4  5  1  0  0  0
  4 95  1  0  0  0
  4 96  1  0  0  0
  5  6  1  0  0  0
  5 26  1  0  0  0
  5 97  1  0  0  0
  6 25  1  0  0  0
  6 98  1  0  0  0
  6 99  1  0  0  0
  7  8  2  0  0  0
  7 26  1  0  0  0
  7 29  1  0  0  0
  8  9  1  0  0  0
  8 22  1  0  0  0
  9 10  1  0  0  0
  9 27  2  0  0  0
 10 11  2  0  0  0
 10 15  1  0  0  0
 11 12  1  0  0  0
 11100  1  0  0  0
 12 13  2  0  0  0
 12101  1  0  0  0
 13 14  1  0  0  0
 13 31  1  0  0  0
 14 15  2  0  0  0
 14102  1  0  0  0
 15103  1  0  0  0
 16 17  2  0  0  0
 16 21  1  0  0  0
 16 31  1  0  0  0
 17 18  1  0  0  0
 17104  1  0  0  0
 18 19  2  0  0  0
 18105  1  0  0  0
 19 20  1  0  0  0
 19 24  1  0  0  0
 20 21  2  0  0  0
 20106  1  0  0  0
 21 23  1  0  0  0
 22 28  1  0  0  0
 22 32  2  0  0  0
 26 27  1  0  0  0
 28107  1  0  0  0
 28108  1  0  0  0
 29109  1  0  0  0
 29110  1  0  0  0
 33 34  1  0  0  0
 33 66  1  0  0  0
 33 70  2  0  0  0
 34 36  1  0  0  0
 34 59  1  0  0  0
 34111  1  0  0  0
 35 44  2  0  0  0
 35 45  1  0  0  0
 35 68  1  0  0  0
 36 56  1  0  0  0
 36112  1  0  0  0
 37 39  1  0  0  0
 37 47  1  0  0  0
 37 66  1  0  0  0
 37113  1  0  0  0
 38 43  2  0  0  0
 38 46  1  0  0  0
 38 47  1  0  0  0
 39 64  1  0  0  0
 39 67  2  0  0  0
 40 52  1  0  0  0
 40 53  2  0  0  0
 40 58  1  0  0  0
 41114  1  0  0  0
 41115  1  0  0  0
 41116  1  0  0  0
 41 48  1  0  0  0
 42 43  1  0  0  0
 42 66  1  0  0  0
 42117  1  0  0  0
 42118  1  0  0  0
 43 44  1  0  0  0
 44119  1  0  0  0
 45 46  2  0  0  0
 45120  1  0  0  0
 46121  1  0  0  0
 47122  1  0  0  0
 47123  1  0  0  0
 48 56  1  0  0  0
 48 65  1  0  0  0
 48124  1  0  0  0
 49 50  1  0  0  0
 49 53  1  0  0  0
 49 64  1  0  0  0
 49125  1  0  0  0
 50 51  1  0  0  0
 50126  1  0  0  0
 50127  1  0  0  0
 51 52  1  0  0  0
 51128  1  0  0  0
 51129  1  0  0  0
 52130  1  0  0  0
 52131  1  0  0  0
 53 54  1  0  0  0
 54 55  2  0  0  0
 54132  1  0  0  0
 55 57  1  0  0  0
 55133  1  0  0  0
 56 69  2  0  0  0
 57 58  2  0  0  0
 57134  1  0  0  0
 58135  1  0  0  0
 59 60  1  0  0  0
 59 61  1  0  0  0
 59 62  1  0  0  0
 60136  1  0  0  0
 60137  1  0  0  0
 60138  1  0  0  0
 61139  1  0  0  0
 61140  1  0  0  0
 61141  1  0  0  0
 62142  1  0  0  0
 62143  1  0  0  0
 62144  1  0  0  0
 63 65  1  0  0  0
 63145  1  0  0  0
 63146  1  0  0  0
 63147  1  0  0  0
 64148  1  0  0  0
 65149  1  0  0  0
 68 84  1  0  0  0
 71 72  2  0  0  0
 71 73  1  0  0  0
 71150  1  0  0  0
 72 75  1  0  0  0
 72151  1  0  0  0
 73 76  2  0  0  0
 73152  1  0  0  0
 74 75  2  0  0  0
 74 76  1  0  0  0
 74 80  1  0  0  0
 75 86  1  0  0  0
 76 87  1  0  0  0
 77 81  1  0  0  0
 77 83  1  0  0  0
 77 88  2  0  0  0
 78 82  1  0  0  0
 78 84  1  0  0  0
 78 89  2  0  0  0
 79 85  1  0  0  0
 79 86  1  0  0  0
 79 90  2  0  0  0
 80153  1  0  0  0
 80154  1  0  0  0
 80155  1  0  0  0
 81156  1  0  0  0
 81157  1  0  0  0
 81158  1  0  0  0
 82 85  1  0  0  0
 82159  1  0  0  0
 82160  1  0  0  0
 83 87  1  0  0  0
 83161  1  0  0  0
 83162  1  0  0  0
 84163  1  0  0  0
 84164  1  0  0  0
 85165  1  0  0  0
 85166  1  0  0  0
 86167  1  0  0  0
M  ISO  4   1 100  68 101  84 101  87 100
M  END
> <chiral flag>
0

> <version>
0

> <s_m_source_file>
/data/baiqing/PycharmProjects/Reinvent-master-3.2/result/LINK_invent/BTK/process_docking_weight1_custom_product_contain_oxygen_bond_distance_aromatic_linkinvent_7_9_3/rearranged_h_0172.sdf

> <i_m_source_file_index>
97

> <r_mmod_Potential_Energy-OPLS-2005>
-5.75610256195068

> <r_mmod_Stretch_Energy-OPLS-2005>
45.9895401000977

> <r_mmod_Bend_Energy-OPLS-2005>
123.928901672363

> <r_mmod_Torsional_Energy-OPLS-2005>
317.284515380859

> <r_mmod_Improper_Torsional_Energy-OPLS-2005>
15.1628189086914

> <r_mmod_Van_der_Waal_Energy-OPLS-2005>
182.419662475586

> <r_mmod_Electrostatic_Energy-OPLS-2005>
-511.659851074219

> <r_mmod_Solvation_Energy-OPLS-2005>
-224.545318603516

> <b_mmod_Minimization_Converged-OPLS-2005>
0

> <r_mmod_RMS_Derivative-OPLS-2005>
6.22537088394165

$$$$
97
                    3D
 Structure written by MMmdl.
156164  0  0  1  0            999 V2000
  -30.5928  -14.7263   20.4483 C   0  0  0  0  0  0
  -30.4324  -12.4284   19.4826 C   0  0  0  0  0  0
  -29.5136  -12.4984   18.2430 C   0  0  0  0  0  0
  -28.0357  -12.3440   18.6469 C   0  0  0  0  0  0
  -27.6482  -13.2292   19.8609 C   0  0  2  0  0  0
  -28.6885  -13.1305   20.9991 C   0  0  0  0  0  0
  -25.2534  -13.8208   20.5691 C   0  0  0  0  0  0
  -24.1813  -13.0458   20.9211 C   0  0  0  0  0  0
  -24.6392  -11.6930   20.8753 C   0  0  0  0  0  0
  -23.9055  -10.4307   21.0432 C   0  0  0  0  0  0
  -24.3614   -9.4217   21.9203 C   0  0  0  0  0  0
  -23.6297   -8.2248   22.0765 C   0  0  0  0  0  0
  -22.4281   -8.0278   21.3543 C   0  0  0  0  0  0
  -21.9912   -9.0256   20.4633 C   0  0  0  0  0  0
  -22.7247  -10.2138   20.3052 C   0  0  0  0  0  0
  -21.6851   -6.0735   22.5281 C   0  0  0  0  0  0
  -21.4015   -6.5640   23.8219 C   0  0  0  0  0  0
  -21.3649   -5.6791   24.9176 C   0  0  0  0  0  0
  -21.6064   -4.3059   24.7229 C   0  0  0  0  0  0
  -21.8820   -3.8135   23.4347 C   0  0  0  0  0  0
  -21.9200   -4.6957   22.3396 C   0  0  0  0  0  0
  -22.7832  -13.5233   21.1853 C   0  0  0  0  0  0
  -22.1669   -4.2151   21.0971 F   0  0  0  0  0  0
  -21.5620   -3.4525   25.7733 F   0  0  0  0  0  0
  -30.0003  -13.4816   20.4325 N   0  0  0  0  0  0
  -26.2958  -12.9403   20.3295 N   0  0  0  0  0  0
  -25.9316  -11.6543   20.5759 N   0  0  0  0  0  0
  -22.0442  -12.8220   22.0393 N   0  0  0  0  0  0
  -25.4248  -15.1930   20.4113 N   0  0  0  0  0  0
  -31.7519  -14.8643   20.0417 O   0  0  0  0  0  0
  -21.6641   -6.8872   21.4247 O   0  0  0  0  0  0
  -22.3503  -14.5555   20.6710 O   0  0  0  0  0  0
  -24.6343  -31.8541   23.2027 C   0  0  0  0  0  0
  -25.9158  -32.4762   23.8356 C   0  0  1  0  0  0
  -27.2033  -27.2275   20.1147 C   0  0  0  0  0  0
  -25.5977  -33.8555   24.2304 N   0  0  0  0  0  0
  -23.4314  -30.4799   21.5437 C   0  0  2  0  0  0
  -24.8800  -28.9307   20.1034 C   0  0  0  0  0  0
  -22.7531  -29.4608   22.4897 C   0  0  0  0  0  0
  -18.0321  -28.1414   22.8533 C   0  0  0  0  0  0
  -24.1457  -36.7237   23.2648 C   0  0  0  0  0  0
  -25.9820  -30.7432   21.3967 C   0  0  0  0  0  0
  -26.0484  -29.3629   20.7437 C   0  0  0  0  0  0
  -27.2114  -28.5176   20.7586 C   0  0  0  0  0  0
  -26.0451  -26.9306   19.3665 C   0  0  0  0  0  0
  -24.8838  -27.7213   19.4031 C   0  0  0  0  0  0
  -23.6534  -29.8210   20.1565 C   0  0  0  0  0  0
  -25.4100  -36.3063   24.0353 C   0  0  1  0  0  0
  -20.5937  -28.3711   23.1281 C   0  0  2  0  0  0
  -20.6802  -26.9432   22.5383 C   0  0  0  0  0  0
  -19.5743  -26.6411   21.5213 C   0  0  0  0  0  0
  -18.1940  -26.7970   22.1640 C   0  0  0  0  0  0
  -19.1578  -28.8889   23.2900 C   0  0  0  0  0  0
  -18.9482  -30.1511   23.8878 C   0  0  0  0  0  0
  -17.6470  -30.6612   24.0577 C   0  0  0  0  0  0
  -25.9053  -34.9444   23.5126 C   0  0  0  0  0  0
  -16.5375  -29.9081   23.6361 C   0  0  0  0  0  0
  -16.7304  -28.6503   23.0387 C   0  0  0  0  0  0
  -26.4531  -31.6581   25.0730 C   0  0  0  0  0  0
  -25.3761  -31.3672   26.1438 C   0  0  0  0  0  0
  -27.0424  -30.3033   24.6184 C   0  0  0  0  0  0
  -27.6092  -32.4318   25.7490 C   0  0  0  0  0  0
  -27.5579  -37.1782   24.8500 C   0  0  0  0  0  0
  -21.4247  -29.3045   22.3642 N   0  0  0  0  0  0
  -26.4266  -37.3769   23.9457 N   0  0  0  0  0  0
  -24.7010  -31.0478   22.1011 N   0  0  0  0  0  0
  -23.4234  -28.8152   23.3002 O   0  0  0  0  0  0
  -28.2530  -26.2620   20.1265 O   0  0  0  0  0  0
  -26.5578  -34.8920   22.4655 O   0  0  0  0  0  0
  -23.5488  -32.1386   23.7297 O   0  0  0  0  0  0
  -29.5743  -17.6879   19.1489 C   0  0  0  0  0  0
  -29.4436  -19.1373   19.0891 C   0  0  0  0  0  0
  -29.6006  -19.8299   20.2742 C   0  0  0  0  0  0
  -29.8102  -17.1580   20.4083 C   0  0  0  0  0  0
  -29.7900  -21.3304   20.6429 C   0  0  0  0  0  0
  -29.1786  -23.7481   20.3018 C   0  0  0  0  0  0
  -26.1616  -23.0203   21.3402 C   0  0  0  0  0  0
  -28.3066  -25.1524   22.1992 C   0  0  0  0  0  0
  -26.6085  -24.2609   20.5360 C   0  0  0  0  0  0
  -28.0561  -24.8501   20.7085 C   0  0  1  0  0  0
  -29.8261  -15.8141   20.8277 N   0  0  0  0  0  0
  -28.9437  -22.3700   20.2729 N   0  0  0  0  0  0
  -30.7733  -21.5692   21.3550 O   0  0  0  0  0  0
  -30.3074  -24.1868   20.0501 O   0  0  0  0  0  0
  -29.2430  -19.7377   17.9372 F   0  0  0  0  0  0
  -29.8996  -18.5687   21.5156 S   0  0  0  0  0  0
  -31.4773  -12.5438   19.1860 H   0  0  0  0  0  0
  -30.3634  -11.4454   19.9500 H   0  0  0  0  0  0
  -29.7857  -11.7217   17.5291 H   0  0  0  0  0  0
  -29.6607  -13.4495   17.7296 H   0  0  0  0  0  0
  -27.8687  -11.2924   18.8882 H   0  0  0  0  0  0
  -27.3847  -12.5617   17.7996 H   0  0  0  0  0  0
  -27.6552  -14.2589   19.5012 H   0  0  0  0  0  0
  -28.7085  -12.1225   21.4158 H   0  0  0  0  0  0
  -28.4199  -13.7898   21.8237 H   0  0  0  0  0  0
  -25.2752   -9.5705   22.4766 H   0  0  0  0  0  0
  -24.0021   -7.4637   22.7473 H   0  0  0  0  0  0
  -21.0847   -8.8767   19.8913 H   0  0  0  0  0  0
  -22.3725  -10.9670   19.6134 H   0  0  0  0  0  0
  -21.2011   -7.6148   23.9731 H   0  0  0  0  0  0
  -21.1463   -6.0503   25.9085 H   0  0  0  0  0  0
  -22.0603   -2.7597   23.2838 H   0  0  0  0  0  0
  -22.4028  -11.9875   22.4781 H   0  0  0  0  0  0
  -21.1036  -13.1230   22.2550 H   0  0  0  0  0  0
  -24.6626  -15.8508   20.5215 H   0  0  0  0  0  0
  -26.2792  -15.6255   20.0825 H   0  0  0  0  0  0
  -26.7217  -32.5366   23.1090 H   0  0  0  0  0  0
  -25.0225  -33.9697   25.0523 H   0  0  0  0  0  0
  -22.7277  -31.3024   21.4039 H   0  0  0  0  0  0
  -23.3752  -35.9541   23.3304 H   0  0  0  0  0  0
  -24.3533  -36.8811   22.2053 H   0  0  0  0  0  0
  -23.7166  -37.6430   23.6644 H   0  0  0  0  0  0
  -26.1247  -31.4911   20.6163 H   0  0  0  0  0  0
  -26.8589  -30.7981   22.0268 H   0  0  0  0  0  0
  -28.0934  -28.8339   21.2976 H   0  0  0  0  0  0
  -26.0047  -26.0455   18.7520 H   0  0  0  0  0  0
  -24.0081  -27.4100   18.8498 H   0  0  0  0  0  0
  -23.7778  -30.6005   19.4033 H   0  0  0  0  0  0
  -22.7705  -29.2592   19.8473 H   0  0  0  0  0  0
  -25.1268  -36.1898   25.0855 H   0  0  0  0  0  0
  -21.0076  -28.3256   24.1376 H   0  0  0  0  0  0
  -20.5740  -26.2318   23.3577 H   0  0  0  0  0  0
  -21.6668  -26.7451   22.1145 H   0  0  0  0  0  0
  -19.6837  -25.6307   21.1236 H   0  0  0  0  0  0
  -19.6650  -27.3245   20.6752 H   0  0  0  0  0  0
  -17.4226  -26.6831   21.4015 H   0  0  0  0  0  0
  -18.0287  -26.0078   22.8990 H   0  0  0  0  0  0
  -19.7937  -30.7408   24.2189 H   0  0  0  0  0  0
  -17.4981  -31.6274   24.5197 H   0  0  0  0  0  0
  -15.5367  -30.2963   23.7677 H   0  0  0  0  0  0
  -15.8717  -28.0803   22.7096 H   0  0  0  0  0  0
  -24.6010  -30.6942   25.7768 H   0  0  0  0  0  0
  -24.8861  -32.2796   26.4851 H   0  0  0  0  0  0
  -25.8103  -30.8886   27.0231 H   0  0  0  0  0  0
  -26.3019  -29.6739   24.1237 H   0  0  0  0  0  0
  -27.4214  -29.7323   25.4675 H   0  0  0  0  0  0
  -27.8857  -30.4388   23.9397 H   0  0  0  0  0  0
  -27.2774  -33.3710   26.1939 H   0  0  0  0  0  0
  -28.3984  -32.6695   25.0346 H   0  0  0  0  0  0
  -28.0676  -31.8487   26.5492 H   0  0  0  0  0  0
  -28.2616  -38.0062   24.7580 H   0  0  0  0  0  0
  -28.1050  -36.2606   24.6300 H   0  0  0  0  0  0
  -27.2302  -37.1400   25.8899 H   0  0  0  0  0  0
  -20.9456  -29.8713   21.6787 H   0  0  0  0  0  0
  -26.0127  -38.2835   24.1495 H   0  0  0  0  0  0
  -29.4626  -17.1022   18.2464 H   0  0  0  0  0  0
  -25.0719  -22.9525   21.3095 H   0  0  0  0  0  0
  -26.4315  -23.0837   22.3927 H   0  0  0  0  0  0
  -26.5277  -22.0802   20.9374 H   0  0  0  0  0  0
  -28.3096  -24.2503   22.8102 H   0  0  0  0  0  0
  -27.5528  -25.8282   22.6016 H   0  0  0  0  0  0
  -29.2801  -25.6241   22.3344 H   0  0  0  0  0  0
  -25.8894  -25.0039   20.8725 H   0  0  0  0  0  0
  -26.4113  -24.0687   19.4802 H   0  0  0  0  0  0
  -29.0316  -15.5516   21.3940 H   0  0  0  0  0  0
  -27.9931  -22.0926   20.0866 H   0  0  0  0  0  0
  1 25  1  0  0  0
  1 30  2  0  0  0
  1 81  1  0  0  0
  2  3  1  0  0  0
  2 25  1  0  0  0
  2 87  1  0  0  0
  2 88  1  0  0  0
  3  4  1  0  0  0
  3 89  1  0  0  0
  3 90  1  0  0  0
  4  5  1  0  0  0
  4 91  1  0  0  0
  4 92  1  0  0  0
  5  6  1  0  0  0
  5 26  1  0  0  0
  5 93  1  0  0  0
  6 25  1  0  0  0
  6 94  1  0  0  0
  6 95  1  0  0  0
  7  8  2  0  0  0
  7 26  1  0  0  0
  7 29  1  0  0  0
  8  9  1  0  0  0
  8 22  1  0  0  0
  9 10  1  0  0  0
  9 27  2  0  0  0
 10 11  2  0  0  0
 10 15  1  0  0  0
 11 12  1  0  0  0
 11 96  1  0  0  0
 12 13  2  0  0  0
 12 97  1  0  0  0
 13 14  1  0  0  0
 13 31  1  0  0  0
 14 15  2  0  0  0
 14 98  1  0  0  0
 15 99  1  0  0  0
 16 17  2  0  0  0
 16 21  1  0  0  0
 16 31  1  0  0  0
 17 18  1  0  0  0
 17100  1  0  0  0
 18 19  2  0  0  0
 18101  1  0  0  0
 19 20  1  0  0  0
 19 24  1  0  0  0
 20 21  2  0  0  0
 20102  1  0  0  0
 21 23  1  0  0  0
 22 28  1  0  0  0
 22 32  2  0  0  0
 26 27  1  0  0  0
 28103  1  0  0  0
 28104  1  0  0  0
 29105  1  0  0  0
 29106  1  0  0  0
 33 34  1  0  0  0
 33 66  1  0  0  0
 33 70  2  0  0  0
 34 36  1  0  0  0
 34 59  1  0  0  0
 34107  1  0  0  0
 35 44  2  0  0  0
 35 45  1  0  0  0
 35 68  1  0  0  0
 36 56  1  0  0  0
 36108  1  0  0  0
 37 39  1  0  0  0
 37 47  1  0  0  0
 37 66  1  0  0  0
 37109  1  0  0  0
 38 43  2  0  0  0
 38 46  1  0  0  0
 38 47  1  0  0  0
 39 64  1  0  0  0
 39 67  2  0  0  0
 40 52  1  0  0  0
 40 53  2  0  0  0
 40 58  1  0  0  0
 41110  1  0  0  0
 41111  1  0  0  0
 41112  1  0  0  0
 41 48  1  0  0  0
 42 43  1  0  0  0
 42 66  1  0  0  0
 42113  1  0  0  0
 42114  1  0  0  0
 43 44  1  0  0  0
 44115  1  0  0  0
 45 46  2  0  0  0
 45116  1  0  0  0
 46117  1  0  0  0
 47118  1  0  0  0
 47119  1  0  0  0
 48 56  1  0  0  0
 48 65  1  0  0  0
 48120  1  0  0  0
 49 50  1  0  0  0
 49 53  1  0  0  0
 49 64  1  0  0  0
 49121  1  0  0  0
 50 51  1  0  0  0
 50122  1  0  0  0
 50123  1  0  0  0
 51 52  1  0  0  0
 51124  1  0  0  0
 51125  1  0  0  0
 52126  1  0  0  0
 52127  1  0  0  0
 53 54  1  0  0  0
 54 55  2  0  0  0
 54128  1  0  0  0
 55 57  1  0  0  0
 55129  1  0  0  0
 56 69  2  0  0  0
 57 58  2  0  0  0
 57130  1  0  0  0
 58131  1  0  0  0
 59 60  1  0  0  0
 59 61  1  0  0  0
 59 62  1  0  0  0
 60132  1  0  0  0
 60133  1  0  0  0
 60134  1  0  0  0
 61135  1  0  0  0
 61136  1  0  0  0
 61137  1  0  0  0
 62138  1  0  0  0
 62139  1  0  0  0
 62140  1  0  0  0
 63 65  1  0  0  0
 63141  1  0  0  0
 63142  1  0  0  0
 63143  1  0  0  0
 64144  1  0  0  0
 65145  1  0  0  0
 68 80  1  0  0  0
 71 72  1  0  0  0
 71 74  2  0  0  0
 71146  1  0  0  0
 72 73  2  0  0  0
 72 85  1  0  0  0
 73 75  1  0  0  0
 73 86  1  0  0  0
 74 81  1  0  0  0
 74 86  1  0  0  0
 75 82  1  0  0  0
 75 83  2  0  0  0
 76 82  1  0  0  0
 76 84  2  0  0  0
 76 80  1  0  0  0
 77 79  1  0  0  0
 77147  1  0  0  0
 77148  1  0  0  0
 77149  1  0  0  0
 78150  1  0  0  0
 78151  1  0  0  0
 78152  1  0  0  0
 78 80  1  0  0  0
 79 80  1  0  0  0
 79153  1  0  0  0
 79154  1  0  0  0
 81155  1  0  0  0
 82156  1  0  0  0
M  ISO  4   1 100  68 101  80 101  81 100
M  END
> <chiral flag>
0

> <version>
0

> <s_m_source_file>
/data/baiqing/PycharmProjects/Reinvent-master-3.2/result/LINK_invent/BTK/process_docking_weight1_custom_product_contain_oxygen_bond_distance_aromatic_linkinvent_7_9_3/rearranged_h_0172.sdf

> <i_m_source_file_index>
98

> <r_mmod_Potential_Energy-OPLS-2005>
161.385467529297

> <r_mmod_Stretch_Energy-OPLS-2005>
133.607223510742

> <r_mmod_Bend_Energy-OPLS-2005>
192.114105224609

> <r_mmod_Torsional_Energy-OPLS-2005>
328.675445556641

> <r_mmod_Improper_Torsional_Energy-OPLS-2005>
5.18889141082764

> <r_mmod_Van_der_Waal_Energy-OPLS-2005>
131.525192260742

> <r_mmod_Electrostatic_Energy-OPLS-2005>
-456.185699462891

> <r_mmod_Solvation_Energy-OPLS-2005>
-270.794677734375

> <b_mmod_Minimization_Converged-OPLS-2005>
0

> <r_mmod_RMS_Derivative-OPLS-2005>
4.80747079849243

$$$$
98
                    3D
 Structure written by MMmdl.
160168  0  0  1  0            999 V2000
  -30.7163  -14.4139   20.6310 C   0  0  0  0  0  0
  -30.4201  -12.2827   19.4153 C   0  0  0  0  0  0
  -29.4949  -12.5147   18.2043 C   0  0  0  0  0  0
  -28.0140  -12.3756   18.6126 C   0  0  0  0  0  0
  -27.6638  -13.2014   19.8812 C   0  0  2  0  0  0
  -28.6997  -12.9443   20.9971 C   0  0  0  0  0  0
  -25.2587  -13.8160   20.5685 C   0  0  0  0  0  0
  -24.1825  -13.0443   20.9173 C   0  0  0  0  0  0
  -24.6374  -11.6905   20.8727 C   0  0  0  0  0  0
  -23.9030  -10.4295   21.0409 C   0  0  0  0  0  0
  -24.3588   -9.4211   21.9186 C   0  0  0  0  0  0
  -23.6262   -8.2242   22.0756 C   0  0  0  0  0  0
  -22.4256   -8.0268   21.3538 C   0  0  0  0  0  0
  -21.9895   -9.0243   20.4638 C   0  0  0  0  0  0
  -22.7212  -10.2131   20.3045 C   0  0  0  0  0  0
  -21.6848   -6.0721   22.5273 C   0  0  0  0  0  0
  -21.4020   -6.5631   23.8204 C   0  0  0  0  0  0
  -21.3666   -5.6784   24.9171 C   0  0  0  0  0  0
  -21.6044   -4.3041   24.7227 C   0  0  0  0  0  0
  -21.8830   -3.8131   23.4347 C   0  0  0  0  0  0
  -21.9195   -4.6948   22.3401 C   0  0  0  0  0  0
  -22.7860  -13.5245   21.1856 C   0  0  0  0  0  0
  -22.1648   -4.2121   21.0982 F   0  0  0  0  0  0
  -21.5640   -3.4534   25.7749 F   0  0  0  0  0  0
  -30.0375  -13.2479   20.4557 N   0  0  0  0  0  0
  -26.3019  -12.9317   20.3380 N   0  0  0  0  0  0
  -25.9296  -11.6477   20.5744 N   0  0  0  0  0  0
  -22.0498  -12.8222   22.0408 N   0  0  0  0  0  0
  -25.4357  -15.1877   20.4123 N   0  0  0  0  0  0
  -31.8113  -14.6046   20.0911 O   0  0  0  0  0  0
  -21.6631   -6.8861   21.4235 O   0  0  0  0  0  0
  -22.3540  -14.5551   20.6703 O   0  0  0  0  0  0
  -24.6098  -31.8725   23.2114 C   0  0  0  0  0  0
  -25.9009  -32.4839   23.8401 C   0  0  1  0  0  0
  -27.2314  -27.4562   20.0638 C   0  0  0  0  0  0
  -25.5886  -33.8642   24.2325 N   0  0  0  0  0  0
  -23.3953  -30.4985   21.5515 C   0  0  2  0  0  0
  -24.8381  -28.9629   20.1192 C   0  0  0  0  0  0
  -22.7359  -29.4721   22.5003 C   0  0  0  0  0  0
  -18.0262  -28.1355   22.8514 C   0  0  0  0  0  0
  -24.1463  -36.7312   23.2635 C   0  0  0  0  0  0
  -25.9222  -30.8372   21.3657 C   0  0  0  0  0  0
  -25.9972  -29.4701   20.7176 C   0  0  0  0  0  0
  -27.1907  -28.7164   20.7024 C   0  0  0  0  0  0
  -26.0435  -26.9550   19.4787 C   0  0  0  0  0  0
  -24.8532  -27.7008   19.5059 C   0  0  0  0  0  0
  -23.6011  -29.8283   20.1667 C   0  0  0  0  0  0
  -25.4092  -36.3117   24.0334 C   0  0  1  0  0  0
  -20.5837  -28.3661   23.1319 C   0  0  2  0  0  0
  -20.6750  -26.9401   22.5408 C   0  0  0  0  0  0
  -19.5734  -26.6381   21.5196 C   0  0  0  0  0  0
  -18.1913  -26.7913   22.1617 C   0  0  0  0  0  0
  -19.1505  -28.8819   23.2923 C   0  0  0  0  0  0
  -18.9449  -30.1427   23.8932 C   0  0  0  0  0  0
  -17.6462  -30.6590   24.0557 C   0  0  0  0  0  0
  -25.9042  -34.9491   23.5124 C   0  0  0  0  0  0
  -16.5349  -29.9095   23.6310 C   0  0  0  0  0  0
  -16.7259  -28.6491   23.0369 C   0  0  0  0  0  0
  -26.4444  -31.6630   25.0738 C   0  0  0  0  0  0
  -25.3716  -31.3736   26.1496 C   0  0  0  0  0  0
  -27.0279  -30.3068   24.6124 C   0  0  0  0  0  0
  -27.6003  -32.4361   25.7509 C   0  0  0  0  0  0
  -27.5575  -37.1776   24.8449 C   0  0  0  0  0  0
  -21.4087  -29.3055   22.3724 N   0  0  0  0  0  0
  -26.4259  -37.3818   23.9443 N   0  0  0  0  0  0
  -24.6604  -31.0839   22.1016 N   0  0  0  0  0  0
  -23.4137  -28.8238   23.3026 O   0  0  0  0  0  0
  -28.4321  -26.7780   20.0317 O   0  0  0  0  0  0
  -26.5629  -34.8938   22.4700 O   0  0  0  0  0  0
  -23.5306  -32.1494   23.7517 O   0  0  0  0  0  0
  -27.5970  -18.4809   23.0590 C   0  0  0  0  0  0
  -28.3456  -17.4535   22.4685 C   0  0  0  0  0  0
  -27.8477  -19.8126   22.7090 C   0  0  0  0  0  0
  -29.3579  -17.7357   21.5223 C   0  0  0  0  0  0
  -29.6121  -19.0943   21.1441 C   0  0  0  0  0  0
  -28.8306  -20.1370   21.7444 C   0  0  0  0  0  0
  -30.1093  -16.5859   20.9436 C   0  0  0  0  0  0
  -28.8783  -23.7958   20.7985 C   0  0  0  0  0  0
  -28.2116  -22.5424   21.3929 C   0  0  0  0  0  0
  -30.0823  -25.8321   18.5542 C   0  0  0  0  0  0
  -28.1854  -24.3613   19.5516 C   0  0  0  0  0  0
  -28.6311  -25.7554   19.0496 C   0  0  1  0  0  0
  -30.7151  -19.3978   20.1012 C   0  0  0  0  0  0
  -29.9972  -15.3723   21.3342 N   0  0  0  0  0  0
  -29.0618  -21.5030   21.4097 N   0  0  0  0  0  0
  -29.9129  -24.2739   21.2773 O   0  0  0  0  0  0
  -27.0366  -22.5363   21.7742 O   0  0  0  0  0  0
  -30.4335  -18.7968   18.9440 F   0  0  0  0  0  0
  -30.8924  -20.6884   19.8135 F   0  0  0  0  0  0
  -31.8883  -18.9478   20.5463 F   0  0  0  0  0  0
  -31.4676  -12.3731   19.1185 H   0  0  0  0  0  0
  -30.3085  -11.2649   19.7934 H   0  0  0  0  0  0
  -29.7329  -11.8086   17.4064 H   0  0  0  0  0  0
  -29.6719  -13.5116   17.7990 H   0  0  0  0  0  0
  -27.8151  -11.3187   18.7963 H   0  0  0  0  0  0
  -27.3692  -12.6627   17.7825 H   0  0  0  0  0  0
  -27.7255  -14.2559   19.6109 H   0  0  0  0  0  0
  -28.6626  -11.9009   21.3141 H   0  0  0  0  0  0
  -28.4531  -13.5168   21.8913 H   0  0  0  0  0  0
  -25.2723   -9.5697   22.4772 H   0  0  0  0  0  0
  -23.9974   -7.4646   22.7488 H   0  0  0  0  0  0
  -21.0836   -8.8754   19.8937 H   0  0  0  0  0  0
  -22.3660  -10.9669   19.6155 H   0  0  0  0  0  0
  -21.2005   -7.6139   23.9696 H   0  0  0  0  0  0
  -21.1481   -6.0520   25.9075 H   0  0  0  0  0  0
  -22.0602   -2.7585   23.2870 H   0  0  0  0  0  0
  -22.4086  -11.9851   22.4774 H   0  0  0  0  0  0
  -21.1131  -13.1259   22.2642 H   0  0  0  0  0  0
  -24.6840  -15.8555   20.5409 H   0  0  0  0  0  0
  -26.3088  -15.6182   20.1358 H   0  0  0  0  0  0
  -26.7079  -32.5575   23.1179 H   0  0  0  0  0  0
  -24.9966  -33.9820   25.0420 H   0  0  0  0  0  0
  -22.6832  -31.3142   21.4087 H   0  0  0  0  0  0
  -23.3755  -35.9605   23.3256 H   0  0  0  0  0  0
  -24.3540  -36.9008   22.2044 H   0  0  0  0  0  0
  -23.7171  -37.6480   23.6708 H   0  0  0  0  0  0
  -26.0287  -31.5992   20.5917 H   0  0  0  0  0  0
  -26.8098  -30.8945   21.9834 H   0  0  0  0  0  0
  -28.0889  -29.1115   21.1556 H   0  0  0  0  0  0
  -26.0080  -25.9967   18.9847 H   0  0  0  0  0  0
  -23.9591  -27.3054   19.0449 H   0  0  0  0  0  0
  -23.7039  -30.5980   19.4003 H   0  0  0  0  0  0
  -22.7263  -29.2413   19.8795 H   0  0  0  0  0  0
  -25.1244  -36.1959   25.0824 H   0  0  0  0  0  0
  -20.9945  -28.3234   24.1437 H   0  0  0  0  0  0
  -20.5600  -26.2284   23.3596 H   0  0  0  0  0  0
  -21.6631  -26.7411   22.1241 H   0  0  0  0  0  0
  -19.6893  -25.6282   21.1255 H   0  0  0  0  0  0
  -19.6672  -27.3168   20.6704 H   0  0  0  0  0  0
  -17.4166  -26.6659   21.4037 H   0  0  0  0  0  0
  -18.0332  -26.0040   22.8991 H   0  0  0  0  0  0
  -19.7922  -30.7218   24.2340 H   0  0  0  0  0  0
  -17.5020  -31.6286   24.5124 H   0  0  0  0  0  0
  -15.5355  -30.3010   23.7610 H   0  0  0  0  0  0
  -15.8659  -28.0812   22.7090 H   0  0  0  0  0  0
  -24.5864  -30.7122   25.7834 H   0  0  0  0  0  0
  -24.8938  -32.2894   26.4963 H   0  0  0  0  0  0
  -25.8061  -30.8881   27.0238 H   0  0  0  0  0  0
  -26.2832  -29.6849   24.1139 H   0  0  0  0  0  0
  -27.4004  -29.7285   25.4589 H   0  0  0  0  0  0
  -27.8683  -30.4382   23.9305 H   0  0  0  0  0  0
  -27.2595  -33.3643   26.2104 H   0  0  0  0  0  0
  -28.3795  -32.6964   25.0338 H   0  0  0  0  0  0
  -28.0694  -31.8496   26.5423 H   0  0  0  0  0  0
  -28.2530  -38.0134   24.7625 H   0  0  0  0  0  0
  -28.1142  -36.2679   24.6125 H   0  0  0  0  0  0
  -27.2314  -37.1245   25.8853 H   0  0  0  0  0  0
  -20.9209  -29.8847   21.7028 H   0  0  0  0  0  0
  -26.0148  -38.2873   24.1576 H   0  0  0  0  0  0
  -26.8303  -18.2491   23.7857 H   0  0  0  0  0  0
  -28.1260  -16.4332   22.7535 H   0  0  0  0  0  0
  -27.2660  -20.5771   23.2032 H   0  0  0  0  0  0
  -30.7832  -16.8322   20.1213 H   0  0  0  0  0  0
  -30.2831  -25.0698   17.8012 H   0  0  0  0  0  0
  -30.8033  -25.7102   19.3601 H   0  0  0  0  0  0
  -30.2687  -26.8020   18.0919 H   0  0  0  0  0  0
  -27.1149  -24.3599   19.7505 H   0  0  0  0  0  0
  -28.3374  -23.6359   18.7510 H   0  0  0  0  0  0
  -28.0399  -25.9810   18.1620 H   0  0  0  0  0  0
  -29.9557  -21.7070   20.9778 H   0  0  0  0  0  0
  1 25  1  0  0  0
  1 30  2  0  0  0
  1 84  1  0  0  0
  2  3  1  0  0  0
  2 25  1  0  0  0
  2 91  1  0  0  0
  2 92  1  0  0  0
  3  4  1  0  0  0
  3 93  1  0  0  0
  3 94  1  0  0  0
  4  5  1  0  0  0
  4 95  1  0  0  0
  4 96  1  0  0  0
  5  6  1  0  0  0
  5 26  1  0  0  0
  5 97  1  0  0  0
  6 25  1  0  0  0
  6 98  1  0  0  0
  6 99  1  0  0  0
  7  8  2  0  0  0
  7 26  1  0  0  0
  7 29  1  0  0  0
  8  9  1  0  0  0
  8 22  1  0  0  0
  9 10  1  0  0  0
  9 27  2  0  0  0
 10 11  2  0  0  0
 10 15  1  0  0  0
 11 12  1  0  0  0
 11100  1  0  0  0
 12 13  2  0  0  0
 12101  1  0  0  0
 13 14  1  0  0  0
 13 31  1  0  0  0
 14 15  2  0  0  0
 14102  1  0  0  0
 15103  1  0  0  0
 16 17  2  0  0  0
 16 21  1  0  0  0
 16 31  1  0  0  0
 17 18  1  0  0  0
 17104  1  0  0  0
 18 19  2  0  0  0
 18105  1  0  0  0
 19 20  1  0  0  0
 19 24  1  0  0  0
 20 21  2  0  0  0
 20106  1  0  0  0
 21 23  1  0  0  0
 22 28  1  0  0  0
 22 32  2  0  0  0
 26 27  1  0  0  0
 28107  1  0  0  0
 28108  1  0  0  0
 29109  1  0  0  0
 29110  1  0  0  0
 33 34  1  0  0  0
 33 66  1  0  0  0
 33 70  2  0  0  0
 34 36  1  0  0  0
 34 59  1  0  0  0
 34111  1  0  0  0
 35 44  2  0  0  0
 35 45  1  0  0  0
 35 68  1  0  0  0
 36 56  1  0  0  0
 36112  1  0  0  0
 37 39  1  0  0  0
 37 47  1  0  0  0
 37 66  1  0  0  0
 37113  1  0  0  0
 38 43  2  0  0  0
 38 46  1  0  0  0
 38 47  1  0  0  0
 39 64  1  0  0  0
 39 67  2  0  0  0
 40 52  1  0  0  0
 40 53  2  0  0  0
 40 58  1  0  0  0
 41114  1  0  0  0
 41115  1  0  0  0
 41116  1  0  0  0
 41 48  1  0  0  0
 42 43  1  0  0  0
 42 66  1  0  0  0
 42117  1  0  0  0
 42118  1  0  0  0
 43 44  1  0  0  0
 44119  1  0  0  0
 45 46  2  0  0  0
 45120  1  0  0  0
 46121  1  0  0  0
 47122  1  0  0  0
 47123  1  0  0  0
 48 56  1  0  0  0
 48 65  1  0  0  0
 48124  1  0  0  0
 49 50  1  0  0  0
 49 53  1  0  0  0
 49 64  1  0  0  0
 49125  1  0  0  0
 50 51  1  0  0  0
 50126  1  0  0  0
 50127  1  0  0  0
 51 52  1  0  0  0
 51128  1  0  0  0
 51129  1  0  0  0
 52130  1  0  0  0
 52131  1  0  0  0
 53 54  1  0  0  0
 54 55  2  0  0  0
 54132  1  0  0  0
 55 57  1  0  0  0
 55133  1  0  0  0
 56 69  2  0  0  0
 57 58  2  0  0  0
 57134  1  0  0  0
 58135  1  0  0  0
 59 60  1  0  0  0
 59 61  1  0  0  0
 59 62  1  0  0  0
 60136  1  0  0  0
 60137  1  0  0  0
 60138  1  0  0  0
 61139  1  0  0  0
 61140  1  0  0  0
 61141  1  0  0  0
 62142  1  0  0  0
 62143  1  0  0  0
 62144  1  0  0  0
 63 65  1  0  0  0
 63145  1  0  0  0
 63146  1  0  0  0
 63147  1  0  0  0
 64148  1  0  0  0
 65149  1  0  0  0
 68 82  1  0  0  0
 71 72  2  0  0  0
 71 73  1  0  0  0
 71150  1  0  0  0
 72 74  1  0  0  0
 72151  1  0  0  0
 73 76  2  0  0  0
 73152  1  0  0  0
 74 75  2  0  0  0
 74 77  1  0  0  0
 75 76  1  0  0  0
 75 83  1  0  0  0
 76 85  1  0  0  0
 77 84  2  0  0  0
 77153  1  0  0  0
 78 79  1  0  0  0
 78 81  1  0  0  0
 78 86  2  0  0  0
 79 85  1  0  0  0
 79 87  2  0  0  0
 80154  1  0  0  0
 80155  1  0  0  0
 80156  1  0  0  0
 80 82  1  0  0  0
 81 82  1  0  0  0
 81157  1  0  0  0
 81158  1  0  0  0
 82159  1  0  0  0
 83 88  1  0  0  0
 83 89  1  0  0  0
 83 90  1  0  0  0
 85160  1  0  0  0
M  ISO  4   1 100  68 101  82 101  84 100
M  END
> <chiral flag>
0

> <version>
0

> <s_m_source_file>
/data/baiqing/PycharmProjects/Reinvent-master-3.2/result/LINK_invent/BTK/process_docking_weight1_custom_product_contain_oxygen_bond_distance_aromatic_linkinvent_7_9_3/rearranged_h_0172.sdf

> <i_m_source_file_index>
99

> <r_mmod_Potential_Energy-OPLS-2005>
-29.4968318939209

> <r_mmod_Stretch_Energy-OPLS-2005>
41.4027976989746

> <r_mmod_Bend_Energy-OPLS-2005>
112.620223999023

> <r_mmod_Torsional_Energy-OPLS-2005>
159.650619506836

> <r_mmod_Improper_Torsional_Energy-OPLS-2005>
3.4304211139679

> <r_mmod_Van_der_Waal_Energy-OPLS-2005>
191.439514160156

> <r_mmod_Electrostatic_Energy-OPLS-2005>
-341.504547119141

> <r_mmod_Solvation_Energy-OPLS-2005>
-205.793914794922

> <b_mmod_Minimization_Converged-OPLS-2005>
0

> <r_mmod_RMS_Derivative-OPLS-2005>
2.72888374328613

$$$$
99
                    3D
 Structure written by MMmdl.
153161  0  0  1  0            999 V2000
  -30.6584  -14.5734   20.5557 C   0  0  0  0  0  0
  -30.4395  -12.3758   19.4235 C   0  0  0  0  0  0
  -29.5066  -12.5348   18.2030 C   0  0  0  0  0  0
  -28.0289  -12.3688   18.6149 C   0  0  0  0  0  0
  -27.6587  -13.2150   19.8634 C   0  0  2  0  0  0
  -28.7064  -13.0280   20.9847 C   0  0  0  0  0  0
  -25.2572  -13.8154   20.5642 C   0  0  0  0  0  0
  -24.1843  -13.0433   20.9158 C   0  0  0  0  0  0
  -24.6418  -11.6898   20.8722 C   0  0  0  0  0  0
  -23.9079  -10.4282   21.0391 C   0  0  0  0  0  0
  -24.3625   -9.4196   21.9158 C   0  0  0  0  0  0
  -23.6294   -8.2239   22.0748 C   0  0  0  0  0  0
  -22.4275   -8.0279   21.3541 C   0  0  0  0  0  0
  -21.9919   -9.0249   20.4636 C   0  0  0  0  0  0
  -22.7261  -10.2125   20.3036 C   0  0  0  0  0  0
  -21.6845   -6.0736   22.5270 C   0  0  0  0  0  0
  -21.4016   -6.5634   23.8204 C   0  0  0  0  0  0
  -21.3658   -5.6786   24.9157 C   0  0  0  0  0  0
  -21.6054   -4.3048   24.7209 C   0  0  0  0  0  0
  -21.8820   -3.8145   23.4323 C   0  0  0  0  0  0
  -21.9192   -4.6967   22.3388 C   0  0  0  0  0  0
  -22.7861  -13.5220   21.1825 C   0  0  0  0  0  0
  -22.1655   -4.2157   21.0960 F   0  0  0  0  0  0
  -21.5632   -3.4533   25.7720 F   0  0  0  0  0  0
  -30.0209  -13.3726   20.4220 N   0  0  0  0  0  0
  -26.3023  -12.9346   20.3301 N   0  0  0  0  0  0
  -25.9337  -11.6500   20.5719 N   0  0  0  0  0  0
  -22.0495  -12.8214   22.0385 N   0  0  0  0  0  0
  -25.4274  -15.1879   20.4007 N   0  0  0  0  0  0
  -31.8166  -14.7459   20.1691 O   0  0  0  0  0  0
  -21.6631   -6.8888   21.4241 O   0  0  0  0  0  0
  -22.3534  -14.5519   20.6663 O   0  0  0  0  0  0
  -24.6192  -31.8648   23.2053 C   0  0  0  0  0  0
  -25.9076  -32.4792   23.8369 C   0  0  1  0  0  0
  -27.2303  -27.3817   20.0891 C   0  0  0  0  0  0
  -25.5908  -33.8593   24.2297 N   0  0  0  0  0  0
  -23.4080  -30.4897   21.5444 C   0  0  2  0  0  0
  -24.8522  -28.9419   20.1164 C   0  0  0  0  0  0
  -22.7431  -29.4677   22.4942 C   0  0  0  0  0  0
  -18.0288  -28.1385   22.8454 C   0  0  0  0  0  0
  -24.1507  -36.7310   23.2639 C   0  0  0  0  0  0
  -25.9459  -30.8071   21.3712 C   0  0  0  0  0  0
  -26.0160  -29.4387   20.7141 C   0  0  0  0  0  0
  -27.2018  -28.6642   20.6990 C   0  0  0  0  0  0
  -26.0366  -26.9010   19.5020 C   0  0  0  0  0  0
  -24.8572  -27.6706   19.5179 C   0  0  0  0  0  0
  -23.6192  -29.8175   20.1619 C   0  0  0  0  0  0
  -25.4135  -36.3104   24.0341 C   0  0  1  0  0  0
  -20.5881  -28.3681   23.1272 C   0  0  2  0  0  0
  -20.6784  -26.9404   22.5400 C   0  0  0  0  0  0
  -19.5753  -26.6388   21.5194 C   0  0  0  0  0  0
  -18.1929  -26.7926   22.1601 C   0  0  0  0  0  0
  -19.1535  -28.8848   23.2859 C   0  0  0  0  0  0
  -18.9466  -30.1441   23.8882 C   0  0  0  0  0  0
  -17.6477  -30.6566   24.0564 C   0  0  0  0  0  0
  -25.9058  -34.9465   23.5121 C   0  0  0  0  0  0
  -16.5360  -29.9087   23.6322 C   0  0  0  0  0  0
  -16.7275  -28.6497   23.0346 C   0  0  0  0  0  0
  -26.4466  -31.6596   25.0719 C   0  0  0  0  0  0
  -25.3706  -31.3732   26.1456 C   0  0  0  0  0  0
  -27.0306  -30.3022   24.6152 C   0  0  0  0  0  0
  -27.6036  -32.4326   25.7486 C   0  0  0  0  0  0
  -27.5603  -37.1807   24.8471 C   0  0  0  0  0  0
  -21.4164  -29.3055   22.3665 N   0  0  0  0  0  0
  -26.4316  -37.3797   23.9395 N   0  0  0  0  0  0
  -24.6750  -31.0712   22.0961 N   0  0  0  0  0  0
  -23.4174  -28.8202   23.2997 O   0  0  0  0  0  0
  -28.4094  -26.6476   20.1088 O   0  0  0  0  0  0
  -26.5622  -34.8929   22.4682 O   0  0  0  0  0  0
  -23.5370  -32.1437   23.7393 O   0  0  0  0  0  0
  -29.7669  -19.8839   19.0763 C   0  0  0  0  0  0
  -30.1977  -18.5359   19.2761 C   0  0  0  0  0  0
  -30.0197  -18.1835   20.5909 C   0  0  0  0  0  0
  -29.3801  -20.3149   20.3148 C   0  0  0  0  0  0
  -28.4416  -24.1177   20.2895 C   0  0  0  0  0  0
  -30.3595  -16.9590   21.4499 C   0  0  0  0  0  0
  -28.9776  -22.7591   19.7337 C   0  0  0  0  0  0
  -28.5497  -25.3896   19.3882 C   0  0  0  0  0  0
  -30.7603  -17.7293   18.2864 N   0  0  0  0  0  0
  -28.9306  -21.6095   20.6724 N   0  0  0  0  0  0
  -29.9050  -15.6087   21.0099 N   0  0  0  0  0  0
  -27.9313  -24.1651   21.4152 O   0  0  0  0  0  0
  -29.5125  -19.3022   21.2458 O   0  0  0  0  0  0
  -31.4804  -12.5025   19.1214 H   0  0  0  0  0  0
  -30.3663  -11.3706   19.8385 H   0  0  0  0  0  0
  -29.7704  -11.8133   17.4299 H   0  0  0  0  0  0
  -29.6542  -13.5226   17.7611 H   0  0  0  0  0  0
  -27.8547  -11.3122   18.8166 H   0  0  0  0  0  0
  -27.3787  -12.6307   17.7777 H   0  0  0  0  0  0
  -27.6885  -14.2586   19.5508 H   0  0  0  0  0  0
  -28.7170  -11.9915   21.3229 H   0  0  0  0  0  0
  -28.4613  -13.6250   21.8629 H   0  0  0  0  0  0
  -25.2783   -9.5652   22.4720 H   0  0  0  0  0  0
  -23.9995   -7.4629   22.7464 H   0  0  0  0  0  0
  -21.0854   -8.8772   19.8935 H   0  0  0  0  0  0
  -22.3727  -10.9659   19.6123 H   0  0  0  0  0  0
  -21.2008   -7.6146   23.9714 H   0  0  0  0  0  0
  -21.1485   -6.0504   25.9062 H   0  0  0  0  0  0
  -22.0609   -2.7614   23.2811 H   0  0  0  0  0  0
  -22.4104  -11.9890   22.4806 H   0  0  0  0  0  0
  -21.1099  -13.1216   22.2550 H   0  0  0  0  0  0
  -24.6562  -15.8403   20.4834 H   0  0  0  0  0  0
  -26.2755  -15.6258   20.0613 H   0  0  0  0  0  0
  -26.7116  -32.5469   23.1104 H   0  0  0  0  0  0
  -25.0089  -33.9766   25.0463 H   0  0  0  0  0  0
  -22.7017  -31.3083   21.3990 H   0  0  0  0  0  0
  -23.3764  -35.9649   23.3324 H   0  0  0  0  0  0
  -24.3604  -36.8918   22.2046 H   0  0  0  0  0  0
  -23.7274  -37.6527   23.6644 H   0  0  0  0  0  0
  -26.0879  -31.5736   20.6073 H   0  0  0  0  0  0
  -26.8249  -30.8421   22.0049 H   0  0  0  0  0  0
  -28.1028  -29.0404   21.1648 H   0  0  0  0  0  0
  -25.9804  -25.9227   19.0481 H   0  0  0  0  0  0
  -23.9533  -27.2726   19.0756 H   0  0  0  0  0  0
  -23.7394  -30.5921   19.4032 H   0  0  0  0  0  0
  -22.7400  -29.2469   19.8592 H   0  0  0  0  0  0
  -25.1303  -36.1973   25.0836 H   0  0  0  0  0  0
  -20.9955  -28.3267   24.1398 H   0  0  0  0  0  0
  -20.5704  -26.2270   23.3582 H   0  0  0  0  0  0
  -21.6641  -26.7468   22.1158 H   0  0  0  0  0  0
  -19.6933  -25.6305   21.1211 H   0  0  0  0  0  0
  -19.6723  -27.3207   20.6723 H   0  0  0  0  0  0
  -17.4200  -26.6659   21.3998 H   0  0  0  0  0  0
  -18.0322  -26.0084   22.9012 H   0  0  0  0  0  0
  -19.7958  -30.7229   24.2247 H   0  0  0  0  0  0
  -17.5052  -31.6260   24.5157 H   0  0  0  0  0  0
  -15.5356  -30.2976   23.7691 H   0  0  0  0  0  0
  -15.8668  -28.0830   22.7054 H   0  0  0  0  0  0
  -24.5885  -30.7078   25.7806 H   0  0  0  0  0  0
  -24.8880  -32.2882   26.4887 H   0  0  0  0  0  0
  -25.8026  -30.8918   27.0240 H   0  0  0  0  0  0
  -26.2871  -29.6764   24.1203 H   0  0  0  0  0  0
  -27.4039  -29.7281   25.4649 H   0  0  0  0  0  0
  -27.8733  -30.4323   23.9353 H   0  0  0  0  0  0
  -27.2657  -33.3647   26.2051 H   0  0  0  0  0  0
  -28.3838  -32.6880   25.0288 H   0  0  0  0  0  0
  -28.0711  -31.8454   26.5407 H   0  0  0  0  0  0
  -28.2601  -38.0124   24.7512 H   0  0  0  0  0  0
  -28.1104  -36.2641   24.6289 H   0  0  0  0  0  0
  -27.2304  -37.1465   25.8874 H   0  0  0  0  0  0
  -20.9302  -29.8796   21.6931 H   0  0  0  0  0  0
  -26.0208  -38.2880   24.1375 H   0  0  0  0  0  0
  -29.7670  -20.4702   18.1678 H   0  0  0  0  0  0
  -29.9415  -17.1168   22.4455 H   0  0  0  0  0  0
  -31.4401  -16.9407   21.6077 H   0  0  0  0  0  0
  -30.0056  -22.9082   19.4029 H   0  0  0  0  0  0
  -28.3944  -22.5185   18.8458 H   0  0  0  0  0  0
  -27.8666  -25.3137   18.5440 H   0  0  0  0  0  0
  -29.5432  -25.3848   18.9383 H   0  0  0  0  0  0
  -31.0880  -18.1749   17.4342 H   0  0  0  0  0  0
  -31.3678  -16.9698   18.5854 H   0  0  0  0  0  0
  -28.6664  -21.8620   21.6221 H   0  0  0  0  0  0
  -28.9319  -15.4015   21.1751 H   0  0  0  0  0  0
  1 25  1  0  0  0
  1 30  2  0  0  0
  1 81  1  0  0  0
  2  3  1  0  0  0
  2 25  1  0  0  0
  2 84  1  0  0  0
  2 85  1  0  0  0
  3  4  1  0  0  0
  3 86  1  0  0  0
  3 87  1  0  0  0
  4  5  1  0  0  0
  4 88  1  0  0  0
  4 89  1  0  0  0
  5  6  1  0  0  0
  5 26  1  0  0  0
  5 90  1  0  0  0
  6 25  1  0  0  0
  6 91  1  0  0  0
  6 92  1  0  0  0
  7  8  2  0  0  0
  7 26  1  0  0  0
  7 29  1  0  0  0
  8  9  1  0  0  0
  8 22  1  0  0  0
  9 10  1  0  0  0
  9 27  2  0  0  0
 10 11  2  0  0  0
 10 15  1  0  0  0
 11 12  1  0  0  0
 11 93  1  0  0  0
 12 13  2  0  0  0
 12 94  1  0  0  0
 13 14  1  0  0  0
 13 31  1  0  0  0
 14 15  2  0  0  0
 14 95  1  0  0  0
 15 96  1  0  0  0
 16 17  2  0  0  0
 16 21  1  0  0  0
 16 31  1  0  0  0
 17 18  1  0  0  0
 17 97  1  0  0  0
 18 19  2  0  0  0
 18 98  1  0  0  0
 19 20  1  0  0  0
 19 24  1  0  0  0
 20 21  2  0  0  0
 20 99  1  0  0  0
 21 23  1  0  0  0
 22 28  1  0  0  0
 22 32  2  0  0  0
 26 27  1  0  0  0
 28100  1  0  0  0
 28101  1  0  0  0
 29102  1  0  0  0
 29103  1  0  0  0
 33 34  1  0  0  0
 33 66  1  0  0  0
 33 70  2  0  0  0
 34 36  1  0  0  0
 34 59  1  0  0  0
 34104  1  0  0  0
 35 44  2  0  0  0
 35 45  1  0  0  0
 35 68  1  0  0  0
 36 56  1  0  0  0
 36105  1  0  0  0
 37 39  1  0  0  0
 37 47  1  0  0  0
 37 66  1  0  0  0
 37106  1  0  0  0
 38 43  2  0  0  0
 38 46  1  0  0  0
 38 47  1  0  0  0
 39 64  1  0  0  0
 39 67  2  0  0  0
 40 52  1  0  0  0
 40 53  2  0  0  0
 40 58  1  0  0  0
 41107  1  0  0  0
 41108  1  0  0  0
 41109  1  0  0  0
 41 48  1  0  0  0
 42 43  1  0  0  0
 42 66  1  0  0  0
 42110  1  0  0  0
 42111  1  0  0  0
 43 44  1  0  0  0
 44112  1  0  0  0
 45 46  2  0  0  0
 45113  1  0  0  0
 46114  1  0  0  0
 47115  1  0  0  0
 47116  1  0  0  0
 48 56  1  0  0  0
 48 65  1  0  0  0
 48117  1  0  0  0
 49 50  1  0  0  0
 49 53  1  0  0  0
 49 64  1  0  0  0
 49118  1  0  0  0
 50 51  1  0  0  0
 50119  1  0  0  0
 50120  1  0  0  0
 51 52  1  0  0  0
 51121  1  0  0  0
 51122  1  0  0  0
 52123  1  0  0  0
 52124  1  0  0  0
 53 54  1  0  0  0
 54 55  2  0  0  0
 54125  1  0  0  0
 55 57  1  0  0  0
 55126  1  0  0  0
 56 69  2  0  0  0
 57 58  2  0  0  0
 57127  1  0  0  0
 58128  1  0  0  0
 59 60  1  0  0  0
 59 61  1  0  0  0
 59 62  1  0  0  0
 60129  1  0  0  0
 60130  1  0  0  0
 60131  1  0  0  0
 61132  1  0  0  0
 61133  1  0  0  0
 61134  1  0  0  0
 62135  1  0  0  0
 62136  1  0  0  0
 62137  1  0  0  0
 63 65  1  0  0  0
 63138  1  0  0  0
 63139  1  0  0  0
 63140  1  0  0  0
 64141  1  0  0  0
 65142  1  0  0  0
 68 78  1  0  0  0
 71 72  1  0  0  0
 71 74  2  0  0  0
 71143  1  0  0  0
 72 73  2  0  0  0
 72 79  1  0  0  0
 73 76  1  0  0  0
 73 83  1  0  0  0
 74 80  1  0  0  0
 74 83  1  0  0  0
 75 77  1  0  0  0
 75 78  1  0  0  0
 75 82  2  0  0  0
 76 81  1  0  0  0
 76144  1  0  0  0
 76145  1  0  0  0
 77 80  1  0  0  0
 77146  1  0  0  0
 77147  1  0  0  0
 78148  1  0  0  0
 78149  1  0  0  0
 79150  1  0  0  0
 79151  1  0  0  0
 80152  1  0  0  0
 81153  1  0  0  0
M  ISO  4   1 100  68 101  78 101  81 100
M  END
> <chiral flag>
0

> <version>
0

> <s_m_source_file>
/data/baiqing/PycharmProjects/Reinvent-master-3.2/result/LINK_invent/BTK/process_docking_weight1_custom_product_contain_oxygen_bond_distance_aromatic_linkinvent_7_9_3/rearranged_h_0172.sdf

> <i_m_source_file_index>
100

> <r_mmod_Potential_Energy-OPLS-2005>
-69.9683074951172

> <r_mmod_Stretch_Energy-OPLS-2005>
52.3473434448242

> <r_mmod_Bend_Energy-OPLS-2005>
134.790893554688

> <r_mmod_Torsional_Energy-OPLS-2005>
193.765029907227

> <r_mmod_Improper_Torsional_Energy-OPLS-2005>
7.20774602890015

> <r_mmod_Van_der_Waal_Energy-OPLS-2005>
121.104057312012

> <r_mmod_Electrostatic_Energy-OPLS-2005>
-354.584564208984

> <r_mmod_Solvation_Energy-OPLS-2005>
-251.359375

> <b_mmod_Minimization_Converged-OPLS-2005>
0

> <r_mmod_RMS_Derivative-OPLS-2005>
4.3149299621582

$$$$
