0
                    3D
 Structure written by MMmdl.
166174  0  0  1  0            999 V2000
  -30.7234  -14.4644   20.6571 C   0  0  0  0  0  0
  -30.4242  -12.3332   19.4217 C   0  0  0  0  0  0
  -29.4945  -12.5314   18.2088 C   0  0  0  0  0  0
  -28.0178  -12.3746   18.6215 C   0  0  0  0  0  0
  -27.6632  -13.2072   19.8829 C   0  0  2  0  0  0
  -28.7034  -12.9693   20.9993 C   0  0  0  0  0  0
  -25.2550  -13.8130   20.5575 C   0  0  0  0  0  0
  -24.1831  -13.0423   20.9164 C   0  0  0  0  0  0
  -24.6393  -11.6895   20.8757 C   0  0  0  0  0  0
  -23.9057  -10.4292   21.0425 C   0  0  0  0  0  0
  -24.3611   -9.4208   21.9198 C   0  0  0  0  0  0
  -23.6293   -8.2231   22.0755 C   0  0  0  0  0  0
  -22.4277   -8.0274   21.3544 C   0  0  0  0  0  0
  -21.9904   -9.0243   20.4647 C   0  0  0  0  0  0
  -22.7225  -10.2126   20.3066 C   0  0  0  0  0  0
  -21.6850   -6.0731   22.5290 C   0  0  0  0  0  0
  -21.4007   -6.5635   23.8225 C   0  0  0  0  0  0
  -21.3661   -5.6790   24.9185 C   0  0  0  0  0  0
  -21.6045   -4.3047   24.7234 C   0  0  0  0  0  0
  -21.8817   -3.8141   23.4357 C   0  0  0  0  0  0
  -21.9189   -4.6964   22.3411 C   0  0  0  0  0  0
  -22.7865  -13.5237   21.1832 C   0  0  0  0  0  0
  -22.1664   -4.2152   21.0988 F   0  0  0  0  0  0
  -21.5632   -3.4529   25.7744 F   0  0  0  0  0  0
  -30.0322  -13.3020   20.4621 N   0  0  0  0  0  0
  -26.3027  -12.9322   20.3392 N   0  0  0  0  0  0
  -25.9330  -11.6481   20.5814 N   0  0  0  0  0  0
  -22.0501  -12.8259   22.0407 N   0  0  0  0  0  0
  -25.4164  -15.1817   20.3755 N   0  0  0  0  0  0
  -31.7766  -14.6915   20.0518 O   0  0  0  0  0  0
  -21.6637   -6.8873   21.4248 O   0  0  0  0  0  0
  -22.3561  -14.5541   20.6676 O   0  0  0  0  0  0
  -24.6182  -31.8663   23.2090 C   0  0  0  0  0  0
  -25.9071  -32.4811   23.8385 C   0  0  1  0  0  0
  -27.2313  -27.4086   20.0735 C   0  0  0  0  0  0
  -25.5917  -33.8608   24.2315 N   0  0  0  0  0  0
  -23.4053  -30.4934   21.5507 C   0  0  2  0  0  0
  -24.8468  -28.9571   20.1135 C   0  0  0  0  0  0
  -22.7419  -29.4669   22.4977 C   0  0  0  0  0  0
  -18.0273  -28.1383   22.8486 C   0  0  0  0  0  0
  -24.1482  -36.7297   23.2639 C   0  0  0  0  0  0
  -25.9396  -30.8215   21.3665 C   0  0  0  0  0  0
  -26.0120  -29.4561   20.7080 C   0  0  0  0  0  0
  -27.2027  -28.6869   20.6888 C   0  0  0  0  0  0
  -26.0306  -26.9231   19.5024 C   0  0  0  0  0  0
  -24.8523  -27.6900   19.5123 C   0  0  0  0  0  0
  -23.6116  -29.8286   20.1646 C   0  0  0  0  0  0
  -25.4107  -36.3103   24.0337 C   0  0  1  0  0  0
  -20.5870  -28.3673   23.1304 C   0  0  2  0  0  0
  -20.6768  -26.9406   22.5411 C   0  0  0  0  0  0
  -19.5750  -26.6387   21.5210 C   0  0  0  0  0  0
  -18.1928  -26.7932   22.1620 C   0  0  0  0  0  0
  -19.1527  -28.8843   23.2895 C   0  0  0  0  0  0
  -18.9456  -30.1448   23.8904 C   0  0  0  0  0  0
  -17.6463  -30.6591   24.0564 C   0  0  0  0  0  0
  -25.9041  -34.9470   23.5122 C   0  0  0  0  0  0
  -16.5347  -29.9091   23.6329 C   0  0  0  0  0  0
  -16.7265  -28.6511   23.0346 C   0  0  0  0  0  0
  -26.4488  -31.6601   25.0722 C   0  0  0  0  0  0
  -25.3744  -31.3709   26.1465 C   0  0  0  0  0  0
  -27.0329  -30.3046   24.6116 C   0  0  0  0  0  0
  -27.6061  -32.4324   25.7477 C   0  0  0  0  0  0
  -27.5584  -37.1795   24.8466 C   0  0  0  0  0  0
  -21.4149  -29.3040   22.3706 N   0  0  0  0  0  0
  -26.4291  -37.3795   23.9419 N   0  0  0  0  0  0
  -24.6729  -31.0754   22.0992 N   0  0  0  0  0  0
  -23.4185  -28.8202   23.3023 O   0  0  0  0  0  0
  -28.4052  -26.6672   20.0903 O   0  0  0  0  0  0
  -26.5601  -34.8930   22.4681 O   0  0  0  0  0  0
  -23.5372  -32.1424   23.7476 O   0  0  0  0  0  0
  -30.6518  -17.5425   20.4283 C   0  0  0  0  0  0
  -30.3094  -18.8776   20.1088 C   0  0  0  0  0  0
  -28.5634  -17.2761   21.6406 C   0  0  0  0  0  0
  -29.7948  -16.7058   21.1931 C   0  0  0  0  0  0
  -29.0851  -19.4306   20.5439 C   0  0  0  0  0  0
  -28.2211  -18.6130   21.3003 C   0  0  0  0  0  0
  -29.1481  -24.2978   19.6778 C   0  0  0  0  0  0
  -28.5567  -23.0681   19.6599 C   0  0  0  0  0  0
  -29.3401  -21.9020   20.1313 C   0  0  0  0  0  0
  -31.8131  -15.7011   23.4470 C   0  0  0  0  0  0
  -27.5683  -16.5012   22.4923 C   0  0  0  0  0  0
  -27.1383  -22.8408   19.1353 C   0  0  0  0  0  0
  -31.9149  -16.1048   24.9095 C   0  0  0  0  0  0
  -28.6294  -25.6301   19.1083 C   0  0  0  0  0  0
  -30.4886  -15.0821   22.9779 C   0  0  0  0  0  0
  -28.6389  -20.7490   20.1946 N   0  0  0  0  0  0
  -30.2057  -15.3562   21.5525 N   0  0  0  0  0  0
  -30.5373  -21.9444   20.4302 O   0  0  0  0  0  0
  -32.7724  -15.8568   22.6886 O   0  0  0  0  0  0
  -27.0367  -19.1304   21.7110 F   0  0  0  0  0  0
  -31.4677  -12.4402   19.1224 H   0  0  0  0  0  0
  -30.3383  -11.3168   19.8093 H   0  0  0  0  0  0
  -29.7427  -11.8177   17.4222 H   0  0  0  0  0  0
  -29.6533  -13.5239   17.7835 H   0  0  0  0  0  0
  -27.8386  -11.3171   18.8171 H   0  0  0  0  0  0
  -27.3608  -12.6422   17.7920 H   0  0  0  0  0  0
  -27.7128  -14.2594   19.6014 H   0  0  0  0  0  0
  -28.6910  -11.9246   21.3132 H   0  0  0  0  0  0
  -28.4550  -13.5273   21.8974 H   0  0  0  0  0  0
  -25.2749   -9.5693   22.4773 H   0  0  0  0  0  0
  -24.0017   -7.4616   22.7460 H   0  0  0  0  0  0
  -21.0836   -8.8747   19.8950 H   0  0  0  0  0  0
  -22.3681  -10.9660   19.6169 H   0  0  0  0  0  0
  -21.1994   -7.6141   23.9735 H   0  0  0  0  0  0
  -21.1486   -6.0513   25.9095 H   0  0  0  0  0  0
  -22.0592   -2.7607   23.2851 H   0  0  0  0  0  0
  -22.4098  -11.9927   22.4826 H   0  0  0  0  0  0
  -21.1115  -13.1305   22.2578 H   0  0  0  0  0  0
  -24.6354  -15.8243   20.4484 H   0  0  0  0  0  0
  -26.2564  -15.6167   20.0172 H   0  0  0  0  0  0
  -26.7129  -32.5506   23.1136 H   0  0  0  0  0  0
  -25.0089  -33.9756   25.0476 H   0  0  0  0  0  0
  -22.6970  -31.3127   21.4147 H   0  0  0  0  0  0
  -23.3757  -35.9618   23.3300 H   0  0  0  0  0  0
  -24.3583  -36.8909   22.2055 H   0  0  0  0  0  0
  -23.7215  -37.6494   23.6650 H   0  0  0  0  0  0
  -26.0631  -31.5889   20.6007 H   0  0  0  0  0  0
  -26.8241  -30.8676   21.9896 H   0  0  0  0  0  0
  -28.1039  -29.0725   21.1446 H   0  0  0  0  0  0
  -25.9561  -25.9416   19.0643 H   0  0  0  0  0  0
  -23.9508  -27.2918   19.0664 H   0  0  0  0  0  0
  -23.7212  -30.6053   19.4068 H   0  0  0  0  0  0
  -22.7331  -29.2524   19.8679 H   0  0  0  0  0  0
  -25.1284  -36.1964   25.0833 H   0  0  0  0  0  0
  -20.9971  -28.3244   24.1422 H   0  0  0  0  0  0
  -20.5682  -26.2281   23.3600 H   0  0  0  0  0  0
  -21.6639  -26.7454   22.1195 H   0  0  0  0  0  0
  -19.6911  -25.6300   21.1233 H   0  0  0  0  0  0
  -19.6695  -27.3198   20.6745 H   0  0  0  0  0  0
  -17.4199  -26.6677   21.4019 H   0  0  0  0  0  0
  -18.0332  -26.0075   22.9016 H   0  0  0  0  0  0
  -19.7935  -30.7261   24.2281 H   0  0  0  0  0  0
  -17.5019  -31.6275   24.5160 H   0  0  0  0  0  0
  -15.5349  -30.2996   23.7662 H   0  0  0  0  0  0
  -15.8663  -28.0837   22.7052 H   0  0  0  0  0  0
  -24.5911  -30.7069   25.7797 H   0  0  0  0  0  0
  -24.8942  -32.2863   26.4935 H   0  0  0  0  0  0
  -25.8090  -30.8858   27.0213 H   0  0  0  0  0  0
  -26.2878  -29.6789   24.1194 H   0  0  0  0  0  0
  -27.4128  -29.7312   25.4582 H   0  0  0  0  0  0
  -27.8700  -30.4376   23.9259 H   0  0  0  0  0  0
  -27.2691  -33.3622   26.2077 H   0  0  0  0  0  0
  -28.3856  -32.6888   25.0286 H   0  0  0  0  0  0
  -28.0753  -31.8434   26.5371 H   0  0  0  0  0  0
  -28.2594  -38.0101   24.7544 H   0  0  0  0  0  0
  -28.1083  -36.2636   24.6252 H   0  0  0  0  0  0
  -27.2307  -37.1398   25.8870 H   0  0  0  0  0  0
  -20.9315  -29.8752   21.6914 H   0  0  0  0  0  0
  -26.0177  -38.2867   24.1441 H   0  0  0  0  0  0
  -31.6102  -17.1784   20.0890 H   0  0  0  0  0  0
  -30.9916  -19.4676   19.5145 H   0  0  0  0  0  0
  -30.1375  -24.3873   20.1059 H   0  0  0  0  0  0
  -27.5626  -15.4436   22.2510 H   0  0  0  0  0  0
  -26.5513  -16.8618   22.3405 H   0  0  0  0  0  0
  -27.7932  -16.6222   23.5508 H   0  0  0  0  0  0
  -26.6298  -23.7598   18.8574 H   0  0  0  0  0  0
  -26.5149  -22.3681   19.8958 H   0  0  0  0  0  0
  -27.1543  -22.1998   18.2527 H   0  0  0  0  0  0
  -31.3874  -15.3928   25.5431 H   0  0  0  0  0  0
  -31.4791  -17.0930   25.0545 H   0  0  0  0  0  0
  -32.9579  -16.1370   25.2235 H   0  0  0  0  0  0
  -27.8296  -25.4760   18.3914 H   0  0  0  0  0  0
  -29.4380  -26.0059   18.4812 H   0  0  0  0  0  0
  -29.6919  -15.4484   23.6190 H   0  0  0  0  0  0
  -30.5401  -14.0087   23.1705 H   0  0  0  0  0  0
  -27.6418  -20.8492   20.0643 H   0  0  0  0  0  0
  1 25  1  0  0  0
  1 30  2  0  0  0
  1 87  1  0  0  0
  2  3  1  0  0  0
  2 25  1  0  0  0
  2 91  1  0  0  0
  2 92  1  0  0  0
  3  4  1  0  0  0
  3 93  1  0  0  0
  3 94  1  0  0  0
  4  5  1  0  0  0
  4 95  1  0  0  0
  4 96  1  0  0  0
  5  6  1  0  0  0
  5 26  1  0  0  0
  5 97  1  0  0  0
  6 25  1  0  0  0
  6 98  1  0  0  0
  6 99  1  0  0  0
  7  8  2  0  0  0
  7 26  1  0  0  0
  7 29  1  0  0  0
  8  9  1  0  0  0
  8 22  1  0  0  0
  9 10  1  0  0  0
  9 27  2  0  0  0
 10 11  2  0  0  0
 10 15  1  0  0  0
 11 12  1  0  0  0
 11100  1  0  0  0
 12 13  2  0  0  0
 12101  1  0  0  0
 13 14  1  0  0  0
 13 31  1  0  0  0
 14 15  2  0  0  0
 14102  1  0  0  0
 15103  1  0  0  0
 16 17  2  0  0  0
 16 21  1  0  0  0
 16 31  1  0  0  0
 17 18  1  0  0  0
 17104  1  0  0  0
 18 19  2  0  0  0
 18105  1  0  0  0
 19 20  1  0  0  0
 19 24  1  0  0  0
 20 21  2  0  0  0
 20106  1  0  0  0
 21 23  1  0  0  0
 22 28  1  0  0  0
 22 32  2  0  0  0
 26 27  1  0  0  0
 28107  1  0  0  0
 28108  1  0  0  0
 29109  1  0  0  0
 29110  1  0  0  0
 33 34  1  0  0  0
 33 66  1  0  0  0
 33 70  2  0  0  0
 34 36  1  0  0  0
 34 59  1  0  0  0
 34111  1  0  0  0
 35 44  2  0  0  0
 35 45  1  0  0  0
 35 68  1  0  0  0
 36 56  1  0  0  0
 36112  1  0  0  0
 37 39  1  0  0  0
 37 47  1  0  0  0
 37 66  1  0  0  0
 37113  1  0  0  0
 38 43  2  0  0  0
 38 46  1  0  0  0
 38 47  1  0  0  0
 39 64  1  0  0  0
 39 67  2  0  0  0
 40 52  1  0  0  0
 40 53  2  0  0  0
 40 58  1  0  0  0
 41114  1  0  0  0
 41115  1  0  0  0
 41116  1  0  0  0
 41 48  1  0  0  0
 42 43  1  0  0  0
 42 66  1  0  0  0
 42117  1  0  0  0
 42118  1  0  0  0
 43 44  1  0  0  0
 44119  1  0  0  0
 45 46  2  0  0  0
 45120  1  0  0  0
 46121  1  0  0  0
 47122  1  0  0  0
 47123  1  0  0  0
 48 56  1  0  0  0
 48 65  1  0  0  0
 48124  1  0  0  0
 49 50  1  0  0  0
 49 53  1  0  0  0
 49 64  1  0  0  0
 49125  1  0  0  0
 50 51  1  0  0  0
 50126  1  0  0  0
 50127  1  0  0  0
 51 52  1  0  0  0
 51128  1  0  0  0
 51129  1  0  0  0
 52130  1  0  0  0
 52131  1  0  0  0
 53 54  1  0  0  0
 54 55  2  0  0  0
 54132  1  0  0  0
 55 57  1  0  0  0
 55133  1  0  0  0
 56 69  2  0  0  0
 57 58  2  0  0  0
 57134  1  0  0  0
 58135  1  0  0  0
 59 60  1  0  0  0
 59 61  1  0  0  0
 59 62  1  0  0  0
 60136  1  0  0  0
 60137  1  0  0  0
 60138  1  0  0  0
 61139  1  0  0  0
 61140  1  0  0  0
 61141  1  0  0  0
 62142  1  0  0  0
 62143  1  0  0  0
 62144  1  0  0  0
 63 65  1  0  0  0
 63145  1  0  0  0
 63146  1  0  0  0
 63147  1  0  0  0
 64148  1  0  0  0
 65149  1  0  0  0
 68 84  1  0  0  0
 71 72  2  0  0  0
 71 74  1  0  0  0
 71150  1  0  0  0
 72 75  1  0  0  0
 72151  1  0  0  0
 73 74  2  0  0  0
 73 76  1  0  0  0
 73 81  1  0  0  0
 74 87  1  0  0  0
 75 76  2  0  0  0
 75 86  1  0  0  0
 76 90  1  0  0  0
 77 78  2  0  0  0
 77 84  1  0  0  0
 77152  1  0  0  0
 78 79  1  0  0  0
 78 82  1  0  0  0
 79 86  1  0  0  0
 79 88  2  0  0  0
 80 83  1  0  0  0
 80 85  1  0  0  0
 80 89  2  0  0  0
 81153  1  0  0  0
 81154  1  0  0  0
 81155  1  0  0  0
 82156  1  0  0  0
 82157  1  0  0  0
 82158  1  0  0  0
 83159  1  0  0  0
 83160  1  0  0  0
 83161  1  0  0  0
 84162  1  0  0  0
 84163  1  0  0  0
 85 87  1  0  0  0
 85164  1  0  0  0
 85165  1  0  0  0
 86166  1  0  0  0
M  ISO  4   1 100  68 101  84 101  87 100
M  END
> <chiral flag>
0

> <version>
0

> <s_m_source_file>
/data/baiqing/PycharmProjects/Reinvent-master-3.2/result/LINK_invent/BTK/process_docking_weight1_custom_product_contain_oxygen_bond_distance_aromatic_linkinvent_7_9_3/rearranged_h_0175.sdf

> <i_m_source_file_index>
1

> <r_mmod_Potential_Energy-OPLS-2005>
-21.4479541778564

> <r_mmod_Stretch_Energy-OPLS-2005>
53.2395324707031

> <r_mmod_Bend_Energy-OPLS-2005>
120.733825683594

> <r_mmod_Torsional_Energy-OPLS-2005>
326.264770507812

> <r_mmod_Improper_Torsional_Energy-OPLS-2005>
3.70382022857666

> <r_mmod_Van_der_Waal_Energy-OPLS-2005>
165.510208129883

> <r_mmod_Electrostatic_Energy-OPLS-2005>
-481.291534423828

> <r_mmod_Solvation_Energy-OPLS-2005>
-222.974182128906

> <b_mmod_Minimization_Converged-OPLS-2005>
0

> <r_mmod_RMS_Derivative-OPLS-2005>
1.79826879501343

$$$$
1
                    3D
 Structure written by MMmdl.
152160  0  0  1  0            999 V2000
  -30.7199  -14.3845   20.6239 C   0  0  0  0  0  0
  -30.4241  -12.2730   19.3976 C   0  0  0  0  0  0
  -29.4884  -12.5120   18.1947 C   0  0  0  0  0  0
  -28.0099  -12.3769   18.6101 C   0  0  0  0  0  0
  -27.6687  -13.1953   19.8829 C   0  0  2  0  0  0
  -28.7062  -12.9168   20.9940 C   0  0  0  0  0  0
  -25.2622  -13.8147   20.5668 C   0  0  0  0  0  0
  -24.1854  -13.0436   20.9156 C   0  0  0  0  0  0
  -24.6392  -11.6893   20.8722 C   0  0  0  0  0  0
  -23.9047  -10.4283   21.0394 C   0  0  0  0  0  0
  -24.3605   -9.4204   21.9176 C   0  0  0  0  0  0
  -23.6283   -8.2242   22.0750 C   0  0  0  0  0  0
  -22.4270   -8.0277   21.3533 C   0  0  0  0  0  0
  -21.9892   -9.0250   20.4642 C   0  0  0  0  0  0
  -22.7219  -10.2128   20.3045 C   0  0  0  0  0  0
  -21.6853   -6.0727   22.5273 C   0  0  0  0  0  0
  -21.4016   -6.5633   23.8205 C   0  0  0  0  0  0
  -21.3654   -5.6788   24.9170 C   0  0  0  0  0  0
  -21.6050   -4.3051   24.7229 C   0  0  0  0  0  0
  -21.8816   -3.8137   23.4351 C   0  0  0  0  0  0
  -21.9196   -4.6952   22.3404 C   0  0  0  0  0  0
  -22.7879  -13.5244   21.1830 C   0  0  0  0  0  0
  -22.1661   -4.2134   21.0981 F   0  0  0  0  0  0
  -21.5634   -3.4535   25.7742 F   0  0  0  0  0  0
  -30.0481  -13.2173   20.4571 N   0  0  0  0  0  0
  -26.3054  -12.9296   20.3387 N   0  0  0  0  0  0
  -25.9316  -11.6460   20.5759 N   0  0  0  0  0  0
  -22.0525  -12.8230   22.0389 N   0  0  0  0  0  0
  -25.4384  -15.1864   20.4077 N   0  0  0  0  0  0
  -31.8063  -14.6315   20.0884 O   0  0  0  0  0  0
  -21.6642   -6.8870   21.4232 O   0  0  0  0  0  0
  -22.3561  -14.5555   20.6699 O   0  0  0  0  0  0
  -24.6090  -31.8712   23.2129 C   0  0  0  0  0  0
  -25.9000  -32.4837   23.8411 C   0  0  1  0  0  0
  -27.2345  -27.4818   20.0868 C   0  0  0  0  0  0
  -25.5878  -33.8629   24.2335 N   0  0  0  0  0  0
  -23.3945  -30.4929   21.5537 C   0  0  2  0  0  0
  -24.8414  -28.9616   20.1177 C   0  0  0  0  0  0
  -22.7372  -29.4667   22.5033 C   0  0  0  0  0  0
  -18.0265  -28.1369   22.8490 C   0  0  0  0  0  0
  -24.1486  -36.7333   23.2639 C   0  0  0  0  0  0
  -25.9170  -30.8486   21.3601 C   0  0  0  0  0  0
  -25.9960  -29.4838   20.7145 C   0  0  0  0  0  0
  -27.1964  -28.7471   20.7047 C   0  0  0  0  0  0
  -26.0729  -26.9608   19.4839 C   0  0  0  0  0  0
  -24.8714  -27.6956   19.5026 C   0  0  0  0  0  0
  -23.6012  -29.8230   20.1683 C   0  0  0  0  0  0
  -25.4097  -36.3115   24.0335 C   0  0  1  0  0  0
  -20.5843  -28.3642   23.1344 C   0  0  2  0  0  0
  -20.6762  -26.9397   22.5432 C   0  0  0  0  0  0
  -19.5749  -26.6356   21.5229 C   0  0  0  0  0  0
  -18.1930  -26.7903   22.1650 C   0  0  0  0  0  0
  -19.1506  -28.8826   23.2908 C   0  0  0  0  0  0
  -18.9454  -30.1437   23.8900 C   0  0  0  0  0  0
  -17.6458  -30.6594   24.0546 C   0  0  0  0  0  0
  -25.9021  -34.9481   23.5129 C   0  0  0  0  0  0
  -16.5352  -29.9094   23.6313 C   0  0  0  0  0  0
  -16.7255  -28.6505   23.0326 C   0  0  0  0  0  0
  -26.4455  -31.6600   25.0717 C   0  0  0  0  0  0
  -25.3744  -31.3691   26.1478 C   0  0  0  0  0  0
  -27.0281  -30.3057   24.6047 C   0  0  0  0  0  0
  -27.6037  -32.4307   25.7477 C   0  0  0  0  0  0
  -27.5569  -37.1815   24.8460 C   0  0  0  0  0  0
  -21.4104  -29.3032   22.3779 N   0  0  0  0  0  0
  -26.4286  -37.3792   23.9401 N   0  0  0  0  0  0
  -24.6578  -31.0859   22.1014 N   0  0  0  0  0  0
  -23.4166  -28.8197   23.3060 O   0  0  0  0  0  0
  -28.4010  -26.7696   20.0412 O   0  0  0  0  0  0
  -26.5597  -34.8915   22.4703 O   0  0  0  0  0  0
  -23.5298  -32.1453   23.7548 O   0  0  0  0  0  0
  -31.1763  -17.4413   20.8963 C   0  0  0  0  0  0
  -30.0940  -16.6212   21.1329 C   0  0  0  0  0  0
  -29.5106  -18.9595   20.6511 C   0  0  0  0  0  0
  -28.2935  -22.4087   19.7946 C   0  0  0  0  0  0
  -29.4091  -21.3638   20.0159 C   0  0  0  0  0  0
  -28.6995  -23.8789   19.8413 C   0  0  0  0  0  0
  -28.0926  -24.6011   21.0564 C   0  0  0  0  0  0
  -28.6616  -26.0151   21.2176 C   0  0  0  0  0  0
  -30.8340  -18.7674   20.6162 N   0  0  0  0  0  0
  -30.0682  -15.2884   21.3659 N   0  0  0  0  0  0
  -28.8763  -20.1840   20.3586 N   0  0  0  0  0  0
  -27.1098  -22.0882   19.6238 O   0  0  0  0  0  0
  -30.6130  -21.6241   19.8998 O   0  0  0  0  0  0
  -28.6001  -17.5240   21.0798 S   0  0  0  0  0  0
  -31.4663  -12.3808   19.0922 H   0  0  0  0  0  0
  -30.3270  -11.2486   19.7616 H   0  0  0  0  0  0
  -29.7179  -11.8052   17.3958 H   0  0  0  0  0  0
  -29.6639  -13.5065   17.7817 H   0  0  0  0  0  0
  -27.8127  -11.3190   18.7883 H   0  0  0  0  0  0
  -27.3594  -12.6724   17.7869 H   0  0  0  0  0  0
  -27.7319  -14.2512   19.6177 H   0  0  0  0  0  0
  -28.6671  -11.8668   21.2900 H   0  0  0  0  0  0
  -28.4619  -13.4716   21.9012 H   0  0  0  0  0  0
  -25.2752   -9.5684   22.4744 H   0  0  0  0  0  0
  -23.9993   -7.4634   22.7467 H   0  0  0  0  0  0
  -21.0822   -8.8765   19.8952 H   0  0  0  0  0  0
  -22.3679  -10.9662   19.6150 H   0  0  0  0  0  0
  -21.2003   -7.6140   23.9700 H   0  0  0  0  0  0
  -21.1482   -6.0525   25.9073 H   0  0  0  0  0  0
  -22.0606   -2.7598   23.2860 H   0  0  0  0  0  0
  -22.4146  -11.9890   22.4763 H   0  0  0  0  0  0
  -21.1150  -13.1246   22.2615 H   0  0  0  0  0  0
  -24.6759  -15.8467   20.5144 H   0  0  0  0  0  0
  -26.2987  -15.6187   20.0960 H   0  0  0  0  0  0
  -26.7064  -32.5554   23.1181 H   0  0  0  0  0  0
  -25.0024  -33.9819   25.0467 H   0  0  0  0  0  0
  -22.6810  -31.3077   21.4161 H   0  0  0  0  0  0
  -23.3726  -35.9693   23.3326 H   0  0  0  0  0  0
  -24.3587  -36.8931   22.2053 H   0  0  0  0  0  0
  -23.7264  -37.6553   23.6644 H   0  0  0  0  0  0
  -26.0186  -31.6105   20.5851 H   0  0  0  0  0  0
  -26.8093  -30.9080   21.9718 H   0  0  0  0  0  0
  -28.0925  -29.1486   21.1575 H   0  0  0  0  0  0
  -26.1010  -25.9927   19.0036 H   0  0  0  0  0  0
  -23.9823  -27.2905   19.0392 H   0  0  0  0  0  0
  -23.7038  -30.5988   19.4088 H   0  0  0  0  0  0
  -22.7267  -29.2402   19.8743 H   0  0  0  0  0  0
  -25.1270  -36.1993   25.0829 H   0  0  0  0  0  0
  -20.9917  -28.3199   24.1467 H   0  0  0  0  0  0
  -20.5691  -26.2267   23.3618 H   0  0  0  0  0  0
  -21.6634  -26.7456   22.1236 H   0  0  0  0  0  0
  -19.6911  -25.6242   21.1307 H   0  0  0  0  0  0
  -19.6708  -27.3144   20.6744 H   0  0  0  0  0  0
  -17.4189  -26.6613   21.4072 H   0  0  0  0  0  0
  -18.0373  -26.0059   22.9078 H   0  0  0  0  0  0
  -19.7938  -30.7236   24.2284 H   0  0  0  0  0  0
  -17.5018  -31.6273   24.5158 H   0  0  0  0  0  0
  -15.5352  -30.3006   23.7641 H   0  0  0  0  0  0
  -15.8646  -28.0847   22.7030 H   0  0  0  0  0  0
  -24.5902  -30.7056   25.7813 H   0  0  0  0  0  0
  -24.8951  -32.2846   26.4959 H   0  0  0  0  0  0
  -25.8111  -30.8837   27.0215 H   0  0  0  0  0  0
  -26.2807  -29.6836   24.1109 H   0  0  0  0  0  0
  -27.4095  -29.7264   25.4466 H   0  0  0  0  0  0
  -27.8616  -30.4399   23.9142 H   0  0  0  0  0  0
  -27.2656  -33.3577   26.2116 H   0  0  0  0  0  0
  -28.3818  -32.6923   25.0290 H   0  0  0  0  0  0
  -28.0738  -31.8403   26.5352 H   0  0  0  0  0  0
  -28.2596  -38.0104   24.7471 H   0  0  0  0  0  0
  -28.1056  -36.2627   24.6314 H   0  0  0  0  0  0
  -27.2295  -37.1487   25.8871 H   0  0  0  0  0  0
  -20.9261  -29.8775   21.7018 H   0  0  0  0  0  0
  -26.0187  -38.2881   24.1385 H   0  0  0  0  0  0
  -32.2209  -17.1598   20.8805 H   0  0  0  0  0  0
  -28.3796  -24.3529   18.9143 H   0  0  0  0  0  0
  -29.7858  -23.9604   19.8683 H   0  0  0  0  0  0
  -28.2975  -24.0332   21.9659 H   0  0  0  0  0  0
  -27.0065  -24.6430   20.9646 H   0  0  0  0  0  0
  -29.7406  -25.9628   21.3662 H   0  0  0  0  0  0
  -28.2517  -26.4949   22.1090 H   0  0  0  0  0  0
  -29.2218  -14.9322   21.7806 H   0  0  0  0  0  0
  -27.8648  -20.1898   20.3790 H   0  0  0  0  0  0
  1 25  1  0  0  0
  1 30  2  0  0  0
  1 80  1  0  0  0
  2  3  1  0  0  0
  2 25  1  0  0  0
  2 85  1  0  0  0
  2 86  1  0  0  0
  3  4  1  0  0  0
  3 87  1  0  0  0
  3 88  1  0  0  0
  4  5  1  0  0  0
  4 89  1  0  0  0
  4 90  1  0  0  0
  5  6  1  0  0  0
  5 26  1  0  0  0
  5 91  1  0  0  0
  6 25  1  0  0  0
  6 92  1  0  0  0
  6 93  1  0  0  0
  7  8  2  0  0  0
  7 26  1  0  0  0
  7 29  1  0  0  0
  8  9  1  0  0  0
  8 22  1  0  0  0
  9 10  1  0  0  0
  9 27  2  0  0  0
 10 11  2  0  0  0
 10 15  1  0  0  0
 11 12  1  0  0  0
 11 94  1  0  0  0
 12 13  2  0  0  0
 12 95  1  0  0  0
 13 14  1  0  0  0
 13 31  1  0  0  0
 14 15  2  0  0  0
 14 96  1  0  0  0
 15 97  1  0  0  0
 16 17  2  0  0  0
 16 21  1  0  0  0
 16 31  1  0  0  0
 17 18  1  0  0  0
 17 98  1  0  0  0
 18 19  2  0  0  0
 18 99  1  0  0  0
 19 20  1  0  0  0
 19 24  1  0  0  0
 20 21  2  0  0  0
 20100  1  0  0  0
 21 23  1  0  0  0
 22 28  1  0  0  0
 22 32  2  0  0  0
 26 27  1  0  0  0
 28101  1  0  0  0
 28102  1  0  0  0
 29103  1  0  0  0
 29104  1  0  0  0
 33 34  1  0  0  0
 33 66  1  0  0  0
 33 70  2  0  0  0
 34 36  1  0  0  0
 34 59  1  0  0  0
 34105  1  0  0  0
 35 44  2  0  0  0
 35 45  1  0  0  0
 35 68  1  0  0  0
 36 56  1  0  0  0
 36106  1  0  0  0
 37 39  1  0  0  0
 37 47  1  0  0  0
 37 66  1  0  0  0
 37107  1  0  0  0
 38 43  2  0  0  0
 38 46  1  0  0  0
 38 47  1  0  0  0
 39 64  1  0  0  0
 39 67  2  0  0  0
 40 52  1  0  0  0
 40 53  2  0  0  0
 40 58  1  0  0  0
 41108  1  0  0  0
 41109  1  0  0  0
 41110  1  0  0  0
 41 48  1  0  0  0
 42 43  1  0  0  0
 42 66  1  0  0  0
 42111  1  0  0  0
 42112  1  0  0  0
 43 44  1  0  0  0
 44113  1  0  0  0
 45 46  2  0  0  0
 45114  1  0  0  0
 46115  1  0  0  0
 47116  1  0  0  0
 47117  1  0  0  0
 48 56  1  0  0  0
 48 65  1  0  0  0
 48118  1  0  0  0
 49 50  1  0  0  0
 49 53  1  0  0  0
 49 64  1  0  0  0
 49119  1  0  0  0
 50 51  1  0  0  0
 50120  1  0  0  0
 50121  1  0  0  0
 51 52  1  0  0  0
 51122  1  0  0  0
 51123  1  0  0  0
 52124  1  0  0  0
 52125  1  0  0  0
 53 54  1  0  0  0
 54 55  2  0  0  0
 54126  1  0  0  0
 55 57  1  0  0  0
 55127  1  0  0  0
 56 69  2  0  0  0
 57 58  2  0  0  0
 57128  1  0  0  0
 58129  1  0  0  0
 59 60  1  0  0  0
 59 61  1  0  0  0
 59 62  1  0  0  0
 60130  1  0  0  0
 60131  1  0  0  0
 60132  1  0  0  0
 61133  1  0  0  0
 61134  1  0  0  0
 61135  1  0  0  0
 62136  1  0  0  0
 62137  1  0  0  0
 62138  1  0  0  0
 63 65  1  0  0  0
 63139  1  0  0  0
 63140  1  0  0  0
 63141  1  0  0  0
 64142  1  0  0  0
 65143  1  0  0  0
 68 78  1  0  0  0
 71 72  2  0  0  0
 71 79  1  0  0  0
 71144  1  0  0  0
 72 80  1  0  0  0
 72 84  1  0  0  0
 73 79  2  0  0  0
 73 81  1  0  0  0
 73 84  1  0  0  0
 74 75  1  0  0  0
 74 76  1  0  0  0
 74 82  2  0  0  0
 75 81  1  0  0  0
 75 83  2  0  0  0
 76 77  1  0  0  0
 76145  1  0  0  0
 76146  1  0  0  0
 77 78  1  0  0  0
 77147  1  0  0  0
 77148  1  0  0  0
 78149  1  0  0  0
 78150  1  0  0  0
 80151  1  0  0  0
 81152  1  0  0  0
M  ISO  4   1 100  68 101  78 101  80 100
M  END
> <chiral flag>
0

> <version>
0

> <s_m_source_file>
/data/baiqing/PycharmProjects/Reinvent-master-3.2/result/LINK_invent/BTK/process_docking_weight1_custom_product_contain_oxygen_bond_distance_aromatic_linkinvent_7_9_3/rearranged_h_0175.sdf

> <i_m_source_file_index>
2

> <r_mmod_Potential_Energy-OPLS-2005>
-145.450790405273

> <r_mmod_Stretch_Energy-OPLS-2005>
29.3898773193359

> <r_mmod_Bend_Energy-OPLS-2005>
94.7465362548828

> <r_mmod_Torsional_Energy-OPLS-2005>
247.579330444336

> <r_mmod_Improper_Torsional_Energy-OPLS-2005>
4.55916547775269

> <r_mmod_Van_der_Waal_Energy-OPLS-2005>
135.448654174805

> <r_mmod_Electrostatic_Energy-OPLS-2005>
-418.753601074219

> <r_mmod_Solvation_Energy-OPLS-2005>
-245.309722900391

> <b_mmod_Minimization_Converged-OPLS-2005>
0

> <r_mmod_RMS_Derivative-OPLS-2005>
1.94786381721497

$$$$
2
                    3D
 Structure written by MMmdl.
156164  0  0  1  0            999 V2000
  -30.6839  -14.5701   20.4718 C   0  0  0  0  0  0
  -30.4185  -12.3441   19.4499 C   0  0  0  0  0  0
  -29.4987  -12.4835   18.2189 C   0  0  0  0  0  0
  -28.0193  -12.3502   18.6273 C   0  0  0  0  0  0
  -27.6522  -13.2216   19.8594 C   0  0  2  0  0  0
  -28.6973  -13.0853   20.9899 C   0  0  0  0  0  0
  -25.2550  -13.8185   20.5667 C   0  0  0  0  0  0
  -24.1827  -13.0442   20.9189 C   0  0  0  0  0  0
  -24.6405  -11.6917   20.8750 C   0  0  0  0  0  0
  -23.9080  -10.4295   21.0408 C   0  0  0  0  0  0
  -24.3626   -9.4207   21.9184 C   0  0  0  0  0  0
  -23.6308   -8.2239   22.0751 C   0  0  0  0  0  0
  -22.4291   -8.0274   21.3535 C   0  0  0  0  0  0
  -21.9918   -9.0254   20.4644 C   0  0  0  0  0  0
  -22.7243  -10.2134   20.3064 C   0  0  0  0  0  0
  -21.6854   -6.0740   22.5282 C   0  0  0  0  0  0
  -21.4006   -6.5640   23.8214 C   0  0  0  0  0  0
  -21.3659   -5.6792   24.9175 C   0  0  0  0  0  0
  -21.6061   -4.3061   24.7215 C   0  0  0  0  0  0
  -21.8817   -3.8147   23.4336 C   0  0  0  0  0  0
  -21.9184   -4.6967   22.3393 C   0  0  0  0  0  0
  -22.7851  -13.5233   21.1847 C   0  0  0  0  0  0
  -22.1658   -4.2152   21.0972 F   0  0  0  0  0  0
  -21.5635   -3.4541   25.7727 F   0  0  0  0  0  0
  -30.0170  -13.3799   20.4195 N   0  0  0  0  0  0
  -26.2994  -12.9385   20.3320 N   0  0  0  0  0  0
  -25.9338  -11.6535   20.5770 N   0  0  0  0  0  0
  -22.0487  -12.8248   22.0406 N   0  0  0  0  0  0
  -25.4233  -15.1903   20.4047 N   0  0  0  0  0  0
  -31.8811  -14.6457   20.1818 O   0  0  0  0  0  0
  -21.6643   -6.8881   21.4242 O   0  0  0  0  0  0
  -22.3535  -14.5535   20.6682 O   0  0  0  0  0  0
  -24.6244  -31.8642   23.2035 C   0  0  0  0  0  0
  -25.9110  -32.4789   23.8350 C   0  0  1  0  0  0
  -27.2145  -27.3410   20.1044 C   0  0  0  0  0  0
  -25.5934  -33.8587   24.2275 N   0  0  0  0  0  0
  -23.4156  -30.4932   21.5457 C   0  0  2  0  0  0
  -24.8593  -28.9585   20.1062 C   0  0  0  0  0  0
  -22.7463  -29.4670   22.4913 C   0  0  0  0  0  0
  -18.0290  -28.1392   22.8494 C   0  0  0  0  0  0
  -24.1494  -36.7299   23.2637 C   0  0  0  0  0  0
  -25.9571  -30.7999   21.3754 C   0  0  0  0  0  0
  -26.0278  -29.4303   20.7165 C   0  0  0  0  0  0
  -27.2060  -28.6302   20.7153 C   0  0  0  0  0  0
  -26.0267  -26.9361   19.4441 C   0  0  0  0  0  0
  -24.8591  -27.7154   19.4627 C   0  0  0  0  0  0
  -23.6283  -29.8357   20.1580 C   0  0  0  0  0  0
  -25.4117  -36.3087   24.0326 C   0  0  1  0  0  0
  -20.5890  -28.3709   23.1276 C   0  0  2  0  0  0
  -20.6781  -26.9432   22.5409 C   0  0  0  0  0  0
  -19.5750  -26.6394   21.5220 C   0  0  0  0  0  0
  -18.1932  -26.7934   22.1634 C   0  0  0  0  0  0
  -19.1542  -28.8863   23.2886 C   0  0  0  0  0  0
  -18.9467  -30.1463   23.8905 C   0  0  0  0  0  0
  -17.6466  -30.6593   24.0573 C   0  0  0  0  0  0
  -25.9063  -34.9457   23.5101 C   0  0  0  0  0  0
  -16.5357  -29.9101   23.6320 C   0  0  0  0  0  0
  -16.7278  -28.6518   23.0343 C   0  0  0  0  0  0
  -26.4487  -31.6575   25.0704 C   0  0  0  0  0  0
  -25.3713  -31.3737   26.1422 C   0  0  0  0  0  0
  -27.0316  -30.2984   24.6160 C   0  0  0  0  0  0
  -27.6034  -32.4312   25.7484 C   0  0  0  0  0  0
  -27.5584  -37.1805   24.8464 C   0  0  0  0  0  0
  -21.4181  -29.3068   22.3662 N   0  0  0  0  0  0
  -26.4293  -37.3780   23.9411 N   0  0  0  0  0  0
  -24.6842  -31.0682   22.0979 N   0  0  0  0  0  0
  -23.4207  -28.8202   23.2973 O   0  0  0  0  0  0
  -28.3255  -26.4888   20.1784 O   0  0  0  0  0  0
  -26.5636  -34.8924   22.4670 O   0  0  0  0  0  0
  -23.5414  -32.1443   23.7374 O   0  0  0  0  0  0
  -30.9155  -18.0893   17.9480 C   0  0  0  0  0  0
  -30.9399  -19.3165   18.6303 C   0  0  0  0  0  0
  -30.5245  -16.9179   18.6069 C   0  0  0  0  0  0
  -30.4209  -19.3510   19.9492 C   0  0  0  0  0  0
  -30.1811  -16.9662   19.9814 C   0  0  0  0  0  0
  -28.9841  -23.9769   20.4454 C   0  0  0  0  0  0
  -28.1133  -25.0883   19.7699 C   0  0  0  0  0  0
  -29.0443  -21.2467   20.8644 C   0  0  0  0  0  0
  -28.7217  -22.5055   19.9581 C   0  0  2  0  0  0
  -31.5411  -20.5004   17.8701 C   0  0  0  0  0  0
  -30.0516  -18.1953   20.5991 N   0  0  0  0  0  0
  -29.9379  -15.7000   20.6442 N   0  0  0  0  0  0
  -30.3489  -20.5743   20.6641 N   0  0  0  0  0  0
  -29.8207  -24.2398   21.3161 O   0  0  0  0  0  0
  -30.5003  -15.7598   17.9038 F   0  0  0  0  0  0
  -29.2555  -22.3283   18.7506 F   0  0  0  0  0  0
  -32.6521  -20.0932   17.2546 F   0  0  0  0  0  0
  -30.6895  -20.9244   16.9383 F   0  0  0  0  0  0
  -31.8867  -21.5203   18.6585 F   0  0  0  0  0  0
  -31.4654  -12.4288   19.1526 H   0  0  0  0  0  0
  -30.3134  -11.3535   19.8937 H   0  0  0  0  0  0
  -29.7480  -11.7261   17.4744 H   0  0  0  0  0  0
  -29.6610  -13.4473   17.7362 H   0  0  0  0  0  0
  -27.8359  -11.2984   18.8490 H   0  0  0  0  0  0
  -27.3708  -12.5981   17.7859 H   0  0  0  0  0  0
  -27.6700  -14.2565   19.5173 H   0  0  0  0  0  0
  -28.6904  -12.0760   21.4042 H   0  0  0  0  0  0
  -28.4672  -13.7548   21.8198 H   0  0  0  0  0  0
  -25.2768   -9.5694   22.4756 H   0  0  0  0  0  0
  -24.0017   -7.4638   22.7475 H   0  0  0  0  0  0
  -21.0844   -8.8781   19.8960 H   0  0  0  0  0  0
  -22.3703  -10.9675   19.6178 H   0  0  0  0  0  0
  -21.2005   -7.6151   23.9722 H   0  0  0  0  0  0
  -21.1488   -6.0520   25.9085 H   0  0  0  0  0  0
  -22.0597   -2.7611   23.2831 H   0  0  0  0  0  0
  -22.4081  -11.9918   22.4825 H   0  0  0  0  0  0
  -21.1099  -13.1284   22.2579 H   0  0  0  0  0  0
  -24.6500  -15.8388   20.5073 H   0  0  0  0  0  0
  -26.2665  -15.6308   20.0596 H   0  0  0  0  0  0
  -26.7178  -32.5467   23.1103 H   0  0  0  0  0  0
  -25.0043  -33.9728   25.0391 H   0  0  0  0  0  0
  -22.7096  -31.3143   21.4058 H   0  0  0  0  0  0
  -23.3745  -35.9642   23.3299 H   0  0  0  0  0  0
  -24.3603  -36.8920   22.2054 H   0  0  0  0  0  0
  -23.7247  -37.6504   23.6654 H   0  0  0  0  0  0
  -26.0892  -31.5643   20.6084 H   0  0  0  0  0  0
  -26.8384  -30.8455   22.0031 H   0  0  0  0  0  0
  -28.0974  -28.9852   21.2135 H   0  0  0  0  0  0
  -25.9530  -26.0068   18.9011 H   0  0  0  0  0  0
  -23.9668  -27.3543   18.9692 H   0  0  0  0  0  0
  -23.7516  -30.6146   19.4047 H   0  0  0  0  0  0
  -22.7482  -29.2681   19.8512 H   0  0  0  0  0  0
  -25.1288  -36.1944   25.0815 H   0  0  0  0  0  0
  -20.9997  -28.3293   24.1391 H   0  0  0  0  0  0
  -20.5706  -26.2327   23.3619 H   0  0  0  0  0  0
  -21.6649  -26.7483   22.1191 H   0  0  0  0  0  0
  -19.6921  -25.6308   21.1245 H   0  0  0  0  0  0
  -19.6666  -27.3208   20.6752 H   0  0  0  0  0  0
  -17.4206  -26.6691   21.4029 H   0  0  0  0  0  0
  -18.0329  -26.0073   22.9029 H   0  0  0  0  0  0
  -19.7946  -30.7279   24.2270 H   0  0  0  0  0  0
  -17.5026  -31.6272   24.5182 H   0  0  0  0  0  0
  -15.5359  -30.3017   23.7625 H   0  0  0  0  0  0
  -15.8681  -28.0850   22.7031 H   0  0  0  0  0  0
  -24.5876  -30.7102   25.7746 H   0  0  0  0  0  0
  -24.8924  -32.2924   26.4819 H   0  0  0  0  0  0
  -25.8028  -30.8923   27.0207 H   0  0  0  0  0  0
  -26.2891  -29.6742   24.1172 H   0  0  0  0  0  0
  -27.3982  -29.7227   25.4670 H   0  0  0  0  0  0
  -27.8776  -30.4233   23.9396 H   0  0  0  0  0  0
  -27.2609  -33.3593   26.2071 H   0  0  0  0  0  0
  -28.3839  -32.6909   25.0319 H   0  0  0  0  0  0
  -28.0703  -31.8436   26.5400 H   0  0  0  0  0  0
  -28.2591  -38.0112   24.7521 H   0  0  0  0  0  0
  -28.1090  -36.2645   24.6267 H   0  0  0  0  0  0
  -27.2322  -37.1430   25.8873 H   0  0  0  0  0  0
  -20.9347  -29.8822   21.6906 H   0  0  0  0  0  0
  -26.0176  -38.2858   24.1397 H   0  0  0  0  0  0
  -31.2300  -18.0356   16.9154 H   0  0  0  0  0  0
  -27.0989  -24.7750   20.0101 H   0  0  0  0  0  0
  -28.2303  -25.0133   18.6885 H   0  0  0  0  0  0
  -28.2617  -20.5028   20.7053 H   0  0  0  0  0  0
  -28.9604  -21.5304   21.9144 H   0  0  0  0  0  0
  -27.6459  -22.4752   19.7809 H   0  0  0  0  0  0
  -29.0231  -15.5846   21.0450 H   0  0  0  0  0  0
  -31.0179  -21.2545   20.3138 H   0  0  0  0  0  0
  1 25  1  0  0  0
  1 30  2  0  0  0
  1 82  1  0  0  0
  2  3  1  0  0  0
  2 25  1  0  0  0
  2 90  1  0  0  0
  2 91  1  0  0  0
  3  4  1  0  0  0
  3 92  1  0  0  0
  3 93  1  0  0  0
  4  5  1  0  0  0
  4 94  1  0  0  0
  4 95  1  0  0  0
  5  6  1  0  0  0
  5 26  1  0  0  0
  5 96  1  0  0  0
  6 25  1  0  0  0
  6 97  1  0  0  0
  6 98  1  0  0  0
  7  8  2  0  0  0
  7 26  1  0  0  0
  7 29  1  0  0  0
  8  9  1  0  0  0
  8 22  1  0  0  0
  9 10  1  0  0  0
  9 27  2  0  0  0
 10 11  2  0  0  0
 10 15  1  0  0  0
 11 12  1  0  0  0
 11 99  1  0  0  0
 12 13  2  0  0  0
 12100  1  0  0  0
 13 14  1  0  0  0
 13 31  1  0  0  0
 14 15  2  0  0  0
 14101  1  0  0  0
 15102  1  0  0  0
 16 17  2  0  0  0
 16 21  1  0  0  0
 16 31  1  0  0  0
 17 18  1  0  0  0
 17103  1  0  0  0
 18 19  2  0  0  0
 18104  1  0  0  0
 19 20  1  0  0  0
 19 24  1  0  0  0
 20 21  2  0  0  0
 20105  1  0  0  0
 21 23  1  0  0  0
 22 28  1  0  0  0
 22 32  2  0  0  0
 26 27  1  0  0  0
 28106  1  0  0  0
 28107  1  0  0  0
 29108  1  0  0  0
 29109  1  0  0  0
 33 34  1  0  0  0
 33 66  1  0  0  0
 33 70  2  0  0  0
 34 36  1  0  0  0
 34 59  1  0  0  0
 34110  1  0  0  0
 35 44  2  0  0  0
 35 45  1  0  0  0
 35 68  1  0  0  0
 36 56  1  0  0  0
 36111  1  0  0  0
 37 39  1  0  0  0
 37 47  1  0  0  0
 37 66  1  0  0  0
 37112  1  0  0  0
 38 43  2  0  0  0
 38 46  1  0  0  0
 38 47  1  0  0  0
 39 64  1  0  0  0
 39 67  2  0  0  0
 40 52  1  0  0  0
 40 53  2  0  0  0
 40 58  1  0  0  0
 41113  1  0  0  0
 41114  1  0  0  0
 41115  1  0  0  0
 41 48  1  0  0  0
 42 43  1  0  0  0
 42 66  1  0  0  0
 42116  1  0  0  0
 42117  1  0  0  0
 43 44  1  0  0  0
 44118  1  0  0  0
 45 46  2  0  0  0
 45119  1  0  0  0
 46120  1  0  0  0
 47121  1  0  0  0
 47122  1  0  0  0
 48 56  1  0  0  0
 48 65  1  0  0  0
 48123  1  0  0  0
 49 50  1  0  0  0
 49 53  1  0  0  0
 49 64  1  0  0  0
 49124  1  0  0  0
 50 51  1  0  0  0
 50125  1  0  0  0
 50126  1  0  0  0
 51 52  1  0  0  0
 51127  1  0  0  0
 51128  1  0  0  0
 52129  1  0  0  0
 52130  1  0  0  0
 53 54  1  0  0  0
 54 55  2  0  0  0
 54131  1  0  0  0
 55 57  1  0  0  0
 55132  1  0  0  0
 56 69  2  0  0  0
 57 58  2  0  0  0
 57133  1  0  0  0
 58134  1  0  0  0
 59 60  1  0  0  0
 59 61  1  0  0  0
 59 62  1  0  0  0
 60135  1  0  0  0
 60136  1  0  0  0
 60137  1  0  0  0
 61138  1  0  0  0
 61139  1  0  0  0
 61140  1  0  0  0
 62141  1  0  0  0
 62142  1  0  0  0
 62143  1  0  0  0
 63 65  1  0  0  0
 63144  1  0  0  0
 63145  1  0  0  0
 63146  1  0  0  0
 64147  1  0  0  0
 65148  1  0  0  0
 68 77  1  0  0  0
 71 72  2  0  0  0
 71 73  1  0  0  0
 71149  1  0  0  0
 72 74  1  0  0  0
 72 80  1  0  0  0
 73 75  2  0  0  0
 73 85  1  0  0  0
 74 81  2  0  0  0
 74 83  1  0  0  0
 75 81  1  0  0  0
 75 82  1  0  0  0
 76 77  1  0  0  0
 76 79  1  0  0  0
 76 84  2  0  0  0
 77150  1  0  0  0
 77151  1  0  0  0
 78 79  1  0  0  0
 78 83  1  0  0  0
 78152  1  0  0  0
 78153  1  0  0  0
 79 86  1  0  0  0
 79154  1  0  0  0
 80 87  1  0  0  0
 80 88  1  0  0  0
 80 89  1  0  0  0
 82155  1  0  0  0
 83156  1  0  0  0
M  ISO  4   1 100  68 101  77 101  82 100
M  END
> <chiral flag>
0

> <version>
0

> <s_m_source_file>
/data/baiqing/PycharmProjects/Reinvent-master-3.2/result/LINK_invent/BTK/process_docking_weight1_custom_product_contain_oxygen_bond_distance_aromatic_linkinvent_7_9_3/rearranged_h_0175.sdf

> <i_m_source_file_index>
3

> <r_mmod_Potential_Energy-OPLS-2005>
-42.041805267334

> <r_mmod_Stretch_Energy-OPLS-2005>
66.3321990966797

> <r_mmod_Bend_Energy-OPLS-2005>
136.289764404297

> <r_mmod_Torsional_Energy-OPLS-2005>
260.02392578125

> <r_mmod_Improper_Torsional_Energy-OPLS-2005>
10.8286790847778

> <r_mmod_Van_der_Waal_Energy-OPLS-2005>
163.121932983398

> <r_mmod_Electrostatic_Energy-OPLS-2005>
-471.878692626953

> <r_mmod_Solvation_Energy-OPLS-2005>
-248.35661315918

> <b_mmod_Minimization_Converged-OPLS-2005>
0

> <r_mmod_RMS_Derivative-OPLS-2005>
1.89145076274872

$$$$
3
                    3D
 Structure written by MMmdl.
156164  0  0  1  0            999 V2000
  -30.6436  -14.6348   20.4690 C   0  0  0  0  0  0
  -30.4376  -12.3776   19.4636 C   0  0  0  0  0  0
  -29.5096  -12.4606   18.2325 C   0  0  0  0  0  0
  -28.0313  -12.3183   18.6447 C   0  0  0  0  0  0
  -27.6515  -13.2068   19.8606 C   0  0  2  0  0  0
  -28.6985  -13.0948   20.9917 C   0  0  0  0  0  0
  -25.2584  -13.8145   20.5696 C   0  0  0  0  0  0
  -24.1846  -13.0426   20.9197 C   0  0  0  0  0  0
  -24.6411  -11.6895   20.8783 C   0  0  0  0  0  0
  -23.9087  -10.4280   21.0413 C   0  0  0  0  0  0
  -24.3627   -9.4191   21.9179 C   0  0  0  0  0  0
  -23.6277   -8.2259   22.0773 C   0  0  0  0  0  0
  -22.4266   -8.0304   21.3565 C   0  0  0  0  0  0
  -21.9914   -9.0283   20.4670 C   0  0  0  0  0  0
  -22.7266  -10.2141   20.3069 C   0  0  0  0  0  0
  -21.6879   -6.0733   22.5288 C   0  0  0  0  0  0
  -21.4037   -6.5632   23.8221 C   0  0  0  0  0  0
  -21.3638   -5.6783   24.9178 C   0  0  0  0  0  0
  -21.6023   -4.3045   24.7236 C   0  0  0  0  0  0
  -21.8818   -3.8142   23.4364 C   0  0  0  0  0  0
  -21.9202   -4.6955   22.3415 C   0  0  0  0  0  0
  -22.7866  -13.5247   21.1794 C   0  0  0  0  0  0
  -22.1652   -4.2124   21.0997 F   0  0  0  0  0  0
  -21.5606   -3.4533   25.7750 F   0  0  0  0  0  0
  -30.0143  -13.4173   20.4225 N   0  0  0  0  0  0
  -26.2998  -12.9308   20.3356 N   0  0  0  0  0  0
  -25.9332  -11.6486   20.5823 N   0  0  0  0  0  0
  -22.0468  -12.8301   22.0369 N   0  0  0  0  0  0
  -25.4310  -15.1852   20.4061 N   0  0  0  0  0  0
  -31.8055  -14.7687   20.0770 O   0  0  0  0  0  0
  -21.6645   -6.8892   21.4263 O   0  0  0  0  0  0
  -22.3590  -14.5541   20.6573 O   0  0  0  0  0  0
  -24.6219  -31.8580   23.2033 C   0  0  0  0  0  0
  -25.9067  -32.4768   23.8350 C   0  0  1  0  0  0
  -27.2422  -27.3528   20.1047 C   0  0  0  0  0  0
  -25.5878  -33.8572   24.2265 N   0  0  0  0  0  0
  -23.4148  -30.4816   21.5453 C   0  0  2  0  0  0
  -24.8651  -28.9386   20.1069 C   0  0  0  0  0  0
  -22.7431  -29.4605   22.4925 C   0  0  0  0  0  0
  -18.0270  -28.1372   22.8482 C   0  0  0  0  0  0
  -24.1481  -36.7300   23.2633 C   0  0  0  0  0  0
  -25.9517  -30.7995   21.3694 C   0  0  0  0  0  0
  -26.0287  -29.4301   20.7099 C   0  0  0  0  0  0
  -27.2159  -28.6485   20.7002 C   0  0  0  0  0  0
  -26.0546  -26.8955   19.4901 C   0  0  0  0  0  0
  -24.8790  -27.6751   19.4919 C   0  0  0  0  0  0
  -23.6279  -29.8134   20.1607 C   0  0  0  0  0  0
  -25.4105  -36.3089   24.0318 C   0  0  1  0  0  0
  -20.5865  -28.3669   23.1265 C   0  0  2  0  0  0
  -20.6750  -26.9384   22.5409 C   0  0  0  0  0  0
  -19.5735  -26.6378   21.5200 C   0  0  0  0  0  0
  -18.1921  -26.7911   22.1624 C   0  0  0  0  0  0
  -19.1523  -28.8836   23.2873 C   0  0  0  0  0  0
  -18.9450  -30.1442   23.8884 C   0  0  0  0  0  0
  -17.6452  -30.6582   24.0561 C   0  0  0  0  0  0
  -25.9037  -34.9448   23.5105 C   0  0  0  0  0  0
  -16.5345  -29.9083   23.6328 C   0  0  0  0  0  0
  -16.7255  -28.6501   23.0348 C   0  0  0  0  0  0
  -26.4486  -31.6581   25.0708 C   0  0  0  0  0  0
  -25.3739  -31.3758   26.1458 C   0  0  0  0  0  0
  -27.0288  -30.2980   24.6172 C   0  0  0  0  0  0
  -27.6056  -32.4315   25.7462 C   0  0  0  0  0  0
  -27.5578  -37.1784   24.8445 C   0  0  0  0  0  0
  -21.4148  -29.3022   22.3655 N   0  0  0  0  0  0
  -26.4287  -37.3774   23.9407 N   0  0  0  0  0  0
  -24.6815  -31.0618   22.0969 N   0  0  0  0  0  0
  -23.4158  -28.8135   23.2991 O   0  0  0  0  0  0
  -28.3876  -26.5543   20.1946 O   0  0  0  0  0  0
  -26.5615  -34.8913   22.4681 O   0  0  0  0  0  0
  -23.5393  -32.1363   23.7379 O   0  0  0  0  0  0
  -30.2073  -18.1851   20.9646 C   0  0  0  0  0  0
  -30.0637  -19.2225   19.9621 C   0  0  0  0  0  0
  -29.9365  -16.9953   20.3106 C   0  0  0  0  0  0
  -28.4824  -25.2760   19.6261 C   0  0  0  0  0  0
  -28.9467  -24.1564   20.2717 C   0  0  0  0  0  0
  -29.1619  -22.8615   19.5611 C   0  0  0  0  0  0
  -31.8218  -20.8838   20.7106 C   0  0  0  0  0  0
  -29.1618  -16.5008   17.9015 C   0  0  0  0  0  0
  -30.5088  -20.7175   19.9302 C   0  0  2  0  0  0
  -29.6728  -18.6690   18.8142 N   0  0  0  0  0  0
  -29.5852  -17.3286   19.0130 N   0  0  0  0  0  0
  -29.8904  -15.7120   20.8345 N   0  0  0  0  0  0
  -29.5786  -21.8198   20.3386 N   0  0  0  0  0  0
  -29.0661  -22.7348   18.3399 O   0  0  0  0  0  0
  -29.2570  -24.2356   21.5735 O   0  0  0  0  0  0
  -31.4778  -12.4941   19.1532 H   0  0  0  0  0  0
  -30.3809  -11.3924   19.9276 H   0  0  0  0  0  0
  -29.7709  -11.6782   17.5191 H   0  0  0  0  0  0
  -29.6627  -13.4027   17.7088 H   0  0  0  0  0  0
  -27.8679  -11.2686   18.8927 H   0  0  0  0  0  0
  -27.3814  -12.5305   17.7947 H   0  0  0  0  0  0
  -27.6550  -14.2326   19.5036 H   0  0  0  0  0  0
  -28.7122  -12.0861   21.4054 H   0  0  0  0  0  0
  -28.4457  -13.7560   21.8222 H   0  0  0  0  0  0
  -25.2772   -9.5639   22.4748 H   0  0  0  0  0  0
  -23.9959   -7.4658   22.7506 H   0  0  0  0  0  0
  -21.0844   -8.8836   19.8972 H   0  0  0  0  0  0
  -22.3745  -10.9694   19.6193 H   0  0  0  0  0  0
  -21.2054   -7.6145   23.9730 H   0  0  0  0  0  0
  -21.1445   -6.0505   25.9076 H   0  0  0  0  0  0
  -22.0606   -2.7609   23.2879 H   0  0  0  0  0  0
  -22.4056  -11.9979   22.4818 H   0  0  0  0  0  0
  -21.1082  -13.1370   22.2512 H   0  0  0  0  0  0
  -24.6585  -15.8364   20.4875 H   0  0  0  0  0  0
  -26.2763  -15.6197   20.0585 H   0  0  0  0  0  0
  -26.7117  -32.5431   23.1083 H   0  0  0  0  0  0
  -24.9988  -33.9733   25.0392 H   0  0  0  0  0  0
  -22.7086  -31.3027   21.4037 H   0  0  0  0  0  0
  -23.3749  -35.9630   23.3301 H   0  0  0  0  0  0
  -24.3570  -36.8924   22.2048 H   0  0  0  0  0  0
  -23.7235  -37.6499   23.6664 H   0  0  0  0  0  0
  -26.0828  -31.5653   20.6037 H   0  0  0  0  0  0
  -26.8314  -30.8443   21.9996 H   0  0  0  0  0  0
  -28.1122  -29.0273   21.1724 H   0  0  0  0  0  0
  -26.0161  -25.9208   19.0245 H   0  0  0  0  0  0
  -23.9837  -27.2873   19.0266 H   0  0  0  0  0  0
  -23.7374  -30.5923   19.4054 H   0  0  0  0  0  0
  -22.7502  -29.2366   19.8628 H   0  0  0  0  0  0
  -25.1305  -36.1946   25.0810 H   0  0  0  0  0  0
  -20.9990  -28.3265   24.1368 H   0  0  0  0  0  0
  -20.5641  -26.2277   23.3618 H   0  0  0  0  0  0
  -21.6616  -26.7388   22.1202 H   0  0  0  0  0  0
  -19.6904  -25.6297   21.1212 H   0  0  0  0  0  0
  -19.6710  -27.3205   20.6749 H   0  0  0  0  0  0
  -17.4191  -26.6641   21.4033 H   0  0  0  0  0  0
  -18.0346  -26.0059   22.9033 H   0  0  0  0  0  0
  -19.7932  -30.7256   24.2253 H   0  0  0  0  0  0
  -17.5015  -31.6260   24.5173 H   0  0  0  0  0  0
  -15.5355  -30.2992   23.7658 H   0  0  0  0  0  0
  -15.8649  -28.0831   22.7061 H   0  0  0  0  0  0
  -24.5863  -30.7162   25.7812 H   0  0  0  0  0  0
  -24.8993  -32.2942   26.4907 H   0  0  0  0  0  0
  -25.8053  -30.8908   27.0219 H   0  0  0  0  0  0
  -26.2836  -29.6747   24.1198 H   0  0  0  0  0  0
  -27.3956  -29.7235   25.4692 H   0  0  0  0  0  0
  -27.8748  -30.4236   23.9407 H   0  0  0  0  0  0
  -27.2655  -33.3602   26.2066 H   0  0  0  0  0  0
  -28.3837  -32.6884   25.0262 H   0  0  0  0  0  0
  -28.0752  -31.8414   26.5346 H   0  0  0  0  0  0
  -28.2583  -38.0093   24.7502 H   0  0  0  0  0  0
  -28.1091  -36.2616   24.6274 H   0  0  0  0  0  0
  -27.2286  -37.1429   25.8844 H   0  0  0  0  0  0
  -20.9319  -29.8744   21.6868 H   0  0  0  0  0  0
  -26.0175  -38.2845   24.1465 H   0  0  0  0  0  0
  -30.5301  -18.3044   21.9894 H   0  0  0  0  0  0
  -28.1920  -25.2760   18.5841 H   0  0  0  0  0  0
  -32.5585  -20.1473   20.3894 H   0  0  0  0  0  0
  -31.6672  -20.7508   21.7819 H   0  0  0  0  0  0
  -32.2620  -21.8689   20.5487 H   0  0  0  0  0  0
  -28.8667  -15.5140   18.2422 H   0  0  0  0  0  0
  -29.9786  -16.3984   17.1873 H   0  0  0  0  0  0
  -28.3090  -16.9601   17.3992 H   0  0  0  0  0  0
  -30.7873  -20.9289   18.8949 H   0  0  0  0  0  0
  -29.0060  -15.4664   21.2499 H   0  0  0  0  0  0
  -29.5495  -22.0136   21.3295 H   0  0  0  0  0  0
  -29.0793  -25.1284   21.8452 H   0  0  0  0  0  0
  1 25  1  0  0  0
  1 30  2  0  0  0
  1 82  1  0  0  0
  2  3  1  0  0  0
  2 25  1  0  0  0
  2 86  1  0  0  0
  2 87  1  0  0  0
  3  4  1  0  0  0
  3 88  1  0  0  0
  3 89  1  0  0  0
  4  5  1  0  0  0
  4 90  1  0  0  0
  4 91  1  0  0  0
  5  6  1  0  0  0
  5 26  1  0  0  0
  5 92  1  0  0  0
  6 25  1  0  0  0
  6 93  1  0  0  0
  6 94  1  0  0  0
  7  8  2  0  0  0
  7 26  1  0  0  0
  7 29  1  0  0  0
  8  9  1  0  0  0
  8 22  1  0  0  0
  9 10  1  0  0  0
  9 27  2  0  0  0
 10 11  2  0  0  0
 10 15  1  0  0  0
 11 12  1  0  0  0
 11 95  1  0  0  0
 12 13  2  0  0  0
 12 96  1  0  0  0
 13 14  1  0  0  0
 13 31  1  0  0  0
 14 15  2  0  0  0
 14 97  1  0  0  0
 15 98  1  0  0  0
 16 17  2  0  0  0
 16 21  1  0  0  0
 16 31  1  0  0  0
 17 18  1  0  0  0
 17 99  1  0  0  0
 18 19  2  0  0  0
 18100  1  0  0  0
 19 20  1  0  0  0
 19 24  1  0  0  0
 20 21  2  0  0  0
 20101  1  0  0  0
 21 23  1  0  0  0
 22 28  1  0  0  0
 22 32  2  0  0  0
 26 27  1  0  0  0
 28102  1  0  0  0
 28103  1  0  0  0
 29104  1  0  0  0
 29105  1  0  0  0
 33 34  1  0  0  0
 33 66  1  0  0  0
 33 70  2  0  0  0
 34 36  1  0  0  0
 34 59  1  0  0  0
 34106  1  0  0  0
 35 44  2  0  0  0
 35 45  1  0  0  0
 35 68  1  0  0  0
 36 56  1  0  0  0
 36107  1  0  0  0
 37 39  1  0  0  0
 37 47  1  0  0  0
 37 66  1  0  0  0
 37108  1  0  0  0
 38 43  2  0  0  0
 38 46  1  0  0  0
 38 47  1  0  0  0
 39 64  1  0  0  0
 39 67  2  0  0  0
 40 52  1  0  0  0
 40 53  2  0  0  0
 40 58  1  0  0  0
 41109  1  0  0  0
 41110  1  0  0  0
 41111  1  0  0  0
 41 48  1  0  0  0
 42 43  1  0  0  0
 42 66  1  0  0  0
 42112  1  0  0  0
 42113  1  0  0  0
 43 44  1  0  0  0
 44114  1  0  0  0
 45 46  2  0  0  0
 45115  1  0  0  0
 46116  1  0  0  0
 47117  1  0  0  0
 47118  1  0  0  0
 48 56  1  0  0  0
 48 65  1  0  0  0
 48119  1  0  0  0
 49 50  1  0  0  0
 49 53  1  0  0  0
 49 64  1  0  0  0
 49120  1  0  0  0
 50 51  1  0  0  0
 50121  1  0  0  0
 50122  1  0  0  0
 51 52  1  0  0  0
 51123  1  0  0  0
 51124  1  0  0  0
 52125  1  0  0  0
 52126  1  0  0  0
 53 54  1  0  0  0
 54 55  2  0  0  0
 54127  1  0  0  0
 55 57  1  0  0  0
 55128  1  0  0  0
 56 69  2  0  0  0
 57 58  2  0  0  0
 57129  1  0  0  0
 58130  1  0  0  0
 59 60  1  0  0  0
 59 61  1  0  0  0
 59 62  1  0  0  0
 60131  1  0  0  0
 60132  1  0  0  0
 60133  1  0  0  0
 61134  1  0  0  0
 61135  1  0  0  0
 61136  1  0  0  0
 62137  1  0  0  0
 62138  1  0  0  0
 62139  1  0  0  0
 63 65  1  0  0  0
 63140  1  0  0  0
 63141  1  0  0  0
 63142  1  0  0  0
 64143  1  0  0  0
 65144  1  0  0  0
 68 74  1  0  0  0
 71 72  1  0  0  0
 71 73  2  0  0  0
 71145  1  0  0  0
 72 79  1  0  0  0
 72 80  2  0  0  0
 73 81  1  0  0  0
 73 82  1  0  0  0
 74 75  2  0  0  0
 74146  1  0  0  0
 75 76  1  0  0  0
 75 85  1  0  0  0
 76 83  1  0  0  0
 76 84  2  0  0  0
 77147  1  0  0  0
 77148  1  0  0  0
 77149  1  0  0  0
 77 79  1  0  0  0
 78 81  1  0  0  0
 78150  1  0  0  0
 78151  1  0  0  0
 78152  1  0  0  0
 79 83  1  0  0  0
 79153  1  0  0  0
 80 81  1  0  0  0
 82154  1  0  0  0
 83155  1  0  0  0
 85156  1  0  0  0
M  ISO  4   1 100  68 101  74 101  82 100
M  END
> <chiral flag>
0

> <version>
0

> <s_m_source_file>
/data/baiqing/PycharmProjects/Reinvent-master-3.2/result/LINK_invent/BTK/process_docking_weight1_custom_product_contain_oxygen_bond_distance_aromatic_linkinvent_7_9_3/rearranged_h_0175.sdf

> <i_m_source_file_index>
4

> <r_mmod_Potential_Energy-OPLS-2005>
-193.093566894531

> <r_mmod_Stretch_Energy-OPLS-2005>
63.2210083007812

> <r_mmod_Bend_Energy-OPLS-2005>
137.89241027832

> <r_mmod_Torsional_Energy-OPLS-2005>
245.521301269531

> <r_mmod_Improper_Torsional_Energy-OPLS-2005>
9.04440498352051

> <r_mmod_Van_der_Waal_Energy-OPLS-2005>
121.29076385498

> <r_mmod_Electrostatic_Energy-OPLS-2005>
-565.884826660156

> <r_mmod_Solvation_Energy-OPLS-2005>
-247.483505249023

> <b_mmod_Minimization_Converged-OPLS-2005>
0

> <r_mmod_RMS_Derivative-OPLS-2005>
3.53559160232544

$$$$
5
                    3D
 Structure written by MMmdl.
156164  0  0  1  0            999 V2000
  -30.6896  -14.4600   20.5180 C   0  0  0  0  0  0
  -30.4168  -12.2817   19.4320 C   0  0  0  0  0  0
  -29.4969  -12.4917   18.2105 C   0  0  0  0  0  0
  -28.0150  -12.3646   18.6167 C   0  0  0  0  0  0
  -27.6594  -13.2068   19.8722 C   0  0  2  0  0  0
  -28.6983  -12.9940   20.9974 C   0  0  0  0  0  0
  -25.2581  -13.8163   20.5679 C   0  0  0  0  0  0
  -24.1830  -13.0439   20.9174 C   0  0  0  0  0  0
  -24.6380  -11.6905   20.8728 C   0  0  0  0  0  0
  -23.9051  -10.4289   21.0403 C   0  0  0  0  0  0
  -24.3611   -9.4210   21.9182 C   0  0  0  0  0  0
  -23.6289   -8.2247   22.0754 C   0  0  0  0  0  0
  -22.4271   -8.0279   21.3545 C   0  0  0  0  0  0
  -21.9902   -9.0252   20.4648 C   0  0  0  0  0  0
  -22.7225  -10.2131   20.3051 C   0  0  0  0  0  0
  -21.6851   -6.0733   22.5280 C   0  0  0  0  0  0
  -21.4012   -6.5638   23.8215 C   0  0  0  0  0  0
  -21.3658   -5.6788   24.9177 C   0  0  0  0  0  0
  -21.6043   -4.3050   24.7223 C   0  0  0  0  0  0
  -21.8817   -3.8141   23.4345 C   0  0  0  0  0  0
  -21.9196   -4.6961   22.3404 C   0  0  0  0  0  0
  -22.7856  -13.5246   21.1846 C   0  0  0  0  0  0
  -22.1662   -4.2149   21.0980 F   0  0  0  0  0  0
  -21.5632   -3.4533   25.7734 F   0  0  0  0  0  0
  -30.0325  -13.2744   20.4457 N   0  0  0  0  0  0
  -26.3008  -12.9331   20.3345 N   0  0  0  0  0  0
  -25.9306  -11.6493   20.5756 N   0  0  0  0  0  0
  -22.0487  -12.8244   22.0402 N   0  0  0  0  0  0
  -25.4299  -15.1882   20.4082 N   0  0  0  0  0  0
  -31.8555  -14.6037   20.1392 O   0  0  0  0  0  0
  -21.6639   -6.8874   21.4241 O   0  0  0  0  0  0
  -22.3550  -14.5558   20.6695 O   0  0  0  0  0  0
  -24.6100  -31.8705   23.2139 C   0  0  0  0  0  0
  -25.9014  -32.4840   23.8419 C   0  0  1  0  0  0
  -27.2383  -27.4572   20.1073 C   0  0  0  0  0  0
  -25.5886  -33.8641   24.2350 N   0  0  0  0  0  0
  -23.3972  -30.4922   21.5534 C   0  0  2  0  0  0
  -24.8469  -28.9598   20.1184 C   0  0  0  0  0  0
  -22.7389  -29.4654   22.5021 C   0  0  0  0  0  0
  -18.0258  -28.1364   22.8491 C   0  0  0  0  0  0
  -24.1483  -36.7325   23.2643 C   0  0  0  0  0  0
  -25.9216  -30.8428   21.3646 C   0  0  0  0  0  0
  -26.0017  -29.4764   20.7193 C   0  0  0  0  0  0
  -27.2006  -28.7331   20.7167 C   0  0  0  0  0  0
  -26.0753  -26.9562   19.4910 C   0  0  0  0  0  0
  -24.8767  -27.6952   19.5025 C   0  0  0  0  0  0
  -23.6061  -29.8218   20.1681 C   0  0  0  0  0  0
  -25.4107  -36.3134   24.0346 C   0  0  1  0  0  0
  -20.5846  -28.3641   23.1339 C   0  0  2  0  0  0
  -20.6740  -26.9380   22.5433 C   0  0  0  0  0  0
  -19.5730  -26.6369   21.5218 C   0  0  0  0  0  0
  -18.1905  -26.7918   22.1612 C   0  0  0  0  0  0
  -19.1506  -28.8821   23.2908 C   0  0  0  0  0  0
  -18.9433  -30.1432   23.8907 C   0  0  0  0  0  0
  -17.6438  -30.6572   24.0564 C   0  0  0  0  0  0
  -25.9029  -34.9495   23.5146 C   0  0  0  0  0  0
  -16.5328  -29.9070   23.6331 C   0  0  0  0  0  0
  -16.7248  -28.6492   23.0346 C   0  0  0  0  0  0
  -26.4459  -31.6606   25.0732 C   0  0  0  0  0  0
  -25.3735  -31.3685   26.1482 C   0  0  0  0  0  0
  -27.0292  -30.3053   24.6093 C   0  0  0  0  0  0
  -27.6046  -32.4317   25.7486 C   0  0  0  0  0  0
  -27.5586  -37.1822   24.8461 C   0  0  0  0  0  0
  -21.4123  -29.3013   22.3757 N   0  0  0  0  0  0
  -26.4299  -37.3816   23.9414 N   0  0  0  0  0  0
  -24.6607  -31.0821   22.1031 N   0  0  0  0  0  0
  -23.4179  -28.8201   23.3054 O   0  0  0  0  0  0
  -28.3745  -26.6849   20.0517 O   0  0  0  0  0  0
  -26.5587  -34.8939   22.4704 O   0  0  0  0  0  0
  -23.5304  -32.1442   23.7550 O   0  0  0  0  0  0
  -30.1778  -19.4401   19.1564 C   0  0  0  0  0  0
  -30.6356  -17.0548   19.0036 C   0  0  0  0  0  0
  -29.5213  -19.2484   20.3957 C   0  0  0  0  0  0
  -30.0302  -16.8352   20.2674 C   0  0  0  0  0  0
  -30.7209  -18.3476   18.4618 C   0  0  0  0  0  0
  -29.4637  -17.9427   20.9488 C   0  0  0  0  0  0
  -28.8390  -25.1221   21.8941 C   0  0  0  0  0  0
  -28.4830  -21.5029   20.6443 C   0  0  0  0  0  0
  -28.1665  -24.0398   21.0345 C   0  0  0  0  0  0
  -29.0864  -26.5141   21.2803 C   0  0  0  0  0  0
  -28.1364  -22.6073   21.6526 C   0  0  0  0  0  0
  -28.9712  -20.3441   21.1316 N   0  0  0  0  0  0
  -29.9266  -15.5231   20.8371 N   0  0  0  0  0  0
  -29.1740  -24.8949   23.0608 O   0  0  0  0  0  0
  -28.2720  -21.6927   19.4440 O   0  0  0  0  0  0
  -31.3311  -18.5412   17.2682 F   0  0  0  0  0  0
  -28.8578  -17.7513   22.1461 F   0  0  0  0  0  0
  -31.4650  -12.3666   19.1379 H   0  0  0  0  0  0
  -30.3019  -11.2728   19.8312 H   0  0  0  0  0  0
  -29.7348  -11.7649   17.4325 H   0  0  0  0  0  0
  -29.6769  -13.4762   17.7741 H   0  0  0  0  0  0
  -27.8165  -11.3094   18.8096 H   0  0  0  0  0  0
  -27.3708  -12.6445   17.7822 H   0  0  0  0  0  0
  -27.7007  -14.2531   19.5696 H   0  0  0  0  0  0
  -28.6619  -11.9649   21.3578 H   0  0  0  0  0  0
  -28.4725  -13.6183   21.8630 H   0  0  0  0  0  0
  -25.2757   -9.5699   22.4758 H   0  0  0  0  0  0
  -23.9998   -7.4648   22.7476 H   0  0  0  0  0  0
  -21.0832   -8.8766   19.8964 H   0  0  0  0  0  0
  -22.3679  -10.9669   19.6160 H   0  0  0  0  0  0
  -21.1992   -7.6145   23.9720 H   0  0  0  0  0  0
  -21.1487   -6.0516   25.9083 H   0  0  0  0  0  0
  -22.0595   -2.7602   23.2839 H   0  0  0  0  0  0
  -22.4075  -11.9892   22.4788 H   0  0  0  0  0  0
  -21.1114  -13.1300   22.2611 H   0  0  0  0  0  0
  -24.6614  -15.8412   20.5167 H   0  0  0  0  0  0
  -26.2798  -15.6304   20.0820 H   0  0  0  0  0  0
  -26.7086  -32.5575   23.1192 H   0  0  0  0  0  0
  -25.0038  -33.9809   25.0492 H   0  0  0  0  0  0
  -22.6837  -31.3069   21.4155 H   0  0  0  0  0  0
  -23.3747  -35.9652   23.3305 H   0  0  0  0  0  0
  -24.3575  -36.8937   22.2054 H   0  0  0  0  0  0
  -23.7220  -37.6527   23.6649 H   0  0  0  0  0  0
  -26.0278  -31.6068   20.5931 H   0  0  0  0  0  0
  -26.8110  -30.9017   21.9795 H   0  0  0  0  0  0
  -28.0904  -29.1493   21.1683 H   0  0  0  0  0  0
  -26.0961  -25.9884   19.0098 H   0  0  0  0  0  0
  -23.9911  -27.2914   19.0326 H   0  0  0  0  0  0
  -23.7105  -30.5948   19.4062 H   0  0  0  0  0  0
  -22.7315  -29.2378   19.8751 H   0  0  0  0  0  0
  -25.1288  -36.2009   25.0842 H   0  0  0  0  0  0
  -20.9926  -28.3189   24.1464 H   0  0  0  0  0  0
  -20.5617  -26.2252   23.3612 H   0  0  0  0  0  0
  -21.6617  -26.7407   22.1242 H   0  0  0  0  0  0
  -19.6881  -25.6281   21.1241 H   0  0  0  0  0  0
  -19.6684  -27.3180   20.6753 H   0  0  0  0  0  0
  -17.4190  -26.6680   21.3999 H   0  0  0  0  0  0
  -18.0284  -26.0039   22.8986 H   0  0  0  0  0  0
  -19.7911  -30.7250   24.2265 H   0  0  0  0  0  0
  -17.4993  -31.6260   24.5149 H   0  0  0  0  0  0
  -15.5331  -30.2976   23.7649 H   0  0  0  0  0  0
  -15.8645  -28.0820   22.7046 H   0  0  0  0  0  0
  -24.5932  -30.7007   25.7813 H   0  0  0  0  0  0
  -24.8892  -32.2823   26.4937 H   0  0  0  0  0  0
  -25.8102  -30.8857   27.0235 H   0  0  0  0  0  0
  -26.2837  -29.6809   24.1155 H   0  0  0  0  0  0
  -27.4068  -29.7295   25.4553 H   0  0  0  0  0  0
  -27.8669  -30.4370   23.9239 H   0  0  0  0  0  0
  -27.2679  -33.3607   26.2098 H   0  0  0  0  0  0
  -28.3836  -32.6894   25.0298 H   0  0  0  0  0  0
  -28.0735  -31.8417   26.5368 H   0  0  0  0  0  0
  -28.2618  -38.0108   24.7521 H   0  0  0  0  0  0
  -28.1075  -36.2652   24.6275 H   0  0  0  0  0  0
  -27.2314  -37.1449   25.8866 H   0  0  0  0  0  0
  -20.9272  -29.8764   21.7008 H   0  0  0  0  0  0
  -26.0191  -38.2900   24.1419 H   0  0  0  0  0  0
  -30.2807  -20.4220   18.7206 H   0  0  0  0  0  0
  -31.0481  -16.2421   18.4255 H   0  0  0  0  0  0
  -28.6903  -24.0357   20.0783 H   0  0  0  0  0  0
  -27.1479  -24.3606   20.8176 H   0  0  0  0  0  0
  -30.1520  -26.6134   21.0772 H   0  0  0  0  0  0
  -28.8350  -27.2726   22.0208 H   0  0  0  0  0  0
  -28.8270  -22.5145   22.4910 H   0  0  0  0  0  0
  -27.1434  -22.4072   22.0565 H   0  0  0  0  0  0
  -28.9281  -20.2181   22.1342 H   0  0  0  0  0  0
  -29.0785  -15.3331   21.3498 H   0  0  0  0  0  0
  1 25  1  0  0  0
  1 30  2  0  0  0
  1 83  1  0  0  0
  2  3  1  0  0  0
  2 25  1  0  0  0
  2 88  1  0  0  0
  2 89  1  0  0  0
  3  4  1  0  0  0
  3 90  1  0  0  0
  3 91  1  0  0  0
  4  5  1  0  0  0
  4 92  1  0  0  0
  4 93  1  0  0  0
  5  6  1  0  0  0
  5 26  1  0  0  0
  5 94  1  0  0  0
  6 25  1  0  0  0
  6 95  1  0  0  0
  6 96  1  0  0  0
  7  8  2  0  0  0
  7 26  1  0  0  0
  7 29  1  0  0  0
  8  9  1  0  0  0
  8 22  1  0  0  0
  9 10  1  0  0  0
  9 27  2  0  0  0
 10 11  2  0  0  0
 10 15  1  0  0  0
 11 12  1  0  0  0
 11 97  1  0  0  0
 12 13  2  0  0  0
 12 98  1  0  0  0
 13 14  1  0  0  0
 13 31  1  0  0  0
 14 15  2  0  0  0
 14 99  1  0  0  0
 15100  1  0  0  0
 16 17  2  0  0  0
 16 21  1  0  0  0
 16 31  1  0  0  0
 17 18  1  0  0  0
 17101  1  0  0  0
 18 19  2  0  0  0
 18102  1  0  0  0
 19 20  1  0  0  0
 19 24  1  0  0  0
 20 21  2  0  0  0
 20103  1  0  0  0
 21 23  1  0  0  0
 22 28  1  0  0  0
 22 32  2  0  0  0
 26 27  1  0  0  0
 28104  1  0  0  0
 28105  1  0  0  0
 29106  1  0  0  0
 29107  1  0  0  0
 33 34  1  0  0  0
 33 66  1  0  0  0
 33 70  2  0  0  0
 34 36  1  0  0  0
 34 59  1  0  0  0
 34108  1  0  0  0
 35 44  2  0  0  0
 35 45  1  0  0  0
 35 68  1  0  0  0
 36 56  1  0  0  0
 36109  1  0  0  0
 37 39  1  0  0  0
 37 47  1  0  0  0
 37 66  1  0  0  0
 37110  1  0  0  0
 38 43  2  0  0  0
 38 46  1  0  0  0
 38 47  1  0  0  0
 39 64  1  0  0  0
 39 67  2  0  0  0
 40 52  1  0  0  0
 40 53  2  0  0  0
 40 58  1  0  0  0
 41111  1  0  0  0
 41112  1  0  0  0
 41113  1  0  0  0
 41 48  1  0  0  0
 42 43  1  0  0  0
 42 66  1  0  0  0
 42114  1  0  0  0
 42115  1  0  0  0
 43 44  1  0  0  0
 44116  1  0  0  0
 45 46  2  0  0  0
 45117  1  0  0  0
 46118  1  0  0  0
 47119  1  0  0  0
 47120  1  0  0  0
 48 56  1  0  0  0
 48 65  1  0  0  0
 48121  1  0  0  0
 49 50  1  0  0  0
 49 53  1  0  0  0
 49 64  1  0  0  0
 49122  1  0  0  0
 50 51  1  0  0  0
 50123  1  0  0  0
 50124  1  0  0  0
 51 52  1  0  0  0
 51125  1  0  0  0
 51126  1  0  0  0
 52127  1  0  0  0
 52128  1  0  0  0
 53 54  1  0  0  0
 54 55  2  0  0  0
 54129  1  0  0  0
 55 57  1  0  0  0
 55130  1  0  0  0
 56 69  2  0  0  0
 57 58  2  0  0  0
 57131  1  0  0  0
 58132  1  0  0  0
 59 60  1  0  0  0
 59 61  1  0  0  0
 59 62  1  0  0  0
 60133  1  0  0  0
 60134  1  0  0  0
 60135  1  0  0  0
 61136  1  0  0  0
 61137  1  0  0  0
 61138  1  0  0  0
 62139  1  0  0  0
 62140  1  0  0  0
 62141  1  0  0  0
 63 65  1  0  0  0
 63142  1  0  0  0
 63143  1  0  0  0
 63144  1  0  0  0
 64145  1  0  0  0
 65146  1  0  0  0
 68 80  1  0  0  0
 71 73  2  0  0  0
 71 75  1  0  0  0
 71147  1  0  0  0
 72 74  1  0  0  0
 72 75  2  0  0  0
 72148  1  0  0  0
 73 76  1  0  0  0
 73 82  1  0  0  0
 74 76  2  0  0  0
 74 83  1  0  0  0
 75 86  1  0  0  0
 76 87  1  0  0  0
 77 79  1  0  0  0
 77 80  1  0  0  0
 77 84  2  0  0  0
 78 81  1  0  0  0
 78 82  1  0  0  0
 78 85  2  0  0  0
 79 81  1  0  0  0
 79149  1  0  0  0
 79150  1  0  0  0
 80151  1  0  0  0
 80152  1  0  0  0
 81153  1  0  0  0
 81154  1  0  0  0
 82155  1  0  0  0
 83156  1  0  0  0
M  ISO  4   1 100  68 101  80 101  83 100
M  END
> <chiral flag>
0

> <version>
0

> <s_m_source_file>
/data/baiqing/PycharmProjects/Reinvent-master-3.2/result/LINK_invent/BTK/process_docking_weight1_custom_product_contain_oxygen_bond_distance_aromatic_linkinvent_7_9_3/rearranged_h_0175.sdf

> <i_m_source_file_index>
5

> <r_mmod_Potential_Energy-OPLS-2005>
-146.934875488281

> <r_mmod_Stretch_Energy-OPLS-2005>
36.8843154907227

> <r_mmod_Bend_Energy-OPLS-2005>
93.9459457397461

> <r_mmod_Torsional_Energy-OPLS-2005>
253.168228149414

> <r_mmod_Improper_Torsional_Energy-OPLS-2005>
5.56913280487061

> <r_mmod_Van_der_Waal_Energy-OPLS-2005>
163.894256591797

> <r_mmod_Electrostatic_Energy-OPLS-2005>
-485.690673828125

> <r_mmod_Solvation_Energy-OPLS-2005>
-227.571334838867

> <b_mmod_Minimization_Converged-OPLS-2005>
0

> <r_mmod_RMS_Derivative-OPLS-2005>
1.23197722434998

$$$$
6
                    3D
 Structure written by MMmdl.
163171  0  0  1  0            999 V2000
  -30.7733  -14.4060   20.6500 C   0  0  0  0  0  0
  -30.4130  -12.2984   19.4052 C   0  0  0  0  0  0
  -29.4823  -12.5226   18.1996 C   0  0  0  0  0  0
  -28.0081  -12.3830   18.6197 C   0  0  0  0  0  0
  -27.6687  -13.2104   19.8883 C   0  0  2  0  0  0
  -28.7165  -12.9880   21.0051 C   0  0  0  0  0  0
  -25.2611  -13.8164   20.5715 C   0  0  0  0  0  0
  -24.1860  -13.0448   20.9173 C   0  0  0  0  0  0
  -24.6412  -11.6905   20.8747 C   0  0  0  0  0  0
  -23.9083  -10.4285   21.0413 C   0  0  0  0  0  0
  -24.3621   -9.4188   21.9192 C   0  0  0  0  0  0
  -23.6289   -8.2234   22.0765 C   0  0  0  0  0  0
  -22.4278   -8.0279   21.3550 C   0  0  0  0  0  0
  -21.9915   -9.0255   20.4649 C   0  0  0  0  0  0
  -22.7251  -10.2133   20.3057 C   0  0  0  0  0  0
  -21.6855   -6.0737   22.5283 C   0  0  0  0  0  0
  -21.4016   -6.5651   23.8211 C   0  0  0  0  0  0
  -21.3649   -5.6811   24.9177 C   0  0  0  0  0  0
  -21.6042   -4.3073   24.7232 C   0  0  0  0  0  0
  -21.8821   -3.8154   23.4356 C   0  0  0  0  0  0
  -21.9194   -4.6968   22.3406 C   0  0  0  0  0  0
  -22.7876  -13.5225   21.1829 C   0  0  0  0  0  0
  -22.1664   -4.2146   21.0989 F   0  0  0  0  0  0
  -21.5620   -3.4553   25.7743 F   0  0  0  0  0  0
  -30.0501  -13.2702   20.4495 N   0  0  0  0  0  0
  -26.3077  -12.9349   20.3470 N   0  0  0  0  0  0
  -25.9355  -11.6497   20.5824 N   0  0  0  0  0  0
  -22.0528  -12.8210   22.0377 N   0  0  0  0  0  0
  -25.4342  -15.1888   20.4120 N   0  0  0  0  0  0
  -31.8266  -14.6124   20.0386 O   0  0  0  0  0  0
  -21.6637   -6.8884   21.4248 O   0  0  0  0  0  0
  -22.3558  -14.5533   20.6678 O   0  0  0  0  0  0
  -24.6073  -31.8708   23.2129 C   0  0  0  0  0  0
  -25.8990  -32.4860   23.8402 C   0  0  1  0  0  0
  -27.2529  -27.4919   20.0869 C   0  0  0  0  0  0
  -25.5856  -33.8651   24.2343 N   0  0  0  0  0  0
  -23.3942  -30.4957   21.5465 C   0  0  2  0  0  0
  -24.8462  -28.9626   20.1207 C   0  0  0  0  0  0
  -22.7386  -29.4668   22.4948 C   0  0  0  0  0  0
  -18.0269  -28.1350   22.8500 C   0  0  0  0  0  0
  -24.1474  -36.7340   23.2634 C   0  0  0  0  0  0
  -25.9154  -30.8556   21.3571 C   0  0  0  0  0  0
  -25.9986  -29.4899   20.7156 C   0  0  0  0  0  0
  -27.2055  -28.7643   20.7004 C   0  0  0  0  0  0
  -26.0903  -26.9716   19.4876 C   0  0  0  0  0  0
  -24.8835  -27.6976   19.5075 C   0  0  0  0  0  0
  -23.6062  -29.8249   20.1635 C   0  0  0  0  0  0
  -25.4093  -36.3150   24.0348 C   0  0  1  0  0  0
  -20.5853  -28.3653   23.1317 C   0  0  2  0  0  0
  -20.6753  -26.9387   22.5422 C   0  0  0  0  0  0
  -19.5753  -26.6369   21.5203 C   0  0  0  0  0  0
  -18.1928  -26.7916   22.1597 C   0  0  0  0  0  0
  -19.1511  -28.8806   23.2920 C   0  0  0  0  0  0
  -18.9436  -30.1411   23.8934 C   0  0  0  0  0  0
  -17.6452  -30.6578   24.0548 C   0  0  0  0  0  0
  -25.9016  -34.9513   23.5152 C   0  0  0  0  0  0
  -16.5353  -29.9082   23.6283 C   0  0  0  0  0  0
  -16.7265  -28.6480   23.0345 C   0  0  0  0  0  0
  -26.4471  -31.6617   25.0701 C   0  0  0  0  0  0
  -25.3775  -31.3716   26.1477 C   0  0  0  0  0  0
  -27.0254  -30.3048   24.6023 C   0  0  0  0  0  0
  -27.6027  -32.4341   25.7495 C   0  0  0  0  0  0
  -27.5599  -37.1826   24.8455 C   0  0  0  0  0  0
  -21.4106  -29.3034   22.3720 N   0  0  0  0  0  0
  -26.4277  -37.3832   23.9437 N   0  0  0  0  0  0
  -24.6561  -31.0873   22.0991 N   0  0  0  0  0  0
  -23.4191  -28.8191   23.2958 O   0  0  0  0  0  0
  -28.3977  -26.7425   19.9843 O   0  0  0  0  0  0
  -26.5588  -34.8970   22.4722 O   0  0  0  0  0  0
  -23.5285  -32.1411   23.7578 O   0  0  0  0  0  0
  -31.7971  -23.6998   20.7139 C   0  0  0  0  0  0
  -31.5672  -22.3234   20.8805 C   0  0  0  0  0  0
  -30.7012  -22.7538   23.1092 C   0  0  0  0  0  0
  -31.4943  -24.6292   21.7383 C   0  0  0  0  0  0
  -30.9369  -24.1466   22.9681 C   0  0  0  0  0  0
  -31.0204  -21.8373   22.0866 C   0  0  0  0  0  0
  -31.7878  -26.0583   21.4432 C   0  0  0  0  0  0
  -30.5205  -25.0599   24.0898 C   0  0  0  0  0  0
  -30.7407  -26.8268   20.5999 C   0  0  0  0  0  0
  -30.5814  -18.0535   22.1365 C   0  0  0  0  0  0
  -31.3319  -19.3756   21.7895 C   0  0  0  0  0  0
  -30.3892  -24.4670   25.4861 C   0  0  0  0  0  0
  -31.2094  -16.7557   21.6125 C   0  0  0  0  0  0
  -29.2920  -26.7504   21.0936 C   0  0  0  0  0  0
  -30.2916  -15.4959   21.6298 C   0  0  0  0  0  0
  -30.7063  -20.4607   22.2821 N   0  0  0  0  0  0
  -30.2687  -26.2593   23.9513 O   0  0  0  0  0  0
  -31.0450  -27.5000   19.6029 O   0  0  0  0  0  0
  -29.5404  -18.0392   22.8059 O   0  0  0  0  0  0
  -32.3920  -19.3950   21.1533 O   0  0  0  0  0  0
  -33.2135  -26.7974   21.9240 S   0  0  0  0  0  0
  -31.4549  -12.3806   19.0943 H   0  0  0  0  0  0
  -30.2964  -11.2841   19.7900 H   0  0  0  0  0  0
  -29.7101  -11.8123   17.4045 H   0  0  0  0  0  0
  -29.6504  -13.5160   17.7832 H   0  0  0  0  0  0
  -27.8134  -11.3240   18.8023 H   0  0  0  0  0  0
  -27.3535  -12.6731   17.7972 H   0  0  0  0  0  0
  -27.7168  -14.2611   19.6038 H   0  0  0  0  0  0
  -28.6835  -11.9554   21.3579 H   0  0  0  0  0  0
  -28.4859  -13.6048   21.8742 H   0  0  0  0  0  0
  -25.2772   -9.5673   22.4750 H   0  0  0  0  0  0
  -23.9995   -7.4645   22.7491 H   0  0  0  0  0  0
  -21.0837   -8.8777   19.8955 H   0  0  0  0  0  0
  -22.3708  -10.9674   19.6161 H   0  0  0  0  0  0
  -21.2012   -7.6168   23.9707 H   0  0  0  0  0  0
  -21.1477   -6.0550   25.9077 H   0  0  0  0  0  0
  -22.0609   -2.7611   23.2862 H   0  0  0  0  0  0
  -22.4167  -11.9875   22.4753 H   0  0  0  0  0  0
  -21.1144  -13.1223   22.2595 H   0  0  0  0  0  0
  -24.6745  -15.8498   20.5312 H   0  0  0  0  0  0
  -26.2950  -15.6277   20.1103 H   0  0  0  0  0  0
  -26.7064  -32.5637   23.1184 H   0  0  0  0  0  0
  -25.0021  -33.9801   25.0505 H   0  0  0  0  0  0
  -22.6792  -31.3088   21.4063 H   0  0  0  0  0  0
  -23.3752  -35.9657   23.3268 H   0  0  0  0  0  0
  -24.3566  -36.8980   22.2050 H   0  0  0  0  0  0
  -23.7205  -37.6532   23.6662 H   0  0  0  0  0  0
  -26.0143  -31.6151   20.5796 H   0  0  0  0  0  0
  -26.8067  -30.9219   21.9684 H   0  0  0  0  0  0
  -28.0908  -29.2122   21.1282 H   0  0  0  0  0  0
  -26.1280  -26.0071   18.9982 H   0  0  0  0  0  0
  -24.0001  -27.2866   19.0377 H   0  0  0  0  0  0
  -23.7222  -30.5963   19.4005 H   0  0  0  0  0  0
  -22.7336  -29.2425   19.8631 H   0  0  0  0  0  0
  -25.1250  -36.2015   25.0835 H   0  0  0  0  0  0
  -20.9971  -28.3224   24.1421 H   0  0  0  0  0  0
  -20.5637  -26.2255   23.3599 H   0  0  0  0  0  0
  -21.6631  -26.7403   22.1264 H   0  0  0  0  0  0
  -19.6930  -25.6292   21.1220 H   0  0  0  0  0  0
  -19.6715  -27.3156   20.6724 H   0  0  0  0  0  0
  -17.4211  -26.6664   21.3983 H   0  0  0  0  0  0
  -18.0324  -26.0031   22.8949 H   0  0  0  0  0  0
  -19.7910  -30.7192   24.2353 H   0  0  0  0  0  0
  -17.5011  -31.6268   24.5139 H   0  0  0  0  0  0
  -15.5362  -30.3014   23.7566 H   0  0  0  0  0  0
  -15.8663  -28.0823   22.7046 H   0  0  0  0  0  0
  -24.5929  -30.7071   25.7847 H   0  0  0  0  0  0
  -24.9008  -32.2881   26.4968 H   0  0  0  0  0  0
  -25.8180  -30.8876   27.0200 H   0  0  0  0  0  0
  -26.2747  -29.6873   24.1075 H   0  0  0  0  0  0
  -27.3993  -29.7232   25.4459 H   0  0  0  0  0  0
  -27.8623  -30.4329   23.9148 H   0  0  0  0  0  0
  -27.2596  -33.3589   26.2147 H   0  0  0  0  0  0
  -28.3850  -32.6989   25.0372 H   0  0  0  0  0  0
  -28.0699  -31.8426   26.5385 H   0  0  0  0  0  0
  -28.2604  -38.0143   24.7549 H   0  0  0  0  0  0
  -28.1108  -36.2680   24.6199 H   0  0  0  0  0  0
  -27.2331  -37.1388   25.8860 H   0  0  0  0  0  0
  -20.9223  -29.8825   21.7025 H   0  0  0  0  0  0
  -26.0176  -38.2914   24.1456 H   0  0  0  0  0  0
  -32.2084  -24.0466   19.7747 H   0  0  0  0  0  0
  -31.7913  -21.6564   20.0597 H   0  0  0  0  0  0
  -30.2553  -22.3658   24.0124 H   0  0  0  0  0  0
  -29.5196  -23.8133   25.5398 H   0  0  0  0  0  0
  -30.2595  -25.2641   26.2182 H   0  0  0  0  0  0
  -31.2827  -23.9006   25.7438 H   0  0  0  0  0  0
  -32.1170  -16.5667   22.1845 H   0  0  0  0  0  0
  -31.5334  -16.9673   20.5944 H   0  0  0  0  0  0
  -29.1224  -27.5669   21.7911 H   0  0  0  0  0  0
  -29.1218  -25.8301   21.6511 H   0  0  0  0  0  0
  -29.2749  -15.7782   21.3551 H   0  0  0  0  0  0
  -30.2532  -15.0823   22.6363 H   0  0  0  0  0  0
  -29.9261  -20.2348   22.8868 H   0  0  0  0  0  0
  1 25  1  0  0  0
  1 30  2  0  0  0
  1 85  1  0  0  0
  2  3  1  0  0  0
  2 25  1  0  0  0
  2 92  1  0  0  0
  2 93  1  0  0  0
  3  4  1  0  0  0
  3 94  1  0  0  0
  3 95  1  0  0  0
  4  5  1  0  0  0
  4 96  1  0  0  0
  4 97  1  0  0  0
  5  6  1  0  0  0
  5 26  1  0  0  0
  5 98  1  0  0  0
  6 25  1  0  0  0
  6 99  1  0  0  0
  6100  1  0  0  0
  7  8  2  0  0  0
  7 26  1  0  0  0
  7 29  1  0  0  0
  8  9  1  0  0  0
  8 22  1  0  0  0
  9 10  1  0  0  0
  9 27  2  0  0  0
 10 11  2  0  0  0
 10 15  1  0  0  0
 11 12  1  0  0  0
 11101  1  0  0  0
 12 13  2  0  0  0
 12102  1  0  0  0
 13 14  1  0  0  0
 13 31  1  0  0  0
 14 15  2  0  0  0
 14103  1  0  0  0
 15104  1  0  0  0
 16 17  2  0  0  0
 16 21  1  0  0  0
 16 31  1  0  0  0
 17 18  1  0  0  0
 17105  1  0  0  0
 18 19  2  0  0  0
 18106  1  0  0  0
 19 20  1  0  0  0
 19 24  1  0  0  0
 20 21  2  0  0  0
 20107  1  0  0  0
 21 23  1  0  0  0
 22 28  1  0  0  0
 22 32  2  0  0  0
 26 27  1  0  0  0
 28108  1  0  0  0
 28109  1  0  0  0
 29110  1  0  0  0
 29111  1  0  0  0
 33 34  1  0  0  0
 33 66  1  0  0  0
 33 70  2  0  0  0
 34 36  1  0  0  0
 34 59  1  0  0  0
 34112  1  0  0  0
 35 44  2  0  0  0
 35 45  1  0  0  0
 35 68  1  0  0  0
 36 56  1  0  0  0
 36113  1  0  0  0
 37 39  1  0  0  0
 37 47  1  0  0  0
 37 66  1  0  0  0
 37114  1  0  0  0
 38 43  2  0  0  0
 38 46  1  0  0  0
 38 47  1  0  0  0
 39 64  1  0  0  0
 39 67  2  0  0  0
 40 52  1  0  0  0
 40 53  2  0  0  0
 40 58  1  0  0  0
 41115  1  0  0  0
 41116  1  0  0  0
 41117  1  0  0  0
 41 48  1  0  0  0
 42 43  1  0  0  0
 42 66  1  0  0  0
 42118  1  0  0  0
 42119  1  0  0  0
 43 44  1  0  0  0
 44120  1  0  0  0
 45 46  2  0  0  0
 45121  1  0  0  0
 46122  1  0  0  0
 47123  1  0  0  0
 47124  1  0  0  0
 48 56  1  0  0  0
 48 65  1  0  0  0
 48125  1  0  0  0
 49 50  1  0  0  0
 49 53  1  0  0  0
 49 64  1  0  0  0
 49126  1  0  0  0
 50 51  1  0  0  0
 50127  1  0  0  0
 50128  1  0  0  0
 51 52  1  0  0  0
 51129  1  0  0  0
 51130  1  0  0  0
 52131  1  0  0  0
 52132  1  0  0  0
 53 54  1  0  0  0
 54 55  2  0  0  0
 54133  1  0  0  0
 55 57  1  0  0  0
 55134  1  0  0  0
 56 69  2  0  0  0
 57 58  2  0  0  0
 57135  1  0  0  0
 58136  1  0  0  0
 59 60  1  0  0  0
 59 61  1  0  0  0
 59 62  1  0  0  0
 60137  1  0  0  0
 60138  1  0  0  0
 60139  1  0  0  0
 61140  1  0  0  0
 61141  1  0  0  0
 61142  1  0  0  0
 62143  1  0  0  0
 62144  1  0  0  0
 62145  1  0  0  0
 63 65  1  0  0  0
 63146  1  0  0  0
 63147  1  0  0  0
 63148  1  0  0  0
 64149  1  0  0  0
 65150  1  0  0  0
 68 84  1  0  0  0
 71 72  2  0  0  0
 71 74  1  0  0  0
 71151  1  0  0  0
 72 76  1  0  0  0
 72152  1  0  0  0
 73 75  1  0  0  0
 73 76  2  0  0  0
 73153  1  0  0  0
 74 75  2  0  0  0
 74 77  1  0  0  0
 75 78  1  0  0  0
 76 86  1  0  0  0
 77 79  1  0  0  0
 77 91  2  0  0  0
 78 82  1  0  0  0
 78 87  2  0  0  0
 79 84  1  0  0  0
 79 88  2  0  0  0
 80 81  1  0  0  0
 80 83  1  0  0  0
 80 89  2  0  0  0
 81 86  1  0  0  0
 81 90  2  0  0  0
 82154  1  0  0  0
 82155  1  0  0  0
 82156  1  0  0  0
 83 85  1  0  0  0
 83157  1  0  0  0
 83158  1  0  0  0
 84159  1  0  0  0
 84160  1  0  0  0
 85161  1  0  0  0
 85162  1  0  0  0
 86163  1  0  0  0
M  ISO  4   1 100  68 101  84 101  85 100
M  END
> <chiral flag>
0

> <version>
0

> <s_m_source_file>
/data/baiqing/PycharmProjects/Reinvent-master-3.2/result/LINK_invent/BTK/process_docking_weight1_custom_product_contain_oxygen_bond_distance_aromatic_linkinvent_7_9_3/rearranged_h_0175.sdf

> <i_m_source_file_index>
6

> <r_mmod_Potential_Energy-OPLS-2005>
-25.1895751953125

> <r_mmod_Stretch_Energy-OPLS-2005>
41.3299179077148

> <r_mmod_Bend_Energy-OPLS-2005>
103.460403442383

> <r_mmod_Torsional_Energy-OPLS-2005>
257.530426025391

> <r_mmod_Improper_Torsional_Energy-OPLS-2005>
2.37435936927795

> <r_mmod_Van_der_Waal_Energy-OPLS-2005>
169.70573425293

> <r_mmod_Electrostatic_Energy-OPLS-2005>
-348.21337890625

> <r_mmod_Solvation_Energy-OPLS-2005>
-258.369903564453

> <b_mmod_Minimization_Converged-OPLS-2005>
0

> <r_mmod_RMS_Derivative-OPLS-2005>
3.080411195755

$$$$
7
                    3D
 Structure written by MMmdl.
156164  0  0  1  0            999 V2000
  -30.6424  -14.5976   20.4803 C   0  0  0  0  0  0
  -30.4287  -12.3483   19.4785 C   0  0  0  0  0  0
  -29.5151  -12.4845   18.2404 C   0  0  0  0  0  0
  -28.0366  -12.3327   18.6446 C   0  0  0  0  0  0
  -27.6547  -13.2149   19.8601 C   0  0  2  0  0  0
  -28.6927  -13.0812   21.0002 C   0  0  0  0  0  0
  -25.2566  -13.8165   20.5628 C   0  0  0  0  0  0
  -24.1836  -13.0426   20.9143 C   0  0  0  0  0  0
  -24.6391  -11.6887   20.8713 C   0  0  0  0  0  0
  -23.9066  -10.4284   21.0382 C   0  0  0  0  0  0
  -24.3616   -9.4221   21.9176 C   0  0  0  0  0  0
  -23.6297   -8.2258   22.0759 C   0  0  0  0  0  0
  -22.4289   -8.0285   21.3541 C   0  0  0  0  0  0
  -21.9904   -9.0240   20.4645 C   0  0  0  0  0  0
  -22.7221  -10.2122   20.3058 C   0  0  0  0  0  0
  -21.6870   -6.0725   22.5267 C   0  0  0  0  0  0
  -21.4020   -6.5636   23.8194 C   0  0  0  0  0  0
  -21.3669   -5.6790   24.9153 C   0  0  0  0  0  0
  -21.6041   -4.3048   24.7212 C   0  0  0  0  0  0
  -21.8816   -3.8138   23.4335 C   0  0  0  0  0  0
  -21.9181   -4.6943   22.3393 C   0  0  0  0  0  0
  -22.7864  -13.5231   21.1767 C   0  0  0  0  0  0
  -22.1658   -4.2151   21.0966 F   0  0  0  0  0  0
  -21.5632   -3.4521   25.7719 F   0  0  0  0  0  0
  -30.0216  -13.3829   20.4489 N   0  0  0  0  0  0
  -26.3002  -12.9337   20.3272 N   0  0  0  0  0  0
  -25.9328  -11.6491   20.5751 N   0  0  0  0  0  0
  -22.0495  -12.8288   22.0352 N   0  0  0  0  0  0
  -25.4242  -15.1901   20.4119 N   0  0  0  0  0  0
  -31.7930  -14.7498   20.0545 O   0  0  0  0  0  0
  -21.6647   -6.8879   21.4248 O   0  0  0  0  0  0
  -22.3558  -14.5501   20.6547 O   0  0  0  0  0  0
  -24.6146  -31.8685   23.2014 C   0  0  0  0  0  0
  -25.9014  -32.4847   23.8350 C   0  0  1  0  0  0
  -27.2267  -27.3994   20.0599 C   0  0  0  0  0  0
  -25.5853  -33.8636   24.2265 N   0  0  0  0  0  0
  -23.4031  -30.4889   21.5461 C   0  0  2  0  0  0
  -24.8468  -28.9573   20.1102 C   0  0  0  0  0  0
  -22.7396  -29.4654   22.4943 C   0  0  0  0  0  0
  -18.0264  -28.1422   22.8492 C   0  0  0  0  0  0
  -24.1477  -36.7277   23.2632 C   0  0  0  0  0  0
  -25.9379  -30.8270   21.3540 C   0  0  0  0  0  0
  -26.0137  -29.4583   20.6938 C   0  0  0  0  0  0
  -27.2053  -28.6887   20.6618 C   0  0  0  0  0  0
  -26.0245  -26.9140   19.4954 C   0  0  0  0  0  0
  -24.8483  -27.6855   19.5103 C   0  0  0  0  0  0
  -23.6094  -29.8252   20.1612 C   0  0  0  0  0  0
  -25.4126  -36.3109   24.0314 C   0  0  1  0  0  0
  -20.5864  -28.3709   23.1314 C   0  0  2  0  0  0
  -20.6762  -26.9450   22.5433 C   0  0  0  0  0  0
  -19.5753  -26.6424   21.5224 C   0  0  0  0  0  0
  -18.1921  -26.7970   22.1622 C   0  0  0  0  0  0
  -19.1526  -28.8884   23.2895 C   0  0  0  0  0  0
  -18.9466  -30.1478   23.8925 C   0  0  0  0  0  0
  -17.6479  -30.6616   24.0591 C   0  0  0  0  0  0
  -25.9061  -34.9483   23.5087 C   0  0  0  0  0  0
  -16.5358  -29.9148   23.6336 C   0  0  0  0  0  0
  -16.7265  -28.6561   23.0352 C   0  0  0  0  0  0
  -26.4463  -31.6645   25.0672 C   0  0  0  0  0  0
  -25.3728  -31.3791   26.1420 C   0  0  0  0  0  0
  -27.0262  -30.3078   24.6039 C   0  0  0  0  0  0
  -27.6011  -32.4402   25.7440 C   0  0  0  0  0  0
  -27.5572  -37.1781   24.8464 C   0  0  0  0  0  0
  -21.4134  -29.3025   22.3667 N   0  0  0  0  0  0
  -26.4275  -37.3817   23.9403 N   0  0  0  0  0  0
  -24.6692  -31.0758   22.0914 N   0  0  0  0  0  0
  -23.4170  -28.8190   23.2972 O   0  0  0  0  0  0
  -28.4005  -26.6551   20.0575 O   0  0  0  0  0  0
  -26.5639  -34.8956   22.4683 O   0  0  0  0  0  0
  -23.5332  -32.1422   23.7400 O   0  0  0  0  0  0
  -29.8919  -17.2089   18.9682 C   0  0  0  0  0  0
  -29.8008  -18.6336   18.8891 C   0  0  0  0  0  0
  -29.7390  -19.1673   20.1559 C   0  0  0  0  0  0
  -29.8883  -16.9243   20.3089 C   0  0  0  0  0  0
  -29.2794  -22.9604   20.0993 C   0  0  0  0  0  0
  -29.7989  -20.5797   22.3014 C   0  0  0  0  0  0
  -28.1967  -24.0870   20.1199 C   0  0  0  0  0  0
  -28.5056  -25.4055   19.3142 C   0  0  0  0  0  0
  -29.8494  -20.5816   20.7624 C   0  0  2  0  0  0
  -29.8316  -19.3557   17.6932 N   0  0  0  0  0  0
  -29.8919  -15.6665   20.8692 N   0  0  0  0  0  0
  -28.9295  -21.6553   20.2789 N   0  0  0  0  0  0
  -30.4661  -23.2864   19.9997 O   0  0  0  0  0  0
  -29.7559  -18.0911   21.0392 O   0  0  0  0  0  0
  -31.4766  -12.4436   19.1875 H   0  0  0  0  0  0
  -30.3397  -11.3577   19.9265 H   0  0  0  0  0  0
  -29.7836  -11.7367   17.4933 H   0  0  0  0  0  0
  -29.6719  -13.4571   17.7743 H   0  0  0  0  0  0
  -27.8700  -11.2837   18.8899 H   0  0  0  0  0  0
  -27.3886  -12.5495   17.7941 H   0  0  0  0  0  0
  -27.6725  -14.2454   19.5075 H   0  0  0  0  0  0
  -28.6844  -12.0765   21.4221 H   0  0  0  0  0  0
  -28.4397  -13.7526   21.8234 H   0  0  0  0  0  0
  -25.2748   -9.5704   22.4749 H   0  0  0  0  0  0
  -23.9973   -7.4682   22.7522 H   0  0  0  0  0  0
  -21.0809   -8.8747   19.9014 H   0  0  0  0  0  0
  -22.3646  -10.9637   19.6178 H   0  0  0  0  0  0
  -21.2054   -7.6140   23.9689 H   0  0  0  0  0  0
  -21.1497   -6.0522   25.9049 H   0  0  0  0  0  0
  -22.0602   -2.7604   23.2806 H   0  0  0  0  0  0
  -22.4080  -11.9973   22.4784 H   0  0  0  0  0  0
  -21.1138  -13.1377   22.2557 H   0  0  0  0  0  0
  -24.6448  -15.8314   20.5105 H   0  0  0  0  0  0
  -26.2744  -15.6383   20.0951 H   0  0  0  0  0  0
  -26.7093  -32.5554   23.1110 H   0  0  0  0  0  0
  -24.9944  -33.9853   25.0366 H   0  0  0  0  0  0
  -22.6915  -31.3053   21.4111 H   0  0  0  0  0  0
  -23.3748  -35.9589   23.3326 H   0  0  0  0  0  0
  -24.3558  -36.8891   22.2041 H   0  0  0  0  0  0
  -23.7248  -37.6480   23.6667 H   0  0  0  0  0  0
  -26.0569  -31.6047   20.5970 H   0  0  0  0  0  0
  -26.8209  -30.8777   21.9761 H   0  0  0  0  0  0
  -28.1104  -29.0880   21.0980 H   0  0  0  0  0  0
  -25.9640  -25.9336   19.0471 H   0  0  0  0  0  0
  -23.9408  -27.2918   19.0734 H   0  0  0  0  0  0
  -23.7204  -30.6052   19.4079 H   0  0  0  0  0  0
  -22.7304  -29.2511   19.8585 H   0  0  0  0  0  0
  -25.1333  -36.1934   25.0806 H   0  0  0  0  0  0
  -20.9992  -28.3307   24.1418 H   0  0  0  0  0  0
  -20.5698  -26.2324   23.3615 H   0  0  0  0  0  0
  -21.6625  -26.7504   22.1205 H   0  0  0  0  0  0
  -19.6911  -25.6343   21.1242 H   0  0  0  0  0  0
  -19.6686  -27.3236   20.6758 H   0  0  0  0  0  0
  -17.4186  -26.6725   21.4010 H   0  0  0  0  0  0
  -18.0297  -26.0133   22.9055 H   0  0  0  0  0  0
  -19.7954  -30.7281   24.2283 H   0  0  0  0  0  0
  -17.5057  -31.6292   24.5213 H   0  0  0  0  0  0
  -15.5374  -30.3084   23.7649 H   0  0  0  0  0  0
  -15.8651  -28.0904   22.7066 H   0  0  0  0  0  0
  -24.5838  -30.7217   25.7747 H   0  0  0  0  0  0
  -24.8967  -32.2976   26.4856 H   0  0  0  0  0  0
  -25.8060  -30.8941   27.0180 H   0  0  0  0  0  0
  -26.2772  -29.6852   24.1102 H   0  0  0  0  0  0
  -27.4058  -29.7306   25.4479 H   0  0  0  0  0  0
  -27.8628  -30.4376   23.9164 H   0  0  0  0  0  0
  -27.2560  -33.3672   26.2028 H   0  0  0  0  0  0
  -28.3783  -32.7048   25.0259 H   0  0  0  0  0  0
  -28.0716  -31.8547   26.5334 H   0  0  0  0  0  0
  -28.2610  -38.0060   24.7532 H   0  0  0  0  0  0
  -28.1072  -36.2602   24.6294 H   0  0  0  0  0  0
  -27.2283  -37.1423   25.8866 H   0  0  0  0  0  0
  -20.9274  -29.8733   21.6887 H   0  0  0  0  0  0
  -26.0148  -38.2868   24.1493 H   0  0  0  0  0  0
  -29.9572  -16.4878   18.1645 H   0  0  0  0  0  0
  -29.8949  -21.5937   22.6981 H   0  0  0  0  0  0
  -30.6070  -19.9751   22.7190 H   0  0  0  0  0  0
  -28.8587  -20.1765   22.6724 H   0  0  0  0  0  0
  -28.0945  -24.3708   21.1670 H   0  0  0  0  0  0
  -27.2322  -23.6793   19.8162 H   0  0  0  0  0  0
  -27.9371  -25.4332   18.3837 H   0  0  0  0  0  0
  -29.5340  -25.3836   18.9573 H   0  0  0  0  0  0
  -30.8619  -20.8960   20.4995 H   0  0  0  0  0  0
  -29.9239  -18.9076   16.7845 H   0  0  0  0  0  0
  -29.8395  -20.3701   17.6723 H   0  0  0  0  0  0
  -29.0918  -15.4625   21.4515 H   0  0  0  0  0  0
  -27.9416  -21.4357   20.3171 H   0  0  0  0  0  0
  1 25  1  0  0  0
  1 30  2  0  0  0
  1 81  1  0  0  0
  2  3  1  0  0  0
  2 25  1  0  0  0
  2 85  1  0  0  0
  2 86  1  0  0  0
  3  4  1  0  0  0
  3 87  1  0  0  0
  3 88  1  0  0  0
  4  5  1  0  0  0
  4 89  1  0  0  0
  4 90  1  0  0  0
  5  6  1  0  0  0
  5 26  1  0  0  0
  5 91  1  0  0  0
  6 25  1  0  0  0
  6 92  1  0  0  0
  6 93  1  0  0  0
  7  8  2  0  0  0
  7 26  1  0  0  0
  7 29  1  0  0  0
  8  9  1  0  0  0
  8 22  1  0  0  0
  9 10  1  0  0  0
  9 27  2  0  0  0
 10 11  2  0  0  0
 10 15  1  0  0  0
 11 12  1  0  0  0
 11 94  1  0  0  0
 12 13  2  0  0  0
 12 95  1  0  0  0
 13 14  1  0  0  0
 13 31  1  0  0  0
 14 15  2  0  0  0
 14 96  1  0  0  0
 15 97  1  0  0  0
 16 17  2  0  0  0
 16 21  1  0  0  0
 16 31  1  0  0  0
 17 18  1  0  0  0
 17 98  1  0  0  0
 18 19  2  0  0  0
 18 99  1  0  0  0
 19 20  1  0  0  0
 19 24  1  0  0  0
 20 21  2  0  0  0
 20100  1  0  0  0
 21 23  1  0  0  0
 22 28  1  0  0  0
 22 32  2  0  0  0
 26 27  1  0  0  0
 28101  1  0  0  0
 28102  1  0  0  0
 29103  1  0  0  0
 29104  1  0  0  0
 33 34  1  0  0  0
 33 66  1  0  0  0
 33 70  2  0  0  0
 34 36  1  0  0  0
 34 59  1  0  0  0
 34105  1  0  0  0
 35 44  2  0  0  0
 35 45  1  0  0  0
 35 68  1  0  0  0
 36 56  1  0  0  0
 36106  1  0  0  0
 37 39  1  0  0  0
 37 47  1  0  0  0
 37 66  1  0  0  0
 37107  1  0  0  0
 38 43  2  0  0  0
 38 46  1  0  0  0
 38 47  1  0  0  0
 39 64  1  0  0  0
 39 67  2  0  0  0
 40 52  1  0  0  0
 40 53  2  0  0  0
 40 58  1  0  0  0
 41108  1  0  0  0
 41109  1  0  0  0
 41110  1  0  0  0
 41 48  1  0  0  0
 42 43  1  0  0  0
 42 66  1  0  0  0
 42111  1  0  0  0
 42112  1  0  0  0
 43 44  1  0  0  0
 44113  1  0  0  0
 45 46  2  0  0  0
 45114  1  0  0  0
 46115  1  0  0  0
 47116  1  0  0  0
 47117  1  0  0  0
 48 56  1  0  0  0
 48 65  1  0  0  0
 48118  1  0  0  0
 49 50  1  0  0  0
 49 53  1  0  0  0
 49 64  1  0  0  0
 49119  1  0  0  0
 50 51  1  0  0  0
 50120  1  0  0  0
 50121  1  0  0  0
 51 52  1  0  0  0
 51122  1  0  0  0
 51123  1  0  0  0
 52124  1  0  0  0
 52125  1  0  0  0
 53 54  1  0  0  0
 54 55  2  0  0  0
 54126  1  0  0  0
 55 57  1  0  0  0
 55127  1  0  0  0
 56 69  2  0  0  0
 57 58  2  0  0  0
 57128  1  0  0  0
 58129  1  0  0  0
 59 60  1  0  0  0
 59 61  1  0  0  0
 59 62  1  0  0  0
 60130  1  0  0  0
 60131  1  0  0  0
 60132  1  0  0  0
 61133  1  0  0  0
 61134  1  0  0  0
 61135  1  0  0  0
 62136  1  0  0  0
 62137  1  0  0  0
 62138  1  0  0  0
 63 65  1  0  0  0
 63139  1  0  0  0
 63140  1  0  0  0
 63141  1  0  0  0
 64142  1  0  0  0
 65143  1  0  0  0
 68 78  1  0  0  0
 71 72  1  0  0  0
 71 74  2  0  0  0
 71144  1  0  0  0
 72 73  2  0  0  0
 72 80  1  0  0  0
 73 79  1  0  0  0
 73 84  1  0  0  0
 74 81  1  0  0  0
 74 84  1  0  0  0
 75 77  1  0  0  0
 75 82  1  0  0  0
 75 83  2  0  0  0
 76145  1  0  0  0
 76146  1  0  0  0
 76147  1  0  0  0
 76 79  1  0  0  0
 77 78  1  0  0  0
 77148  1  0  0  0
 77149  1  0  0  0
 78150  1  0  0  0
 78151  1  0  0  0
 79 82  1  0  0  0
 79152  1  0  0  0
 80153  1  0  0  0
 80154  1  0  0  0
 81155  1  0  0  0
 82156  1  0  0  0
M  ISO  4   1 100  68 101  78 101  81 100
M  END
> <chiral flag>
0

> <version>
0

> <s_m_source_file>
/data/baiqing/PycharmProjects/Reinvent-master-3.2/result/LINK_invent/BTK/process_docking_weight1_custom_product_contain_oxygen_bond_distance_aromatic_linkinvent_7_9_3/rearranged_h_0175.sdf

> <i_m_source_file_index>
7

> <r_mmod_Potential_Energy-OPLS-2005>
-36.6359024047852

> <r_mmod_Stretch_Energy-OPLS-2005>
54.6345710754395

> <r_mmod_Bend_Energy-OPLS-2005>
141.656066894531

> <r_mmod_Torsional_Energy-OPLS-2005>
245.62712097168

> <r_mmod_Improper_Torsional_Energy-OPLS-2005>
6.50323963165283

> <r_mmod_Van_der_Waal_Energy-OPLS-2005>
128.929183959961

> <r_mmod_Electrostatic_Energy-OPLS-2005>
-397.589782714844

> <r_mmod_Solvation_Energy-OPLS-2005>
-246.414215087891

> <b_mmod_Minimization_Converged-OPLS-2005>
0

> <r_mmod_RMS_Derivative-OPLS-2005>
5.55855894088745

$$$$
8
                    3D
 Structure written by MMmdl.
159167  0  0  1  0            999 V2000
  -30.7217  -14.5555   20.4858 C   0  0  0  0  0  0
  -30.4121  -12.3396   19.4396 C   0  0  0  0  0  0
  -29.4953  -12.4924   18.2093 C   0  0  0  0  0  0
  -28.0180  -12.3610   18.6239 C   0  0  0  0  0  0
  -27.6556  -13.2292   19.8596 C   0  0  2  0  0  0
  -28.7061  -13.1030   20.9876 C   0  0  0  0  0  0
  -25.2575  -13.8208   20.5697 C   0  0  0  0  0  0
  -24.1875  -13.0464   20.9194 C   0  0  0  0  0  0
  -24.6470  -11.6927   20.8782 C   0  0  0  0  0  0
  -23.9159  -10.4312   21.0442 C   0  0  0  0  0  0
  -24.3689   -9.4215   21.9214 C   0  0  0  0  0  0
  -23.6339   -8.2262   22.0778 C   0  0  0  0  0  0
  -22.4320   -8.0313   21.3561 C   0  0  0  0  0  0
  -21.9980   -9.0302   20.4666 C   0  0  0  0  0  0
  -22.7341  -10.2169   20.3079 C   0  0  0  0  0  0
  -21.6850   -6.0775   22.5296 C   0  0  0  0  0  0
  -21.4008   -6.5670   23.8235 C   0  0  0  0  0  0
  -21.3650   -5.6816   24.9185 C   0  0  0  0  0  0
  -21.6045   -4.3084   24.7233 C   0  0  0  0  0  0
  -21.8815   -3.8182   23.4351 C   0  0  0  0  0  0
  -21.9196   -4.7002   22.3409 C   0  0  0  0  0  0
  -22.7892  -13.5229   21.1833 C   0  0  0  0  0  0
  -22.1660   -4.2192   21.0987 F   0  0  0  0  0  0
  -21.5628   -3.4562   25.7742 F   0  0  0  0  0  0
  -30.0256  -13.3842   20.4059 N   0  0  0  0  0  0
  -26.3041  -12.9427   20.3349 N   0  0  0  0  0  0
  -25.9412  -11.6575   20.5809 N   0  0  0  0  0  0
  -22.0530  -12.8207   22.0364 N   0  0  0  0  0  0
  -25.4226  -15.1939   20.4109 N   0  0  0  0  0  0
  -31.8755  -14.6342   20.0615 O   0  0  0  0  0  0
  -21.6647   -6.8933   21.4262 O   0  0  0  0  0  0
  -22.3587  -14.5553   20.6694 O   0  0  0  0  0  0
  -24.6213  -31.8632   23.2113 C   0  0  0  0  0  0
  -25.9093  -32.4778   23.8388 C   0  0  1  0  0  0
  -27.2192  -27.3964   20.0792 C   0  0  0  0  0  0
  -25.5939  -33.8587   24.2314 N   0  0  0  0  0  0
  -23.4079  -30.4890   21.5555 C   0  0  2  0  0  0
  -24.8493  -28.9537   20.1123 C   0  0  0  0  0  0
  -22.7443  -29.4639   22.5032 C   0  0  0  0  0  0
  -18.0258  -28.1392   22.8463 C   0  0  0  0  0  0
  -24.1480  -36.7295   23.2643 C   0  0  0  0  0  0
  -25.9424  -30.8160   21.3701 C   0  0  0  0  0  0
  -26.0173  -29.4513   20.7060 C   0  0  0  0  0  0
  -27.2103  -28.6831   20.6815 C   0  0  0  0  0  0
  -26.0359  -26.9235   19.4793 C   0  0  0  0  0  0
  -24.8546  -27.6910   19.4972 C   0  0  0  0  0  0
  -23.6131  -29.8271   20.1674 C   0  0  0  0  0  0
  -25.4112  -36.3081   24.0328 C   0  0  1  0  0  0
  -20.5858  -28.3685   23.1334 C   0  0  2  0  0  0
  -20.6774  -26.9432   22.5447 C   0  0  0  0  0  0
  -19.5764  -26.6396   21.5230 C   0  0  0  0  0  0
  -18.1913  -26.7931   22.1583 C   0  0  0  0  0  0
  -19.1503  -28.8851   23.2875 C   0  0  0  0  0  0
  -18.9437  -30.1434   23.8926 C   0  0  0  0  0  0
  -17.6454  -30.6601   24.0564 C   0  0  0  0  0  0
  -25.9070  -34.9441   23.5122 C   0  0  0  0  0  0
  -16.5339  -29.9106   23.6342 C   0  0  0  0  0  0
  -16.7245  -28.6513   23.0384 C   0  0  0  0  0  0
  -26.4517  -31.6571   25.0737 C   0  0  0  0  0  0
  -25.3761  -31.3666   26.1478 C   0  0  0  0  0  0
  -27.0377  -30.3008   24.6166 C   0  0  0  0  0  0
  -27.6142  -32.4272   25.7460 C   0  0  0  0  0  0
  -27.5569  -37.1796   24.8465 C   0  0  0  0  0  0
  -21.4177  -29.3019   22.3754 N   0  0  0  0  0  0
  -26.4285  -37.3781   23.9397 N   0  0  0  0  0  0
  -24.6754  -31.0705   22.1020 N   0  0  0  0  0  0
  -23.4184  -28.8198   23.3115 O   0  0  0  0  0  0
  -28.3546  -26.6073   20.0496 O   0  0  0  0  0  0
  -26.5639  -34.8896   22.4692 O   0  0  0  0  0  0
  -23.5414  -32.1417   23.7497 O   0  0  0  0  0  0
  -31.5905  -19.6781   20.9079 C   0  0  0  0  0  0
  -32.3798  -18.5944   21.3312 C   0  0  0  0  0  0
  -30.2343  -19.4958   20.5446 C   0  0  0  0  0  0
  -30.5448  -17.0331   20.8843 C   0  0  0  0  0  0
  -31.8508  -17.2944   21.3699 C   0  0  0  0  0  0
  -29.7278  -18.1510   20.5136 C   0  0  0  0  0  0
  -29.3604  -20.7408   20.3867 C   0  0  0  0  0  0
  -28.5741  -24.0752   19.8580 C   0  0  0  0  0  0
  -32.4048  -23.3610   20.2574 C   0  0  0  0  0  0
  -28.2320  -25.3257   20.7264 C   0  0  0  0  0  0
  -29.8194  -23.2281   20.3009 C   0  0  2  0  0  0
  -31.0778  -23.9744   19.7854 C   0  0  2  0  0  0
  -30.0296  -15.6772   20.8197 N   0  0  0  0  0  0
  -29.9100  -21.8281   19.7980 N   0  0  0  0  0  0
  -28.2409  -20.7901   20.8986 O   0  0  0  0  0  0
  -27.8550  -23.7797   18.8955 O   0  0  0  0  0  0
  -32.6086  -16.3163   21.9263 F   0  0  0  0  0  0
  -28.4475  -17.9133   20.1334 F   0  0  0  0  0  0
  -31.0983  -24.0259   18.4500 F   0  0  0  0  0  0
  -31.4597  -12.4016   19.1401 H   0  0  0  0  0  0
  -30.2904  -11.3516   19.8872 H   0  0  0  0  0  0
  -29.7401  -11.7381   17.4599 H   0  0  0  0  0  0
  -29.6591  -13.4600   17.7312 H   0  0  0  0  0  0
  -27.8337  -11.3095   18.8408 H   0  0  0  0  0  0
  -27.3695  -12.6150   17.7836 H   0  0  0  0  0  0
  -27.6671  -14.2642   19.5158 H   0  0  0  0  0  0
  -28.6957  -12.1027   21.4211 H   0  0  0  0  0  0
  -28.4805  -13.7911   21.8037 H   0  0  0  0  0  0
  -25.2836   -9.5656   22.4794 H   0  0  0  0  0  0
  -24.0031   -7.4646   22.7501 H   0  0  0  0  0  0
  -21.0910   -8.8878   19.8960 H   0  0  0  0  0  0
  -22.3860  -10.9729   19.6192 H   0  0  0  0  0  0
  -21.1991   -7.6174   23.9749 H   0  0  0  0  0  0
  -21.1468   -6.0542   25.9087 H   0  0  0  0  0  0
  -22.0597   -2.7647   23.2847 H   0  0  0  0  0  0
  -22.4155  -11.9852   22.4714 H   0  0  0  0  0  0
  -21.1155  -13.1235   22.2573 H   0  0  0  0  0  0
  -24.6461  -15.8371   20.5163 H   0  0  0  0  0  0
  -26.2703  -15.6487   20.0963 H   0  0  0  0  0  0
  -26.7160  -32.5464   23.1145 H   0  0  0  0  0  0
  -25.0045  -33.9724   25.0424 H   0  0  0  0  0  0
  -22.6975  -31.3072   21.4197 H   0  0  0  0  0  0
  -23.3755  -35.9618   23.3300 H   0  0  0  0  0  0
  -24.3574  -36.8965   22.2066 H   0  0  0  0  0  0
  -23.7224  -37.6477   23.6705 H   0  0  0  0  0  0
  -26.0665  -31.5877   20.6079 H   0  0  0  0  0  0
  -26.8243  -30.8577   21.9975 H   0  0  0  0  0  0
  -28.1138  -29.0652   21.1370 H   0  0  0  0  0  0
  -26.0259  -25.9609   18.9894 H   0  0  0  0  0  0
  -23.9578  -27.3118   19.0263 H   0  0  0  0  0  0
  -23.7174  -30.6080   19.4127 H   0  0  0  0  0  0
  -22.7320  -29.2543   19.8734 H   0  0  0  0  0  0
  -25.1283  -36.1952   25.0823 H   0  0  0  0  0  0
  -20.9877  -28.3264   24.1481 H   0  0  0  0  0  0
  -20.5736  -26.2295   23.3633 H   0  0  0  0  0  0
  -21.6636  -26.7516   22.1209 H   0  0  0  0  0  0
  -19.6989  -25.6313   21.1247 H   0  0  0  0  0  0
  -19.6758  -27.3222   20.6773 H   0  0  0  0  0  0
  -17.4226  -26.6729   21.3935 H   0  0  0  0  0  0
  -18.0263  -26.0043   22.8932 H   0  0  0  0  0  0
  -19.7926  -30.7220   24.2354 H   0  0  0  0  0  0
  -17.5016  -31.6299   24.5143 H   0  0  0  0  0  0
  -15.5350  -30.3026   23.7690 H   0  0  0  0  0  0
  -15.8627  -28.0849   22.7140 H   0  0  0  0  0  0
  -24.6016  -30.6934   25.7796 H   0  0  0  0  0  0
  -24.8841  -32.2784   26.4865 H   0  0  0  0  0  0
  -25.8081  -30.8891   27.0279 H   0  0  0  0  0  0
  -26.2923  -29.6704   24.1317 H   0  0  0  0  0  0
  -27.4233  -29.7335   25.4650 H   0  0  0  0  0  0
  -27.8715  -30.4322   23.9279 H   0  0  0  0  0  0
  -27.2874  -33.3658   26.1942 H   0  0  0  0  0  0
  -28.3981  -32.6668   25.0258 H   0  0  0  0  0  0
  -28.0763  -31.8416   26.5428 H   0  0  0  0  0  0
  -28.2611  -38.0057   24.7461 H   0  0  0  0  0  0
  -28.1017  -36.2587   24.6336 H   0  0  0  0  0  0
  -27.2270  -37.1526   25.8861 H   0  0  0  0  0  0
  -20.9404  -29.8660   21.6874 H   0  0  0  0  0  0
  -26.0181  -38.2863   24.1379 H   0  0  0  0  0  0
  -32.0292  -20.6626   20.9436 H   0  0  0  0  0  0
  -33.3897  -18.7637   21.6745 H   0  0  0  0  0  0
  -32.3331  -22.9862   21.2780 H   0  0  0  0  0  0
  -33.2098  -24.0967   20.2379 H   0  0  0  0  0  0
  -32.7099  -22.5357   19.6141 H   0  0  0  0  0  0
  -28.8973  -25.3407   21.5887 H   0  0  0  0  0  0
  -27.2273  -25.1944   21.1314 H   0  0  0  0  0  0
  -29.8486  -23.2053   21.3911 H   0  0  0  0  0  0
  -31.0504  -25.0141   20.1169 H   0  0  0  0  0  0
  -29.0313  -15.5790   20.8939 H   0  0  0  0  0  0
  -30.7275  -21.6681   19.2259 H   0  0  0  0  0  0
  1 25  1  0  0  0
  1 30  2  0  0  0
  1 83  1  0  0  0
  2  3  1  0  0  0
  2 25  1  0  0  0
  2 90  1  0  0  0
  2 91  1  0  0  0
  3  4  1  0  0  0
  3 92  1  0  0  0
  3 93  1  0  0  0
  4  5  1  0  0  0
  4 94  1  0  0  0
  4 95  1  0  0  0
  5  6  1  0  0  0
  5 26  1  0  0  0
  5 96  1  0  0  0
  6 25  1  0  0  0
  6 97  1  0  0  0
  6 98  1  0  0  0
  7  8  2  0  0  0
  7 26  1  0  0  0
  7 29  1  0  0  0
  8  9  1  0  0  0
  8 22  1  0  0  0
  9 10  1  0  0  0
  9 27  2  0  0  0
 10 11  2  0  0  0
 10 15  1  0  0  0
 11 12  1  0  0  0
 11 99  1  0  0  0
 12 13  2  0  0  0
 12100  1  0  0  0
 13 14  1  0  0  0
 13 31  1  0  0  0
 14 15  2  0  0  0
 14101  1  0  0  0
 15102  1  0  0  0
 16 17  2  0  0  0
 16 21  1  0  0  0
 16 31  1  0  0  0
 17 18  1  0  0  0
 17103  1  0  0  0
 18 19  2  0  0  0
 18104  1  0  0  0
 19 20  1  0  0  0
 19 24  1  0  0  0
 20 21  2  0  0  0
 20105  1  0  0  0
 21 23  1  0  0  0
 22 28  1  0  0  0
 22 32  2  0  0  0
 26 27  1  0  0  0
 28106  1  0  0  0
 28107  1  0  0  0
 29108  1  0  0  0
 29109  1  0  0  0
 33 34  1  0  0  0
 33 66  1  0  0  0
 33 70  2  0  0  0
 34 36  1  0  0  0
 34 59  1  0  0  0
 34110  1  0  0  0
 35 44  2  0  0  0
 35 45  1  0  0  0
 35 68  1  0  0  0
 36 56  1  0  0  0
 36111  1  0  0  0
 37 39  1  0  0  0
 37 47  1  0  0  0
 37 66  1  0  0  0
 37112  1  0  0  0
 38 43  2  0  0  0
 38 46  1  0  0  0
 38 47  1  0  0  0
 39 64  1  0  0  0
 39 67  2  0  0  0
 40 52  1  0  0  0
 40 53  2  0  0  0
 40 58  1  0  0  0
 41113  1  0  0  0
 41114  1  0  0  0
 41115  1  0  0  0
 41 48  1  0  0  0
 42 43  1  0  0  0
 42 66  1  0  0  0
 42116  1  0  0  0
 42117  1  0  0  0
 43 44  1  0  0  0
 44118  1  0  0  0
 45 46  2  0  0  0
 45119  1  0  0  0
 46120  1  0  0  0
 47121  1  0  0  0
 47122  1  0  0  0
 48 56  1  0  0  0
 48 65  1  0  0  0
 48123  1  0  0  0
 49 50  1  0  0  0
 49 53  1  0  0  0
 49 64  1  0  0  0
 49124  1  0  0  0
 50 51  1  0  0  0
 50125  1  0  0  0
 50126  1  0  0  0
 51 52  1  0  0  0
 51127  1  0  0  0
 51128  1  0  0  0
 52129  1  0  0  0
 52130  1  0  0  0
 53 54  1  0  0  0
 54 55  2  0  0  0
 54131  1  0  0  0
 55 57  1  0  0  0
 55132  1  0  0  0
 56 69  2  0  0  0
 57 58  2  0  0  0
 57133  1  0  0  0
 58134  1  0  0  0
 59 60  1  0  0  0
 59 61  1  0  0  0
 59 62  1  0  0  0
 60135  1  0  0  0
 60136  1  0  0  0
 60137  1  0  0  0
 61138  1  0  0  0
 61139  1  0  0  0
 61140  1  0  0  0
 62141  1  0  0  0
 62142  1  0  0  0
 62143  1  0  0  0
 63 65  1  0  0  0
 63144  1  0  0  0
 63145  1  0  0  0
 63146  1  0  0  0
 64147  1  0  0  0
 65148  1  0  0  0
 68 80  1  0  0  0
 71 72  2  0  0  0
 71 73  1  0  0  0
 71149  1  0  0  0
 72 75  1  0  0  0
 72150  1  0  0  0
 73 76  2  0  0  0
 73 77  1  0  0  0
 74 75  2  0  0  0
 74 76  1  0  0  0
 74 83  1  0  0  0
 75 87  1  0  0  0
 76 88  1  0  0  0
 77 84  1  0  0  0
 77 85  2  0  0  0
 78 80  1  0  0  0
 78 81  1  0  0  0
 78 86  2  0  0  0
 79151  1  0  0  0
 79152  1  0  0  0
 79153  1  0  0  0
 79 82  1  0  0  0
 80154  1  0  0  0
 80155  1  0  0  0
 81 82  1  0  0  0
 81 84  1  0  0  0
 81156  1  0  0  0
 82 89  1  0  0  0
 82157  1  0  0  0
 83158  1  0  0  0
 84159  1  0  0  0
M  ISO  4   1 100  68 101  80 101  83 100
M  END
> <chiral flag>
0

> <version>
0

> <s_m_source_file>
/data/baiqing/PycharmProjects/Reinvent-master-3.2/result/LINK_invent/BTK/process_docking_weight1_custom_product_contain_oxygen_bond_distance_aromatic_linkinvent_7_9_3/rearranged_h_0175.sdf

> <i_m_source_file_index>
8

> <r_mmod_Potential_Energy-OPLS-2005>
-112.753311157227

> <r_mmod_Stretch_Energy-OPLS-2005>
55.7741241455078

> <r_mmod_Bend_Energy-OPLS-2005>
109.066246032715

> <r_mmod_Torsional_Energy-OPLS-2005>
290.523742675781

> <r_mmod_Improper_Torsional_Energy-OPLS-2005>
9.4927806854248

> <r_mmod_Van_der_Waal_Energy-OPLS-2005>
150.308746337891

> <r_mmod_Electrostatic_Energy-OPLS-2005>
-505.468383789062

> <r_mmod_Solvation_Energy-OPLS-2005>
-249.523452758789

> <b_mmod_Minimization_Converged-OPLS-2005>
0

> <r_mmod_RMS_Derivative-OPLS-2005>
3.77113437652588

$$$$
9
                    3D
 Structure written by MMmdl.
156164  0  0  1  0            999 V2000
  -30.7393  -14.3968   20.6405 C   0  0  0  0  0  0
  -30.4157  -12.2891   19.3990 C   0  0  0  0  0  0
  -29.4847  -12.5213   18.1922 C   0  0  0  0  0  0
  -28.0065  -12.3846   18.6056 C   0  0  0  0  0  0
  -27.6642  -13.2043   19.8785 C   0  0  2  0  0  0
  -28.7034  -12.9461   20.9922 C   0  0  0  0  0  0
  -25.2597  -13.8164   20.5654 C   0  0  0  0  0  0
  -24.1841  -13.0446   20.9154 C   0  0  0  0  0  0
  -24.6394  -11.6909   20.8728 C   0  0  0  0  0  0
  -23.9056  -10.4299   21.0409 C   0  0  0  0  0  0
  -24.3609   -9.4210   21.9183 C   0  0  0  0  0  0
  -23.6280   -8.2248   22.0759 C   0  0  0  0  0  0
  -22.4260   -8.0291   21.3543 C   0  0  0  0  0  0
  -21.9898   -9.0274   20.4650 C   0  0  0  0  0  0
  -22.7230  -10.2151   20.3059 C   0  0  0  0  0  0
  -21.6853   -6.0734   22.5273 C   0  0  0  0  0  0
  -21.4017   -6.5638   23.8207 C   0  0  0  0  0  0
  -21.3651   -5.6799   24.9166 C   0  0  0  0  0  0
  -21.6041   -4.3062   24.7220 C   0  0  0  0  0  0
  -21.8820   -3.8143   23.4346 C   0  0  0  0  0  0
  -21.9188   -4.6957   22.3405 C   0  0  0  0  0  0
  -22.7866  -13.5248   21.1817 C   0  0  0  0  0  0
  -22.1660   -4.2137   21.0979 F   0  0  0  0  0  0
  -21.5617   -3.4550   25.7736 F   0  0  0  0  0  0
  -30.0402  -13.2481   20.4470 N   0  0  0  0  0  0
  -26.3029  -12.9329   20.3366 N   0  0  0  0  0  0
  -25.9319  -11.6483   20.5754 N   0  0  0  0  0  0
  -22.0507  -12.8260   22.0386 N   0  0  0  0  0  0
  -25.4348  -15.1878   20.4059 N   0  0  0  0  0  0
  -31.8139  -14.6395   20.0802 O   0  0  0  0  0  0
  -21.6638   -6.8877   21.4234 O   0  0  0  0  0  0
  -22.3552  -14.5559   20.6667 O   0  0  0  0  0  0
  -24.6141  -31.8700   23.2139 C   0  0  0  0  0  0
  -25.9040  -32.4837   23.8421 C   0  0  1  0  0  0
  -27.2246  -27.4524   20.0768 C   0  0  0  0  0  0
  -25.5904  -33.8637   24.2347 N   0  0  0  0  0  0
  -23.3995  -30.4980   21.5548 C   0  0  2  0  0  0
  -24.8392  -28.9704   20.1140 C   0  0  0  0  0  0
  -22.7403  -29.4674   22.4992 C   0  0  0  0  0  0
  -18.0280  -28.1358   22.8497 C   0  0  0  0  0  0
  -24.1473  -36.7323   23.2613 C   0  0  0  0  0  0
  -25.9277  -30.8406   21.3628 C   0  0  0  0  0  0
  -26.0009  -29.4773   20.7088 C   0  0  0  0  0  0
  -27.1954  -28.7239   20.6902 C   0  0  0  0  0  0
  -26.0397  -26.9611   19.4752 C   0  0  0  0  0  0
  -24.8516  -27.7092   19.4989 C   0  0  0  0  0  0
  -23.6048  -29.8387   20.1659 C   0  0  0  0  0  0
  -25.4076  -36.3119   24.0347 C   0  0  1  0  0  0
  -20.5868  -28.3647   23.1310 C   0  0  2  0  0  0
  -20.6762  -26.9387   22.5401 C   0  0  0  0  0  0
  -19.5739  -26.6376   21.5200 C   0  0  0  0  0  0
  -18.1928  -26.7903   22.1633 C   0  0  0  0  0  0
  -19.1532  -28.8821   23.2905 C   0  0  0  0  0  0
  -18.9456  -30.1424   23.8918 C   0  0  0  0  0  0
  -17.6462  -30.6564   24.0569 C   0  0  0  0  0  0
  -25.9032  -34.9490   23.5145 C   0  0  0  0  0  0
  -16.5352  -29.9077   23.6309 C   0  0  0  0  0  0
  -16.7272  -28.6488   23.0338 C   0  0  0  0  0  0
  -26.4463  -31.6607   25.0738 C   0  0  0  0  0  0
  -25.3737  -31.3715   26.1493 C   0  0  0  0  0  0
  -27.0278  -30.3058   24.6080 C   0  0  0  0  0  0
  -27.6055  -32.4296   25.7493 C   0  0  0  0  0  0
  -27.5620  -37.1733   24.8402 C   0  0  0  0  0  0
  -21.4135  -29.3033   22.3726 N   0  0  0  0  0  0
  -26.4231  -37.3840   23.9503 N   0  0  0  0  0  0
  -24.6660  -31.0823   22.1029 N   0  0  0  0  0  0
  -23.4184  -28.8201   23.3016 O   0  0  0  0  0  0
  -28.4046  -26.7371   20.0862 O   0  0  0  0  0  0
  -26.5591  -34.8941   22.4703 O   0  0  0  0  0  0
  -23.5336  -32.1435   23.7547 O   0  0  0  0  0  0
  -30.5944  -17.7180   21.4135 C   0  0  0  0  0  0
  -32.2576  -17.3750   23.6703 C   0  0  0  0  0  0
  -31.2441  -18.8388   21.9917 C   0  0  0  0  0  0
  -30.7880  -16.4324   21.9691 C   0  0  0  0  0  0
  -32.0766  -18.6533   23.1144 C   0  0  0  0  0  0
  -31.6096  -16.2646   23.1032 C   0  0  0  0  0  0
  -30.5894  -22.2612   20.5207 C   0  0  0  0  0  0
  -30.3597  -20.7285   20.5849 C   0  0  0  0  0  0
  -29.4727  -23.0992   19.8941 C   0  0  0  0  0  0
  -29.5918  -24.6129   20.1743 C   0  0  0  0  0  0
  -28.3188  -25.3508   19.7577 C   0  0  0  0  0  0
  -31.1380  -20.1760   21.5255 N   0  0  0  0  0  0
  -30.1376  -15.3039   21.4202 N   0  0  0  0  0  0
  -31.6124  -22.7905   20.9763 O   0  0  0  0  0  0
  -29.5500  -20.1349   19.8639 O   0  0  0  0  0  0
  -32.7039  -19.7226   23.6642 F   0  0  0  0  0  0
  -31.7755  -15.0348   23.6487 F   0  0  0  0  0  0
  -31.4605  -12.3841   19.0971 H   0  0  0  0  0  0
  -30.3076  -11.2705   19.7738 H   0  0  0  0  0  0
  -29.7161  -11.8130   17.3962 H   0  0  0  0  0  0
  -29.6580  -13.5145   17.7742 H   0  0  0  0  0  0
  -27.8055  -11.3270   18.7768 H   0  0  0  0  0  0
  -27.3581  -12.6830   17.7809 H   0  0  0  0  0  0
  -27.7192  -14.2596   19.6076 H   0  0  0  0  0  0
  -28.6707  -11.9004   21.3019 H   0  0  0  0  0  0
  -28.4573  -13.5139   21.8902 H   0  0  0  0  0  0
  -25.2768   -9.5680   22.4744 H   0  0  0  0  0  0
  -23.9976   -7.4652   22.7500 H   0  0  0  0  0  0
  -21.0813   -8.8809   19.8978 H   0  0  0  0  0  0
  -22.3690  -10.9695   19.6166 H   0  0  0  0  0  0
  -21.2028   -7.6155   23.9707 H   0  0  0  0  0  0
  -21.1463   -6.0531   25.9068 H   0  0  0  0  0  0
  -22.0605   -2.7602   23.2860 H   0  0  0  0  0  0
  -22.4120  -11.9916   22.4764 H   0  0  0  0  0  0
  -21.1151  -13.1330   22.2637 H   0  0  0  0  0  0
  -24.6724  -15.8487   20.5135 H   0  0  0  0  0  0
  -26.2928  -15.6212   20.0874 H   0  0  0  0  0  0
  -26.7118  -32.5552   23.1193 H   0  0  0  0  0  0
  -25.0064  -33.9798   25.0500 H   0  0  0  0  0  0
  -22.6885  -31.3158   21.4206 H   0  0  0  0  0  0
  -23.3778  -35.9602   23.3125 H   0  0  0  0  0  0
  -24.3633  -36.9081   22.2066 H   0  0  0  0  0  0
  -23.7133  -37.6451   23.6702 H   0  0  0  0  0  0
  -26.0336  -31.6071   20.5942 H   0  0  0  0  0  0
  -26.8189  -30.8952   21.9760 H   0  0  0  0  0  0
  -28.0932  -29.1117   21.1506 H   0  0  0  0  0  0
  -26.0043  -26.0055   18.9729 H   0  0  0  0  0  0
  -23.9579  -27.3138   19.0346 H   0  0  0  0  0  0
  -23.7185  -30.6182   19.4121 H   0  0  0  0  0  0
  -22.7260  -29.2647   19.8643 H   0  0  0  0  0  0
  -25.1207  -36.1959   25.0826 H   0  0  0  0  0  0
  -20.9975  -28.3201   24.1426 H   0  0  0  0  0  0
  -20.5652  -26.2263   23.3588 H   0  0  0  0  0  0
  -21.6632  -26.7412   22.1200 H   0  0  0  0  0  0
  -19.6898  -25.6294   21.1212 H   0  0  0  0  0  0
  -19.6666  -27.3201   20.6742 H   0  0  0  0  0  0
  -17.4186  -26.6634   21.4050 H   0  0  0  0  0  0
  -18.0356  -26.0039   22.9032 H   0  0  0  0  0  0
  -19.7938  -30.7229   24.2299 H   0  0  0  0  0  0
  -17.5017  -31.6244   24.5174 H   0  0  0  0  0  0
  -15.5355  -30.2991   23.7598 H   0  0  0  0  0  0
  -15.8676  -28.0813   22.7033 H   0  0  0  0  0  0
  -24.5938  -30.7015   25.7854 H   0  0  0  0  0  0
  -24.8893  -32.2869   26.4902 H   0  0  0  0  0  0
  -25.8110  -30.8939   27.0271 H   0  0  0  0  0  0
  -26.2816  -29.6844   24.1114 H   0  0  0  0  0  0
  -27.4046  -29.7265   25.4518 H   0  0  0  0  0  0
  -27.8648  -30.4396   23.9225 H   0  0  0  0  0  0
  -27.2702  -33.3580   26.2120 H   0  0  0  0  0  0
  -28.3846  -32.6866   25.0307 H   0  0  0  0  0  0
  -28.0735  -31.8376   26.5366 H   0  0  0  0  0  0
  -28.2381  -38.0276   24.7857 H   0  0  0  0  0  0
  -28.1365  -36.2865   24.5683 H   0  0  0  0  0  0
  -27.2430  -37.0706   25.8788 H   0  0  0  0  0  0
  -20.9281  -29.8808   21.7002 H   0  0  0  0  0  0
  -26.0104  -38.2850   24.1763 H   0  0  0  0  0  0
  -29.9602  -17.8221   20.5468 H   0  0  0  0  0  0
  -32.8916  -17.2473   24.5330 H   0  0  0  0  0  0
  -28.5264  -22.7266   20.2860 H   0  0  0  0  0  0
  -29.4585  -22.9149   18.8200 H   0  0  0  0  0  0
  -30.4511  -25.0273   19.6472 H   0  0  0  0  0  0
  -29.7664  -24.7831   21.2376 H   0  0  0  0  0  0
  -27.4787  -24.8916   20.2826 H   0  0  0  0  0  0
  -28.1524  -25.2297   18.6859 H   0  0  0  0  0  0
  -31.7266  -20.8510   22.0019 H   0  0  0  0  0  0
  -29.2497  -15.0430   21.8209 H   0  0  0  0  0  0
  1 25  1  0  0  0
  1 30  2  0  0  0
  1 83  1  0  0  0
  2  3  1  0  0  0
  2 25  1  0  0  0
  2 88  1  0  0  0
  2 89  1  0  0  0
  3  4  1  0  0  0
  3 90  1  0  0  0
  3 91  1  0  0  0
  4  5  1  0  0  0
  4 92  1  0  0  0
  4 93  1  0  0  0
  5  6  1  0  0  0
  5 26  1  0  0  0
  5 94  1  0  0  0
  6 25  1  0  0  0
  6 95  1  0  0  0
  6 96  1  0  0  0
  7  8  2  0  0  0
  7 26  1  0  0  0
  7 29  1  0  0  0
  8  9  1  0  0  0
  8 22  1  0  0  0
  9 10  1  0  0  0
  9 27  2  0  0  0
 10 11  2  0  0  0
 10 15  1  0  0  0
 11 12  1  0  0  0
 11 97  1  0  0  0
 12 13  2  0  0  0
 12 98  1  0  0  0
 13 14  1  0  0  0
 13 31  1  0  0  0
 14 15  2  0  0  0
 14 99  1  0  0  0
 15100  1  0  0  0
 16 17  2  0  0  0
 16 21  1  0  0  0
 16 31  1  0  0  0
 17 18  1  0  0  0
 17101  1  0  0  0
 18 19  2  0  0  0
 18102  1  0  0  0
 19 20  1  0  0  0
 19 24  1  0  0  0
 20 21  2  0  0  0
 20103  1  0  0  0
 21 23  1  0  0  0
 22 28  1  0  0  0
 22 32  2  0  0  0
 26 27  1  0  0  0
 28104  1  0  0  0
 28105  1  0  0  0
 29106  1  0  0  0
 29107  1  0  0  0
 33 34  1  0  0  0
 33 66  1  0  0  0
 33 70  2  0  0  0
 34 36  1  0  0  0
 34 59  1  0  0  0
 34108  1  0  0  0
 35 44  2  0  0  0
 35 45  1  0  0  0
 35 68  1  0  0  0
 36 56  1  0  0  0
 36109  1  0  0  0
 37 39  1  0  0  0
 37 47  1  0  0  0
 37 66  1  0  0  0
 37110  1  0  0  0
 38 43  2  0  0  0
 38 46  1  0  0  0
 38 47  1  0  0  0
 39 64  1  0  0  0
 39 67  2  0  0  0
 40 52  1  0  0  0
 40 53  2  0  0  0
 40 58  1  0  0  0
 41111  1  0  0  0
 41112  1  0  0  0
 41113  1  0  0  0
 41 48  1  0  0  0
 42 43  1  0  0  0
 42 66  1  0  0  0
 42114  1  0  0  0
 42115  1  0  0  0
 43 44  1  0  0  0
 44116  1  0  0  0
 45 46  2  0  0  0
 45117  1  0  0  0
 46118  1  0  0  0
 47119  1  0  0  0
 47120  1  0  0  0
 48 56  1  0  0  0
 48 65  1  0  0  0
 48121  1  0  0  0
 49 50  1  0  0  0
 49 53  1  0  0  0
 49 64  1  0  0  0
 49122  1  0  0  0
 50 51  1  0  0  0
 50123  1  0  0  0
 50124  1  0  0  0
 51 52  1  0  0  0
 51125  1  0  0  0
 51126  1  0  0  0
 52127  1  0  0  0
 52128  1  0  0  0
 53 54  1  0  0  0
 54 55  2  0  0  0
 54129  1  0  0  0
 55 57  1  0  0  0
 55130  1  0  0  0
 56 69  2  0  0  0
 57 58  2  0  0  0
 57131  1  0  0  0
 58132  1  0  0  0
 59 60  1  0  0  0
 59 61  1  0  0  0
 59 62  1  0  0  0
 60133  1  0  0  0
 60134  1  0  0  0
 60135  1  0  0  0
 61136  1  0  0  0
 61137  1  0  0  0
 61138  1  0  0  0
 62139  1  0  0  0
 62140  1  0  0  0
 62141  1  0  0  0
 63 65  1  0  0  0
 63142  1  0  0  0
 63143  1  0  0  0
 63144  1  0  0  0
 64145  1  0  0  0
 65146  1  0  0  0
 68 81  1  0  0  0
 71 73  2  0  0  0
 71 74  1  0  0  0
 71147  1  0  0  0
 72 75  2  0  0  0
 72 76  1  0  0  0
 72148  1  0  0  0
 73 75  1  0  0  0
 73 82  1  0  0  0
 74 76  2  0  0  0
 74 83  1  0  0  0
 75 86  1  0  0  0
 76 87  1  0  0  0
 77 78  1  0  0  0
 77 79  1  0  0  0
 77 84  2  0  0  0
 78 82  1  0  0  0
 78 85  2  0  0  0
 79 80  1  0  0  0
 79149  1  0  0  0
 79150  1  0  0  0
 80 81  1  0  0  0
 80151  1  0  0  0
 80152  1  0  0  0
 81153  1  0  0  0
 81154  1  0  0  0
 82155  1  0  0  0
 83156  1  0  0  0
M  ISO  4   1 100  68 101  81 101  83 100
M  END
> <chiral flag>
0

> <version>
0

> <s_m_source_file>
/data/baiqing/PycharmProjects/Reinvent-master-3.2/result/LINK_invent/BTK/process_docking_weight1_custom_product_contain_oxygen_bond_distance_aromatic_linkinvent_7_9_3/rearranged_h_0175.sdf

> <i_m_source_file_index>
9

> <r_mmod_Potential_Energy-OPLS-2005>
-130.508514404297

> <r_mmod_Stretch_Energy-OPLS-2005>
33.1723556518555

> <r_mmod_Bend_Energy-OPLS-2005>
100.771629333496

> <r_mmod_Torsional_Energy-OPLS-2005>
234.786117553711

> <r_mmod_Improper_Torsional_Energy-OPLS-2005>
2.95235347747803

> <r_mmod_Van_der_Waal_Energy-OPLS-2005>
167.063705444336

> <r_mmod_Electrostatic_Energy-OPLS-2005>
-455.848846435547

> <r_mmod_Solvation_Energy-OPLS-2005>
-222.254272460938

> <b_mmod_Minimization_Converged-OPLS-2005>
0

> <r_mmod_RMS_Derivative-OPLS-2005>
1.93962824344635

$$$$
10
                    3D
 Structure written by MMmdl.
156164  0  0  1  0            999 V2000
  -30.6174  -14.6463   20.5097 C   0  0  0  0  0  0
  -30.4420  -12.3965   19.4549 C   0  0  0  0  0  0
  -29.5102  -12.5104   18.2268 C   0  0  0  0  0  0
  -28.0326  -12.3470   18.6368 C   0  0  0  0  0  0
  -27.6553  -13.2153   19.8661 C   0  0  2  0  0  0
  -28.6994  -13.0631   20.9959 C   0  0  0  0  0  0
  -25.2569  -13.8167   20.5684 C   0  0  0  0  0  0
  -24.1834  -13.0437   20.9194 C   0  0  0  0  0  0
  -24.6399  -11.6907   20.8740 C   0  0  0  0  0  0
  -23.9065  -10.4292   21.0406 C   0  0  0  0  0  0
  -24.3616   -9.4207   21.9183 C   0  0  0  0  0  0
  -23.6292   -8.2243   22.0754 C   0  0  0  0  0  0
  -22.4273   -8.0282   21.3544 C   0  0  0  0  0  0
  -21.9909   -9.0256   20.4646 C   0  0  0  0  0  0
  -22.7238  -10.2135   20.3056 C   0  0  0  0  0  0
  -21.6852   -6.0736   22.5280 C   0  0  0  0  0  0
  -21.4013   -6.5640   23.8214 C   0  0  0  0  0  0
  -21.3659   -5.6792   24.9176 C   0  0  0  0  0  0
  -21.6044   -4.3055   24.7226 C   0  0  0  0  0  0
  -21.8819   -3.8147   23.4346 C   0  0  0  0  0  0
  -21.9193   -4.6964   22.3403 C   0  0  0  0  0  0
  -22.7857  -13.5234   21.1854 C   0  0  0  0  0  0
  -22.1661   -4.2150   21.0980 F   0  0  0  0  0  0
  -21.5629   -3.4538   25.7739 F   0  0  0  0  0  0
  -30.0168  -13.4135   20.4384 N   0  0  0  0  0  0
  -26.2998  -12.9346   20.3323 N   0  0  0  0  0  0
  -25.9328  -11.6503   20.5758 N   0  0  0  0  0  0
  -22.0494  -12.8228   22.0409 N   0  0  0  0  0  0
  -25.4284  -15.1889   20.4090 N   0  0  0  0  0  0
  -31.7733  -14.8110   20.1030 O   0  0  0  0  0  0
  -21.6638   -6.8878   21.4242 O   0  0  0  0  0  0
  -22.3546  -14.5541   20.6703 O   0  0  0  0  0  0
  -24.6249  -31.8610   23.2041 C   0  0  0  0  0  0
  -25.9101  -32.4788   23.8367 C   0  0  1  0  0  0
  -27.2241  -27.3253   20.1281 C   0  0  0  0  0  0
  -25.5920  -33.8588   24.2294 N   0  0  0  0  0  0
  -23.4198  -30.4839   21.5458 C   0  0  2  0  0  0
  -24.8708  -28.9411   20.1119 C   0  0  0  0  0  0
  -22.7472  -29.4626   22.4937 C   0  0  0  0  0  0
  -18.0287  -28.1385   22.8490 C   0  0  0  0  0  0
  -24.1486  -36.7296   23.2639 C   0  0  0  0  0  0
  -25.9604  -30.7925   21.3778 C   0  0  0  0  0  0
  -26.0373  -29.4186   20.7253 C   0  0  0  0  0  0
  -27.2199  -28.6200   20.7305 C   0  0  0  0  0  0
  -26.0472  -26.9115   19.4683 C   0  0  0  0  0  0
  -24.8762  -27.6907   19.4751 C   0  0  0  0  0  0
  -23.6368  -29.8188   20.1612 C   0  0  0  0  0  0
  -25.4113  -36.3091   24.0332 C   0  0  1  0  0  0
  -20.5887  -28.3690   23.1284 C   0  0  2  0  0  0
  -20.6774  -26.9414   22.5411 C   0  0  0  0  0  0
  -19.5751  -26.6387   21.5212 C   0  0  0  0  0  0
  -18.1933  -26.7929   22.1627 C   0  0  0  0  0  0
  -19.1539  -28.8855   23.2883 C   0  0  0  0  0  0
  -18.9461  -30.1457   23.8901 C   0  0  0  0  0  0
  -17.6461  -30.6588   24.0566 C   0  0  0  0  0  0
  -25.9047  -34.9458   23.5114 C   0  0  0  0  0  0
  -16.5353  -29.9086   23.6330 C   0  0  0  0  0  0
  -16.7274  -28.6503   23.0355 C   0  0  0  0  0  0
  -26.4492  -31.6589   25.0728 C   0  0  0  0  0  0
  -25.3730  -31.3717   26.1458 C   0  0  0  0  0  0
  -27.0333  -30.3013   24.6171 C   0  0  0  0  0  0
  -27.6054  -32.4319   25.7498 C   0  0  0  0  0  0
  -27.5580  -37.1806   24.8468 C   0  0  0  0  0  0
  -21.4187  -29.3043   22.3677 N   0  0  0  0  0  0
  -26.4294  -37.3783   23.9408 N   0  0  0  0  0  0
  -24.6868  -31.0620   22.0996 N   0  0  0  0  0  0
  -23.4200  -28.8162   23.3012 O   0  0  0  0  0  0
  -28.3103  -26.4404   20.1280 O   0  0  0  0  0  0
  -26.5613  -34.8920   22.4678 O   0  0  0  0  0  0
  -23.5412  -32.1406   23.7367 O   0  0  0  0  0  0
  -28.5186  -19.2105   21.1126 C   0  0  0  0  0  0
  -28.6832  -17.8081   21.2727 C   0  0  0  0  0  0
  -29.4900  -19.9868   20.4333 C   0  0  0  0  0  0
  -29.8114  -17.1226   20.7587 C   0  0  0  0  0  0
  -30.5988  -19.2206   19.9637 C   0  0  0  0  0  0
  -28.9093  -23.9688   20.2395 C   0  0  0  0  0  0
  -27.8437  -22.2815   21.8979 C   0  0  0  0  0  0
  -30.3069  -22.6905   21.9454 C   0  0  0  0  0  0
  -29.0805  -22.5633   21.0186 C   0  0  0  0  0  0
  -28.2435  -25.2698   20.9049 C   0  0  0  0  0  0
  -30.7545  -17.8667   20.1208 N   0  0  0  0  0  0
  -29.3518  -21.3898   20.1053 N   0  0  0  0  0  0
  -29.8109  -15.6702   20.9371 N   0  0  0  0  0  0
  -29.3298  -24.0301   19.0757 O   0  0  0  0  0  0
  -31.5703  -19.8712   19.2787 F   0  0  0  0  0  0
  -28.8382  -25.5184   22.0985 F   0  0  0  0  0  0
  -26.9499  -24.9565   21.1798 F   0  0  0  0  0  0
  -31.4826  -12.5253   19.1518 H   0  0  0  0  0  0
  -30.3817  -11.3993   19.8935 H   0  0  0  0  0  0
  -29.7759  -11.7594   17.4816 H   0  0  0  0  0  0
  -29.6517  -13.4800   17.7465 H   0  0  0  0  0  0
  -27.8688  -11.2933   18.8662 H   0  0  0  0  0  0
  -27.3788  -12.5788   17.7951 H   0  0  0  0  0  0
  -27.6754  -14.2518   19.5287 H   0  0  0  0  0  0
  -28.7121  -12.0373   21.3675 H   0  0  0  0  0  0
  -28.4391  -13.6821   21.8558 H   0  0  0  0  0  0
  -25.2763   -9.5683   22.4756 H   0  0  0  0  0  0
  -24.0003   -7.4633   22.7471 H   0  0  0  0  0  0
  -21.0841   -8.8775   19.8951 H   0  0  0  0  0  0
  -22.3698  -10.9674   19.6164 H   0  0  0  0  0  0
  -21.2004   -7.6147   23.9718 H   0  0  0  0  0  0
  -21.1481   -6.0522   25.9079 H   0  0  0  0  0  0
  -22.0598   -2.7610   23.2847 H   0  0  0  0  0  0
  -22.4107  -11.9888   22.4797 H   0  0  0  0  0  0
  -21.1112  -13.1254   22.2610 H   0  0  0  0  0  0
  -24.6552  -15.8379   20.5068 H   0  0  0  0  0  0
  -26.2645  -15.6254   20.0430 H   0  0  0  0  0  0
  -26.7169  -32.5471   23.1121 H   0  0  0  0  0  0
  -25.0070  -33.9737   25.0440 H   0  0  0  0  0  0
  -22.7133  -31.3041   21.4023 H   0  0  0  0  0  0
  -23.3748  -35.9630   23.3311 H   0  0  0  0  0  0
  -24.3575  -36.8906   22.2051 H   0  0  0  0  0  0
  -23.7240  -37.6501   23.6651 H   0  0  0  0  0  0
  -26.0895  -31.5532   20.6066 H   0  0  0  0  0  0
  -26.8414  -30.8452   22.0054 H   0  0  0  0  0  0
  -28.1142  -28.9787   21.2201 H   0  0  0  0  0  0
  -26.0245  -25.9517   18.9718 H   0  0  0  0  0  0
  -23.9861  -27.3211   18.9853 H   0  0  0  0  0  0
  -23.7545  -30.5951   19.4043 H   0  0  0  0  0  0
  -22.7581  -29.2461   19.8589 H   0  0  0  0  0  0
  -25.1293  -36.1951   25.0825 H   0  0  0  0  0  0
  -20.9984  -28.3263   24.1403 H   0  0  0  0  0  0
  -20.5673  -26.2300   23.3610 H   0  0  0  0  0  0
  -21.6643  -26.7441   22.1206 H   0  0  0  0  0  0
  -19.6911  -25.6299   21.1240 H   0  0  0  0  0  0
  -19.6686  -27.3197   20.6741 H   0  0  0  0  0  0
  -17.4200  -26.6677   21.4031 H   0  0  0  0  0  0
  -18.0336  -26.0067   22.9020 H   0  0  0  0  0  0
  -19.7936  -30.7274   24.2270 H   0  0  0  0  0  0
  -17.5015  -31.6268   24.5167 H   0  0  0  0  0  0
  -15.5354  -30.2993   23.7650 H   0  0  0  0  0  0
  -15.8673  -28.0823   22.7073 H   0  0  0  0  0  0
  -24.5909  -30.7062   25.7786 H   0  0  0  0  0  0
  -24.8914  -32.2878   26.4886 H   0  0  0  0  0  0
  -25.8062  -30.8893   27.0229 H   0  0  0  0  0  0
  -26.2905  -29.6768   24.1194 H   0  0  0  0  0  0
  -27.4033  -29.7266   25.4671 H   0  0  0  0  0  0
  -27.8775  -30.4301   23.9394 H   0  0  0  0  0  0
  -27.2667  -33.3617   26.2080 H   0  0  0  0  0  0
  -28.3862  -32.6885   25.0325 H   0  0  0  0  0  0
  -28.0722  -31.8440   26.5410 H   0  0  0  0  0  0
  -28.2610  -38.0092   24.7507 H   0  0  0  0  0  0
  -28.1065  -36.2625   24.6308 H   0  0  0  0  0  0
  -27.2295  -37.1474   25.8871 H   0  0  0  0  0  0
  -20.9362  -29.8768   21.6892 H   0  0  0  0  0  0
  -26.0180  -38.2861   24.1400 H   0  0  0  0  0  0
  -27.6034  -19.6552   21.4678 H   0  0  0  0  0  0
  -27.8995  -17.2608   21.7782 H   0  0  0  0  0  0
  -27.6070  -23.1178   22.5550 H   0  0  0  0  0  0
  -28.0117  -21.4489   22.5786 H   0  0  0  0  0  0
  -26.9575  -22.0684   21.2989 H   0  0  0  0  0  0
  -30.1822  -23.4844   22.6823 H   0  0  0  0  0  0
  -31.2152  -22.9112   21.3827 H   0  0  0  0  0  0
  -30.4871  -21.7718   22.5047 H   0  0  0  0  0  0
  -29.9760  -21.6727   19.3512 H   0  0  0  0  0  0
  -28.9557  -15.3187   21.3347 H   0  0  0  0  0  0
  1 25  1  0  0  0
  1 30  2  0  0  0
  1 83  1  0  0  0
  2  3  1  0  0  0
  2 25  1  0  0  0
  2 88  1  0  0  0
  2 89  1  0  0  0
  3  4  1  0  0  0
  3 90  1  0  0  0
  3 91  1  0  0  0
  4  5  1  0  0  0
  4 92  1  0  0  0
  4 93  1  0  0  0
  5  6  1  0  0  0
  5 26  1  0  0  0
  5 94  1  0  0  0
  6 25  1  0  0  0
  6 95  1  0  0  0
  6 96  1  0  0  0
  7  8  2  0  0  0
  7 26  1  0  0  0
  7 29  1  0  0  0
  8  9  1  0  0  0
  8 22  1  0  0  0
  9 10  1  0  0  0
  9 27  2  0  0  0
 10 11  2  0  0  0
 10 15  1  0  0  0
 11 12  1  0  0  0
 11 97  1  0  0  0
 12 13  2  0  0  0
 12 98  1  0  0  0
 13 14  1  0  0  0
 13 31  1  0  0  0
 14 15  2  0  0  0
 14 99  1  0  0  0
 15100  1  0  0  0
 16 17  2  0  0  0
 16 21  1  0  0  0
 16 31  1  0  0  0
 17 18  1  0  0  0
 17101  1  0  0  0
 18 19  2  0  0  0
 18102  1  0  0  0
 19 20  1  0  0  0
 19 24  1  0  0  0
 20 21  2  0  0  0
 20103  1  0  0  0
 21 23  1  0  0  0
 22 28  1  0  0  0
 22 32  2  0  0  0
 26 27  1  0  0  0
 28104  1  0  0  0
 28105  1  0  0  0
 29106  1  0  0  0
 29107  1  0  0  0
 33 34  1  0  0  0
 33 66  1  0  0  0
 33 70  2  0  0  0
 34 36  1  0  0  0
 34 59  1  0  0  0
 34108  1  0  0  0
 35 44  2  0  0  0
 35 45  1  0  0  0
 35 68  1  0  0  0
 36 56  1  0  0  0
 36109  1  0  0  0
 37 39  1  0  0  0
 37 47  1  0  0  0
 37 66  1  0  0  0
 37110  1  0  0  0
 38 43  2  0  0  0
 38 46  1  0  0  0
 38 47  1  0  0  0
 39 64  1  0  0  0
 39 67  2  0  0  0
 40 52  1  0  0  0
 40 53  2  0  0  0
 40 58  1  0  0  0
 41111  1  0  0  0
 41112  1  0  0  0
 41113  1  0  0  0
 41 48  1  0  0  0
 42 43  1  0  0  0
 42 66  1  0  0  0
 42114  1  0  0  0
 42115  1  0  0  0
 43 44  1  0  0  0
 44116  1  0  0  0
 45 46  2  0  0  0
 45117  1  0  0  0
 46118  1  0  0  0
 47119  1  0  0  0
 47120  1  0  0  0
 48 56  1  0  0  0
 48 65  1  0  0  0
 48121  1  0  0  0
 49 50  1  0  0  0
 49 53  1  0  0  0
 49 64  1  0  0  0
 49122  1  0  0  0
 50 51  1  0  0  0
 50123  1  0  0  0
 50124  1  0  0  0
 51 52  1  0  0  0
 51125  1  0  0  0
 51126  1  0  0  0
 52127  1  0  0  0
 52128  1  0  0  0
 53 54  1  0  0  0
 54 55  2  0  0  0
 54129  1  0  0  0
 55 57  1  0  0  0
 55130  1  0  0  0
 56 69  2  0  0  0
 57 58  2  0  0  0
 57131  1  0  0  0
 58132  1  0  0  0
 59 60  1  0  0  0
 59 61  1  0  0  0
 59 62  1  0  0  0
 60133  1  0  0  0
 60134  1  0  0  0
 60135  1  0  0  0
 61136  1  0  0  0
 61137  1  0  0  0
 61138  1  0  0  0
 62139  1  0  0  0
 62140  1  0  0  0
 62141  1  0  0  0
 63 65  1  0  0  0
 63142  1  0  0  0
 63143  1  0  0  0
 63144  1  0  0  0
 64145  1  0  0  0
 65146  1  0  0  0
 68 80  1  0  0  0
 71 72  2  0  0  0
 71 73  1  0  0  0
 71147  1  0  0  0
 72 74  1  0  0  0
 72148  1  0  0  0
 73 75  2  0  0  0
 73 82  1  0  0  0
 74 81  2  0  0  0
 74 83  1  0  0  0
 75 81  1  0  0  0
 75 85  1  0  0  0
 76 79  1  0  0  0
 76 80  1  0  0  0
 76 84  2  0  0  0
 77149  1  0  0  0
 77150  1  0  0  0
 77151  1  0  0  0
 77 79  1  0  0  0
 78 79  1  0  0  0
 78152  1  0  0  0
 78153  1  0  0  0
 78154  1  0  0  0
 79 82  1  0  0  0
 80 86  1  0  0  0
 80 87  1  0  0  0
 82155  1  0  0  0
 83156  1  0  0  0
M  ISO  4   1 100  68 101  80 101  83 100
M  END
> <chiral flag>
0

> <version>
0

> <s_m_source_file>
/data/baiqing/PycharmProjects/Reinvent-master-3.2/result/LINK_invent/BTK/process_docking_weight1_custom_product_contain_oxygen_bond_distance_aromatic_linkinvent_7_9_3/rearranged_h_0175.sdf

> <i_m_source_file_index>
10

> <r_mmod_Potential_Energy-OPLS-2005>
190.893768310547

> <r_mmod_Stretch_Energy-OPLS-2005>
92.1427688598633

> <r_mmod_Bend_Energy-OPLS-2005>
160.663635253906

> <r_mmod_Torsional_Energy-OPLS-2005>
233.971603393555

> <r_mmod_Improper_Torsional_Energy-OPLS-2005>
6.93880939483643

> <r_mmod_Van_der_Waal_Energy-OPLS-2005>
151.85319519043

> <r_mmod_Electrostatic_Energy-OPLS-2005>
-269.607269287109

> <r_mmod_Solvation_Energy-OPLS-2005>
-234.378677368164

> <b_mmod_Minimization_Converged-OPLS-2005>
0

> <r_mmod_RMS_Derivative-OPLS-2005>
0.361051619052887

$$$$
11
                    3D
 Structure written by MMmdl.
155163  0  0  1  0            999 V2000
  -30.6032  -14.8073   20.4463 C   0  0  0  0  0  0
  -30.4340  -12.4984   19.4706 C   0  0  0  0  0  0
  -29.5098  -12.5027   18.2337 C   0  0  0  0  0  0
  -28.0383  -12.3163   18.6526 C   0  0  0  0  0  0
  -27.6325  -13.2333   19.8361 C   0  0  2  0  0  0
  -28.6804  -13.2155   20.9694 C   0  0  0  0  0  0
  -25.2486  -13.8199   20.5683 C   0  0  0  0  0  0
  -24.1796  -13.0444   20.9247 C   0  0  0  0  0  0
  -24.6388  -11.6911   20.8764 C   0  0  0  0  0  0
  -23.9078  -10.4281   21.0416 C   0  0  0  0  0  0
  -24.3639   -9.4201   21.9189 C   0  0  0  0  0  0
  -23.6306   -8.2242   22.0759 C   0  0  0  0  0  0
  -22.4289   -8.0280   21.3547 C   0  0  0  0  0  0
  -21.9926   -9.0252   20.4653 C   0  0  0  0  0  0
  -22.7252  -10.2126   20.3064 C   0  0  0  0  0  0
  -21.6851   -6.0735   22.5270 C   0  0  0  0  0  0
  -21.4008   -6.5643   23.8200 C   0  0  0  0  0  0
  -21.3663   -5.6798   24.9161 C   0  0  0  0  0  0
  -21.6048   -4.3057   24.7224 C   0  0  0  0  0  0
  -21.8826   -3.8141   23.4345 C   0  0  0  0  0  0
  -21.9204   -4.6957   22.3399 C   0  0  0  0  0  0
  -22.7823  -13.5226   21.1896 C   0  0  0  0  0  0
  -22.1677   -4.2138   21.0976 F   0  0  0  0  0  0
  -21.5631   -3.4550   25.7743 F   0  0  0  0  0  0
  -29.9698  -13.5808   20.3717 N   0  0  0  0  0  0
  -26.2889  -12.9399   20.3217 N   0  0  0  0  0  0
  -25.9306  -11.6540   20.5734 N   0  0  0  0  0  0
  -22.0463  -12.8217   22.0443 N   0  0  0  0  0  0
  -25.4150  -15.1920   20.4011 N   0  0  0  0  0  0
  -31.8161  -14.8483   20.2180 O   0  0  0  0  0  0
  -21.6650   -6.8875   21.4232 O   0  0  0  0  0  0
  -22.3512  -14.5532   20.6733 O   0  0  0  0  0  0
  -24.6342  -31.8522   23.1952 C   0  0  0  0  0  0
  -25.9145  -32.4739   23.8316 C   0  0  1  0  0  0
  -27.2240  -27.2352   20.1444 C   0  0  0  0  0  0
  -25.5934  -33.8542   24.2242 N   0  0  0  0  0  0
  -23.4332  -30.4712   21.5396 C   0  0  2  0  0  0
  -24.8813  -28.9042   20.1214 C   0  0  0  0  0  0
  -22.7518  -29.4578   22.4913 C   0  0  0  0  0  0
  -18.0293  -28.1382   22.8483 C   0  0  0  0  0  0
  -24.1488  -36.7261   23.2640 C   0  0  0  0  0  0
  -25.9802  -30.7577   21.3764 C   0  0  0  0  0  0
  -26.0548  -29.3735   20.7269 C   0  0  0  0  0  0
  -27.2337  -28.5542   20.7195 C   0  0  0  0  0  0
  -26.0269  -26.8293   19.5216 C   0  0  0  0  0  0
  -24.8726  -27.6408   19.5072 C   0  0  0  0  0  0
  -23.6546  -29.7977   20.1597 C   0  0  0  0  0  0
  -25.4119  -36.3052   24.0324 C   0  0  1  0  0  0
  -20.5900  -28.3700   23.1264 C   0  0  2  0  0  0
  -20.6775  -26.9418   22.5411 C   0  0  0  0  0  0
  -19.5754  -26.6387   21.5209 C   0  0  0  0  0  0
  -18.1932  -26.7925   22.1620 C   0  0  0  0  0  0
  -19.1545  -28.8860   23.2867 C   0  0  0  0  0  0
  -18.9469  -30.1459   23.8896 C   0  0  0  0  0  0
  -17.6466  -30.6588   24.0554 C   0  0  0  0  0  0
  -25.9063  -34.9427   23.5088 C   0  0  0  0  0  0
  -16.5360  -29.9081   23.6325 C   0  0  0  0  0  0
  -16.7280  -28.6492   23.0357 C   0  0  0  0  0  0
  -26.4515  -31.6570   25.0712 C   0  0  0  0  0  0
  -25.3725  -31.3740   26.1425 C   0  0  0  0  0  0
  -27.0365  -30.2984   24.6204 C   0  0  0  0  0  0
  -27.6069  -32.4313   25.7493 C   0  0  0  0  0  0
  -27.5575  -37.1786   24.8472 C   0  0  0  0  0  0
  -21.4225  -29.3038   22.3655 N   0  0  0  0  0  0
  -26.4287  -37.3760   23.9414 N   0  0  0  0  0  0
  -24.7018  -31.0463   22.0936 N   0  0  0  0  0  0
  -23.4198  -28.8138   23.3041 O   0  0  0  0  0  0
  -28.3271  -26.3484   20.0891 O   0  0  0  0  0  0
  -26.5656  -34.8906   22.4669 O   0  0  0  0  0  0
  -23.5482  -32.1359   23.7228 O   0  0  0  0  0  0
  -27.5759  -20.6608   19.3609 C   0  0  0  0  0  0
  -27.2730  -19.3307   19.0044 C   0  0  0  0  0  0
  -28.0760  -18.2562   19.4455 C   0  0  0  0  0  0
  -29.2204  -18.5035   20.2384 C   0  0  0  0  0  0
  -28.6910  -20.9846   20.1693 C   0  0  0  0  0  0
  -30.1938  -17.3174   20.5919 C   0  0  0  0  0  0
  -28.4459  -23.6294   20.0020 C   0  0  0  0  0  0
  -29.4290  -25.1824   21.8760 C   0  0  0  0  0  0
  -28.3146  -25.0261   20.8280 C   0  0  1  0  0  0
  -29.4622  -19.8620   20.5619 N   0  3  0  0  0  0
  -26.1665  -19.0671   18.1908 N   0  0  0  0  0  0
  -28.8776  -22.4225   20.5860 N   0  0  0  0  0  0
  -29.8240  -15.9684   20.5107 N   0  0  0  0  0  0
  -31.3237  -17.6533   20.9677 O   0  0  0  0  0  0
  -28.1299  -23.6760   18.8050 O   0  0  0  0  0  0
  -27.7298  -16.9901   19.0928 F   0  0  0  0  0  0
  -31.4709  -12.6348   19.1580 H   0  0  0  0  0  0
  -30.3977  -11.5340   19.9798 H   0  0  0  0  0  0
  -29.8042  -11.7127   17.5404 H   0  0  0  0  0  0
  -29.6225  -13.4437   17.6929 H   0  0  0  0  0  0
  -27.9094  -11.2702   18.9334 H   0  0  0  0  0  0
  -27.3791  -12.4829   17.7990 H   0  0  0  0  0  0
  -27.6116  -14.2431   19.4287 H   0  0  0  0  0  0
  -28.7347  -12.2324   21.4390 H   0  0  0  0  0  0
  -28.4055  -13.9193   21.7571 H   0  0  0  0  0  0
  -25.2796   -9.5678   22.4750 H   0  0  0  0  0  0
  -24.0008   -7.4641   22.7492 H   0  0  0  0  0  0
  -21.0856   -8.8778   19.8970 H   0  0  0  0  0  0
  -22.3718  -10.9669   19.6174 H   0  0  0  0  0  0
  -21.1986   -7.6148   23.9700 H   0  0  0  0  0  0
  -21.1487   -6.0522   25.9061 H   0  0  0  0  0  0
  -22.0611   -2.7607   23.2844 H   0  0  0  0  0  0
  -22.4102  -11.9875   22.4805 H   0  0  0  0  0  0
  -21.1076  -13.1199   22.2646 H   0  0  0  0  0  0
  -24.6364  -15.8326   20.5051 H   0  0  0  0  0  0
  -26.2189  -15.6164   19.9571 H   0  0  0  0  0  0
  -26.7205  -32.5382   23.1050 H   0  0  0  0  0  0
  -25.0059  -33.9684   25.0371 H   0  0  0  0  0  0
  -22.7307  -31.2933   21.3875 H   0  0  0  0  0  0
  -23.3753  -35.9591   23.3310 H   0  0  0  0  0  0
  -24.3561  -36.8878   22.2051 H   0  0  0  0  0  0
  -23.7239  -37.6460   23.6664 H   0  0  0  0  0  0
  -26.1188  -31.5134   20.6013 H   0  0  0  0  0  0
  -26.8589  -30.8129   22.0071 H   0  0  0  0  0  0
  -28.1407  -28.9198   21.1819 H   0  0  0  0  0  0
  -25.9839  -25.8618   19.0399 H   0  0  0  0  0  0
  -23.9742  -27.2757   19.0267 H   0  0  0  0  0  0
  -23.7844  -30.5699   19.4012 H   0  0  0  0  0  0
  -22.7733  -29.2321   19.8548 H   0  0  0  0  0  0
  -25.1293  -36.1899   25.0816 H   0  0  0  0  0  0
  -20.9982  -28.3278   24.1384 H   0  0  0  0  0  0
  -20.5656  -26.2323   23.3621 H   0  0  0  0  0  0
  -21.6642  -26.7426   22.1218 H   0  0  0  0  0  0
  -19.6925  -25.6296   21.1239 H   0  0  0  0  0  0
  -19.6681  -27.3195   20.6736 H   0  0  0  0  0  0
  -17.4200  -26.6671   21.4021 H   0  0  0  0  0  0
  -18.0336  -26.0071   22.9025 H   0  0  0  0  0  0
  -19.7950  -30.7263   24.2273 H   0  0  0  0  0  0
  -17.5025  -31.6268   24.5154 H   0  0  0  0  0  0
  -15.5359  -30.2979   23.7648 H   0  0  0  0  0  0
  -15.8682  -28.0798   22.7086 H   0  0  0  0  0  0
  -24.5897  -30.7098   25.7743 H   0  0  0  0  0  0
  -24.8925  -32.2921   26.4823 H   0  0  0  0  0  0
  -25.8023  -30.8926   27.0217 H   0  0  0  0  0  0
  -26.2961  -29.6737   24.1196 H   0  0  0  0  0  0
  -27.4016  -29.7240   25.4728 H   0  0  0  0  0  0
  -27.8847  -30.4264   23.9477 H   0  0  0  0  0  0
  -27.2679  -33.3615   26.2072 H   0  0  0  0  0  0
  -28.3889  -32.6874   25.0328 H   0  0  0  0  0  0
  -28.0731  -31.8434   26.5414 H   0  0  0  0  0  0
  -28.2595  -38.0077   24.7493 H   0  0  0  0  0  0
  -28.1066  -36.2603   24.6325 H   0  0  0  0  0  0
  -27.2287  -37.1459   25.8874 H   0  0  0  0  0  0
  -20.9435  -29.8742   21.6824 H   0  0  0  0  0  0
  -26.0157  -38.2830   24.1419 H   0  0  0  0  0  0
  -26.9196  -21.4457   19.0187 H   0  0  0  0  0  0
  -29.4885  -24.3341   22.5566 H   0  0  0  0  0  0
  -29.2557  -26.0685   22.4858 H   0  0  0  0  0  0
  -30.4014  -25.3027   21.3955 H   0  0  0  0  0  0
  -27.3659  -24.9552   21.3621 H   0  0  0  0  0  0
  -30.3028  -20.0267   21.1258 H   0  0  0  0  0  0
  -25.3785  -19.6976   18.2656 H   0  0  0  0  0  0
  -25.8868  -18.0943   18.1570 H   0  0  0  0  0  0
  -29.2904  -22.5415   21.4955 H   0  0  0  0  0  0
  -28.8357  -15.8277   20.3839 H   0  0  0  0  0  0
  1 25  1  0  0  0
  1 30  2  0  0  0
  1 83  1  0  0  0
  2  3  1  0  0  0
  2 25  1  0  0  0
  2 87  1  0  0  0
  2 88  1  0  0  0
  3  4  1  0  0  0
  3 89  1  0  0  0
  3 90  1  0  0  0
  4  5  1  0  0  0
  4 91  1  0  0  0
  4 92  1  0  0  0
  5  6  1  0  0  0
  5 26  1  0  0  0
  5 93  1  0  0  0
  6 25  1  0  0  0
  6 94  1  0  0  0
  6 95  1  0  0  0
  7  8  2  0  0  0
  7 26  1  0  0  0
  7 29  1  0  0  0
  8  9  1  0  0  0
  8 22  1  0  0  0
  9 10  1  0  0  0
  9 27  2  0  0  0
 10 11  2  0  0  0
 10 15  1  0  0  0
 11 12  1  0  0  0
 11 96  1  0  0  0
 12 13  2  0  0  0
 12 97  1  0  0  0
 13 14  1  0  0  0
 13 31  1  0  0  0
 14 15  2  0  0  0
 14 98  1  0  0  0
 15 99  1  0  0  0
 16 17  2  0  0  0
 16 21  1  0  0  0
 16 31  1  0  0  0
 17 18  1  0  0  0
 17100  1  0  0  0
 18 19  2  0  0  0
 18101  1  0  0  0
 19 20  1  0  0  0
 19 24  1  0  0  0
 20 21  2  0  0  0
 20102  1  0  0  0
 21 23  1  0  0  0
 22 28  1  0  0  0
 22 32  2  0  0  0
 26 27  1  0  0  0
 28103  1  0  0  0
 28104  1  0  0  0
 29105  1  0  0  0
 29106  1  0  0  0
 33 34  1  0  0  0
 33 66  1  0  0  0
 33 70  2  0  0  0
 34 36  1  0  0  0
 34 59  1  0  0  0
 34107  1  0  0  0
 35 44  2  0  0  0
 35 45  1  0  0  0
 35 68  1  0  0  0
 36 56  1  0  0  0
 36108  1  0  0  0
 37 39  1  0  0  0
 37 47  1  0  0  0
 37 66  1  0  0  0
 37109  1  0  0  0
 38 43  2  0  0  0
 38 46  1  0  0  0
 38 47  1  0  0  0
 39 64  1  0  0  0
 39 67  2  0  0  0
 40 52  1  0  0  0
 40 53  2  0  0  0
 40 58  1  0  0  0
 41110  1  0  0  0
 41111  1  0  0  0
 41112  1  0  0  0
 41 48  1  0  0  0
 42 43  1  0  0  0
 42 66  1  0  0  0
 42113  1  0  0  0
 42114  1  0  0  0
 43 44  1  0  0  0
 44115  1  0  0  0
 45 46  2  0  0  0
 45116  1  0  0  0
 46117  1  0  0  0
 47118  1  0  0  0
 47119  1  0  0  0
 48 56  1  0  0  0
 48 65  1  0  0  0
 48120  1  0  0  0
 49 50  1  0  0  0
 49 53  1  0  0  0
 49 64  1  0  0  0
 49121  1  0  0  0
 50 51  1  0  0  0
 50122  1  0  0  0
 50123  1  0  0  0
 51 52  1  0  0  0
 51124  1  0  0  0
 51125  1  0  0  0
 52126  1  0  0  0
 52127  1  0  0  0
 53 54  1  0  0  0
 54 55  2  0  0  0
 54128  1  0  0  0
 55 57  1  0  0  0
 55129  1  0  0  0
 56 69  2  0  0  0
 57 58  2  0  0  0
 57130  1  0  0  0
 58131  1  0  0  0
 59 60  1  0  0  0
 59 61  1  0  0  0
 59 62  1  0  0  0
 60132  1  0  0  0
 60133  1  0  0  0
 60134  1  0  0  0
 61135  1  0  0  0
 61136  1  0  0  0
 61137  1  0  0  0
 62138  1  0  0  0
 62139  1  0  0  0
 62140  1  0  0  0
 63 65  1  0  0  0
 63141  1  0  0  0
 63142  1  0  0  0
 63143  1  0  0  0
 64144  1  0  0  0
 65145  1  0  0  0
 68 79  1  0  0  0
 71 72  2  0  0  0
 71 75  1  0  0  0
 71146  1  0  0  0
 72 73  1  0  0  0
 72 81  1  0  0  0
 73 74  2  0  0  0
 73 86  1  0  0  0
 74 76  1  0  0  0
 74 80  1  0  0  0
 75 80  2  0  0  0
 75 82  1  0  0  0
 76 83  1  0  0  0
 76 84  2  0  0  0
 77 79  1  0  0  0
 77 82  1  0  0  0
 77 85  2  0  0  0
 78147  1  0  0  0
 78148  1  0  0  0
 78149  1  0  0  0
 78 79  1  0  0  0
 79150  1  0  0  0
 80151  1  0  0  0
 81152  1  0  0  0
 81153  1  0  0  0
 82154  1  0  0  0
 83155  1  0  0  0
M  CHG  1  80   1
M  ISO  4   1 100  68 101  79 101  83 100
M  END
> <chiral flag>
0

> <version>
0

> <s_m_source_file>
/data/baiqing/PycharmProjects/Reinvent-master-3.2/result/LINK_invent/BTK/process_docking_weight1_custom_product_contain_oxygen_bond_distance_aromatic_linkinvent_7_9_3/rearranged_h_0175.sdf

> <i_m_source_file_index>
11

> <r_mmod_Potential_Energy-OPLS-2005>
11.4798221588135

> <r_mmod_Stretch_Energy-OPLS-2005>
157.17561340332

> <r_mmod_Bend_Energy-OPLS-2005>
179.100051879883

> <r_mmod_Torsional_Energy-OPLS-2005>
280.329772949219

> <r_mmod_Improper_Torsional_Energy-OPLS-2005>
11.5490446090698

> <r_mmod_Van_der_Waal_Energy-OPLS-2005>
133.663360595703

> <r_mmod_Electrostatic_Energy-OPLS-2005>
-350.202484130859

> <r_mmod_Solvation_Energy-OPLS-2005>
-506.917541503906

> <b_mmod_Minimization_Converged-OPLS-2005>
0

> <r_mmod_RMS_Derivative-OPLS-2005>
2.18654131889343

$$$$
12
                    3D
 Structure written by MMmdl.
151159  0  0  1  0            999 V2000
  -30.3890  -15.0793   20.3820 C   0  0  0  0  0  0
  -30.4360  -12.6711   19.5257 C   0  0  0  0  0  0
  -29.5260  -12.5415   18.2810 C   0  0  0  0  0  0
  -28.0629  -12.2938   18.6978 C   0  0  0  0  0  0
  -27.6067  -13.2484   19.8337 C   0  0  2  0  0  0
  -28.6367  -13.2988   20.9758 C   0  0  0  0  0  0
  -25.2360  -13.8151   20.6140 C   0  0  0  0  0  0
  -24.1691  -13.0274   20.9346 C   0  0  0  0  0  0
  -24.6322  -11.6777   20.8677 C   0  0  0  0  0  0
  -23.9057  -10.4123   21.0347 C   0  0  0  0  0  0
  -24.3609   -9.4048   21.9153 C   0  0  0  0  0  0
  -23.6256   -8.2109   22.0745 C   0  0  0  0  0  0
  -22.4231   -8.0183   21.3554 C   0  0  0  0  0  0
  -21.9882   -9.0123   20.4630 C   0  0  0  0  0  0
  -22.7234  -10.1962   20.2996 C   0  0  0  0  0  0
  -21.6806   -6.0687   22.5271 C   0  0  0  0  0  0
  -21.4002   -6.5597   23.8211 C   0  0  0  0  0  0
  -21.3650   -5.6757   24.9193 C   0  0  0  0  0  0
  -21.6047   -4.3005   24.7233 C   0  0  0  0  0  0
  -21.8833   -3.8095   23.4348 C   0  0  0  0  0  0
  -21.9175   -4.6925   22.3399 C   0  0  0  0  0  0
  -22.7668  -13.4931   21.1960 C   0  0  0  0  0  0
  -22.1665   -4.2117   21.0983 F   0  0  0  0  0  0
  -21.5623   -3.4500   25.7748 F   0  0  0  0  0  0
  -29.8989  -13.7679   20.3853 N   0  0  0  0  0  0
  -26.2746  -12.9419   20.3308 N   0  0  0  0  0  0
  -25.9205  -11.6480   20.5523 N   0  0  0  0  0  0
  -22.0346  -12.7921   22.0545 N   0  0  0  0  0  0
  -25.3698  -15.2012   20.5237 N   0  0  0  0  0  0
  -31.5863  -15.2019   20.0839 O   0  0  0  0  0  0
  -21.6576   -6.8818   21.4255 O   0  0  0  0  0  0
  -22.3327  -14.5208   20.6751 O   0  0  0  0  0  0
  -24.6539  -31.8369   23.1809 C   0  0  0  0  0  0
  -25.9270  -32.4692   23.8192 C   0  0  1  0  0  0
  -27.2167  -27.0519   20.1973 C   0  0  0  0  0  0
  -25.5959  -33.8518   24.2127 N   0  0  0  0  0  0
  -23.4679  -30.4582   21.5219 C   0  0  2  0  0  0
  -24.9190  -28.8691   20.1172 C   0  0  0  0  0  0
  -22.7667  -29.4548   22.4763 C   0  0  0  0  0  0
  -18.0358  -28.1546   22.8516 C   0  0  0  0  0  0
  -24.1448  -36.7248   23.2639 C   0  0  0  0  0  0
  -26.0258  -30.6850   21.3956 C   0  0  0  0  0  0
  -26.0938  -29.2813   20.7566 C   0  0  0  0  0  0
  -27.2400  -28.3914   20.7865 C   0  0  0  0  0  0
  -26.0442  -26.7905   19.4593 C   0  0  0  0  0  0
  -24.9080  -27.6328   19.4523 C   0  0  0  0  0  0
  -23.7043  -29.7812   20.1444 C   0  0  0  0  0  0
  -25.4090  -36.3057   24.0334 C   0  0  1  0  0  0
  -20.5977  -28.3877   23.1233 C   0  0  2  0  0  0
  -20.6912  -26.9564   22.5458 C   0  0  0  0  0  0
  -19.5862  -26.6511   21.5305 C   0  0  0  0  0  0
  -18.1992  -26.8113   22.1634 C   0  0  0  0  0  0
  -19.1626  -28.9021   23.2892 C   0  0  0  0  0  0
  -18.9552  -30.1617   23.8933 C   0  0  0  0  0  0
  -17.6571  -30.6724   24.0699 C   0  0  0  0  0  0
  -25.9071  -34.9451   23.5030 C   0  0  0  0  0  0
  -16.5452  -29.9268   23.6423 C   0  0  0  0  0  0
  -16.7346  -28.6699   23.0387 C   0  0  0  0  0  0
  -26.4480  -31.6622   25.0693 C   0  0  0  0  0  0
  -25.3523  -31.3924   26.1275 C   0  0  0  0  0  0
  -27.0333  -30.2997   24.6330 C   0  0  0  0  0  0
  -27.6050  -32.4284   25.7469 C   0  0  0  0  0  0
  -27.5525  -37.1782   24.8488 C   0  0  0  0  0  0
  -21.4351  -29.3120   22.3547 N   0  0  0  0  0  0
  -26.4271  -37.3790   23.9409 N   0  0  0  0  0  0
  -24.7364  -31.0176   22.0872 N   0  0  0  0  0  0
  -23.4245  -28.8092   23.2952 O   0  0  0  0  0  0
  -28.2432  -26.0053   20.2034 O   0  0  0  0  0  0
  -26.5711  -34.8965   22.4633 O   0  0  0  0  0  0
  -23.5621  -32.1243   23.6988 O   0  0  0  0  0  0
  -28.0820  -19.4680   19.4585 C   0  0  0  0  0  0
  -28.2667  -18.0259   19.4238 C   0  0  0  0  0  0
  -28.9748  -20.0400   20.3419 C   0  0  0  0  0  0
  -29.3095  -17.5926   20.2312 C   0  0  0  0  0  0
  -29.1618  -21.5754   20.8213 C   0  0  0  0  0  0
  -28.7339  -23.1263   20.0971 C   0  0  0  0  0  0
  -28.9342  -24.7748   22.1692 C   0  0  0  0  0  0
  -26.6876  -24.1951   21.2166 C   0  0  0  0  0  0
  -28.1483  -24.5372   20.8518 C   0  0  0  0  0  0
  -29.4999  -16.1960   20.6181 N   0  0  0  0  0  0
  -29.7947  -21.6861   21.8777 O   0  0  0  0  0  0
  -28.8910  -23.2111   18.8714 O   0  0  0  0  0  0
  -29.7083  -18.8537   20.8563 O   0  0  0  0  0  0
  -27.4613  -17.1937   18.7161 F   0  0  0  0  0  0
  -31.4604  -12.8673   19.2095 H   0  0  0  0  0  0
  -30.4721  -11.7341   20.0833 H   0  0  0  0  0  0
  -29.8833  -11.7299   17.6463 H   0  0  0  0  0  0
  -29.5814  -13.4492   17.6809 H   0  0  0  0  0  0
  -27.9987  -11.2570   19.0382 H   0  0  0  0  0  0
  -27.4010  -12.3734   17.8359 H   0  0  0  0  0  0
  -27.5437  -14.2420   19.3854 H   0  0  0  0  0  0
  -28.7505  -12.3163   21.4338 H   0  0  0  0  0  0
  -28.2900  -13.9727   21.7594 H   0  0  0  0  0  0
  -25.2773   -9.5455   22.4712 H   0  0  0  0  0  0
  -23.9911   -7.4489   22.7458 H   0  0  0  0  0  0
  -21.0811   -8.8634   19.8954 H   0  0  0  0  0  0
  -22.3747  -10.9477   19.6045 H   0  0  0  0  0  0
  -21.2020   -7.6109   23.9720 H   0  0  0  0  0  0
  -21.1469   -6.0484   25.9089 H   0  0  0  0  0  0
  -22.0630   -2.7573   23.2844 H   0  0  0  0  0  0
  -22.4019  -11.9589   22.4895 H   0  0  0  0  0  0
  -21.0991  -13.0892   22.2906 H   0  0  0  0  0  0
  -24.5041  -15.7197   20.5989 H   0  0  0  0  0  0
  -26.1528  -15.8017   20.2900 H   0  0  0  0  0  0
  -26.7332  -32.5302   23.0927 H   0  0  0  0  0  0
  -25.0115  -33.9631   25.0239 H   0  0  0  0  0  0
  -22.7823  -31.2893   21.3557 H   0  0  0  0  0  0
  -23.3789  -35.9516   23.3353 H   0  0  0  0  0  0
  -24.3541  -36.8808   22.2064 H   0  0  0  0  0  0
  -23.7113  -37.6411   23.6626 H   0  0  0  0  0  0
  -26.1869  -31.4269   20.6105 H   0  0  0  0  0  0
  -26.9004  -30.7471   22.0283 H   0  0  0  0  0  0
  -28.1245  -28.7197   21.3073 H   0  0  0  0  0  0
  -25.9973  -25.8876   18.8710 H   0  0  0  0  0  0
  -24.0291  -27.3273   18.9013 H   0  0  0  0  0  0
  -23.8580  -30.5518   19.3871 H   0  0  0  0  0  0
  -22.8172  -29.2302   19.8255 H   0  0  0  0  0  0
  -25.1287  -36.1894   25.0837 H   0  0  0  0  0  0
  -21.0133  -28.3508   24.1355 H   0  0  0  0  0  0
  -20.5961  -26.2480   23.3693 H   0  0  0  0  0  0
  -21.6752  -26.7688   22.1146 H   0  0  0  0  0  0
  -19.7081  -25.6416   21.1339 H   0  0  0  0  0  0
  -19.6845  -27.3379   20.6892 H   0  0  0  0  0  0
  -17.4348  -26.7018   21.3943 H   0  0  0  0  0  0
  -18.0228  -26.0256   22.8985 H   0  0  0  0  0  0
  -19.8027  -30.7463   24.2239 H   0  0  0  0  0  0
  -17.5159  -31.6376   24.5367 H   0  0  0  0  0  0
  -15.5472  -30.3251   23.7762 H   0  0  0  0  0  0
  -15.8722  -28.1120   22.7018 H   0  0  0  0  0  0
  -24.5938  -30.6985   25.7579 H   0  0  0  0  0  0
  -24.8432  -32.3150   26.4121 H   0  0  0  0  0  0
  -25.7691  -30.9545   27.0355 H   0  0  0  0  0  0
  -26.2972  -29.6734   24.1276 H   0  0  0  0  0  0
  -27.3896  -29.7273   25.4902 H   0  0  0  0  0  0
  -27.8874  -30.4273   23.9682 H   0  0  0  0  0  0
  -27.2912  -33.3947   26.1389 H   0  0  0  0  0  0
  -28.4202  -32.6096   25.0470 H   0  0  0  0  0  0
  -28.0188  -31.8689   26.5859 H   0  0  0  0  0  0
  -28.2590  -38.0027   24.7557 H   0  0  0  0  0  0
  -28.0986  -36.2598   24.6352 H   0  0  0  0  0  0
  -27.2252  -37.1433   25.8885 H   0  0  0  0  0  0
  -20.9594  -29.8753   21.6576 H   0  0  0  0  0  0
  -26.0173  -38.2840   24.1484 H   0  0  0  0  0  0
  -27.3226  -20.0303   18.9201 H   0  0  0  0  0  0
  -28.5248  -25.6232   22.7233 H   0  0  0  0  0  0
  -29.9873  -24.9961   21.9897 H   0  0  0  0  0  0
  -28.8917  -23.9175   22.8456 H   0  0  0  0  0  0
  -26.5866  -23.1470   21.5020 H   0  0  0  0  0  0
  -26.0187  -24.3379   20.3704 H   0  0  0  0  0  0
  -26.3294  -24.7824   22.0624 H   0  0  0  0  0  0
  -28.6152  -15.7972   20.8843 H   0  0  0  0  0  0
  1 25  1  0  0  0
  1 30  2  0  0  0
  1 80  1  0  0  0
  2  3  1  0  0  0
  2 25  1  0  0  0
  2 85  1  0  0  0
  2 86  1  0  0  0
  3  4  1  0  0  0
  3 87  1  0  0  0
  3 88  1  0  0  0
  4  5  1  0  0  0
  4 89  1  0  0  0
  4 90  1  0  0  0
  5  6  1  0  0  0
  5 26  1  0  0  0
  5 91  1  0  0  0
  6 25  1  0  0  0
  6 92  1  0  0  0
  6 93  1  0  0  0
  7  8  2  0  0  0
  7 26  1  0  0  0
  7 29  1  0  0  0
  8  9  1  0  0  0
  8 22  1  0  0  0
  9 10  1  0  0  0
  9 27  2  0  0  0
 10 11  2  0  0  0
 10 15  1  0  0  0
 11 12  1  0  0  0
 11 94  1  0  0  0
 12 13  2  0  0  0
 12 95  1  0  0  0
 13 14  1  0  0  0
 13 31  1  0  0  0
 14 15  2  0  0  0
 14 96  1  0  0  0
 15 97  1  0  0  0
 16 17  2  0  0  0
 16 21  1  0  0  0
 16 31  1  0  0  0
 17 18  1  0  0  0
 17 98  1  0  0  0
 18 19  2  0  0  0
 18 99  1  0  0  0
 19 20  1  0  0  0
 19 24  1  0  0  0
 20 21  2  0  0  0
 20100  1  0  0  0
 21 23  1  0  0  0
 22 28  1  0  0  0
 22 32  2  0  0  0
 26 27  1  0  0  0
 28101  1  0  0  0
 28102  1  0  0  0
 29103  1  0  0  0
 29104  1  0  0  0
 33 34  1  0  0  0
 33 66  1  0  0  0
 33 70  2  0  0  0
 34 36  1  0  0  0
 34 59  1  0  0  0
 34105  1  0  0  0
 35 44  2  0  0  0
 35 45  1  0  0  0
 35 68  1  0  0  0
 36 56  1  0  0  0
 36106  1  0  0  0
 37 39  1  0  0  0
 37 47  1  0  0  0
 37 66  1  0  0  0
 37107  1  0  0  0
 38 43  2  0  0  0
 38 46  1  0  0  0
 38 47  1  0  0  0
 39 64  1  0  0  0
 39 67  2  0  0  0
 40 52  1  0  0  0
 40 53  2  0  0  0
 40 58  1  0  0  0
 41108  1  0  0  0
 41109  1  0  0  0
 41110  1  0  0  0
 41 48  1  0  0  0
 42 43  1  0  0  0
 42 66  1  0  0  0
 42111  1  0  0  0
 42112  1  0  0  0
 43 44  1  0  0  0
 44113  1  0  0  0
 45 46  2  0  0  0
 45114  1  0  0  0
 46115  1  0  0  0
 47116  1  0  0  0
 47117  1  0  0  0
 48 56  1  0  0  0
 48 65  1  0  0  0
 48118  1  0  0  0
 49 50  1  0  0  0
 49 53  1  0  0  0
 49 64  1  0  0  0
 49119  1  0  0  0
 50 51  1  0  0  0
 50120  1  0  0  0
 50121  1  0  0  0
 51 52  1  0  0  0
 51122  1  0  0  0
 51123  1  0  0  0
 52124  1  0  0  0
 52125  1  0  0  0
 53 54  1  0  0  0
 54 55  2  0  0  0
 54126  1  0  0  0
 55 57  1  0  0  0
 55127  1  0  0  0
 56 69  2  0  0  0
 57 58  2  0  0  0
 57128  1  0  0  0
 58129  1  0  0  0
 59 60  1  0  0  0
 59 61  1  0  0  0
 59 62  1  0  0  0
 60130  1  0  0  0
 60131  1  0  0  0
 60132  1  0  0  0
 61133  1  0  0  0
 61134  1  0  0  0
 61135  1  0  0  0
 62136  1  0  0  0
 62137  1  0  0  0
 62138  1  0  0  0
 63 65  1  0  0  0
 63139  1  0  0  0
 63140  1  0  0  0
 63141  1  0  0  0
 64142  1  0  0  0
 65143  1  0  0  0
 68 79  1  0  0  0
 71 72  1  0  0  0
 71 73  2  0  0  0
 71144  1  0  0  0
 72 74  2  0  0  0
 72 84  1  0  0  0
 73 75  1  0  0  0
 73 83  1  0  0  0
 74 80  1  0  0  0
 74 83  1  0  0  0
 75 76  1  0  0  0
 75 81  2  0  0  0
 76 79  1  0  0  0
 76 82  2  0  0  0
 77145  1  0  0  0
 77146  1  0  0  0
 77147  1  0  0  0
 77 79  1  0  0  0
 78 79  1  0  0  0
 78148  1  0  0  0
 78149  1  0  0  0
 78150  1  0  0  0
 80151  1  0  0  0
M  ISO  4   1 100  68 101  79 101  80 100
M  END
> <chiral flag>
0

> <version>
0

> <s_m_source_file>
/data/baiqing/PycharmProjects/Reinvent-master-3.2/result/LINK_invent/BTK/process_docking_weight1_custom_product_contain_oxygen_bond_distance_aromatic_linkinvent_7_9_3/rearranged_h_0175.sdf

> <i_m_source_file_index>
12

> <r_mmod_Potential_Energy-OPLS-2005>
870.868408203125

> <r_mmod_Stretch_Energy-OPLS-2005>
368.730773925781

> <r_mmod_Bend_Energy-OPLS-2005>
330.946136474609

> <r_mmod_Torsional_Energy-OPLS-2005>
281.975616455078

> <r_mmod_Improper_Torsional_Energy-OPLS-2005>
9.38201141357422

> <r_mmod_Van_der_Waal_Energy-OPLS-2005>
105.538726806641

> <r_mmod_Electrostatic_Energy-OPLS-2005>
-301.015533447266

> <r_mmod_Solvation_Energy-OPLS-2005>
-227.798049926758

> <b_mmod_Minimization_Converged-OPLS-2005>
0

> <r_mmod_RMS_Derivative-OPLS-2005>
11.4422254562378

$$$$
13
                    3D
 Structure written by MMmdl.
151159  0  0  1  0            999 V2000
  -30.6370  -14.7492   20.4657 C   0  0  0  0  0  0
  -30.4374  -12.4641   19.4822 C   0  0  0  0  0  0
  -29.5163  -12.5121   18.2432 C   0  0  0  0  0  0
  -28.0454  -12.3277   18.6619 C   0  0  0  0  0  0
  -27.6470  -13.2336   19.8564 C   0  0  2  0  0  0
  -28.6919  -13.1781   20.9955 C   0  0  0  0  0  0
  -25.2545  -13.8188   20.5695 C   0  0  0  0  0  0
  -24.1828  -13.0431   20.9187 C   0  0  0  0  0  0
  -24.6408  -11.6907   20.8731 C   0  0  0  0  0  0
  -23.9062  -10.4291   21.0376 C   0  0  0  0  0  0
  -24.3613   -9.4212   21.9160 C   0  0  0  0  0  0
  -23.6300   -8.2248   22.0742 C   0  0  0  0  0  0
  -22.4287   -8.0274   21.3528 C   0  0  0  0  0  0
  -21.9908   -9.0235   20.4629 C   0  0  0  0  0  0
  -22.7224  -10.2124   20.3032 C   0  0  0  0  0  0
  -21.6857   -6.0727   22.5267 C   0  0  0  0  0  0
  -21.4016   -6.5630   23.8196 C   0  0  0  0  0  0
  -21.3663   -5.6787   24.9164 C   0  0  0  0  0  0
  -21.6035   -4.3047   24.7219 C   0  0  0  0  0  0
  -21.8828   -3.8140   23.4343 C   0  0  0  0  0  0
  -21.9205   -4.6956   22.3397 C   0  0  0  0  0  0
  -22.7849  -13.5214   21.1861 C   0  0  0  0  0  0
  -22.1672   -4.2143   21.0974 F   0  0  0  0  0  0
  -21.5633   -3.4537   25.7736 F   0  0  0  0  0  0
  -29.9973  -13.5278   20.4198 N   0  0  0  0  0  0
  -26.2974  -12.9394   20.3307 N   0  0  0  0  0  0
  -25.9345  -11.6531   20.5751 N   0  0  0  0  0  0
  -22.0495  -12.8193   22.0408 N   0  0  0  0  0  0
  -25.4264  -15.1910   20.4116 N   0  0  0  0  0  0
  -31.8156  -14.8213   20.1088 O   0  0  0  0  0  0
  -21.6645   -6.8876   21.4233 O   0  0  0  0  0  0
  -22.3536  -14.5532   20.6735 O   0  0  0  0  0  0
  -24.6324  -31.8601   23.1973 C   0  0  0  0  0  0
  -25.9117  -32.4824   23.8337 C   0  0  1  0  0  0
  -27.2271  -27.2488   20.1293 C   0  0  0  0  0  0
  -25.5919  -33.8611   24.2292 N   0  0  0  0  0  0
  -23.4330  -30.4784   21.5427 C   0  0  2  0  0  0
  -24.8826  -28.9323   20.1076 C   0  0  0  0  0  0
  -22.7527  -29.4617   22.4918 C   0  0  0  0  0  0
  -18.0313  -28.1424   22.8530 C   0  0  0  0  0  0
  -24.1467  -36.7269   23.2629 C   0  0  0  0  0  0
  -25.9799  -30.7693   21.3785 C   0  0  0  0  0  0
  -26.0533  -29.3896   20.7219 C   0  0  0  0  0  0
  -27.2255  -28.5602   20.7257 C   0  0  0  0  0  0
  -26.0341  -26.8871   19.4577 C   0  0  0  0  0  0
  -24.8790  -27.6892   19.4617 C   0  0  0  0  0  0
  -23.6516  -29.8158   20.1587 C   0  0  0  0  0  0
  -25.4100  -36.3116   24.0341 C   0  0  1  0  0  0
  -20.5926  -28.3732   23.1285 C   0  0  2  0  0  0
  -20.6774  -26.9447   22.5410 C   0  0  0  0  0  0
  -19.5733  -26.6433   21.5235 C   0  0  0  0  0  0
  -18.1930  -26.7979   22.1654 C   0  0  0  0  0  0
  -19.1575  -28.8900   23.2906 C   0  0  0  0  0  0
  -18.9481  -30.1505   23.8922 C   0  0  0  0  0  0
  -17.6465  -30.6609   24.0602 C   0  0  0  0  0  0
  -25.9051  -34.9493   23.5137 C   0  0  0  0  0  0
  -16.5361  -29.9119   23.6337 C   0  0  0  0  0  0
  -16.7294  -28.6537   23.0376 C   0  0  0  0  0  0
  -26.4469  -31.6623   25.0715 C   0  0  0  0  0  0
  -25.3672  -31.3786   26.1429 C   0  0  0  0  0  0
  -27.0290  -30.3053   24.6166 C   0  0  0  0  0  0
  -27.6064  -32.4322   25.7466 C   0  0  0  0  0  0
  -27.5589  -37.1781   24.8475 C   0  0  0  0  0  0
  -21.4227  -29.3078   22.3647 N   0  0  0  0  0  0
  -26.4278  -37.3813   23.9453 N   0  0  0  0  0  0
  -24.7010  -31.0536   22.0964 N   0  0  0  0  0  0
  -23.4212  -28.8146   23.3016 O   0  0  0  0  0  0
  -28.2980  -26.3137   20.2356 O   0  0  0  0  0  0
  -26.5622  -34.8963   22.4708 O   0  0  0  0  0  0
  -23.5467  -32.1424   23.7248 O   0  0  0  0  0  0
  -29.6733  -18.5346   20.8988 C   0  0  0  0  0  0
  -30.7219  -17.4766   18.9865 C   0  0  0  0  0  0
  -29.8557  -19.8712   20.3308 C   0  0  0  0  0  0
  -30.1135  -17.3009   20.2524 C   0  0  0  0  0  0
  -30.9100  -18.7517   18.4155 C   0  0  0  0  0  0
  -30.4987  -19.9274   19.0761 C   0  0  0  0  0  0
  -29.1295  -23.8438   20.6086 C   0  0  0  0  0  0
  -29.5152  -21.2497   21.0683 C   0  0  0  0  0  0
  -28.0547  -24.9174   20.0649 C   0  0  0  0  0  0
  -29.9206  -15.9085   20.7650 N   0  0  0  0  0  0
  -28.9425  -22.4825   20.3618 N   0  0  0  0  0  0
  -30.0785  -24.2222   21.3041 O   0  0  0  0  0  0
  -31.5041  -18.8474   17.2016 F   0  0  0  0  0  0
  -30.7509  -21.1255   18.4970 F   0  0  0  0  0  0
  -26.9092  -24.5722   20.7092 F   0  0  0  0  0  0
  -27.8796  -24.6435   18.7478 F   0  0  0  0  0  0
  -31.4762  -12.5857   19.1716 H   0  0  0  0  0  0
  -30.3866  -11.4899   19.9685 H   0  0  0  0  0  0
  -29.8023  -11.7357   17.5318 H   0  0  0  0  0  0
  -29.6389  -13.4640   17.7235 H   0  0  0  0  0  0
  -27.9197  -11.2806   18.9399 H   0  0  0  0  0  0
  -27.3839  -12.5013   17.8123 H   0  0  0  0  0  0
  -27.6404  -14.2526   19.4673 H   0  0  0  0  0  0
  -28.7346  -12.1834   21.4425 H   0  0  0  0  0  0
  -28.4219  -13.8642   21.7999 H   0  0  0  0  0  0
  -25.2749   -9.5708   22.4734 H   0  0  0  0  0  0
  -24.0016   -7.4653   22.7462 H   0  0  0  0  0  0
  -21.0839   -8.8719   19.8946 H   0  0  0  0  0  0
  -22.3639  -10.9647   19.6150 H   0  0  0  0  0  0
  -21.1995   -7.6137   23.9690 H   0  0  0  0  0  0
  -21.1471   -6.0518   25.9062 H   0  0  0  0  0  0
  -22.0609   -2.7604   23.2832 H   0  0  0  0  0  0
  -22.4096  -11.9836   22.4770 H   0  0  0  0  0  0
  -21.1108  -13.1208   22.2610 H   0  0  0  0  0  0
  -24.6613  -15.8490   20.5076 H   0  0  0  0  0  0
  -26.2784  -15.6217   20.0763 H   0  0  0  0  0  0
  -26.7191  -32.5510   23.1076 H   0  0  0  0  0  0
  -25.0064  -33.9761   25.0430 H   0  0  0  0  0  0
  -22.7288  -31.2991   21.3969 H   0  0  0  0  0  0
  -23.3792  -35.9541   23.3285 H   0  0  0  0  0  0
  -24.3527  -36.8882   22.2043 H   0  0  0  0  0  0
  -23.7148  -37.6439   23.6628 H   0  0  0  0  0  0
  -26.1141  -31.5267   20.6041 H   0  0  0  0  0  0
  -26.8584  -30.8260   22.0095 H   0  0  0  0  0  0
  -28.1179  -28.9043   21.2261 H   0  0  0  0  0  0
  -25.9512  -25.9397   18.9483 H   0  0  0  0  0  0
  -23.9862  -27.3373   18.9652 H   0  0  0  0  0  0
  -23.7713  -30.5928   19.4028 H   0  0  0  0  0  0
  -22.7726  -29.2449   19.8571 H   0  0  0  0  0  0
  -25.1266  -36.1972   25.0828 H   0  0  0  0  0  0
  -21.0063  -28.3302   24.1392 H   0  0  0  0  0  0
  -20.5691  -26.2341   23.3608 H   0  0  0  0  0  0
  -21.6631  -26.7448   22.1202 H   0  0  0  0  0  0
  -19.6839  -25.6358   21.1244 H   0  0  0  0  0  0
  -19.6651  -27.3243   20.6772 H   0  0  0  0  0  0
  -17.4197  -26.6823   21.4045 H   0  0  0  0  0  0
  -18.0268  -26.0100   22.9015 H   0  0  0  0  0  0
  -19.7942  -30.7370   24.2275 H   0  0  0  0  0  0
  -17.5007  -31.6287   24.5216 H   0  0  0  0  0  0
  -15.5366  -30.3027   23.7645 H   0  0  0  0  0  0
  -15.8694  -28.0854   22.7095 H   0  0  0  0  0  0
  -24.5889  -30.7065   25.7784 H   0  0  0  0  0  0
  -24.8791  -32.2961   26.4751 H   0  0  0  0  0  0
  -25.7973  -30.9066   27.0268 H   0  0  0  0  0  0
  -26.2858  -29.6844   24.1167 H   0  0  0  0  0  0
  -27.3958  -29.7301   25.4671 H   0  0  0  0  0  0
  -27.8731  -30.4369   23.9393 H   0  0  0  0  0  0
  -27.2747  -33.3679   26.1987 H   0  0  0  0  0  0
  -28.3872  -32.6786   25.0246 H   0  0  0  0  0  0
  -28.0709  -31.8458   26.5409 H   0  0  0  0  0  0
  -28.2617  -38.0085   24.7601 H   0  0  0  0  0  0
  -28.1081  -36.2632   24.6191 H   0  0  0  0  0  0
  -27.2324  -37.1310   25.8881 H   0  0  0  0  0  0
  -20.9411  -29.8816   21.6862 H   0  0  0  0  0  0
  -26.0181  -38.2876   24.1520 H   0  0  0  0  0  0
  -29.2013  -18.4627   21.8698 H   0  0  0  0  0  0
  -31.0510  -16.6255   18.4107 H   0  0  0  0  0  0
  -30.4397  -21.5637   21.5593 H   0  0  0  0  0  0
  -28.8294  -21.0088   21.8816 H   0  0  0  0  0  0
  -29.0636  -15.7531   21.2759 H   0  0  0  0  0  0
  -28.1670  -22.2937   19.7423 H   0  0  0  0  0  0
  1 25  1  0  0  0
  1 30  2  0  0  0
  1 80  1  0  0  0
  2  3  1  0  0  0
  2 25  1  0  0  0
  2 87  1  0  0  0
  2 88  1  0  0  0
  3  4  1  0  0  0
  3 89  1  0  0  0
  3 90  1  0  0  0
  4  5  1  0  0  0
  4 91  1  0  0  0
  4 92  1  0  0  0
  5  6  1  0  0  0
  5 26  1  0  0  0
  5 93  1  0  0  0
  6 25  1  0  0  0
  6 94  1  0  0  0
  6 95  1  0  0  0
  7  8  2  0  0  0
  7 26  1  0  0  0
  7 29  1  0  0  0
  8  9  1  0  0  0
  8 22  1  0  0  0
  9 10  1  0  0  0
  9 27  2  0  0  0
 10 11  2  0  0  0
 10 15  1  0  0  0
 11 12  1  0  0  0
 11 96  1  0  0  0
 12 13  2  0  0  0
 12 97  1  0  0  0
 13 14  1  0  0  0
 13 31  1  0  0  0
 14 15  2  0  0  0
 14 98  1  0  0  0
 15 99  1  0  0  0
 16 17  2  0  0  0
 16 21  1  0  0  0
 16 31  1  0  0  0
 17 18  1  0  0  0
 17100  1  0  0  0
 18 19  2  0  0  0
 18101  1  0  0  0
 19 20  1  0  0  0
 19 24  1  0  0  0
 20 21  2  0  0  0
 20102  1  0  0  0
 21 23  1  0  0  0
 22 28  1  0  0  0
 22 32  2  0  0  0
 26 27  1  0  0  0
 28103  1  0  0  0
 28104  1  0  0  0
 29105  1  0  0  0
 29106  1  0  0  0
 33 34  1  0  0  0
 33 66  1  0  0  0
 33 70  2  0  0  0
 34 36  1  0  0  0
 34 59  1  0  0  0
 34107  1  0  0  0
 35 44  2  0  0  0
 35 45  1  0  0  0
 35 68  1  0  0  0
 36 56  1  0  0  0
 36108  1  0  0  0
 37 39  1  0  0  0
 37 47  1  0  0  0
 37 66  1  0  0  0
 37109  1  0  0  0
 38 43  2  0  0  0
 38 46  1  0  0  0
 38 47  1  0  0  0
 39 64  1  0  0  0
 39 67  2  0  0  0
 40 52  1  0  0  0
 40 53  2  0  0  0
 40 58  1  0  0  0
 41110  1  0  0  0
 41111  1  0  0  0
 41112  1  0  0  0
 41 48  1  0  0  0
 42 43  1  0  0  0
 42 66  1  0  0  0
 42113  1  0  0  0
 42114  1  0  0  0
 43 44  1  0  0  0
 44115  1  0  0  0
 45 46  2  0  0  0
 45116  1  0  0  0
 46117  1  0  0  0
 47118  1  0  0  0
 47119  1  0  0  0
 48 56  1  0  0  0
 48 65  1  0  0  0
 48120  1  0  0  0
 49 50  1  0  0  0
 49 53  1  0  0  0
 49 64  1  0  0  0
 49121  1  0  0  0
 50 51  1  0  0  0
 50122  1  0  0  0
 50123  1  0  0  0
 51 52  1  0  0  0
 51124  1  0  0  0
 51125  1  0  0  0
 52126  1  0  0  0
 52127  1  0  0  0
 53 54  1  0  0  0
 54 55  2  0  0  0
 54128  1  0  0  0
 55 57  1  0  0  0
 55129  1  0  0  0
 56 69  2  0  0  0
 57 58  2  0  0  0
 57130  1  0  0  0
 58131  1  0  0  0
 59 60  1  0  0  0
 59 61  1  0  0  0
 59 62  1  0  0  0
 60132  1  0  0  0
 60133  1  0  0  0
 60134  1  0  0  0
 61135  1  0  0  0
 61136  1  0  0  0
 61137  1  0  0  0
 62138  1  0  0  0
 62139  1  0  0  0
 62140  1  0  0  0
 63 65  1  0  0  0
 63141  1  0  0  0
 63142  1  0  0  0
 63143  1  0  0  0
 64144  1  0  0  0
 65145  1  0  0  0
 68 79  1  0  0  0
 71 73  2  0  0  0
 71 74  1  0  0  0
 71146  1  0  0  0
 72 74  2  0  0  0
 72 75  1  0  0  0
 72147  1  0  0  0
 73 76  1  0  0  0
 73 78  1  0  0  0
 74 80  1  0  0  0
 75 76  2  0  0  0
 75 83  1  0  0  0
 76 84  1  0  0  0
 77 79  1  0  0  0
 77 81  1  0  0  0
 77 82  2  0  0  0
 78 81  1  0  0  0
 78148  1  0  0  0
 78149  1  0  0  0
 79 85  1  0  0  0
 79 86  1  0  0  0
 80150  1  0  0  0
 81151  1  0  0  0
M  ISO  4   1 100  68 101  79 101  80 100
M  END
> <chiral flag>
0

> <version>
0

> <s_m_source_file>
/data/baiqing/PycharmProjects/Reinvent-master-3.2/result/LINK_invent/BTK/process_docking_weight1_custom_product_contain_oxygen_bond_distance_aromatic_linkinvent_7_9_3/rearranged_h_0175.sdf

> <i_m_source_file_index>
13

> <r_mmod_Potential_Energy-OPLS-2005>
211.548110961914

> <r_mmod_Stretch_Energy-OPLS-2005>
134.65690612793

> <r_mmod_Bend_Energy-OPLS-2005>
161.38151550293

> <r_mmod_Torsional_Energy-OPLS-2005>
217.165832519531

> <r_mmod_Improper_Torsional_Energy-OPLS-2005>
5.06592512130737

> <r_mmod_Van_der_Waal_Energy-OPLS-2005>
148.086929321289

> <r_mmod_Electrostatic_Energy-OPLS-2005>
-322.978881835938

> <r_mmod_Solvation_Energy-OPLS-2005>
-225.162658691406

> <b_mmod_Minimization_Converged-OPLS-2005>
0

> <r_mmod_RMS_Derivative-OPLS-2005>
3.91506433486938

$$$$
14
                    3D
 Structure written by MMmdl.
158166  0  0  1  0            999 V2000
  -30.5707  -14.7714   20.4664 C   0  0  0  0  0  0
  -30.4436  -12.4758   19.4606 C   0  0  0  0  0  0
  -29.5117  -12.5113   18.2298 C   0  0  0  0  0  0
  -28.0403  -12.3215   18.6494 C   0  0  0  0  0  0
  -27.6396  -13.2232   19.8463 C   0  0  2  0  0  0
  -28.6864  -13.1588   20.9762 C   0  0  0  0  0  0
  -25.2518  -13.8157   20.5700 C   0  0  0  0  0  0
  -24.1807  -13.0426   20.9215 C   0  0  0  0  0  0
  -24.6388  -11.6907   20.8738 C   0  0  0  0  0  0
  -23.9074  -10.4282   21.0403 C   0  0  0  0  0  0
  -24.3632   -9.4180   21.9170 C   0  0  0  0  0  0
  -23.6304   -8.2228   22.0738 C   0  0  0  0  0  0
  -22.4278   -8.0282   21.3534 C   0  0  0  0  0  0
  -21.9924   -9.0238   20.4639 C   0  0  0  0  0  0
  -22.7262  -10.2120   20.3045 C   0  0  0  0  0  0
  -21.6852   -6.0735   22.5279 C   0  0  0  0  0  0
  -21.4012   -6.5639   23.8212 C   0  0  0  0  0  0
  -21.3661   -5.6796   24.9172 C   0  0  0  0  0  0
  -21.6049   -4.3056   24.7226 C   0  0  0  0  0  0
  -21.8821   -3.8148   23.4343 C   0  0  0  0  0  0
  -21.9188   -4.6960   22.3402 C   0  0  0  0  0  0
  -22.7822  -13.5200   21.1883 C   0  0  0  0  0  0
  -22.1662   -4.2156   21.0978 F   0  0  0  0  0  0
  -21.5626   -3.4539   25.7731 F   0  0  0  0  0  0
  -29.9805  -13.5288   20.3882 N   0  0  0  0  0  0
  -26.2932  -12.9355   20.3260 N   0  0  0  0  0  0
  -25.9309  -11.6511   20.5738 N   0  0  0  0  0  0
  -22.0514  -12.8147   22.0448 N   0  0  0  0  0  0
  -25.4191  -15.1907   20.4119 N   0  0  0  0  0  0
  -31.7760  -14.9000   20.2235 O   0  0  0  0  0  0
  -21.6643   -6.8880   21.4244 O   0  0  0  0  0  0
  -22.3496  -14.5495   20.6745 O   0  0  0  0  0  0
  -24.6351  -31.8560   23.1957 C   0  0  0  0  0  0
  -25.9182  -32.4751   23.8308 C   0  0  1  0  0  0
  -27.2062  -27.2327   20.1274 C   0  0  0  0  0  0
  -25.5932  -33.8543   24.2240 N   0  0  0  0  0  0
  -23.4311  -30.4806   21.5408 C   0  0  2  0  0  0
  -24.8733  -28.9260   20.1093 C   0  0  0  0  0  0
  -22.7528  -29.4603   22.4877 C   0  0  0  0  0  0
  -18.0288  -28.1430   22.8500 C   0  0  0  0  0  0
  -24.1482  -36.7271   23.2638 C   0  0  0  0  0  0
  -25.9812  -30.7587   21.3794 C   0  0  0  0  0  0
  -26.0503  -29.3795   20.7197 C   0  0  0  0  0  0
  -27.2199  -28.5482   20.7134 C   0  0  0  0  0  0
  -26.0039  -26.8573   19.4878 C   0  0  0  0  0  0
  -24.8576  -27.6743   19.4819 C   0  0  0  0  0  0
  -23.6520  -29.8244   20.1536 C   0  0  0  0  0  0
  -25.4107  -36.3063   24.0334 C   0  0  1  0  0  0
  -20.5907  -28.3741   23.1254 C   0  0  2  0  0  0
  -20.6791  -26.9455   22.5422 C   0  0  0  0  0  0
  -19.5738  -26.6422   21.5250 C   0  0  0  0  0  0
  -18.1909  -26.7970   22.1651 C   0  0  0  0  0  0
  -19.1551  -28.8892   23.2868 C   0  0  0  0  0  0
  -18.9476  -30.1493   23.8898 C   0  0  0  0  0  0
  -17.6484  -30.6620   24.0587 C   0  0  0  0  0  0
  -25.9070  -34.9436   23.5101 C   0  0  0  0  0  0
  -16.5370  -29.9145   23.6326 C   0  0  0  0  0  0
  -16.7282  -28.6565   23.0346 C   0  0  0  0  0  0
  -26.4519  -31.6562   25.0692 C   0  0  0  0  0  0
  -25.3726  -31.3739   26.1410 C   0  0  0  0  0  0
  -27.0352  -30.2958   24.6186 C   0  0  0  0  0  0
  -27.6052  -32.4320   25.7479 C   0  0  0  0  0  0
  -27.5573  -37.1791   24.8462 C   0  0  0  0  0  0
  -21.4228  -29.3096   22.3659 N   0  0  0  0  0  0
  -26.4265  -37.3776   23.9437 N   0  0  0  0  0  0
  -24.7018  -31.0499   22.0945 N   0  0  0  0  0  0
  -23.4217  -28.8110   23.2951 O   0  0  0  0  0  0
  -28.2879  -26.3148   20.1758 O   0  0  0  0  0  0
  -26.5649  -34.8929   22.4677 O   0  0  0  0  0  0
  -23.5494  -32.1398   23.7253 O   0  0  0  0  0  0
  -29.7122  -17.5785   22.3245 C   0  0  0  0  0  0
  -29.7907  -17.2644   20.9746 C   0  0  0  0  0  0
  -29.4514  -19.6457   20.8706 C   0  0  0  0  0  0
  -29.7436  -16.7149   23.5169 C   0  0  0  0  0  0
  -28.8254  -22.1905   20.8423 C   0  0  0  0  0  0
  -29.3987  -17.2883   24.8890 C   0  0  0  0  0  0
  -31.6483  -23.4605   21.0986 C   0  0  0  0  0  0
  -30.3344  -24.2627   21.0953 C   0  0  0  0  0  0
  -28.0060  -24.8179   20.2102 C   0  0  0  0  0  0
  -29.1718  -23.6684   20.2660 C   0  0  2  0  0  0
  -29.6270  -18.4680   20.1719 N   0  0  0  0  0  0
  -29.7023  -15.8601   20.4906 N   0  0  0  0  0  0
  -29.3420  -21.0161   20.2948 N   0  0  0  0  0  0
  -30.0325  -15.5176   23.4522 O   0  0  0  0  0  0
  -28.0755  -22.1294   21.8207 O   0  0  0  0  0  0
  -29.6227  -23.5103   19.0167 F   0  0  0  0  0  0
  -29.4841  -19.3152   22.6047 S   0  0  0  0  0  0
  -31.4797  -12.6297   19.1570 H   0  0  0  0  0  0
  -30.4120  -11.4981   19.9470 H   0  0  0  0  0  0
  -29.8022  -11.7418   17.5141 H   0  0  0  0  0  0
  -29.6239  -13.4670   17.7146 H   0  0  0  0  0  0
  -27.9105  -11.2731   18.9224 H   0  0  0  0  0  0
  -27.3778  -12.4962   17.8016 H   0  0  0  0  0  0
  -27.6275  -14.2413   19.4583 H   0  0  0  0  0  0
  -28.7308  -12.1593   21.4110 H   0  0  0  0  0  0
  -28.4170  -13.8316   21.7910 H   0  0  0  0  0  0
  -25.2784   -9.5653   22.4736 H   0  0  0  0  0  0
  -24.0016   -7.4608   22.7440 H   0  0  0  0  0  0
  -21.0866   -8.8771   19.8922 H   0  0  0  0  0  0
  -22.3738  -10.9655   19.6149 H   0  0  0  0  0  0
  -21.2014   -7.6155   23.9719 H   0  0  0  0  0  0
  -21.1483   -6.0523   25.9076 H   0  0  0  0  0  0
  -22.0598   -2.7619   23.2843 H   0  0  0  0  0  0
  -22.4181  -11.9817   22.4804 H   0  0  0  0  0  0
  -21.1119  -13.1098   22.2683 H   0  0  0  0  0  0
  -24.6403  -15.8338   20.5087 H   0  0  0  0  0  0
  -26.2537  -15.6380   20.0579 H   0  0  0  0  0  0
  -26.7230  -32.5423   23.1040 H   0  0  0  0  0  0
  -25.0018  -33.9663   25.0345 H   0  0  0  0  0  0
  -22.7330  -31.3074   21.3989 H   0  0  0  0  0  0
  -23.3740  -35.9602   23.3290 H   0  0  0  0  0  0
  -24.3561  -36.8913   22.2048 H   0  0  0  0  0  0
  -23.7255  -37.6477   23.6675 H   0  0  0  0  0  0
  -26.1269  -31.5186   20.6101 H   0  0  0  0  0  0
  -26.8567  -30.8083   22.0138 H   0  0  0  0  0  0
  -28.1193  -28.8930   21.2031 H   0  0  0  0  0  0
  -25.9036  -25.9082   18.9862 H   0  0  0  0  0  0
  -23.9588  -27.3263   18.9909 H   0  0  0  0  0  0
  -23.7973  -30.6109   19.4094 H   0  0  0  0  0  0
  -22.7658  -29.2757   19.8294 H   0  0  0  0  0  0
  -25.1291  -36.1879   25.0817 H   0  0  0  0  0  0
  -20.9984  -28.3345   24.1383 H   0  0  0  0  0  0
  -20.5691  -26.2373   23.3650 H   0  0  0  0  0  0
  -21.6645  -26.7510   22.1194 H   0  0  0  0  0  0
  -19.6884  -25.6336   21.1266 H   0  0  0  0  0  0
  -19.6632  -27.3233   20.6768 H   0  0  0  0  0  0
  -17.4189  -26.6729   21.4046 H   0  0  0  0  0  0
  -18.0281  -26.0119   22.9038 H   0  0  0  0  0  0
  -19.7957  -30.7305   24.2261 H   0  0  0  0  0  0
  -17.5053  -31.6285   24.5231 H   0  0  0  0  0  0
  -15.5373  -30.3068   23.7659 H   0  0  0  0  0  0
  -15.8676  -28.0913   22.7045 H   0  0  0  0  0  0
  -24.5931  -30.7021   25.7783 H   0  0  0  0  0  0
  -24.8841  -32.2894   26.4743 H   0  0  0  0  0  0
  -25.8026  -30.9017   27.0246 H   0  0  0  0  0  0
  -26.2909  -29.6708   24.1199 H   0  0  0  0  0  0
  -27.4020  -29.7224   25.4713 H   0  0  0  0  0  0
  -27.8816  -30.4222   23.9426 H   0  0  0  0  0  0
  -27.2642  -33.3670   26.1950 H   0  0  0  0  0  0
  -28.3903  -32.6805   25.0322 H   0  0  0  0  0  0
  -28.0643  -31.8490   26.5480 H   0  0  0  0  0  0
  -28.2582  -38.0100   24.7549 H   0  0  0  0  0  0
  -28.1085  -36.2639   24.6237 H   0  0  0  0  0  0
  -27.2290  -37.1387   25.8863 H   0  0  0  0  0  0
  -20.9417  -29.8924   21.6957 H   0  0  0  0  0  0
  -26.0126  -38.2835   24.1468 H   0  0  0  0  0  0
  -30.1322  -18.0347   25.1913 H   0  0  0  0  0  0
  -29.3921  -16.4950   25.6367 H   0  0  0  0  0  0
  -28.4100  -17.7467   24.8767 H   0  0  0  0  0  0
  -32.4456  -24.0413   21.5643 H   0  0  0  0  0  0
  -31.9702  -23.2195   20.0861 H   0  0  0  0  0  0
  -31.5533  -22.5290   21.6564 H   0  0  0  0  0  0
  -30.5583  -25.2594   20.7158 H   0  0  0  0  0  0
  -30.0059  -24.4099   22.1252 H   0  0  0  0  0  0
  -27.4253  -24.5578   19.3290 H   0  0  0  0  0  0
  -27.3340  -24.6548   21.0524 H   0  0  0  0  0  0
  -28.7502  -15.5572   20.3707 H   0  0  0  0  0  0
  -29.7953  -21.1457   19.4019 H   0  0  0  0  0  0
  1 25  1  0  0  0
  1 30  2  0  0  0
  1 82  1  0  0  0
  2  3  1  0  0  0
  2 25  1  0  0  0
  2 88  1  0  0  0
  2 89  1  0  0  0
  3  4  1  0  0  0
  3 90  1  0  0  0
  3 91  1  0  0  0
  4  5  1  0  0  0
  4 92  1  0  0  0
  4 93  1  0  0  0
  5  6  1  0  0  0
  5 26  1  0  0  0
  5 94  1  0  0  0
  6 25  1  0  0  0
  6 95  1  0  0  0
  6 96  1  0  0  0
  7  8  2  0  0  0
  7 26  1  0  0  0
  7 29  1  0  0  0
  8  9  1  0  0  0
  8 22  1  0  0  0
  9 10  1  0  0  0
  9 27  2  0  0  0
 10 11  2  0  0  0
 10 15  1  0  0  0
 11 12  1  0  0  0
 11 97  1  0  0  0
 12 13  2  0  0  0
 12 98  1  0  0  0
 13 14  1  0  0  0
 13 31  1  0  0  0
 14 15  2  0  0  0
 14 99  1  0  0  0
 15100  1  0  0  0
 16 17  2  0  0  0
 16 21  1  0  0  0
 16 31  1  0  0  0
 17 18  1  0  0  0
 17101  1  0  0  0
 18 19  2  0  0  0
 18102  1  0  0  0
 19 20  1  0  0  0
 19 24  1  0  0  0
 20 21  2  0  0  0
 20103  1  0  0  0
 21 23  1  0  0  0
 22 28  1  0  0  0
 22 32  2  0  0  0
 26 27  1  0  0  0
 28104  1  0  0  0
 28105  1  0  0  0
 29106  1  0  0  0
 29107  1  0  0  0
 33 34  1  0  0  0
 33 66  1  0  0  0
 33 70  2  0  0  0
 34 36  1  0  0  0
 34 59  1  0  0  0
 34108  1  0  0  0
 35 44  2  0  0  0
 35 45  1  0  0  0
 35 68  1  0  0  0
 36 56  1  0  0  0
 36109  1  0  0  0
 37 39  1  0  0  0
 37 47  1  0  0  0
 37 66  1  0  0  0
 37110  1  0  0  0
 38 43  2  0  0  0
 38 46  1  0  0  0
 38 47  1  0  0  0
 39 64  1  0  0  0
 39 67  2  0  0  0
 40 52  1  0  0  0
 40 53  2  0  0  0
 40 58  1  0  0  0
 41111  1  0  0  0
 41112  1  0  0  0
 41113  1  0  0  0
 41 48  1  0  0  0
 42 43  1  0  0  0
 42 66  1  0  0  0
 42114  1  0  0  0
 42115  1  0  0  0
 43 44  1  0  0  0
 44116  1  0  0  0
 45 46  2  0  0  0
 45117  1  0  0  0
 46118  1  0  0  0
 47119  1  0  0  0
 47120  1  0  0  0
 48 56  1  0  0  0
 48 65  1  0  0  0
 48121  1  0  0  0
 49 50  1  0  0  0
 49 53  1  0  0  0
 49 64  1  0  0  0
 49122  1  0  0  0
 50 51  1  0  0  0
 50123  1  0  0  0
 50124  1  0  0  0
 51 52  1  0  0  0
 51125  1  0  0  0
 51126  1  0  0  0
 52127  1  0  0  0
 52128  1  0  0  0
 53 54  1  0  0  0
 54 55  2  0  0  0
 54129  1  0  0  0
 55 57  1  0  0  0
 55130  1  0  0  0
 56 69  2  0  0  0
 57 58  2  0  0  0
 57131  1  0  0  0
 58132  1  0  0  0
 59 60  1  0  0  0
 59 61  1  0  0  0
 59 62  1  0  0  0
 60133  1  0  0  0
 60134  1  0  0  0
 60135  1  0  0  0
 61136  1  0  0  0
 61137  1  0  0  0
 61138  1  0  0  0
 62139  1  0  0  0
 62140  1  0  0  0
 62141  1  0  0  0
 63 65  1  0  0  0
 63142  1  0  0  0
 63143  1  0  0  0
 63144  1  0  0  0
 64145  1  0  0  0
 65146  1  0  0  0
 68 79  1  0  0  0
 71 72  2  0  0  0
 71 74  1  0  0  0
 71 87  1  0  0  0
 72 81  1  0  0  0
 72 82  1  0  0  0
 73 81  2  0  0  0
 73 83  1  0  0  0
 73 87  1  0  0  0
 74 76  1  0  0  0
 74 84  2  0  0  0
 75 80  1  0  0  0
 75 83  1  0  0  0
 75 85  2  0  0  0
 76147  1  0  0  0
 76148  1  0  0  0
 76149  1  0  0  0
 77 78  1  0  0  0
 77150  1  0  0  0
 77151  1  0  0  0
 77152  1  0  0  0
 78 80  1  0  0  0
 78153  1  0  0  0
 78154  1  0  0  0
 79 80  1  0  0  0
 79155  1  0  0  0
 79156  1  0  0  0
 80 86  1  0  0  0
 82157  1  0  0  0
 83158  1  0  0  0
M  ISO  4   1 100  68 101  79 101  82 100
M  END
> <chiral flag>
0

> <version>
0

> <s_m_source_file>
/data/baiqing/PycharmProjects/Reinvent-master-3.2/result/LINK_invent/BTK/process_docking_weight1_custom_product_contain_oxygen_bond_distance_aromatic_linkinvent_7_9_3/rearranged_h_0175.sdf

> <i_m_source_file_index>
14

> <r_mmod_Potential_Energy-OPLS-2005>
170.608139038086

> <r_mmod_Stretch_Energy-OPLS-2005>
138.933517456055

> <r_mmod_Bend_Energy-OPLS-2005>
172.32356262207

> <r_mmod_Torsional_Energy-OPLS-2005>
264.339019775391

> <r_mmod_Improper_Torsional_Energy-OPLS-2005>
12.2947092056274

> <r_mmod_Van_der_Waal_Energy-OPLS-2005>
119.32152557373

> <r_mmod_Electrostatic_Energy-OPLS-2005>
-411.217193603516

> <r_mmod_Solvation_Energy-OPLS-2005>
-228.534912109375

> <b_mmod_Minimization_Converged-OPLS-2005>
0

> <r_mmod_RMS_Derivative-OPLS-2005>
3.18462252616882

$$$$
15
                    3D
 Structure written by MMmdl.
159167  0  0  1  0            999 V2000
  -30.5967  -14.6420   20.4922 C   0  0  0  0  0  0
  -30.4515  -12.3949   19.4310 C   0  0  0  0  0  0
  -29.5069  -12.4965   18.2107 C   0  0  0  0  0  0
  -28.0301  -12.3299   18.6295 C   0  0  0  0  0  0
  -27.6519  -13.2035   19.8548 C   0  0  2  0  0  0
  -28.7047  -13.0557   20.9784 C   0  0  0  0  0  0
  -25.2574  -13.8130   20.5662 C   0  0  0  0  0  0
  -24.1840  -13.0417   20.9198 C   0  0  0  0  0  0
  -24.6390  -11.6885   20.8754 C   0  0  0  0  0  0
  -23.9053  -10.4278   21.0418 C   0  0  0  0  0  0
  -24.3607   -9.4194   21.9190 C   0  0  0  0  0  0
  -23.6284   -8.2230   22.0755 C   0  0  0  0  0  0
  -22.4268   -8.0276   21.3545 C   0  0  0  0  0  0
  -21.9904   -9.0249   20.4650 C   0  0  0  0  0  0
  -22.7228  -10.2128   20.3062 C   0  0  0  0  0  0
  -21.6846   -6.0732   22.5276 C   0  0  0  0  0  0
  -21.4009   -6.5635   23.8212 C   0  0  0  0  0  0
  -21.3655   -5.6789   24.9171 C   0  0  0  0  0  0
  -21.6049   -4.3053   24.7225 C   0  0  0  0  0  0
  -21.8817   -3.8144   23.4344 C   0  0  0  0  0  0
  -21.9193   -4.6960   22.3403 C   0  0  0  0  0  0
  -22.7864  -13.5230   21.1863 C   0  0  0  0  0  0
  -22.1660   -4.2147   21.0979 F   0  0  0  0  0  0
  -21.5631   -3.4537   25.7736 F   0  0  0  0  0  0
  -30.0145  -13.4068   20.4062 N   0  0  0  0  0  0
  -26.2986  -12.9281   20.3286 N   0  0  0  0  0  0
  -25.9316  -11.6455   20.5761 N   0  0  0  0  0  0
  -22.0496  -12.8235   22.0415 N   0  0  0  0  0  0
  -25.4285  -15.1849   20.4025 N   0  0  0  0  0  0
  -31.7858  -14.8322   20.2190 O   0  0  0  0  0  0
  -21.6631   -6.8873   21.4241 O   0  0  0  0  0  0
  -22.3565  -14.5539   20.6707 O   0  0  0  0  0  0
  -24.6278  -31.8591   23.2026 C   0  0  0  0  0  0
  -25.9114  -32.4777   23.8356 C   0  0  1  0  0  0
  -27.2260  -27.3256   20.0958 C   0  0  0  0  0  0
  -25.5930  -33.8577   24.2282 N   0  0  0  0  0  0
  -23.4205  -30.4865   21.5449 C   0  0  2  0  0  0
  -24.8656  -28.9459   20.1117 C   0  0  0  0  0  0
  -22.7486  -29.4620   22.4910 C   0  0  0  0  0  0
  -18.0300  -28.1397   22.8497 C   0  0  0  0  0  0
  -24.1488  -36.7281   23.2635 C   0  0  0  0  0  0
  -25.9644  -30.7922   21.3735 C   0  0  0  0  0  0
  -26.0389  -29.4215   20.7114 C   0  0  0  0  0  0
  -27.2227  -28.6232   20.6952 C   0  0  0  0  0  0
  -26.0120  -26.8914   19.5076 C   0  0  0  0  0  0
  -24.8525  -27.6847   19.5033 C   0  0  0  0  0  0
  -23.6359  -29.8276   20.1600 C   0  0  0  0  0  0
  -25.4106  -36.3072   24.0329 C   0  0  1  0  0  0
  -20.5902  -28.3685   23.1283 C   0  0  2  0  0  0
  -20.6777  -26.9397   22.5418 C   0  0  0  0  0  0
  -19.5750  -26.6388   21.5217 C   0  0  0  0  0  0
  -18.1937  -26.7939   22.1634 C   0  0  0  0  0  0
  -19.1551  -28.8857   23.2894 C   0  0  0  0  0  0
  -18.9470  -30.1467   23.8896 C   0  0  0  0  0  0
  -17.6469  -30.6591   24.0574 C   0  0  0  0  0  0
  -25.9043  -34.9447   23.5095 C   0  0  0  0  0  0
  -16.5360  -29.9088   23.6345 C   0  0  0  0  0  0
  -16.7288  -28.6513   23.0357 C   0  0  0  0  0  0
  -26.4500  -31.6584   25.0722 C   0  0  0  0  0  0
  -25.3751  -31.3732   26.1463 C   0  0  0  0  0  0
  -27.0333  -30.3008   24.6164 C   0  0  0  0  0  0
  -27.6052  -32.4321   25.7508 C   0  0  0  0  0  0
  -27.5569  -37.1795   24.8464 C   0  0  0  0  0  0
  -21.4197  -29.3039   22.3667 N   0  0  0  0  0  0
  -26.4279  -37.3769   23.9411 N   0  0  0  0  0  0
  -24.6894  -31.0622   22.0966 N   0  0  0  0  0  0
  -23.4211  -28.8146   23.2977 O   0  0  0  0  0  0
  -28.3337  -26.4575   20.1271 O   0  0  0  0  0  0
  -26.5611  -34.8922   22.4662 O   0  0  0  0  0  0
  -23.5438  -32.1378   23.7355 O   0  0  0  0  0  0
  -30.0500  -18.2107   20.4886 C   0  0  0  0  0  0
  -28.9362  -17.0801   22.3342 C   0  0  0  0  0  0
  -29.7721  -19.5059   21.0751 C   0  0  0  0  0  0
  -29.6527  -16.9815   21.1247 C   0  0  0  0  0  0
  -28.6365  -18.3283   22.9077 C   0  0  0  0  0  0
  -29.0483  -19.5235   22.2894 C   0  0  0  0  0  0
  -28.3878  -25.4278   19.1786 C   0  0  0  0  0  0
  -28.7540  -24.0986   19.2121 C   0  0  0  0  0  0
  -29.3207  -23.2847   20.3246 C   0  0  0  0  0  0
  -32.7238  -20.1023   20.0427 C   0  0  0  0  0  0
  -31.4426  -20.7677   19.5082 C   0  0  0  0  0  0
  -30.3060  -20.8923   20.5509 C   0  0  1  0  0  0
  -29.6800  -15.6553   20.5322 N   0  0  0  0  0  0
  -29.3231  -21.9281   20.0801 N   0  0  0  0  0  0
  -29.8550  -23.7602   21.3260 O   0  0  0  0  0  0
  -28.6266  -23.4524   18.0420 O   0  0  0  0  0  0
  -27.9356  -18.3772   24.0664 F   0  0  0  0  0  0
  -28.7557  -20.7031   22.8873 F   0  0  0  0  0  0
  -31.4869  -12.5489   19.1224 H   0  0  0  0  0  0
  -30.4119  -11.3993   19.8751 H   0  0  0  0  0  0
  -29.7714  -11.7417   17.4688 H   0  0  0  0  0  0
  -29.6407  -13.4625   17.7212 H   0  0  0  0  0  0
  -27.8715  -11.2772   18.8673 H   0  0  0  0  0  0
  -27.3724  -12.5533   17.7883 H   0  0  0  0  0  0
  -27.6604  -14.2336   19.5013 H   0  0  0  0  0  0
  -28.7251  -12.0319   21.3556 H   0  0  0  0  0  0
  -28.4595  -13.6866   21.8347 H   0  0  0  0  0  0
  -25.2749   -9.5671   22.4764 H   0  0  0  0  0  0
  -23.9993   -7.4624   22.7473 H   0  0  0  0  0  0
  -21.0831   -8.8765   19.8961 H   0  0  0  0  0  0
  -22.3683  -10.9668   19.6175 H   0  0  0  0  0  0
  -21.1995   -7.6141   23.9710 H   0  0  0  0  0  0
  -21.1482   -6.0519   25.9075 H   0  0  0  0  0  0
  -22.0605   -2.7608   23.2842 H   0  0  0  0  0  0
  -22.4091  -11.9888   22.4799 H   0  0  0  0  0  0
  -21.1124  -13.1287   22.2625 H   0  0  0  0  0  0
  -24.6526  -15.8314   20.4966 H   0  0  0  0  0  0
  -26.2600  -15.6249   20.0306 H   0  0  0  0  0  0
  -26.7173  -32.5447   23.1098 H   0  0  0  0  0  0
  -25.0120  -33.9722   25.0458 H   0  0  0  0  0  0
  -22.7144  -31.3068   21.4037 H   0  0  0  0  0  0
  -23.3746  -35.9619   23.3314 H   0  0  0  0  0  0
  -24.3584  -36.8887   22.2046 H   0  0  0  0  0  0
  -23.7257  -37.6490   23.6653 H   0  0  0  0  0  0
  -26.0984  -31.5589   20.6086 H   0  0  0  0  0  0
  -26.8442  -30.8359   22.0041 H   0  0  0  0  0  0
  -28.1256  -28.9848   21.1668 H   0  0  0  0  0  0
  -25.9247  -25.9112   19.0615 H   0  0  0  0  0  0
  -23.9472  -27.3097   19.0441 H   0  0  0  0  0  0
  -23.7607  -30.6061   19.4067 H   0  0  0  0  0  0
  -22.7548  -29.2613   19.8535 H   0  0  0  0  0  0
  -25.1295  -36.1910   25.0822 H   0  0  0  0  0  0
  -21.0010  -28.3245   24.1394 H   0  0  0  0  0  0
  -20.5677  -26.2277   23.3612 H   0  0  0  0  0  0
  -21.6643  -26.7427   22.1198 H   0  0  0  0  0  0
  -19.6900  -25.6300   21.1239 H   0  0  0  0  0  0
  -19.6691  -27.3205   20.6748 H   0  0  0  0  0  0
  -17.4203  -26.6711   21.4035 H   0  0  0  0  0  0
  -18.0332  -26.0089   22.9038 H   0  0  0  0  0  0
  -19.7946  -30.7306   24.2240 H   0  0  0  0  0  0
  -17.5017  -31.6262   24.5186 H   0  0  0  0  0  0
  -15.5359  -30.2993   23.7648 H   0  0  0  0  0  0
  -15.8697  -28.0831   22.7052 H   0  0  0  0  0  0
  -24.5934  -30.7052   25.7820 H   0  0  0  0  0  0
  -24.8937  -32.2906   26.4862 H   0  0  0  0  0  0
  -25.8105  -30.8953   27.0252 H   0  0  0  0  0  0
  -26.2892  -29.6776   24.1184 H   0  0  0  0  0  0
  -27.4026  -29.7246   25.4659 H   0  0  0  0  0  0
  -27.8780  -30.4292   23.9389 H   0  0  0  0  0  0
  -27.2638  -33.3623   26.2071 H   0  0  0  0  0  0
  -28.3885  -32.6875   25.0353 H   0  0  0  0  0  0
  -28.0699  -31.8460   26.5448 H   0  0  0  0  0  0
  -28.2589  -38.0085   24.7499 H   0  0  0  0  0  0
  -28.1071  -36.2621   24.6317 H   0  0  0  0  0  0
  -27.2297  -37.1473   25.8869 H   0  0  0  0  0  0
  -20.9347  -29.8781   21.6914 H   0  0  0  0  0  0
  -26.0161  -38.2843   24.1424 H   0  0  0  0  0  0
  -30.5641  -18.1498   19.5406 H   0  0  0  0  0  0
  -28.5670  -16.1914   22.8259 H   0  0  0  0  0  0
  -28.0513  -25.8172   18.2258 H   0  0  0  0  0  0
  -32.5838  -19.0486   20.2778 H   0  0  0  0  0  0
  -33.0779  -20.5973   20.9475 H   0  0  0  0  0  0
  -33.5215  -20.1597   19.3019 H   0  0  0  0  0  0
  -31.0857  -20.2385   18.6235 H   0  0  0  0  0  0
  -31.7200  -21.7642   19.1613 H   0  0  0  0  0  0
  -30.7741  -21.3326   21.4337 H   0  0  0  0  0  0
  -28.7660  -15.2321   20.5220 H   0  0  0  0  0  0
  -28.6840  -21.6099   19.3667 H   0  0  0  0  0  0
  -29.1362  -22.6556   18.1145 H   0  0  0  0  0  0
  1 25  1  0  0  0
  1 30  2  0  0  0
  1 83  1  0  0  0
  2  3  1  0  0  0
  2 25  1  0  0  0
  2 89  1  0  0  0
  2 90  1  0  0  0
  3  4  1  0  0  0
  3 91  1  0  0  0
  3 92  1  0  0  0
  4  5  1  0  0  0
  4 93  1  0  0  0
  4 94  1  0  0  0
  5  6  1  0  0  0
  5 26  1  0  0  0
  5 95  1  0  0  0
  6 25  1  0  0  0
  6 96  1  0  0  0
  6 97  1  0  0  0
  7  8  2  0  0  0
  7 26  1  0  0  0
  7 29  1  0  0  0
  8  9  1  0  0  0
  8 22  1  0  0  0
  9 10  1  0  0  0
  9 27  2  0  0  0
 10 11  2  0  0  0
 10 15  1  0  0  0
 11 12  1  0  0  0
 11 98  1  0  0  0
 12 13  2  0  0  0
 12 99  1  0  0  0
 13 14  1  0  0  0
 13 31  1  0  0  0
 14 15  2  0  0  0
 14100  1  0  0  0
 15101  1  0  0  0
 16 17  2  0  0  0
 16 21  1  0  0  0
 16 31  1  0  0  0
 17 18  1  0  0  0
 17102  1  0  0  0
 18 19  2  0  0  0
 18103  1  0  0  0
 19 20  1  0  0  0
 19 24  1  0  0  0
 20 21  2  0  0  0
 20104  1  0  0  0
 21 23  1  0  0  0
 22 28  1  0  0  0
 22 32  2  0  0  0
 26 27  1  0  0  0
 28105  1  0  0  0
 28106  1  0  0  0
 29107  1  0  0  0
 29108  1  0  0  0
 33 34  1  0  0  0
 33 66  1  0  0  0
 33 70  2  0  0  0
 34 36  1  0  0  0
 34 59  1  0  0  0
 34109  1  0  0  0
 35 44  2  0  0  0
 35 45  1  0  0  0
 35 68  1  0  0  0
 36 56  1  0  0  0
 36110  1  0  0  0
 37 39  1  0  0  0
 37 47  1  0  0  0
 37 66  1  0  0  0
 37111  1  0  0  0
 38 43  2  0  0  0
 38 46  1  0  0  0
 38 47  1  0  0  0
 39 64  1  0  0  0
 39 67  2  0  0  0
 40 52  1  0  0  0
 40 53  2  0  0  0
 40 58  1  0  0  0
 41112  1  0  0  0
 41113  1  0  0  0
 41114  1  0  0  0
 41 48  1  0  0  0
 42 43  1  0  0  0
 42 66  1  0  0  0
 42115  1  0  0  0
 42116  1  0  0  0
 43 44  1  0  0  0
 44117  1  0  0  0
 45 46  2  0  0  0
 45118  1  0  0  0
 46119  1  0  0  0
 47120  1  0  0  0
 47121  1  0  0  0
 48 56  1  0  0  0
 48 65  1  0  0  0
 48122  1  0  0  0
 49 50  1  0  0  0
 49 53  1  0  0  0
 49 64  1  0  0  0
 49123  1  0  0  0
 50 51  1  0  0  0
 50124  1  0  0  0
 50125  1  0  0  0
 51 52  1  0  0  0
 51126  1  0  0  0
 51127  1  0  0  0
 52128  1  0  0  0
 52129  1  0  0  0
 53 54  1  0  0  0
 54 55  2  0  0  0
 54130  1  0  0  0
 55 57  1  0  0  0
 55131  1  0  0  0
 56 69  2  0  0  0
 57 58  2  0  0  0
 57132  1  0  0  0
 58133  1  0  0  0
 59 60  1  0  0  0
 59 61  1  0  0  0
 59 62  1  0  0  0
 60134  1  0  0  0
 60135  1  0  0  0
 60136  1  0  0  0
 61137  1  0  0  0
 61138  1  0  0  0
 61139  1  0  0  0
 62140  1  0  0  0
 62141  1  0  0  0
 62142  1  0  0  0
 63 65  1  0  0  0
 63143  1  0  0  0
 63144  1  0  0  0
 63145  1  0  0  0
 64146  1  0  0  0
 65147  1  0  0  0
 68 77  1  0  0  0
 71 73  2  0  0  0
 71 74  1  0  0  0
 71148  1  0  0  0
 72 74  2  0  0  0
 72 75  1  0  0  0
 72149  1  0  0  0
 73 76  1  0  0  0
 73 82  1  0  0  0
 74 83  1  0  0  0
 75 76  2  0  0  0
 75 87  1  0  0  0
 76 88  1  0  0  0
 77 78  2  0  0  0
 77150  1  0  0  0
 78 79  1  0  0  0
 78 86  1  0  0  0
 79 84  1  0  0  0
 79 85  2  0  0  0
 80 81  1  0  0  0
 80151  1  0  0  0
 80152  1  0  0  0
 80153  1  0  0  0
 81154  1  0  0  0
 81155  1  0  0  0
 81 82  1  0  0  0
 82 84  1  0  0  0
 82156  1  0  0  0
 83157  1  0  0  0
 84158  1  0  0  0
 86159  1  0  0  0
M  ISO  4   1 100  68 101  77 101  83 100
M  END
> <chiral flag>
0

> <version>
0

> <s_m_source_file>
/data/baiqing/PycharmProjects/Reinvent-master-3.2/result/LINK_invent/BTK/process_docking_weight1_custom_product_contain_oxygen_bond_distance_aromatic_linkinvent_7_9_3/rearranged_h_0175.sdf

> <i_m_source_file_index>
15

> <r_mmod_Potential_Energy-OPLS-2005>
71.2266082763672

> <r_mmod_Stretch_Energy-OPLS-2005>
76.3158645629883

> <r_mmod_Bend_Energy-OPLS-2005>
170.532913208008

> <r_mmod_Torsional_Energy-OPLS-2005>
267.032196044922

> <r_mmod_Improper_Torsional_Energy-OPLS-2005>
15.9042329788208

> <r_mmod_Van_der_Waal_Energy-OPLS-2005>
150.071105957031

> <r_mmod_Electrostatic_Energy-OPLS-2005>
-417.287475585938

> <r_mmod_Solvation_Energy-OPLS-2005>
-243.961807250977

> <b_mmod_Minimization_Converged-OPLS-2005>
0

> <r_mmod_RMS_Derivative-OPLS-2005>
1.625208735466

$$$$
16
                    3D
 Structure written by MMmdl.
156164  0  0  1  0            999 V2000
  -30.6660  -14.4935   20.5689 C   0  0  0  0  0  0
  -30.4376  -12.3200   19.4171 C   0  0  0  0  0  0
  -29.5003  -12.5095   18.2048 C   0  0  0  0  0  0
  -28.0211  -12.3653   18.6175 C   0  0  0  0  0  0
  -27.6654  -13.1995   19.8756 C   0  0  2  0  0  0
  -28.7077  -12.9657   20.9928 C   0  0  0  0  0  0
  -25.2612  -13.8125   20.5673 C   0  0  0  0  0  0
  -24.1850  -13.0423   20.9167 C   0  0  0  0  0  0
  -24.6385  -11.6883   20.8723 C   0  0  0  0  0  0
  -23.9046  -10.4278   21.0398 C   0  0  0  0  0  0
  -24.3599   -9.4198   21.9176 C   0  0  0  0  0  0
  -23.6274   -8.2234   22.0751 C   0  0  0  0  0  0
  -22.4256   -8.0270   21.3544 C   0  0  0  0  0  0
  -21.9889   -9.0244   20.4648 C   0  0  0  0  0  0
  -22.7221  -10.2119   20.3053 C   0  0  0  0  0  0
  -21.6845   -6.0724   22.5276 C   0  0  0  0  0  0
  -21.4016   -6.5629   23.8214 C   0  0  0  0  0  0
  -21.3664   -5.6780   24.9171 C   0  0  0  0  0  0
  -21.6042   -4.3045   24.7222 C   0  0  0  0  0  0
  -21.8818   -3.8139   23.4344 C   0  0  0  0  0  0
  -21.9197   -4.6956   22.3402 C   0  0  0  0  0  0
  -22.7880  -13.5244   21.1831 C   0  0  0  0  0  0
  -22.1660   -4.2145   21.0978 F   0  0  0  0  0  0
  -21.5629   -3.4528   25.7734 F   0  0  0  0  0  0
  -30.0391  -13.2915   20.4472 N   0  0  0  0  0  0
  -26.3040  -12.9281   20.3353 N   0  0  0  0  0  0
  -25.9316  -11.6447   20.5751 N   0  0  0  0  0  0
  -22.0509  -12.8250   22.0387 N   0  0  0  0  0  0
  -25.4346  -15.1840   20.4088 N   0  0  0  0  0  0
  -31.7873  -14.7209   20.1024 O   0  0  0  0  0  0
  -21.6629   -6.8865   21.4234 O   0  0  0  0  0  0
  -22.3574  -14.5563   20.6698 O   0  0  0  0  0  0
  -24.6178  -31.8656   23.2086 C   0  0  0  0  0  0
  -25.9064  -32.4806   23.8382 C   0  0  1  0  0  0
  -27.2332  -27.4074   20.0980 C   0  0  0  0  0  0
  -25.5906  -33.8607   24.2304 N   0  0  0  0  0  0
  -23.4062  -30.4903   21.5494 C   0  0  2  0  0  0
  -24.8516  -28.9550   20.1132 C   0  0  0  0  0  0
  -22.7421  -29.4657   22.4975 C   0  0  0  0  0  0
  -18.0270  -28.1394   22.8477 C   0  0  0  0  0  0
  -24.1482  -36.7317   23.2635 C   0  0  0  0  0  0
  -25.9378  -30.8232   21.3657 C   0  0  0  0  0  0
  -26.0139  -29.4565   20.7111 C   0  0  0  0  0  0
  -27.2060  -28.6918   20.6982 C   0  0  0  0  0  0
  -26.0471  -26.9306   19.4899 C   0  0  0  0  0  0
  -24.8653  -27.6930   19.4983 C   0  0  0  0  0  0
  -23.6154  -29.8243   20.1635 C   0  0  0  0  0  0
  -25.4102  -36.3102   24.0331 C   0  0  1  0  0  0
  -20.5862  -28.3683   23.1302 C   0  0  2  0  0  0
  -20.6768  -26.9415   22.5411 C   0  0  0  0  0  0
  -19.5748  -26.6397   21.5207 C   0  0  0  0  0  0
  -18.1925  -26.7934   22.1620 C   0  0  0  0  0  0
  -19.1519  -28.8855   23.2885 C   0  0  0  0  0  0
  -18.9453  -30.1460   23.8899 C   0  0  0  0  0  0
  -17.6458  -30.6595   24.0570 C   0  0  0  0  0  0
  -25.9037  -34.9470   23.5114 C   0  0  0  0  0  0
  -16.5347  -29.9101   23.6333 C   0  0  0  0  0  0
  -16.7260  -28.6524   23.0336 C   0  0  0  0  0  0
  -26.4477  -31.6601   25.0730 C   0  0  0  0  0  0
  -25.3740  -31.3734   26.1482 C   0  0  0  0  0  0
  -27.0312  -30.3035   24.6141 C   0  0  0  0  0  0
  -27.6039  -32.4335   25.7495 C   0  0  0  0  0  0
  -27.5577  -37.1806   24.8457 C   0  0  0  0  0  0
  -21.4147  -29.3045   22.3710 N   0  0  0  0  0  0
  -26.4282  -37.3795   23.9413 N   0  0  0  0  0  0
  -24.6723  -31.0748   22.0989 N   0  0  0  0  0  0
  -23.4178  -28.8194   23.3025 O   0  0  0  0  0  0
  -28.3987  -26.6566   20.1299 O   0  0  0  0  0  0
  -26.5603  -34.8928   22.4678 O   0  0  0  0  0  0
  -23.5369  -32.1411   23.7476 O   0  0  0  0  0  0
  -29.3262  -17.5540   19.9698 C   0  0  0  0  0  0
  -29.9957  -19.7482   20.8854 C   0  0  0  0  0  0
  -30.0362  -16.8723   20.9840 C   0  0  0  0  0  0
  -29.3104  -18.9690   19.9147 C   0  0  0  0  0  0
  -30.7178  -19.0515   21.8944 C   0  0  0  0  0  0
  -30.7387  -17.6362   21.9400 C   0  0  0  0  0  0
  -29.9342  -21.2703   20.8882 C   0  0  0  0  0  0
  -29.5714  -24.4594   20.1901 C   0  0  0  0  0  0
  -29.6944  -23.4417   17.7897 C   0  0  0  0  0  0
  -28.2971  -25.2511   19.7973 C   0  0  0  0  0  0
  -30.0791  -23.2891   19.2724 C   0  0  2  0  0  0
  -29.9094  -15.4561   21.1305 N   0  0  0  0  0  0
  -29.8780  -21.8773   19.6871 N   0  0  0  0  0  0
  -30.0140  -21.9017   21.9426 O   0  0  0  0  0  0
  -30.1920  -24.8022   21.2018 O   0  0  0  0  0  0
  -28.6097  -19.5661   18.9186 F   0  0  0  0  0  0
  -31.3981  -19.7299   22.8514 F   0  0  0  0  0  0
  -31.4081  -17.0110   22.9392 F   0  0  0  0  0  0
  -31.4791  -12.4411   19.1126 H   0  0  0  0  0  0
  -30.3581  -11.3057   19.8094 H   0  0  0  0  0  0
  -29.7398  -11.7834   17.4267 H   0  0  0  0  0  0
  -29.6636  -13.4931   17.7614 H   0  0  0  0  0  0
  -27.8314  -11.3089   18.8103 H   0  0  0  0  0  0
  -27.3720  -12.6415   17.7861 H   0  0  0  0  0  0
  -27.7134  -14.2485   19.5830 H   0  0  0  0  0  0
  -28.6902  -11.9228   21.3107 H   0  0  0  0  0  0
  -28.4625  -13.5400   21.8870 H   0  0  0  0  0  0
  -25.2744   -9.5671   22.4756 H   0  0  0  0  0  0
  -23.9981   -7.4622   22.7472 H   0  0  0  0  0  0
  -21.0819   -8.8771   19.8956 H   0  0  0  0  0  0
  -22.3681  -10.9659   19.6169 H   0  0  0  0  0  0
  -21.2004   -7.6135   23.9711 H   0  0  0  0  0  0
  -21.1490   -6.0511   25.9076 H   0  0  0  0  0  0
  -22.0600   -2.7601   23.2847 H   0  0  0  0  0  0
  -22.4105  -11.9914   22.4788 H   0  0  0  0  0  0
  -21.1143  -13.1316   22.2603 H   0  0  0  0  0  0
  -24.6679  -15.8398   20.5117 H   0  0  0  0  0  0
  -26.2828  -15.6194   20.0699 H   0  0  0  0  0  0
  -26.7133  -32.5502   23.1140 H   0  0  0  0  0  0
  -25.0051  -33.9755   25.0445 H   0  0  0  0  0  0
  -22.6964  -31.3083   21.4102 H   0  0  0  0  0  0
  -23.3737  -35.9658   23.3301 H   0  0  0  0  0  0
  -24.3575  -36.8936   22.2051 H   0  0  0  0  0  0
  -23.7243  -37.6527   23.6651 H   0  0  0  0  0  0
  -26.0562  -31.5890   20.5980 H   0  0  0  0  0  0
  -26.8237  -30.8737   21.9868 H   0  0  0  0  0  0
  -28.1017  -29.0776   21.1652 H   0  0  0  0  0  0
  -26.0060  -25.9686   19.0011 H   0  0  0  0  0  0
  -23.9731  -27.3023   19.0282 H   0  0  0  0  0  0
  -23.7263  -30.5995   19.4045 H   0  0  0  0  0  0
  -22.7386  -29.2466   19.8662 H   0  0  0  0  0  0
  -25.1277  -36.1959   25.0823 H   0  0  0  0  0  0
  -20.9940  -28.3258   24.1431 H   0  0  0  0  0  0
  -20.5679  -26.2290   23.3599 H   0  0  0  0  0  0
  -21.6638  -26.7472   22.1200 H   0  0  0  0  0  0
  -19.6914  -25.6308   21.1235 H   0  0  0  0  0  0
  -19.6692  -27.3210   20.6737 H   0  0  0  0  0  0
  -17.4188  -26.6657   21.4031 H   0  0  0  0  0  0
  -18.0346  -26.0087   22.9030 H   0  0  0  0  0  0
  -19.7933  -30.7272   24.2266 H   0  0  0  0  0  0
  -17.5021  -31.6274   24.5180 H   0  0  0  0  0  0
  -15.5350  -30.3011   23.7673 H   0  0  0  0  0  0
  -15.8651  -28.0867   22.7032 H   0  0  0  0  0  0
  -24.5879  -30.7114   25.7830 H   0  0  0  0  0  0
  -24.8977  -32.2908   26.4953 H   0  0  0  0  0  0
  -25.8093  -30.8881   27.0226 H   0  0  0  0  0  0
  -26.2873  -29.6798   24.1170 H   0  0  0  0  0  0
  -27.4034  -29.7278   25.4626 H   0  0  0  0  0  0
  -27.8730  -30.4338   23.9332 H   0  0  0  0  0  0
  -27.2630  -33.3606   26.2115 H   0  0  0  0  0  0
  -28.3828  -32.6946   25.0319 H   0  0  0  0  0  0
  -28.0731  -31.8442   26.5383 H   0  0  0  0  0  0
  -28.2584  -38.0114   24.7526 H   0  0  0  0  0  0
  -28.1080  -36.2649   24.6246 H   0  0  0  0  0  0
  -27.2301  -37.1421   25.8861 H   0  0  0  0  0  0
  -20.9312  -29.8765   21.6927 H   0  0  0  0  0  0
  -26.0167  -38.2868   24.1435 H   0  0  0  0  0  0
  -28.7640  -16.9968   19.2342 H   0  0  0  0  0  0
  -29.8545  -24.4604   17.4322 H   0  0  0  0  0  0
  -28.6488  -23.1821   17.6182 H   0  0  0  0  0  0
  -30.3023  -22.7898   17.1623 H   0  0  0  0  0  0
  -27.4606  -24.8013   20.3325 H   0  0  0  0  0  0
  -28.0943  -25.1554   18.7324 H   0  0  0  0  0  0
  -31.1650  -23.3956   19.2845 H   0  0  0  0  0  0
  -29.0219  -15.1291   21.4811 H   0  0  0  0  0  0
  -29.7474  -21.2299   18.9207 H   0  0  0  0  0  0
  1 25  1  0  0  0
  1 30  2  0  0  0
  1 82  1  0  0  0
  2  3  1  0  0  0
  2 25  1  0  0  0
  2 89  1  0  0  0
  2 90  1  0  0  0
  3  4  1  0  0  0
  3 91  1  0  0  0
  3 92  1  0  0  0
  4  5  1  0  0  0
  4 93  1  0  0  0
  4 94  1  0  0  0
  5  6  1  0  0  0
  5 26  1  0  0  0
  5 95  1  0  0  0
  6 25  1  0  0  0
  6 96  1  0  0  0
  6 97  1  0  0  0
  7  8  2  0  0  0
  7 26  1  0  0  0
  7 29  1  0  0  0
  8  9  1  0  0  0
  8 22  1  0  0  0
  9 10  1  0  0  0
  9 27  2  0  0  0
 10 11  2  0  0  0
 10 15  1  0  0  0
 11 12  1  0  0  0
 11 98  1  0  0  0
 12 13  2  0  0  0
 12 99  1  0  0  0
 13 14  1  0  0  0
 13 31  1  0  0  0
 14 15  2  0  0  0
 14100  1  0  0  0
 15101  1  0  0  0
 16 17  2  0  0  0
 16 21  1  0  0  0
 16 31  1  0  0  0
 17 18  1  0  0  0
 17102  1  0  0  0
 18 19  2  0  0  0
 18103  1  0  0  0
 19 20  1  0  0  0
 19 24  1  0  0  0
 20 21  2  0  0  0
 20104  1  0  0  0
 21 23  1  0  0  0
 22 28  1  0  0  0
 22 32  2  0  0  0
 26 27  1  0  0  0
 28105  1  0  0  0
 28106  1  0  0  0
 29107  1  0  0  0
 29108  1  0  0  0
 33 34  1  0  0  0
 33 66  1  0  0  0
 33 70  2  0  0  0
 34 36  1  0  0  0
 34 59  1  0  0  0
 34109  1  0  0  0
 35 44  2  0  0  0
 35 45  1  0  0  0
 35 68  1  0  0  0
 36 56  1  0  0  0
 36110  1  0  0  0
 37 39  1  0  0  0
 37 47  1  0  0  0
 37 66  1  0  0  0
 37111  1  0  0  0
 38 43  2  0  0  0
 38 46  1  0  0  0
 38 47  1  0  0  0
 39 64  1  0  0  0
 39 67  2  0  0  0
 40 52  1  0  0  0
 40 53  2  0  0  0
 40 58  1  0  0  0
 41112  1  0  0  0
 41113  1  0  0  0
 41114  1  0  0  0
 41 48  1  0  0  0
 42 43  1  0  0  0
 42 66  1  0  0  0
 42115  1  0  0  0
 42116  1  0  0  0
 43 44  1  0  0  0
 44117  1  0  0  0
 45 46  2  0  0  0
 45118  1  0  0  0
 46119  1  0  0  0
 47120  1  0  0  0
 47121  1  0  0  0
 48 56  1  0  0  0
 48 65  1  0  0  0
 48122  1  0  0  0
 49 50  1  0  0  0
 49 53  1  0  0  0
 49 64  1  0  0  0
 49123  1  0  0  0
 50 51  1  0  0  0
 50124  1  0  0  0
 50125  1  0  0  0
 51 52  1  0  0  0
 51126  1  0  0  0
 51127  1  0  0  0
 52128  1  0  0  0
 52129  1  0  0  0
 53 54  1  0  0  0
 54 55  2  0  0  0
 54130  1  0  0  0
 55 57  1  0  0  0
 55131  1  0  0  0
 56 69  2  0  0  0
 57 58  2  0  0  0
 57132  1  0  0  0
 58133  1  0  0  0
 59 60  1  0  0  0
 59 61  1  0  0  0
 59 62  1  0  0  0
 60134  1  0  0  0
 60135  1  0  0  0
 60136  1  0  0  0
 61137  1  0  0  0
 61138  1  0  0  0
 61139  1  0  0  0
 62140  1  0  0  0
 62141  1  0  0  0
 62142  1  0  0  0
 63 65  1  0  0  0
 63143  1  0  0  0
 63144  1  0  0  0
 63145  1  0  0  0
 64146  1  0  0  0
 65147  1  0  0  0
 68 80  1  0  0  0
 71 73  2  0  0  0
 71 74  1  0  0  0
 71148  1  0  0  0
 72 74  2  0  0  0
 72 75  1  0  0  0
 72 77  1  0  0  0
 73 76  1  0  0  0
 73 82  1  0  0  0
 74 86  1  0  0  0
 75 76  2  0  0  0
 75 87  1  0  0  0
 76 88  1  0  0  0
 77 83  1  0  0  0
 77 84  2  0  0  0
 78 80  1  0  0  0
 78 81  1  0  0  0
 78 85  2  0  0  0
 79149  1  0  0  0
 79150  1  0  0  0
 79151  1  0  0  0
 79 81  1  0  0  0
 80152  1  0  0  0
 80153  1  0  0  0
 81 83  1  0  0  0
 81154  1  0  0  0
 82155  1  0  0  0
 83156  1  0  0  0
M  ISO  4   1 100  68 101  80 101  82 100
M  END
> <chiral flag>
0

> <version>
0

> <s_m_source_file>
/data/baiqing/PycharmProjects/Reinvent-master-3.2/result/LINK_invent/BTK/process_docking_weight1_custom_product_contain_oxygen_bond_distance_aromatic_linkinvent_7_9_3/rearranged_h_0175.sdf

> <i_m_source_file_index>
16

> <r_mmod_Potential_Energy-OPLS-2005>
-37.9778289794922

> <r_mmod_Stretch_Energy-OPLS-2005>
45.6749992370605

> <r_mmod_Bend_Energy-OPLS-2005>
117.889671325684

> <r_mmod_Torsional_Energy-OPLS-2005>
249.584136962891

> <r_mmod_Improper_Torsional_Energy-OPLS-2005>
5.31648206710815

> <r_mmod_Van_der_Waal_Energy-OPLS-2005>
157.34196472168

> <r_mmod_Electrostatic_Energy-OPLS-2005>
-368.690582275391

> <r_mmod_Solvation_Energy-OPLS-2005>
-261.300811767578

> <b_mmod_Minimization_Converged-OPLS-2005>
0

> <r_mmod_RMS_Derivative-OPLS-2005>
1.32365572452545

$$$$
17
                    3D
 Structure written by MMmdl.
149157  0  0  1  0            999 V2000
  -30.6032  -14.8126   20.4255 C   0  0  0  0  0  0
  -30.4299  -12.4925   19.4915 C   0  0  0  0  0  0
  -29.5209  -12.5412   18.2447 C   0  0  0  0  0  0
  -28.0409  -12.3704   18.6427 C   0  0  0  0  0  0
  -27.6404  -13.2514   19.8580 C   0  0  2  0  0  0
  -28.6871  -13.2058   20.9952 C   0  0  0  0  0  0
  -25.2505  -13.8251   20.5805 C   0  0  0  0  0  0
  -24.1807  -13.0466   20.9222 C   0  0  0  0  0  0
  -24.6403  -11.6936   20.8701 C   0  0  0  0  0  0
  -23.9070  -10.4306   21.0365 C   0  0  0  0  0  0
  -24.3621   -9.4226   21.9164 C   0  0  0  0  0  0
  -23.6297   -8.2271   22.0758 C   0  0  0  0  0  0
  -22.4283   -8.0278   21.3545 C   0  0  0  0  0  0
  -21.9889   -9.0246   20.4654 C   0  0  0  0  0  0
  -22.7215  -10.2130   20.3033 C   0  0  0  0  0  0
  -21.6851   -6.0741   22.5270 C   0  0  0  0  0  0
  -21.4031   -6.5648   23.8199 C   0  0  0  0  0  0
  -21.3680   -5.6797   24.9164 C   0  0  0  0  0  0
  -21.6028   -4.3052   24.7217 C   0  0  0  0  0  0
  -21.8819   -3.8157   23.4341 C   0  0  0  0  0  0
  -21.9198   -4.6972   22.3396 C   0  0  0  0  0  0
  -22.7814  -13.5226   21.1894 C   0  0  0  0  0  0
  -22.1664   -4.2180   21.0962 F   0  0  0  0  0  0
  -21.5620   -3.4528   25.7719 F   0  0  0  0  0  0
  -29.9848  -13.5709   20.4126 N   0  0  0  0  0  0
  -26.2938  -12.9501   20.3314 N   0  0  0  0  0  0
  -25.9349  -11.6612   20.5714 N   0  0  0  0  0  0
  -22.0448  -12.8217   22.0423 N   0  0  0  0  0  0
  -25.4171  -15.2007   20.4392 N   0  0  0  0  0  0
  -31.7983  -14.8674   20.1112 O   0  0  0  0  0  0
  -21.6635   -6.8876   21.4234 O   0  0  0  0  0  0
  -22.3491  -14.5539   20.6766 O   0  0  0  0  0  0
  -24.6400  -31.8485   23.1943 C   0  0  0  0  0  0
  -25.9213  -32.4706   23.8304 C   0  0  1  0  0  0
  -27.2321  -27.1968   20.1500 C   0  0  0  0  0  0
  -25.6019  -33.8525   24.2234 N   0  0  0  0  0  0
  -23.4410  -30.4712   21.5339 C   0  0  2  0  0  0
  -24.8904  -28.9051   20.1048 C   0  0  0  0  0  0
  -22.7547  -29.4603   22.4858 C   0  0  0  0  0  0
  -18.0325  -28.1395   22.8487 C   0  0  0  0  0  0
  -24.1513  -36.7247   23.2637 C   0  0  0  0  0  0
  -25.9915  -30.7353   21.3917 C   0  0  0  0  0  0
  -26.0598  -29.3557   20.7264 C   0  0  0  0  0  0
  -27.2257  -28.5153   20.7374 C   0  0  0  0  0  0
  -26.0335  -26.8241   19.4936 C   0  0  0  0  0  0
  -24.8860  -27.6498   19.4730 C   0  0  0  0  0  0
  -23.6654  -29.8041   20.1493 C   0  0  0  0  0  0
  -25.4142  -36.3036   24.0319 C   0  0  1  0  0  0
  -20.5930  -28.3742   23.1228 C   0  0  2  0  0  0
  -20.6819  -26.9445   22.5398 C   0  0  0  0  0  0
  -19.5780  -26.6383   21.5223 C   0  0  0  0  0  0
  -18.1961  -26.7946   22.1620 C   0  0  0  0  0  0
  -19.1573  -28.8884   23.2853 C   0  0  0  0  0  0
  -18.9489  -30.1483   23.8874 C   0  0  0  0  0  0
  -17.6487  -30.6599   24.0565 C   0  0  0  0  0  0
  -25.9088  -34.9412   23.5063 C   0  0  0  0  0  0
  -16.5382  -29.9088   23.6338 C   0  0  0  0  0  0
  -16.7311  -28.6500   23.0366 C   0  0  0  0  0  0
  -26.4563  -31.6558   25.0727 C   0  0  0  0  0  0
  -25.3767  -31.3751   26.1428 C   0  0  0  0  0  0
  -27.0422  -30.2946   24.6308 C   0  0  0  0  0  0
  -27.6103  -32.4317   25.7510 C   0  0  0  0  0  0
  -27.5585  -37.1790   24.8469 C   0  0  0  0  0  0
  -21.4251  -29.3071   22.3585 N   0  0  0  0  0  0
  -26.4308  -37.3740   23.9394 N   0  0  0  0  0  0
  -24.7086  -31.0414   22.0934 N   0  0  0  0  0  0
  -23.4201  -28.8180   23.3021 O   0  0  0  0  0  0
  -28.3250  -26.2799   20.2656 O   0  0  0  0  0  0
  -26.5627  -34.8906   22.4616 O   0  0  0  0  0  0
  -23.5542  -32.1371   23.7187 O   0  0  0  0  0  0
  -30.3397  -18.6081   17.9758 C   0  0  0  0  0  0
  -29.9884  -19.8095   18.6130 C   0  0  0  0  0  0
  -30.3000  -17.3836   18.6656 C   0  0  0  0  0  0
  -29.5693  -19.8339   19.9588 C   0  0  0  0  0  0
  -29.9354  -17.3499   20.0370 C   0  0  0  0  0  0
  -28.2696  -24.8826   19.8902 C   0  0  0  0  0  0
  -28.8071  -23.7340   20.5031 C   0  0  0  0  0  0
  -28.6980  -22.3338   19.8866 C   0  0  0  0  0  0
  -29.5739  -18.5870   20.6346 N   0  0  0  0  0  0
  -29.2629  -21.2062   20.5124 N   0  0  0  0  0  0
  -29.8625  -15.9817   20.6654 N   0  0  0  0  0  0
  -28.0790  -22.1762   18.8318 O   0  0  0  0  0  0
  -29.4672  -23.8476   21.6669 O   0  0  0  0  0  0
  -30.5756  -16.2531   17.9685 F   0  0  0  0  0  0
  -31.4752  -12.6023   19.1974 H   0  0  0  0  0  0
  -30.3611  -11.5179   19.9768 H   0  0  0  0  0  0
  -29.8109  -11.7716   17.5275 H   0  0  0  0  0  0
  -29.6606  -13.4978   17.7363 H   0  0  0  0  0  0
  -27.8778  -11.3172   18.8739 H   0  0  0  0  0  0
  -27.3958  -12.5957   17.7933 H   0  0  0  0  0  0
  -27.6255  -14.2760   19.4878 H   0  0  0  0  0  0
  -28.7304  -12.2143   21.4488 H   0  0  0  0  0  0
  -28.4168  -13.8978   21.7940 H   0  0  0  0  0  0
  -25.2770   -9.5718   22.4742 H   0  0  0  0  0  0
  -23.9983   -7.4676   22.7485 H   0  0  0  0  0  0
  -21.0803   -8.8750   19.8979 H   0  0  0  0  0  0
  -22.3658  -10.9655   19.6135 H   0  0  0  0  0  0
  -21.2062   -7.6155   23.9709 H   0  0  0  0  0  0
  -21.1487   -6.0541   25.9058 H   0  0  0  0  0  0
  -22.0599   -2.7643   23.2828 H   0  0  0  0  0  0
  -22.3946  -11.9821   22.4784 H   0  0  0  0  0  0
  -21.1078  -13.1275   22.2634 H   0  0  0  0  0  0
  -24.6704  -15.8567   20.6427 H   0  0  0  0  0  0
  -26.2700  -15.6587   20.1452 H   0  0  0  0  0  0
  -26.7290  -32.5314   23.1042 H   0  0  0  0  0  0
  -25.0289  -33.9659   25.0466 H   0  0  0  0  0  0
  -22.7438  -31.2970   21.3838 H   0  0  0  0  0  0
  -23.3771  -35.9587   23.3335 H   0  0  0  0  0  0
  -24.3597  -36.8821   22.2038 H   0  0  0  0  0  0
  -23.7281  -37.6468   23.6644 H   0  0  0  0  0  0
  -26.1599  -31.4995   20.6320 H   0  0  0  0  0  0
  -26.8563  -30.7687   22.0432 H   0  0  0  0  0  0
  -28.1157  -28.8503   21.2514 H   0  0  0  0  0  0
  -25.9419  -25.8567   19.0242 H   0  0  0  0  0  0
  -23.9896  -27.3002   18.9787 H   0  0  0  0  0  0
  -23.8027  -30.5822   19.3973 H   0  0  0  0  0  0
  -22.7818  -29.2465   19.8366 H   0  0  0  0  0  0
  -25.1338  -36.1867   25.0813 H   0  0  0  0  0  0
  -21.0035  -28.3341   24.1341 H   0  0  0  0  0  0
  -20.5737  -26.2367   23.3620 H   0  0  0  0  0  0
  -21.6684  -26.7480   22.1158 H   0  0  0  0  0  0
  -19.6946  -25.6284   21.1270 H   0  0  0  0  0  0
  -19.6715  -27.3174   20.6732 H   0  0  0  0  0  0
  -17.4236  -26.6731   21.4001 H   0  0  0  0  0  0
  -18.0341  -26.0078   22.8996 H   0  0  0  0  0  0
  -19.7969  -30.7306   24.2219 H   0  0  0  0  0  0
  -17.5042  -31.6274   24.5166 H   0  0  0  0  0  0
  -15.5379  -30.2980   23.7661 H   0  0  0  0  0  0
  -15.8716  -28.0798   22.7102 H   0  0  0  0  0  0
  -24.5949  -30.7099   25.7749 H   0  0  0  0  0  0
  -24.8975  -32.2940   26.4809 H   0  0  0  0  0  0
  -25.8057  -30.8947   27.0225 H   0  0  0  0  0  0
  -26.3027  -29.6656   24.1331 H   0  0  0  0  0  0
  -27.4049  -29.7267   25.4887 H   0  0  0  0  0  0
  -27.8953  -30.4186   23.9630 H   0  0  0  0  0  0
  -27.2698  -33.3630   26.2055 H   0  0  0  0  0  0
  -28.3932  -32.6831   25.0343 H   0  0  0  0  0  0
  -28.0757  -31.8456   26.5444 H   0  0  0  0  0  0
  -28.2596  -38.0088   24.7482 H   0  0  0  0  0  0
  -28.1086  -36.2609   24.6346 H   0  0  0  0  0  0
  -27.2295  -37.1482   25.8871 H   0  0  0  0  0  0
  -20.9457  -29.8763   21.6748 H   0  0  0  0  0  0
  -26.0174  -38.2818   24.1367 H   0  0  0  0  0  0
  -30.6317  -18.6194   16.9358 H   0  0  0  0  0  0
  -30.0450  -20.7190   18.0310 H   0  0  0  0  0  0
  -27.7566  -24.7712   18.9454 H   0  0  0  0  0  0
  -29.5706  -21.3651   21.4612 H   0  0  0  0  0  0
  -29.0336  -15.8373   21.2187 H   0  0  0  0  0  0
  -29.5011  -24.7684   21.8970 H   0  0  0  0  0  0
  1 25  1  0  0  0
  1 30  2  0  0  0
  1 81  1  0  0  0
  2  3  1  0  0  0
  2 25  1  0  0  0
  2 85  1  0  0  0
  2 86  1  0  0  0
  3  4  1  0  0  0
  3 87  1  0  0  0
  3 88  1  0  0  0
  4  5  1  0  0  0
  4 89  1  0  0  0
  4 90  1  0  0  0
  5  6  1  0  0  0
  5 26  1  0  0  0
  5 91  1  0  0  0
  6 25  1  0  0  0
  6 92  1  0  0  0
  6 93  1  0  0  0
  7  8  2  0  0  0
  7 26  1  0  0  0
  7 29  1  0  0  0
  8  9  1  0  0  0
  8 22  1  0  0  0
  9 10  1  0  0  0
  9 27  2  0  0  0
 10 11  2  0  0  0
 10 15  1  0  0  0
 11 12  1  0  0  0
 11 94  1  0  0  0
 12 13  2  0  0  0
 12 95  1  0  0  0
 13 14  1  0  0  0
 13 31  1  0  0  0
 14 15  2  0  0  0
 14 96  1  0  0  0
 15 97  1  0  0  0
 16 17  2  0  0  0
 16 21  1  0  0  0
 16 31  1  0  0  0
 17 18  1  0  0  0
 17 98  1  0  0  0
 18 19  2  0  0  0
 18 99  1  0  0  0
 19 20  1  0  0  0
 19 24  1  0  0  0
 20 21  2  0  0  0
 20100  1  0  0  0
 21 23  1  0  0  0
 22 28  1  0  0  0
 22 32  2  0  0  0
 26 27  1  0  0  0
 28101  1  0  0  0
 28102  1  0  0  0
 29103  1  0  0  0
 29104  1  0  0  0
 33 34  1  0  0  0
 33 66  1  0  0  0
 33 70  2  0  0  0
 34 36  1  0  0  0
 34 59  1  0  0  0
 34105  1  0  0  0
 35 44  2  0  0  0
 35 45  1  0  0  0
 35 68  1  0  0  0
 36 56  1  0  0  0
 36106  1  0  0  0
 37 39  1  0  0  0
 37 47  1  0  0  0
 37 66  1  0  0  0
 37107  1  0  0  0
 38 43  2  0  0  0
 38 46  1  0  0  0
 38 47  1  0  0  0
 39 64  1  0  0  0
 39 67  2  0  0  0
 40 52  1  0  0  0
 40 53  2  0  0  0
 40 58  1  0  0  0
 41108  1  0  0  0
 41109  1  0  0  0
 41110  1  0  0  0
 41 48  1  0  0  0
 42 43  1  0  0  0
 42 66  1  0  0  0
 42111  1  0  0  0
 42112  1  0  0  0
 43 44  1  0  0  0
 44113  1  0  0  0
 45 46  2  0  0  0
 45114  1  0  0  0
 46115  1  0  0  0
 47116  1  0  0  0
 47117  1  0  0  0
 48 56  1  0  0  0
 48 65  1  0  0  0
 48118  1  0  0  0
 49 50  1  0  0  0
 49 53  1  0  0  0
 49 64  1  0  0  0
 49119  1  0  0  0
 50 51  1  0  0  0
 50120  1  0  0  0
 50121  1  0  0  0
 51 52  1  0  0  0
 51122  1  0  0  0
 51123  1  0  0  0
 52124  1  0  0  0
 52125  1  0  0  0
 53 54  1  0  0  0
 54 55  2  0  0  0
 54126  1  0  0  0
 55 57  1  0  0  0
 55127  1  0  0  0
 56 69  2  0  0  0
 57 58  2  0  0  0
 57128  1  0  0  0
 58129  1  0  0  0
 59 60  1  0  0  0
 59 61  1  0  0  0
 59 62  1  0  0  0
 60130  1  0  0  0
 60131  1  0  0  0
 60132  1  0  0  0
 61133  1  0  0  0
 61134  1  0  0  0
 61135  1  0  0  0
 62136  1  0  0  0
 62137  1  0  0  0
 62138  1  0  0  0
 63 65  1  0  0  0
 63139  1  0  0  0
 63140  1  0  0  0
 63141  1  0  0  0
 64142  1  0  0  0
 65143  1  0  0  0
 68 76  1  0  0  0
 71 72  2  0  0  0
 71 73  1  0  0  0
 71144  1  0  0  0
 72 74  1  0  0  0
 72145  1  0  0  0
 73 75  2  0  0  0
 73 84  1  0  0  0
 74 79  2  0  0  0
 74 80  1  0  0  0
 75 79  1  0  0  0
 75 81  1  0  0  0
 76 77  2  0  0  0
 76146  1  0  0  0
 77 78  1  0  0  0
 77 83  1  0  0  0
 78 80  1  0  0  0
 78 82  2  0  0  0
 80147  1  0  0  0
 81148  1  0  0  0
 83149  1  0  0  0
M  ISO  4   1 100  68 101  76 101  81 100
M  END
> <chiral flag>
0

> <version>
0

> <s_m_source_file>
/data/baiqing/PycharmProjects/Reinvent-master-3.2/result/LINK_invent/BTK/process_docking_weight1_custom_product_contain_oxygen_bond_distance_aromatic_linkinvent_7_9_3/rearranged_h_0175.sdf

> <i_m_source_file_index>
17

> <r_mmod_Potential_Energy-OPLS-2005>
69.7057876586914

> <r_mmod_Stretch_Energy-OPLS-2005>
173.065582275391

> <r_mmod_Bend_Energy-OPLS-2005>
179.303787231445

> <r_mmod_Torsional_Energy-OPLS-2005>
246.76106262207

> <r_mmod_Improper_Torsional_Energy-OPLS-2005>
4.27080678939819

> <r_mmod_Van_der_Waal_Energy-OPLS-2005>
145.846405029297

> <r_mmod_Electrostatic_Energy-OPLS-2005>
-567.504211425781

> <r_mmod_Solvation_Energy-OPLS-2005>
-234.241256713867

> <b_mmod_Minimization_Converged-OPLS-2005>
0

> <r_mmod_RMS_Derivative-OPLS-2005>
4.81152868270874

$$$$
18
                    3D
 Structure written by MMmdl.
153161  0  0  1  0            999 V2000
  -30.6976  -14.4837   20.5559 C   0  0  0  0  0  0
  -30.4269  -12.3025   19.4325 C   0  0  0  0  0  0
  -29.5002  -12.4984   18.2139 C   0  0  0  0  0  0
  -28.0207  -12.3595   18.6250 C   0  0  0  0  0  0
  -27.6644  -13.2052   19.8765 C   0  0  2  0  0  0
  -28.7054  -12.9919   21.0000 C   0  0  0  0  0  0
  -25.2606  -13.8158   20.5697 C   0  0  0  0  0  0
  -24.1849  -13.0435   20.9182 C   0  0  0  0  0  0
  -24.6395  -11.6904   20.8729 C   0  0  0  0  0  0
  -23.9061  -10.4295   21.0398 C   0  0  0  0  0  0
  -24.3617   -9.4212   21.9176 C   0  0  0  0  0  0
  -23.6298   -8.2246   22.0744 C   0  0  0  0  0  0
  -22.4274   -8.0284   21.3545 C   0  0  0  0  0  0
  -21.9914   -9.0248   20.4641 C   0  0  0  0  0  0
  -22.7236  -10.2135   20.3048 C   0  0  0  0  0  0
  -21.6859   -6.0737   22.5282 C   0  0  0  0  0  0
  -21.4014   -6.5636   23.8213 C   0  0  0  0  0  0
  -21.3659   -5.6791   24.9176 C   0  0  0  0  0  0
  -21.6043   -4.3053   24.7231 C   0  0  0  0  0  0
  -21.8818   -3.8148   23.4351 C   0  0  0  0  0  0
  -21.9193   -4.6963   22.3407 C   0  0  0  0  0  0
  -22.7871  -13.5235   21.1860 C   0  0  0  0  0  0
  -22.1663   -4.2146   21.0986 F   0  0  0  0  0  0
  -21.5634   -3.4536   25.7745 F   0  0  0  0  0  0
  -30.0410  -13.2928   20.4509 N   0  0  0  0  0  0
  -26.3041  -12.9319   20.3371 N   0  0  0  0  0  0
  -25.9324  -11.6484   20.5765 N   0  0  0  0  0  0
  -22.0529  -12.8207   22.0413 N   0  0  0  0  0  0
  -25.4361  -15.1871   20.4131 N   0  0  0  0  0  0
  -31.8276  -14.6564   20.0881 O   0  0  0  0  0  0
  -21.6644   -6.8876   21.4242 O   0  0  0  0  0  0
  -22.3561  -14.5548   20.6726 O   0  0  0  0  0  0
  -24.6128  -31.8674   23.2122 C   0  0  0  0  0  0
  -25.9017  -32.4828   23.8415 C   0  0  1  0  0  0
  -27.2289  -27.4213   20.1044 C   0  0  0  0  0  0
  -25.5900  -33.8638   24.2337 N   0  0  0  0  0  0
  -23.4007  -30.4909   21.5535 C   0  0  2  0  0  0
  -24.8482  -28.9602   20.1149 C   0  0  0  0  0  0
  -22.7392  -29.4638   22.5003 C   0  0  0  0  0  0
  -18.0252  -28.1353   22.8491 C   0  0  0  0  0  0
  -24.1491  -36.7319   23.2642 C   0  0  0  0  0  0
  -25.9315  -30.8305   21.3668 C   0  0  0  0  0  0
  -26.0100  -29.4648   20.7131 C   0  0  0  0  0  0
  -27.2042  -28.7045   20.7023 C   0  0  0  0  0  0
  -26.0524  -26.9441   19.4845 C   0  0  0  0  0  0
  -24.8660  -27.7008   19.4940 C   0  0  0  0  0  0
  -23.6084  -29.8257   20.1677 C   0  0  0  0  0  0
  -25.4112  -36.3111   24.0328 C   0  0  1  0  0  0
  -20.5847  -28.3637   23.1327 C   0  0  2  0  0  0
  -20.6743  -26.9377   22.5416 C   0  0  0  0  0  0
  -19.5730  -26.6364   21.5206 C   0  0  0  0  0  0
  -18.1906  -26.7905   22.1609 C   0  0  0  0  0  0
  -19.1503  -28.8806   23.2910 C   0  0  0  0  0  0
  -18.9437  -30.1428   23.8908 C   0  0  0  0  0  0
  -17.6440  -30.6578   24.0553 C   0  0  0  0  0  0
  -25.9024  -34.9478   23.5114 C   0  0  0  0  0  0
  -16.5327  -29.9074   23.6333 C   0  0  0  0  0  0
  -16.7239  -28.6486   23.0359 C   0  0  0  0  0  0
  -26.4466  -31.6613   25.0741 C   0  0  0  0  0  0
  -25.3750  -31.3714   26.1504 C   0  0  0  0  0  0
  -27.0302  -30.3057   24.6118 C   0  0  0  0  0  0
  -27.6036  -32.4352   25.7495 C   0  0  0  0  0  0
  -27.5580  -37.1812   24.8459 C   0  0  0  0  0  0
  -21.4119  -29.3022   22.3749 N   0  0  0  0  0  0
  -26.4298  -37.3793   23.9398 N   0  0  0  0  0  0
  -24.6667  -31.0769   22.1026 N   0  0  0  0  0  0
  -23.4164  -28.8154   23.3021 O   0  0  0  0  0  0
  -28.3848  -26.6638   20.1100 O   0  0  0  0  0  0
  -26.5582  -34.8908   22.4674 O   0  0  0  0  0  0
  -23.5323  -32.1431   23.7513 O   0  0  0  0  0  0
  -30.7335  -18.9014   20.0375 C   0  0  0  0  0  0
  -29.5626  -19.3224   20.6444 C   0  0  0  0  0  0
  -30.0341  -16.8868   20.8881 C   0  0  0  0  0  0
  -29.3342  -24.3742   19.9278 C   0  0  0  0  0  0
  -31.6827  -19.7120   19.2065 C   0  0  0  0  0  0
  -28.2214  -25.2776   20.4974 C   0  0  0  0  0  0
  -29.6000  -21.8718   20.6751 C   0  0  0  0  0  0
  -28.9896  -22.8862   19.6654 C   0  0  2  0  0  0
  -30.9892  -17.5260   20.1977 N   0  0  0  0  0  0
  -28.9086  -20.5700   20.6670 N   0  0  0  0  0  0
  -29.9816  -15.4764   21.1219 N   0  0  0  0  0  0
  -30.4583  -24.8267   19.6768 O   0  0  0  0  0  0
  -29.3866  -22.5412   18.4362 F   0  0  0  0  0  0
  -28.7610  -17.9749   21.4321 S   0  0  0  0  0  0
  -31.4727  -12.3929   19.1331 H   0  0  0  0  0  0
  -30.3212  -11.2938   19.8349 H   0  0  0  0  0  0
  -29.7411  -11.7696   17.4389 H   0  0  0  0  0  0
  -29.6719  -13.4822   17.7744 H   0  0  0  0  0  0
  -27.8348  -11.3043   18.8277 H   0  0  0  0  0  0
  -27.3703  -12.6260   17.7911 H   0  0  0  0  0  0
  -27.7081  -14.2525   19.5763 H   0  0  0  0  0  0
  -28.6783  -11.9583   21.3486 H   0  0  0  0  0  0
  -28.4616  -13.5962   21.8751 H   0  0  0  0  0  0
  -25.2763   -9.5685   22.4744 H   0  0  0  0  0  0
  -24.0008   -7.4635   22.7452 H   0  0  0  0  0  0
  -21.0849   -8.8757   19.8945 H   0  0  0  0  0  0
  -22.3687  -10.9664   19.6150 H   0  0  0  0  0  0
  -21.1999   -7.6143   23.9711 H   0  0  0  0  0  0
  -21.1486   -6.0529   25.9077 H   0  0  0  0  0  0
  -22.0597   -2.7609   23.2862 H   0  0  0  0  0  0
  -22.4154  -11.9851   22.4758 H   0  0  0  0  0  0
  -21.1148  -13.1215   22.2639 H   0  0  0  0  0  0
  -24.6740  -15.8468   20.5257 H   0  0  0  0  0  0
  -26.2875  -15.6225   20.0833 H   0  0  0  0  0  0
  -26.7076  -32.5534   23.1174 H   0  0  0  0  0  0
  -25.0115  -33.9839   25.0518 H   0  0  0  0  0  0
  -22.6890  -31.3075   21.4173 H   0  0  0  0  0  0
  -23.3744  -35.9663   23.3315 H   0  0  0  0  0  0
  -24.3583  -36.8929   22.2054 H   0  0  0  0  0  0
  -23.7242  -37.6527   23.6654 H   0  0  0  0  0  0
  -26.0419  -31.5958   20.5979 H   0  0  0  0  0  0
  -26.8194  -30.8864   21.9845 H   0  0  0  0  0  0
  -28.0987  -29.0898   21.1727 H   0  0  0  0  0  0
  -26.0371  -25.9912   18.9765 H   0  0  0  0  0  0
  -23.9779  -27.3137   19.0137 H   0  0  0  0  0  0
  -23.7062  -30.6013   19.4076 H   0  0  0  0  0  0
  -22.7339  -29.2410   19.8770 H   0  0  0  0  0  0
  -25.1286  -36.1990   25.0821 H   0  0  0  0  0  0
  -20.9930  -28.3192   24.1450 H   0  0  0  0  0  0
  -20.5636  -26.2242   23.3593 H   0  0  0  0  0  0
  -21.6618  -26.7418   22.1219 H   0  0  0  0  0  0
  -19.6897  -25.6278   21.1235 H   0  0  0  0  0  0
  -19.6683  -27.3174   20.6737 H   0  0  0  0  0  0
  -17.4178  -26.6652   21.4008 H   0  0  0  0  0  0
  -18.0309  -26.0045   22.8996 H   0  0  0  0  0  0
  -19.7919  -30.7244   24.2277 H   0  0  0  0  0  0
  -17.4997  -31.6268   24.5136 H   0  0  0  0  0  0
  -15.5333  -30.2969   23.7669 H   0  0  0  0  0  0
  -15.8637  -28.0808   22.7077 H   0  0  0  0  0  0
  -24.5922  -30.7050   25.7859 H   0  0  0  0  0  0
  -24.8947  -32.2869   26.4974 H   0  0  0  0  0  0
  -25.8135  -30.8885   27.0248 H   0  0  0  0  0  0
  -26.2845  -29.6816   24.1181 H   0  0  0  0  0  0
  -27.4076  -29.7298   25.4578 H   0  0  0  0  0  0
  -27.8674  -30.4374   23.9260 H   0  0  0  0  0  0
  -27.2646  -33.3645   26.2094 H   0  0  0  0  0  0
  -28.3837  -32.6940   25.0319 H   0  0  0  0  0  0
  -28.0719  -31.8476   26.5404 H   0  0  0  0  0  0
  -28.2602  -38.0107   24.7505 H   0  0  0  0  0  0
  -28.1072  -36.2634   24.6292 H   0  0  0  0  0  0
  -27.2300  -37.1476   25.8865 H   0  0  0  0  0  0
  -20.9248  -29.8795   21.7037 H   0  0  0  0  0  0
  -26.0185  -38.2872   24.1411 H   0  0  0  0  0  0
  -31.1534  -20.4564   18.6118 H   0  0  0  0  0  0
  -32.2395  -19.0890   18.5073 H   0  0  0  0  0  0
  -32.4077  -20.2352   19.8292 H   0  0  0  0  0  0
  -28.2600  -25.2162   21.5849 H   0  0  0  0  0  0
  -27.2602  -24.8623   20.2017 H   0  0  0  0  0  0
  -29.5038  -22.2783   21.6830 H   0  0  0  0  0  0
  -30.6706  -21.7668   20.5041 H   0  0  0  0  0  0
  -27.9036  -22.7987   19.6702 H   0  0  0  0  0  0
  -27.9795  -20.5817   21.0812 H   0  0  0  0  0  0
  -29.1363  -15.1613   21.5705 H   0  0  0  0  0  0
  1 25  1  0  0  0
  1 30  2  0  0  0
  1 81  1  0  0  0
  2  3  1  0  0  0
  2 25  1  0  0  0
  2 85  1  0  0  0
  2 86  1  0  0  0
  3  4  1  0  0  0
  3 87  1  0  0  0
  3 88  1  0  0  0
  4  5  1  0  0  0
  4 89  1  0  0  0
  4 90  1  0  0  0
  5  6  1  0  0  0
  5 26  1  0  0  0
  5 91  1  0  0  0
  6 25  1  0  0  0
  6 92  1  0  0  0
  6 93  1  0  0  0
  7  8  2  0  0  0
  7 26  1  0  0  0
  7 29  1  0  0  0
  8  9  1  0  0  0
  8 22  1  0  0  0
  9 10  1  0  0  0
  9 27  2  0  0  0
 10 11  2  0  0  0
 10 15  1  0  0  0
 11 12  1  0  0  0
 11 94  1  0  0  0
 12 13  2  0  0  0
 12 95  1  0  0  0
 13 14  1  0  0  0
 13 31  1  0  0  0
 14 15  2  0  0  0
 14 96  1  0  0  0
 15 97  1  0  0  0
 16 17  2  0  0  0
 16 21  1  0  0  0
 16 31  1  0  0  0
 17 18  1  0  0  0
 17 98  1  0  0  0
 18 19  2  0  0  0
 18 99  1  0  0  0
 19 20  1  0  0  0
 19 24  1  0  0  0
 20 21  2  0  0  0
 20100  1  0  0  0
 21 23  1  0  0  0
 22 28  1  0  0  0
 22 32  2  0  0  0
 26 27  1  0  0  0
 28101  1  0  0  0
 28102  1  0  0  0
 29103  1  0  0  0
 29104  1  0  0  0
 33 34  1  0  0  0
 33 66  1  0  0  0
 33 70  2  0  0  0
 34 36  1  0  0  0
 34 59  1  0  0  0
 34105  1  0  0  0
 35 44  2  0  0  0
 35 45  1  0  0  0
 35 68  1  0  0  0
 36 56  1  0  0  0
 36106  1  0  0  0
 37 39  1  0  0  0
 37 47  1  0  0  0
 37 66  1  0  0  0
 37107  1  0  0  0
 38 43  2  0  0  0
 38 46  1  0  0  0
 38 47  1  0  0  0
 39 64  1  0  0  0
 39 67  2  0  0  0
 40 52  1  0  0  0
 40 53  2  0  0  0
 40 58  1  0  0  0
 41108  1  0  0  0
 41109  1  0  0  0
 41110  1  0  0  0
 41 48  1  0  0  0
 42 43  1  0  0  0
 42 66  1  0  0  0
 42111  1  0  0  0
 42112  1  0  0  0
 43 44  1  0  0  0
 44113  1  0  0  0
 45 46  2  0  0  0
 45114  1  0  0  0
 46115  1  0  0  0
 47116  1  0  0  0
 47117  1  0  0  0
 48 56  1  0  0  0
 48 65  1  0  0  0
 48118  1  0  0  0
 49 50  1  0  0  0
 49 53  1  0  0  0
 49 64  1  0  0  0
 49119  1  0  0  0
 50 51  1  0  0  0
 50120  1  0  0  0
 50121  1  0  0  0
 51 52  1  0  0  0
 51122  1  0  0  0
 51123  1  0  0  0
 52124  1  0  0  0
 52125  1  0  0  0
 53 54  1  0  0  0
 54 55  2  0  0  0
 54126  1  0  0  0
 55 57  1  0  0  0
 55127  1  0  0  0
 56 69  2  0  0  0
 57 58  2  0  0  0
 57128  1  0  0  0
 58129  1  0  0  0
 59 60  1  0  0  0
 59 61  1  0  0  0
 59 62  1  0  0  0
 60130  1  0  0  0
 60131  1  0  0  0
 60132  1  0  0  0
 61133  1  0  0  0
 61134  1  0  0  0
 61135  1  0  0  0
 62136  1  0  0  0
 62137  1  0  0  0
 62138  1  0  0  0
 63 65  1  0  0  0
 63139  1  0  0  0
 63140  1  0  0  0
 63141  1  0  0  0
 64142  1  0  0  0
 65143  1  0  0  0
 68 76  1  0  0  0
 71 72  2  0  0  0
 71 75  1  0  0  0
 71 79  1  0  0  0
 72 80  1  0  0  0
 72 84  1  0  0  0
 73 79  2  0  0  0
 73 81  1  0  0  0
 73 84  1  0  0  0
 74 76  1  0  0  0
 74 78  1  0  0  0
 74 82  2  0  0  0
 75144  1  0  0  0
 75145  1  0  0  0
 75146  1  0  0  0
 76147  1  0  0  0
 76148  1  0  0  0
 77 78  1  0  0  0
 77 80  1  0  0  0
 77149  1  0  0  0
 77150  1  0  0  0
 78 83  1  0  0  0
 78151  1  0  0  0
 80152  1  0  0  0
 81153  1  0  0  0
M  ISO  4   1 100  68 101  76 101  81 100
M  END
> <chiral flag>
0

> <version>
0

> <s_m_source_file>
/data/baiqing/PycharmProjects/Reinvent-master-3.2/result/LINK_invent/BTK/process_docking_weight1_custom_product_contain_oxygen_bond_distance_aromatic_linkinvent_7_9_3/rearranged_h_0175.sdf

> <i_m_source_file_index>
18

> <r_mmod_Potential_Energy-OPLS-2005>
0.0805980339646339

> <r_mmod_Stretch_Energy-OPLS-2005>
39.8902893066406

> <r_mmod_Bend_Energy-OPLS-2005>
106.455078125

> <r_mmod_Torsional_Energy-OPLS-2005>
234.392700195312

> <r_mmod_Improper_Torsional_Energy-OPLS-2005>
5.38929176330566

> <r_mmod_Van_der_Waal_Energy-OPLS-2005>
126.654945373535

> <r_mmod_Electrostatic_Energy-OPLS-2005>
-261.074340820312

> <r_mmod_Solvation_Energy-OPLS-2005>
-265.780792236328

> <b_mmod_Minimization_Converged-OPLS-2005>
0

> <r_mmod_RMS_Derivative-OPLS-2005>
1.66042017936707

$$$$
19
                    3D
 Structure written by MMmdl.
155163  0  0  1  0            999 V2000
  -30.7451  -14.4389   20.5123 C   0  0  0  0  0  0
  -30.4047  -12.2707   19.4340 C   0  0  0  0  0  0
  -29.4932  -12.4801   18.2102 C   0  0  0  0  0  0
  -28.0122  -12.3663   18.6182 C   0  0  0  0  0  0
  -27.6582  -13.2165   19.8687 C   0  0  2  0  0  0
  -28.7014  -13.0340   20.9957 C   0  0  0  0  0  0
  -25.2563  -13.8173   20.5708 C   0  0  0  0  0  0
  -24.1829  -13.0441   20.9196 C   0  0  0  0  0  0
  -24.6389  -11.6910   20.8727 C   0  0  0  0  0  0
  -23.9040  -10.4289   21.0386 C   0  0  0  0  0  0
  -24.3593   -9.4205   21.9170 C   0  0  0  0  0  0
  -23.6283   -8.2231   22.0746 C   0  0  0  0  0  0
  -22.4262   -8.0260   21.3541 C   0  0  0  0  0  0
  -21.9883   -9.0229   20.4650 C   0  0  0  0  0  0
  -22.7204  -10.2114   20.3047 C   0  0  0  0  0  0
  -21.6856   -6.0720   22.5268 C   0  0  0  0  0  0
  -21.4013   -6.5627   23.8201 C   0  0  0  0  0  0
  -21.3661   -5.6781   24.9166 C   0  0  0  0  0  0
  -21.6048   -4.3048   24.7218 C   0  0  0  0  0  0
  -21.8813   -3.8140   23.4338 C   0  0  0  0  0  0
  -21.9197   -4.6952   22.3394 C   0  0  0  0  0  0
  -22.7852  -13.5243   21.1844 C   0  0  0  0  0  0
  -22.1663   -4.2139   21.0973 F   0  0  0  0  0  0
  -21.5630   -3.4528   25.7734 F   0  0  0  0  0  0
  -30.0353  -13.2846   20.4309 N   0  0  0  0  0  0
  -26.3008  -12.9379   20.3357 N   0  0  0  0  0  0
  -25.9330  -11.6524   20.5774 N   0  0  0  0  0  0
  -22.0491  -12.8256   22.0417 N   0  0  0  0  0  0
  -25.4259  -15.1892   20.4129 N   0  0  0  0  0  0
  -31.9176  -14.5376   20.1448 O   0  0  0  0  0  0
  -21.6637   -6.8855   21.4231 O   0  0  0  0  0  0
  -22.3540  -14.5563   20.6729 O   0  0  0  0  0  0
  -24.6121  -31.8709   23.2110 C   0  0  0  0  0  0
  -25.9031  -32.4832   23.8417 C   0  0  1  0  0  0
  -27.2409  -27.4574   20.0994 C   0  0  0  0  0  0
  -25.5892  -33.8631   24.2346 N   0  0  0  0  0  0
  -23.3987  -30.4912   21.5527 C   0  0  2  0  0  0
  -24.8465  -28.9597   20.1170 C   0  0  0  0  0  0
  -22.7426  -29.4642   22.5021 C   0  0  0  0  0  0
  -18.0272  -28.1367   22.8475 C   0  0  0  0  0  0
  -24.1488  -36.7323   23.2627 C   0  0  0  0  0  0
  -25.9256  -30.8413   21.3627 C   0  0  0  0  0  0
  -26.0049  -29.4783   20.7097 C   0  0  0  0  0  0
  -27.2039  -28.7364   20.6918 C   0  0  0  0  0  0
  -26.0642  -26.9429   19.5046 C   0  0  0  0  0  0
  -24.8721  -27.6922   19.5086 C   0  0  0  0  0  0
  -23.6060  -29.8221   20.1661 C   0  0  0  0  0  0
  -25.4093  -36.3110   24.0339 C   0  0  1  0  0  0
  -20.5860  -28.3643   23.1334 C   0  0  2  0  0  0
  -20.6761  -26.9384   22.5430 C   0  0  0  0  0  0
  -19.5738  -26.6370   21.5217 C   0  0  0  0  0  0
  -18.1914  -26.7906   22.1618 C   0  0  0  0  0  0
  -19.1520  -28.8831   23.2888 C   0  0  0  0  0  0
  -18.9445  -30.1440   23.8897 C   0  0  0  0  0  0
  -17.6438  -30.6567   24.0563 C   0  0  0  0  0  0
  -25.9036  -34.9479   23.5144 C   0  0  0  0  0  0
  -16.5332  -29.9065   23.6315 C   0  0  0  0  0  0
  -16.7259  -28.6489   23.0326 C   0  0  0  0  0  0
  -26.4450  -31.6591   25.0741 C   0  0  0  0  0  0
  -25.3720  -31.3714   26.1496 C   0  0  0  0  0  0
  -27.0251  -30.3029   24.6096 C   0  0  0  0  0  0
  -27.6038  -32.4305   25.7483 C   0  0  0  0  0  0
  -27.5600  -37.1775   24.8431 C   0  0  0  0  0  0
  -21.4159  -29.3007   22.3762 N   0  0  0  0  0  0
  -26.4269  -37.3804   23.9442 N   0  0  0  0  0  0
  -24.6632  -31.0815   22.1004 N   0  0  0  0  0  0
  -23.4216  -28.8190   23.3048 O   0  0  0  0  0  0
  -28.4290  -26.7631   20.1125 O   0  0  0  0  0  0
  -26.5602  -34.8930   22.4707 O   0  0  0  0  0  0
  -23.5321  -32.1460   23.7518 O   0  0  0  0  0  0
  -30.7340  -17.9210   20.9547 C   0  0  0  0  0  0
  -31.1356  -19.1142   20.3050 C   0  0  0  0  0  0
  -30.3708  -16.7922   20.1788 C   0  0  0  0  0  0
  -31.2142  -19.1691   18.8982 C   0  0  0  0  0  0
  -30.3687  -16.8924   18.7643 C   0  0  0  0  0  0
  -30.8093  -18.0672   18.1282 C   0  0  0  0  0  0
  -29.6114  -23.2945   21.0249 C   0  0  0  0  0  0
  -30.6910  -22.4839   21.1328 C   0  0  0  0  0  0
  -29.6525  -24.7151   20.6342 C   0  0  0  0  0  0
  -30.4559  -21.0838   21.4657 C   0  0  0  0  0  0
  -28.3269  -25.3400   20.1772 C   0  0  0  0  0  0
  -31.4384  -20.3019   21.0089 N   0  0  0  0  0  0
  -30.0448  -15.5494   20.7976 N   0  0  0  0  0  0
  -30.6931  -25.3853   20.6383 O   0  0  0  0  0  0
  -29.4770  -20.6439   22.0740 O   0  0  0  0  0  0
  -31.9504  -22.9056   20.9035 O   0  0  0  0  0  0
  -31.6399  -20.3023   18.2867 F   0  0  0  0  0  0
  -29.9570  -15.8513   18.0017 F   0  0  0  0  0  0
  -30.8388  -18.1361   16.7741 F   0  0  0  0  0  0
  -31.4551  -12.3249   19.1418 H   0  0  0  0  0  0
  -30.2604  -11.2732   19.8486 H   0  0  0  0  0  0
  -29.7206  -11.7451   17.4385 H   0  0  0  0  0  0
  -29.6827  -13.4538   17.7614 H   0  0  0  0  0  0
  -27.8103  -11.3129   18.8170 H   0  0  0  0  0  0
  -27.3701  -12.6479   17.7826 H   0  0  0  0  0  0
  -27.6941  -14.2598   19.5525 H   0  0  0  0  0  0
  -28.6612  -12.0206   21.3990 H   0  0  0  0  0  0
  -28.4896  -13.6987   21.8356 H   0  0  0  0  0  0
  -25.2713   -9.5725   22.4764 H   0  0  0  0  0  0
  -24.0010   -7.4624   22.7462 H   0  0  0  0  0  0
  -21.0806   -8.8730   19.8954 H   0  0  0  0  0  0
  -22.3615  -10.9644   19.6167 H   0  0  0  0  0  0
  -21.2001   -7.6134   23.9692 H   0  0  0  0  0  0
  -21.1496   -6.0524   25.9067 H   0  0  0  0  0  0
  -22.0608   -2.7601   23.2847 H   0  0  0  0  0  0
  -22.4101  -11.9928   22.4825 H   0  0  0  0  0  0
  -21.1106  -13.1298   22.2593 H   0  0  0  0  0  0
  -24.6553  -15.8417   20.5114 H   0  0  0  0  0  0
  -26.2764  -15.6283   20.0846 H   0  0  0  0  0  0
  -26.7097  -32.5556   23.1178 H   0  0  0  0  0  0
  -25.0035  -33.9792   25.0485 H   0  0  0  0  0  0
  -22.6827  -31.3027   21.4149 H   0  0  0  0  0  0
  -23.3760  -35.9644   23.3247 H   0  0  0  0  0  0
  -24.3608  -36.8990   22.2056 H   0  0  0  0  0  0
  -23.7230  -37.6508   23.6673 H   0  0  0  0  0  0
  -26.0394  -31.6079   20.5946 H   0  0  0  0  0  0
  -26.8133  -30.8928   21.9815 H   0  0  0  0  0  0
  -28.1006  -29.1365   21.1460 H   0  0  0  0  0  0
  -26.0570  -25.9744   19.0255 H   0  0  0  0  0  0
  -23.9821  -27.2891   19.0449 H   0  0  0  0  0  0
  -23.7142  -30.5980   19.4074 H   0  0  0  0  0  0
  -22.7314  -29.2407   19.8691 H   0  0  0  0  0  0
  -25.1247  -36.1958   25.0822 H   0  0  0  0  0  0
  -20.9915  -28.3199   24.1464 H   0  0  0  0  0  0
  -20.5670  -26.2246   23.3607 H   0  0  0  0  0  0
  -21.6633  -26.7437   22.1212 H   0  0  0  0  0  0
  -19.6900  -25.6287   21.1232 H   0  0  0  0  0  0
  -19.6671  -27.3201   20.6764 H   0  0  0  0  0  0
  -17.4189  -26.6663   21.4016 H   0  0  0  0  0  0
  -18.0300  -26.0051   22.9010 H   0  0  0  0  0  0
  -19.7925  -30.7256   24.2258 H   0  0  0  0  0  0
  -17.4994  -31.6237   24.5184 H   0  0  0  0  0  0
  -15.5328  -30.2950   23.7637 H   0  0  0  0  0  0
  -15.8665  -28.0808   22.7025 H   0  0  0  0  0  0
  -24.5844  -30.7103   25.7854 H   0  0  0  0  0  0
  -24.8961  -32.2885   26.4980 H   0  0  0  0  0  0
  -25.8067  -30.8849   27.0237 H   0  0  0  0  0  0
  -26.2784  -29.6825   24.1126 H   0  0  0  0  0  0
  -27.3994  -29.7214   25.4531 H   0  0  0  0  0  0
  -27.8636  -30.4336   23.9250 H   0  0  0  0  0  0
  -27.2674  -33.3592   26.2103 H   0  0  0  0  0  0
  -28.3807  -32.6891   25.0276 H   0  0  0  0  0  0
  -28.0746  -31.8412   26.5363 H   0  0  0  0  0  0
  -28.2498  -38.0187   24.7646 H   0  0  0  0  0  0
  -28.1203  -36.2735   24.6003 H   0  0  0  0  0  0
  -27.2373  -37.1138   25.8838 H   0  0  0  0  0  0
  -20.9343  -29.8733   21.6975 H   0  0  0  0  0  0
  -26.0154  -38.2859   24.1525 H   0  0  0  0  0  0
  -30.7220  -17.8715   22.0346 H   0  0  0  0  0  0
  -28.6244  -22.8916   21.2095 H   0  0  0  0  0  0
  -27.5420  -25.0472   20.8763 H   0  0  0  0  0  0
  -28.0741  -24.9401   19.1953 H   0  0  0  0  0  0
  -32.1747  -20.8701   20.6074 H   0  0  0  0  0  0
  -29.1003  -15.4314   21.1302 H   0  0  0  0  0  0
  -31.9036  -23.8409   20.7263 H   0  0  0  0  0  0
  1 25  1  0  0  0
  1 30  2  0  0  0
  1 83  1  0  0  0
  2  3  1  0  0  0
  2 25  1  0  0  0
  2 90  1  0  0  0
  2 91  1  0  0  0
  3  4  1  0  0  0
  3 92  1  0  0  0
  3 93  1  0  0  0
  4  5  1  0  0  0
  4 94  1  0  0  0
  4 95  1  0  0  0
  5  6  1  0  0  0
  5 26  1  0  0  0
  5 96  1  0  0  0
  6 25  1  0  0  0
  6 97  1  0  0  0
  6 98  1  0  0  0
  7  8  2  0  0  0
  7 26  1  0  0  0
  7 29  1  0  0  0
  8  9  1  0  0  0
  8 22  1  0  0  0
  9 10  1  0  0  0
  9 27  2  0  0  0
 10 11  2  0  0  0
 10 15  1  0  0  0
 11 12  1  0  0  0
 11 99  1  0  0  0
 12 13  2  0  0  0
 12100  1  0  0  0
 13 14  1  0  0  0
 13 31  1  0  0  0
 14 15  2  0  0  0
 14101  1  0  0  0
 15102  1  0  0  0
 16 17  2  0  0  0
 16 21  1  0  0  0
 16 31  1  0  0  0
 17 18  1  0  0  0
 17103  1  0  0  0
 18 19  2  0  0  0
 18104  1  0  0  0
 19 20  1  0  0  0
 19 24  1  0  0  0
 20 21  2  0  0  0
 20105  1  0  0  0
 21 23  1  0  0  0
 22 28  1  0  0  0
 22 32  2  0  0  0
 26 27  1  0  0  0
 28106  1  0  0  0
 28107  1  0  0  0
 29108  1  0  0  0
 29109  1  0  0  0
 33 34  1  0  0  0
 33 66  1  0  0  0
 33 70  2  0  0  0
 34 36  1  0  0  0
 34 59  1  0  0  0
 34110  1  0  0  0
 35 44  2  0  0  0
 35 45  1  0  0  0
 35 68  1  0  0  0
 36 56  1  0  0  0
 36111  1  0  0  0
 37 39  1  0  0  0
 37 47  1  0  0  0
 37 66  1  0  0  0
 37112  1  0  0  0
 38 43  2  0  0  0
 38 46  1  0  0  0
 38 47  1  0  0  0
 39 64  1  0  0  0
 39 67  2  0  0  0
 40 52  1  0  0  0
 40 53  2  0  0  0
 40 58  1  0  0  0
 41113  1  0  0  0
 41114  1  0  0  0
 41115  1  0  0  0
 41 48  1  0  0  0
 42 43  1  0  0  0
 42 66  1  0  0  0
 42116  1  0  0  0
 42117  1  0  0  0
 43 44  1  0  0  0
 44118  1  0  0  0
 45 46  2  0  0  0
 45119  1  0  0  0
 46120  1  0  0  0
 47121  1  0  0  0
 47122  1  0  0  0
 48 56  1  0  0  0
 48 65  1  0  0  0
 48123  1  0  0  0
 49 50  1  0  0  0
 49 53  1  0  0  0
 49 64  1  0  0  0
 49124  1  0  0  0
 50 51  1  0  0  0
 50125  1  0  0  0
 50126  1  0  0  0
 51 52  1  0  0  0
 51127  1  0  0  0
 51128  1  0  0  0
 52129  1  0  0  0
 52130  1  0  0  0
 53 54  1  0  0  0
 54 55  2  0  0  0
 54131  1  0  0  0
 55 57  1  0  0  0
 55132  1  0  0  0
 56 69  2  0  0  0
 57 58  2  0  0  0
 57133  1  0  0  0
 58134  1  0  0  0
 59 60  1  0  0  0
 59 61  1  0  0  0
 59 62  1  0  0  0
 60135  1  0  0  0
 60136  1  0  0  0
 60137  1  0  0  0
 61138  1  0  0  0
 61139  1  0  0  0
 61140  1  0  0  0
 62141  1  0  0  0
 62142  1  0  0  0
 62143  1  0  0  0
 63 65  1  0  0  0
 63144  1  0  0  0
 63145  1  0  0  0
 63146  1  0  0  0
 64147  1  0  0  0
 65148  1  0  0  0
 68 81  1  0  0  0
 71 72  2  0  0  0
 71 73  1  0  0  0
 71149  1  0  0  0
 72 74  1  0  0  0
 72 82  1  0  0  0
 73 75  2  0  0  0
 73 83  1  0  0  0
 74 76  2  0  0  0
 74 87  1  0  0  0
 75 76  1  0  0  0
 75 88  1  0  0  0
 76 89  1  0  0  0
 77 78  2  0  0  0
 77 79  1  0  0  0
 77150  1  0  0  0
 78 80  1  0  0  0
 78 86  1  0  0  0
 79 81  1  0  0  0
 79 84  2  0  0  0
 80 82  1  0  0  0
 80 85  2  0  0  0
 81151  1  0  0  0
 81152  1  0  0  0
 82153  1  0  0  0
 83154  1  0  0  0
 86155  1  0  0  0
M  ISO  4   1 100  68 101  81 101  83 100
M  END
> <chiral flag>
0

> <version>
0

> <s_m_source_file>
/data/baiqing/PycharmProjects/Reinvent-master-3.2/result/LINK_invent/BTK/process_docking_weight1_custom_product_contain_oxygen_bond_distance_aromatic_linkinvent_7_9_3/rearranged_h_0175.sdf

> <i_m_source_file_index>
19

> <r_mmod_Potential_Energy-OPLS-2005>
-63.0476303100586

> <r_mmod_Stretch_Energy-OPLS-2005>
34.0989303588867

> <r_mmod_Bend_Energy-OPLS-2005>
93.9738006591797

> <r_mmod_Torsional_Energy-OPLS-2005>
292.8818359375

> <r_mmod_Improper_Torsional_Energy-OPLS-2005>
10.84850025177

> <r_mmod_Van_der_Waal_Energy-OPLS-2005>
170.172836303711

> <r_mmod_Electrostatic_Energy-OPLS-2005>
-449.088562011719

> <r_mmod_Solvation_Energy-OPLS-2005>
-232.852844238281

> <b_mmod_Minimization_Converged-OPLS-2005>
0

> <r_mmod_RMS_Derivative-OPLS-2005>
2.87374019622803

$$$$
20
                    3D
 Structure written by MMmdl.
153161  0  0  1  0            999 V2000
  -30.6000  -14.6947   20.4840 C   0  0  0  0  0  0
  -30.4464  -12.4264   19.4568 C   0  0  0  0  0  0
  -29.5137  -12.5114   18.2271 C   0  0  0  0  0  0
  -28.0375  -12.3363   18.6383 C   0  0  0  0  0  0
  -27.6515  -13.2139   19.8581 C   0  0  2  0  0  0
  -28.6982  -13.0967   20.9892 C   0  0  0  0  0  0
  -25.2556  -13.8145   20.5689 C   0  0  0  0  0  0
  -24.1832  -13.0416   20.9215 C   0  0  0  0  0  0
  -24.6401  -11.6890   20.8747 C   0  0  0  0  0  0
  -23.9068  -10.4281   21.0408 C   0  0  0  0  0  0
  -24.3621   -9.4195   21.9181 C   0  0  0  0  0  0
  -23.6286   -8.2241   22.0756 C   0  0  0  0  0  0
  -22.4267   -8.0286   21.3549 C   0  0  0  0  0  0
  -21.9900   -9.0261   20.4652 C   0  0  0  0  0  0
  -22.7239  -10.2132   20.3057 C   0  0  0  0  0  0
  -21.6858   -6.0732   22.5275 C   0  0  0  0  0  0
  -21.4021   -6.5637   23.8209 C   0  0  0  0  0  0
  -21.3656   -5.6789   24.9168 C   0  0  0  0  0  0
  -21.6040   -4.3052   24.7221 C   0  0  0  0  0  0
  -21.8823   -3.8144   23.4344 C   0  0  0  0  0  0
  -21.9195   -4.6957   22.3395 C   0  0  0  0  0  0
  -22.7854  -13.5219   21.1858 C   0  0  0  0  0  0
  -22.1662   -4.2146   21.0971 F   0  0  0  0  0  0
  -21.5619   -3.4534   25.7734 F   0  0  0  0  0  0
  -30.0080  -13.4556   20.4216 N   0  0  0  0  0  0
  -26.2979  -12.9323   20.3285 N   0  0  0  0  0  0
  -25.9325  -11.6483   20.5742 N   0  0  0  0  0  0
  -22.0490  -12.8234   22.0422 N   0  0  0  0  0  0
  -25.4207  -15.1865   20.4091 N   0  0  0  0  0  0
  -31.7719  -14.8593   20.1326 O   0  0  0  0  0  0
  -21.6638   -6.8878   21.4240 O   0  0  0  0  0  0
  -22.3536  -14.5516   20.6683 O   0  0  0  0  0  0
  -24.6277  -31.8576   23.2019 C   0  0  0  0  0  0
  -25.9117  -32.4767   23.8349 C   0  0  1  0  0  0
  -27.2258  -27.2904   20.1286 C   0  0  0  0  0  0
  -25.5927  -33.8569   24.2270 N   0  0  0  0  0  0
  -23.4241  -30.4802   21.5438 C   0  0  2  0  0  0
  -24.8737  -28.9331   20.1105 C   0  0  0  0  0  0
  -22.7483  -29.4609   22.4922 C   0  0  0  0  0  0
  -18.0287  -28.1385   22.8477 C   0  0  0  0  0  0
  -24.1491  -36.7292   23.2636 C   0  0  0  0  0  0
  -25.9678  -30.7758   21.3837 C   0  0  0  0  0  0
  -26.0407  -29.4004   20.7290 C   0  0  0  0  0  0
  -27.2161  -28.5870   20.7374 C   0  0  0  0  0  0
  -26.0446  -26.9008   19.4549 C   0  0  0  0  0  0
  -24.8783  -27.6879   19.4649 C   0  0  0  0  0  0
  -23.6421  -29.8155   20.1591 C   0  0  0  0  0  0
  -25.4115  -36.3076   24.0323 C   0  0  1  0  0  0
  -20.5889  -28.3697   23.1271 C   0  0  2  0  0  0
  -20.6775  -26.9415   22.5411 C   0  0  0  0  0  0
  -19.5756  -26.6379   21.5205 C   0  0  0  0  0  0
  -18.1929  -26.7926   22.1612 C   0  0  0  0  0  0
  -19.1540  -28.8856   23.2869 C   0  0  0  0  0  0
  -18.9465  -30.1455   23.8891 C   0  0  0  0  0  0
  -17.6465  -30.6587   24.0559 C   0  0  0  0  0  0
  -25.9055  -34.9447   23.5097 C   0  0  0  0  0  0
  -16.5355  -29.9086   23.6329 C   0  0  0  0  0  0
  -16.7275  -28.6501   23.0353 C   0  0  0  0  0  0
  -26.4487  -31.6589   25.0736 C   0  0  0  0  0  0
  -25.3712  -31.3748   26.1463 C   0  0  0  0  0  0
  -27.0327  -30.3001   24.6229 C   0  0  0  0  0  0
  -27.6057  -32.4319   25.7494 C   0  0  0  0  0  0
  -27.5587  -37.1792   24.8452 C   0  0  0  0  0  0
  -21.4197  -29.3042   22.3661 N   0  0  0  0  0  0
  -26.4289  -37.3779   23.9410 N   0  0  0  0  0  0
  -24.6914  -31.0556   22.0991 N   0  0  0  0  0  0
  -23.4189  -28.8147   23.3015 O   0  0  0  0  0  0
  -28.3289  -26.4110   20.1802 O   0  0  0  0  0  0
  -26.5628  -34.8917   22.4668 O   0  0  0  0  0  0
  -23.5432  -32.1391   23.7325 O   0  0  0  0  0  0
  -29.1319  -19.3745   19.5967 C   0  0  0  0  0  0
  -30.4549  -19.4311   21.5891 C   0  0  0  0  0  0
  -29.2068  -17.9397   19.5743 C   0  0  0  0  0  0
  -29.7347  -20.1688   20.6079 C   0  0  0  0  0  0
  -29.8855  -17.2064   20.6045 C   0  0  0  0  0  0
  -30.5113  -18.0004   21.6028 C   0  0  0  0  0  0
  -28.1234  -25.0030   20.2487 C   0  0  0  0  0  0
  -29.0709  -24.0038   20.3427 C   0  0  0  0  0  0
  -28.7058  -22.5413   20.3295 C   0  0  0  0  0  0
  -28.5228  -17.2058   18.4230 C   0  0  0  0  0  0
  -29.7123  -21.6474   20.6159 N   0  0  0  0  0  0
  -29.7586  -15.7438   20.7647 N   0  0  0  0  0  0
  -27.5686  -22.1350   20.0800 O   0  0  0  0  0  0
  -30.3654  -24.3421   20.4335 O   0  0  0  0  0  0
  -31.1472  -17.3818   22.6277 F   0  0  0  0  0  0
  -28.1985  -18.0289   17.4246 F   0  0  0  0  0  0
  -29.3199  -16.2629   17.9200 F   0  0  0  0  0  0
  -27.4076  -16.6307   18.8675 F   0  0  0  0  0  0
  -31.4848  -12.5668   19.1516 H   0  0  0  0  0  0
  -30.3991  -11.4354   19.9117 H   0  0  0  0  0  0
  -29.7883  -11.7540   17.4920 H   0  0  0  0  0  0
  -29.6438  -13.4766   17.7352 H   0  0  0  0  0  0
  -27.8867  -11.2835   18.8781 H   0  0  0  0  0  0
  -27.3831  -12.5530   17.7929 H   0  0  0  0  0  0
  -27.6600  -14.2417   19.5019 H   0  0  0  0  0  0
  -28.7238  -12.0800   21.3840 H   0  0  0  0  0  0
  -28.4362  -13.7372   21.8331 H   0  0  0  0  0  0
  -25.2770   -9.5663   22.4748 H   0  0  0  0  0  0
  -23.9993   -7.4627   22.7473 H   0  0  0  0  0  0
  -21.0829   -8.8783   19.8962 H   0  0  0  0  0  0
  -22.3702  -10.9671   19.6166 H   0  0  0  0  0  0
  -21.2029   -7.6148   23.9710 H   0  0  0  0  0  0
  -21.1466   -6.0519   25.9068 H   0  0  0  0  0  0
  -22.0607   -2.7607   23.2849 H   0  0  0  0  0  0
  -22.4093  -11.9910   22.4846 H   0  0  0  0  0  0
  -21.1107  -13.1274   22.2602 H   0  0  0  0  0  0
  -24.6337  -15.8199   20.4857 H   0  0  0  0  0  0
  -26.2195  -15.6150   19.9540 H   0  0  0  0  0  0
  -26.7187  -32.5424   23.1096 H   0  0  0  0  0  0
  -25.0058  -33.9710   25.0401 H   0  0  0  0  0  0
  -22.7199  -31.3015   21.3983 H   0  0  0  0  0  0
  -23.3751  -35.9629   23.3299 H   0  0  0  0  0  0
  -24.3587  -36.8913   22.2052 H   0  0  0  0  0  0
  -23.7254  -37.6497   23.6658 H   0  0  0  0  0  0
  -26.1073  -31.5371   20.6147 H   0  0  0  0  0  0
  -26.8456  -30.8236   22.0168 H   0  0  0  0  0  0
  -28.1066  -28.9340   21.2430 H   0  0  0  0  0  0
  -25.9999  -25.9640   18.9199 H   0  0  0  0  0  0
  -23.9912  -27.3278   18.9623 H   0  0  0  0  0  0
  -23.7644  -30.5913   19.4024 H   0  0  0  0  0  0
  -22.7619  -29.2454   19.8553 H   0  0  0  0  0  0
  -25.1291  -36.1926   25.0815 H   0  0  0  0  0  0
  -20.9976  -28.3279   24.1396 H   0  0  0  0  0  0
  -20.5655  -26.2308   23.3616 H   0  0  0  0  0  0
  -21.6650  -26.7429   22.1224 H   0  0  0  0  0  0
  -19.6920  -25.6283   21.1248 H   0  0  0  0  0  0
  -19.6694  -27.3174   20.6721 H   0  0  0  0  0  0
  -17.4201  -26.6674   21.4016 H   0  0  0  0  0  0
  -18.0329  -26.0067   22.9008 H   0  0  0  0  0  0
  -19.7943  -30.7270   24.2260 H   0  0  0  0  0  0
  -17.5024  -31.6269   24.5158 H   0  0  0  0  0  0
  -15.5360  -30.2991   23.7654 H   0  0  0  0  0  0
  -15.8672  -28.0816   22.7081 H   0  0  0  0  0  0
  -24.5888  -30.7089   25.7802 H   0  0  0  0  0  0
  -24.8901  -32.2922   26.4868 H   0  0  0  0  0  0
  -25.8032  -30.8945   27.0252 H   0  0  0  0  0  0
  -26.2910  -29.6758   24.1235 H   0  0  0  0  0  0
  -27.3975  -29.7262   25.4759 H   0  0  0  0  0  0
  -27.8805  -30.4265   23.9493 H   0  0  0  0  0  0
  -27.2675  -33.3614   26.2087 H   0  0  0  0  0  0
  -28.3854  -32.6886   25.0307 H   0  0  0  0  0  0
  -28.0743  -31.8434   26.5395 H   0  0  0  0  0  0
  -28.2585  -38.0108   24.7534 H   0  0  0  0  0  0
  -28.1101  -36.2646   24.6222 H   0  0  0  0  0  0
  -27.2314  -37.1382   25.8856 H   0  0  0  0  0  0
  -20.9371  -29.8776   21.6881 H   0  0  0  0  0  0
  -26.0166  -38.2847   24.1434 H   0  0  0  0  0  0
  -28.6013  -19.8814   18.8045 H   0  0  0  0  0  0
  -30.9555  -19.9637   22.3849 H   0  0  0  0  0  0
  -27.0787  -24.7307   20.2212 H   0  0  0  0  0  0
  -30.5597  -22.1070   20.9264 H   0  0  0  0  0  0
  -28.8255  -15.4358   20.9908 H   0  0  0  0  0  0
  -30.4025  -25.2904   20.4118 H   0  0  0  0  0  0
  1 25  1  0  0  0
  1 30  2  0  0  0
  1 82  1  0  0  0
  2  3  1  0  0  0
  2 25  1  0  0  0
  2 89  1  0  0  0
  2 90  1  0  0  0
  3  4  1  0  0  0
  3 91  1  0  0  0
  3 92  1  0  0  0
  4  5  1  0  0  0
  4 93  1  0  0  0
  4 94  1  0  0  0
  5  6  1  0  0  0
  5 26  1  0  0  0
  5 95  1  0  0  0
  6 25  1  0  0  0
  6 96  1  0  0  0
  6 97  1  0  0  0
  7  8  2  0  0  0
  7 26  1  0  0  0
  7 29  1  0  0  0
  8  9  1  0  0  0
  8 22  1  0  0  0
  9 10  1  0  0  0
  9 27  2  0  0  0
 10 11  2  0  0  0
 10 15  1  0  0  0
 11 12  1  0  0  0
 11 98  1  0  0  0
 12 13  2  0  0  0
 12 99  1  0  0  0
 13 14  1  0  0  0
 13 31  1  0  0  0
 14 15  2  0  0  0
 14100  1  0  0  0
 15101  1  0  0  0
 16 17  2  0  0  0
 16 21  1  0  0  0
 16 31  1  0  0  0
 17 18  1  0  0  0
 17102  1  0  0  0
 18 19  2  0  0  0
 18103  1  0  0  0
 19 20  1  0  0  0
 19 24  1  0  0  0
 20 21  2  0  0  0
 20104  1  0  0  0
 21 23  1  0  0  0
 22 28  1  0  0  0
 22 32  2  0  0  0
 26 27  1  0  0  0
 28105  1  0  0  0
 28106  1  0  0  0
 29107  1  0  0  0
 29108  1  0  0  0
 33 34  1  0  0  0
 33 66  1  0  0  0
 33 70  2  0  0  0
 34 36  1  0  0  0
 34 59  1  0  0  0
 34109  1  0  0  0
 35 44  2  0  0  0
 35 45  1  0  0  0
 35 68  1  0  0  0
 36 56  1  0  0  0
 36110  1  0  0  0
 37 39  1  0  0  0
 37 47  1  0  0  0
 37 66  1  0  0  0
 37111  1  0  0  0
 38 43  2  0  0  0
 38 46  1  0  0  0
 38 47  1  0  0  0
 39 64  1  0  0  0
 39 67  2  0  0  0
 40 52  1  0  0  0
 40 53  2  0  0  0
 40 58  1  0  0  0
 41112  1  0  0  0
 41113  1  0  0  0
 41114  1  0  0  0
 41 48  1  0  0  0
 42 43  1  0  0  0
 42 66  1  0  0  0
 42115  1  0  0  0
 42116  1  0  0  0
 43 44  1  0  0  0
 44117  1  0  0  0
 45 46  2  0  0  0
 45118  1  0  0  0
 46119  1  0  0  0
 47120  1  0  0  0
 47121  1  0  0  0
 48 56  1  0  0  0
 48 65  1  0  0  0
 48122  1  0  0  0
 49 50  1  0  0  0
 49 53  1  0  0  0
 49 64  1  0  0  0
 49123  1  0  0  0
 50 51  1  0  0  0
 50124  1  0  0  0
 50125  1  0  0  0
 51 52  1  0  0  0
 51126  1  0  0  0
 51127  1  0  0  0
 52128  1  0  0  0
 52129  1  0  0  0
 53 54  1  0  0  0
 54 55  2  0  0  0
 54130  1  0  0  0
 55 57  1  0  0  0
 55131  1  0  0  0
 56 69  2  0  0  0
 57 58  2  0  0  0
 57132  1  0  0  0
 58133  1  0  0  0
 59 60  1  0  0  0
 59 61  1  0  0  0
 59 62  1  0  0  0
 60134  1  0  0  0
 60135  1  0  0  0
 60136  1  0  0  0
 61137  1  0  0  0
 61138  1  0  0  0
 61139  1  0  0  0
 62140  1  0  0  0
 62141  1  0  0  0
 62142  1  0  0  0
 63 65  1  0  0  0
 63143  1  0  0  0
 63144  1  0  0  0
 63145  1  0  0  0
 64146  1  0  0  0
 65147  1  0  0  0
 68 77  1  0  0  0
 71 73  2  0  0  0
 71 74  1  0  0  0
 71148  1  0  0  0
 72 74  2  0  0  0
 72 76  1  0  0  0
 72149  1  0  0  0
 73 75  1  0  0  0
 73 80  1  0  0  0
 74 81  1  0  0  0
 75 76  2  0  0  0
 75 82  1  0  0  0
 76 85  1  0  0  0
 77 78  2  0  0  0
 77150  1  0  0  0
 78 79  1  0  0  0
 78 84  1  0  0  0
 79 81  1  0  0  0
 79 83  2  0  0  0
 80 86  1  0  0  0
 80 87  1  0  0  0
 80 88  1  0  0  0
 81151  1  0  0  0
 82152  1  0  0  0
 84153  1  0  0  0
M  ISO  4   1 100  68 101  77 101  82 100
M  END
> <chiral flag>
0

> <version>
0

> <s_m_source_file>
/data/baiqing/PycharmProjects/Reinvent-master-3.2/result/LINK_invent/BTK/process_docking_weight1_custom_product_contain_oxygen_bond_distance_aromatic_linkinvent_7_9_3/rearranged_h_0175.sdf

> <i_m_source_file_index>
20

> <r_mmod_Potential_Energy-OPLS-2005>
11.2444639205933

> <r_mmod_Stretch_Energy-OPLS-2005>
91.7513275146484

> <r_mmod_Bend_Energy-OPLS-2005>
133.465713500977

> <r_mmod_Torsional_Energy-OPLS-2005>
250.991485595703

> <r_mmod_Improper_Torsional_Energy-OPLS-2005>
6.86573219299316

> <r_mmod_Van_der_Waal_Energy-OPLS-2005>
144.539093017578

> <r_mmod_Electrostatic_Energy-OPLS-2005>
-465.280151367188

> <r_mmod_Solvation_Energy-OPLS-2005>
-218.103988647461

> <b_mmod_Minimization_Converged-OPLS-2005>
0

> <r_mmod_RMS_Derivative-OPLS-2005>
1.13541615009308

$$$$
21
                    3D
 Structure written by MMmdl.
158166  0  0  1  0            999 V2000
  -30.7448  -14.4095   20.6426 C   0  0  0  0  0  0
  -30.4151  -12.2992   19.4046 C   0  0  0  0  0  0
  -29.4849  -12.5136   18.1957 C   0  0  0  0  0  0
  -28.0083  -12.3727   18.6120 C   0  0  0  0  0  0
  -27.6612  -13.2047   19.8756 C   0  0  2  0  0  0
  -28.7013  -12.9686   20.9926 C   0  0  0  0  0  0
  -25.2586  -13.8161   20.5675 C   0  0  0  0  0  0
  -24.1836  -13.0444   20.9175 C   0  0  0  0  0  0
  -24.6389  -11.6909   20.8736 C   0  0  0  0  0  0
  -23.9055  -10.4296   21.0404 C   0  0  0  0  0  0
  -24.3610   -9.4217   21.9183 C   0  0  0  0  0  0
  -23.6292   -8.2250   22.0755 C   0  0  0  0  0  0
  -22.4274   -8.0289   21.3546 C   0  0  0  0  0  0
  -21.9908   -9.0256   20.4644 C   0  0  0  0  0  0
  -22.7230  -10.2138   20.3055 C   0  0  0  0  0  0
  -21.6852   -6.0742   22.5284 C   0  0  0  0  0  0
  -21.4007   -6.5642   23.8218 C   0  0  0  0  0  0
  -21.3660   -5.6794   24.9179 C   0  0  0  0  0  0
  -21.6045   -4.3058   24.7224 C   0  0  0  0  0  0
  -21.8819   -3.8151   23.4344 C   0  0  0  0  0  0
  -21.9189   -4.6970   22.3404 C   0  0  0  0  0  0
  -22.7863  -13.5242   21.1847 C   0  0  0  0  0  0
  -22.1662   -4.2153   21.0983 F   0  0  0  0  0  0
  -21.5630   -3.4544   25.7740 F   0  0  0  0  0  0
  -30.0344  -13.2690   20.4418 N   0  0  0  0  0  0
  -26.3013  -12.9323   20.3361 N   0  0  0  0  0  0
  -25.9309  -11.6483   20.5757 N   0  0  0  0  0  0
  -22.0498  -12.8230   22.0396 N   0  0  0  0  0  0
  -25.4331  -15.1878   20.4071 N   0  0  0  0  0  0
  -31.8295  -14.6303   20.0950 O   0  0  0  0  0  0
  -21.6641   -6.8884   21.4245 O   0  0  0  0  0  0
  -22.3550  -14.5552   20.6709 O   0  0  0  0  0  0
  -24.6136  -31.8688   23.2106 C   0  0  0  0  0  0
  -25.9038  -32.4824   23.8394 C   0  0  1  0  0  0
  -27.2332  -27.4401   20.0914 C   0  0  0  0  0  0
  -25.5895  -33.8620   24.2323 N   0  0  0  0  0  0
  -23.4002  -30.4928   21.5514 C   0  0  2  0  0  0
  -24.8455  -28.9603   20.1143 C   0  0  0  0  0  0
  -22.7410  -29.4655   22.4995 C   0  0  0  0  0  0
  -18.0259  -28.1373   22.8482 C   0  0  0  0  0  0
  -24.1490  -36.7319   23.2640 C   0  0  0  0  0  0
  -25.9284  -30.8353   21.3633 C   0  0  0  0  0  0
  -26.0054  -29.4706   20.7102 C   0  0  0  0  0  0
  -27.1995  -28.7171   20.6964 C   0  0  0  0  0  0
  -26.0550  -26.9477   19.4813 C   0  0  0  0  0  0
  -24.8652  -27.6982   19.4983 C   0  0  0  0  0  0
  -23.6080  -29.8256   20.1654 C   0  0  0  0  0  0
  -25.4106  -36.3113   24.0336 C   0  0  1  0  0  0
  -20.5856  -28.3649   23.1325 C   0  0  2  0  0  0
  -20.6758  -26.9392   22.5426 C   0  0  0  0  0  0
  -19.5742  -26.6378   21.5215 C   0  0  0  0  0  0
  -18.1905  -26.7916   22.1615 C   0  0  0  0  0  0
  -19.1514  -28.8828   23.2892 C   0  0  0  0  0  0
  -18.9445  -30.1436   23.8902 C   0  0  0  0  0  0
  -17.6458  -30.6583   24.0566 C   0  0  0  0  0  0
  -25.9037  -34.9479   23.5128 C   0  0  0  0  0  0
  -16.5345  -29.9087   23.6332 C   0  0  0  0  0  0
  -16.7253  -28.6503   23.0339 C   0  0  0  0  0  0
  -26.4469  -31.6603   25.0720 C   0  0  0  0  0  0
  -25.3735  -31.3704   26.1474 C   0  0  0  0  0  0
  -27.0298  -30.3053   24.6084 C   0  0  0  0  0  0
  -27.6049  -32.4315   25.7479 C   0  0  0  0  0  0
  -27.5578  -37.1812   24.8457 C   0  0  0  0  0  0
  -21.4139  -29.3018   22.3747 N   0  0  0  0  0  0
  -26.4290  -37.3793   23.9410 N   0  0  0  0  0  0
  -24.6657  -31.0805   22.1001 N   0  0  0  0  0  0
  -23.4193  -28.8194   23.3022 O   0  0  0  0  0  0
  -28.4155  -26.7310   20.1131 O   0  0  0  0  0  0
  -26.5605  -34.8925   22.4693 O   0  0  0  0  0  0
  -23.5335  -32.1441   23.7507 O   0  0  0  0  0  0
  -30.3003  -17.7534   21.8892 C   0  0  0  0  0  0
  -31.9498  -16.2191   22.8313 C   0  0  0  0  0  0
  -32.0786  -18.6036   23.3443 C   0  0  0  0  0  0
  -30.8108  -16.4400   22.0274 C   0  0  0  0  0  0
  -30.9442  -18.8474   22.5264 C   0  0  0  0  0  0
  -32.5758  -17.2909   23.4880 C   0  0  0  0  0  0
  -29.5376  -23.1371   20.6877 C   0  0  0  0  0  0
  -29.6570  -22.2487   21.7071 C   0  0  0  0  0  0
  -29.3558  -24.5972   20.8631 C   0  0  0  0  0  0
  -29.8841  -20.8321   21.4005 C   0  0  0  0  0  0
  -32.7769  -19.7454   24.0705 C   0  0  0  0  0  0
  -28.3537  -25.3058   19.9393 C   0  0  0  0  0  0
  -30.4738  -20.1928   22.4292 N   0  0  0  0  0  0
  -30.1537  -15.3370   21.4152 N   0  0  0  0  0  0
  -29.9848  -25.2568   21.7004 O   0  0  0  0  0  0
  -29.6049  -20.2863   20.3300 O   0  0  0  0  0  0
  -29.5525  -22.6231   22.9973 O   0  0  0  0  0  0
  -33.6574  -17.0468   24.2670 F   0  0  0  0  0  0
  -31.4591  -12.3960   19.1010 H   0  0  0  0  0  0
  -30.3146  -11.2835   19.7904 H   0  0  0  0  0  0
  -29.7217  -11.7984   17.4065 H   0  0  0  0  0  0
  -29.6547  -13.5044   17.7717 H   0  0  0  0  0  0
  -27.8153  -11.3157   18.7977 H   0  0  0  0  0  0
  -27.3570  -12.6576   17.7851 H   0  0  0  0  0  0
  -27.7122  -14.2554   19.5893 H   0  0  0  0  0  0
  -28.6730  -11.9280   21.3188 H   0  0  0  0  0  0
  -28.4557  -13.5524   21.8806 H   0  0  0  0  0  0
  -25.2753   -9.5694   22.4758 H   0  0  0  0  0  0
  -24.0004   -7.4636   22.7470 H   0  0  0  0  0  0
  -21.0844   -8.8765   19.8945 H   0  0  0  0  0  0
  -22.3686  -10.9674   19.6163 H   0  0  0  0  0  0
  -21.1999   -7.6149   23.9718 H   0  0  0  0  0  0
  -21.1483   -6.0528   25.9079 H   0  0  0  0  0  0
  -22.0597   -2.7616   23.2846 H   0  0  0  0  0  0
  -22.4103  -11.9876   22.4763 H   0  0  0  0  0  0
  -21.1117  -13.1257   22.2607 H   0  0  0  0  0  0
  -24.6691  -15.8474   20.5109 H   0  0  0  0  0  0
  -26.2880  -15.6215   20.0798 H   0  0  0  0  0  0
  -26.7113  -32.5549   23.1169 H   0  0  0  0  0  0
  -25.0047  -33.9775   25.0473 H   0  0  0  0  0  0
  -22.6871  -31.3090   21.4137 H   0  0  0  0  0  0
  -23.3746  -35.9660   23.3310 H   0  0  0  0  0  0
  -24.3585  -36.8925   22.2052 H   0  0  0  0  0  0
  -23.7244  -37.6523   23.6654 H   0  0  0  0  0  0
  -26.0373  -31.6016   20.5946 H   0  0  0  0  0  0
  -26.8187  -30.8918   21.9776 H   0  0  0  0  0  0
  -28.0951  -29.1054   21.1625 H   0  0  0  0  0  0
  -26.0370  -25.9938   18.9756 H   0  0  0  0  0  0
  -23.9759  -27.3016   19.0272 H   0  0  0  0  0  0
  -23.7138  -30.6018   19.4063 H   0  0  0  0  0  0
  -22.7317  -29.2444   19.8708 H   0  0  0  0  0  0
  -25.1283  -36.1987   25.0826 H   0  0  0  0  0  0
  -20.9919  -28.3217   24.1456 H   0  0  0  0  0  0
  -20.5665  -26.2254   23.3607 H   0  0  0  0  0  0
  -21.6624  -26.7447   22.1215 H   0  0  0  0  0  0
  -19.6918  -25.6291   21.1224 H   0  0  0  0  0  0
  -19.6692  -27.3209   20.6758 H   0  0  0  0  0  0
  -17.4187  -26.6663   21.4008 H   0  0  0  0  0  0
  -18.0301  -26.0058   22.9012 H   0  0  0  0  0  0
  -19.7934  -30.7226   24.2285 H   0  0  0  0  0  0
  -17.5022  -31.6264   24.5154 H   0  0  0  0  0  0
  -15.5342  -30.2992   23.7652 H   0  0  0  0  0  0
  -15.8644  -28.0831   22.7045 H   0  0  0  0  0  0
  -24.5916  -30.7027   25.7814 H   0  0  0  0  0  0
  -24.8902  -32.2856   26.4923 H   0  0  0  0  0  0
  -25.8093  -30.8884   27.0243 H   0  0  0  0  0  0
  -26.2834  -29.6808   24.1159 H   0  0  0  0  0  0
  -27.4100  -29.7287   25.4525 H   0  0  0  0  0  0
  -27.8652  -30.4366   23.9204 H   0  0  0  0  0  0
  -27.2684  -33.3621   26.2062 H   0  0  0  0  0  0
  -28.3860  -32.6862   25.0304 H   0  0  0  0  0  0
  -28.0717  -31.8433   26.5392 H   0  0  0  0  0  0
  -28.2597  -38.0111   24.7511 H   0  0  0  0  0  0
  -28.1073  -36.2639   24.6278 H   0  0  0  0  0  0
  -27.2294  -37.1448   25.8860 H   0  0  0  0  0  0
  -20.9302  -29.8752   21.6985 H   0  0  0  0  0  0
  -26.0189  -38.2874   24.1426 H   0  0  0  0  0  0
  -29.4149  -17.9173   21.2908 H   0  0  0  0  0  0
  -32.3456  -15.2226   22.9646 H   0  0  0  0  0  0
  -29.5867  -22.7906   19.6639 H   0  0  0  0  0  0
  -32.0969  -20.2241   24.7754 H   0  0  0  0  0  0
  -33.1300  -20.4924   23.3587 H   0  0  0  0  0  0
  -33.6429  -19.4014   24.6369 H   0  0  0  0  0  0
  -27.3739  -24.9024   20.1927 H   0  0  0  0  0  0
  -28.5610  -25.0527   18.9003 H   0  0  0  0  0  0
  -30.7790  -20.8117   23.1667 H   0  0  0  0  0  0
  -29.1886  -15.1767   21.6633 H   0  0  0  0  0  0
  -29.3356  -21.8473   23.4995 H   0  0  0  0  0  0
  1 25  1  0  0  0
  1 30  2  0  0  0
  1 84  1  0  0  0
  2  3  1  0  0  0
  2 25  1  0  0  0
  2 89  1  0  0  0
  2 90  1  0  0  0
  3  4  1  0  0  0
  3 91  1  0  0  0
  3 92  1  0  0  0
  4  5  1  0  0  0
  4 93  1  0  0  0
  4 94  1  0  0  0
  5  6  1  0  0  0
  5 26  1  0  0  0
  5 95  1  0  0  0
  6 25  1  0  0  0
  6 96  1  0  0  0
  6 97  1  0  0  0
  7  8  2  0  0  0
  7 26  1  0  0  0
  7 29  1  0  0  0
  8  9  1  0  0  0
  8 22  1  0  0  0
  9 10  1  0  0  0
  9 27  2  0  0  0
 10 11  2  0  0  0
 10 15  1  0  0  0
 11 12  1  0  0  0
 11 98  1  0  0  0
 12 13  2  0  0  0
 12 99  1  0  0  0
 13 14  1  0  0  0
 13 31  1  0  0  0
 14 15  2  0  0  0
 14100  1  0  0  0
 15101  1  0  0  0
 16 17  2  0  0  0
 16 21  1  0  0  0
 16 31  1  0  0  0
 17 18  1  0  0  0
 17102  1  0  0  0
 18 19  2  0  0  0
 18103  1  0  0  0
 19 20  1  0  0  0
 19 24  1  0  0  0
 20 21  2  0  0  0
 20104  1  0  0  0
 21 23  1  0  0  0
 22 28  1  0  0  0
 22 32  2  0  0  0
 26 27  1  0  0  0
 28105  1  0  0  0
 28106  1  0  0  0
 29107  1  0  0  0
 29108  1  0  0  0
 33 34  1  0  0  0
 33 66  1  0  0  0
 33 70  2  0  0  0
 34 36  1  0  0  0
 34 59  1  0  0  0
 34109  1  0  0  0
 35 44  2  0  0  0
 35 45  1  0  0  0
 35 68  1  0  0  0
 36 56  1  0  0  0
 36110  1  0  0  0
 37 39  1  0  0  0
 37 47  1  0  0  0
 37 66  1  0  0  0
 37111  1  0  0  0
 38 43  2  0  0  0
 38 46  1  0  0  0
 38 47  1  0  0  0
 39 64  1  0  0  0
 39 67  2  0  0  0
 40 52  1  0  0  0
 40 53  2  0  0  0
 40 58  1  0  0  0
 41112  1  0  0  0
 41113  1  0  0  0
 41114  1  0  0  0
 41 48  1  0  0  0
 42 43  1  0  0  0
 42 66  1  0  0  0
 42115  1  0  0  0
 42116  1  0  0  0
 43 44  1  0  0  0
 44117  1  0  0  0
 45 46  2  0  0  0
 45118  1  0  0  0
 46119  1  0  0  0
 47120  1  0  0  0
 47121  1  0  0  0
 48 56  1  0  0  0
 48 65  1  0  0  0
 48122  1  0  0  0
 49 50  1  0  0  0
 49 53  1  0  0  0
 49 64  1  0  0  0
 49123  1  0  0  0
 50 51  1  0  0  0
 50124  1  0  0  0
 50125  1  0  0  0
 51 52  1  0  0  0
 51126  1  0  0  0
 51127  1  0  0  0
 52128  1  0  0  0
 52129  1  0  0  0
 53 54  1  0  0  0
 54 55  2  0  0  0
 54130  1  0  0  0
 55 57  1  0  0  0
 55131  1  0  0  0
 56 69  2  0  0  0
 57 58  2  0  0  0
 57132  1  0  0  0
 58133  1  0  0  0
 59 60  1  0  0  0
 59 61  1  0  0  0
 59 62  1  0  0  0
 60134  1  0  0  0
 60135  1  0  0  0
 60136  1  0  0  0
 61137  1  0  0  0
 61138  1  0  0  0
 61139  1  0  0  0
 62140  1  0  0  0
 62141  1  0  0  0
 62142  1  0  0  0
 63 65  1  0  0  0
 63143  1  0  0  0
 63144  1  0  0  0
 63145  1  0  0  0
 64146  1  0  0  0
 65147  1  0  0  0
 68 82  1  0  0  0
 71 74  2  0  0  0
 71 75  1  0  0  0
 71148  1  0  0  0
 72 74  1  0  0  0
 72 76  2  0  0  0
 72149  1  0  0  0
 73 75  2  0  0  0
 73 76  1  0  0  0
 73 81  1  0  0  0
 74 84  1  0  0  0
 75 83  1  0  0  0
 76 88  1  0  0  0
 77 78  2  0  0  0
 77 79  1  0  0  0
 77150  1  0  0  0
 78 80  1  0  0  0
 78 87  1  0  0  0
 79 82  1  0  0  0
 79 85  2  0  0  0
 80 83  1  0  0  0
 80 86  2  0  0  0
 81151  1  0  0  0
 81152  1  0  0  0
 81153  1  0  0  0
 82154  1  0  0  0
 82155  1  0  0  0
 83156  1  0  0  0
 84157  1  0  0  0
 87158  1  0  0  0
M  ISO  4   1 100  68 101  82 101  84 100
M  END
> <chiral flag>
0

> <version>
0

> <s_m_source_file>
/data/baiqing/PycharmProjects/Reinvent-master-3.2/result/LINK_invent/BTK/process_docking_weight1_custom_product_contain_oxygen_bond_distance_aromatic_linkinvent_7_9_3/rearranged_h_0175.sdf

> <i_m_source_file_index>
21

> <r_mmod_Potential_Energy-OPLS-2005>
-67.3741683959961

> <r_mmod_Stretch_Energy-OPLS-2005>
37.51171875

> <r_mmod_Bend_Energy-OPLS-2005>
99.0598754882812

> <r_mmod_Torsional_Energy-OPLS-2005>
254.934173583984

> <r_mmod_Improper_Torsional_Energy-OPLS-2005>
2.92245101928711

> <r_mmod_Van_der_Waal_Energy-OPLS-2005>
172.669692993164

> <r_mmod_Electrostatic_Energy-OPLS-2005>
-380.505981445312

> <r_mmod_Solvation_Energy-OPLS-2005>
-263.591003417969

> <b_mmod_Minimization_Converged-OPLS-2005>
0

> <r_mmod_RMS_Derivative-OPLS-2005>
1.78991103172302

$$$$
22
                    3D
 Structure written by MMmdl.
159167  0  0  1  0            999 V2000
  -30.7364  -14.3906   20.6330 C   0  0  0  0  0  0
  -30.4185  -12.2788   19.4066 C   0  0  0  0  0  0
  -29.4906  -12.5211   18.1999 C   0  0  0  0  0  0
  -28.0114  -12.3856   18.6106 C   0  0  0  0  0  0
  -27.6682  -13.2040   19.8842 C   0  0  2  0  0  0
  -28.7055  -12.9406   20.9990 C   0  0  0  0  0  0
  -25.2611  -13.8164   20.5677 C   0  0  0  0  0  0
  -24.1849  -13.0440   20.9156 C   0  0  0  0  0  0
  -24.6403  -11.6907   20.8727 C   0  0  0  0  0  0
  -23.9069  -10.4293   21.0403 C   0  0  0  0  0  0
  -24.3623   -9.4209   21.9183 C   0  0  0  0  0  0
  -23.6292   -8.2244   22.0756 C   0  0  0  0  0  0
  -22.4273   -8.0285   21.3552 C   0  0  0  0  0  0
  -21.9911   -9.0258   20.4651 C   0  0  0  0  0  0
  -22.7242  -10.2134   20.3055 C   0  0  0  0  0  0
  -21.6854   -6.0738   22.5283 C   0  0  0  0  0  0
  -21.4013   -6.5641   23.8219 C   0  0  0  0  0  0
  -21.3660   -5.6792   24.9180 C   0  0  0  0  0  0
  -21.6042   -4.3053   24.7229 C   0  0  0  0  0  0
  -21.8821   -3.8148   23.4350 C   0  0  0  0  0  0
  -21.9190   -4.6967   22.3406 C   0  0  0  0  0  0
  -22.7871  -13.5244   21.1829 C   0  0  0  0  0  0
  -22.1659   -4.2154   21.0984 F   0  0  0  0  0  0
  -21.5628   -3.4537   25.7739 F   0  0  0  0  0  0
  -30.0485  -13.2321   20.4627 N   0  0  0  0  0  0
  -26.3058  -12.9331   20.3396 N   0  0  0  0  0  0
  -25.9333  -11.6490   20.5771 N   0  0  0  0  0  0
  -22.0512  -12.8241   22.0392 N   0  0  0  0  0  0
  -25.4329  -15.1882   20.4090 N   0  0  0  0  0  0
  -31.7999  -14.6384   20.0534 O   0  0  0  0  0  0
  -21.6639   -6.8882   21.4245 O   0  0  0  0  0  0
  -22.3560  -14.5557   20.6683 O   0  0  0  0  0  0
  -24.6105  -31.8684   23.2120 C   0  0  0  0  0  0
  -25.9022  -32.4828   23.8393 C   0  0  1  0  0  0
  -27.2432  -27.4749   20.1045 C   0  0  0  0  0  0
  -25.5903  -33.8625   24.2340 N   0  0  0  0  0  0
  -23.3970  -30.4897   21.5514 C   0  0  2  0  0  0
  -24.8461  -28.9585   20.1141 C   0  0  0  0  0  0
  -22.7382  -29.4653   22.5022 C   0  0  0  0  0  0
  -18.0249  -28.1377   22.8494 C   0  0  0  0  0  0
  -24.1491  -36.7306   23.2642 C   0  0  0  0  0  0
  -25.9190  -30.8521   21.3530 C   0  0  0  0  0  0
  -26.0009  -29.4891   20.7023 C   0  0  0  0  0  0
  -27.2040  -28.7578   20.6891 C   0  0  0  0  0  0
  -26.0791  -26.9476   19.5095 C   0  0  0  0  0  0
  -24.8782  -27.6857   19.5134 C   0  0  0  0  0  0
  -23.6013  -29.8159   20.1666 C   0  0  0  0  0  0
  -25.4106  -36.3119   24.0349 C   0  0  1  0  0  0
  -20.5843  -28.3643   23.1340 C   0  0  2  0  0  0
  -20.6748  -26.9388   22.5429 C   0  0  0  0  0  0
  -19.5736  -26.6381   21.5220 C   0  0  0  0  0  0
  -18.1903  -26.7932   22.1612 C   0  0  0  0  0  0
  -19.1503  -28.8831   23.2916 C   0  0  0  0  0  0
  -18.9440  -30.1450   23.8914 C   0  0  0  0  0  0
  -17.6445  -30.6593   24.0559 C   0  0  0  0  0  0
  -25.9024  -34.9479   23.5133 C   0  0  0  0  0  0
  -16.5329  -29.9089   23.6343 C   0  0  0  0  0  0
  -16.7239  -28.6506   23.0357 C   0  0  0  0  0  0
  -26.4466  -31.6591   25.0697 C   0  0  0  0  0  0
  -25.3746  -31.3684   26.1456 C   0  0  0  0  0  0
  -27.0286  -30.3045   24.6031 C   0  0  0  0  0  0
  -27.6063  -32.4289   25.7445 C   0  0  0  0  0  0
  -27.5588  -37.1801   24.8468 C   0  0  0  0  0  0
  -21.4114  -29.3014   22.3756 N   0  0  0  0  0  0
  -26.4300  -37.3796   23.9423 N   0  0  0  0  0  0
  -24.6604  -31.0829   22.0988 N   0  0  0  0  0  0
  -23.4163  -28.8187   23.3049 O   0  0  0  0  0  0
  -28.4053  -26.7460   20.1124 O   0  0  0  0  0  0
  -26.5577  -34.8934   22.4688 O   0  0  0  0  0  0
  -23.5312  -32.1405   23.7554 O   0  0  0  0  0  0
  -30.6585  -18.8206   20.4207 C   0  0  0  0  0  0
  -31.2102  -19.3835   21.5921 C   0  0  0  0  0  0
  -30.5112  -16.6424   21.5195 C   0  0  0  0  0  0
  -30.3070  -17.4583   20.3831 C   0  0  0  0  0  0
  -31.3844  -18.5717   22.7369 C   0  0  0  0  0  0
  -31.0252  -17.2084   22.7031 C   0  0  0  0  0  0
  -29.6600  -23.7292   20.1507 C   0  0  0  0  0  0
  -30.8598  -22.7669   20.2383 C   0  0  0  0  0  0
  -28.6019  -26.5541   22.5660 C   0  0  0  0  0  0
  -31.6435  -20.8417   21.6036 C   0  0  0  0  0  0
  -29.8067  -24.9914   21.0045 C   0  0  0  0  0  0
  -28.5278  -25.8270   21.2065 C   0  0  2  0  0  0
  -30.1854  -15.2651   21.4822 N   0  0  0  0  0  0
  -30.6290  -21.7518   21.0806 N   0  0  0  0  0  0
  -28.6509  -23.4764   19.4835 O   0  0  0  0  0  0
  -31.9233  -22.9655   19.6431 O   0  0  0  0  0  0
  -29.7645  -16.9390   19.2549 F   0  0  0  0  0  0
  -31.9020  -19.0957   23.8742 F   0  0  0  0  0  0
  -31.1963  -16.4376   23.8056 F   0  0  0  0  0  0
  -31.4643  -12.3702   19.1071 H   0  0  0  0  0  0
  -30.3081  -11.2570   19.7727 H   0  0  0  0  0  0
  -29.7217  -11.8167   17.3999 H   0  0  0  0  0  0
  -29.6685  -13.5182   17.7919 H   0  0  0  0  0  0
  -27.8099  -11.3277   18.7825 H   0  0  0  0  0  0
  -27.3634  -12.6871   17.7868 H   0  0  0  0  0  0
  -27.7279  -14.2601   19.6168 H   0  0  0  0  0  0
  -28.6645  -11.8963   21.3110 H   0  0  0  0  0  0
  -28.4608  -13.5127   21.8942 H   0  0  0  0  0  0
  -25.2775   -9.5677   22.4751 H   0  0  0  0  0  0
  -24.0003   -7.4638   22.7476 H   0  0  0  0  0  0
  -21.0842   -8.8780   19.8959 H   0  0  0  0  0  0
  -22.3713  -10.9671   19.6156 H   0  0  0  0  0  0
  -21.2005   -7.6148   23.9728 H   0  0  0  0  0  0
  -21.1475   -6.0519   25.9086 H   0  0  0  0  0  0
  -22.0597   -2.7609   23.2849 H   0  0  0  0  0  0
  -22.4114  -11.9890   22.4772 H   0  0  0  0  0  0
  -21.1141  -13.1286   22.2612 H   0  0  0  0  0  0
  -24.6673  -15.8448   20.5177 H   0  0  0  0  0  0
  -26.2926  -15.6287   20.1055 H   0  0  0  0  0  0
  -26.7097  -32.5541   23.1165 H   0  0  0  0  0  0
  -25.0134  -33.9796   25.0541 H   0  0  0  0  0  0
  -22.6866  -31.3066   21.4112 H   0  0  0  0  0  0
  -23.3775  -35.9616   23.3302 H   0  0  0  0  0  0
  -24.3597  -36.8909   22.2060 H   0  0  0  0  0  0
  -23.7214  -37.6501   23.6636 H   0  0  0  0  0  0
  -26.0210  -31.6220   20.5855 H   0  0  0  0  0  0
  -26.8109  -30.9089   21.9646 H   0  0  0  0  0  0
  -28.0973  -29.1633   21.1441 H   0  0  0  0  0  0
  -26.1044  -25.9679   19.0543 H   0  0  0  0  0  0
  -23.9904  -27.2680   19.0598 H   0  0  0  0  0  0
  -23.6958  -30.5865   19.4013 H   0  0  0  0  0  0
  -22.7301  -29.2249   19.8776 H   0  0  0  0  0  0
  -25.1286  -36.1981   25.0842 H   0  0  0  0  0  0
  -20.9921  -28.3191   24.1463 H   0  0  0  0  0  0
  -20.5682  -26.2238   23.3599 H   0  0  0  0  0  0
  -21.6609  -26.7456   22.1193 H   0  0  0  0  0  0
  -19.6903  -25.6297   21.1241 H   0  0  0  0  0  0
  -19.6688  -27.3196   20.6758 H   0  0  0  0  0  0
  -17.4179  -26.6689   21.4007 H   0  0  0  0  0  0
  -18.0295  -26.0064   22.8999 H   0  0  0  0  0  0
  -19.7920  -30.7265   24.2277 H   0  0  0  0  0  0
  -17.4995  -31.6280   24.5150 H   0  0  0  0  0  0
  -15.5332  -30.2994   23.7695 H   0  0  0  0  0  0
  -15.8620  -28.0838   22.7077 H   0  0  0  0  0  0
  -24.5920  -30.7032   25.7799 H   0  0  0  0  0  0
  -24.8942  -32.2833   26.4930 H   0  0  0  0  0  0
  -25.8110  -30.8832   27.0195 H   0  0  0  0  0  0
  -26.2803  -29.6805   24.1130 H   0  0  0  0  0  0
  -27.4144  -29.7272   25.4448 H   0  0  0  0  0  0
  -27.8597  -30.4405   23.9102 H   0  0  0  0  0  0
  -27.2720  -33.3598   26.2031 H   0  0  0  0  0  0
  -28.3860  -32.6825   25.0250 H   0  0  0  0  0  0
  -28.0730  -31.8387   26.5340 H   0  0  0  0  0  0
  -28.2610  -38.0106   24.7543 H   0  0  0  0  0  0
  -28.1083  -36.2636   24.6249 H   0  0  0  0  0  0
  -27.2302  -37.1392   25.8873 H   0  0  0  0  0  0
  -20.9271  -29.8711   21.6958 H   0  0  0  0  0  0
  -26.0194  -38.2878   24.1426 H   0  0  0  0  0  0
  -30.5142  -19.4291   19.5400 H   0  0  0  0  0  0
  -28.7581  -25.8419   23.3770 H   0  0  0  0  0  0
  -27.6796  -27.0863   22.7979 H   0  0  0  0  0  0
  -29.4235  -27.2703   22.5908 H   0  0  0  0  0  0
  -32.5736  -20.9162   21.0360 H   0  0  0  0  0  0
  -31.8863  -21.1607   22.6183 H   0  0  0  0  0  0
  -30.6026  -25.6123   20.5930 H   0  0  0  0  0  0
  -30.1646  -24.6491   21.9760 H   0  0  0  0  0  0
  -27.6554  -25.1698   21.2259 H   0  0  0  0  0  0
  -29.4003  -14.9570   22.0338 H   0  0  0  0  0  0
  -29.7050  -21.7062   21.4889 H   0  0  0  0  0  0
  1 25  1  0  0  0
  1 30  2  0  0  0
  1 83  1  0  0  0
  2  3  1  0  0  0
  2 25  1  0  0  0
  2 90  1  0  0  0
  2 91  1  0  0  0
  3  4  1  0  0  0
  3 92  1  0  0  0
  3 93  1  0  0  0
  4  5  1  0  0  0
  4 94  1  0  0  0
  4 95  1  0  0  0
  5  6  1  0  0  0
  5 26  1  0  0  0
  5 96  1  0  0  0
  6 25  1  0  0  0
  6 97  1  0  0  0
  6 98  1  0  0  0
  7  8  2  0  0  0
  7 26  1  0  0  0
  7 29  1  0  0  0
  8  9  1  0  0  0
  8 22  1  0  0  0
  9 10  1  0  0  0
  9 27  2  0  0  0
 10 11  2  0  0  0
 10 15  1  0  0  0
 11 12  1  0  0  0
 11 99  1  0  0  0
 12 13  2  0  0  0
 12100  1  0  0  0
 13 14  1  0  0  0
 13 31  1  0  0  0
 14 15  2  0  0  0
 14101  1  0  0  0
 15102  1  0  0  0
 16 17  2  0  0  0
 16 21  1  0  0  0
 16 31  1  0  0  0
 17 18  1  0  0  0
 17103  1  0  0  0
 18 19  2  0  0  0
 18104  1  0  0  0
 19 20  1  0  0  0
 19 24  1  0  0  0
 20 21  2  0  0  0
 20105  1  0  0  0
 21 23  1  0  0  0
 22 28  1  0  0  0
 22 32  2  0  0  0
 26 27  1  0  0  0
 28106  1  0  0  0
 28107  1  0  0  0
 29108  1  0  0  0
 29109  1  0  0  0
 33 34  1  0  0  0
 33 66  1  0  0  0
 33 70  2  0  0  0
 34 36  1  0  0  0
 34 59  1  0  0  0
 34110  1  0  0  0
 35 44  2  0  0  0
 35 45  1  0  0  0
 35 68  1  0  0  0
 36 56  1  0  0  0
 36111  1  0  0  0
 37 39  1  0  0  0
 37 47  1  0  0  0
 37 66  1  0  0  0
 37112  1  0  0  0
 38 43  2  0  0  0
 38 46  1  0  0  0
 38 47  1  0  0  0
 39 64  1  0  0  0
 39 67  2  0  0  0
 40 52  1  0  0  0
 40 53  2  0  0  0
 40 58  1  0  0  0
 41113  1  0  0  0
 41114  1  0  0  0
 41115  1  0  0  0
 41 48  1  0  0  0
 42 43  1  0  0  0
 42 66  1  0  0  0
 42116  1  0  0  0
 42117  1  0  0  0
 43 44  1  0  0  0
 44118  1  0  0  0
 45 46  2  0  0  0
 45119  1  0  0  0
 46120  1  0  0  0
 47121  1  0  0  0
 47122  1  0  0  0
 48 56  1  0  0  0
 48 65  1  0  0  0
 48123  1  0  0  0
 49 50  1  0  0  0
 49 53  1  0  0  0
 49 64  1  0  0  0
 49124  1  0  0  0
 50 51  1  0  0  0
 50125  1  0  0  0
 50126  1  0  0  0
 51 52  1  0  0  0
 51127  1  0  0  0
 51128  1  0  0  0
 52129  1  0  0  0
 52130  1  0  0  0
 53 54  1  0  0  0
 54 55  2  0  0  0
 54131  1  0  0  0
 55 57  1  0  0  0
 55132  1  0  0  0
 56 69  2  0  0  0
 57 58  2  0  0  0
 57133  1  0  0  0
 58134  1  0  0  0
 59 60  1  0  0  0
 59 61  1  0  0  0
 59 62  1  0  0  0
 60135  1  0  0  0
 60136  1  0  0  0
 60137  1  0  0  0
 61138  1  0  0  0
 61139  1  0  0  0
 61140  1  0  0  0
 62141  1  0  0  0
 62142  1  0  0  0
 62143  1  0  0  0
 63 65  1  0  0  0
 63144  1  0  0  0
 63145  1  0  0  0
 63146  1  0  0  0
 64147  1  0  0  0
 65148  1  0  0  0
 68 82  1  0  0  0
 71 72  2  0  0  0
 71 74  1  0  0  0
 71149  1  0  0  0
 72 75  1  0  0  0
 72 80  1  0  0  0
 73 74  2  0  0  0
 73 76  1  0  0  0
 73 83  1  0  0  0
 74 87  1  0  0  0
 75 76  2  0  0  0
 75 88  1  0  0  0
 76 89  1  0  0  0
 77 78  1  0  0  0
 77 81  1  0  0  0
 77 85  2  0  0  0
 78 84  1  0  0  0
 78 86  2  0  0  0
 79150  1  0  0  0
 79151  1  0  0  0
 79152  1  0  0  0
 79 82  1  0  0  0
 80 84  1  0  0  0
 80153  1  0  0  0
 80154  1  0  0  0
 81 82  1  0  0  0
 81155  1  0  0  0
 81156  1  0  0  0
 82157  1  0  0  0
 83158  1  0  0  0
 84159  1  0  0  0
M  ISO  4   1 100  68 101  82 101  83 100
M  END
> <chiral flag>
0

> <version>
0

> <s_m_source_file>
/data/baiqing/PycharmProjects/Reinvent-master-3.2/result/LINK_invent/BTK/process_docking_weight1_custom_product_contain_oxygen_bond_distance_aromatic_linkinvent_7_9_3/rearranged_h_0175.sdf

> <i_m_source_file_index>
22

> <r_mmod_Potential_Energy-OPLS-2005>
-152.276321411133

> <r_mmod_Stretch_Energy-OPLS-2005>
32.5880584716797

> <r_mmod_Bend_Energy-OPLS-2005>
87.4714279174805

> <r_mmod_Torsional_Energy-OPLS-2005>
254.882339477539

> <r_mmod_Improper_Torsional_Energy-OPLS-2005>
2.85812616348267

> <r_mmod_Van_der_Waal_Energy-OPLS-2005>
151.098754882812

> <r_mmod_Electrostatic_Energy-OPLS-2005>
-448.519439697266

> <r_mmod_Solvation_Energy-OPLS-2005>
-239.785278320312

> <b_mmod_Minimization_Converged-OPLS-2005>
0

> <r_mmod_RMS_Derivative-OPLS-2005>
1.72647726535797

$$$$
23
                    3D
 Structure written by MMmdl.
155163  0  0  1  0            999 V2000
  -30.6860  -14.4582   20.5916 C   0  0  0  0  0  0
  -30.4294  -12.3028   19.4194 C   0  0  0  0  0  0
  -29.4970  -12.5126   18.2072 C   0  0  0  0  0  0
  -28.0175  -12.3716   18.6172 C   0  0  0  0  0  0
  -27.6660  -13.2009   19.8812 C   0  0  2  0  0  0
  -28.7046  -12.9526   20.9984 C   0  0  0  0  0  0
  -25.2603  -13.8146   20.5663 C   0  0  0  0  0  0
  -24.1846  -13.0434   20.9167 C   0  0  0  0  0  0
  -24.6393  -11.6900   20.8731 C   0  0  0  0  0  0
  -23.9056  -10.4289   21.0405 C   0  0  0  0  0  0
  -24.3611   -9.4204   21.9183 C   0  0  0  0  0  0
  -23.6286   -8.2239   22.0754 C   0  0  0  0  0  0
  -22.4268   -8.0279   21.3546 C   0  0  0  0  0  0
  -21.9904   -9.0251   20.4647 C   0  0  0  0  0  0
  -22.7230  -10.2130   20.3054 C   0  0  0  0  0  0
  -21.6850   -6.0733   22.5279 C   0  0  0  0  0  0
  -21.4014   -6.5638   23.8212 C   0  0  0  0  0  0
  -21.3658   -5.6792   24.9174 C   0  0  0  0  0  0
  -21.6043   -4.3055   24.7224 C   0  0  0  0  0  0
  -21.8819   -3.8147   23.4346 C   0  0  0  0  0  0
  -21.9191   -4.6962   22.3402 C   0  0  0  0  0  0
  -22.7870  -13.5239   21.1835 C   0  0  0  0  0  0
  -22.1659   -4.2149   21.0979 F   0  0  0  0  0  0
  -21.5627   -3.4540   25.7736 F   0  0  0  0  0  0
  -30.0416  -13.2673   20.4603 N   0  0  0  0  0  0
  -26.3042  -12.9306   20.3378 N   0  0  0  0  0  0
  -25.9319  -11.6472   20.5767 N   0  0  0  0  0  0
  -22.0511  -12.8234   22.0395 N   0  0  0  0  0  0
  -25.4337  -15.1858   20.4040 N   0  0  0  0  0  0
  -31.7839  -14.6908   20.0790 O   0  0  0  0  0  0
  -21.6635   -6.8875   21.4242 O   0  0  0  0  0  0
  -22.3553  -14.5546   20.6686 O   0  0  0  0  0  0
  -24.6123  -31.8681   23.2091 C   0  0  0  0  0  0
  -25.9024  -32.4822   23.8387 C   0  0  1  0  0  0
  -27.2414  -27.4425   20.1116 C   0  0  0  0  0  0
  -25.5880  -33.8619   24.2323 N   0  0  0  0  0  0
  -23.4009  -30.4887   21.5493 C   0  0  2  0  0  0
  -24.8503  -28.9507   20.1186 C   0  0  0  0  0  0
  -22.7402  -29.4652   22.5000 C   0  0  0  0  0  0
  -18.0265  -28.1374   22.8487 C   0  0  0  0  0  0
  -24.1484  -36.7320   23.2639 C   0  0  0  0  0  0
  -25.9260  -30.8391   21.3584 C   0  0  0  0  0  0
  -26.0068  -29.4711   20.7133 C   0  0  0  0  0  0
  -27.2066  -28.7271   20.7013 C   0  0  0  0  0  0
  -26.0747  -26.9360   19.5047 C   0  0  0  0  0  0
  -24.8786  -27.6818   19.5105 C   0  0  0  0  0  0
  -23.6104  -29.8157   20.1654 C   0  0  0  0  0  0
  -25.4101  -36.3112   24.0341 C   0  0  1  0  0  0
  -20.5854  -28.3655   23.1326 C   0  0  2  0  0  0
  -20.6758  -26.9395   22.5421 C   0  0  0  0  0  0
  -19.5743  -26.6382   21.5213 C   0  0  0  0  0  0
  -18.1919  -26.7918   22.1622 C   0  0  0  0  0  0
  -19.1515  -28.8831   23.2903 C   0  0  0  0  0  0
  -18.9452  -30.1437   23.8914 C   0  0  0  0  0  0
  -17.6458  -30.6584   24.0565 C   0  0  0  0  0  0
  -25.9026  -34.9477   23.5132 C   0  0  0  0  0  0
  -16.5346  -29.9091   23.6322 C   0  0  0  0  0  0
  -16.7256  -28.6507   23.0340 C   0  0  0  0  0  0
  -26.4461  -31.6587   25.0701 C   0  0  0  0  0  0
  -25.3731  -31.3700   26.1456 C   0  0  0  0  0  0
  -27.0276  -30.3029   24.6041 C   0  0  0  0  0  0
  -27.6040  -32.4296   25.7468 C   0  0  0  0  0  0
  -27.5582  -37.1810   24.8464 C   0  0  0  0  0  0
  -21.4130  -29.3027   22.3742 N   0  0  0  0  0  0
  -26.4292  -37.3791   23.9411 N   0  0  0  0  0  0
  -24.6647  -31.0790   22.0985 N   0  0  0  0  0  0
  -23.4179  -28.8201   23.3044 O   0  0  0  0  0  0
  -28.4105  -26.7139   20.0623 O   0  0  0  0  0  0
  -26.5595  -34.8930   22.4698 O   0  0  0  0  0  0
  -23.5320  -32.1428   23.7492 O   0  0  0  0  0  0
  -30.8129  -17.5518   20.2225 C   0  0  0  0  0  0
  -29.9565  -16.8136   21.0726 C   0  0  0  0  0  0
  -30.6104  -18.9416   20.0830 C   0  0  0  0  0  0
  -29.5636  -19.5725   20.7911 C   0  0  0  0  0  0
  -28.9515  -17.5305   21.7493 C   0  0  0  0  0  0
  -28.8182  -23.2991   20.4766 C   0  0  0  0  0  0
  -28.5370  -21.8611   21.0134 C   0  0  0  0  0  0
  -28.5465  -26.5075   22.5411 C   0  0  0  0  0  0
  -27.9993  -24.4520   21.0979 C   0  0  0  0  0  0
  -28.7126  -25.8336   21.1643 C   0  0  1  0  0  0
  -28.7584  -18.8617   21.6175 N   0  0  0  0  0  0
  -29.9982  -15.3938   21.2697 N   0  0  0  0  0  0
  -29.4400  -20.9706   20.5582 N   0  0  0  0  0  0
  -29.6550  -23.5070   19.5879 O   0  0  0  0  0  0
  -27.5875  -21.6127   21.7664 O   0  0  0  0  0  0
  -31.4100  -19.6679   19.2629 F   0  0  0  0  0  0
  -28.1138  -16.8468   22.5653 F   0  0  0  0  0  0
  -31.4731  -12.4118   19.1195 H   0  0  0  0  0  0
  -30.3369  -11.2852   19.8019 H   0  0  0  0  0  0
  -29.7363  -11.7960   17.4205 H   0  0  0  0  0  0
  -29.6656  -13.5025   17.7794 H   0  0  0  0  0  0
  -27.8251  -11.3143   18.8044 H   0  0  0  0  0  0
  -27.3677  -12.6552   17.7883 H   0  0  0  0  0  0
  -27.7194  -14.2528   19.6000 H   0  0  0  0  0  0
  -28.6775  -11.9074   21.3104 H   0  0  0  0  0  0
  -28.4558  -13.5210   21.8954 H   0  0  0  0  0  0
  -25.2759   -9.5677   22.4753 H   0  0  0  0  0  0
  -23.9997   -7.4629   22.7472 H   0  0  0  0  0  0
  -21.0835   -8.8767   19.8952 H   0  0  0  0  0  0
  -22.3692  -10.9667   19.6159 H   0  0  0  0  0  0
  -21.2009   -7.6146   23.9716 H   0  0  0  0  0  0
  -21.1479   -6.0521   25.9075 H   0  0  0  0  0  0
  -22.0601   -2.7610   23.2845 H   0  0  0  0  0  0
  -22.4124  -11.9890   22.4777 H   0  0  0  0  0  0
  -21.1132  -13.1265   22.2607 H   0  0  0  0  0  0
  -24.6702  -15.8443   20.5126 H   0  0  0  0  0  0
  -26.2876  -15.6202   20.0795 H   0  0  0  0  0  0
  -26.7097  -32.5551   23.1159 H   0  0  0  0  0  0
  -25.0014  -33.9775   25.0457 H   0  0  0  0  0  0
  -22.6889  -31.3042   21.4073 H   0  0  0  0  0  0
  -23.3739  -35.9660   23.3308 H   0  0  0  0  0  0
  -24.3584  -36.8924   22.2053 H   0  0  0  0  0  0
  -23.7246  -37.6532   23.6647 H   0  0  0  0  0  0
  -26.0270  -31.6017   20.5851 H   0  0  0  0  0  0
  -26.8178  -30.9012   21.9701 H   0  0  0  0  0  0
  -28.1037  -29.1334   21.1463 H   0  0  0  0  0  0
  -26.0936  -25.9681   19.0241 H   0  0  0  0  0  0
  -23.9913  -27.2774   19.0435 H   0  0  0  0  0  0
  -23.7182  -30.5884   19.4034 H   0  0  0  0  0  0
  -22.7358  -29.2326   19.8710 H   0  0  0  0  0  0
  -25.1282  -36.1981   25.0836 H   0  0  0  0  0  0
  -20.9932  -28.3216   24.1453 H   0  0  0  0  0  0
  -20.5659  -26.2264   23.3604 H   0  0  0  0  0  0
  -21.6631  -26.7442   22.1219 H   0  0  0  0  0  0
  -19.6912  -25.6298   21.1232 H   0  0  0  0  0  0
  -19.6689  -27.3203   20.6752 H   0  0  0  0  0  0
  -17.4191  -26.6660   21.4021 H   0  0  0  0  0  0
  -18.0323  -26.0057   22.9016 H   0  0  0  0  0  0
  -19.7936  -30.7237   24.2294 H   0  0  0  0  0  0
  -17.5024  -31.6269   24.5161 H   0  0  0  0  0  0
  -15.5351  -30.3009   23.7634 H   0  0  0  0  0  0
  -15.8652  -28.0840   22.7041 H   0  0  0  0  0  0
  -24.5893  -30.7055   25.7799 H   0  0  0  0  0  0
  -24.8931  -32.2861   26.4910 H   0  0  0  0  0  0
  -25.8079  -30.8867   27.0211 H   0  0  0  0  0  0
  -26.2807  -29.6814   24.1081 H   0  0  0  0  0  0
  -27.4049  -29.7232   25.4475 H   0  0  0  0  0  0
  -27.8640  -30.4352   23.9171 H   0  0  0  0  0  0
  -27.2655  -33.3579   26.2086 H   0  0  0  0  0  0
  -28.3833  -32.6880   25.0286 H   0  0  0  0  0  0
  -28.0723  -31.8391   26.5355 H   0  0  0  0  0  0
  -28.2598  -38.0108   24.7504 H   0  0  0  0  0  0
  -28.1078  -36.2636   24.6291 H   0  0  0  0  0  0
  -27.2304  -37.1466   25.8869 H   0  0  0  0  0  0
  -20.9287  -29.8753   21.6970 H   0  0  0  0  0  0
  -26.0188  -38.2873   24.1409 H   0  0  0  0  0  0
  -31.6076  -17.0871   19.6613 H   0  0  0  0  0  0
  -28.9212  -25.8632   23.3366 H   0  0  0  0  0  0
  -27.5022  -26.7260   22.7668 H   0  0  0  0  0  0
  -29.1077  -27.4407   22.5942 H   0  0  0  0  0  0
  -27.7509  -24.1430   22.1133 H   0  0  0  0  0  0
  -27.0481  -24.5292   20.5750 H   0  0  0  0  0  0
  -29.7857  -25.6572   21.0749 H   0  0  0  0  0  0
  -29.2142  -15.0281   21.7924 H   0  0  0  0  0  0
  -30.1316  -21.3632   19.9328 H   0  0  0  0  0  0
  1 25  1  0  0  0
  1 30  2  0  0  0
  1 82  1  0  0  0
  2  3  1  0  0  0
  2 25  1  0  0  0
  2 88  1  0  0  0
  2 89  1  0  0  0
  3  4  1  0  0  0
  3 90  1  0  0  0
  3 91  1  0  0  0
  4  5  1  0  0  0
  4 92  1  0  0  0
  4 93  1  0  0  0
  5  6  1  0  0  0
  5 26  1  0  0  0
  5 94  1  0  0  0
  6 25  1  0  0  0
  6 95  1  0  0  0
  6 96  1  0  0  0
  7  8  2  0  0  0
  7 26  1  0  0  0
  7 29  1  0  0  0
  8  9  1  0  0  0
  8 22  1  0  0  0
  9 10  1  0  0  0
  9 27  2  0  0  0
 10 11  2  0  0  0
 10 15  1  0  0  0
 11 12  1  0  0  0
 11 97  1  0  0  0
 12 13  2  0  0  0
 12 98  1  0  0  0
 13 14  1  0  0  0
 13 31  1  0  0  0
 14 15  2  0  0  0
 14 99  1  0  0  0
 15100  1  0  0  0
 16 17  2  0  0  0
 16 21  1  0  0  0
 16 31  1  0  0  0
 17 18  1  0  0  0
 17101  1  0  0  0
 18 19  2  0  0  0
 18102  1  0  0  0
 19 20  1  0  0  0
 19 24  1  0  0  0
 20 21  2  0  0  0
 20103  1  0  0  0
 21 23  1  0  0  0
 22 28  1  0  0  0
 22 32  2  0  0  0
 26 27  1  0  0  0
 28104  1  0  0  0
 28105  1  0  0  0
 29106  1  0  0  0
 29107  1  0  0  0
 33 34  1  0  0  0
 33 66  1  0  0  0
 33 70  2  0  0  0
 34 36  1  0  0  0
 34 59  1  0  0  0
 34108  1  0  0  0
 35 44  2  0  0  0
 35 45  1  0  0  0
 35 68  1  0  0  0
 36 56  1  0  0  0
 36109  1  0  0  0
 37 39  1  0  0  0
 37 47  1  0  0  0
 37 66  1  0  0  0
 37110  1  0  0  0
 38 43  2  0  0  0
 38 46  1  0  0  0
 38 47  1  0  0  0
 39 64  1  0  0  0
 39 67  2  0  0  0
 40 52  1  0  0  0
 40 53  2  0  0  0
 40 58  1  0  0  0
 41111  1  0  0  0
 41112  1  0  0  0
 41113  1  0  0  0
 41 48  1  0  0  0
 42 43  1  0  0  0
 42 66  1  0  0  0
 42114  1  0  0  0
 42115  1  0  0  0
 43 44  1  0  0  0
 44116  1  0  0  0
 45 46  2  0  0  0
 45117  1  0  0  0
 46118  1  0  0  0
 47119  1  0  0  0
 47120  1  0  0  0
 48 56  1  0  0  0
 48 65  1  0  0  0
 48121  1  0  0  0
 49 50  1  0  0  0
 49 53  1  0  0  0
 49 64  1  0  0  0
 49122  1  0  0  0
 50 51  1  0  0  0
 50123  1  0  0  0
 50124  1  0  0  0
 51 52  1  0  0  0
 51125  1  0  0  0
 51126  1  0  0  0
 52127  1  0  0  0
 52128  1  0  0  0
 53 54  1  0  0  0
 54 55  2  0  0  0
 54129  1  0  0  0
 55 57  1  0  0  0
 55130  1  0  0  0
 56 69  2  0  0  0
 57 58  2  0  0  0
 57131  1  0  0  0
 58132  1  0  0  0
 59 60  1  0  0  0
 59 61  1  0  0  0
 59 62  1  0  0  0
 60133  1  0  0  0
 60134  1  0  0  0
 60135  1  0  0  0
 61136  1  0  0  0
 61137  1  0  0  0
 61138  1  0  0  0
 62139  1  0  0  0
 62140  1  0  0  0
 62141  1  0  0  0
 63 65  1  0  0  0
 63142  1  0  0  0
 63143  1  0  0  0
 63144  1  0  0  0
 64145  1  0  0  0
 65146  1  0  0  0
 68 80  1  0  0  0
 71 72  2  0  0  0
 71 73  1  0  0  0
 71147  1  0  0  0
 72 75  1  0  0  0
 72 82  1  0  0  0
 73 74  2  0  0  0
 73 86  1  0  0  0
 74 81  1  0  0  0
 74 83  1  0  0  0
 75 81  2  0  0  0
 75 87  1  0  0  0
 76 77  1  0  0  0
 76 79  1  0  0  0
 76 84  2  0  0  0
 77 83  1  0  0  0
 77 85  2  0  0  0
 78148  1  0  0  0
 78149  1  0  0  0
 78150  1  0  0  0
 78 80  1  0  0  0
 79 80  1  0  0  0
 79151  1  0  0  0
 79152  1  0  0  0
 80153  1  0  0  0
 82154  1  0  0  0
 83155  1  0  0  0
M  ISO  4   1 100  68 101  80 101  82 100
M  END
> <chiral flag>
0

> <version>
0

> <s_m_source_file>
/data/baiqing/PycharmProjects/Reinvent-master-3.2/result/LINK_invent/BTK/process_docking_weight1_custom_product_contain_oxygen_bond_distance_aromatic_linkinvent_7_9_3/rearranged_h_0175.sdf

> <i_m_source_file_index>
23

> <r_mmod_Potential_Energy-OPLS-2005>
-301.103942871094

> <r_mmod_Stretch_Energy-OPLS-2005>
38.7077445983887

> <r_mmod_Bend_Energy-OPLS-2005>
115.664916992188

> <r_mmod_Torsional_Energy-OPLS-2005>
229.43782043457

> <r_mmod_Improper_Torsional_Energy-OPLS-2005>
3.54204416275024

> <r_mmod_Van_der_Waal_Energy-OPLS-2005>
158.378936767578

> <r_mmod_Electrostatic_Energy-OPLS-2005>
-624.783386230469

> <r_mmod_Solvation_Energy-OPLS-2005>
-231.758392333984

> <b_mmod_Minimization_Converged-OPLS-2005>
0

> <r_mmod_RMS_Derivative-OPLS-2005>
0.565118968486786

$$$$
24
                    3D
 Structure written by MMmdl.
151159  0  0  1  0            999 V2000
  -30.7027  -14.4918   20.5503 C   0  0  0  0  0  0
  -30.4140  -12.3124   19.4276 C   0  0  0  0  0  0
  -29.4944  -12.5132   18.2049 C   0  0  0  0  0  0
  -28.0150  -12.3726   18.6180 C   0  0  0  0  0  0
  -27.6588  -13.2134   19.8745 C   0  0  2  0  0  0
  -28.7022  -13.0154   20.9982 C   0  0  0  0  0  0
  -25.2565  -13.8157   20.5692 C   0  0  0  0  0  0
  -24.1822  -13.0429   20.9164 C   0  0  0  0  0  0
  -24.6396  -11.6894   20.8716 C   0  0  0  0  0  0
  -23.9063  -10.4284   21.0390 C   0  0  0  0  0  0
  -24.3627   -9.4209   21.9170 C   0  0  0  0  0  0
  -23.6300   -8.2249   22.0743 C   0  0  0  0  0  0
  -22.4280   -8.0282   21.3543 C   0  0  0  0  0  0
  -21.9914   -9.0245   20.4641 C   0  0  0  0  0  0
  -22.7234  -10.2127   20.3032 C   0  0  0  0  0  0
  -21.6855   -6.0741   22.5273 C   0  0  0  0  0  0
  -21.4002   -6.5638   23.8214 C   0  0  0  0  0  0
  -21.3667   -5.6792   24.9173 C   0  0  0  0  0  0
  -21.6053   -4.3052   24.7224 C   0  0  0  0  0  0
  -21.8814   -3.8150   23.4345 C   0  0  0  0  0  0
  -21.9192   -4.6972   22.3395 C   0  0  0  0  0  0
  -22.7842  -13.5229   21.1859 C   0  0  0  0  0  0
  -22.1656   -4.2161   21.0970 F   0  0  0  0  0  0
  -21.5661   -3.4532   25.7739 F   0  0  0  0  0  0
  -30.0258  -13.3152   20.4343 N   0  0  0  0  0  0
  -26.3023  -12.9351   20.3401 N   0  0  0  0  0  0
  -25.9339  -11.6492   20.5774 N   0  0  0  0  0  0
  -22.0503  -12.8207   22.0414 N   0  0  0  0  0  0
  -25.4287  -15.1878   20.4177 N   0  0  0  0  0  0
  -31.8471  -14.6392   20.1153 O   0  0  0  0  0  0
  -21.6647   -6.8881   21.4232 O   0  0  0  0  0  0
  -22.3512  -14.5549   20.6736 O   0  0  0  0  0  0
  -24.6195  -31.8693   23.2121 C   0  0  0  0  0  0
  -25.9083  -32.4824   23.8410 C   0  0  1  0  0  0
  -27.2109  -27.3896   20.0909 C   0  0  0  0  0  0
  -25.5937  -33.8628   24.2336 N   0  0  0  0  0  0
  -23.4075  -30.4986   21.5545 C   0  0  2  0  0  0
  -24.8488  -28.9727   20.1111 C   0  0  0  0  0  0
  -22.7435  -29.4687   22.4980 C   0  0  0  0  0  0
  -18.0285  -28.1383   22.8501 C   0  0  0  0  0  0
  -24.1470  -36.7287   23.2598 C   0  0  0  0  0  0
  -25.9461  -30.8170   21.3798 C   0  0  0  0  0  0
  -26.0168  -29.4536   20.7170 C   0  0  0  0  0  0
  -27.2016  -28.6695   20.7081 C   0  0  0  0  0  0
  -26.0196  -26.9577   19.4542 C   0  0  0  0  0  0
  -24.8474  -27.7254   19.4769 C   0  0  0  0  0  0
  -23.6149  -29.8419   20.1664 C   0  0  0  0  0  0
  -25.4070  -36.3103   24.0337 C   0  0  1  0  0  0
  -20.5883  -28.3701   23.1297 C   0  0  2  0  0  0
  -20.6787  -26.9430   22.5418 C   0  0  0  0  0  0
  -19.5747  -26.6393   21.5236 C   0  0  0  0  0  0
  -18.1925  -26.7929   22.1638 C   0  0  0  0  0  0
  -19.1536  -28.8855   23.2893 C   0  0  0  0  0  0
  -18.9457  -30.1467   23.8900 C   0  0  0  0  0  0
  -17.6457  -30.6593   24.0575 C   0  0  0  0  0  0
  -25.9061  -34.9485   23.5138 C   0  0  0  0  0  0
  -16.5345  -29.9091   23.6335 C   0  0  0  0  0  0
  -16.7270  -28.6509   23.0358 C   0  0  0  0  0  0
  -26.4488  -31.6602   25.0757 C   0  0  0  0  0  0
  -25.3730  -31.3732   26.1492 C   0  0  0  0  0  0
  -27.0319  -30.3014   24.6198 C   0  0  0  0  0  0
  -27.6073  -32.4322   25.7517 C   0  0  0  0  0  0
  -27.5649  -37.1657   24.8342 C   0  0  0  0  0  0
  -21.4167  -29.3067   22.3701 N   0  0  0  0  0  0
  -26.4179  -37.3871   23.9575 N   0  0  0  0  0  0
  -24.6762  -31.0755   22.1057 N   0  0  0  0  0  0
  -23.4195  -28.8222   23.3024 O   0  0  0  0  0  0
  -28.3310  -26.5626   20.1365 O   0  0  0  0  0  0
  -26.5627  -34.8948   22.4704 O   0  0  0  0  0  0
  -23.5377  -32.1495   23.7475 O   0  0  0  0  0  0
  -29.5873  -18.0821   21.2473 C   0  0  0  0  0  0
  -28.3675  -18.0974   21.8957 C   0  0  0  0  0  0
  -29.0533  -20.3237   21.0334 C   0  0  0  0  0  0
  -29.1079  -24.1410   20.4144 C   0  0  0  0  0  0
  -28.5830  -22.7842   21.0136 C   0  0  0  0  0  0
  -30.5649  -16.9243   21.0734 C   0  0  0  0  0  0
  -28.0137  -25.1477   19.9866 C   0  0  0  0  0  0
  -29.9433  -19.3573   20.7485 N   0  0  0  0  0  0
  -27.7028  -17.0562   22.5405 N   0  0  0  0  0  0
  -29.2870  -21.6865   20.6471 N   0  0  0  0  0  0
  -30.0137  -15.5518   21.0204 N   0  0  0  0  0  0
  -30.3129  -24.3765   20.2549 O   0  0  0  0  0  0
  -27.6011  -22.7634   21.7647 O   0  0  0  0  0  0
  -27.6538  -19.6971   21.9113 S   0  0  0  0  0  0
  -31.4625  -12.3880   19.1365 H   0  0  0  0  0  0
  -30.2892  -11.3054   19.8273 H   0  0  0  0  0  0
  -29.7350  -11.7880   17.4256 H   0  0  0  0  0  0
  -29.6653  -13.4985   17.7654 H   0  0  0  0  0  0
  -27.8329  -11.3160   18.8188 H   0  0  0  0  0  0
  -27.3607  -12.6413   17.7863 H   0  0  0  0  0  0
  -27.6958  -14.2609   19.5743 H   0  0  0  0  0  0
  -28.6820  -11.9880   21.3644 H   0  0  0  0  0  0
  -28.4735  -13.6402   21.8631 H   0  0  0  0  0  0
  -25.2784   -9.5702   22.4748 H   0  0  0  0  0  0
  -24.0030   -7.4635   22.7454 H   0  0  0  0  0  0
  -21.0848   -8.8732   19.8947 H   0  0  0  0  0  0
  -22.3680  -10.9650   19.6138 H   0  0  0  0  0  0
  -21.1958   -7.6138   23.9710 H   0  0  0  0  0  0
  -21.1511   -6.0528   25.9082 H   0  0  0  0  0  0
  -22.0592   -2.7615   23.2837 H   0  0  0  0  0  0
  -22.4119  -11.9863   22.4779 H   0  0  0  0  0  0
  -21.1117  -13.1209   22.2605 H   0  0  0  0  0  0
  -24.6765  -15.8461   20.5873 H   0  0  0  0  0  0
  -26.3267  -15.6405   20.2917 H   0  0  0  0  0  0
  -26.7151  -32.5513   23.1164 H   0  0  0  0  0  0
  -25.0057  -33.9795   25.0459 H   0  0  0  0  0  0
  -22.6988  -31.3188   21.4185 H   0  0  0  0  0  0
  -23.3871  -35.9457   23.2919 H   0  0  0  0  0  0
  -24.3685  -36.9263   22.2099 H   0  0  0  0  0  0
  -23.6979  -37.6276   23.6832 H   0  0  0  0  0  0
  -26.0755  -31.5848   20.6162 H   0  0  0  0  0  0
  -26.8266  -30.8564   22.0091 H   0  0  0  0  0  0
  -28.0943  -29.0286   21.2021 H   0  0  0  0  0  0
  -25.9504  -26.0175   18.9291 H   0  0  0  0  0  0
  -23.9517  -27.3554   18.9977 H   0  0  0  0  0  0
  -23.7228  -30.6195   19.4093 H   0  0  0  0  0  0
  -22.7380  -29.2636   19.8690 H   0  0  0  0  0  0
  -25.1174  -36.1893   25.0798 H   0  0  0  0  0  0
  -20.9971  -28.3273   24.1420 H   0  0  0  0  0  0
  -20.5737  -26.2313   23.3623 H   0  0  0  0  0  0
  -21.6649  -26.7507   22.1172 H   0  0  0  0  0  0
  -19.6919  -25.6313   21.1250 H   0  0  0  0  0  0
  -19.6658  -27.3226   20.6784 H   0  0  0  0  0  0
  -17.4211  -26.6718   21.4021 H   0  0  0  0  0  0
  -18.0289  -26.0059   22.9011 H   0  0  0  0  0  0
  -19.7938  -30.7294   24.2243 H   0  0  0  0  0  0
  -17.5015  -31.6269   24.5177 H   0  0  0  0  0  0
  -15.5352  -30.2995   23.7658 H   0  0  0  0  0  0
  -15.8674  -28.0833   22.7063 H   0  0  0  0  0  0
  -24.5891  -30.7106   25.7807 H   0  0  0  0  0  0
  -24.8948  -32.2900   26.4939 H   0  0  0  0  0  0
  -25.8049  -30.8877   27.0248 H   0  0  0  0  0  0
  -26.2892  -29.6778   24.1204 H   0  0  0  0  0  0
  -27.3986  -29.7253   25.4705 H   0  0  0  0  0  0
  -27.8780  -30.4281   23.9442 H   0  0  0  0  0  0
  -27.2692  -33.3607   26.2122 H   0  0  0  0  0  0
  -28.3857  -32.6900   25.0327 H   0  0  0  0  0  0
  -28.0762  -31.8431   26.5405 H   0  0  0  0  0  0
  -28.2174  -38.0399   24.8213 H   0  0  0  0  0  0
  -28.1618  -36.3102   24.5138 H   0  0  0  0  0  0
  -27.2553  -36.9998   25.8677 H   0  0  0  0  0  0
  -20.9346  -29.8771   21.6899 H   0  0  0  0  0  0
  -26.0031  -38.2809   24.2069 H   0  0  0  0  0  0
  -31.2802  -16.9459   21.8970 H   0  0  0  0  0  0
  -31.1514  -17.1023   20.1704 H   0  0  0  0  0  0
  -27.1215  -24.9228   20.5728 H   0  0  0  0  0  0
  -27.7800  -24.9379   18.9429 H   0  0  0  0  0  0
  -28.2217  -16.3153   22.9987 H   0  0  0  0  0  0
  -26.8327  -17.2444   23.0301 H   0  0  0  0  0  0
  -30.0829  -21.8620   20.0503 H   0  0  0  0  0  0
  -29.0585  -15.4230   21.3171 H   0  0  0  0  0  0
  1 25  1  0  0  0
  1 30  2  0  0  0
  1 81  1  0  0  0
  2  3  1  0  0  0
  2 25  1  0  0  0
  2 85  1  0  0  0
  2 86  1  0  0  0
  3  4  1  0  0  0
  3 87  1  0  0  0
  3 88  1  0  0  0
  4  5  1  0  0  0
  4 89  1  0  0  0
  4 90  1  0  0  0
  5  6  1  0  0  0
  5 26  1  0  0  0
  5 91  1  0  0  0
  6 25  1  0  0  0
  6 92  1  0  0  0
  6 93  1  0  0  0
  7  8  2  0  0  0
  7 26  1  0  0  0
  7 29  1  0  0  0
  8  9  1  0  0  0
  8 22  1  0  0  0
  9 10  1  0  0  0
  9 27  2  0  0  0
 10 11  2  0  0  0
 10 15  1  0  0  0
 11 12  1  0  0  0
 11 94  1  0  0  0
 12 13  2  0  0  0
 12 95  1  0  0  0
 13 14  1  0  0  0
 13 31  1  0  0  0
 14 15  2  0  0  0
 14 96  1  0  0  0
 15 97  1  0  0  0
 16 17  2  0  0  0
 16 21  1  0  0  0
 16 31  1  0  0  0
 17 18  1  0  0  0
 17 98  1  0  0  0
 18 19  2  0  0  0
 18 99  1  0  0  0
 19 20  1  0  0  0
 19 24  1  0  0  0
 20 21  2  0  0  0
 20100  1  0  0  0
 21 23  1  0  0  0
 22 28  1  0  0  0
 22 32  2  0  0  0
 26 27  1  0  0  0
 28101  1  0  0  0
 28102  1  0  0  0
 29103  1  0  0  0
 29104  1  0  0  0
 33 34  1  0  0  0
 33 66  1  0  0  0
 33 70  2  0  0  0
 34 36  1  0  0  0
 34 59  1  0  0  0
 34105  1  0  0  0
 35 44  2  0  0  0
 35 45  1  0  0  0
 35 68  1  0  0  0
 36 56  1  0  0  0
 36106  1  0  0  0
 37 39  1  0  0  0
 37 47  1  0  0  0
 37 66  1  0  0  0
 37107  1  0  0  0
 38 43  2  0  0  0
 38 46  1  0  0  0
 38 47  1  0  0  0
 39 64  1  0  0  0
 39 67  2  0  0  0
 40 52  1  0  0  0
 40 53  2  0  0  0
 40 58  1  0  0  0
 41108  1  0  0  0
 41109  1  0  0  0
 41110  1  0  0  0
 41 48  1  0  0  0
 42 43  1  0  0  0
 42 66  1  0  0  0
 42111  1  0  0  0
 42112  1  0  0  0
 43 44  1  0  0  0
 44113  1  0  0  0
 45 46  2  0  0  0
 45114  1  0  0  0
 46115  1  0  0  0
 47116  1  0  0  0
 47117  1  0  0  0
 48 56  1  0  0  0
 48 65  1  0  0  0
 48118  1  0  0  0
 49 50  1  0  0  0
 49 53  1  0  0  0
 49 64  1  0  0  0
 49119  1  0  0  0
 50 51  1  0  0  0
 50120  1  0  0  0
 50121  1  0  0  0
 51 52  1  0  0  0
 51122  1  0  0  0
 51123  1  0  0  0
 52124  1  0  0  0
 52125  1  0  0  0
 53 54  1  0  0  0
 54 55  2  0  0  0
 54126  1  0  0  0
 55 57  1  0  0  0
 55127  1  0  0  0
 56 69  2  0  0  0
 57 58  2  0  0  0
 57128  1  0  0  0
 58129  1  0  0  0
 59 60  1  0  0  0
 59 61  1  0  0  0
 59 62  1  0  0  0
 60130  1  0  0  0
 60131  1  0  0  0
 60132  1  0  0  0
 61133  1  0  0  0
 61134  1  0  0  0
 61135  1  0  0  0
 62136  1  0  0  0
 62137  1  0  0  0
 62138  1  0  0  0
 63 65  1  0  0  0
 63139  1  0  0  0
 63140  1  0  0  0
 63141  1  0  0  0
 64142  1  0  0  0
 65143  1  0  0  0
 68 77  1  0  0  0
 71 72  2  0  0  0
 71 76  1  0  0  0
 71 78  1  0  0  0
 72 79  1  0  0  0
 72 84  1  0  0  0
 73 78  2  0  0  0
 73 80  1  0  0  0
 73 84  1  0  0  0
 74 75  1  0  0  0
 74 77  1  0  0  0
 74 82  2  0  0  0
 75 80  1  0  0  0
 75 83  2  0  0  0
 76 81  1  0  0  0
 76144  1  0  0  0
 76145  1  0  0  0
 77146  1  0  0  0
 77147  1  0  0  0
 79148  1  0  0  0
 79149  1  0  0  0
 80150  1  0  0  0
 81151  1  0  0  0
M  ISO  4   1 100  68 101  77 101  81 100
M  END
> <chiral flag>
0

> <version>
0

> <s_m_source_file>
/data/baiqing/PycharmProjects/Reinvent-master-3.2/result/LINK_invent/BTK/process_docking_weight1_custom_product_contain_oxygen_bond_distance_aromatic_linkinvent_7_9_3/rearranged_h_0175.sdf

> <i_m_source_file_index>
24

> <r_mmod_Potential_Energy-OPLS-2005>
-124.345359802246

> <r_mmod_Stretch_Energy-OPLS-2005>
45.7907867431641

> <r_mmod_Bend_Energy-OPLS-2005>
107.658111572266

> <r_mmod_Torsional_Energy-OPLS-2005>
203.146011352539

> <r_mmod_Improper_Torsional_Energy-OPLS-2005>
6.6712760925293

> <r_mmod_Van_der_Waal_Energy-OPLS-2005>
137.916809082031

> <r_mmod_Electrostatic_Energy-OPLS-2005>
-402.436889648438

> <r_mmod_Solvation_Energy-OPLS-2005>
-245.871658325195

> <b_mmod_Minimization_Converged-OPLS-2005>
0

> <r_mmod_RMS_Derivative-OPLS-2005>
2.90633630752563

$$$$
25
                    3D
 Structure written by MMmdl.
161169  0  0  1  0            999 V2000
  -31.1324  -14.3477   19.9870 C   0  0  0  0  0  0
  -30.6152  -12.0896   19.3767 C   0  0  0  0  0  0
  -29.6986  -12.1965   18.1575 C   0  0  0  0  0  0
  -28.2845  -12.3694   18.6300 C   0  0  0  0  0  0
  -28.0983  -12.9513   20.0780 C   0  0  2  0  0  0
  -29.2153  -13.2543   21.0295 C   0  0  0  0  0  0
  -25.6804  -14.7410   21.7172 C   0  0  0  0  0  0
  -23.9329  -13.7980   21.5037 C   0  0  0  0  0  0
  -24.0128  -12.3792   20.1145 C   0  0  0  0  0  0
  -23.6303  -10.8678   20.6069 C   0  0  0  0  0  0
  -24.2316   -9.9318   21.5763 C   0  0  0  0  0  0
  -23.6727   -8.6297   21.9155 C   0  0  0  0  0  0
  -22.4648   -8.1926   21.3060 C   0  0  0  0  0  0
  -21.9004   -9.0803   20.3766 C   0  0  0  0  0  0
  -22.4593  -10.3389   20.0529 C   0  0  0  0  0  0
  -21.7824   -6.1428   22.5281 C   0  0  0  0  0  0
  -21.4708   -6.6158   23.8224 C   0  0  0  0  0  0
  -21.3839   -5.7149   24.9075 C   0  0  0  0  0  0
  -21.6022   -4.3375   24.7084 C   0  0  0  0  0  0
  -21.8758   -3.8552   23.4180 C   0  0  0  0  0  0
  -21.9514   -4.7496   22.3345 C   0  0  0  0  0  0
  -22.5348  -14.0711   21.6413 C   0  0  0  0  0  0
  -22.1801   -4.2593   21.0918 F   0  0  0  0  0  0
  -21.5409   -3.4769   25.7528 F   0  0  0  0  0  0
  -30.4200  -13.2453   20.2406 N   0  0  0  0  0  0
  -27.0081  -13.8259   20.1324 N   0  0  0  0  0  0
  -25.7201  -12.4131   19.2111 N   0  0  0  0  0  0
  -21.8654  -13.0990   22.2409 N   0  0  0  0  0  0
  -26.0412  -15.9718   22.0293 N   0  0  0  0  0  0
  -31.9313  -14.8666   20.7348 O   0  0  0  0  0  0
  -21.8139   -6.9634   21.4174 O   0  0  0  0  0  0
  -22.0277  -14.8953   20.8990 O   0  0  0  0  0  0
  -24.7126  -31.7605   23.1403 C   0  0  0  0  0  0
  -25.9633  -32.4205   23.7948 C   0  0  1  0  0  0
  -26.5858  -26.1599   20.2067 C   0  0  0  0  0  0
  -25.6118  -33.8090   24.1755 N   0  0  0  0  0  0
  -23.5178  -30.4002   21.5067 C   0  0  2  0  0  0
  -24.8622  -28.6963   20.0547 C   0  0  0  0  0  0
  -22.7738  -29.4188   22.4551 C   0  0  0  0  0  0
  -18.0317  -28.1418   22.8437 C   0  0  0  0  0  0
  -24.1499  -36.7016   23.2651 C   0  0  0  0  0  0
  -26.0984  -30.2784   21.4863 C   0  0  0  0  0  0
  -26.0309  -28.8167   20.8031 C   0  0  0  0  0  0
  -26.9015  -27.5601   20.8599 C   0  0  0  0  0  0
  -25.5673  -26.4252   19.2948 C   0  0  0  0  0  0
  -24.7183  -27.5578   19.2591 C   0  0  0  0  0  0
  -23.7594  -29.7608   20.1114 C   0  0  0  0  0  0
  -25.4177  -36.2742   24.0241 C   0  0  1  0  0  0
  -20.5955  -28.3786   23.1075 C   0  0  2  0  0  0
  -20.6781  -26.9434   22.5375 C   0  0  0  0  0  0
  -19.5768  -26.6362   21.5187 C   0  0  0  0  0  0
  -18.1949  -26.7943   22.1593 C   0  0  0  0  0  0
  -19.1589  -28.8926   23.2743 C   0  0  0  0  0  0
  -18.9514  -30.1505   23.8810 C   0  0  0  0  0  0
  -17.6512  -30.6608   24.0554 C   0  0  0  0  0  0
  -25.9213  -34.9149   23.4838 C   0  0  0  0  0  0
  -16.5394  -29.9111   23.6344 C   0  0  0  0  0  0
  -16.7304  -28.6523   23.0372 C   0  0  0  0  0  0
  -26.4698  -31.6464   25.0762 C   0  0  0  0  0  0
  -25.3677  -31.3930   26.1322 C   0  0  0  0  0  0
  -27.0736  -30.2755   24.7071 C   0  0  0  0  0  0
  -27.6041  -32.4470   25.7591 C   0  0  0  0  0  0
  -27.5557  -37.1658   24.8448 C   0  0  0  0  0  0
  -21.4375  -29.3020   22.3357 N   0  0  0  0  0  0
  -26.4237  -37.3575   23.9425 N   0  0  0  0  0  0
  -24.8124  -30.8648   22.0893 N   0  0  0  0  0  0
  -23.4109  -28.7733   23.2913 O   0  0  0  0  0  0
  -26.9390  -24.5543   20.3015 O   0  0  0  0  0  0
  -26.5869  -34.8801   22.4469 O   0  0  0  0  0  0
  -23.6130  -32.1024   23.6145 O   0  0  0  0  0  0
  -27.7082  -16.8655   19.1757 C   0  0  0  0  0  0
  -30.0868  -16.9240   19.2022 C   0  0  0  0  0  0
  -28.8821  -17.4684   19.6176 C   0  0  0  0  0  0
  -27.6906  -15.8513   18.2086 C   0  0  0  0  0  0
  -30.0050  -15.7255   18.4763 C   0  0  0  0  0  0
  -25.8840  -20.7687   20.2853 C   0  0  0  0  0  0
  -24.9591  -14.6161   19.5818 C   0  0  0  0  0  0
  -25.9198  -16.3542   16.4906 C   0  0  0  0  0  0
  -25.3605  -18.8684   19.5749 C   0  0  0  0  0  0
  -26.1509  -22.7924   19.8004 C   0  0  0  0  0  0
  -24.7291  -16.7315   19.8445 C   0  0  0  0  0  0
  -26.3988  -15.3050   17.5023 C   0  0  2  0  0  0
  -28.8770  -15.3270   17.8331 N   0  0  0  0  0  0
  -31.0094  -14.7917   18.7272 N   0  0  0  0  0  0
  -25.1935  -14.7682   18.2313 N   0  0  0  0  0  0
  -26.0789  -20.6474   21.4999 O   0  0  0  0  0  0
  -25.7129  -12.7455   21.2579 O   0  0  0  0  0  0
  -28.8440  -18.4728   20.5267 F   0  0  0  0  0  0
  -31.6579  -12.0020   19.0650 H   0  0  0  0  0  0
  -30.3849  -11.1856   19.9411 H   0  0  0  0  0  0
  -29.7669  -11.2736   17.5789 H   0  0  0  0  0  0
  -29.9849  -12.9621   17.4420 H   0  0  0  0  0  0
  -27.8625  -11.3621   18.6022 H   0  0  0  0  0  0
  -27.7399  -12.9108   17.8643 H   0  0  0  0  0  0
  -27.7680  -12.0325   20.5626 H   0  0  0  0  0  0
  -29.3090  -12.5074   21.8192 H   0  0  0  0  0  0
  -29.0793  -14.2193   21.5261 H   0  0  0  0  0  0
  -25.1404  -10.2364   22.0742 H   0  0  0  0  0  0
  -24.1811   -7.9939   22.6266 H   0  0  0  0  0  0
  -20.9939   -8.7858   19.8665 H   0  0  0  0  0  0
  -21.9355  -10.9494   19.3319 H   0  0  0  0  0  0
  -21.2993   -7.6700   23.9871 H   0  0  0  0  0  0
  -21.1558   -6.0828   25.8972 H   0  0  0  0  0  0
  -22.0245   -2.7994   23.2554 H   0  0  0  0  0  0
  -22.3577  -12.3674   22.7330 H   0  0  0  0  0  0
  -20.8572  -13.1283   22.2653 H   0  0  0  0  0  0
  -25.5514  -16.4913   22.7467 H   0  0  0  0  0  0
  -26.9970  -16.2868   21.9103 H   0  0  0  0  0  0
  -26.7688  -32.4436   23.0596 H   0  0  0  0  0  0
  -25.0161  -33.9097   24.9844 H   0  0  0  0  0  0
  -22.8656  -31.2619   21.3473 H   0  0  0  0  0  0
  -23.3822  -35.9268   23.3179 H   0  0  0  0  0  0
  -24.3561  -36.8857   22.2089 H   0  0  0  0  0  0
  -23.7188  -37.6105   23.6872 H   0  0  0  0  0  0
  -26.4204  -30.9784   20.7131 H   0  0  0  0  0  0
  -26.9186  -30.2653   22.1876 H   0  0  0  0  0  0
  -27.7332  -27.5990   21.5510 H   0  0  0  0  0  0
  -25.2609  -25.5944   18.6766 H   0  0  0  0  0  0
  -23.8656  -27.5116   18.5953 H   0  0  0  0  0  0
  -24.0258  -30.5479   19.4038 H   0  0  0  0  0  0
  -22.8287  -29.3345   19.7360 H   0  0  0  0  0  0
  -25.1397  -36.1425   25.0726 H   0  0  0  0  0  0
  -21.0050  -28.3439   24.1197 H   0  0  0  0  0  0
  -20.5601  -26.2431   23.3657 H   0  0  0  0  0  0
  -21.6648  -26.7345   22.1224 H   0  0  0  0  0  0
  -19.6933  -25.6246   21.1297 H   0  0  0  0  0  0
  -19.6722  -27.3103   20.6663 H   0  0  0  0  0  0
  -17.4210  -26.6659   21.4012 H   0  0  0  0  0  0
  -18.0357  -26.0106   22.9009 H   0  0  0  0  0  0
  -19.8006  -30.7321   24.2152 H   0  0  0  0  0  0
  -17.5088  -31.6282   24.5171 H   0  0  0  0  0  0
  -15.5403  -30.3004   23.7740 H   0  0  0  0  0  0
  -15.8688  -28.0834   22.7151 H   0  0  0  0  0  0
  -24.5892  -30.7238   25.7652 H   0  0  0  0  0  0
  -24.8861  -32.3212   26.4406 H   0  0  0  0  0  0
  -25.7786  -30.9332   27.0322 H   0  0  0  0  0  0
  -26.3470  -29.6074   24.2443 H   0  0  0  0  0  0
  -27.4298  -29.7582   25.5992 H   0  0  0  0  0  0
  -27.9424  -30.3763   24.0564 H   0  0  0  0  0  0
  -27.2485  -33.3878   26.1818 H   0  0  0  0  0  0
  -28.4025  -32.6869   25.0554 H   0  0  0  0  0  0
  -28.0537  -31.8883   26.5818 H   0  0  0  0  0  0
  -28.2437  -38.0082   24.7616 H   0  0  0  0  0  0
  -28.1190  -36.2602   24.6129 H   0  0  0  0  0  0
  -27.2285  -37.1101   25.8847 H   0  0  0  0  0  0
  -20.9650  -29.8750   21.6502 H   0  0  0  0  0  0
  -26.0000  -38.2568   24.1546 H   0  0  0  0  0  0
  -26.8652  -17.2163   19.6594 H   0  0  0  0  0  0
  -31.0113  -17.2748   19.6424 H   0  0  0  0  0  0
  -26.7281  -16.6352   15.8116 H   0  0  0  0  0  0
  -25.1014  -15.9749   15.8787 H   0  0  0  0  0  0
  -25.5776  -17.2604   16.9923 H   0  0  0  0  0  0
  -25.9966  -18.8235   18.6873 H   0  0  0  0  0  0
  -24.4114  -19.1962   19.1540 H   0  0  0  0  0  0
  -25.1058  -23.0797   19.7027 H   0  0  0  0  0  0
  -26.4817  -22.6986   18.7674 H   0  0  0  0  0  0
  -24.1400  -16.7925   20.7596 H   0  0  0  0  0  0
  -23.9079  -16.7949   19.1322 H   0  0  0  0  0  0
  -26.7405  -14.4731   16.8921 H   0  0  0  0  0  0
  -30.8935  -13.9932   18.1234 H   0  0  0  0  0  0
  -24.3647  -15.0965   17.7646 H   0  0  0  0  0  0
  1 25  1  0  0  0
  1 30  2  0  0  0
  1 84  1  0  0  0
  2  3  1  0  0  0
  2 25  1  0  0  0
  2 89  1  0  0  0
  2 90  1  0  0  0
  3  4  1  0  0  0
  3 91  1  0  0  0
  3 92  1  0  0  0
  4  5  1  0  0  0
  4 93  1  0  0  0
  4 94  1  0  0  0
  5  6  1  0  0  0
  5 26  1  0  0  0
  5 95  1  0  0  0
  6 25  1  0  0  0
  6 96  1  0  0  0
  6 97  1  0  0  0
  7  8  2  0  0  0
  7 26  1  0  0  0
  7 29  1  0  0  0
  8  9  1  0  0  0
  8 22  1  0  0  0
  9 10  1  0  0  0
  9 27  2  0  0  0
 10 11  2  0  0  0
 10 15  1  0  0  0
 11 12  1  0  0  0
 11 98  1  0  0  0
 12 13  2  0  0  0
 12 99  1  0  0  0
 13 14  1  0  0  0
 13 31  1  0  0  0
 14 15  2  0  0  0
 14100  1  0  0  0
 15101  1  0  0  0
 16 17  2  0  0  0
 16 21  1  0  0  0
 16 31  1  0  0  0
 17 18  1  0  0  0
 17102  1  0  0  0
 18 19  2  0  0  0
 18103  1  0  0  0
 19 20  1  0  0  0
 19 24  1  0  0  0
 20 21  2  0  0  0
 20104  1  0  0  0
 21 23  1  0  0  0
 22 28  1  0  0  0
 22 32  2  0  0  0
 26 27  1  0  0  0
 28105  1  0  0  0
 28106  1  0  0  0
 29107  1  0  0  0
 29108  1  0  0  0
 33 34  1  0  0  0
 33 66  1  0  0  0
 33 70  2  0  0  0
 34 36  1  0  0  0
 34 59  1  0  0  0
 34109  1  0  0  0
 35 44  2  0  0  0
 35 45  1  0  0  0
 35 68  1  0  0  0
 36 56  1  0  0  0
 36110  1  0  0  0
 37 39  1  0  0  0
 37 47  1  0  0  0
 37 66  1  0  0  0
 37111  1  0  0  0
 38 43  2  0  0  0
 38 46  1  0  0  0
 38 47  1  0  0  0
 39 64  1  0  0  0
 39 67  2  0  0  0
 40 52  1  0  0  0
 40 53  2  0  0  0
 40 58  1  0  0  0
 41112  1  0  0  0
 41113  1  0  0  0
 41114  1  0  0  0
 41 48  1  0  0  0
 42 43  1  0  0  0
 42 66  1  0  0  0
 42115  1  0  0  0
 42116  1  0  0  0
 43 44  1  0  0  0
 44117  1  0  0  0
 45 46  2  0  0  0
 45118  1  0  0  0
 46119  1  0  0  0
 47120  1  0  0  0
 47121  1  0  0  0
 48 56  1  0  0  0
 48 65  1  0  0  0
 48122  1  0  0  0
 49 50  1  0  0  0
 49 53  1  0  0  0
 49 64  1  0  0  0
 49123  1  0  0  0
 50 51  1  0  0  0
 50124  1  0  0  0
 50125  1  0  0  0
 51 52  1  0  0  0
 51126  1  0  0  0
 51127  1  0  0  0
 52128  1  0  0  0
 52129  1  0  0  0
 53 54  1  0  0  0
 54 55  2  0  0  0
 54130  1  0  0  0
 55 57  1  0  0  0
 55131  1  0  0  0
 56 69  2  0  0  0
 57 58  2  0  0  0
 57132  1  0  0  0
 58133  1  0  0  0
 59 60  1  0  0  0
 59 61  1  0  0  0
 59 62  1  0  0  0
 60134  1  0  0  0
 60135  1  0  0  0
 60136  1  0  0  0
 61137  1  0  0  0
 61138  1  0  0  0
 61139  1  0  0  0
 62140  1  0  0  0
 62141  1  0  0  0
 62142  1  0  0  0
 63 65  1  0  0  0
 63143  1  0  0  0
 63144  1  0  0  0
 63145  1  0  0  0
 64146  1  0  0  0
 65147  1  0  0  0
 68 80  1  0  0  0
 71 73  2  0  0  0
 71 74  1  0  0  0
 71148  1  0  0  0
 72 73  1  0  0  0
 72 75  2  0  0  0
 72149  1  0  0  0
 73 88  1  0  0  0
 74 82  1  0  0  0
 74 83  2  0  0  0
 75 83  1  0  0  0
 75 84  1  0  0  0
 76 79  1  0  0  0
 76 80  1  0  0  0
 76 86  2  0  0  0
 77 81  1  0  0  0
 77 85  1  0  0  0
 77 87  2  0  0  0
 78150  1  0  0  0
 78151  1  0  0  0
 78152  1  0  0  0
 78 82  1  0  0  0
 79 81  1  0  0  0
 79153  1  0  0  0
 79154  1  0  0  0
 80155  1  0  0  0
 80156  1  0  0  0
 81157  1  0  0  0
 81158  1  0  0  0
 82 85  1  0  0  0
 82159  1  0  0  0
 84160  1  0  0  0
 85161  1  0  0  0
M  ISO  4   1 100  68 101  80 101  84 100
M  END
> <chiral flag>
0

> <version>
0

> <s_m_source_file>
/data/baiqing/PycharmProjects/Reinvent-master-3.2/result/LINK_invent/BTK/process_docking_weight1_custom_product_contain_oxygen_bond_distance_aromatic_linkinvent_7_9_3/rearranged_h_0175.sdf

> <i_m_source_file_index>
25

> <r_mmod_Potential_Energy-OPLS-2005>
19889.50390625

> <r_mmod_Stretch_Energy-OPLS-2005>
12017.3642578125

> <r_mmod_Bend_Energy-OPLS-2005>
1320.56701660156

> <r_mmod_Torsional_Energy-OPLS-2005>
657.01123046875

> <r_mmod_Improper_Torsional_Energy-OPLS-2005>
103.213836669922

> <r_mmod_Van_der_Waal_Energy-OPLS-2005>
3831.36352539062

> <r_mmod_Electrostatic_Energy-OPLS-2005>
-738.795776367188

> <r_mmod_Solvation_Energy-OPLS-2005>
-269.003173828125

> <b_mmod_Minimization_Converged-OPLS-2005>
0

> <r_mmod_RMS_Derivative-OPLS-2005>
11.1962022781372

$$$$
26
                    3D
 Structure written by MMmdl.
153161  0  0  1  0            999 V2000
  -30.6274  -14.5663   20.3724 C   0  0  0  0  0  0
  -30.4072  -12.3160   19.4306 C   0  0  0  0  0  0
  -29.4951  -12.4880   18.1988 C   0  0  0  0  0  0
  -28.0140  -12.3462   18.6083 C   0  0  0  0  0  0
  -27.6480  -13.2032   19.8506 C   0  0  2  0  0  0
  -28.6923  -13.0383   20.9728 C   0  0  0  0  0  0
  -25.2509  -13.8116   20.5622 C   0  0  0  0  0  0
  -24.1757  -13.0413   20.9139 C   0  0  0  0  0  0
  -24.6288  -11.6878   20.8638 C   0  0  0  0  0  0
  -23.8951  -10.4295   21.0342 C   0  0  0  0  0  0
  -24.3514   -9.4232   21.9124 C   0  0  0  0  0  0
  -23.6222   -8.2243   22.0739 C   0  0  0  0  0  0
  -22.4196   -8.0267   21.3547 C   0  0  0  0  0  0
  -21.9792   -9.0214   20.4674 C   0  0  0  0  0  0
  -22.7091  -10.2106   20.3050 C   0  0  0  0  0  0
  -21.6865   -6.0667   22.5268 C   0  0  0  0  0  0
  -21.4053   -6.5569   23.8191 C   0  0  0  0  0  0
  -21.3681   -5.6736   24.9166 C   0  0  0  0  0  0
  -21.6026   -4.3005   24.7236 C   0  0  0  0  0  0
  -21.8814   -3.8113   23.4368 C   0  0  0  0  0  0
  -21.9210   -4.6900   22.3406 C   0  0  0  0  0  0
  -22.7800  -13.5268   21.1841 C   0  0  0  0  0  0
  -22.1664   -4.2083   21.0987 F   0  0  0  0  0  0
  -21.5620   -3.4507   25.7764 F   0  0  0  0  0  0
  -30.0144  -13.3465   20.4068 N   0  0  0  0  0  0
  -26.2925  -12.9279   20.3230 N   0  0  0  0  0  0
  -25.9202  -11.6436   20.5610 N   0  0  0  0  0  0
  -22.0432  -12.8328   22.0430 N   0  0  0  0  0  0
  -25.4197  -15.1822   20.3962 N   0  0  0  0  0  0
  -31.8086  -14.7008   20.0532 O   0  0  0  0  0  0
  -21.6640   -6.8807   21.4228 O   0  0  0  0  0  0
  -22.3503  -14.5581   20.6686 O   0  0  0  0  0  0
  -24.6247  -31.8614   23.1990 C   0  0  0  0  0  0
  -25.9130  -32.4763   23.8320 C   0  0  1  0  0  0
  -27.2242  -27.3544   20.0838 C   0  0  0  0  0  0
  -25.5948  -33.8562   24.2284 N   0  0  0  0  0  0
  -23.4160  -30.4880   21.5451 C   0  0  2  0  0  0
  -24.8623  -28.9531   20.0963 C   0  0  0  0  0  0
  -22.7466  -29.4660   22.4933 C   0  0  0  0  0  0
  -18.0302  -28.1399   22.8482 C   0  0  0  0  0  0
  -24.1501  -36.7312   23.2623 C   0  0  0  0  0  0
  -25.9572  -30.7994   21.3692 C   0  0  0  0  0  0
  -26.0305  -29.4327   20.7057 C   0  0  0  0  0  0
  -27.2187  -28.6413   20.6966 C   0  0  0  0  0  0
  -26.0410  -26.9286   19.4388 C   0  0  0  0  0  0
  -24.8692  -27.7065   19.4493 C   0  0  0  0  0  0
  -23.6266  -29.8282   20.1576 C   0  0  0  0  0  0
  -25.4097  -36.3068   24.0320 C   0  0  1  0  0  0
  -20.5895  -28.3709   23.1286 C   0  0  2  0  0  0
  -20.6801  -26.9411   22.5457 C   0  0  0  0  0  0
  -19.5799  -26.6407   21.5223 C   0  0  0  0  0  0
  -18.1951  -26.7944   22.1589 C   0  0  0  0  0  0
  -19.1558  -28.8861   23.2893 C   0  0  0  0  0  0
  -18.9480  -30.1464   23.8901 C   0  0  0  0  0  0
  -17.6477  -30.6574   24.0560 C   0  0  0  0  0  0
  -25.9044  -34.9446   23.5093 C   0  0  0  0  0  0
  -16.5371  -29.9082   23.6308 C   0  0  0  0  0  0
  -16.7280  -28.6521   23.0296 C   0  0  0  0  0  0
  -26.4477  -31.6538   25.0692 C   0  0  0  0  0  0
  -25.3733  -31.3747   26.1457 C   0  0  0  0  0  0
  -27.0220  -30.2919   24.6145 C   0  0  0  0  0  0
  -27.6092  -32.4206   25.7427 C   0  0  0  0  0  0
  -27.5588  -37.1790   24.8428 C   0  0  0  0  0  0
  -21.4184  -29.3047   22.3667 N   0  0  0  0  0  0
  -26.4272  -37.3773   23.9412 N   0  0  0  0  0  0
  -24.6843  -31.0655   22.0965 N   0  0  0  0  0  0
  -23.4203  -28.8188   23.3000 O   0  0  0  0  0  0
  -28.2610  -26.4197   20.1869 O   0  0  0  0  0  0
  -26.5623  -34.8902   22.4671 O   0  0  0  0  0  0
  -23.5429  -32.1421   23.7367 O   0  0  0  0  0  0
  -29.9493  -19.3154   18.2197 C   0  0  0  0  0  0
  -30.0488  -16.8647   18.2995 C   0  0  0  0  0  0
  -29.8459  -19.3838   19.6319 C   0  0  0  0  0  0
  -29.9125  -16.8804   19.7129 C   0  0  0  0  0  0
  -30.0483  -18.0691   17.5626 C   0  0  0  0  0  0
  -29.7915  -18.1504   20.3606 C   0  0  0  0  0  0
  -27.8743  -25.2970   20.9260 C   0  0  0  0  0  0
  -28.1536  -23.9477   20.9043 C   0  0  0  0  0  0
  -29.1240  -23.1728   20.0881 C   0  0  0  0  0  0
  -29.9925  -20.7622   20.3505 C   0  0  0  0  0  0
  -29.8061  -15.6436   20.4675 N   0  0  0  0  0  0
  -28.9449  -21.8191   20.2045 N   0  0  0  0  0  0
  -30.0728  -23.6572   19.4708 O   0  0  0  0  0  0
  -27.4377  -23.2181   21.7801 O   0  0  0  0  0  0
  -30.1699  -18.0239   16.2078 F   0  0  0  0  0  0
  -29.6489  -18.1764   21.7098 F   0  0  0  0  0  0
  -31.4593  -12.3724   19.1506 H   0  0  0  0  0  0
  -30.2751  -11.3218   19.8631 H   0  0  0  0  0  0
  -29.7494  -11.7527   17.4338 H   0  0  0  0  0  0
  -29.6601  -13.4630   17.7355 H   0  0  0  0  0  0
  -27.8245  -11.2937   18.8215 H   0  0  0  0  0  0
  -27.3635  -12.5969   17.7724 H   0  0  0  0  0  0
  -27.6728  -14.2369   19.5116 H   0  0  0  0  0  0
  -28.6724  -12.0113   21.3477 H   0  0  0  0  0  0
  -28.4621  -13.6756   21.8277 H   0  0  0  0  0  0
  -25.2663   -9.5705   22.4687 H   0  0  0  0  0  0
  -23.9975   -7.4619   22.7434 H   0  0  0  0  0  0
  -21.0741   -8.8682   19.8999 H   0  0  0  0  0  0
  -22.3490  -10.9613   19.6168 H   0  0  0  0  0  0
  -21.2053   -7.6095   23.9663 H   0  0  0  0  0  0
  -21.1498   -6.0481   25.9029 H   0  0  0  0  0  0
  -22.0586   -2.7565   23.2900 H   0  0  0  0  0  0
  -22.4089  -12.0070   22.4945 H   0  0  0  0  0  0
  -21.1079  -13.1424   22.2669 H   0  0  0  0  0  0
  -24.6310  -15.8186   20.4339 H   0  0  0  0  0  0
  -26.2445  -15.6048   19.9941 H   0  0  0  0  0  0
  -26.7202  -32.5426   23.1057 H   0  0  0  0  0  0
  -25.0053  -33.9686   25.0402 H   0  0  0  0  0  0
  -22.7090  -31.3102   21.4065 H   0  0  0  0  0  0
  -23.3758  -35.9651   23.3228 H   0  0  0  0  0  0
  -24.3652  -36.8972   22.2057 H   0  0  0  0  0  0
  -23.7260  -37.6502   23.6678 H   0  0  0  0  0  0
  -26.0909  -31.5646   20.6035 H   0  0  0  0  0  0
  -26.8378  -30.8483   21.9971 H   0  0  0  0  0  0
  -28.1075  -28.9883   21.2042 H   0  0  0  0  0  0
  -26.0159  -25.9559   18.9641 H   0  0  0  0  0  0
  -23.9762  -27.3395   18.9586 H   0  0  0  0  0  0
  -23.7378  -30.6093   19.4037 H   0  0  0  0  0  0
  -22.7437  -29.2568   19.8632 H   0  0  0  0  0  0
  -25.1263  -36.1879   25.0806 H   0  0  0  0  0  0
  -21.0002  -28.3310   24.1396 H   0  0  0  0  0  0
  -20.5656  -26.2318   23.3666 H   0  0  0  0  0  0
  -21.6679  -26.7439   22.1276 H   0  0  0  0  0  0
  -19.6961  -25.6318   21.1265 H   0  0  0  0  0  0
  -19.6723  -27.3209   20.6729 H   0  0  0  0  0  0
  -17.4228  -26.6705   21.3969 H   0  0  0  0  0  0
  -18.0315  -26.0095   22.8981 H   0  0  0  0  0  0
  -19.7938  -30.7319   24.2236 H   0  0  0  0  0  0
  -17.5005  -31.6223   24.5204 H   0  0  0  0  0  0
  -15.5361  -30.2968   23.7642 H   0  0  0  0  0  0
  -15.8693  -28.0851   22.6968 H   0  0  0  0  0  0
  -24.5903  -30.7040   25.7869 H   0  0  0  0  0  0
  -24.8922  -32.2944   26.4800 H   0  0  0  0  0  0
  -25.8096  -30.9035   27.0277 H   0  0  0  0  0  0
  -26.2745  -29.6752   24.1137 H   0  0  0  0  0  0
  -27.3815  -29.7071   25.4625 H   0  0  0  0  0  0
  -27.8672  -30.4089   23.9359 H   0  0  0  0  0  0
  -27.2742  -33.3478   26.2052 H   0  0  0  0  0  0
  -28.3857  -32.6780   25.0225 H   0  0  0  0  0  0
  -28.0802  -31.8305   26.5286 H   0  0  0  0  0  0
  -28.2563  -38.0132   24.7531 H   0  0  0  0  0  0
  -28.1124  -36.2686   24.6117 H   0  0  0  0  0  0
  -27.2382  -37.1276   25.8849 H   0  0  0  0  0  0
  -20.9335  -29.8739   21.6866 H   0  0  0  0  0  0
  -26.0142  -38.2828   24.1466 H   0  0  0  0  0  0
  -30.0198  -20.2186   17.6291 H   0  0  0  0  0  0
  -30.1349  -15.9367   17.7493 H   0  0  0  0  0  0
  -27.1536  -25.6184   21.6721 H   0  0  0  0  0  0
  -30.9727  -21.1570   20.0714 H   0  0  0  0  0  0
  -30.0667  -20.5750   21.4262 H   0  0  0  0  0  0
  -28.9142  -15.4785   20.9077 H   0  0  0  0  0  0
  -28.0736  -21.5956   20.6710 H   0  0  0  0  0  0
  -26.8684  -23.8173   22.2447 H   0  0  0  0  0  0
  1 25  1  0  0  0
  1 30  2  0  0  0
  1 81  1  0  0  0
  2  3  1  0  0  0
  2 25  1  0  0  0
  2 87  1  0  0  0
  2 88  1  0  0  0
  3  4  1  0  0  0
  3 89  1  0  0  0
  3 90  1  0  0  0
  4  5  1  0  0  0
  4 91  1  0  0  0
  4 92  1  0  0  0
  5  6  1  0  0  0
  5 26  1  0  0  0
  5 93  1  0  0  0
  6 25  1  0  0  0
  6 94  1  0  0  0
  6 95  1  0  0  0
  7  8  2  0  0  0
  7 26  1  0  0  0
  7 29  1  0  0  0
  8  9  1  0  0  0
  8 22  1  0  0  0
  9 10  1  0  0  0
  9 27  2  0  0  0
 10 11  2  0  0  0
 10 15  1  0  0  0
 11 12  1  0  0  0
 11 96  1  0  0  0
 12 13  2  0  0  0
 12 97  1  0  0  0
 13 14  1  0  0  0
 13 31  1  0  0  0
 14 15  2  0  0  0
 14 98  1  0  0  0
 15 99  1  0  0  0
 16 17  2  0  0  0
 16 21  1  0  0  0
 16 31  1  0  0  0
 17 18  1  0  0  0
 17100  1  0  0  0
 18 19  2  0  0  0
 18101  1  0  0  0
 19 20  1  0  0  0
 19 24  1  0  0  0
 20 21  2  0  0  0
 20102  1  0  0  0
 21 23  1  0  0  0
 22 28  1  0  0  0
 22 32  2  0  0  0
 26 27  1  0  0  0
 28103  1  0  0  0
 28104  1  0  0  0
 29105  1  0  0  0
 29106  1  0  0  0
 33 34  1  0  0  0
 33 66  1  0  0  0
 33 70  2  0  0  0
 34 36  1  0  0  0
 34 59  1  0  0  0
 34107  1  0  0  0
 35 44  2  0  0  0
 35 45  1  0  0  0
 35 68  1  0  0  0
 36 56  1  0  0  0
 36108  1  0  0  0
 37 39  1  0  0  0
 37 47  1  0  0  0
 37 66  1  0  0  0
 37109  1  0  0  0
 38 43  2  0  0  0
 38 46  1  0  0  0
 38 47  1  0  0  0
 39 64  1  0  0  0
 39 67  2  0  0  0
 40 52  1  0  0  0
 40 53  2  0  0  0
 40 58  1  0  0  0
 41110  1  0  0  0
 41111  1  0  0  0
 41112  1  0  0  0
 41 48  1  0  0  0
 42 43  1  0  0  0
 42 66  1  0  0  0
 42113  1  0  0  0
 42114  1  0  0  0
 43 44  1  0  0  0
 44115  1  0  0  0
 45 46  2  0  0  0
 45116  1  0  0  0
 46117  1  0  0  0
 47118  1  0  0  0
 47119  1  0  0  0
 48 56  1  0  0  0
 48 65  1  0  0  0
 48120  1  0  0  0
 49 50  1  0  0  0
 49 53  1  0  0  0
 49 64  1  0  0  0
 49121  1  0  0  0
 50 51  1  0  0  0
 50122  1  0  0  0
 50123  1  0  0  0
 51 52  1  0  0  0
 51124  1  0  0  0
 51125  1  0  0  0
 52126  1  0  0  0
 52127  1  0  0  0
 53 54  1  0  0  0
 54 55  2  0  0  0
 54128  1  0  0  0
 55 57  1  0  0  0
 55129  1  0  0  0
 56 69  2  0  0  0
 57 58  2  0  0  0
 57130  1  0  0  0
 58131  1  0  0  0
 59 60  1  0  0  0
 59 61  1  0  0  0
 59 62  1  0  0  0
 60132  1  0  0  0
 60133  1  0  0  0
 60134  1  0  0  0
 61135  1  0  0  0
 61136  1  0  0  0
 61137  1  0  0  0
 62138  1  0  0  0
 62139  1  0  0  0
 62140  1  0  0  0
 63 65  1  0  0  0
 63141  1  0  0  0
 63142  1  0  0  0
 63143  1  0  0  0
 64144  1  0  0  0
 65145  1  0  0  0
 68 77  1  0  0  0
 71 73  2  0  0  0
 71 75  1  0  0  0
 71146  1  0  0  0
 72 74  1  0  0  0
 72 75  2  0  0  0
 72147  1  0  0  0
 73 76  1  0  0  0
 73 80  1  0  0  0
 74 76  2  0  0  0
 74 81  1  0  0  0
 75 85  1  0  0  0
 76 86  1  0  0  0
 77 78  2  0  0  0
 77148  1  0  0  0
 78 79  1  0  0  0
 78 84  1  0  0  0
 79 82  1  0  0  0
 79 83  2  0  0  0
 80 82  1  0  0  0
 80149  1  0  0  0
 80150  1  0  0  0
 81151  1  0  0  0
 82152  1  0  0  0
 84153  1  0  0  0
M  ISO  4   1 100  68 101  77 101  81 100
M  END
> <chiral flag>
0

> <version>
0

> <s_m_source_file>
/data/baiqing/PycharmProjects/Reinvent-master-3.2/result/LINK_invent/BTK/process_docking_weight1_custom_product_contain_oxygen_bond_distance_aromatic_linkinvent_7_9_3/rearranged_h_0175.sdf

> <i_m_source_file_index>
26

> <r_mmod_Potential_Energy-OPLS-2005>
-11.2783222198486

> <r_mmod_Stretch_Energy-OPLS-2005>
64.095573425293

> <r_mmod_Bend_Energy-OPLS-2005>
151.312362670898

> <r_mmod_Torsional_Energy-OPLS-2005>
274.089324951172

> <r_mmod_Improper_Torsional_Energy-OPLS-2005>
12.4683609008789

> <r_mmod_Van_der_Waal_Energy-OPLS-2005>
150.280380249023

> <r_mmod_Electrostatic_Energy-OPLS-2005>
-475.297088623047

> <r_mmod_Solvation_Energy-OPLS-2005>
-236.634002685547

> <b_mmod_Minimization_Converged-OPLS-2005>
0

> <r_mmod_RMS_Derivative-OPLS-2005>
7.87671709060669

$$$$
27
                    3D
 Structure written by MMmdl.
152160  0  0  1  0            999 V2000
  -30.6379  -14.6428   20.4165 C   0  0  0  0  0  0
  -30.4345  -12.3746   19.4405 C   0  0  0  0  0  0
  -29.5036  -12.4850   18.2142 C   0  0  0  0  0  0
  -28.0289  -12.3263   18.6395 C   0  0  0  0  0  0
  -27.6513  -13.1986   19.8679 C   0  0  2  0  0  0
  -28.7100  -13.0913   20.9884 C   0  0  0  0  0  0
  -25.2593  -13.8098   20.5710 C   0  0  0  0  0  0
  -24.1843  -13.0395   20.9226 C   0  0  0  0  0  0
  -24.6384  -11.6861   20.8763 C   0  0  0  0  0  0
  -23.9062  -10.4256   21.0420 C   0  0  0  0  0  0
  -24.3621   -9.4170   21.9195 C   0  0  0  0  0  0
  -23.6287   -8.2211   22.0752 C   0  0  0  0  0  0
  -22.4261   -8.0270   21.3545 C   0  0  0  0  0  0
  -21.9911   -9.0253   20.4649 C   0  0  0  0  0  0
  -22.7248  -10.2119   20.3065 C   0  0  0  0  0  0
  -21.6848   -6.0736   22.5284 C   0  0  0  0  0  0
  -21.4002   -6.5637   23.8219 C   0  0  0  0  0  0
  -21.3649   -5.6789   24.9181 C   0  0  0  0  0  0
  -21.6034   -4.3051   24.7231 C   0  0  0  0  0  0
  -21.8831   -3.8147   23.4353 C   0  0  0  0  0  0
  -21.9189   -4.6964   22.3410 C   0  0  0  0  0  0
  -22.7859  -13.5216   21.1826 C   0  0  0  0  0  0
  -22.1668   -4.2159   21.0986 F   0  0  0  0  0  0
  -21.5623   -3.4534   25.7742 F   0  0  0  0  0  0
  -30.0225  -13.4160   20.4055 N   0  0  0  0  0  0
  -26.3012  -12.9231   20.3415 N   0  0  0  0  0  0
  -25.9322  -11.6404   20.5842 N   0  0  0  0  0  0
  -22.0481  -12.8252   22.0385 N   0  0  0  0  0  0
  -25.4269  -15.1830   20.4064 N   0  0  0  0  0  0
  -31.7981  -14.7831   20.0276 O   0  0  0  0  0  0
  -21.6610   -6.8880   21.4240 O   0  0  0  0  0  0
  -22.3573  -14.5516   20.6632 O   0  0  0  0  0  0
  -24.6247  -31.8647   23.2008 C   0  0  0  0  0  0
  -25.9118  -32.4797   23.8310 C   0  0  1  0  0  0
  -27.2088  -27.3465   20.0930 C   0  0  0  0  0  0
  -25.5953  -33.8579   24.2291 N   0  0  0  0  0  0
  -23.4154  -30.4907   21.5408 C   0  0  2  0  0  0
  -24.8629  -28.9597   20.0892 C   0  0  0  0  0  0
  -22.7460  -29.4656   22.4869 C   0  0  0  0  0  0
  -18.0295  -28.1398   22.8472 C   0  0  0  0  0  0
  -24.1482  -36.7285   23.2612 C   0  0  0  0  0  0
  -25.9578  -30.7962   21.3743 C   0  0  0  0  0  0
  -26.0297  -29.4318   20.7074 C   0  0  0  0  0  0
  -27.2109  -28.6313   20.7088 C   0  0  0  0  0  0
  -26.0330  -26.9352   19.4261 C   0  0  0  0  0  0
  -24.8670  -27.7181   19.4362 C   0  0  0  0  0  0
  -23.6270  -29.8347   20.1508 C   0  0  0  0  0  0
  -25.4096  -36.3086   24.0337 C   0  0  1  0  0  0
  -20.5894  -28.3714   23.1254 C   0  0  2  0  0  0
  -20.6784  -26.9436   22.5394 C   0  0  0  0  0  0
  -19.5764  -26.6394   21.5192 C   0  0  0  0  0  0
  -18.1943  -26.7954   22.1600 C   0  0  0  0  0  0
  -19.1547  -28.8870   23.2862 C   0  0  0  0  0  0
  -18.9464  -30.1462   23.8888 C   0  0  0  0  0  0
  -17.6459  -30.6585   24.0583 C   0  0  0  0  0  0
  -25.9051  -34.9462   23.5119 C   0  0  0  0  0  0
  -16.5353  -29.9089   23.6332 C   0  0  0  0  0  0
  -16.7278  -28.6520   23.0335 C   0  0  0  0  0  0
  -26.4508  -31.6563   25.0646 C   0  0  0  0  0  0
  -25.3739  -31.3711   26.1380 C   0  0  0  0  0  0
  -27.0321  -30.2973   24.6070 C   0  0  0  0  0  0
  -27.6073  -32.4266   25.7419 C   0  0  0  0  0  0
  -27.5614  -37.1763   24.8438 C   0  0  0  0  0  0
  -21.4177  -29.3068   22.3630 N   0  0  0  0  0  0
  -26.4270  -37.3792   23.9459 N   0  0  0  0  0  0
  -24.6839  -31.0672   22.0948 N   0  0  0  0  0  0
  -23.4206  -28.8172   23.2915 O   0  0  0  0  0  0
  -28.2286  -26.4008   20.2206 O   0  0  0  0  0  0
  -26.5580  -34.8942   22.4656 O   0  0  0  0  0  0
  -23.5419  -32.1452   23.7330 O   0  0  0  0  0  0
  -28.7409  -19.2798   18.6075 C   0  0  0  0  0  0
  -28.4497  -17.9965   18.1199 C   0  0  0  0  0  0
  -29.5600  -19.4546   19.7429 C   0  0  0  0  0  0
  -29.6645  -16.9456   19.9831 C   0  0  0  0  0  0
  -28.9343  -16.8517   18.7742 C   0  0  0  0  0  0
  -30.0016  -18.2700   20.4425 C   0  0  0  0  0  0
  -27.7713  -25.2413   20.8704 C   0  0  0  0  0  0
  -30.0351  -20.8810   20.0392 C   0  0  0  0  0  0
  -28.1058  -23.9079   20.8498 C   0  0  0  0  0  0
  -29.2217  -23.2329   20.1518 C   0  0  0  0  0  0
  -29.8744  -15.7227   20.7550 N   0  0  0  0  0  0
  -29.1011  -21.8648   20.1811 N   0  0  0  0  0  0
  -31.2522  -21.0991   20.0728 O   0  0  0  0  0  0
  -30.1678  -23.8289   19.6275 O   0  0  0  0  0  0
  -27.3119  -23.1033   21.5849 O   0  0  0  0  0  0
  -28.6742  -15.6512   18.2174 F   0  0  0  0  0  0
  -30.7412  -18.3940   21.5719 F   0  0  0  0  0  0
  -31.4769  -12.4757   19.1344 H   0  0  0  0  0  0
  -30.3515  -11.3853   19.8923 H   0  0  0  0  0  0
  -29.7586  -11.7249   17.4744 H   0  0  0  0  0  0
  -29.6542  -13.4449   17.7215 H   0  0  0  0  0  0
  -27.8772  -11.2727   18.8798 H   0  0  0  0  0  0
  -27.3665  -12.5432   17.8008 H   0  0  0  0  0  0
  -27.6382  -14.2270   19.5354 H   0  0  0  0  0  0
  -28.7277  -12.0843   21.4068 H   0  0  0  0  0  0
  -28.4679  -13.7573   21.8173 H   0  0  0  0  0  0
  -25.2781   -9.5618   22.4759 H   0  0  0  0  0  0
  -23.9992   -7.4597   22.7468 H   0  0  0  0  0  0
  -21.0844   -8.8793   19.8959 H   0  0  0  0  0  0
  -22.3748  -10.9661   19.6171 H   0  0  0  0  0  0
  -21.1984   -7.6143   23.9737 H   0  0  0  0  0  0
  -21.1455   -6.0503   25.9088 H   0  0  0  0  0  0
  -22.0610   -2.7606   23.2853 H   0  0  0  0  0  0
  -22.4077  -11.9952   22.4857 H   0  0  0  0  0  0
  -21.1087  -13.1270   22.2505 H   0  0  0  0  0  0
  -24.6396  -15.8197   20.4715 H   0  0  0  0  0  0
  -26.2592  -15.6191   20.0294 H   0  0  0  0  0  0
  -26.7167  -32.5509   23.1033 H   0  0  0  0  0  0
  -25.0163  -33.9724   25.0481 H   0  0  0  0  0  0
  -22.7089  -31.3126   21.4048 H   0  0  0  0  0  0
  -23.3757  -35.9597   23.3213 H   0  0  0  0  0  0
  -24.3580  -36.8933   22.2031 H   0  0  0  0  0  0
  -23.7211  -37.6464   23.6648 H   0  0  0  0  0  0
  -26.0981  -31.5634   20.6112 H   0  0  0  0  0  0
  -26.8361  -30.8335   22.0072 H   0  0  0  0  0  0
  -28.0944  -28.9684   21.2285 H   0  0  0  0  0  0
  -26.0012  -25.9682   18.9405 H   0  0  0  0  0  0
  -23.9748  -27.3622   18.9393 H   0  0  0  0  0  0
  -23.7405  -30.6182   19.4007 H   0  0  0  0  0  0
  -22.7519  -29.2599   19.8427 H   0  0  0  0  0  0
  -25.1259  -36.1922   25.0822 H   0  0  0  0  0  0
  -21.0024  -28.3340   24.1359 H   0  0  0  0  0  0
  -20.5676  -26.2331   23.3587 H   0  0  0  0  0  0
  -21.6658  -26.7472   22.1200 H   0  0  0  0  0  0
  -19.6913  -25.6303   21.1215 H   0  0  0  0  0  0
  -19.6694  -27.3196   20.6712 H   0  0  0  0  0  0
  -17.4210  -26.6663   21.4007 H   0  0  0  0  0  0
  -18.0366  -26.0111   22.9012 H   0  0  0  0  0  0
  -19.7934  -30.7298   24.2235 H   0  0  0  0  0  0
  -17.5012  -31.6269   24.5181 H   0  0  0  0  0  0
  -15.5357  -30.2986   23.7662 H   0  0  0  0  0  0
  -15.8676  -28.0851   22.7026 H   0  0  0  0  0  0
  -24.5982  -30.6989   25.7726 H   0  0  0  0  0  0
  -24.8877  -32.2865   26.4756 H   0  0  0  0  0  0
  -25.8099  -30.8969   27.0175 H   0  0  0  0  0  0
  -26.2881  -29.6721   24.1147 H   0  0  0  0  0  0
  -27.4056  -29.7251   25.4562 H   0  0  0  0  0  0
  -27.8727  -30.4202   23.9240 H   0  0  0  0  0  0
  -27.2712  -33.3559   26.2015 H   0  0  0  0  0  0
  -28.3884  -32.6816   25.0252 H   0  0  0  0  0  0
  -28.0716  -31.8366   26.5325 H   0  0  0  0  0  0
  -28.2531  -38.0172   24.7688 H   0  0  0  0  0  0
  -28.1234  -36.2729   24.6005 H   0  0  0  0  0  0
  -27.2378  -37.1097   25.8842 H   0  0  0  0  0  0
  -20.9339  -29.8801   21.6849 H   0  0  0  0  0  0
  -26.0154  -38.2839   24.1569 H   0  0  0  0  0  0
  -28.3866  -20.1356   18.0488 H   0  0  0  0  0  0
  -27.8623  -17.8861   17.2202 H   0  0  0  0  0  0
  -26.9375  -25.5080   21.5099 H   0  0  0  0  0  0
  -29.0371  -15.4303   21.2299 H   0  0  0  0  0  0
  -28.1710  -21.5593   20.4274 H   0  0  0  0  0  0
  -26.6423  -23.6445   21.9812 H   0  0  0  0  0  0
  1 25  1  0  0  0
  1 30  2  0  0  0
  1 81  1  0  0  0
  2  3  1  0  0  0
  2 25  1  0  0  0
  2 88  1  0  0  0
  2 89  1  0  0  0
  3  4  1  0  0  0
  3 90  1  0  0  0
  3 91  1  0  0  0
  4  5  1  0  0  0
  4 92  1  0  0  0
  4 93  1  0  0  0
  5  6  1  0  0  0
  5 26  1  0  0  0
  5 94  1  0  0  0
  6 25  1  0  0  0
  6 95  1  0  0  0
  6 96  1  0  0  0
  7  8  2  0  0  0
  7 26  1  0  0  0
  7 29  1  0  0  0
  8  9  1  0  0  0
  8 22  1  0  0  0
  9 10  1  0  0  0
  9 27  2  0  0  0
 10 11  2  0  0  0
 10 15  1  0  0  0
 11 12  1  0  0  0
 11 97  1  0  0  0
 12 13  2  0  0  0
 12 98  1  0  0  0
 13 14  1  0  0  0
 13 31  1  0  0  0
 14 15  2  0  0  0
 14 99  1  0  0  0
 15100  1  0  0  0
 16 17  2  0  0  0
 16 21  1  0  0  0
 16 31  1  0  0  0
 17 18  1  0  0  0
 17101  1  0  0  0
 18 19  2  0  0  0
 18102  1  0  0  0
 19 20  1  0  0  0
 19 24  1  0  0  0
 20 21  2  0  0  0
 20103  1  0  0  0
 21 23  1  0  0  0
 22 28  1  0  0  0
 22 32  2  0  0  0
 26 27  1  0  0  0
 28104  1  0  0  0
 28105  1  0  0  0
 29106  1  0  0  0
 29107  1  0  0  0
 33 34  1  0  0  0
 33 66  1  0  0  0
 33 70  2  0  0  0
 34 36  1  0  0  0
 34 59  1  0  0  0
 34108  1  0  0  0
 35 44  2  0  0  0
 35 45  1  0  0  0
 35 68  1  0  0  0
 36 56  1  0  0  0
 36109  1  0  0  0
 37 39  1  0  0  0
 37 47  1  0  0  0
 37 66  1  0  0  0
 37110  1  0  0  0
 38 43  2  0  0  0
 38 46  1  0  0  0
 38 47  1  0  0  0
 39 64  1  0  0  0
 39 67  2  0  0  0
 40 52  1  0  0  0
 40 53  2  0  0  0
 40 58  1  0  0  0
 41111  1  0  0  0
 41112  1  0  0  0
 41113  1  0  0  0
 41 48  1  0  0  0
 42 43  1  0  0  0
 42 66  1  0  0  0
 42114  1  0  0  0
 42115  1  0  0  0
 43 44  1  0  0  0
 44116  1  0  0  0
 45 46  2  0  0  0
 45117  1  0  0  0
 46118  1  0  0  0
 47119  1  0  0  0
 47120  1  0  0  0
 48 56  1  0  0  0
 48 65  1  0  0  0
 48121  1  0  0  0
 49 50  1  0  0  0
 49 53  1  0  0  0
 49 64  1  0  0  0
 49122  1  0  0  0
 50 51  1  0  0  0
 50123  1  0  0  0
 50124  1  0  0  0
 51 52  1  0  0  0
 51125  1  0  0  0
 51126  1  0  0  0
 52127  1  0  0  0
 52128  1  0  0  0
 53 54  1  0  0  0
 54 55  2  0  0  0
 54129  1  0  0  0
 55 57  1  0  0  0
 55130  1  0  0  0
 56 69  2  0  0  0
 57 58  2  0  0  0
 57131  1  0  0  0
 58132  1  0  0  0
 59 60  1  0  0  0
 59 61  1  0  0  0
 59 62  1  0  0  0
 60133  1  0  0  0
 60134  1  0  0  0
 60135  1  0  0  0
 61136  1  0  0  0
 61137  1  0  0  0
 61138  1  0  0  0
 62139  1  0  0  0
 62140  1  0  0  0
 62141  1  0  0  0
 63 65  1  0  0  0
 63142  1  0  0  0
 63143  1  0  0  0
 63144  1  0  0  0
 64145  1  0  0  0
 65146  1  0  0  0
 68 77  1  0  0  0
 71 72  2  0  0  0
 71 73  1  0  0  0
 71147  1  0  0  0
 72 75  1  0  0  0
 72148  1  0  0  0
 73 76  2  0  0  0
 73 78  1  0  0  0
 74 75  2  0  0  0
 74 76  1  0  0  0
 74 81  1  0  0  0
 75 86  1  0  0  0
 76 87  1  0  0  0
 77 79  2  0  0  0
 77149  1  0  0  0
 78 82  1  0  0  0
 78 83  2  0  0  0
 79 80  1  0  0  0
 79 85  1  0  0  0
 80 82  1  0  0  0
 80 84  2  0  0  0
 81150  1  0  0  0
 82151  1  0  0  0
 85152  1  0  0  0
M  ISO  4   1 100  68 101  77 101  81 100
M  END
> <chiral flag>
0

> <version>
0

> <s_m_source_file>
/data/baiqing/PycharmProjects/Reinvent-master-3.2/result/LINK_invent/BTK/process_docking_weight1_custom_product_contain_oxygen_bond_distance_aromatic_linkinvent_7_9_3/rearranged_h_0175.sdf

> <i_m_source_file_index>
27

> <r_mmod_Potential_Energy-OPLS-2005>
-78.1722564697266

> <r_mmod_Stretch_Energy-OPLS-2005>
68.0418243408203

> <r_mmod_Bend_Energy-OPLS-2005>
155.802917480469

> <r_mmod_Torsional_Energy-OPLS-2005>
295.044128417969

> <r_mmod_Improper_Torsional_Energy-OPLS-2005>
9.05502128601074

> <r_mmod_Van_der_Waal_Energy-OPLS-2005>
157.718475341797

> <r_mmod_Electrostatic_Energy-OPLS-2005>
-541.934753417969

> <r_mmod_Solvation_Energy-OPLS-2005>
-281.821563720703

> <b_mmod_Minimization_Converged-OPLS-2005>
0

> <r_mmod_RMS_Derivative-OPLS-2005>
4.04632568359375

$$$$
28
                    3D
 Structure written by MMmdl.
145153  0  0  1  0            999 V2000
  -30.4643  -15.1007   20.3939 C   0  0  0  0  0  0
  -30.4427  -12.6894   19.5151 C   0  0  0  0  0  0
  -29.5295  -12.5565   18.2716 C   0  0  0  0  0  0
  -28.0669  -12.3157   18.6893 C   0  0  0  0  0  0
  -27.6215  -13.2598   19.8352 C   0  0  2  0  0  0
  -28.6598  -13.3406   20.9738 C   0  0  0  0  0  0
  -25.2429  -13.8228   20.5753 C   0  0  0  0  0  0
  -24.1760  -13.0434   20.9249 C   0  0  0  0  0  0
  -24.6392  -11.6924   20.8754 C   0  0  0  0  0  0
  -23.9083  -10.4290   21.0400 C   0  0  0  0  0  0
  -24.3634   -9.4205   21.9174 C   0  0  0  0  0  0
  -23.6306   -8.2245   22.0747 C   0  0  0  0  0  0
  -22.4290   -8.0285   21.3537 C   0  0  0  0  0  0
  -21.9927   -9.0260   20.4640 C   0  0  0  0  0  0
  -22.7256  -10.2135   20.3045 C   0  0  0  0  0  0
  -21.6858   -6.0740   22.5280 C   0  0  0  0  0  0
  -21.4018   -6.5640   23.8213 C   0  0  0  0  0  0
  -21.3663   -5.6790   24.9172 C   0  0  0  0  0  0
  -21.6047   -4.3056   24.7220 C   0  0  0  0  0  0
  -21.8816   -3.8149   23.4342 C   0  0  0  0  0  0
  -21.9189   -4.6966   22.3398 C   0  0  0  0  0  0
  -22.7778  -13.5196   21.1895 C   0  0  0  0  0  0
  -22.1661   -4.2150   21.0976 F   0  0  0  0  0  0
  -21.5627   -3.4537   25.7732 F   0  0  0  0  0  0
  -29.9152  -13.8045   20.3670 N   0  0  0  0  0  0
  -26.2847  -12.9478   20.3234 N   0  0  0  0  0  0
  -25.9325  -11.6597   20.5724 N   0  0  0  0  0  0
  -22.0434  -12.8178   22.0452 N   0  0  0  0  0  0
  -25.4071  -15.1966   20.4230 N   0  0  0  0  0  0
  -31.6744  -15.1611   20.1376 O   0  0  0  0  0  0
  -21.6648   -6.8890   21.4244 O   0  0  0  0  0  0
  -22.3457  -14.5495   20.6732 O   0  0  0  0  0  0
  -24.6528  -31.8337   23.1801 C   0  0  0  0  0  0
  -25.9249  -32.4642   23.8233 C   0  0  1  0  0  0
  -27.2112  -27.0262   20.1696 C   0  0  0  0  0  0
  -25.5958  -33.8456   24.2134 N   0  0  0  0  0  0
  -23.4626  -30.4493   21.5276 C   0  0  2  0  0  0
  -24.9122  -28.8544   20.1139 C   0  0  0  0  0  0
  -22.7618  -29.4495   22.4832 C   0  0  0  0  0  0
  -18.0312  -28.1394   22.8468 C   0  0  0  0  0  0
  -24.1489  -36.7241   23.2643 C   0  0  0  0  0  0
  -26.0254  -30.6702   21.3971 C   0  0  0  0  0  0
  -26.0924  -29.2692   20.7444 C   0  0  0  0  0  0
  -27.2398  -28.3716   20.7545 C   0  0  0  0  0  0
  -26.0099  -26.7464   19.4821 C   0  0  0  0  0  0
  -24.8892  -27.6097   19.4663 C   0  0  0  0  0  0
  -23.6948  -29.7708   20.1509 C   0  0  0  0  0  0
  -25.4126  -36.3005   24.0301 C   0  0  1  0  0  0
  -20.5926  -28.3729   23.1209 C   0  0  2  0  0  0
  -20.6790  -26.9423   22.5396 C   0  0  0  0  0  0
  -19.5767  -26.6373   21.5207 C   0  0  0  0  0  0
  -18.1951  -26.7927   22.1621 C   0  0  0  0  0  0
  -19.1567  -28.8886   23.2825 C   0  0  0  0  0  0
  -18.9481  -30.1479   23.8854 C   0  0  0  0  0  0
  -17.6474  -30.6589   24.0553 C   0  0  0  0  0  0
  -25.9080  -34.9379   23.5033 C   0  0  0  0  0  0
  -16.5366  -29.9073   23.6339 C   0  0  0  0  0  0
  -16.7295  -28.6492   23.0363 C   0  0  0  0  0  0
  -26.4535  -31.6557   25.0727 C   0  0  0  0  0  0
  -25.3691  -31.3789   26.1407 C   0  0  0  0  0  0
  -27.0416  -30.2932   24.6400 C   0  0  0  0  0  0
  -27.6042  -32.4354   25.7523 C   0  0  0  0  0  0
  -27.5571  -37.1774   24.8459 C   0  0  0  0  0  0
  -21.4298  -29.3037   22.3572 N   0  0  0  0  0  0
  -26.4281  -37.3727   23.9405 N   0  0  0  0  0  0
  -24.7343  -31.0092   22.0889 N   0  0  0  0  0  0
  -23.4211  -28.8054   23.3033 O   0  0  0  0  0  0
  -28.2351  -25.9746   20.2082 O   0  0  0  0  0  0
  -26.5686  -34.8896   22.4624 O   0  0  0  0  0  0
  -23.5620  -32.1263   23.6954 O   0  0  0  0  0  0
  -30.5837  -20.2617   20.1168 C   0  0  0  0  0  0
  -29.2223  -20.3322   20.3362 C   0  0  0  0  0  0
  -28.8196  -18.8530   20.4886 C   0  0  0  0  0  0
  -29.7638  -17.7497   20.4054 C   0  0  0  0  0  0
  -27.9660  -24.4970   20.2915 C   0  0  0  0  0  0
  -28.3661  -21.7197   20.3925 C   0  0  0  0  0  0
  -28.8010  -23.3119   20.2638 C   0  0  0  0  0  0
  -29.6342  -16.2855   20.5189 N   0  0  0  0  0  0
  -27.1553  -21.5754   20.5727 O   0  0  0  0  0  0
  -30.1181  -23.5098   20.1257 O   0  0  0  0  0  0
  -27.5557  -18.5675   20.7007 F   0  0  0  0  0  0
  -31.2738  -18.6020   20.1046 S   0  0  0  0  0  0
  -31.4696  -12.8777   19.1985 H   0  0  0  0  0  0
  -30.4741  -11.7539   20.0765 H   0  0  0  0  0  0
  -29.8776  -11.7458   17.6299 H   0  0  0  0  0  0
  -29.5932  -13.4684   17.6758 H   0  0  0  0  0  0
  -27.9854  -11.2790   19.0175 H   0  0  0  0  0  0
  -27.4029  -12.4185   17.8302 H   0  0  0  0  0  0
  -27.5664  -14.2509   19.3851 H   0  0  0  0  0  0
  -28.7845  -12.3757   21.4679 H   0  0  0  0  0  0
  -28.3330  -14.0425   21.7429 H   0  0  0  0  0  0
  -25.2779   -9.5686   22.4746 H   0  0  0  0  0  0
  -24.0015   -7.4636   22.7466 H   0  0  0  0  0  0
  -21.0857   -8.8777   19.8951 H   0  0  0  0  0  0
  -22.3709  -10.9674   19.6157 H   0  0  0  0  0  0
  -21.2022   -7.6148   23.9720 H   0  0  0  0  0  0
  -21.1487   -6.0518   25.9073 H   0  0  0  0  0  0
  -22.0595   -2.7613   23.2836 H   0  0  0  0  0  0
  -22.4079  -11.9861   22.4856 H   0  0  0  0  0  0
  -21.1038  -13.1178   22.2643 H   0  0  0  0  0  0
  -24.6405  -15.8461   20.5620 H   0  0  0  0  0  0
  -26.2468  -15.6493   20.0887 H   0  0  0  0  0  0
  -26.7320  -32.5207   23.0959 H   0  0  0  0  0  0
  -25.0060  -33.9554   25.0254 H   0  0  0  0  0  0
  -22.7704  -31.2781   21.3657 H   0  0  0  0  0  0
  -23.3753  -35.9566   23.3280 H   0  0  0  0  0  0
  -24.3572  -36.8911   22.2063 H   0  0  0  0  0  0
  -23.7241  -37.6423   23.6712 H   0  0  0  0  0  0
  -26.1951  -31.4159   20.6190 H   0  0  0  0  0  0
  -26.8907  -30.7255   22.0456 H   0  0  0  0  0  0
  -28.1393  -28.6842   21.2656 H   0  0  0  0  0  0
  -25.9104  -25.8015   18.9674 H   0  0  0  0  0  0
  -23.9916  -27.2917   18.9533 H   0  0  0  0  0  0
  -23.8409  -30.5415   19.3933 H   0  0  0  0  0  0
  -22.8067  -29.2182   19.8384 H   0  0  0  0  0  0
  -25.1319  -36.1818   25.0792 H   0  0  0  0  0  0
  -21.0019  -28.3328   24.1330 H   0  0  0  0  0  0
  -20.5676  -26.2350   23.3628 H   0  0  0  0  0  0
  -21.6656  -26.7416   22.1202 H   0  0  0  0  0  0
  -19.6928  -25.6275   21.1264 H   0  0  0  0  0  0
  -19.6700  -27.3160   20.6718 H   0  0  0  0  0  0
  -17.4216  -26.6666   21.4028 H   0  0  0  0  0  0
  -18.0353  -26.0080   22.9029 H   0  0  0  0  0  0
  -19.7957  -30.7305   24.2207 H   0  0  0  0  0  0
  -17.5025  -31.6264   24.5158 H   0  0  0  0  0  0
  -15.5363  -30.2958   23.7685 H   0  0  0  0  0  0
  -15.8699  -28.0793   22.7106 H   0  0  0  0  0  0
  -24.5824  -30.7206   25.7706 H   0  0  0  0  0  0
  -24.8942  -32.2996   26.4808 H   0  0  0  0  0  0
  -25.7930  -30.8942   27.0211 H   0  0  0  0  0  0
  -26.3061  -29.6635   24.1381 H   0  0  0  0  0  0
  -27.3944  -29.7268   25.5029 H   0  0  0  0  0  0
  -27.9008  -30.4130   23.9799 H   0  0  0  0  0  0
  -27.2604  -33.3667   26.2037 H   0  0  0  0  0  0
  -28.3883  -32.6904   25.0382 H   0  0  0  0  0  0
  -28.0682  -31.8535   26.5497 H   0  0  0  0  0  0
  -28.2567  -38.0089   24.7517 H   0  0  0  0  0  0
  -28.1090  -36.2619   24.6275 H   0  0  0  0  0  0
  -27.2294  -37.1403   25.8862 H   0  0  0  0  0  0
  -20.9540  -29.8717   21.6702 H   0  0  0  0  0  0
  -26.0138  -38.2789   24.1409 H   0  0  0  0  0  0
  -31.2477  -21.1016   19.9564 H   0  0  0  0  0  0
  -26.9029  -24.3377   20.4074 H   0  0  0  0  0  0
  -28.6815  -16.0162   20.7118 H   0  0  0  0  0  0
  -30.2499  -24.4481   20.0840 H   0  0  0  0  0  0
  1 25  1  0  0  0
  1 30  2  0  0  0
  1 78  1  0  0  0
  2  3  1  0  0  0
  2 25  1  0  0  0
  2 83  1  0  0  0
  2 84  1  0  0  0
  3  4  1  0  0  0
  3 85  1  0  0  0
  3 86  1  0  0  0
  4  5  1  0  0  0
  4 87  1  0  0  0
  4 88  1  0  0  0
  5  6  1  0  0  0
  5 26  1  0  0  0
  5 89  1  0  0  0
  6 25  1  0  0  0
  6 90  1  0  0  0
  6 91  1  0  0  0
  7  8  2  0  0  0
  7 26  1  0  0  0
  7 29  1  0  0  0
  8  9  1  0  0  0
  8 22  1  0  0  0
  9 10  1  0  0  0
  9 27  2  0  0  0
 10 11  2  0  0  0
 10 15  1  0  0  0
 11 12  1  0  0  0
 11 92  1  0  0  0
 12 13  2  0  0  0
 12 93  1  0  0  0
 13 14  1  0  0  0
 13 31  1  0  0  0
 14 15  2  0  0  0
 14 94  1  0  0  0
 15 95  1  0  0  0
 16 17  2  0  0  0
 16 21  1  0  0  0
 16 31  1  0  0  0
 17 18  1  0  0  0
 17 96  1  0  0  0
 18 19  2  0  0  0
 18 97  1  0  0  0
 19 20  1  0  0  0
 19 24  1  0  0  0
 20 21  2  0  0  0
 20 98  1  0  0  0
 21 23  1  0  0  0
 22 28  1  0  0  0
 22 32  2  0  0  0
 26 27  1  0  0  0
 28 99  1  0  0  0
 28100  1  0  0  0
 29101  1  0  0  0
 29102  1  0  0  0
 33 34  1  0  0  0
 33 66  1  0  0  0
 33 70  2  0  0  0
 34 36  1  0  0  0
 34 59  1  0  0  0
 34103  1  0  0  0
 35 44  2  0  0  0
 35 45  1  0  0  0
 35 68  1  0  0  0
 36 56  1  0  0  0
 36104  1  0  0  0
 37 39  1  0  0  0
 37 47  1  0  0  0
 37 66  1  0  0  0
 37105  1  0  0  0
 38 43  2  0  0  0
 38 46  1  0  0  0
 38 47  1  0  0  0
 39 64  1  0  0  0
 39 67  2  0  0  0
 40 52  1  0  0  0
 40 53  2  0  0  0
 40 58  1  0  0  0
 41106  1  0  0  0
 41107  1  0  0  0
 41108  1  0  0  0
 41 48  1  0  0  0
 42 43  1  0  0  0
 42 66  1  0  0  0
 42109  1  0  0  0
 42110  1  0  0  0
 43 44  1  0  0  0
 44111  1  0  0  0
 45 46  2  0  0  0
 45112  1  0  0  0
 46113  1  0  0  0
 47114  1  0  0  0
 47115  1  0  0  0
 48 56  1  0  0  0
 48 65  1  0  0  0
 48116  1  0  0  0
 49 50  1  0  0  0
 49 53  1  0  0  0
 49 64  1  0  0  0
 49117  1  0  0  0
 50 51  1  0  0  0
 50118  1  0  0  0
 50119  1  0  0  0
 51 52  1  0  0  0
 51120  1  0  0  0
 51121  1  0  0  0
 52122  1  0  0  0
 52123  1  0  0  0
 53 54  1  0  0  0
 54 55  2  0  0  0
 54124  1  0  0  0
 55 57  1  0  0  0
 55125  1  0  0  0
 56 69  2  0  0  0
 57 58  2  0  0  0
 57126  1  0  0  0
 58127  1  0  0  0
 59 60  1  0  0  0
 59 61  1  0  0  0
 59 62  1  0  0  0
 60128  1  0  0  0
 60129  1  0  0  0
 60130  1  0  0  0
 61131  1  0  0  0
 61132  1  0  0  0
 61133  1  0  0  0
 62134  1  0  0  0
 62135  1  0  0  0
 62136  1  0  0  0
 63 65  1  0  0  0
 63137  1  0  0  0
 63138  1  0  0  0
 63139  1  0  0  0
 64140  1  0  0  0
 65141  1  0  0  0
 68 75  1  0  0  0
 71 72  2  0  0  0
 71 82  1  0  0  0
 71142  1  0  0  0
 72 73  1  0  0  0
 72 76  1  0  0  0
 73 74  2  0  0  0
 73 81  1  0  0  0
 74 78  1  0  0  0
 74 82  1  0  0  0
 75 77  2  0  0  0
 75143  1  0  0  0
 76 77  1  0  0  0
 76 79  2  0  0  0
 77 80  1  0  0  0
 78144  1  0  0  0
 80145  1  0  0  0
M  ISO  4   1 100  68 101  75 101  78 100
M  END
> <chiral flag>
0

> <version>
0

> <s_m_source_file>
/data/baiqing/PycharmProjects/Reinvent-master-3.2/result/LINK_invent/BTK/process_docking_weight1_custom_product_contain_oxygen_bond_distance_aromatic_linkinvent_7_9_3/rearranged_h_0175.sdf

> <i_m_source_file_index>
28

> <r_mmod_Potential_Energy-OPLS-2005>
654.355285644531

> <r_mmod_Stretch_Energy-OPLS-2005>
352.237579345703

> <r_mmod_Bend_Energy-OPLS-2005>
285.874389648438

> <r_mmod_Torsional_Energy-OPLS-2005>
184.382034301758

> <r_mmod_Improper_Torsional_Energy-OPLS-2005>
3.76367497444153

> <r_mmod_Van_der_Waal_Energy-OPLS-2005>
106.871574401855

> <r_mmod_Electrostatic_Energy-OPLS-2005>
-371.506103515625

> <r_mmod_Solvation_Energy-OPLS-2005>
-217.570541381836

> <b_mmod_Minimization_Converged-OPLS-2005>
0

> <r_mmod_RMS_Derivative-OPLS-2005>
1.45311379432678

$$$$
29
                    3D
 Structure written by MMmdl.
156164  0  0  1  0            999 V2000
  -30.7663  -14.3863   20.6517 C   0  0  0  0  0  0
  -30.4114  -12.2940   19.3966 C   0  0  0  0  0  0
  -29.4786  -12.5179   18.1922 C   0  0  0  0  0  0
  -28.0047  -12.3712   18.6133 C   0  0  0  0  0  0
  -27.6614  -13.2051   19.8758 C   0  0  2  0  0  0
  -28.7023  -12.9685   20.9925 C   0  0  0  0  0  0
  -25.2584  -13.8165   20.5679 C   0  0  0  0  0  0
  -24.1832  -13.0440   20.9177 C   0  0  0  0  0  0
  -24.6390  -11.6910   20.8742 C   0  0  0  0  0  0
  -23.9057  -10.4299   21.0410 C   0  0  0  0  0  0
  -24.3613   -9.4215   21.9189 C   0  0  0  0  0  0
  -23.6292   -8.2245   22.0757 C   0  0  0  0  0  0
  -22.4274   -8.0283   21.3546 C   0  0  0  0  0  0
  -21.9909   -9.0255   20.4644 C   0  0  0  0  0  0
  -22.7234  -10.2137   20.3058 C   0  0  0  0  0  0
  -21.6850   -6.0737   22.5280 C   0  0  0  0  0  0
  -21.4012   -6.5640   23.8214 C   0  0  0  0  0  0
  -21.3658   -5.6794   24.9175 C   0  0  0  0  0  0
  -21.6043   -4.3058   24.7227 C   0  0  0  0  0  0
  -21.8818   -3.8149   23.4350 C   0  0  0  0  0  0
  -21.9192   -4.6964   22.3405 C   0  0  0  0  0  0
  -22.7856  -13.5240   21.1847 C   0  0  0  0  0  0
  -22.1659   -4.2151   21.0982 F   0  0  0  0  0  0
  -21.5631   -3.4543   25.7740 F   0  0  0  0  0  0
  -30.0398  -13.2574   20.4435 N   0  0  0  0  0  0
  -26.3022  -12.9333   20.3379 N   0  0  0  0  0  0
  -25.9316  -11.6491   20.5771 N   0  0  0  0  0  0
  -22.0493  -12.8225   22.0394 N   0  0  0  0  0  0
  -25.4320  -15.1881   20.4084 N   0  0  0  0  0  0
  -31.8289  -14.6205   20.0677 O   0  0  0  0  0  0
  -21.6636   -6.8881   21.4242 O   0  0  0  0  0  0
  -22.3543  -14.5548   20.6703 O   0  0  0  0  0  0
  -24.6130  -31.8708   23.2124 C   0  0  0  0  0  0
  -25.9040  -32.4834   23.8408 C   0  0  1  0  0  0
  -27.2331  -27.4529   20.0864 C   0  0  0  0  0  0
  -25.5908  -33.8628   24.2338 N   0  0  0  0  0  0
  -23.3986  -30.4959   21.5530 C   0  0  2  0  0  0
  -24.8434  -28.9672   20.1123 C   0  0  0  0  0  0
  -22.7404  -29.4677   22.5009 C   0  0  0  0  0  0
  -18.0269  -28.1381   22.8484 C   0  0  0  0  0  0
  -24.1490  -36.7315   23.2636 C   0  0  0  0  0  0
  -25.9268  -30.8402   21.3647 C   0  0  0  0  0  0
  -26.0030  -29.4779   20.7084 C   0  0  0  0  0  0
  -27.1989  -28.7274   20.6938 C   0  0  0  0  0  0
  -26.0541  -26.9597   19.4764 C   0  0  0  0  0  0
  -24.8630  -27.7061   19.4943 C   0  0  0  0  0  0
  -23.6042  -29.8304   20.1659 C   0  0  0  0  0  0
  -25.4111  -36.3116   24.0336 C   0  0  1  0  0  0
  -20.5856  -28.3666   23.1325 C   0  0  2  0  0  0
  -20.6769  -26.9408   22.5413 C   0  0  0  0  0  0
  -19.5748  -26.6394   21.5212 C   0  0  0  0  0  0
  -18.1919  -26.7932   22.1614 C   0  0  0  0  0  0
  -19.1519  -28.8841   23.2896 C   0  0  0  0  0  0
  -18.9455  -30.1443   23.8916 C   0  0  0  0  0  0
  -17.6461  -30.6593   24.0565 C   0  0  0  0  0  0
  -25.9039  -34.9480   23.5131 C   0  0  0  0  0  0
  -16.5348  -29.9095   23.6326 C   0  0  0  0  0  0
  -16.7262  -28.6511   23.0344 C   0  0  0  0  0  0
  -26.4472  -31.6605   25.0730 C   0  0  0  0  0  0
  -25.3737  -31.3703   26.1478 C   0  0  0  0  0  0
  -27.0311  -30.3057   24.6089 C   0  0  0  0  0  0
  -27.6049  -32.4314   25.7499 C   0  0  0  0  0  0
  -27.5583  -37.1810   24.8460 C   0  0  0  0  0  0
  -21.4135  -29.3044   22.3750 N   0  0  0  0  0  0
  -26.4299  -37.3797   23.9408 N   0  0  0  0  0  0
  -24.6640  -31.0826   22.1018 N   0  0  0  0  0  0
  -23.4193  -28.8205   23.3027 O   0  0  0  0  0  0
  -28.4139  -26.7400   20.1119 O   0  0  0  0  0  0
  -26.5592  -34.8928   22.4686 O   0  0  0  0  0  0
  -23.5332  -32.1454   23.7542 O   0  0  0  0  0  0
  -30.6139  -17.6956   21.7166 C   0  0  0  0  0  0
  -31.9959  -16.1211   22.9805 C   0  0  0  0  0  0
  -30.9522  -16.3665   22.0626 C   0  0  0  0  0  0
  -31.3539  -18.7809   22.2560 C   0  0  0  0  0  0
  -32.7128  -17.1948   23.5365 C   0  0  0  0  0  0
  -32.3951  -18.5172   23.1719 C   0  0  0  0  0  0
  -30.4876  -22.2790   21.0754 C   0  0  0  0  0  0
  -30.3307  -20.7344   21.0365 C   0  0  0  0  0  0
  -29.4646  -23.0922   20.2750 C   0  0  0  0  0  0
  -29.5391  -24.6177   20.5030 C   0  0  0  0  0  0
  -28.3373  -25.3339   19.8764 C   0  0  0  0  0  0
  -31.1281  -20.1521   21.9454 N   0  0  0  0  0  0
  -30.2394  -15.2732   21.5094 N   0  0  0  0  0  0
  -31.3869  -22.8324   21.7228 O   0  0  0  0  0  0
  -29.5631  -20.1540   20.2619 O   0  0  0  0  0  0
  -33.7142  -16.9540   24.4160 F   0  0  0  0  0  0
  -33.0986  -19.5465   23.7045 F   0  0  0  0  0  0
  -31.4536  -12.3871   19.0880 H   0  0  0  0  0  0
  -30.3073  -11.2766   19.7772 H   0  0  0  0  0  0
  -29.7110  -11.8079   17.3978 H   0  0  0  0  0  0
  -29.6447  -13.5121   17.7748 H   0  0  0  0  0  0
  -27.8183  -11.3143   18.8052 H   0  0  0  0  0  0
  -27.3481  -12.6498   17.7885 H   0  0  0  0  0  0
  -27.7128  -14.2555   19.5887 H   0  0  0  0  0  0
  -28.6695  -11.9303   21.3269 H   0  0  0  0  0  0
  -28.4571  -13.5624   21.8733 H   0  0  0  0  0  0
  -25.2757   -9.5687   22.4764 H   0  0  0  0  0  0
  -24.0000   -7.4635   22.7478 H   0  0  0  0  0  0
  -21.0843   -8.8775   19.8946 H   0  0  0  0  0  0
  -22.3699  -10.9678   19.6164 H   0  0  0  0  0  0
  -21.2000   -7.6147   23.9716 H   0  0  0  0  0  0
  -21.1479   -6.0525   25.9076 H   0  0  0  0  0  0
  -22.0597   -2.7611   23.2849 H   0  0  0  0  0  0
  -22.4095  -11.9869   22.4758 H   0  0  0  0  0  0
  -21.1113  -13.1252   22.2608 H   0  0  0  0  0  0
  -24.6693  -15.8485   20.5153 H   0  0  0  0  0  0
  -26.2917  -15.6245   20.0979 H   0  0  0  0  0  0
  -26.7115  -32.5552   23.1179 H   0  0  0  0  0  0
  -25.0085  -33.9779   25.0498 H   0  0  0  0  0  0
  -22.6864  -31.3120   21.4157 H   0  0  0  0  0  0
  -23.3753  -35.9646   23.3308 H   0  0  0  0  0  0
  -24.3588  -36.8924   22.2049 H   0  0  0  0  0  0
  -23.7238  -37.6519   23.6647 H   0  0  0  0  0  0
  -26.0392  -31.6094   20.5994 H   0  0  0  0  0  0
  -26.8145  -30.8904   21.9837 H   0  0  0  0  0  0
  -28.0932  -29.1167   21.1604 H   0  0  0  0  0  0
  -26.0337  -26.0035   18.9758 H   0  0  0  0  0  0
  -23.9743  -27.3092   19.0230 H   0  0  0  0  0  0
  -23.7068  -30.6067   19.4063 H   0  0  0  0  0  0
  -22.7293  -29.2473   19.8726 H   0  0  0  0  0  0
  -25.1281  -36.1991   25.0831 H   0  0  0  0  0  0
  -20.9932  -28.3241   24.1451 H   0  0  0  0  0  0
  -20.5695  -26.2275   23.3596 H   0  0  0  0  0  0
  -21.6633  -26.7475   22.1185 H   0  0  0  0  0  0
  -19.6911  -25.6308   21.1229 H   0  0  0  0  0  0
  -19.6690  -27.3221   20.6749 H   0  0  0  0  0  0
  -17.4188  -26.6682   21.4021 H   0  0  0  0  0  0
  -18.0308  -26.0072   22.9010 H   0  0  0  0  0  0
  -19.7934  -30.7234   24.2313 H   0  0  0  0  0  0
  -17.5024  -31.6277   24.5157 H   0  0  0  0  0  0
  -15.5352  -30.3001   23.7655 H   0  0  0  0  0  0
  -15.8656  -28.0846   22.7045 H   0  0  0  0  0  0
  -24.5908  -30.7054   25.7817 H   0  0  0  0  0  0
  -24.8922  -32.2854   26.4936 H   0  0  0  0  0  0
  -25.8080  -30.8868   27.0236 H   0  0  0  0  0  0
  -26.2862  -29.6823   24.1134 H   0  0  0  0  0  0
  -27.4094  -29.7286   25.4535 H   0  0  0  0  0  0
  -27.8687  -30.4395   23.9239 H   0  0  0  0  0  0
  -27.2672  -33.3606   26.2103 H   0  0  0  0  0  0
  -28.3853  -32.6887   25.0326 H   0  0  0  0  0  0
  -28.0721  -31.8418   26.5396 H   0  0  0  0  0  0
  -28.2588  -38.0120   24.7524 H   0  0  0  0  0  0
  -28.1087  -36.2648   24.6265 H   0  0  0  0  0  0
  -27.2294  -37.1439   25.8859 H   0  0  0  0  0  0
  -20.9302  -29.8787   21.6993 H   0  0  0  0  0  0
  -26.0194  -38.2879   24.1406 H   0  0  0  0  0  0
  -29.8035  -17.8614   21.0231 H   0  0  0  0  0  0
  -32.2575  -15.1107   23.2612 H   0  0  0  0  0  0
  -28.4737  -22.7270   20.5487 H   0  0  0  0  0  0
  -29.5991  -22.8681   19.2174 H   0  0  0  0  0  0
  -30.4671  -25.0142   20.0890 H   0  0  0  0  0  0
  -29.5569  -24.8340   21.5721 H   0  0  0  0  0  0
  -27.4358  -24.9097   20.3247 H   0  0  0  0  0  0
  -28.2959  -25.1451   18.8027 H   0  0  0  0  0  0
  -31.6968  -20.8220   22.4508 H   0  0  0  0  0  0
  -29.3112  -15.0878   21.8591 H   0  0  0  0  0  0
  1 25  1  0  0  0
  1 30  2  0  0  0
  1 83  1  0  0  0
  2  3  1  0  0  0
  2 25  1  0  0  0
  2 88  1  0  0  0
  2 89  1  0  0  0
  3  4  1  0  0  0
  3 90  1  0  0  0
  3 91  1  0  0  0
  4  5  1  0  0  0
  4 92  1  0  0  0
  4 93  1  0  0  0
  5  6  1  0  0  0
  5 26  1  0  0  0
  5 94  1  0  0  0
  6 25  1  0  0  0
  6 95  1  0  0  0
  6 96  1  0  0  0
  7  8  2  0  0  0
  7 26  1  0  0  0
  7 29  1  0  0  0
  8  9  1  0  0  0
  8 22  1  0  0  0
  9 10  1  0  0  0
  9 27  2  0  0  0
 10 11  2  0  0  0
 10 15  1  0  0  0
 11 12  1  0  0  0
 11 97  1  0  0  0
 12 13  2  0  0  0
 12 98  1  0  0  0
 13 14  1  0  0  0
 13 31  1  0  0  0
 14 15  2  0  0  0
 14 99  1  0  0  0
 15100  1  0  0  0
 16 17  2  0  0  0
 16 21  1  0  0  0
 16 31  1  0  0  0
 17 18  1  0  0  0
 17101  1  0  0  0
 18 19  2  0  0  0
 18102  1  0  0  0
 19 20  1  0  0  0
 19 24  1  0  0  0
 20 21  2  0  0  0
 20103  1  0  0  0
 21 23  1  0  0  0
 22 28  1  0  0  0
 22 32  2  0  0  0
 26 27  1  0  0  0
 28104  1  0  0  0
 28105  1  0  0  0
 29106  1  0  0  0
 29107  1  0  0  0
 33 34  1  0  0  0
 33 66  1  0  0  0
 33 70  2  0  0  0
 34 36  1  0  0  0
 34 59  1  0  0  0
 34108  1  0  0  0
 35 44  2  0  0  0
 35 45  1  0  0  0
 35 68  1  0  0  0
 36 56  1  0  0  0
 36109  1  0  0  0
 37 39  1  0  0  0
 37 47  1  0  0  0
 37 66  1  0  0  0
 37110  1  0  0  0
 38 43  2  0  0  0
 38 46  1  0  0  0
 38 47  1  0  0  0
 39 64  1  0  0  0
 39 67  2  0  0  0
 40 52  1  0  0  0
 40 53  2  0  0  0
 40 58  1  0  0  0
 41111  1  0  0  0
 41112  1  0  0  0
 41113  1  0  0  0
 41 48  1  0  0  0
 42 43  1  0  0  0
 42 66  1  0  0  0
 42114  1  0  0  0
 42115  1  0  0  0
 43 44  1  0  0  0
 44116  1  0  0  0
 45 46  2  0  0  0
 45117  1  0  0  0
 46118  1  0  0  0
 47119  1  0  0  0
 47120  1  0  0  0
 48 56  1  0  0  0
 48 65  1  0  0  0
 48121  1  0  0  0
 49 50  1  0  0  0
 49 53  1  0  0  0
 49 64  1  0  0  0
 49122  1  0  0  0
 50 51  1  0  0  0
 50123  1  0  0  0
 50124  1  0  0  0
 51 52  1  0  0  0
 51125  1  0  0  0
 51126  1  0  0  0
 52127  1  0  0  0
 52128  1  0  0  0
 53 54  1  0  0  0
 54 55  2  0  0  0
 54129  1  0  0  0
 55 57  1  0  0  0
 55130  1  0  0  0
 56 69  2  0  0  0
 57 58  2  0  0  0
 57131  1  0  0  0
 58132  1  0  0  0
 59 60  1  0  0  0
 59 61  1  0  0  0
 59 62  1  0  0  0
 60133  1  0  0  0
 60134  1  0  0  0
 60135  1  0  0  0
 61136  1  0  0  0
 61137  1  0  0  0
 61138  1  0  0  0
 62139  1  0  0  0
 62140  1  0  0  0
 62141  1  0  0  0
 63 65  1  0  0  0
 63142  1  0  0  0
 63143  1  0  0  0
 63144  1  0  0  0
 64145  1  0  0  0
 65146  1  0  0  0
 68 81  1  0  0  0
 71 73  2  0  0  0
 71 74  1  0  0  0
 71147  1  0  0  0
 72 73  1  0  0  0
 72 75  2  0  0  0
 72148  1  0  0  0
 73 83  1  0  0  0
 74 76  2  0  0  0
 74 82  1  0  0  0
 75 76  1  0  0  0
 75 86  1  0  0  0
 76 87  1  0  0  0
 77 78  1  0  0  0
 77 79  1  0  0  0
 77 84  2  0  0  0
 78 82  1  0  0  0
 78 85  2  0  0  0
 79 80  1  0  0  0
 79149  1  0  0  0
 79150  1  0  0  0
 80 81  1  0  0  0
 80151  1  0  0  0
 80152  1  0  0  0
 81153  1  0  0  0
 81154  1  0  0  0
 82155  1  0  0  0
 83156  1  0  0  0
M  ISO  4   1 100  68 101  81 101  83 100
M  END
> <chiral flag>
0

> <version>
0

> <s_m_source_file>
/data/baiqing/PycharmProjects/Reinvent-master-3.2/result/LINK_invent/BTK/process_docking_weight1_custom_product_contain_oxygen_bond_distance_aromatic_linkinvent_7_9_3/rearranged_h_0175.sdf

> <i_m_source_file_index>
29

> <r_mmod_Potential_Energy-OPLS-2005>
-33.4700508117676

> <r_mmod_Stretch_Energy-OPLS-2005>
34.0123176574707

> <r_mmod_Bend_Energy-OPLS-2005>
101.003608703613

> <r_mmod_Torsional_Energy-OPLS-2005>
233.906661987305

> <r_mmod_Improper_Torsional_Energy-OPLS-2005>
1.86420083045959

> <r_mmod_Van_der_Waal_Energy-OPLS-2005>
166.206817626953

> <r_mmod_Electrostatic_Energy-OPLS-2005>
-356.470367431641

> <r_mmod_Solvation_Energy-OPLS-2005>
-222.807510375977

> <b_mmod_Minimization_Converged-OPLS-2005>
0

> <r_mmod_RMS_Derivative-OPLS-2005>
1.4441294670105

$$$$
30
                    3D
 Structure written by MMmdl.
152160  0  0  1  0            999 V2000
  -30.6655  -14.5446   20.4703 C   0  0  0  0  0  0
  -30.4282  -12.3268   19.4415 C   0  0  0  0  0  0
  -29.5004  -12.4833   18.2169 C   0  0  0  0  0  0
  -28.0231  -12.3386   18.6297 C   0  0  0  0  0  0
  -27.6552  -13.2078   19.8612 C   0  0  2  0  0  0
  -28.6995  -13.0487   20.9896 C   0  0  0  0  0  0
  -25.2579  -13.8147   20.5661 C   0  0  0  0  0  0
  -24.1823  -13.0439   20.9179 C   0  0  0  0  0  0
  -24.6387  -11.6901   20.8743 C   0  0  0  0  0  0
  -23.9048  -10.4296   21.0408 C   0  0  0  0  0  0
  -24.3601   -9.4206   21.9176 C   0  0  0  0  0  0
  -23.6280   -8.2232   22.0747 C   0  0  0  0  0  0
  -22.4259   -8.0276   21.3543 C   0  0  0  0  0  0
  -21.9897   -9.0247   20.4646 C   0  0  0  0  0  0
  -22.7228  -10.2120   20.3060 C   0  0  0  0  0  0
  -21.6847   -6.0723   22.5274 C   0  0  0  0  0  0
  -21.4014   -6.5626   23.8205 C   0  0  0  0  0  0
  -21.3669   -5.6778   24.9167 C   0  0  0  0  0  0
  -21.6040   -4.3046   24.7227 C   0  0  0  0  0  0
  -21.8818   -3.8141   23.4350 C   0  0  0  0  0  0
  -21.9194   -4.6956   22.3400 C   0  0  0  0  0  0
  -22.7856  -13.5256   21.1848 C   0  0  0  0  0  0
  -22.1662   -4.2143   21.0981 F   0  0  0  0  0  0
  -21.5634   -3.4542   25.7746 F   0  0  0  0  0  0
  -30.0250  -13.3421   20.4274 N   0  0  0  0  0  0
  -26.3004  -12.9317   20.3301 N   0  0  0  0  0  0
  -25.9307  -11.6494   20.5743 N   0  0  0  0  0  0
  -22.0480  -12.8248   22.0407 N   0  0  0  0  0  0
  -25.4310  -15.1870   20.4057 N   0  0  0  0  0  0
  -31.8655  -14.6567   20.2003 O   0  0  0  0  0  0
  -21.6625   -6.8867   21.4234 O   0  0  0  0  0  0
  -22.3552  -14.5570   20.6703 O   0  0  0  0  0  0
  -24.6192  -31.8653   23.2070 C   0  0  0  0  0  0
  -25.9065  -32.4806   23.8378 C   0  0  1  0  0  0
  -27.2301  -27.3876   20.0887 C   0  0  0  0  0  0
  -25.5895  -33.8608   24.2297 N   0  0  0  0  0  0
  -23.4083  -30.4878   21.5490 C   0  0  2  0  0  0
  -24.8501  -28.9460   20.1154 C   0  0  0  0  0  0
  -22.7437  -29.4640   22.4988 C   0  0  0  0  0  0
  -18.0269  -28.1376   22.8491 C   0  0  0  0  0  0
  -24.1477  -36.7304   23.2619 C   0  0  0  0  0  0
  -25.9417  -30.8134   21.3690 C   0  0  0  0  0  0
  -26.0145  -29.4453   20.7117 C   0  0  0  0  0  0
  -27.2045  -28.6737   20.6932 C   0  0  0  0  0  0
  -26.0354  -26.9075   19.5041 C   0  0  0  0  0  0
  -24.8580  -27.6789   19.5103 C   0  0  0  0  0  0
  -23.6175  -29.8202   20.1648 C   0  0  0  0  0  0
  -25.4088  -36.3096   24.0333 C   0  0  1  0  0  0
  -20.5865  -28.3666   23.1306 C   0  0  2  0  0  0
  -20.6764  -26.9401   22.5403 C   0  0  0  0  0  0
  -19.5730  -26.6382   21.5209 C   0  0  0  0  0  0
  -18.1919  -26.7916   22.1641 C   0  0  0  0  0  0
  -19.1524  -28.8834   23.2894 C   0  0  0  0  0  0
  -18.9455  -30.1445   23.8904 C   0  0  0  0  0  0
  -17.6455  -30.6581   24.0559 C   0  0  0  0  0  0
  -25.9039  -34.9471   23.5121 C   0  0  0  0  0  0
  -16.5343  -29.9079   23.6321 C   0  0  0  0  0  0
  -16.7264  -28.6492   23.0349 C   0  0  0  0  0  0
  -26.4465  -31.6602   25.0735 C   0  0  0  0  0  0
  -25.3709  -31.3738   26.1473 C   0  0  0  0  0  0
  -27.0297  -30.3032   24.6159 C   0  0  0  0  0  0
  -27.6028  -32.4334   25.7503 C   0  0  0  0  0  0
  -27.5613  -37.1745   24.8420 C   0  0  0  0  0  0
  -21.4159  -29.3037   22.3724 N   0  0  0  0  0  0
  -26.4249  -37.3818   23.9480 N   0  0  0  0  0  0
  -24.6740  -31.0706   22.0992 N   0  0  0  0  0  0
  -23.4188  -28.8173   23.3037 O   0  0  0  0  0  0
  -28.4141  -26.6592   20.0928 O   0  0  0  0  0  0
  -26.5618  -34.8937   22.4696 O   0  0  0  0  0  0
  -23.5373  -32.1425   23.7428 O   0  0  0  0  0  0
  -30.4937  -18.0763   17.8372 C   0  0  0  0  0  0
  -29.9475  -19.2455   18.3817 C   0  0  0  0  0  0
  -30.4585  -16.8819   18.5702 C   0  0  0  0  0  0
  -29.3938  -19.2088   19.6842 C   0  0  0  0  0  0
  -29.9294  -16.8803   19.8901 C   0  0  0  0  0  0
  -28.0618  -22.7580   19.9324 C   0  0  0  0  0  0
  -29.1968  -21.6774   20.0500 C   0  0  0  0  0  0
  -28.2828  -24.1659   20.5455 C   0  0  0  0  0  0
  -28.4973  -25.3250   19.5237 C   0  0  0  0  0  0
  -29.3807  -18.0355   20.4017 N   0  0  0  0  0  0
  -28.7380  -20.4026   20.1382 N   0  0  0  0  0  0
  -29.8640  -15.6337   20.6189 N   0  0  0  0  0  0
  -26.9980  -22.5045   19.3534 O   0  0  0  0  0  0
  -30.3928  -21.9898   20.0799 O   0  0  0  0  0  0
  -29.8997  -20.3643   17.6151 F   0  0  0  0  0  0
  -30.8841  -15.7498   17.9569 F   0  0  0  0  0  0
  -31.4731  -12.4307   19.1401 H   0  0  0  0  0  0
  -30.3377  -11.3274   19.8705 H   0  0  0  0  0  0
  -29.7497  -11.7407   17.4583 H   0  0  0  0  0  0
  -29.6560  -13.4583   17.7514 H   0  0  0  0  0  0
  -27.8450  -11.2873   18.8546 H   0  0  0  0  0  0
  -27.3726  -12.5834   17.7904 H   0  0  0  0  0  0
  -27.6779  -14.2429   19.5190 H   0  0  0  0  0  0
  -28.6823  -12.0330   21.3827 H   0  0  0  0  0  0
  -28.4695  -13.7029   21.8328 H   0  0  0  0  0  0
  -25.2747   -9.5677   22.4763 H   0  0  0  0  0  0
  -23.9990   -7.4619   22.7470 H   0  0  0  0  0  0
  -21.0820   -8.8758   19.8958 H   0  0  0  0  0  0
  -22.3680  -10.9643   19.6181 H   0  0  0  0  0  0
  -21.1989   -7.6131   23.9707 H   0  0  0  0  0  0
  -21.1501   -6.0508   25.9063 H   0  0  0  0  0  0
  -22.0596   -2.7602   23.2846 H   0  0  0  0  0  0
  -22.4087  -11.9917   22.4790 H   0  0  0  0  0  0
  -21.1122  -13.1292   22.2627 H   0  0  0  0  0  0
  -24.6573  -15.8382   20.4978 H   0  0  0  0  0  0
  -26.2750  -15.6232   20.0576 H   0  0  0  0  0  0
  -26.7132  -32.5488   23.1132 H   0  0  0  0  0  0
  -25.0032  -33.9764   25.0432 H   0  0  0  0  0  0
  -22.6991  -31.3057   21.4092 H   0  0  0  0  0  0
  -23.3786  -35.9581   23.3155 H   0  0  0  0  0  0
  -24.3621  -36.9057   22.2065 H   0  0  0  0  0  0
  -23.7148  -37.6437   23.6714 H   0  0  0  0  0  0
  -26.0670  -31.5781   20.6008 H   0  0  0  0  0  0
  -26.8261  -30.8606   21.9939 H   0  0  0  0  0  0
  -28.1065  -29.0579   21.1506 H   0  0  0  0  0  0
  -25.9745  -25.9342   19.0441 H   0  0  0  0  0  0
  -23.9593  -27.2856   19.0542 H   0  0  0  0  0  0
  -23.7343  -30.5940   19.4059 H   0  0  0  0  0  0
  -22.7393  -29.2454   19.8657 H   0  0  0  0  0  0
  -25.1233  -36.1931   25.0815 H   0  0  0  0  0  0
  -20.9951  -28.3219   24.1429 H   0  0  0  0  0  0
  -20.5671  -26.2270   23.3591 H   0  0  0  0  0  0
  -21.6634  -26.7448   22.1189 H   0  0  0  0  0  0
  -19.6895  -25.6295   21.1230 H   0  0  0  0  0  0
  -19.6648  -27.3198   20.6738 H   0  0  0  0  0  0
  -17.4177  -26.6636   21.4062 H   0  0  0  0  0  0
  -18.0347  -26.0064   22.9046 H   0  0  0  0  0  0
  -19.7932  -30.7258   24.2279 H   0  0  0  0  0  0
  -17.5010  -31.6268   24.5159 H   0  0  0  0  0  0
  -15.5347  -30.2987   23.7639 H   0  0  0  0  0  0
  -15.8664  -28.0812   22.7072 H   0  0  0  0  0  0
  -24.5914  -30.7034   25.7834 H   0  0  0  0  0  0
  -24.8852  -32.2897   26.4856 H   0  0  0  0  0  0
  -25.8051  -30.8983   27.0278 H   0  0  0  0  0  0
  -26.2863  -29.6814   24.1157 H   0  0  0  0  0  0
  -27.3979  -29.7259   25.4650 H   0  0  0  0  0  0
  -27.8735  -30.4335   23.9380 H   0  0  0  0  0  0
  -27.2639  -33.3639   26.2080 H   0  0  0  0  0  0
  -28.3836  -32.6899   25.0326 H   0  0  0  0  0  0
  -28.0699  -31.8466   26.5426 H   0  0  0  0  0  0
  -28.2433  -38.0232   24.7788 H   0  0  0  0  0  0
  -28.1302  -36.2808   24.5816 H   0  0  0  0  0  0
  -27.2404  -37.0868   25.8814 H   0  0  0  0  0  0
  -20.9329  -29.8773   21.6957 H   0  0  0  0  0  0
  -26.0120  -38.2845   24.1678 H   0  0  0  0  0  0
  -30.8930  -18.0820   16.8335 H   0  0  0  0  0  0
  -29.1256  -24.1216   21.2359 H   0  0  0  0  0  0
  -27.4037  -24.3869   21.1500 H   0  0  0  0  0  0
  -27.8801  -25.2109   18.6349 H   0  0  0  0  0  0
  -29.5160  -25.2342   19.1453 H   0  0  0  0  0  0
  -27.7502  -20.3186   20.3214 H   0  0  0  0  0  0
  -28.9860  -15.4589   21.0774 H   0  0  0  0  0  0
  1 25  1  0  0  0
  1 30  2  0  0  0
  1 82  1  0  0  0
  2  3  1  0  0  0
  2 25  1  0  0  0
  2 87  1  0  0  0
  2 88  1  0  0  0
  3  4  1  0  0  0
  3 89  1  0  0  0
  3 90  1  0  0  0
  4  5  1  0  0  0
  4 91  1  0  0  0
  4 92  1  0  0  0
  5  6  1  0  0  0
  5 26  1  0  0  0
  5 93  1  0  0  0
  6 25  1  0  0  0
  6 94  1  0  0  0
  6 95  1  0  0  0
  7  8  2  0  0  0
  7 26  1  0  0  0
  7 29  1  0  0  0
  8  9  1  0  0  0
  8 22  1  0  0  0
  9 10  1  0  0  0
  9 27  2  0  0  0
 10 11  2  0  0  0
 10 15  1  0  0  0
 11 12  1  0  0  0
 11 96  1  0  0  0
 12 13  2  0  0  0
 12 97  1  0  0  0
 13 14  1  0  0  0
 13 31  1  0  0  0
 14 15  2  0  0  0
 14 98  1  0  0  0
 15 99  1  0  0  0
 16 17  2  0  0  0
 16 21  1  0  0  0
 16 31  1  0  0  0
 17 18  1  0  0  0
 17100  1  0  0  0
 18 19  2  0  0  0
 18101  1  0  0  0
 19 20  1  0  0  0
 19 24  1  0  0  0
 20 21  2  0  0  0
 20102  1  0  0  0
 21 23  1  0  0  0
 22 28  1  0  0  0
 22 32  2  0  0  0
 26 27  1  0  0  0
 28103  1  0  0  0
 28104  1  0  0  0
 29105  1  0  0  0
 29106  1  0  0  0
 33 34  1  0  0  0
 33 66  1  0  0  0
 33 70  2  0  0  0
 34 36  1  0  0  0
 34 59  1  0  0  0
 34107  1  0  0  0
 35 44  2  0  0  0
 35 45  1  0  0  0
 35 68  1  0  0  0
 36 56  1  0  0  0
 36108  1  0  0  0
 37 39  1  0  0  0
 37 47  1  0  0  0
 37 66  1  0  0  0
 37109  1  0  0  0
 38 43  2  0  0  0
 38 46  1  0  0  0
 38 47  1  0  0  0
 39 64  1  0  0  0
 39 67  2  0  0  0
 40 52  1  0  0  0
 40 53  2  0  0  0
 40 58  1  0  0  0
 41110  1  0  0  0
 41111  1  0  0  0
 41112  1  0  0  0
 41 48  1  0  0  0
 42 43  1  0  0  0
 42 66  1  0  0  0
 42113  1  0  0  0
 42114  1  0  0  0
 43 44  1  0  0  0
 44115  1  0  0  0
 45 46  2  0  0  0
 45116  1  0  0  0
 46117  1  0  0  0
 47118  1  0  0  0
 47119  1  0  0  0
 48 56  1  0  0  0
 48 65  1  0  0  0
 48120  1  0  0  0
 49 50  1  0  0  0
 49 53  1  0  0  0
 49 64  1  0  0  0
 49121  1  0  0  0
 50 51  1  0  0  0
 50122  1  0  0  0
 50123  1  0  0  0
 51 52  1  0  0  0
 51124  1  0  0  0
 51125  1  0  0  0
 52126  1  0  0  0
 52127  1  0  0  0
 53 54  1  0  0  0
 54 55  2  0  0  0
 54128  1  0  0  0
 55 57  1  0  0  0
 55129  1  0  0  0
 56 69  2  0  0  0
 57 58  2  0  0  0
 57130  1  0  0  0
 58131  1  0  0  0
 59 60  1  0  0  0
 59 61  1  0  0  0
 59 62  1  0  0  0
 60132  1  0  0  0
 60133  1  0  0  0
 60134  1  0  0  0
 61135  1  0  0  0
 61136  1  0  0  0
 61137  1  0  0  0
 62138  1  0  0  0
 62139  1  0  0  0
 62140  1  0  0  0
 63 65  1  0  0  0
 63141  1  0  0  0
 63142  1  0  0  0
 63143  1  0  0  0
 64144  1  0  0  0
 65145  1  0  0  0
 68 79  1  0  0  0
 71 72  2  0  0  0
 71 73  1  0  0  0
 71146  1  0  0  0
 72 74  1  0  0  0
 72 85  1  0  0  0
 73 75  2  0  0  0
 73 86  1  0  0  0
 74 80  2  0  0  0
 74 81  1  0  0  0
 75 80  1  0  0  0
 75 82  1  0  0  0
 76 77  1  0  0  0
 76 78  1  0  0  0
 76 83  2  0  0  0
 77 81  1  0  0  0
 77 84  2  0  0  0
 78 79  1  0  0  0
 78147  1  0  0  0
 78148  1  0  0  0
 79149  1  0  0  0
 79150  1  0  0  0
 81151  1  0  0  0
 82152  1  0  0  0
M  ISO  4   1 100  68 101  79 101  82 100
M  END
> <chiral flag>
0

> <version>
0

> <s_m_source_file>
/data/baiqing/PycharmProjects/Reinvent-master-3.2/result/LINK_invent/BTK/process_docking_weight1_custom_product_contain_oxygen_bond_distance_aromatic_linkinvent_7_9_3/rearranged_h_0175.sdf

> <i_m_source_file_index>
30

> <r_mmod_Potential_Energy-OPLS-2005>
-170.883758544922

> <r_mmod_Stretch_Energy-OPLS-2005>
52.6067047119141

> <r_mmod_Bend_Energy-OPLS-2005>
114.746620178223

> <r_mmod_Torsional_Energy-OPLS-2005>
275.024780273438

> <r_mmod_Improper_Torsional_Energy-OPLS-2005>
7.55307912826538

> <r_mmod_Van_der_Waal_Energy-OPLS-2005>
158.577209472656

> <r_mmod_Electrostatic_Energy-OPLS-2005>
-563.015747070312

> <r_mmod_Solvation_Energy-OPLS-2005>
-243.304580688477

> <b_mmod_Minimization_Converged-OPLS-2005>
0

> <r_mmod_RMS_Derivative-OPLS-2005>
3.39780163764954

$$$$
31
                    3D
 Structure written by MMmdl.
157165  0  0  1  0            999 V2000
  -30.7132  -14.4084   20.6014 C   0  0  0  0  0  0
  -30.4208  -12.2759   19.4129 C   0  0  0  0  0  0
  -29.4918  -12.5083   18.2034 C   0  0  0  0  0  0
  -28.0119  -12.3764   18.6135 C   0  0  0  0  0  0
  -27.6668  -13.1994   19.8831 C   0  0  2  0  0  0
  -28.7038  -12.9393   20.9987 C   0  0  0  0  0  0
  -25.2611  -13.8150   20.5673 C   0  0  0  0  0  0
  -24.1850  -13.0441   20.9163 C   0  0  0  0  0  0
  -24.6387  -11.6903   20.8732 C   0  0  0  0  0  0
  -23.9050  -10.4296   21.0404 C   0  0  0  0  0  0
  -24.3605   -9.4210   21.9180 C   0  0  0  0  0  0
  -23.6288   -8.2245   22.0750 C   0  0  0  0  0  0
  -22.4268   -8.0283   21.3545 C   0  0  0  0  0  0
  -21.9903   -9.0251   20.4643 C   0  0  0  0  0  0
  -22.7224  -10.2132   20.3051 C   0  0  0  0  0  0
  -21.6856   -6.0738   22.5280 C   0  0  0  0  0  0
  -21.4014   -6.5643   23.8213 C   0  0  0  0  0  0
  -21.3656   -5.6794   24.9175 C   0  0  0  0  0  0
  -21.6042   -4.3056   24.7226 C   0  0  0  0  0  0
  -21.8819   -3.8148   23.4348 C   0  0  0  0  0  0
  -21.9197   -4.6966   22.3404 C   0  0  0  0  0  0
  -22.7879  -13.5258   21.1842 C   0  0  0  0  0  0
  -22.1669   -4.2147   21.0985 F   0  0  0  0  0  0
  -21.5620   -3.4538   25.7739 F   0  0  0  0  0  0
  -30.0456  -13.2343   20.4618 N   0  0  0  0  0  0
  -26.3047  -12.9303   20.3394 N   0  0  0  0  0  0
  -25.9311  -11.6472   20.5772 N   0  0  0  0  0  0
  -22.0507  -12.8252   22.0393 N   0  0  0  0  0  0
  -25.4366  -15.1863   20.4080 N   0  0  0  0  0  0
  -31.8091  -14.6293   20.0758 O   0  0  0  0  0  0
  -21.6640   -6.8878   21.4241 O   0  0  0  0  0  0
  -22.3581  -14.5575   20.6711 O   0  0  0  0  0  0
  -24.6119  -31.8701   23.2105 C   0  0  0  0  0  0
  -25.9029  -32.4827   23.8395 C   0  0  1  0  0  0
  -27.2432  -27.4613   20.0870 C   0  0  0  0  0  0
  -25.5897  -33.8625   24.2327 N   0  0  0  0  0  0
  -23.3979  -30.4912   21.5517 C   0  0  2  0  0  0
  -24.8436  -28.9562   20.1171 C   0  0  0  0  0  0
  -22.7390  -29.4657   22.5015 C   0  0  0  0  0  0
  -18.0256  -28.1362   22.8494 C   0  0  0  0  0  0
  -24.1493  -36.7313   23.2641 C   0  0  0  0  0  0
  -25.9234  -30.8406   21.3608 C   0  0  0  0  0  0
  -25.9995  -29.4755   20.7117 C   0  0  0  0  0  0
  -27.1975  -28.7326   20.6972 C   0  0  0  0  0  0
  -26.0657  -26.9433   19.4975 C   0  0  0  0  0  0
  -24.8699  -27.6875   19.5117 C   0  0  0  0  0  0
  -23.6041  -29.8197   20.1674 C   0  0  0  0  0  0
  -25.4117  -36.3118   24.0342 C   0  0  1  0  0  0
  -20.5845  -28.3640   23.1338 C   0  0  2  0  0  0
  -20.6738  -26.9378   22.5433 C   0  0  0  0  0  0
  -19.5727  -26.6369   21.5218 C   0  0  0  0  0  0
  -18.1901  -26.7914   22.1614 C   0  0  0  0  0  0
  -19.1505  -28.8817   23.2910 C   0  0  0  0  0  0
  -18.9437  -30.1423   23.8912 C   0  0  0  0  0  0
  -17.6443  -30.6574   24.0553 C   0  0  0  0  0  0
  -25.9045  -34.9483   23.5131 C   0  0  0  0  0  0
  -16.5332  -29.9076   23.6321 C   0  0  0  0  0  0
  -16.7248  -28.6490   23.0347 C   0  0  0  0  0  0
  -26.4464  -31.6601   25.0715 C   0  0  0  0  0  0
  -25.3736  -31.3738   26.1480 C   0  0  0  0  0  0
  -27.0264  -30.3029   24.6094 C   0  0  0  0  0  0
  -27.6067  -32.4302   25.7458 C   0  0  0  0  0  0
  -27.5596  -37.1805   24.8458 C   0  0  0  0  0  0
  -21.4121  -29.3017   22.3756 N   0  0  0  0  0  0
  -26.4299  -37.3806   23.9416 N   0  0  0  0  0  0
  -24.6623  -31.0815   22.0997 N   0  0  0  0  0  0
  -23.4179  -28.8209   23.3051 O   0  0  0  0  0  0
  -28.4478  -26.7962   20.0968 O   0  0  0  0  0  0
  -26.5615  -34.8935   22.4697 O   0  0  0  0  0  0
  -23.5321  -32.1448   23.7518 O   0  0  0  0  0  0
  -29.2027  -18.9190   21.8507 C   0  0  0  0  0  0
  -30.6112  -17.3817   19.9629 C   0  0  0  0  0  0
  -29.7639  -19.5467   20.7181 C   0  0  0  0  0  0
  -30.0381  -16.7466   21.0927 C   0  0  0  0  0  0
  -29.3304  -17.5271   22.0290 C   0  0  0  0  0  0
  -30.4726  -18.7696   19.7765 C   0  0  0  0  0  0
  -29.9891  -25.0513   19.5890 C   0  0  0  0  0  0
  -29.5976  -21.0430   20.5126 C   0  0  0  0  0  0
  -28.5344  -25.5083   19.4983 C   0  0  0  0  0  0
  -30.4735  -24.5767   20.9589 C   0  0  0  0  0  0
  -30.0657  -15.3403   21.3130 N   0  0  0  0  0  0
  -30.3886  -21.8273   21.4657 N   0  0  0  0  0  0
  -30.7507  -25.1849   18.6261 O   0  0  0  0  0  0
  -31.9182  -22.6861   19.5802 O   0  0  0  0  0  0
  -32.4891  -23.1434   22.0142 O   0  0  0  0  0  0
  -28.7548  -16.9284   23.1000 F   0  0  0  0  0  0
  -31.0171  -19.3478   18.6796 F   0  0  0  0  0  0
  -31.4858  -23.0394   20.9420 S   0  0  0  0  0  0
  -31.4663  -12.3711   19.1128 H   0  0  0  0  0  0
  -30.3128  -11.2565   19.7867 H   0  0  0  0  0  0
  -29.7210  -11.7970   17.4092 H   0  0  0  0  0  0
  -29.6701  -13.5005   17.7861 H   0  0  0  0  0  0
  -27.8104  -11.3197   18.7926 H   0  0  0  0  0  0
  -27.3645  -12.6720   17.7867 H   0  0  0  0  0  0
  -27.7256  -14.2529   19.6100 H   0  0  0  0  0  0
  -28.6639  -11.8950   21.3105 H   0  0  0  0  0  0
  -28.4605  -13.5117   21.8943 H   0  0  0  0  0  0
  -25.2750   -9.5689   22.4752 H   0  0  0  0  0  0
  -23.9995   -7.4635   22.7467 H   0  0  0  0  0  0
  -21.0836   -8.8763   19.8949 H   0  0  0  0  0  0
  -22.3681  -10.9666   19.6155 H   0  0  0  0  0  0
  -21.2005   -7.6149   23.9715 H   0  0  0  0  0  0
  -21.1478   -6.0528   25.9078 H   0  0  0  0  0  0
  -22.0600   -2.7612   23.2851 H   0  0  0  0  0  0
  -22.4088  -11.9867   22.4723 H   0  0  0  0  0  0
  -21.1157  -13.1334   22.2654 H   0  0  0  0  0  0
  -24.6739  -15.8475   20.5104 H   0  0  0  0  0  0
  -26.2992  -15.6201   20.1044 H   0  0  0  0  0  0
  -26.7104  -32.5546   23.1170 H   0  0  0  0  0  0
  -25.0035  -33.9789   25.0462 H   0  0  0  0  0  0
  -22.6857  -31.3071   21.4125 H   0  0  0  0  0  0
  -23.3773  -35.9621   23.3275 H   0  0  0  0  0  0
  -24.3598  -36.8957   22.2060 H   0  0  0  0  0  0
  -23.7216  -37.6500   23.6669 H   0  0  0  0  0  0
  -26.0342  -31.6059   20.5911 H   0  0  0  0  0  0
  -26.8125  -30.8930   21.9776 H   0  0  0  0  0  0
  -28.0936  -29.1333   21.1509 H   0  0  0  0  0  0
  -26.0519  -25.9739   19.0212 H   0  0  0  0  0  0
  -23.9790  -27.2810   19.0523 H   0  0  0  0  0  0
  -23.7068  -30.5912   19.4038 H   0  0  0  0  0  0
  -22.7302  -29.2342   19.8774 H   0  0  0  0  0  0
  -25.1291  -36.1980   25.0835 H   0  0  0  0  0  0
  -20.9935  -28.3193   24.1458 H   0  0  0  0  0  0
  -20.5605  -26.2254   23.3617 H   0  0  0  0  0  0
  -21.6610  -26.7404   22.1246 H   0  0  0  0  0  0
  -19.6883  -25.6282   21.1232 H   0  0  0  0  0  0
  -19.6685  -27.3187   20.6755 H   0  0  0  0  0  0
  -17.4189  -26.6685   21.3994 H   0  0  0  0  0  0
  -18.0280  -26.0032   22.8985 H   0  0  0  0  0  0
  -19.7919  -30.7218   24.2298 H   0  0  0  0  0  0
  -17.5008  -31.6259   24.5150 H   0  0  0  0  0  0
  -15.5334  -30.2984   23.7637 H   0  0  0  0  0  0
  -15.8645  -28.0814   22.7057 H   0  0  0  0  0  0
  -24.5864  -30.7138   25.7818 H   0  0  0  0  0  0
  -24.8984  -32.2915   26.4956 H   0  0  0  0  0  0
  -25.8081  -30.8868   27.0218 H   0  0  0  0  0  0
  -26.2786  -29.6803   24.1167 H   0  0  0  0  0  0
  -27.4033  -29.7262   25.4551 H   0  0  0  0  0  0
  -27.8632  -30.4315   23.9223 H   0  0  0  0  0  0
  -27.2722  -33.3616   26.2038 H   0  0  0  0  0  0
  -28.3872  -32.6832   25.0267 H   0  0  0  0  0  0
  -28.0735  -31.8411   26.5363 H   0  0  0  0  0  0
  -28.2606  -38.0111   24.7535 H   0  0  0  0  0  0
  -28.1101  -36.2649   24.6239 H   0  0  0  0  0  0
  -27.2328  -37.1407   25.8863 H   0  0  0  0  0  0
  -20.9270  -29.8769   21.7012 H   0  0  0  0  0  0
  -26.0191  -38.2883   24.1429 H   0  0  0  0  0  0
  -28.6562  -19.4993   22.5796 H   0  0  0  0  0  0
  -31.1428  -16.8256   19.2065 H   0  0  0  0  0  0
  -28.5450  -21.2972   20.6417 H   0  0  0  0  0  0
  -29.8402  -21.3195   19.4861 H   0  0  0  0  0  0
  -27.8884  -24.7949   20.0115 H   0  0  0  0  0  0
  -28.2359  -25.5528   18.4503 H   0  0  0  0  0  0
  -29.6399  -24.4381   21.6414 H   0  0  0  0  0  0
  -31.0947  -25.3657   21.3739 H   0  0  0  0  0  0
  -29.3262  -14.9978   21.9089 H   0  0  0  0  0  0
  -30.7270  -21.3218   22.2856 H   0  0  0  0  0  0
  1 25  1  0  0  0
  1 30  2  0  0  0
  1 81  1  0  0  0
  2  3  1  0  0  0
  2 25  1  0  0  0
  2 89  1  0  0  0
  2 90  1  0  0  0
  3  4  1  0  0  0
  3 91  1  0  0  0
  3 92  1  0  0  0
  4  5  1  0  0  0
  4 93  1  0  0  0
  4 94  1  0  0  0
  5  6  1  0  0  0
  5 26  1  0  0  0
  5 95  1  0  0  0
  6 25  1  0  0  0
  6 96  1  0  0  0
  6 97  1  0  0  0
  7  8  2  0  0  0
  7 26  1  0  0  0
  7 29  1  0  0  0
  8  9  1  0  0  0
  8 22  1  0  0  0
  9 10  1  0  0  0
  9 27  2  0  0  0
 10 11  2  0  0  0
 10 15  1  0  0  0
 11 12  1  0  0  0
 11 98  1  0  0  0
 12 13  2  0  0  0
 12 99  1  0  0  0
 13 14  1  0  0  0
 13 31  1  0  0  0
 14 15  2  0  0  0
 14100  1  0  0  0
 15101  1  0  0  0
 16 17  2  0  0  0
 16 21  1  0  0  0
 16 31  1  0  0  0
 17 18  1  0  0  0
 17102  1  0  0  0
 18 19  2  0  0  0
 18103  1  0  0  0
 19 20  1  0  0  0
 19 24  1  0  0  0
 20 21  2  0  0  0
 20104  1  0  0  0
 21 23  1  0  0  0
 22 28  1  0  0  0
 22 32  2  0  0  0
 26 27  1  0  0  0
 28105  1  0  0  0
 28106  1  0  0  0
 29107  1  0  0  0
 29108  1  0  0  0
 33 34  1  0  0  0
 33 66  1  0  0  0
 33 70  2  0  0  0
 34 36  1  0  0  0
 34 59  1  0  0  0
 34109  1  0  0  0
 35 44  2  0  0  0
 35 45  1  0  0  0
 35 68  1  0  0  0
 36 56  1  0  0  0
 36110  1  0  0  0
 37 39  1  0  0  0
 37 47  1  0  0  0
 37 66  1  0  0  0
 37111  1  0  0  0
 38 43  2  0  0  0
 38 46  1  0  0  0
 38 47  1  0  0  0
 39 64  1  0  0  0
 39 67  2  0  0  0
 40 52  1  0  0  0
 40 53  2  0  0  0
 40 58  1  0  0  0
 41112  1  0  0  0
 41113  1  0  0  0
 41114  1  0  0  0
 41 48  1  0  0  0
 42 43  1  0  0  0
 42 66  1  0  0  0
 42115  1  0  0  0
 42116  1  0  0  0
 43 44  1  0  0  0
 44117  1  0  0  0
 45 46  2  0  0  0
 45118  1  0  0  0
 46119  1  0  0  0
 47120  1  0  0  0
 47121  1  0  0  0
 48 56  1  0  0  0
 48 65  1  0  0  0
 48122  1  0  0  0
 49 50  1  0  0  0
 49 53  1  0  0  0
 49 64  1  0  0  0
 49123  1  0  0  0
 50 51  1  0  0  0
 50124  1  0  0  0
 50125  1  0  0  0
 51 52  1  0  0  0
 51126  1  0  0  0
 51127  1  0  0  0
 52128  1  0  0  0
 52129  1  0  0  0
 53 54  1  0  0  0
 54 55  2  0  0  0
 54130  1  0  0  0
 55 57  1  0  0  0
 55131  1  0  0  0
 56 69  2  0  0  0
 57 58  2  0  0  0
 57132  1  0  0  0
 58133  1  0  0  0
 59 60  1  0  0  0
 59 61  1  0  0  0
 59 62  1  0  0  0
 60134  1  0  0  0
 60135  1  0  0  0
 60136  1  0  0  0
 61137  1  0  0  0
 61138  1  0  0  0
 61139  1  0  0  0
 62140  1  0  0  0
 62141  1  0  0  0
 62142  1  0  0  0
 63 65  1  0  0  0
 63143  1  0  0  0
 63144  1  0  0  0
 63145  1  0  0  0
 64146  1  0  0  0
 65147  1  0  0  0
 68 79  1  0  0  0
 71 73  2  0  0  0
 71 75  1  0  0  0
 71148  1  0  0  0
 72 74  1  0  0  0
 72 76  2  0  0  0
 72149  1  0  0  0
 73 76  1  0  0  0
 73 78  1  0  0  0
 74 75  2  0  0  0
 74 81  1  0  0  0
 75 86  1  0  0  0
 76 87  1  0  0  0
 77 79  1  0  0  0
 77 80  1  0  0  0
 77 83  2  0  0  0
 78 82  1  0  0  0
 78150  1  0  0  0
 78151  1  0  0  0
 79152  1  0  0  0
 79153  1  0  0  0
 80154  1  0  0  0
 80155  1  0  0  0
 80 88  1  0  0  0
 81156  1  0  0  0
 82 88  1  0  0  0
 82157  1  0  0  0
 84 88  2  0  0  0
 85 88  2  0  0  0
M  ISO  4   1 100  68 101  79 101  81 100
M  END
> <chiral flag>
0

> <version>
0

> <s_m_source_file>
/data/baiqing/PycharmProjects/Reinvent-master-3.2/result/LINK_invent/BTK/process_docking_weight1_custom_product_contain_oxygen_bond_distance_aromatic_linkinvent_7_9_3/rearranged_h_0175.sdf

> <i_m_source_file_index>
31

> <r_mmod_Potential_Energy-OPLS-2005>
-347.98681640625

> <r_mmod_Stretch_Energy-OPLS-2005>
31.5872745513916

> <r_mmod_Bend_Energy-OPLS-2005>
102.944190979004

> <r_mmod_Torsional_Energy-OPLS-2005>
242.033020019531

> <r_mmod_Improper_Torsional_Energy-OPLS-2005>
7.22442054748535

> <r_mmod_Van_der_Waal_Energy-OPLS-2005>
151.531509399414

> <r_mmod_Electrostatic_Energy-OPLS-2005>
-618.508850097656

> <r_mmod_Solvation_Energy-OPLS-2005>
-273.835083007812

> <b_mmod_Minimization_Converged-OPLS-2005>
0

> <r_mmod_RMS_Derivative-OPLS-2005>
1.11832439899445

$$$$
32
                    3D
 Structure written by MMmdl.
152160  0  0  1  0            999 V2000
  -30.6903  -14.4757   20.5721 C   0  0  0  0  0  0
  -30.4328  -12.3101   19.4176 C   0  0  0  0  0  0
  -29.4963  -12.5097   18.2059 C   0  0  0  0  0  0
  -28.0174  -12.3681   18.6173 C   0  0  0  0  0  0
  -27.6652  -13.2030   19.8767 C   0  0  2  0  0  0
  -28.7082  -12.9668   20.9938 C   0  0  0  0  0  0
  -25.2603  -13.8163   20.5663 C   0  0  0  0  0  0
  -24.1853  -13.0441   20.9174 C   0  0  0  0  0  0
  -24.6400  -11.6909   20.8733 C   0  0  0  0  0  0
  -23.9058  -10.4299   21.0411 C   0  0  0  0  0  0
  -24.3608   -9.4209   21.9190 C   0  0  0  0  0  0
  -23.6294   -8.2240   22.0749 C   0  0  0  0  0  0
  -22.4281   -8.0271   21.3539 C   0  0  0  0  0  0
  -21.9912   -9.0248   20.4643 C   0  0  0  0  0  0
  -22.7238  -10.2138   20.3058 C   0  0  0  0  0  0
  -21.6846   -6.0734   22.5285 C   0  0  0  0  0  0
  -21.4002   -6.5642   23.8215 C   0  0  0  0  0  0
  -21.3655   -5.6787   24.9181 C   0  0  0  0  0  0
  -21.6046   -4.3047   24.7232 C   0  0  0  0  0  0
  -21.8823   -3.8150   23.4348 C   0  0  0  0  0  0
  -21.9190   -4.6965   22.3407 C   0  0  0  0  0  0
  -22.7873  -13.5234   21.1849 C   0  0  0  0  0  0
  -22.1657   -4.2146   21.0989 F   0  0  0  0  0  0
  -21.5629   -3.4536   25.7744 F   0  0  0  0  0  0
  -30.0431  -13.2823   20.4509 N   0  0  0  0  0  0
  -26.3033  -12.9323   20.3361 N   0  0  0  0  0  0
  -25.9323  -11.6488   20.5764 N   0  0  0  0  0  0
  -22.0495  -12.8227   22.0387 N   0  0  0  0  0  0
  -25.4349  -15.1879   20.4067 N   0  0  0  0  0  0
  -31.8050  -14.6789   20.0813 O   0  0  0  0  0  0
  -21.6628   -6.8881   21.4254 O   0  0  0  0  0  0
  -22.3575  -14.5555   20.6700 O   0  0  0  0  0  0
  -24.6130  -31.8680   23.2112 C   0  0  0  0  0  0
  -25.9031  -32.4819   23.8401 C   0  0  1  0  0  0
  -27.2368  -27.4491   20.0996 C   0  0  0  0  0  0
  -25.5907  -33.8614   24.2336 N   0  0  0  0  0  0
  -23.4017  -30.4927   21.5484 C   0  0  2  0  0  0
  -24.8526  -28.9640   20.1103 C   0  0  0  0  0  0
  -22.7410  -29.4645   22.4957 C   0  0  0  0  0  0
  -18.0269  -28.1376   22.8469 C   0  0  0  0  0  0
  -24.1483  -36.7301   23.2636 C   0  0  0  0  0  0
  -25.9292  -30.8421   21.3610 C   0  0  0  0  0  0
  -26.0112  -29.4787   20.7072 C   0  0  0  0  0  0
  -27.2099  -28.7294   20.6962 C   0  0  0  0  0  0
  -26.0664  -26.9516   19.4871 C   0  0  0  0  0  0
  -24.8746  -27.6998   19.4951 C   0  0  0  0  0  0
  -23.6129  -29.8279   20.1617 C   0  0  0  0  0  0
  -25.4097  -36.3105   24.0353 C   0  0  1  0  0  0
  -20.5858  -28.3648   23.1307 C   0  0  2  0  0  0
  -20.6747  -26.9386   22.5416 C   0  0  0  0  0  0
  -19.5747  -26.6380   21.5196 C   0  0  0  0  0  0
  -18.1916  -26.7928   22.1592 C   0  0  0  0  0  0
  -19.1518  -28.8826   23.2892 C   0  0  0  0  0  0
  -18.9450  -30.1430   23.8904 C   0  0  0  0  0  0
  -17.6459  -30.6579   24.0559 C   0  0  0  0  0  0
  -25.9023  -34.9478   23.5135 C   0  0  0  0  0  0
  -16.5347  -29.9078   23.6327 C   0  0  0  0  0  0
  -16.7262  -28.6500   23.0333 C   0  0  0  0  0  0
  -26.4470  -31.6587   25.0708 C   0  0  0  0  0  0
  -25.3758  -31.3707   26.1486 C   0  0  0  0  0  0
  -27.0262  -30.3016   24.6063 C   0  0  0  0  0  0
  -27.6074  -32.4273   25.7463 C   0  0  0  0  0  0
  -27.5589  -37.1797   24.8456 C   0  0  0  0  0  0
  -21.4135  -29.3021   22.3716 N   0  0  0  0  0  0
  -26.4275  -37.3802   23.9436 N   0  0  0  0  0  0
  -24.6659  -31.0810   22.0988 N   0  0  0  0  0  0
  -23.4200  -28.8175   23.2972 O   0  0  0  0  0  0
  -28.3696  -26.6705   20.1377 O   0  0  0  0  0  0
  -26.5567  -34.8934   22.4683 O   0  0  0  0  0  0
  -23.5319  -32.1404   23.7521 O   0  0  0  0  0  0
  -29.4949  -19.2815   21.0169 C   0  0  0  0  0  0
  -30.5510  -18.9073   20.2003 C   0  0  0  0  0  0
  -30.0055  -16.8456   21.0502 C   0  0  0  0  0  0
  -28.6810  -22.9938   20.8783 C   0  0  0  0  0  0
  -28.8035  -20.5678   21.2922 C   0  0  0  0  0  0
  -29.4573  -21.8949   21.0715 C   0  0  0  0  0  0
  -29.1738  -24.3781   20.6772 C   0  0  0  0  0  0
  -31.3727  -19.7408   19.2585 C   0  0  0  0  0  0
  -28.1895  -25.5239   20.9865 C   0  0  0  0  0  0
  -30.8269  -17.5256   20.2410 N   0  0  0  0  0  0
  -29.9844  -15.4294   21.2088 N   0  0  0  0  0  0
  -27.6455  -20.5296   21.7238 O   0  0  0  0  0  0
  -30.3272  -24.6331   20.3109 O   0  0  0  0  0  0
  -30.7990  -21.9542   21.1114 O   0  0  0  0  0  0
  -28.8437  -17.8813   21.8601 S   0  0  0  0  0  0
  -31.4735  -12.4257   19.1092 H   0  0  0  0  0  0
  -30.3493  -11.2940   19.8059 H   0  0  0  0  0  0
  -29.7353  -11.7899   17.4213 H   0  0  0  0  0  0
  -29.6633  -13.4980   17.7741 H   0  0  0  0  0  0
  -27.8253  -11.3123   18.8079 H   0  0  0  0  0  0
  -27.3684  -12.6499   17.7877 H   0  0  0  0  0  0
  -27.7135  -14.2533   19.5860 H   0  0  0  0  0  0
  -28.6857  -11.9237   21.3133 H   0  0  0  0  0  0
  -28.4613  -13.5439   21.8862 H   0  0  0  0  0  0
  -25.2765   -9.5681   22.4755 H   0  0  0  0  0  0
  -24.0001   -7.4627   22.7475 H   0  0  0  0  0  0
  -21.0835   -8.8779   19.8953 H   0  0  0  0  0  0
  -22.3707  -10.9663   19.6153 H   0  0  0  0  0  0
  -21.1984   -7.6148   23.9719 H   0  0  0  0  0  0
  -21.1467   -6.0515   25.9080 H   0  0  0  0  0  0
  -22.0603   -2.7603   23.2844 H   0  0  0  0  0  0
  -22.4067  -11.9872   22.4770 H   0  0  0  0  0  0
  -21.1113  -13.1282   22.2568 H   0  0  0  0  0  0
  -24.6719  -15.8472   20.5181 H   0  0  0  0  0  0
  -26.2839  -15.6213   20.0654 H   0  0  0  0  0  0
  -26.7098  -32.5560   23.1172 H   0  0  0  0  0  0
  -25.0126  -33.9771   25.0530 H   0  0  0  0  0  0
  -22.6897  -31.3096   21.4098 H   0  0  0  0  0  0
  -23.3778  -35.9603   23.3254 H   0  0  0  0  0  0
  -24.3589  -36.8948   22.2059 H   0  0  0  0  0  0
  -23.7195  -37.6485   23.6654 H   0  0  0  0  0  0
  -26.0359  -31.6101   20.5936 H   0  0  0  0  0  0
  -26.8184  -30.8968   21.9777 H   0  0  0  0  0  0
  -28.1033  -29.1189   21.1659 H   0  0  0  0  0  0
  -26.0727  -25.9797   19.0132 H   0  0  0  0  0  0
  -23.9839  -27.3008   19.0302 H   0  0  0  0  0  0
  -23.7250  -30.6043   19.4030 H   0  0  0  0  0  0
  -22.7377  -29.2475   19.8632 H   0  0  0  0  0  0
  -25.1268  -36.1970   25.0843 H   0  0  0  0  0  0
  -20.9961  -28.3214   24.1427 H   0  0  0  0  0  0
  -20.5618  -26.2263   23.3597 H   0  0  0  0  0  0
  -21.6621  -26.7408   22.1233 H   0  0  0  0  0  0
  -19.6908  -25.6298   21.1206 H   0  0  0  0  0  0
  -19.6717  -27.3199   20.6732 H   0  0  0  0  0  0
  -17.4209  -26.6692   21.3969 H   0  0  0  0  0  0
  -18.0312  -26.0059   22.8965 H   0  0  0  0  0  0
  -19.7930  -30.7219   24.2290 H   0  0  0  0  0  0
  -17.5023  -31.6256   24.5162 H   0  0  0  0  0  0
  -15.5340  -30.2980   23.7653 H   0  0  0  0  0  0
  -15.8663  -28.0832   22.7033 H   0  0  0  0  0  0
  -24.5924  -30.7044   25.7864 H   0  0  0  0  0  0
  -24.8957  -32.2861   26.4942 H   0  0  0  0  0  0
  -25.8141  -30.8892   27.0238 H   0  0  0  0  0  0
  -26.2765  -29.6795   24.1148 H   0  0  0  0  0  0
  -27.4059  -29.7240   25.4501 H   0  0  0  0  0  0
  -27.8611  -30.4307   23.9167 H   0  0  0  0  0  0
  -27.2738  -33.3597   26.2035 H   0  0  0  0  0  0
  -28.3902  -32.6773   25.0285 H   0  0  0  0  0  0
  -28.0719  -31.8375   26.5379 H   0  0  0  0  0  0
  -28.2578  -38.0121   24.7548 H   0  0  0  0  0  0
  -28.1098  -36.2654   24.6194 H   0  0  0  0  0  0
  -27.2324  -37.1376   25.8862 H   0  0  0  0  0  0
  -20.9289  -29.8769   21.6969 H   0  0  0  0  0  0
  -26.0163  -38.2877   24.1482 H   0  0  0  0  0  0
  -27.6050  -22.8848   20.8720 H   0  0  0  0  0  0
  -30.7853  -20.5350   18.7975 H   0  0  0  0  0  0
  -31.7873  -19.1447   18.4453 H   0  0  0  0  0  0
  -32.2157  -20.2023   19.7733 H   0  0  0  0  0  0
  -28.3316  -25.8348   22.0223 H   0  0  0  0  0  0
  -27.1742  -25.1323   20.9191 H   0  0  0  0  0  0
  -29.1692  -15.0776   21.6840 H   0  0  0  0  0  0
  -31.0440  -22.8570   20.9373 H   0  0  0  0  0  0
  1 25  1  0  0  0
  1 30  2  0  0  0
  1 81  1  0  0  0
  2  3  1  0  0  0
  2 25  1  0  0  0
  2 86  1  0  0  0
  2 87  1  0  0  0
  3  4  1  0  0  0
  3 88  1  0  0  0
  3 89  1  0  0  0
  4  5  1  0  0  0
  4 90  1  0  0  0
  4 91  1  0  0  0
  5  6  1  0  0  0
  5 26  1  0  0  0
  5 92  1  0  0  0
  6 25  1  0  0  0
  6 93  1  0  0  0
  6 94  1  0  0  0
  7  8  2  0  0  0
  7 26  1  0  0  0
  7 29  1  0  0  0
  8  9  1  0  0  0
  8 22  1  0  0  0
  9 10  1  0  0  0
  9 27  2  0  0  0
 10 11  2  0  0  0
 10 15  1  0  0  0
 11 12  1  0  0  0
 11 95  1  0  0  0
 12 13  2  0  0  0
 12 96  1  0  0  0
 13 14  1  0  0  0
 13 31  1  0  0  0
 14 15  2  0  0  0
 14 97  1  0  0  0
 15 98  1  0  0  0
 16 17  2  0  0  0
 16 21  1  0  0  0
 16 31  1  0  0  0
 17 18  1  0  0  0
 17 99  1  0  0  0
 18 19  2  0  0  0
 18100  1  0  0  0
 19 20  1  0  0  0
 19 24  1  0  0  0
 20 21  2  0  0  0
 20101  1  0  0  0
 21 23  1  0  0  0
 22 28  1  0  0  0
 22 32  2  0  0  0
 26 27  1  0  0  0
 28102  1  0  0  0
 28103  1  0  0  0
 29104  1  0  0  0
 29105  1  0  0  0
 33 34  1  0  0  0
 33 66  1  0  0  0
 33 70  2  0  0  0
 34 36  1  0  0  0
 34 59  1  0  0  0
 34106  1  0  0  0
 35 44  2  0  0  0
 35 45  1  0  0  0
 35 68  1  0  0  0
 36 56  1  0  0  0
 36107  1  0  0  0
 37 39  1  0  0  0
 37 47  1  0  0  0
 37 66  1  0  0  0
 37108  1  0  0  0
 38 43  2  0  0  0
 38 46  1  0  0  0
 38 47  1  0  0  0
 39 64  1  0  0  0
 39 67  2  0  0  0
 40 52  1  0  0  0
 40 53  2  0  0  0
 40 58  1  0  0  0
 41109  1  0  0  0
 41110  1  0  0  0
 41111  1  0  0  0
 41 48  1  0  0  0
 42 43  1  0  0  0
 42 66  1  0  0  0
 42112  1  0  0  0
 42113  1  0  0  0
 43 44  1  0  0  0
 44114  1  0  0  0
 45 46  2  0  0  0
 45115  1  0  0  0
 46116  1  0  0  0
 47117  1  0  0  0
 47118  1  0  0  0
 48 56  1  0  0  0
 48 65  1  0  0  0
 48119  1  0  0  0
 49 50  1  0  0  0
 49 53  1  0  0  0
 49 64  1  0  0  0
 49120  1  0  0  0
 50 51  1  0  0  0
 50121  1  0  0  0
 50122  1  0  0  0
 51 52  1  0  0  0
 51123  1  0  0  0
 51124  1  0  0  0
 52125  1  0  0  0
 52126  1  0  0  0
 53 54  1  0  0  0
 54 55  2  0  0  0
 54127  1  0  0  0
 55 57  1  0  0  0
 55128  1  0  0  0
 56 69  2  0  0  0
 57 58  2  0  0  0
 57129  1  0  0  0
 58130  1  0  0  0
 59 60  1  0  0  0
 59 61  1  0  0  0
 59 62  1  0  0  0
 60131  1  0  0  0
 60132  1  0  0  0
 60133  1  0  0  0
 61134  1  0  0  0
 61135  1  0  0  0
 61136  1  0  0  0
 62137  1  0  0  0
 62138  1  0  0  0
 62139  1  0  0  0
 63 65  1  0  0  0
 63140  1  0  0  0
 63141  1  0  0  0
 63142  1  0  0  0
 64143  1  0  0  0
 65144  1  0  0  0
 68 79  1  0  0  0
 71 72  2  0  0  0
 71 75  1  0  0  0
 71 85  1  0  0  0
 72 78  1  0  0  0
 72 80  1  0  0  0
 73 80  2  0  0  0
 73 81  1  0  0  0
 73 85  1  0  0  0
 74 76  2  0  0  0
 74 77  1  0  0  0
 74145  1  0  0  0
 75 76  1  0  0  0
 75 82  2  0  0  0
 76 84  1  0  0  0
 77 79  1  0  0  0
 77 83  2  0  0  0
 78146  1  0  0  0
 78147  1  0  0  0
 78148  1  0  0  0
 79149  1  0  0  0
 79150  1  0  0  0
 81151  1  0  0  0
 84152  1  0  0  0
M  ISO  4   1 100  68 101  79 101  81 100
M  END
> <chiral flag>
0

> <version>
0

> <s_m_source_file>
/data/baiqing/PycharmProjects/Reinvent-master-3.2/result/LINK_invent/BTK/process_docking_weight1_custom_product_contain_oxygen_bond_distance_aromatic_linkinvent_7_9_3/rearranged_h_0175.sdf

> <i_m_source_file_index>
32

> <r_mmod_Potential_Energy-OPLS-2005>
-130.186752319336

> <r_mmod_Stretch_Energy-OPLS-2005>
39.0311737060547

> <r_mmod_Bend_Energy-OPLS-2005>
105.936378479004

> <r_mmod_Torsional_Energy-OPLS-2005>
224.451126098633

> <r_mmod_Improper_Torsional_Energy-OPLS-2005>
3.60618853569031

> <r_mmod_Van_der_Waal_Energy-OPLS-2005>
142.14387512207

> <r_mmod_Electrostatic_Energy-OPLS-2005>
-412.122467041016

> <r_mmod_Solvation_Energy-OPLS-2005>
-245.986526489258

> <b_mmod_Minimization_Converged-OPLS-2005>
0

> <r_mmod_RMS_Derivative-OPLS-2005>
2.46800708770752

$$$$
33
                    3D
 Structure written by MMmdl.
153161  0  0  1  0            999 V2000
  -30.6578  -14.5522   20.5390 C   0  0  0  0  0  0
  -30.4282  -12.3416   19.4409 C   0  0  0  0  0  0
  -29.5028  -12.5002   18.2153 C   0  0  0  0  0  0
  -28.0236  -12.3452   18.6231 C   0  0  0  0  0  0
  -27.6530  -13.2070   19.8579 C   0  0  2  0  0  0
  -28.6950  -13.0475   20.9869 C   0  0  0  0  0  0
  -25.2580  -13.8149   20.5663 C   0  0  0  0  0  0
  -24.1836  -13.0434   20.9182 C   0  0  0  0  0  0
  -24.6386  -11.6898   20.8729 C   0  0  0  0  0  0
  -23.9056  -10.4288   21.0402 C   0  0  0  0  0  0
  -24.3612   -9.4209   21.9181 C   0  0  0  0  0  0
  -23.6292   -8.2240   22.0757 C   0  0  0  0  0  0
  -22.4279   -8.0269   21.3540 C   0  0  0  0  0  0
  -21.9904   -9.0246   20.4650 C   0  0  0  0  0  0
  -22.7222  -10.2128   20.3060 C   0  0  0  0  0  0
  -21.6852   -6.0732   22.5279 C   0  0  0  0  0  0
  -21.4005   -6.5636   23.8210 C   0  0  0  0  0  0
  -21.3664   -5.6791   24.9174 C   0  0  0  0  0  0
  -21.6054   -4.3056   24.7228 C   0  0  0  0  0  0
  -21.8816   -3.8145   23.4348 C   0  0  0  0  0  0
  -21.9191   -4.6960   22.3404 C   0  0  0  0  0  0
  -22.7871  -13.5239   21.1859 C   0  0  0  0  0  0
  -22.1659   -4.2148   21.0981 F   0  0  0  0  0  0
  -21.5644   -3.4541   25.7743 F   0  0  0  0  0  0
  -30.0210  -13.3497   20.4350 N   0  0  0  0  0  0
  -26.2987  -12.9306   20.3280 N   0  0  0  0  0  0
  -25.9309  -11.6471   20.5733 N   0  0  0  0  0  0
  -22.0504  -12.8225   22.0407 N   0  0  0  0  0  0
  -25.4323  -15.1863   20.4043 N   0  0  0  0  0  0
  -31.8165  -14.6894   20.1360 O   0  0  0  0  0  0
  -21.6639   -6.8869   21.4239 O   0  0  0  0  0  0
  -22.3559  -14.5540   20.6703 O   0  0  0  0  0  0
  -24.6187  -31.8655   23.2070 C   0  0  0  0  0  0
  -25.9066  -32.4806   23.8375 C   0  0  1  0  0  0
  -27.2276  -27.3867   20.1206 C   0  0  0  0  0  0
  -25.5922  -33.8602   24.2309 N   0  0  0  0  0  0
  -23.4089  -30.4876   21.5484 C   0  0  2  0  0  0
  -24.8557  -28.9413   20.1234 C   0  0  0  0  0  0
  -22.7423  -29.4652   22.4983 C   0  0  0  0  0  0
  -18.0273  -28.1384   22.8486 C   0  0  0  0  0  0
  -24.1495  -36.7303   23.2638 C   0  0  0  0  0  0
  -25.9416  -30.8147   21.3691 C   0  0  0  0  0  0
  -26.0179  -29.4411   20.7265 C   0  0  0  0  0  0
  -27.2099  -28.6723   20.7212 C   0  0  0  0  0  0
  -26.0533  -26.9133   19.5043 C   0  0  0  0  0  0
  -24.8698  -27.6758   19.5105 C   0  0  0  0  0  0
  -23.6206  -29.8149   20.1661 C   0  0  0  0  0  0
  -25.4116  -36.3100   24.0340 C   0  0  1  0  0  0
  -20.5863  -28.3674   23.1313 C   0  0  2  0  0  0
  -20.6762  -26.9402   22.5426 C   0  0  0  0  0  0
  -19.5747  -26.6382   21.5221 C   0  0  0  0  0  0
  -18.1919  -26.7931   22.1621 C   0  0  0  0  0  0
  -19.1521  -28.8845   23.2895 C   0  0  0  0  0  0
  -18.9455  -30.1443   23.8915 C   0  0  0  0  0  0
  -17.6461  -30.6588   24.0565 C   0  0  0  0  0  0
  -25.9050  -34.9465   23.5120 C   0  0  0  0  0  0
  -16.5349  -29.9093   23.6331 C   0  0  0  0  0  0
  -16.7262  -28.6510   23.0349 C   0  0  0  0  0  0
  -26.4475  -31.6592   25.0715 C   0  0  0  0  0  0
  -25.3725  -31.3720   26.1454 C   0  0  0  0  0  0
  -27.0307  -30.3032   24.6114 C   0  0  0  0  0  0
  -27.6048  -32.4312   25.7479 C   0  0  0  0  0  0
  -27.5584  -37.1800   24.8460 C   0  0  0  0  0  0
  -21.4149  -29.3040   22.3718 N   0  0  0  0  0  0
  -26.4298  -37.3788   23.9407 N   0  0  0  0  0  0
  -24.6747  -31.0722   22.0988 N   0  0  0  0  0  0
  -23.4176  -28.8195   23.3043 O   0  0  0  0  0  0
  -28.3758  -26.6215   20.0292 O   0  0  0  0  0  0
  -26.5602  -34.8920   22.4677 O   0  0  0  0  0  0
  -23.5373  -32.1428   23.7444 O   0  0  0  0  0  0
  -29.7201  -18.3803   20.2225 C   0  0  0  0  0  0
  -29.1444  -18.4551   18.9680 C   0  0  0  0  0  0
  -28.9504  -20.5646   20.2525 C   0  0  0  0  0  0
  -27.9256  -24.2232   20.7804 C   0  0  0  0  0  0
  -28.7407  -23.0459   20.1231 C   0  0  0  0  0  0
  -30.5678  -17.2179   20.7567 C   0  0  0  0  0  0
  -28.6083  -25.6017   21.0368 C   0  0  0  0  0  0
  -29.8694  -15.8268   20.9990 C   0  0  0  0  0  0
  -29.0807  -17.3931   17.9113 C   0  0  0  0  0  0
  -29.5452  -19.5811   20.9628 N   0  0  0  0  0  0
  -28.6584  -21.8626   20.7856 N   0  0  0  0  0  0
  -26.7509  -24.0467   21.1264 O   0  0  0  0  0  0
  -29.3954  -23.2088   19.0872 O   0  0  0  0  0  0
  -30.2446  -16.7602   17.7743 F   0  0  0  0  0  0
  -28.1591  -16.4779   18.2077 F   0  0  0  0  0  0
  -28.7654  -17.8937   16.7169 F   0  0  0  0  0  0
  -28.4647  -20.0405   18.6482 S   0  0  0  0  0  0
  -31.4725  -12.4448   19.1419 H   0  0  0  0  0  0
  -30.3367  -11.3395   19.8627 H   0  0  0  0  0  0
  -29.7577  -11.7633   17.4524 H   0  0  0  0  0  0
  -29.6601  -13.4792   17.7594 H   0  0  0  0  0  0
  -27.8486  -11.2908   18.8404 H   0  0  0  0  0  0
  -27.3741  -12.5927   17.7828 H   0  0  0  0  0  0
  -27.6725  -14.2409   19.5197 H   0  0  0  0  0  0
  -28.6828  -12.0281   21.3744 H   0  0  0  0  0  0
  -28.4524  -13.6913   21.8331 H   0  0  0  0  0  0
  -25.2758   -9.5693   22.4752 H   0  0  0  0  0  0
  -24.0012   -7.4631   22.7463 H   0  0  0  0  0  0
  -21.0845   -8.8747   19.8951 H   0  0  0  0  0  0
  -22.3667  -10.9667   19.6174 H   0  0  0  0  0  0
  -21.1974   -7.6140   23.9709 H   0  0  0  0  0  0
  -21.1504   -6.0526   25.9078 H   0  0  0  0  0  0
  -22.0592   -2.7607   23.2851 H   0  0  0  0  0  0
  -22.4101  -11.9882   22.4799 H   0  0  0  0  0  0
  -21.1128  -13.1259   22.2606 H   0  0  0  0  0  0
  -24.6644  -15.8418   20.4995 H   0  0  0  0  0  0
  -26.2770  -15.6139   20.0491 H   0  0  0  0  0  0
  -26.7133  -32.5512   23.1133 H   0  0  0  0  0  0
  -25.0085  -33.9758   25.0462 H   0  0  0  0  0  0
  -22.7002  -31.3059   21.4047 H   0  0  0  0  0  0
  -23.3762  -35.9633   23.3311 H   0  0  0  0  0  0
  -24.3587  -36.8909   22.2050 H   0  0  0  0  0  0
  -23.7242  -37.6509   23.6647 H   0  0  0  0  0  0
  -26.0606  -31.5730   20.5947 H   0  0  0  0  0  0
  -26.8279  -30.8703   21.9904 H   0  0  0  0  0  0
  -28.1112  -29.0614   21.1752 H   0  0  0  0  0  0
  -26.0555  -25.9497   19.0149 H   0  0  0  0  0  0
  -23.9785  -27.2865   19.0377 H   0  0  0  0  0  0
  -23.7314  -30.5869   19.4031 H   0  0  0  0  0  0
  -22.7443  -29.2361   19.8695 H   0  0  0  0  0  0
  -25.1292  -36.1965   25.0836 H   0  0  0  0  0  0
  -20.9947  -28.3246   24.1438 H   0  0  0  0  0  0
  -20.5677  -26.2280   23.3621 H   0  0  0  0  0  0
  -21.6632  -26.7445   22.1213 H   0  0  0  0  0  0
  -19.6913  -25.6297   21.1247 H   0  0  0  0  0  0
  -19.6704  -27.3193   20.6757 H   0  0  0  0  0  0
  -17.4198  -26.6688   21.4015 H   0  0  0  0  0  0
  -18.0303  -26.0066   22.9010 H   0  0  0  0  0  0
  -19.7930  -30.7242   24.2298 H   0  0  0  0  0  0
  -17.5020  -31.6273   24.5154 H   0  0  0  0  0  0
  -15.5348  -30.3006   23.7650 H   0  0  0  0  0  0
  -15.8657  -28.0839   22.7066 H   0  0  0  0  0  0
  -24.5911  -30.7051   25.7788 H   0  0  0  0  0  0
  -24.8901  -32.2887   26.4862 H   0  0  0  0  0  0
  -25.8064  -30.8917   27.0235 H   0  0  0  0  0  0
  -26.2856  -29.6801   24.1156 H   0  0  0  0  0  0
  -27.4055  -29.7263   25.4577 H   0  0  0  0  0  0
  -27.8707  -30.4344   23.9288 H   0  0  0  0  0  0
  -27.2663  -33.3603   26.2075 H   0  0  0  0  0  0
  -28.3847  -32.6884   25.0299 H   0  0  0  0  0  0
  -28.0729  -31.8429   26.5381 H   0  0  0  0  0  0
  -28.2596  -38.0097   24.7506 H   0  0  0  0  0  0
  -28.1082  -36.2631   24.6289 H   0  0  0  0  0  0
  -27.2302  -37.1454   25.8860 H   0  0  0  0  0  0
  -20.9320  -29.8765   21.6941 H   0  0  0  0  0  0
  -26.0196  -38.2873   24.1402 H   0  0  0  0  0  0
  -31.0335  -17.5179   21.6961 H   0  0  0  0  0  0
  -31.4132  -17.1026   20.0795 H   0  0  0  0  0  0
  -29.6832  -25.4374   21.1111 H   0  0  0  0  0  0
  -28.2899  -25.9753   22.0101 H   0  0  0  0  0  0
  -28.9186  -15.8285   20.4750 H   0  0  0  0  0  0
  -29.6207  -15.7312   22.0557 H   0  0  0  0  0  0
  -28.2117  -21.8896   21.6911 H   0  0  0  0  0  0
  1 25  1  0  0  0
  1 30  2  0  0  0
  1 78  1  0  0  0
  2  3  1  0  0  0
  2 25  1  0  0  0
  2 88  1  0  0  0
  2 89  1  0  0  0
  3  4  1  0  0  0
  3 90  1  0  0  0
  3 91  1  0  0  0
  4  5  1  0  0  0
  4 92  1  0  0  0
  4 93  1  0  0  0
  5  6  1  0  0  0
  5 26  1  0  0  0
  5 94  1  0  0  0
  6 25  1  0  0  0
  6 95  1  0  0  0
  6 96  1  0  0  0
  7  8  2  0  0  0
  7 26  1  0  0  0
  7 29  1  0  0  0
  8  9  1  0  0  0
  8 22  1  0  0  0
  9 10  1  0  0  0
  9 27  2  0  0  0
 10 11  2  0  0  0
 10 15  1  0  0  0
 11 12  1  0  0  0
 11 97  1  0  0  0
 12 13  2  0  0  0
 12 98  1  0  0  0
 13 14  1  0  0  0
 13 31  1  0  0  0
 14 15  2  0  0  0
 14 99  1  0  0  0
 15100  1  0  0  0
 16 17  2  0  0  0
 16 21  1  0  0  0
 16 31  1  0  0  0
 17 18  1  0  0  0
 17101  1  0  0  0
 18 19  2  0  0  0
 18102  1  0  0  0
 19 20  1  0  0  0
 19 24  1  0  0  0
 20 21  2  0  0  0
 20103  1  0  0  0
 21 23  1  0  0  0
 22 28  1  0  0  0
 22 32  2  0  0  0
 26 27  1  0  0  0
 28104  1  0  0  0
 28105  1  0  0  0
 29106  1  0  0  0
 29107  1  0  0  0
 33 34  1  0  0  0
 33 66  1  0  0  0
 33 70  2  0  0  0
 34 36  1  0  0  0
 34 59  1  0  0  0
 34108  1  0  0  0
 35 44  2  0  0  0
 35 45  1  0  0  0
 35 68  1  0  0  0
 36 56  1  0  0  0
 36109  1  0  0  0
 37 39  1  0  0  0
 37 47  1  0  0  0
 37 66  1  0  0  0
 37110  1  0  0  0
 38 43  2  0  0  0
 38 46  1  0  0  0
 38 47  1  0  0  0
 39 64  1  0  0  0
 39 67  2  0  0  0
 40 52  1  0  0  0
 40 53  2  0  0  0
 40 58  1  0  0  0
 41111  1  0  0  0
 41112  1  0  0  0
 41113  1  0  0  0
 41 48  1  0  0  0
 42 43  1  0  0  0
 42 66  1  0  0  0
 42114  1  0  0  0
 42115  1  0  0  0
 43 44  1  0  0  0
 44116  1  0  0  0
 45 46  2  0  0  0
 45117  1  0  0  0
 46118  1  0  0  0
 47119  1  0  0  0
 47120  1  0  0  0
 48 56  1  0  0  0
 48 65  1  0  0  0
 48121  1  0  0  0
 49 50  1  0  0  0
 49 53  1  0  0  0
 49 64  1  0  0  0
 49122  1  0  0  0
 50 51  1  0  0  0
 50123  1  0  0  0
 50124  1  0  0  0
 51 52  1  0  0  0
 51125  1  0  0  0
 51126  1  0  0  0
 52127  1  0  0  0
 52128  1  0  0  0
 53 54  1  0  0  0
 54 55  2  0  0  0
 54129  1  0  0  0
 55 57  1  0  0  0
 55130  1  0  0  0
 56 69  2  0  0  0
 57 58  2  0  0  0
 57131  1  0  0  0
 58132  1  0  0  0
 59 60  1  0  0  0
 59 61  1  0  0  0
 59 62  1  0  0  0
 60133  1  0  0  0
 60134  1  0  0  0
 60135  1  0  0  0
 61136  1  0  0  0
 61137  1  0  0  0
 61138  1  0  0  0
 62139  1  0  0  0
 62140  1  0  0  0
 62141  1  0  0  0
 63 65  1  0  0  0
 63142  1  0  0  0
 63143  1  0  0  0
 63144  1  0  0  0
 64145  1  0  0  0
 65146  1  0  0  0
 68 77  1  0  0  0
 71 72  2  0  0  0
 71 76  1  0  0  0
 71 80  1  0  0  0
 72 79  1  0  0  0
 72 87  1  0  0  0
 73 80  2  0  0  0
 73 81  1  0  0  0
 73 87  1  0  0  0
 74 75  1  0  0  0
 74 77  1  0  0  0
 74 82  2  0  0  0
 75 81  1  0  0  0
 75 83  2  0  0  0
 76 78  1  0  0  0
 76147  1  0  0  0
 76148  1  0  0  0
 77149  1  0  0  0
 77150  1  0  0  0
 78151  1  0  0  0
 78152  1  0  0  0
 79 84  1  0  0  0
 79 85  1  0  0  0
 79 86  1  0  0  0
 81153  1  0  0  0
M  ISO  4   1 100  68 101  77 101  78 100
M  END
> <chiral flag>
0

> <version>
0

> <s_m_source_file>
/data/baiqing/PycharmProjects/Reinvent-master-3.2/result/LINK_invent/BTK/process_docking_weight1_custom_product_contain_oxygen_bond_distance_aromatic_linkinvent_7_9_3/rearranged_h_0175.sdf

> <i_m_source_file_index>
33

> <r_mmod_Potential_Energy-OPLS-2005>
-87.999885559082

> <r_mmod_Stretch_Energy-OPLS-2005>
50.1106719970703

> <r_mmod_Bend_Energy-OPLS-2005>
109.939476013184

> <r_mmod_Torsional_Energy-OPLS-2005>
237.111968994141

> <r_mmod_Improper_Torsional_Energy-OPLS-2005>
4.76272296905518

> <r_mmod_Van_der_Waal_Energy-OPLS-2005>
111.287231445312

> <r_mmod_Electrostatic_Energy-OPLS-2005>
-401.104675292969

> <r_mmod_Solvation_Energy-OPLS-2005>
-222.916915893555

> <b_mmod_Minimization_Converged-OPLS-2005>
0

> <r_mmod_RMS_Derivative-OPLS-2005>
1.42960000038147

$$$$
34
                    3D
 Structure written by MMmdl.
163171  0  0  1  0            999 V2000
  -30.7067  -14.4802   20.5304 C   0  0  0  0  0  0
  -30.4198  -12.3001   19.4308 C   0  0  0  0  0  0
  -29.4946  -12.4900   18.2106 C   0  0  0  0  0  0
  -28.0158  -12.3527   18.6220 C   0  0  0  0  0  0
  -27.6584  -13.2084   19.8687 C   0  0  2  0  0  0
  -28.7017  -13.0184   20.9955 C   0  0  0  0  0  0
  -25.2583  -13.8168   20.5686 C   0  0  0  0  0  0
  -24.1841  -13.0448   20.9207 C   0  0  0  0  0  0
  -24.6394  -11.6915   20.8750 C   0  0  0  0  0  0
  -23.9068  -10.4299   21.0405 C   0  0  0  0  0  0
  -24.3624   -9.4209   21.9173 C   0  0  0  0  0  0
  -23.6298   -8.2245   22.0749 C   0  0  0  0  0  0
  -22.4275   -8.0286   21.3544 C   0  0  0  0  0  0
  -21.9914   -9.0257   20.4642 C   0  0  0  0  0  0
  -22.7248  -10.2132   20.3047 C   0  0  0  0  0  0
  -21.6850   -6.0749   22.5278 C   0  0  0  0  0  0
  -21.4017   -6.5642   23.8216 C   0  0  0  0  0  0
  -21.3661   -5.6787   24.9176 C   0  0  0  0  0  0
  -21.6048   -4.3048   24.7221 C   0  0  0  0  0  0
  -21.8818   -3.8149   23.4336 C   0  0  0  0  0  0
  -21.9196   -4.6977   22.3400 C   0  0  0  0  0  0
  -22.7854  -13.5237   21.1847 C   0  0  0  0  0  0
  -22.1657   -4.2158   21.0979 F   0  0  0  0  0  0
  -21.5632   -3.4533   25.7733 F   0  0  0  0  0  0
  -30.0335  -13.3024   20.4358 N   0  0  0  0  0  0
  -26.3013  -12.9338   20.3343 N   0  0  0  0  0  0
  -25.9321  -11.6497   20.5771 N   0  0  0  0  0  0
  -22.0493  -12.8229   22.0403 N   0  0  0  0  0  0
  -25.4316  -15.1896   20.4121 N   0  0  0  0  0  0
  -31.8587  -14.6306   20.1182 O   0  0  0  0  0  0
  -21.6641   -6.8885   21.4235 O   0  0  0  0  0  0
  -22.3538  -14.5551   20.6705 O   0  0  0  0  0  0
  -24.6097  -31.8701   23.2067 C   0  0  0  0  0  0
  -25.8985  -32.4829   23.8408 C   0  0  1  0  0  0
  -27.2463  -27.4411   20.0950 C   0  0  0  0  0  0
  -25.5867  -33.8646   24.2337 N   0  0  0  0  0  0
  -23.4028  -30.4852   21.5476 C   0  0  2  0  0  0
  -24.8551  -28.9568   20.1055 C   0  0  0  0  0  0
  -22.7423  -29.4624   22.4991 C   0  0  0  0  0  0
  -18.0285  -28.1373   22.8507 C   0  0  0  0  0  0
  -24.1479  -36.7323   23.2643 C   0  0  0  0  0  0
  -25.9285  -30.8330   21.3640 C   0  0  0  0  0  0
  -26.0092  -29.4690   20.7090 C   0  0  0  0  0  0
  -27.2018  -28.7123   20.7133 C   0  0  0  0  0  0
  -26.0754  -26.9421   19.4842 C   0  0  0  0  0  0
  -24.8833  -27.6923   19.4878 C   0  0  0  0  0  0
  -23.6129  -29.8167   20.1629 C   0  0  0  0  0  0
  -25.4114  -36.3140   24.0343 C   0  0  1  0  0  0
  -20.5873  -28.3649   23.1341 C   0  0  2  0  0  0
  -20.6773  -26.9384   22.5435 C   0  0  0  0  0  0
  -19.5741  -26.6387   21.5242 C   0  0  0  0  0  0
  -18.1921  -26.7923   22.1647 C   0  0  0  0  0  0
  -19.1525  -28.8832   23.2917 C   0  0  0  0  0  0
  -18.9462  -30.1454   23.8909 C   0  0  0  0  0  0
  -17.6456  -30.6572   24.0581 C   0  0  0  0  0  0
  -25.9062  -34.9490   23.5147 C   0  0  0  0  0  0
  -16.5352  -29.9087   23.6328 C   0  0  0  0  0  0
  -16.7278  -28.6506   23.0351 C   0  0  0  0  0  0
  -26.4441  -31.6591   25.0713 C   0  0  0  0  0  0
  -25.3730  -31.3654   26.1471 C   0  0  0  0  0  0
  -27.0283  -30.3043   24.6060 C   0  0  0  0  0  0
  -27.6034  -32.4305   25.7461 C   0  0  0  0  0  0
  -27.5587  -37.1813   24.8470 C   0  0  0  0  0  0
  -21.4150  -29.3024   22.3751 N   0  0  0  0  0  0
  -26.4300  -37.3816   23.9406 N   0  0  0  0  0  0
  -24.6638  -31.0792   22.0965 N   0  0  0  0  0  0
  -23.4181  -28.8187   23.3067 O   0  0  0  0  0  0
  -28.3854  -26.6720   20.2242 O   0  0  0  0  0  0
  -26.5640  -34.8915   22.4726 O   0  0  0  0  0  0
  -23.5295  -32.1454   23.7442 O   0  0  0  0  0  0
  -29.8237  -19.2701   19.7028 C   0  0  0  0  0  0
  -27.6296  -20.2858   19.9775 C   0  0  0  0  0  0
  -28.0962  -18.1026   20.9690 C   0  0  0  0  0  0
  -28.9306  -20.3443   19.4369 C   0  0  0  0  0  0
  -29.4131  -18.1321   20.4489 C   0  0  0  0  0  0
  -27.2159  -19.1789   20.7435 C   0  0  0  0  0  0
  -28.3565  -23.7381   18.8167 C   0  0  0  0  0  0
  -29.4675  -27.5453   18.2505 C   0  0  0  0  0  0
  -30.5455  -25.8769   19.7466 C   0  0  0  0  0  0
  -29.3070  -21.4527   18.4414 C   0  0  0  0  0  0
  -30.3818  -16.9471   20.6322 C   0  0  0  0  0  0
  -28.6448  -25.1374   18.2161 C   0  0  0  0  0  0
  -29.2038  -26.2897   19.1093 C   0  0  0  0  0  0
  -29.3706  -22.8533   18.8922 N   0  0  0  0  0  0
  -29.9683  -15.5522   20.8781 N   0  0  0  0  0  0
  -27.1901  -23.4132   19.0380 O   0  0  0  0  0  0
  -25.9549  -19.1360   21.2348 F   0  0  0  0  0  0
  -31.4644  -12.3908   19.1287 H   0  0  0  0  0  0
  -30.3150  -11.2945   19.8426 H   0  0  0  0  0  0
  -29.7356  -11.7587   17.4374 H   0  0  0  0  0  0
  -29.6636  -13.4723   17.7658 H   0  0  0  0  0  0
  -27.8292  -11.2973   18.8290 H   0  0  0  0  0  0
  -27.3645  -12.6146   17.7869 H   0  0  0  0  0  0
  -27.6943  -14.2514   19.5525 H   0  0  0  0  0  0
  -28.6735  -11.9940   21.3716 H   0  0  0  0  0  0
  -28.4719  -13.6527   21.8528 H   0  0  0  0  0  0
  -25.2766   -9.5682   22.4749 H   0  0  0  0  0  0
  -24.0010   -7.4635   22.7459 H   0  0  0  0  0  0
  -21.0854   -8.8784   19.8938 H   0  0  0  0  0  0
  -22.3714  -10.9680   19.6159 H   0  0  0  0  0  0
  -21.2004   -7.6145   23.9725 H   0  0  0  0  0  0
  -21.1481   -6.0513   25.9081 H   0  0  0  0  0  0
  -22.0599   -2.7614   23.2835 H   0  0  0  0  0  0
  -22.4120  -11.9908   22.4802 H   0  0  0  0  0  0
  -21.1107  -13.1239   22.2591 H   0  0  0  0  0  0
  -24.6680  -15.8453   20.5381 H   0  0  0  0  0  0
  -26.2745  -15.6268   20.0631 H   0  0  0  0  0  0
  -26.7060  -32.5543   23.1189 H   0  0  0  0  0  0
  -24.9964  -33.9843   25.0439 H   0  0  0  0  0  0
  -22.6881  -31.2982   21.4077 H   0  0  0  0  0  0
  -23.3745  -35.9657   23.3344 H   0  0  0  0  0  0
  -24.3543  -36.8904   22.2046 H   0  0  0  0  0  0
  -23.7210  -37.6531   23.6630 H   0  0  0  0  0  0
  -26.0401  -31.5961   20.5934 H   0  0  0  0  0  0
  -26.8153  -30.8891   21.9825 H   0  0  0  0  0  0
  -28.0839  -29.0926   21.2084 H   0  0  0  0  0  0
  -26.0651  -25.9555   19.0458 H   0  0  0  0  0  0
  -23.9903  -27.2894   19.0281 H   0  0  0  0  0  0
  -23.7092  -30.5897   19.3998 H   0  0  0  0  0  0
  -22.7378  -29.2278   19.8797 H   0  0  0  0  0  0
  -25.1276  -36.2051   25.0830 H   0  0  0  0  0  0
  -20.9976  -28.3213   24.1466 H   0  0  0  0  0  0
  -20.5718  -26.2261   23.3624 H   0  0  0  0  0  0
  -21.6641  -26.7445   22.1203 H   0  0  0  0  0  0
  -19.6908  -25.6321   21.1223 H   0  0  0  0  0  0
  -19.6658  -27.3251   20.6817 H   0  0  0  0  0  0
  -17.4201  -26.6695   21.4037 H   0  0  0  0  0  0
  -18.0298  -26.0059   22.9029 H   0  0  0  0  0  0
  -19.7945  -30.7267   24.2254 H   0  0  0  0  0  0
  -17.5026  -31.6251   24.5197 H   0  0  0  0  0  0
  -15.5354  -30.3002   23.7632 H   0  0  0  0  0  0
  -15.8682  -28.0834   22.7042 H   0  0  0  0  0  0
  -24.5903  -30.7004   25.7794 H   0  0  0  0  0  0
  -24.8904  -32.2788   26.4964 H   0  0  0  0  0  0
  -25.8124  -30.8785   27.0195 H   0  0  0  0  0  0
  -26.2843  -29.6791   24.1117 H   0  0  0  0  0  0
  -27.4086  -29.7260   25.4496 H   0  0  0  0  0  0
  -27.8644  -30.4356   23.9186 H   0  0  0  0  0  0
  -27.2671  -33.3577   26.2110 H   0  0  0  0  0  0
  -28.3799  -32.6927   25.0258 H   0  0  0  0  0  0
  -28.0761  -31.8398   26.5315 H   0  0  0  0  0  0
  -28.2633  -38.0079   24.7512 H   0  0  0  0  0  0
  -28.1055  -36.2621   24.6325 H   0  0  0  0  0  0
  -27.2300  -37.1502   25.8870 H   0  0  0  0  0  0
  -20.9315  -29.8739   21.6970 H   0  0  0  0  0  0
  -26.0215  -38.2908   24.1406 H   0  0  0  0  0  0
  -30.8183  -19.2876   19.2777 H   0  0  0  0  0  0
  -26.9153  -21.0648   19.7665 H   0  0  0  0  0  0
  -27.7467  -17.2499   21.5347 H   0  0  0  0  0  0
  -29.8739  -28.3592   18.8524 H   0  0  0  0  0  0
  -28.5610  -27.9120   17.7696 H   0  0  0  0  0  0
  -30.1894  -27.3401   17.4602 H   0  0  0  0  0  0
  -30.9777  -26.6988   20.3205 H   0  0  0  0  0  0
  -31.2743  -25.5901   18.9859 H   0  0  0  0  0  0
  -30.4308  -25.0380   20.4335 H   0  0  0  0  0  0
  -28.6098  -21.3914   17.6021 H   0  0  0  0  0  0
  -30.2786  -21.2207   18.0034 H   0  0  0  0  0  0
  -29.8763  -16.7006   19.6945 H   0  0  0  0  0  0
  -30.1244  -17.0346   21.6892 H   0  0  0  0  0  0
  -27.7465  -25.4812   17.7076 H   0  0  0  0  0  0
  -29.3492  -24.9744   17.4002 H   0  0  0  0  0  0
  -30.2956  -23.2557   18.8148 H   0  0  0  0  0  0
  -29.0241  -15.3813   21.1868 H   0  0  0  0  0  0
  1 25  1  0  0  0
  1 30  2  0  0  0
  1 85  1  0  0  0
  2  3  1  0  0  0
  2 25  1  0  0  0
  2 88  1  0  0  0
  2 89  1  0  0  0
  3  4  1  0  0  0
  3 90  1  0  0  0
  3 91  1  0  0  0
  4  5  1  0  0  0
  4 92  1  0  0  0
  4 93  1  0  0  0
  5  6  1  0  0  0
  5 26  1  0  0  0
  5 94  1  0  0  0
  6 25  1  0  0  0
  6 95  1  0  0  0
  6 96  1  0  0  0
  7  8  2  0  0  0
  7 26  1  0  0  0
  7 29  1  0  0  0
  8  9  1  0  0  0
  8 22  1  0  0  0
  9 10  1  0  0  0
  9 27  2  0  0  0
 10 11  2  0  0  0
 10 15  1  0  0  0
 11 12  1  0  0  0
 11 97  1  0  0  0
 12 13  2  0  0  0
 12 98  1  0  0  0
 13 14  1  0  0  0
 13 31  1  0  0  0
 14 15  2  0  0  0
 14 99  1  0  0  0
 15100  1  0  0  0
 16 17  2  0  0  0
 16 21  1  0  0  0
 16 31  1  0  0  0
 17 18  1  0  0  0
 17101  1  0  0  0
 18 19  2  0  0  0
 18102  1  0  0  0
 19 20  1  0  0  0
 19 24  1  0  0  0
 20 21  2  0  0  0
 20103  1  0  0  0
 21 23  1  0  0  0
 22 28  1  0  0  0
 22 32  2  0  0  0
 26 27  1  0  0  0
 28104  1  0  0  0
 28105  1  0  0  0
 29106  1  0  0  0
 29107  1  0  0  0
 33 34  1  0  0  0
 33 66  1  0  0  0
 33 70  2  0  0  0
 34 36  1  0  0  0
 34 59  1  0  0  0
 34108  1  0  0  0
 35 44  2  0  0  0
 35 45  1  0  0  0
 35 68  1  0  0  0
 36 56  1  0  0  0
 36109  1  0  0  0
 37 39  1  0  0  0
 37 47  1  0  0  0
 37 66  1  0  0  0
 37110  1  0  0  0
 38 43  2  0  0  0
 38 46  1  0  0  0
 38 47  1  0  0  0
 39 64  1  0  0  0
 39 67  2  0  0  0
 40 52  1  0  0  0
 40 53  2  0  0  0
 40 58  1  0  0  0
 41111  1  0  0  0
 41112  1  0  0  0
 41113  1  0  0  0
 41 48  1  0  0  0
 42 43  1  0  0  0
 42 66  1  0  0  0
 42114  1  0  0  0
 42115  1  0  0  0
 43 44  1  0  0  0
 44116  1  0  0  0
 45 46  2  0  0  0
 45117  1  0  0  0
 46118  1  0  0  0
 47119  1  0  0  0
 47120  1  0  0  0
 48 56  1  0  0  0
 48 65  1  0  0  0
 48121  1  0  0  0
 49 50  1  0  0  0
 49 53  1  0  0  0
 49 64  1  0  0  0
 49122  1  0  0  0
 50 51  1  0  0  0
 50123  1  0  0  0
 50124  1  0  0  0
 51 52  1  0  0  0
 51125  1  0  0  0
 51126  1  0  0  0
 52127  1  0  0  0
 52128  1  0  0  0
 53 54  1  0  0  0
 54 55  2  0  0  0
 54129  1  0  0  0
 55 57  1  0  0  0
 55130  1  0  0  0
 56 69  2  0  0  0
 57 58  2  0  0  0
 57131  1  0  0  0
 58132  1  0  0  0
 59 60  1  0  0  0
 59 61  1  0  0  0
 59 62  1  0  0  0
 60133  1  0  0  0
 60134  1  0  0  0
 60135  1  0  0  0
 61136  1  0  0  0
 61137  1  0  0  0
 61138  1  0  0  0
 62139  1  0  0  0
 62140  1  0  0  0
 62141  1  0  0  0
 63 65  1  0  0  0
 63142  1  0  0  0
 63143  1  0  0  0
 63144  1  0  0  0
 64145  1  0  0  0
 65146  1  0  0  0
 68 83  1  0  0  0
 71 74  2  0  0  0
 71 75  1  0  0  0
 71147  1  0  0  0
 72 74  1  0  0  0
 72 76  2  0  0  0
 72148  1  0  0  0
 73 75  2  0  0  0
 73 76  1  0  0  0
 73149  1  0  0  0
 74 80  1  0  0  0
 75 81  1  0  0  0
 76 87  1  0  0  0
 77 82  1  0  0  0
 77 84  1  0  0  0
 77 86  2  0  0  0
 78150  1  0  0  0
 78151  1  0  0  0
 78152  1  0  0  0
 78 83  1  0  0  0
 79 83  1  0  0  0
 79153  1  0  0  0
 79154  1  0  0  0
 79155  1  0  0  0
 80 84  1  0  0  0
 80156  1  0  0  0
 80157  1  0  0  0
 81 85  1  0  0  0
 81158  1  0  0  0
 81159  1  0  0  0
 82 83  1  0  0  0
 82160  1  0  0  0
 82161  1  0  0  0
 84162  1  0  0  0
 85163  1  0  0  0
M  ISO  4   1 100  68 101  83 101  85 100
M  END
> <chiral flag>
0

> <version>
0

> <s_m_source_file>
/data/baiqing/PycharmProjects/Reinvent-master-3.2/result/LINK_invent/BTK/process_docking_weight1_custom_product_contain_oxygen_bond_distance_aromatic_linkinvent_7_9_3/rearranged_h_0175.sdf

> <i_m_source_file_index>
34

> <r_mmod_Potential_Energy-OPLS-2005>
83.4826126098633

> <r_mmod_Stretch_Energy-OPLS-2005>
40.8047485351562

> <r_mmod_Bend_Energy-OPLS-2005>
326.280303955078

> <r_mmod_Torsional_Energy-OPLS-2005>
229.571914672852

> <r_mmod_Improper_Torsional_Energy-OPLS-2005>
11.7540292739868

> <r_mmod_Van_der_Waal_Energy-OPLS-2005>
145.822082519531

> <r_mmod_Electrostatic_Energy-OPLS-2005>
-454.844116210938

> <r_mmod_Solvation_Energy-OPLS-2005>
-234.566848754883

> <b_mmod_Minimization_Converged-OPLS-2005>
0

> <r_mmod_RMS_Derivative-OPLS-2005>
3.24630045890808

$$$$
35
                    3D
 Structure written by MMmdl.
160168  0  0  1  0            999 V2000
  -30.6916  -14.4434   20.6000 C   0  0  0  0  0  0
  -30.4297  -12.2970   19.4099 C   0  0  0  0  0  0
  -29.4959  -12.5192   18.2018 C   0  0  0  0  0  0
  -28.0146  -12.3829   18.6101 C   0  0  0  0  0  0
  -27.6681  -13.1997   19.8840 C   0  0  2  0  0  0
  -28.7083  -12.9296   20.9934 C   0  0  0  0  0  0
  -25.2630  -13.8155   20.5689 C   0  0  0  0  0  0
  -24.1867  -13.0441   20.9191 C   0  0  0  0  0  0
  -24.6397  -11.6901   20.8735 C   0  0  0  0  0  0
  -23.9056  -10.4295   21.0404 C   0  0  0  0  0  0
  -24.3608   -9.4213   21.9183 C   0  0  0  0  0  0
  -23.6286   -8.2249   22.0755 C   0  0  0  0  0  0
  -22.4268   -8.0281   21.3551 C   0  0  0  0  0  0
  -21.9903   -9.0250   20.4654 C   0  0  0  0  0  0
  -22.7225  -10.2135   20.3060 C   0  0  0  0  0  0
  -21.6854   -6.0732   22.5278 C   0  0  0  0  0  0
  -21.4011   -6.5635   23.8208 C   0  0  0  0  0  0
  -21.3668   -5.6791   24.9175 C   0  0  0  0  0  0
  -21.6049   -4.3053   24.7229 C   0  0  0  0  0  0
  -21.8818   -3.8145   23.4350 C   0  0  0  0  0  0
  -21.9190   -4.6960   22.3406 C   0  0  0  0  0  0
  -22.7895  -13.5258   21.1848 C   0  0  0  0  0  0
  -22.1658   -4.2141   21.0985 F   0  0  0  0  0  0
  -21.5637   -3.4543   25.7746 F   0  0  0  0  0  0
  -30.0447  -13.2529   20.4594 N   0  0  0  0  0  0
  -26.3061  -12.9306   20.3400 N   0  0  0  0  0  0
  -25.9320  -11.6470   20.5756 N   0  0  0  0  0  0
  -22.0515  -12.8260   22.0393 N   0  0  0  0  0  0
  -25.4354  -15.1866   20.4033 N   0  0  0  0  0  0
  -31.7924  -14.6623   20.0799 O   0  0  0  0  0  0
  -21.6636   -6.8875   21.4239 O   0  0  0  0  0  0
  -22.3595  -14.5559   20.6674 O   0  0  0  0  0  0
  -24.6128  -31.8687   23.2108 C   0  0  0  0  0  0
  -25.9031  -32.4824   23.8393 C   0  0  1  0  0  0
  -27.2396  -27.4451   20.0793 C   0  0  0  0  0  0
  -25.5894  -33.8623   24.2325 N   0  0  0  0  0  0
  -23.3987  -30.4926   21.5524 C   0  0  2  0  0  0
  -24.8433  -28.9569   20.1179 C   0  0  0  0  0  0
  -22.7386  -29.4673   22.5011 C   0  0  0  0  0  0
  -18.0259  -28.1384   22.8493 C   0  0  0  0  0  0
  -24.1487  -36.7320   23.2634 C   0  0  0  0  0  0
  -25.9268  -30.8344   21.3640 C   0  0  0  0  0  0
  -26.0026  -29.4686   20.7126 C   0  0  0  0  0  0
  -27.1984  -28.7169   20.6961 C   0  0  0  0  0  0
  -26.0523  -26.9384   19.4984 C   0  0  0  0  0  0
  -24.8615  -27.6886   19.5142 C   0  0  0  0  0  0
  -23.6046  -29.8225   20.1679 C   0  0  0  0  0  0
  -25.4110  -36.3115   24.0332 C   0  0  1  0  0  0
  -20.5847  -28.3664   23.1328 C   0  0  2  0  0  0
  -20.6756  -26.9405   22.5419 C   0  0  0  0  0  0
  -19.5736  -26.6393   21.5213 C   0  0  0  0  0  0
  -18.1915  -26.7929   22.1627 C   0  0  0  0  0  0
  -19.1508  -28.8839   23.2910 C   0  0  0  0  0  0
  -18.9440  -30.1448   23.8919 C   0  0  0  0  0  0
  -17.6444  -30.6588   24.0573 C   0  0  0  0  0  0
  -25.9039  -34.9478   23.5129 C   0  0  0  0  0  0
  -16.5336  -29.9090   23.6327 C   0  0  0  0  0  0
  -16.7253  -28.6512   23.0346 C   0  0  0  0  0  0
  -26.4462  -31.6596   25.0719 C   0  0  0  0  0  0
  -25.3731  -31.3703   26.1470 C   0  0  0  0  0  0
  -27.0280  -30.3034   24.6098 C   0  0  0  0  0  0
  -27.6042  -32.4307   25.7481 C   0  0  0  0  0  0
  -27.5585  -37.1807   24.8454 C   0  0  0  0  0  0
  -21.4118  -29.3034   22.3740 N   0  0  0  0  0  0
  -26.4291  -37.3802   23.9408 N   0  0  0  0  0  0
  -24.6645  -31.0792   22.1008 N   0  0  0  0  0  0
  -23.4163  -28.8223   23.3055 O   0  0  0  0  0  0
  -28.4407  -26.7611   20.0717 O   0  0  0  0  0  0
  -26.5606  -34.8923   22.4697 O   0  0  0  0  0  0
  -23.5326  -32.1441   23.7510 O   0  0  0  0  0  0
  -28.8938  -18.9117   21.7534 C   0  0  0  0  0  0
  -28.9563  -17.5041   21.9195 C   0  0  0  0  0  0
  -29.7954  -19.5722   20.8936 C   0  0  0  0  0  0
  -29.9653  -16.7880   21.1973 C   0  0  0  0  0  0
  -30.7621  -18.7873   20.2501 C   0  0  0  0  0  0
  -27.9703  -16.8442   22.8503 C   0  0  0  0  0  0
  -29.2689  -23.3225   20.3980 C   0  0  0  0  0  0
  -28.8320  -21.8923   20.8323 C   0  0  0  0  0  0
  -25.8369  -16.8955   24.2933 C   0  0  0  0  0  0
  -26.8391  -17.6974   23.4445 C   0  0  0  0  0  0
  -28.1410  -24.2904   19.9952 C   0  0  0  0  0  0
  -28.5846  -25.5845   19.2652 C   0  0  0  0  0  0
  -30.8363  -17.4499   20.3949 N   0  0  0  0  0  0
  -29.8106  -20.9840   20.6605 N   0  0  0  0  0  0
  -30.0099  -15.3621   21.3125 N   0  0  0  0  0  0
  -28.0262  -15.6495   23.1557 O   0  0  0  0  0  0
  -30.4616  -23.6520   20.3662 O   0  0  0  0  0  0
  -27.7028  -21.6444   21.2646 O   0  0  0  0  0  0
  -31.6589  -19.3931   19.4352 F   0  0  0  0  0  0
  -31.4731  -12.4064   19.1083 H   0  0  0  0  0  0
  -30.3372  -11.2756   19.7826 H   0  0  0  0  0  0
  -29.7326  -11.8094   17.4085 H   0  0  0  0  0  0
  -29.6695  -13.5123   17.7837 H   0  0  0  0  0  0
  -27.8122  -11.3249   18.7812 H   0  0  0  0  0  0
  -27.3682  -12.6847   17.7848 H   0  0  0  0  0  0
  -27.7265  -14.2559   19.6190 H   0  0  0  0  0  0
  -28.6809  -11.8776   21.2802 H   0  0  0  0  0  0
  -28.4629  -13.4704   21.9055 H   0  0  0  0  0  0
  -25.2749   -9.5698   22.4758 H   0  0  0  0  0  0
  -23.9999   -7.4645   22.7472 H   0  0  0  0  0  0
  -21.0834   -8.8760   19.8961 H   0  0  0  0  0  0
  -22.3666  -10.9673   19.6175 H   0  0  0  0  0  0
  -21.1993   -7.6140   23.9714 H   0  0  0  0  0  0
  -21.1498   -6.0521   25.9077 H   0  0  0  0  0  0
  -22.0588   -2.7606   23.2853 H   0  0  0  0  0  0
  -22.4091  -11.9913   22.4798 H   0  0  0  0  0  0
  -21.1139  -13.1314   22.2572 H   0  0  0  0  0  0
  -24.6605  -15.8356   20.4834 H   0  0  0  0  0  0
  -26.2757  -15.6143   20.0370 H   0  0  0  0  0  0
  -26.7104  -32.5535   23.1158 H   0  0  0  0  0  0
  -25.0003  -33.9788   25.0440 H   0  0  0  0  0  0
  -22.6872  -31.3094   21.4139 H   0  0  0  0  0  0
  -23.3745  -35.9656   23.3296 H   0  0  0  0  0  0
  -24.3581  -36.8946   22.2051 H   0  0  0  0  0  0
  -23.7237  -37.6523   23.6651 H   0  0  0  0  0  0
  -26.0366  -31.6013   20.5961 H   0  0  0  0  0  0
  -26.8150  -30.8885   21.9816 H   0  0  0  0  0  0
  -28.0962  -29.1141   21.1491 H   0  0  0  0  0  0
  -26.0186  -25.9657   19.0320 H   0  0  0  0  0  0
  -23.9666  -27.2851   19.0604 H   0  0  0  0  0  0
  -23.7084  -30.5951   19.4052 H   0  0  0  0  0  0
  -22.7291  -29.2387   19.8772 H   0  0  0  0  0  0
  -25.1288  -36.1982   25.0824 H   0  0  0  0  0  0
  -20.9932  -28.3228   24.1451 H   0  0  0  0  0  0
  -20.5659  -26.2274   23.3604 H   0  0  0  0  0  0
  -21.6629  -26.7461   22.1210 H   0  0  0  0  0  0
  -19.6897  -25.6306   21.1236 H   0  0  0  0  0  0
  -19.6675  -27.3210   20.6750 H   0  0  0  0  0  0
  -17.4181  -26.6668   21.4036 H   0  0  0  0  0  0
  -18.0326  -26.0072   22.9028 H   0  0  0  0  0  0
  -19.7916  -30.7258   24.2296 H   0  0  0  0  0  0
  -17.4999  -31.6269   24.5171 H   0  0  0  0  0  0
  -15.5334  -30.3004   23.7642 H   0  0  0  0  0  0
  -15.8652  -28.0841   22.7044 H   0  0  0  0  0  0
  -24.5876  -30.7095   25.7787 H   0  0  0  0  0  0
  -24.8957  -32.2865   26.4951 H   0  0  0  0  0  0
  -25.8073  -30.8821   27.0204 H   0  0  0  0  0  0
  -26.2820  -29.6808   24.1145 H   0  0  0  0  0  0
  -27.4030  -29.7262   25.4558 H   0  0  0  0  0  0
  -27.8667  -30.4336   23.9257 H   0  0  0  0  0  0
  -27.2658  -33.3579   26.2115 H   0  0  0  0  0  0
  -28.3821  -32.6915   25.0293 H   0  0  0  0  0  0
  -28.0745  -31.8399   26.5353 H   0  0  0  0  0  0
  -28.2588  -38.0118   24.7534 H   0  0  0  0  0  0
  -28.1100  -36.2654   24.6243 H   0  0  0  0  0  0
  -27.2309  -37.1412   25.8857 H   0  0  0  0  0  0
  -20.9266  -29.8755   21.6967 H   0  0  0  0  0  0
  -26.0186  -38.2878   24.1428 H   0  0  0  0  0  0
  -28.1660  -19.4947   22.2929 H   0  0  0  0  0  0
  -25.0924  -17.5544   24.7394 H   0  0  0  0  0  0
  -26.3345  -16.3657   25.1067 H   0  0  0  0  0  0
  -25.3079  -16.1584   23.6876 H   0  0  0  0  0  0
  -26.3065  -18.1912   22.6315 H   0  0  0  0  0  0
  -27.2834  -18.4772   24.0630 H   0  0  0  0  0  0
  -27.5676  -24.5395   20.8884 H   0  0  0  0  0  0
  -27.4624  -23.7370   19.3462 H   0  0  0  0  0  0
  -28.0630  -25.6859   18.3126 H   0  0  0  0  0  0
  -29.6328  -25.5334   18.9710 H   0  0  0  0  0  0
  -30.6503  -21.3587   20.2332 H   0  0  0  0  0  0
  -29.2415  -14.9783   21.8476 H   0  0  0  0  0  0
  1 25  1  0  0  0
  1 30  2  0  0  0
  1 85  1  0  0  0
  2  3  1  0  0  0
  2 25  1  0  0  0
  2 90  1  0  0  0
  2 91  1  0  0  0
  3  4  1  0  0  0
  3 92  1  0  0  0
  3 93  1  0  0  0
  4  5  1  0  0  0
  4 94  1  0  0  0
  4 95  1  0  0  0
  5  6  1  0  0  0
  5 26  1  0  0  0
  5 96  1  0  0  0
  6 25  1  0  0  0
  6 97  1  0  0  0
  6 98  1  0  0  0
  7  8  2  0  0  0
  7 26  1  0  0  0
  7 29  1  0  0  0
  8  9  1  0  0  0
  8 22  1  0  0  0
  9 10  1  0  0  0
  9 27  2  0  0  0
 10 11  2  0  0  0
 10 15  1  0  0  0
 11 12  1  0  0  0
 11 99  1  0  0  0
 12 13  2  0  0  0
 12100  1  0  0  0
 13 14  1  0  0  0
 13 31  1  0  0  0
 14 15  2  0  0  0
 14101  1  0  0  0
 15102  1  0  0  0
 16 17  2  0  0  0
 16 21  1  0  0  0
 16 31  1  0  0  0
 17 18  1  0  0  0
 17103  1  0  0  0
 18 19  2  0  0  0
 18104  1  0  0  0
 19 20  1  0  0  0
 19 24  1  0  0  0
 20 21  2  0  0  0
 20105  1  0  0  0
 21 23  1  0  0  0
 22 28  1  0  0  0
 22 32  2  0  0  0
 26 27  1  0  0  0
 28106  1  0  0  0
 28107  1  0  0  0
 29108  1  0  0  0
 29109  1  0  0  0
 33 34  1  0  0  0
 33 66  1  0  0  0
 33 70  2  0  0  0
 34 36  1  0  0  0
 34 59  1  0  0  0
 34110  1  0  0  0
 35 44  2  0  0  0
 35 45  1  0  0  0
 35 68  1  0  0  0
 36 56  1  0  0  0
 36111  1  0  0  0
 37 39  1  0  0  0
 37 47  1  0  0  0
 37 66  1  0  0  0
 37112  1  0  0  0
 38 43  2  0  0  0
 38 46  1  0  0  0
 38 47  1  0  0  0
 39 64  1  0  0  0
 39 67  2  0  0  0
 40 52  1  0  0  0
 40 53  2  0  0  0
 40 58  1  0  0  0
 41113  1  0  0  0
 41114  1  0  0  0
 41115  1  0  0  0
 41 48  1  0  0  0
 42 43  1  0  0  0
 42 66  1  0  0  0
 42116  1  0  0  0
 42117  1  0  0  0
 43 44  1  0  0  0
 44118  1  0  0  0
 45 46  2  0  0  0
 45119  1  0  0  0
 46120  1  0  0  0
 47121  1  0  0  0
 47122  1  0  0  0
 48 56  1  0  0  0
 48 65  1  0  0  0
 48123  1  0  0  0
 49 50  1  0  0  0
 49 53  1  0  0  0
 49 64  1  0  0  0
 49124  1  0  0  0
 50 51  1  0  0  0
 50125  1  0  0  0
 50126  1  0  0  0
 51 52  1  0  0  0
 51127  1  0  0  0
 51128  1  0  0  0
 52129  1  0  0  0
 52130  1  0  0  0
 53 54  1  0  0  0
 54 55  2  0  0  0
 54131  1  0  0  0
 55 57  1  0  0  0
 55132  1  0  0  0
 56 69  2  0  0  0
 57 58  2  0  0  0
 57133  1  0  0  0
 58134  1  0  0  0
 59 60  1  0  0  0
 59 61  1  0  0  0
 59 62  1  0  0  0
 60135  1  0  0  0
 60136  1  0  0  0
 60137  1  0  0  0
 61138  1  0  0  0
 61139  1  0  0  0
 61140  1  0  0  0
 62141  1  0  0  0
 62142  1  0  0  0
 62143  1  0  0  0
 63 65  1  0  0  0
 63144  1  0  0  0
 63145  1  0  0  0
 63146  1  0  0  0
 64147  1  0  0  0
 65148  1  0  0  0
 68 82  1  0  0  0
 71 72  2  0  0  0
 71 73  1  0  0  0
 71149  1  0  0  0
 72 74  1  0  0  0
 72 76  1  0  0  0
 73 75  2  0  0  0
 73 84  1  0  0  0
 74 83  2  0  0  0
 74 85  1  0  0  0
 75 83  1  0  0  0
 75 89  1  0  0  0
 76 80  1  0  0  0
 76 86  2  0  0  0
 77 78  1  0  0  0
 77 81  1  0  0  0
 77 87  2  0  0  0
 78 84  1  0  0  0
 78 88  2  0  0  0
 79 80  1  0  0  0
 79150  1  0  0  0
 79151  1  0  0  0
 79152  1  0  0  0
 80153  1  0  0  0
 80154  1  0  0  0
 81 82  1  0  0  0
 81155  1  0  0  0
 81156  1  0  0  0
 82157  1  0  0  0
 82158  1  0  0  0
 84159  1  0  0  0
 85160  1  0  0  0
M  ISO  4   1 100  68 101  82 101  85 100
M  END
> <chiral flag>
0

> <version>
0

> <s_m_source_file>
/data/baiqing/PycharmProjects/Reinvent-master-3.2/result/LINK_invent/BTK/process_docking_weight1_custom_product_contain_oxygen_bond_distance_aromatic_linkinvent_7_9_3/rearranged_h_0175.sdf

> <i_m_source_file_index>
35

> <r_mmod_Potential_Energy-OPLS-2005>
-189.41227722168

> <r_mmod_Stretch_Energy-OPLS-2005>
41.9986457824707

> <r_mmod_Bend_Energy-OPLS-2005>
117.661727905273

> <r_mmod_Torsional_Energy-OPLS-2005>
228.159576416016

> <r_mmod_Improper_Torsional_Energy-OPLS-2005>
3.38158440589905

> <r_mmod_Van_der_Waal_Energy-OPLS-2005>
176.154632568359

> <r_mmod_Electrostatic_Energy-OPLS-2005>
-526.41455078125

> <r_mmod_Solvation_Energy-OPLS-2005>
-240.163696289062

> <b_mmod_Minimization_Converged-OPLS-2005>
0

> <r_mmod_RMS_Derivative-OPLS-2005>
1.20529842376709

$$$$
36
                    3D
 Structure written by MMmdl.
148156  0  0  1  0            999 V2000
  -30.6292  -14.6202   20.5045 C   0  0  0  0  0  0
  -30.4364  -12.3786   19.4524 C   0  0  0  0  0  0
  -29.5088  -12.5060   18.2232 C   0  0  0  0  0  0
  -28.0304  -12.3454   18.6319 C   0  0  0  0  0  0
  -27.6533  -13.2125   19.8622 C   0  0  2  0  0  0
  -28.6962  -13.0615   20.9929 C   0  0  0  0  0  0
  -25.2563  -13.8165   20.5673 C   0  0  0  0  0  0
  -24.1828  -13.0435   20.9188 C   0  0  0  0  0  0
  -24.6387  -11.6904   20.8729 C   0  0  0  0  0  0
  -23.9051  -10.4292   21.0404 C   0  0  0  0  0  0
  -24.3608   -9.4210   21.9180 C   0  0  0  0  0  0
  -23.6289   -8.2244   22.0751 C   0  0  0  0  0  0
  -22.4275   -8.0278   21.3540 C   0  0  0  0  0  0
  -21.9902   -9.0252   20.4643 C   0  0  0  0  0  0
  -22.7224  -10.2133   20.3052 C   0  0  0  0  0  0
  -21.6853   -6.0733   22.5280 C   0  0  0  0  0  0
  -21.4015   -6.5638   23.8212 C   0  0  0  0  0  0
  -21.3658   -5.6790   24.9176 C   0  0  0  0  0  0
  -21.6048   -4.3054   24.7227 C   0  0  0  0  0  0
  -21.8817   -3.8143   23.4347 C   0  0  0  0  0  0
  -21.9193   -4.6960   22.3405 C   0  0  0  0  0  0
  -22.7849  -13.5233   21.1852 C   0  0  0  0  0  0
  -22.1662   -4.2145   21.0983 F   0  0  0  0  0  0
  -21.5629   -3.4538   25.7737 F   0  0  0  0  0  0
  -30.0156  -13.3976   20.4329 N   0  0  0  0  0  0
  -26.2981  -12.9333   20.3292 N   0  0  0  0  0  0
  -25.9311  -11.6492   20.5730 N   0  0  0  0  0  0
  -22.0489  -12.8229   22.0408 N   0  0  0  0  0  0
  -25.4278  -15.1890   20.4091 N   0  0  0  0  0  0
  -31.7966  -14.7722   20.1284 O   0  0  0  0  0  0
  -21.6638   -6.8873   21.4241 O   0  0  0  0  0  0
  -22.3539  -14.5543   20.6698 O   0  0  0  0  0  0
  -24.6230  -31.8618   23.2040 C   0  0  0  0  0  0
  -25.9092  -32.4788   23.8366 C   0  0  1  0  0  0
  -27.2270  -27.3444   20.1220 C   0  0  0  0  0  0
  -25.5918  -33.8588   24.2293 N   0  0  0  0  0  0
  -23.4157  -30.4842   21.5462 C   0  0  2  0  0  0
  -24.8639  -28.9401   20.1138 C   0  0  0  0  0  0
  -22.7459  -29.4630   22.4954 C   0  0  0  0  0  0
  -18.0283  -28.1379   22.8490 C   0  0  0  0  0  0
  -24.1490  -36.7302   23.2639 C   0  0  0  0  0  0
  -25.9539  -30.8009   21.3711 C   0  0  0  0  0  0
  -26.0303  -29.4290   20.7168 C   0  0  0  0  0  0
  -27.2170  -28.6427   20.7103 C   0  0  0  0  0  0
  -26.0434  -26.9021   19.4917 C   0  0  0  0  0  0
  -24.8707  -27.6810   19.4926 C   0  0  0  0  0  0
  -23.6297  -29.8161   20.1621 C   0  0  0  0  0  0
  -25.4111  -36.3090   24.0333 C   0  0  1  0  0  0
  -20.5880  -28.3679   23.1295 C   0  0  2  0  0  0
  -20.6772  -26.9407   22.5412 C   0  0  0  0  0  0
  -19.5746  -26.6384   21.5214 C   0  0  0  0  0  0
  -18.1927  -26.7924   22.1630 C   0  0  0  0  0  0
  -19.1533  -28.8847   23.2888 C   0  0  0  0  0  0
  -18.9460  -30.1455   23.8896 C   0  0  0  0  0  0
  -17.6461  -30.6585   24.0563 C   0  0  0  0  0  0
  -25.9045  -34.9458   23.5112 C   0  0  0  0  0  0
  -16.5351  -29.9081   23.6330 C   0  0  0  0  0  0
  -16.7272  -28.6499   23.0349 C   0  0  0  0  0  0
  -26.4486  -31.6586   25.0725 C   0  0  0  0  0  0
  -25.3731  -31.3725   26.1463 C   0  0  0  0  0  0
  -27.0320  -30.3012   24.6158 C   0  0  0  0  0  0
  -27.6060  -32.4308   25.7484 C   0  0  0  0  0  0
  -27.5583  -37.1801   24.8462 C   0  0  0  0  0  0
  -21.4177  -29.3038   22.3695 N   0  0  0  0  0  0
  -26.4289  -37.3783   23.9414 N   0  0  0  0  0  0
  -24.6828  -31.0650   22.0978 N   0  0  0  0  0  0
  -23.4196  -28.8173   23.3024 O   0  0  0  0  0  0
  -28.3498  -26.5151   20.1406 O   0  0  0  0  0  0
  -26.5611  -34.8921   22.4676 O   0  0  0  0  0  0
  -23.5400  -32.1409   23.7380 O   0  0  0  0  0  0
  -30.9013  -19.1681   20.3050 C   0  0  0  0  0  0
  -29.5890  -19.5713   20.1694 C   0  0  0  0  0  0
  -29.9302  -17.0996   20.6299 C   0  0  0  0  0  0
  -29.1580  -24.0734   20.0470 C   0  0  0  0  0  0
  -28.1330  -25.1271   20.5956 C   0  0  0  0  0  0
  -29.2512  -22.6432   20.6939 C   0  0  0  0  0  0
  -31.0854  -17.7822   20.5609 N   0  0  0  0  0  0
  -29.8132  -15.6655   20.8387 N   0  0  0  0  0  0
  -29.9375  -24.4020   19.1462 O   0  0  0  0  0  0
  -29.7459  -21.4125   18.2973 O   0  0  0  0  0  0
  -27.5065  -21.0146   19.3874 O   0  0  0  0  0  0
  -28.5260  -18.1892   20.4634 S   0  0  0  0  0  0
  -28.9656  -21.1845   19.5284 S   0  0  0  0  0  0
  -31.4798  -12.4970   19.1543 H   0  0  0  0  0  0
  -30.3628  -11.3810   19.8880 H   0  0  0  0  0  0
  -29.7724  -11.7598   17.4722 H   0  0  0  0  0  0
  -29.6562  -13.4785   17.7501 H   0  0  0  0  0  0
  -27.8644  -11.2915   18.8589 H   0  0  0  0  0  0
  -27.3777  -12.5803   17.7898 H   0  0  0  0  0  0
  -27.6720  -14.2481   19.5227 H   0  0  0  0  0  0
  -28.7015  -12.0396   21.3752 H   0  0  0  0  0  0
  -28.4416  -13.6932   21.8454 H   0  0  0  0  0  0
  -25.2760   -9.5696   22.4744 H   0  0  0  0  0  0
  -24.0009   -7.4635   22.7467 H   0  0  0  0  0  0
  -21.0834   -8.8761   19.8950 H   0  0  0  0  0  0
  -22.3681  -10.9666   19.6154 H   0  0  0  0  0  0
  -21.2010   -7.6147   23.9713 H   0  0  0  0  0  0
  -21.1482   -6.0522   25.9076 H   0  0  0  0  0  0
  -22.0598   -2.7606   23.2845 H   0  0  0  0  0  0
  -22.4097  -11.9900   22.4819 H   0  0  0  0  0  0
  -21.1101  -13.1258   22.2596 H   0  0  0  0  0  0
  -24.6558  -15.8384   20.5135 H   0  0  0  0  0  0
  -26.2642  -15.6280   20.0473 H   0  0  0  0  0  0
  -26.7163  -32.5470   23.1123 H   0  0  0  0  0  0
  -25.0057  -33.9739   25.0432 H   0  0  0  0  0  0
  -22.7075  -31.3032   21.4030 H   0  0  0  0  0  0
  -23.3750  -35.9636   23.3297 H   0  0  0  0  0  0
  -24.3589  -36.8925   22.2056 H   0  0  0  0  0  0
  -23.7243  -37.6505   23.6661 H   0  0  0  0  0  0
  -26.0794  -31.5643   20.6020 H   0  0  0  0  0  0
  -26.8363  -30.8523   21.9973 H   0  0  0  0  0  0
  -28.1142  -29.0135   21.1860 H   0  0  0  0  0  0
  -26.0146  -25.9447   18.9917 H   0  0  0  0  0  0
  -23.9779  -27.3037   19.0128 H   0  0  0  0  0  0
  -23.7444  -30.5907   19.4029 H   0  0  0  0  0  0
  -22.7517  -29.2405   19.8635 H   0  0  0  0  0  0
  -25.1287  -36.1942   25.0824 H   0  0  0  0  0  0
  -20.9970  -28.3250   24.1418 H   0  0  0  0  0  0
  -20.5676  -26.2289   23.3606 H   0  0  0  0  0  0
  -21.6639  -26.7445   22.1206 H   0  0  0  0  0  0
  -19.6907  -25.6294   21.1241 H   0  0  0  0  0  0
  -19.6679  -27.3194   20.6742 H   0  0  0  0  0  0
  -17.4197  -26.6674   21.4031 H   0  0  0  0  0  0
  -18.0332  -26.0063   22.9023 H   0  0  0  0  0  0
  -19.7935  -30.7272   24.2259 H   0  0  0  0  0  0
  -17.5014  -31.6262   24.5167 H   0  0  0  0  0  0
  -15.5350  -30.2982   23.7651 H   0  0  0  0  0  0
  -15.8676  -28.0820   22.7055 H   0  0  0  0  0  0
  -24.5875  -30.7110   25.7792 H   0  0  0  0  0  0
  -24.8956  -32.2895   26.4927 H   0  0  0  0  0  0
  -25.8057  -30.8864   27.0218 H   0  0  0  0  0  0
  -26.2883  -29.6764   24.1199 H   0  0  0  0  0  0
  -27.4045  -29.7264   25.4648 H   0  0  0  0  0  0
  -27.8741  -30.4304   23.9355 H   0  0  0  0  0  0
  -27.2690  -33.3615   26.2062 H   0  0  0  0  0  0
  -28.3866  -32.6856   25.0303 H   0  0  0  0  0  0
  -28.0733  -31.8428   26.5395 H   0  0  0  0  0  0
  -28.2591  -38.0108   24.7524 H   0  0  0  0  0  0
  -28.1085  -36.2639   24.6260 H   0  0  0  0  0  0
  -27.2310  -37.1421   25.8868 H   0  0  0  0  0  0
  -20.9348  -29.8757   21.6910 H   0  0  0  0  0  0
  -26.0171  -38.2860   24.1409 H   0  0  0  0  0  0
  -31.7727  -19.7892   20.1524 H   0  0  0  0  0  0
  -28.1926  -25.1205   21.6839 H   0  0  0  0  0  0
  -27.1367  -24.7669   20.3470 H   0  0  0  0  0  0
  -28.5466  -22.5502   21.5153 H   0  0  0  0  0  0
  -30.2470  -22.5264   21.1108 H   0  0  0  0  0  0
  -28.8878  -15.3663   21.1002 H   0  0  0  0  0  0
  1 25  1  0  0  0
  1 30  2  0  0  0
  1 78  1  0  0  0
  2  3  1  0  0  0
  2 25  1  0  0  0
  2 84  1  0  0  0
  2 85  1  0  0  0
  3  4  1  0  0  0
  3 86  1  0  0  0
  3 87  1  0  0  0
  4  5  1  0  0  0
  4 88  1  0  0  0
  4 89  1  0  0  0
  5  6  1  0  0  0
  5 26  1  0  0  0
  5 90  1  0  0  0
  6 25  1  0  0  0
  6 91  1  0  0  0
  6 92  1  0  0  0
  7  8  2  0  0  0
  7 26  1  0  0  0
  7 29  1  0  0  0
  8  9  1  0  0  0
  8 22  1  0  0  0
  9 10  1  0  0  0
  9 27  2  0  0  0
 10 11  2  0  0  0
 10 15  1  0  0  0
 11 12  1  0  0  0
 11 93  1  0  0  0
 12 13  2  0  0  0
 12 94  1  0  0  0
 13 14  1  0  0  0
 13 31  1  0  0  0
 14 15  2  0  0  0
 14 95  1  0  0  0
 15 96  1  0  0  0
 16 17  2  0  0  0
 16 21  1  0  0  0
 16 31  1  0  0  0
 17 18  1  0  0  0
 17 97  1  0  0  0
 18 19  2  0  0  0
 18 98  1  0  0  0
 19 20  1  0  0  0
 19 24  1  0  0  0
 20 21  2  0  0  0
 20 99  1  0  0  0
 21 23  1  0  0  0
 22 28  1  0  0  0
 22 32  2  0  0  0
 26 27  1  0  0  0
 28100  1  0  0  0
 28101  1  0  0  0
 29102  1  0  0  0
 29103  1  0  0  0
 33 34  1  0  0  0
 33 66  1  0  0  0
 33 70  2  0  0  0
 34 36  1  0  0  0
 34 59  1  0  0  0
 34104  1  0  0  0
 35 44  2  0  0  0
 35 45  1  0  0  0
 35 68  1  0  0  0
 36 56  1  0  0  0
 36105  1  0  0  0
 37 39  1  0  0  0
 37 47  1  0  0  0
 37 66  1  0  0  0
 37106  1  0  0  0
 38 43  2  0  0  0
 38 46  1  0  0  0
 38 47  1  0  0  0
 39 64  1  0  0  0
 39 67  2  0  0  0
 40 52  1  0  0  0
 40 53  2  0  0  0
 40 58  1  0  0  0
 41107  1  0  0  0
 41108  1  0  0  0
 41109  1  0  0  0
 41 48  1  0  0  0
 42 43  1  0  0  0
 42 66  1  0  0  0
 42110  1  0  0  0
 42111  1  0  0  0
 43 44  1  0  0  0
 44112  1  0  0  0
 45 46  2  0  0  0
 45113  1  0  0  0
 46114  1  0  0  0
 47115  1  0  0  0
 47116  1  0  0  0
 48 56  1  0  0  0
 48 65  1  0  0  0
 48117  1  0  0  0
 49 50  1  0  0  0
 49 53  1  0  0  0
 49 64  1  0  0  0
 49118  1  0  0  0
 50 51  1  0  0  0
 50119  1  0  0  0
 50120  1  0  0  0
 51 52  1  0  0  0
 51121  1  0  0  0
 51122  1  0  0  0
 52123  1  0  0  0
 52124  1  0  0  0
 53 54  1  0  0  0
 54 55  2  0  0  0
 54125  1  0  0  0
 55 57  1  0  0  0
 55126  1  0  0  0
 56 69  2  0  0  0
 57 58  2  0  0  0
 57127  1  0  0  0
 58128  1  0  0  0
 59 60  1  0  0  0
 59 61  1  0  0  0
 59 62  1  0  0  0
 60129  1  0  0  0
 60130  1  0  0  0
 60131  1  0  0  0
 61132  1  0  0  0
 61133  1  0  0  0
 61134  1  0  0  0
 62135  1  0  0  0
 62136  1  0  0  0
 62137  1  0  0  0
 63 65  1  0  0  0
 63138  1  0  0  0
 63139  1  0  0  0
 63140  1  0  0  0
 64141  1  0  0  0
 65142  1  0  0  0
 68 75  1  0  0  0
 71 72  2  0  0  0
 71 77  1  0  0  0
 71143  1  0  0  0
 72 82  1  0  0  0
 72 83  1  0  0  0
 73 77  2  0  0  0
 73 78  1  0  0  0
 73 82  1  0  0  0
 74 75  1  0  0  0
 74 76  1  0  0  0
 74 79  2  0  0  0
 75144  1  0  0  0
 75145  1  0  0  0
 76146  1  0  0  0
 76147  1  0  0  0
 76 83  1  0  0  0
 78148  1  0  0  0
 80 83  2  0  0  0
 81 83  2  0  0  0
M  ISO  4   1 100  68 101  75 101  78 100
M  END
> <chiral flag>
0

> <version>
0

> <s_m_source_file>
/data/baiqing/PycharmProjects/Reinvent-master-3.2/result/LINK_invent/BTK/process_docking_weight1_custom_product_contain_oxygen_bond_distance_aromatic_linkinvent_7_9_3/rearranged_h_0175.sdf

> <i_m_source_file_index>
36

> <r_mmod_Potential_Energy-OPLS-2005>
-255.848663330078

> <r_mmod_Stretch_Energy-OPLS-2005>
63.2764472961426

> <r_mmod_Bend_Energy-OPLS-2005>
128.221557617188

> <r_mmod_Torsional_Energy-OPLS-2005>
228.897323608398

> <r_mmod_Improper_Torsional_Energy-OPLS-2005>
6.24878311157227

> <r_mmod_Van_der_Waal_Energy-OPLS-2005>
114.478073120117

> <r_mmod_Electrostatic_Energy-OPLS-2005>
-518.847717285156

> <r_mmod_Solvation_Energy-OPLS-2005>
-318.015380859375

> <b_mmod_Minimization_Converged-OPLS-2005>
0

> <r_mmod_RMS_Derivative-OPLS-2005>
0.985220789909363

$$$$
37
                    3D
 Structure written by MMmdl.
155163  0  0  1  0            999 V2000
  -30.6605  -14.5682   20.4753 C   0  0  0  0  0  0
  -30.4220  -12.3382   19.4575 C   0  0  0  0  0  0
  -29.5023  -12.4826   18.2250 C   0  0  0  0  0  0
  -28.0222  -12.3447   18.6319 C   0  0  0  0  0  0
  -27.6523  -13.2154   19.8630 C   0  0  2  0  0  0
  -28.6935  -13.0665   20.9963 C   0  0  0  0  0  0
  -25.2550  -13.8175   20.5675 C   0  0  0  0  0  0
  -24.1818  -13.0439   20.9182 C   0  0  0  0  0  0
  -24.6385  -11.6910   20.8738 C   0  0  0  0  0  0
  -23.9059  -10.4291   21.0401 C   0  0  0  0  0  0
  -24.3609   -9.4206   21.9178 C   0  0  0  0  0  0
  -23.6285   -8.2240   22.0748 C   0  0  0  0  0  0
  -22.4268   -8.0279   21.3542 C   0  0  0  0  0  0
  -21.9902   -9.0251   20.4643 C   0  0  0  0  0  0
  -22.7230  -10.2130   20.3052 C   0  0  0  0  0  0
  -21.6855   -6.0729   22.5274 C   0  0  0  0  0  0
  -21.4016   -6.5633   23.8207 C   0  0  0  0  0  0
  -21.3660   -5.6787   24.9168 C   0  0  0  0  0  0
  -21.6044   -4.3048   24.7223 C   0  0  0  0  0  0
  -21.8823   -3.8140   23.4345 C   0  0  0  0  0  0
  -21.9193   -4.6956   22.3399 C   0  0  0  0  0  0
  -22.7843  -13.5230   21.1850 C   0  0  0  0  0  0
  -22.1662   -4.2141   21.0979 F   0  0  0  0  0  0
  -21.5628   -3.4536   25.7736 F   0  0  0  0  0  0
  -30.0180  -13.3646   20.4354 N   0  0  0  0  0  0
  -26.2978  -12.9356   20.3315 N   0  0  0  0  0  0
  -25.9312  -11.6511   20.5759 N   0  0  0  0  0  0
  -22.0489  -12.8221   22.0409 N   0  0  0  0  0  0
  -25.4271  -15.1895   20.4082 N   0  0  0  0  0  0
  -31.8406  -14.6830   20.1298 O   0  0  0  0  0  0
  -21.6639   -6.8871   21.4236 O   0  0  0  0  0  0
  -22.3527  -14.5538   20.6704 O   0  0  0  0  0  0
  -24.6199  -31.8635   23.2059 C   0  0  0  0  0  0
  -25.9074  -32.4795   23.8366 C   0  0  1  0  0  0
  -27.2303  -27.3789   20.0978 C   0  0  0  0  0  0
  -25.5912  -33.8595   24.2298 N   0  0  0  0  0  0
  -23.4097  -30.4871   21.5472 C   0  0  2  0  0  0
  -24.8545  -28.9460   20.1113 C   0  0  0  0  0  0
  -22.7436  -29.4638   22.4963 C   0  0  0  0  0  0
  -18.0280  -28.1384   22.8485 C   0  0  0  0  0  0
  -24.1488  -36.7305   23.2637 C   0  0  0  0  0  0
  -25.9438  -30.8104   21.3675 C   0  0  0  0  0  0
  -26.0171  -29.4408   20.7136 C   0  0  0  0  0  0
  -27.2033  -28.6628   20.7070 C   0  0  0  0  0  0
  -26.0400  -26.9077   19.4966 C   0  0  0  0  0  0
  -24.8634  -27.6809   19.5007 C   0  0  0  0  0  0
  -23.6198  -29.8199   20.1615 C   0  0  0  0  0  0
  -25.4110  -36.3095   24.0332 C   0  0  1  0  0  0
  -20.5871  -28.3674   23.1301 C   0  0  2  0  0  0
  -20.6768  -26.9404   22.5413 C   0  0  0  0  0  0
  -19.5748  -26.6384   21.5210 C   0  0  0  0  0  0
  -18.1926  -26.7928   22.1621 C   0  0  0  0  0  0
  -19.1529  -28.8847   23.2889 C   0  0  0  0  0  0
  -18.9456  -30.1451   23.8901 C   0  0  0  0  0  0
  -17.6457  -30.6585   24.0565 C   0  0  0  0  0  0
  -25.9041  -34.9462   23.5114 C   0  0  0  0  0  0
  -16.5349  -29.9086   23.6328 C   0  0  0  0  0  0
  -16.7267  -28.6506   23.0342 C   0  0  0  0  0  0
  -26.4483  -31.6591   25.0715 C   0  0  0  0  0  0
  -25.3737  -31.3716   26.1457 C   0  0  0  0  0  0
  -27.0317  -30.3024   24.6124 C   0  0  0  0  0  0
  -27.6049  -32.4318   25.7484 C   0  0  0  0  0  0
  -27.5581  -37.1807   24.8463 C   0  0  0  0  0  0
  -21.4158  -29.3035   22.3705 N   0  0  0  0  0  0
  -26.4294  -37.3784   23.9406 N   0  0  0  0  0  0
  -24.6763  -31.0694   22.0979 N   0  0  0  0  0  0
  -23.4188  -28.8177   23.3020 O   0  0  0  0  0  0
  -28.3926  -26.6162   20.1447 O   0  0  0  0  0  0
  -26.5604  -34.8922   22.4677 O   0  0  0  0  0  0
  -23.5380  -32.1410   23.7427 O   0  0  0  0  0  0
  -30.0611  -16.7022   18.4913 C   0  0  0  0  0  0
  -30.0585  -17.8071   17.6352 C   0  0  0  0  0  0
  -29.8543  -19.0856   18.1608 C   0  0  0  0  0  0
  -29.6146  -19.2273   19.5462 C   0  0  0  0  0  0
  -29.8803  -16.8713   19.8803 C   0  0  0  0  0  0
  -29.4632  -20.6541   20.0882 C   0  0  0  0  0  0
  -28.4435  -24.0595   19.8720 C   0  0  0  0  0  0
  -28.5782  -25.4908   19.2421 C   0  0  0  0  0  0
  -28.8087  -22.8362   18.9401 C   0  0  2  0  0  0
  -27.9522  -22.9565   17.6443 C   0  0  0  0  0  0
  -29.6319  -18.1279   20.3829 N   0  0  0  0  0  0
  -29.8856  -15.6705   20.6877 N   0  0  0  0  0  0
  -28.5661  -21.4570   19.4686 N   0  0  0  0  0  0
  -30.1979  -21.0704   20.9885 O   0  0  0  0  0  0
  -28.0825  -23.9266   21.0477 O   0  0  0  0  0  0
  -30.2708  -17.6368   16.3069 F   0  0  0  0  0  0
  -29.9396  -20.1573   17.3351 F   0  0  0  0  0  0
  -27.9787  -21.8223   16.9444 F   0  0  0  0  0  0
  -28.4135  -23.9237   16.8518 F   0  0  0  0  0  0
  -26.6741  -23.2154   17.9295 F   0  0  0  0  0  0
  -31.4683  -12.4307   19.1608 H   0  0  0  0  0  0
  -30.3240  -11.3445   19.8969 H   0  0  0  0  0  0
  -29.7529  -11.7268   17.4794 H   0  0  0  0  0  0
  -29.6657  -13.4478   17.7449 H   0  0  0  0  0  0
  -27.8421  -11.2928   18.8564 H   0  0  0  0  0  0
  -27.3742  -12.5889   17.7892 H   0  0  0  0  0  0
  -27.6736  -14.2504   19.5222 H   0  0  0  0  0  0
  -28.6809  -12.0517   21.3964 H   0  0  0  0  0  0
  -28.4558  -13.7227   21.8350 H   0  0  0  0  0  0
  -25.2755   -9.5682   22.4750 H   0  0  0  0  0  0
  -23.9995   -7.4630   22.7466 H   0  0  0  0  0  0
  -21.0832   -8.8770   19.8948 H   0  0  0  0  0  0
  -22.3688  -10.9665   19.6160 H   0  0  0  0  0  0
  -21.2013   -7.6140   23.9708 H   0  0  0  0  0  0
  -21.1480   -6.0518   25.9071 H   0  0  0  0  0  0
  -22.0605   -2.7603   23.2851 H   0  0  0  0  0  0
  -22.4102  -11.9876   22.4791 H   0  0  0  0  0  0
  -21.1110  -13.1249   22.2622 H   0  0  0  0  0  0
  -24.6601  -15.8444   20.5141 H   0  0  0  0  0  0
  -26.2750  -15.6273   20.0721 H   0  0  0  0  0  0
  -26.7139  -32.5484   23.1117 H   0  0  0  0  0  0
  -25.0073  -33.9745   25.0451 H   0  0  0  0  0  0
  -22.7009  -31.3058   21.4070 H   0  0  0  0  0  0
  -23.3746  -35.9643   23.3306 H   0  0  0  0  0  0
  -24.3578  -36.8915   22.2049 H   0  0  0  0  0  0
  -23.7247  -37.6513   23.6650 H   0  0  0  0  0  0
  -26.0656  -31.5742   20.5982 H   0  0  0  0  0  0
  -26.8283  -30.8614   21.9905 H   0  0  0  0  0  0
  -28.0992  -29.0394   21.1805 H   0  0  0  0  0  0
  -25.9844  -25.9291   19.0437 H   0  0  0  0  0  0
  -23.9659  -27.2908   19.0404 H   0  0  0  0  0  0
  -23.7326  -30.5949   19.4024 H   0  0  0  0  0  0
  -22.7413  -29.2445   19.8637 H   0  0  0  0  0  0
  -25.1289  -36.1955   25.0825 H   0  0  0  0  0  0
  -20.9965  -28.3246   24.1421 H   0  0  0  0  0  0
  -20.5671  -26.2279   23.3603 H   0  0  0  0  0  0
  -21.6640  -26.7441   22.1207 H   0  0  0  0  0  0
  -19.6908  -25.6297   21.1234 H   0  0  0  0  0  0
  -19.6688  -27.3198   20.6744 H   0  0  0  0  0  0
  -17.4193  -26.6671   21.4026 H   0  0  0  0  0  0
  -18.0330  -26.0072   22.9021 H   0  0  0  0  0  0
  -19.7933  -30.7268   24.2270 H   0  0  0  0  0  0
  -17.5012  -31.6265   24.5169 H   0  0  0  0  0  0
  -15.5350  -30.2988   23.7653 H   0  0  0  0  0  0
  -15.8666  -28.0832   22.7045 H   0  0  0  0  0  0
  -24.5904  -30.7068   25.7798 H   0  0  0  0  0  0
  -24.8938  -32.2879   26.4903 H   0  0  0  0  0  0
  -25.8082  -30.8885   27.0218 H   0  0  0  0  0  0
  -26.2873  -29.6781   24.1167 H   0  0  0  0  0  0
  -27.4060  -29.7267   25.4600 H   0  0  0  0  0  0
  -27.8721  -30.4327   23.9301 H   0  0  0  0  0  0
  -27.2660  -33.3608   26.2082 H   0  0  0  0  0  0
  -28.3853  -32.6895   25.0311 H   0  0  0  0  0  0
  -28.0724  -31.8429   26.5387 H   0  0  0  0  0  0
  -28.2603  -38.0100   24.7506 H   0  0  0  0  0  0
  -28.1073  -36.2632   24.6296 H   0  0  0  0  0  0
  -27.2296  -37.1466   25.8866 H   0  0  0  0  0  0
  -20.9326  -29.8761   21.6924 H   0  0  0  0  0  0
  -26.0181  -38.2862   24.1401 H   0  0  0  0  0  0
  -30.2224  -15.7306   18.0505 H   0  0  0  0  0  0
  -27.9305  -25.5920   18.3745 H   0  0  0  0  0  0
  -29.5933  -25.5676   18.8521 H   0  0  0  0  0  0
  -29.8626  -22.9086   18.6674 H   0  0  0  0  0  0
  -29.0446  -15.5131   21.2193 H   0  0  0  0  0  0
  -27.9368  -20.9432   18.8671 H   0  0  0  0  0  0
  1 25  1  0  0  0
  1 30  2  0  0  0
  1 82  1  0  0  0
  2  3  1  0  0  0
  2 25  1  0  0  0
  2 91  1  0  0  0
  2 92  1  0  0  0
  3  4  1  0  0  0
  3 93  1  0  0  0
  3 94  1  0  0  0
  4  5  1  0  0  0
  4 95  1  0  0  0
  4 96  1  0  0  0
  5  6  1  0  0  0
  5 26  1  0  0  0
  5 97  1  0  0  0
  6 25  1  0  0  0
  6 98  1  0  0  0
  6 99  1  0  0  0
  7  8  2  0  0  0
  7 26  1  0  0  0
  7 29  1  0  0  0
  8  9  1  0  0  0
  8 22  1  0  0  0
  9 10  1  0  0  0
  9 27  2  0  0  0
 10 11  2  0  0  0
 10 15  1  0  0  0
 11 12  1  0  0  0
 11100  1  0  0  0
 12 13  2  0  0  0
 12101  1  0  0  0
 13 14  1  0  0  0
 13 31  1  0  0  0
 14 15  2  0  0  0
 14102  1  0  0  0
 15103  1  0  0  0
 16 17  2  0  0  0
 16 21  1  0  0  0
 16 31  1  0  0  0
 17 18  1  0  0  0
 17104  1  0  0  0
 18 19  2  0  0  0
 18105  1  0  0  0
 19 20  1  0  0  0
 19 24  1  0  0  0
 20 21  2  0  0  0
 20106  1  0  0  0
 21 23  1  0  0  0
 22 28  1  0  0  0
 22 32  2  0  0  0
 26 27  1  0  0  0
 28107  1  0  0  0
 28108  1  0  0  0
 29109  1  0  0  0
 29110  1  0  0  0
 33 34  1  0  0  0
 33 66  1  0  0  0
 33 70  2  0  0  0
 34 36  1  0  0  0
 34 59  1  0  0  0
 34111  1  0  0  0
 35 44  2  0  0  0
 35 45  1  0  0  0
 35 68  1  0  0  0
 36 56  1  0  0  0
 36112  1  0  0  0
 37 39  1  0  0  0
 37 47  1  0  0  0
 37 66  1  0  0  0
 37113  1  0  0  0
 38 43  2  0  0  0
 38 46  1  0  0  0
 38 47  1  0  0  0
 39 64  1  0  0  0
 39 67  2  0  0  0
 40 52  1  0  0  0
 40 53  2  0  0  0
 40 58  1  0  0  0
 41114  1  0  0  0
 41115  1  0  0  0
 41116  1  0  0  0
 41 48  1  0  0  0
 42 43  1  0  0  0
 42 66  1  0  0  0
 42117  1  0  0  0
 42118  1  0  0  0
 43 44  1  0  0  0
 44119  1  0  0  0
 45 46  2  0  0  0
 45120  1  0  0  0
 46121  1  0  0  0
 47122  1  0  0  0
 47123  1  0  0  0
 48 56  1  0  0  0
 48 65  1  0  0  0
 48124  1  0  0  0
 49 50  1  0  0  0
 49 53  1  0  0  0
 49 64  1  0  0  0
 49125  1  0  0  0
 50 51  1  0  0  0
 50126  1  0  0  0
 50127  1  0  0  0
 51 52  1  0  0  0
 51128  1  0  0  0
 51129  1  0  0  0
 52130  1  0  0  0
 52131  1  0  0  0
 53 54  1  0  0  0
 54 55  2  0  0  0
 54132  1  0  0  0
 55 57  1  0  0  0
 55133  1  0  0  0
 56 69  2  0  0  0
 57 58  2  0  0  0
 57134  1  0  0  0
 58135  1  0  0  0
 59 60  1  0  0  0
 59 61  1  0  0  0
 59 62  1  0  0  0
 60136  1  0  0  0
 60137  1  0  0  0
 60138  1  0  0  0
 61139  1  0  0  0
 61140  1  0  0  0
 61141  1  0  0  0
 62142  1  0  0  0
 62143  1  0  0  0
 62144  1  0  0  0
 63 65  1  0  0  0
 63145  1  0  0  0
 63146  1  0  0  0
 63147  1  0  0  0
 64148  1  0  0  0
 65149  1  0  0  0
 68 78  1  0  0  0
 71 72  2  0  0  0
 71 75  1  0  0  0
 71150  1  0  0  0
 72 73  1  0  0  0
 72 86  1  0  0  0
 73 74  2  0  0  0
 73 87  1  0  0  0
 74 76  1  0  0  0
 74 81  1  0  0  0
 75 81  2  0  0  0
 75 82  1  0  0  0
 76 83  1  0  0  0
 76 84  2  0  0  0
 77 78  1  0  0  0
 77 79  1  0  0  0
 77 85  2  0  0  0
 78151  1  0  0  0
 78152  1  0  0  0
 79 80  1  0  0  0
 79 83  1  0  0  0
 79153  1  0  0  0
 80 88  1  0  0  0
 80 89  1  0  0  0
 80 90  1  0  0  0
 82154  1  0  0  0
 83155  1  0  0  0
M  ISO  4   1 100  68 101  78 101  82 100
M  END
> <chiral flag>
0

> <version>
0

> <s_m_source_file>
/data/baiqing/PycharmProjects/Reinvent-master-3.2/result/LINK_invent/BTK/process_docking_weight1_custom_product_contain_oxygen_bond_distance_aromatic_linkinvent_7_9_3/rearranged_h_0175.sdf

> <i_m_source_file_index>
37

> <r_mmod_Potential_Energy-OPLS-2005>
-195.48323059082

> <r_mmod_Stretch_Energy-OPLS-2005>
61.6733093261719

> <r_mmod_Bend_Energy-OPLS-2005>
124.022262573242

> <r_mmod_Torsional_Energy-OPLS-2005>
277.018402099609

> <r_mmod_Improper_Torsional_Energy-OPLS-2005>
10.9219579696655

> <r_mmod_Van_der_Waal_Energy-OPLS-2005>
156.382110595703

> <r_mmod_Electrostatic_Energy-OPLS-2005>
-591.004760742188

> <r_mmod_Solvation_Energy-OPLS-2005>
-263.876159667969

> <b_mmod_Minimization_Converged-OPLS-2005>
0

> <r_mmod_RMS_Derivative-OPLS-2005>
0.596920073032379

$$$$
38
                    3D
 Structure written by MMmdl.
154162  0  0  1  0            999 V2000
  -30.5979  -14.7919   20.4168 C   0  0  0  0  0  0
  -30.4325  -12.4752   19.4900 C   0  0  0  0  0  0
  -29.5208  -12.5037   18.2436 C   0  0  0  0  0  0
  -28.0460  -12.3255   18.6533 C   0  0  0  0  0  0
  -27.6378  -13.2370   19.8416 C   0  0  2  0  0  0
  -28.6784  -13.2103   20.9824 C   0  0  0  0  0  0
  -25.2500  -13.8190   20.5680 C   0  0  0  0  0  0
  -24.1796  -13.0436   20.9197 C   0  0  0  0  0  0
  -24.6382  -11.6916   20.8729 C   0  0  0  0  0  0
  -23.9046  -10.4296   21.0391 C   0  0  0  0  0  0
  -24.3602   -9.4228   21.9178 C   0  0  0  0  0  0
  -23.6296   -8.2253   22.0747 C   0  0  0  0  0  0
  -22.4282   -8.0278   21.3535 C   0  0  0  0  0  0
  -21.9908   -9.0245   20.4636 C   0  0  0  0  0  0
  -22.7216  -10.2132   20.3046 C   0  0  0  0  0  0
  -21.6859   -6.0741   22.5274 C   0  0  0  0  0  0
  -21.4012   -6.5640   23.8208 C   0  0  0  0  0  0
  -21.3666   -5.6789   24.9169 C   0  0  0  0  0  0
  -21.6054   -4.3052   24.7217 C   0  0  0  0  0  0
  -21.8820   -3.8142   23.4334 C   0  0  0  0  0  0
  -21.9195   -4.6965   22.3393 C   0  0  0  0  0  0
  -22.7831  -13.5229   21.1881 C   0  0  0  0  0  0
  -22.1666   -4.2150   21.0973 F   0  0  0  0  0  0
  -21.5639   -3.4536   25.7729 F   0  0  0  0  0  0
  -29.9768  -13.5588   20.3941 N   0  0  0  0  0  0
  -26.2917  -12.9403   20.3218 N   0  0  0  0  0  0
  -25.9311  -11.6538   20.5708 N   0  0  0  0  0  0
  -22.0460  -12.8217   22.0423 N   0  0  0  0  0  0
  -25.4188  -15.1926   20.4137 N   0  0  0  0  0  0
  -31.8118  -14.8313   20.1950 O   0  0  0  0  0  0
  -21.6642   -6.8883   21.4238 O   0  0  0  0  0  0
  -22.3529  -14.5553   20.6749 O   0  0  0  0  0  0
  -24.6350  -31.8520   23.1971 C   0  0  0  0  0  0
  -25.9154  -32.4748   23.8324 C   0  0  1  0  0  0
  -27.2136  -27.2386   20.1324 C   0  0  0  0  0  0
  -25.5939  -33.8550   24.2253 N   0  0  0  0  0  0
  -23.4329  -30.4764   21.5403 C   0  0  2  0  0  0
  -24.8775  -28.9134   20.1146 C   0  0  0  0  0  0
  -22.7512  -29.4596   22.4882 C   0  0  0  0  0  0
  -18.0297  -28.1390   22.8488 C   0  0  0  0  0  0
  -24.1476  -36.7296   23.2638 C   0  0  0  0  0  0
  -25.9787  -30.7570   21.3775 C   0  0  0  0  0  0
  -26.0513  -29.3737   20.7290 C   0  0  0  0  0  0
  -27.2240  -28.5477   20.7308 C   0  0  0  0  0  0
  -26.0230  -26.8554   19.4823 C   0  0  0  0  0  0
  -24.8671  -27.6612   19.4828 C   0  0  0  0  0  0
  -23.6537  -29.8100   20.1573 C   0  0  0  0  0  0
  -25.4099  -36.3072   24.0332 C   0  0  1  0  0  0
  -20.5904  -28.3707   23.1252 C   0  0  2  0  0  0
  -20.6771  -26.9415   22.5404 C   0  0  0  0  0  0
  -19.5747  -26.6382   21.5206 C   0  0  0  0  0  0
  -18.1933  -26.7931   22.1622 C   0  0  0  0  0  0
  -19.1555  -28.8858   23.2872 C   0  0  0  0  0  0
  -18.9474  -30.1454   23.8902 C   0  0  0  0  0  0
  -17.6477  -30.6587   24.0566 C   0  0  0  0  0  0
  -25.9046  -34.9442   23.5094 C   0  0  0  0  0  0
  -16.5365  -29.9099   23.6321 C   0  0  0  0  0  0
  -16.7286  -28.6511   23.0354 C   0  0  0  0  0  0
  -26.4511  -31.6579   25.0720 C   0  0  0  0  0  0
  -25.3756  -31.3739   26.1465 C   0  0  0  0  0  0
  -27.0334  -30.2995   24.6179 C   0  0  0  0  0  0
  -27.6060  -32.4318   25.7504 C   0  0  0  0  0  0
  -27.5570  -37.1791   24.8457 C   0  0  0  0  0  0
  -21.4213  -29.3067   22.3641 N   0  0  0  0  0  0
  -26.4266  -37.3779   23.9424 N   0  0  0  0  0  0
  -24.7023  -31.0466   22.0960 N   0  0  0  0  0  0
  -23.4204  -28.8123   23.2974 O   0  0  0  0  0  0
  -28.2918  -26.3226   20.0835 O   0  0  0  0  0  0
  -26.5611  -34.8923   22.4659 O   0  0  0  0  0  0
  -23.5498  -32.1339   23.7266 O   0  0  0  0  0  0
  -31.1712  -18.9311   18.5804 C   0  0  0  0  0  0
  -30.9199  -17.6150   19.0197 C   0  0  0  0  0  0
  -30.5046  -20.0311   19.1481 C   0  0  0  0  0  0
  -30.0359  -17.3715   20.1059 C   0  0  0  0  0  0
  -29.5599  -19.8014   20.1645 C   0  0  0  0  0  0
  -30.5439  -22.4589   21.5029 C   0  0  0  0  0  0
  -28.6689  -23.6490   20.0817 C   0  0  0  0  0  0
  -29.0911  -22.3514   20.9954 C   0  0  1  0  0  0
  -28.2665  -25.0828   20.7795 C   0  0  0  0  0  0
  -29.3472  -18.4908   20.6181 N   0  0  0  0  0  0
  -29.8172  -15.9492   20.5351 N   0  0  0  0  0  0
  -28.7346  -20.9062   20.6181 N   0  0  0  0  0  0
  -31.4956  -16.6037   18.3270 F   0  0  0  0  0  0
  -30.7151  -21.2740   18.6471 F   0  0  0  0  0  0
  -29.0732  -25.2225   21.8572 F   0  0  0  0  0  0
  -27.0260  -24.8531   21.2788 F   0  0  0  0  0  0
  -31.4760  -12.5957   19.1945 H   0  0  0  0  0  0
  -30.3750  -11.5086   19.9924 H   0  0  0  0  0  0
  -29.8133  -11.7191   17.5445 H   0  0  0  0  0  0
  -29.6506  -13.4491   17.7151 H   0  0  0  0  0  0
  -27.9116  -11.2802   18.9318 H   0  0  0  0  0  0
  -27.3914  -12.5006   17.7981 H   0  0  0  0  0  0
  -27.6202  -14.2517   19.4432 H   0  0  0  0  0  0
  -28.7196  -12.2308   21.4607 H   0  0  0  0  0  0
  -28.4039  -13.9201   21.7647 H   0  0  0  0  0  0
  -25.2738   -9.5734   22.4760 H   0  0  0  0  0  0
  -24.0019   -7.4653   22.7470 H   0  0  0  0  0  0
  -21.0840   -8.8741   19.8950 H   0  0  0  0  0  0
  -22.3645  -10.9669   19.6162 H   0  0  0  0  0  0
  -21.1990   -7.6148   23.9709 H   0  0  0  0  0  0
  -21.1499   -6.0517   25.9076 H   0  0  0  0  0  0
  -22.0596   -2.7607   23.2812 H   0  0  0  0  0  0
  -22.4047  -11.9846   22.4778 H   0  0  0  0  0  0
  -21.1086  -13.1273   22.2631 H   0  0  0  0  0  0
  -24.6472  -15.8419   20.5237 H   0  0  0  0  0  0
  -26.2614  -15.6396   20.0766 H   0  0  0  0  0  0
  -26.7221  -32.5381   23.1064 H   0  0  0  0  0  0
  -25.0088  -33.9667   25.0403 H   0  0  0  0  0  0
  -22.7343  -31.3023   21.3938 H   0  0  0  0  0  0
  -23.3738  -35.9625   23.3278 H   0  0  0  0  0  0
  -24.3584  -36.8944   22.2058 H   0  0  0  0  0  0
  -23.7217  -37.6489   23.6676 H   0  0  0  0  0  0
  -26.1079  -31.5065   20.5958 H   0  0  0  0  0  0
  -26.8624  -30.8188   22.0016 H   0  0  0  0  0  0
  -28.1248  -28.8945   21.2165 H   0  0  0  0  0  0
  -25.9786  -25.8970   18.9856 H   0  0  0  0  0  0
  -23.9708  -27.3032   18.9955 H   0  0  0  0  0  0
  -23.7935  -30.5874   19.4051 H   0  0  0  0  0  0
  -22.7680  -29.2547   19.8432 H   0  0  0  0  0  0
  -25.1277  -36.1910   25.0823 H   0  0  0  0  0  0
  -21.0013  -28.3278   24.1365 H   0  0  0  0  0  0
  -20.5631  -26.2320   23.3618 H   0  0  0  0  0  0
  -21.6638  -26.7402   22.1214 H   0  0  0  0  0  0
  -19.6897  -25.6294   21.1231 H   0  0  0  0  0  0
  -19.6676  -27.3192   20.6739 H   0  0  0  0  0  0
  -17.4192  -26.6685   21.4032 H   0  0  0  0  0  0
  -18.0338  -26.0074   22.9022 H   0  0  0  0  0  0
  -19.7955  -30.7267   24.2263 H   0  0  0  0  0  0
  -17.5039  -31.6264   24.5183 H   0  0  0  0  0  0
  -15.5369  -30.3014   23.7628 H   0  0  0  0  0  0
  -15.8688  -28.0837   22.7062 H   0  0  0  0  0  0
  -24.5929  -30.7073   25.7834 H   0  0  0  0  0  0
  -24.8950  -32.2907   26.4882 H   0  0  0  0  0  0
  -25.8106  -30.8947   27.0243 H   0  0  0  0  0  0
  -26.2887  -29.6762   24.1208 H   0  0  0  0  0  0
  -27.4032  -29.7245   25.4674 H   0  0  0  0  0  0
  -27.8778  -30.4284   23.9405 H   0  0  0  0  0  0
  -27.2662  -33.3633   26.2043 H   0  0  0  0  0  0
  -28.3903  -32.6835   25.0359 H   0  0  0  0  0  0
  -28.0681  -31.8454   26.5452 H   0  0  0  0  0  0
  -28.2566  -38.0109   24.7537 H   0  0  0  0  0  0
  -28.1086  -36.2642   24.6236 H   0  0  0  0  0  0
  -27.2308  -37.1399   25.8864 H   0  0  0  0  0  0
  -20.9385  -29.8856   21.6913 H   0  0  0  0  0  0
  -26.0144  -38.2845   24.1462 H   0  0  0  0  0  0
  -31.8481  -19.0920   17.7554 H   0  0  0  0  0  0
  -30.7126  -23.3960   22.0330 H   0  0  0  0  0  0
  -31.2681  -22.4270   20.6899 H   0  0  0  0  0  0
  -30.7834  -21.6554   22.1999 H   0  0  0  0  0  0
  -27.8312  -23.3554   19.4487 H   0  0  0  0  0  0
  -29.4836  -23.8330   19.3825 H   0  0  0  0  0  0
  -28.4809  -22.4832   21.8908 H   0  0  0  0  0  0
  -28.8864  -15.7717   20.8717 H   0  0  0  0  0  0
  -27.9252  -20.5780   21.1323 H   0  0  0  0  0  0
  1 25  1  0  0  0
  1 30  2  0  0  0
  1 81  1  0  0  0
  2  3  1  0  0  0
  2 25  1  0  0  0
  2 87  1  0  0  0
  2 88  1  0  0  0
  3  4  1  0  0  0
  3 89  1  0  0  0
  3 90  1  0  0  0
  4  5  1  0  0  0
  4 91  1  0  0  0
  4 92  1  0  0  0
  5  6  1  0  0  0
  5 26  1  0  0  0
  5 93  1  0  0  0
  6 25  1  0  0  0
  6 94  1  0  0  0
  6 95  1  0  0  0
  7  8  2  0  0  0
  7 26  1  0  0  0
  7 29  1  0  0  0
  8  9  1  0  0  0
  8 22  1  0  0  0
  9 10  1  0  0  0
  9 27  2  0  0  0
 10 11  2  0  0  0
 10 15  1  0  0  0
 11 12  1  0  0  0
 11 96  1  0  0  0
 12 13  2  0  0  0
 12 97  1  0  0  0
 13 14  1  0  0  0
 13 31  1  0  0  0
 14 15  2  0  0  0
 14 98  1  0  0  0
 15 99  1  0  0  0
 16 17  2  0  0  0
 16 21  1  0  0  0
 16 31  1  0  0  0
 17 18  1  0  0  0
 17100  1  0  0  0
 18 19  2  0  0  0
 18101  1  0  0  0
 19 20  1  0  0  0
 19 24  1  0  0  0
 20 21  2  0  0  0
 20102  1  0  0  0
 21 23  1  0  0  0
 22 28  1  0  0  0
 22 32  2  0  0  0
 26 27  1  0  0  0
 28103  1  0  0  0
 28104  1  0  0  0
 29105  1  0  0  0
 29106  1  0  0  0
 33 34  1  0  0  0
 33 66  1  0  0  0
 33 70  2  0  0  0
 34 36  1  0  0  0
 34 59  1  0  0  0
 34107  1  0  0  0
 35 44  2  0  0  0
 35 45  1  0  0  0
 35 68  1  0  0  0
 36 56  1  0  0  0
 36108  1  0  0  0
 37 39  1  0  0  0
 37 47  1  0  0  0
 37 66  1  0  0  0
 37109  1  0  0  0
 38 43  2  0  0  0
 38 46  1  0  0  0
 38 47  1  0  0  0
 39 64  1  0  0  0
 39 67  2  0  0  0
 40 52  1  0  0  0
 40 53  2  0  0  0
 40 58  1  0  0  0
 41110  1  0  0  0
 41111  1  0  0  0
 41112  1  0  0  0
 41 48  1  0  0  0
 42 43  1  0  0  0
 42 66  1  0  0  0
 42113  1  0  0  0
 42114  1  0  0  0
 43 44  1  0  0  0
 44115  1  0  0  0
 45 46  2  0  0  0
 45116  1  0  0  0
 46117  1  0  0  0
 47118  1  0  0  0
 47119  1  0  0  0
 48 56  1  0  0  0
 48 65  1  0  0  0
 48120  1  0  0  0
 49 50  1  0  0  0
 49 53  1  0  0  0
 49 64  1  0  0  0
 49121  1  0  0  0
 50 51  1  0  0  0
 50122  1  0  0  0
 50123  1  0  0  0
 51 52  1  0  0  0
 51124  1  0  0  0
 51125  1  0  0  0
 52126  1  0  0  0
 52127  1  0  0  0
 53 54  1  0  0  0
 54 55  2  0  0  0
 54128  1  0  0  0
 55 57  1  0  0  0
 55129  1  0  0  0
 56 69  2  0  0  0
 57 58  2  0  0  0
 57130  1  0  0  0
 58131  1  0  0  0
 59 60  1  0  0  0
 59 61  1  0  0  0
 59 62  1  0  0  0
 60132  1  0  0  0
 60133  1  0  0  0
 60134  1  0  0  0
 61135  1  0  0  0
 61136  1  0  0  0
 61137  1  0  0  0
 62138  1  0  0  0
 62139  1  0  0  0
 62140  1  0  0  0
 63 65  1  0  0  0
 63141  1  0  0  0
 63142  1  0  0  0
 63143  1  0  0  0
 64144  1  0  0  0
 65145  1  0  0  0
 68 79  1  0  0  0
 71 72  2  0  0  0
 71 73  1  0  0  0
 71146  1  0  0  0
 72 74  1  0  0  0
 72 83  1  0  0  0
 73 75  2  0  0  0
 73 84  1  0  0  0
 74 80  2  0  0  0
 74 81  1  0  0  0
 75 80  1  0  0  0
 75 82  1  0  0  0
 76147  1  0  0  0
 76148  1  0  0  0
 76149  1  0  0  0
 76 78  1  0  0  0
 77 78  1  0  0  0
 77 79  1  0  0  0
 77150  1  0  0  0
 77151  1  0  0  0
 78 82  1  0  0  0
 78152  1  0  0  0
 79 85  1  0  0  0
 79 86  1  0  0  0
 81153  1  0  0  0
 82154  1  0  0  0
M  ISO  4   1 100  68 101  79 101  81 100
M  END
> <chiral flag>
0

> <version>
0

> <s_m_source_file>
/data/baiqing/PycharmProjects/Reinvent-master-3.2/result/LINK_invent/BTK/process_docking_weight1_custom_product_contain_oxygen_bond_distance_aromatic_linkinvent_7_9_3/rearranged_h_0175.sdf

> <i_m_source_file_index>
38

> <r_mmod_Potential_Energy-OPLS-2005>
191.339126586914

> <r_mmod_Stretch_Energy-OPLS-2005>
146.353866577148

> <r_mmod_Bend_Energy-OPLS-2005>
205.105453491211

> <r_mmod_Torsional_Energy-OPLS-2005>
254.62190246582

> <r_mmod_Improper_Torsional_Energy-OPLS-2005>
6.64671182632446

> <r_mmod_Van_der_Waal_Energy-OPLS-2005>
143.415573120117

> <r_mmod_Electrostatic_Energy-OPLS-2005>
-451.260314941406

> <r_mmod_Solvation_Energy-OPLS-2005>
-217.985549926758

> <b_mmod_Minimization_Converged-OPLS-2005>
0

> <r_mmod_RMS_Derivative-OPLS-2005>
2.02291321754456

$$$$
39
                    3D
 Structure written by MMmdl.
166175  0  0  1  0            999 V2000
  -30.6732  -14.6049   20.4248 C   0  0  0  0  0  0
  -30.4223  -12.3611   19.4484 C   0  0  0  0  0  0
  -29.4992  -12.4760   18.2173 C   0  0  0  0  0  0
  -28.0185  -12.3478   18.6254 C   0  0  0  0  0  0
  -27.6470  -13.2272   19.8476 C   0  0  2  0  0  0
  -28.6965  -13.1175   20.9761 C   0  0  0  0  0  0
  -25.2532  -13.8216   20.5687 C   0  0  0  0  0  0
  -24.1820  -13.0461   20.9201 C   0  0  0  0  0  0
  -24.6411  -11.6936   20.8747 C   0  0  0  0  0  0
  -23.9080  -10.4310   21.0389 C   0  0  0  0  0  0
  -24.3632   -9.4222   21.9165 C   0  0  0  0  0  0
  -23.6312   -8.2266   22.0749 C   0  0  0  0  0  0
  -22.4292   -8.0277   21.3540 C   0  0  0  0  0  0
  -21.9923   -9.0247   20.4633 C   0  0  0  0  0  0
  -22.7255  -10.2132   20.3034 C   0  0  0  0  0  0
  -21.6874   -6.0720   22.5263 C   0  0  0  0  0  0
  -21.4033   -6.5637   23.8191 C   0  0  0  0  0  0
  -21.3688   -5.6785   24.9161 C   0  0  0  0  0  0
  -21.6054   -4.3046   24.7207 C   0  0  0  0  0  0
  -21.8825   -3.8133   23.4341 C   0  0  0  0  0  0
  -21.9199   -4.6947   22.3390 C   0  0  0  0  0  0
  -22.7824  -13.5201   21.1848 C   0  0  0  0  0  0
  -22.1652   -4.2128   21.0975 F   0  0  0  0  0  0
  -21.5640   -3.4541   25.7729 F   0  0  0  0  0  0
  -30.0158  -13.4091   20.4020 N   0  0  0  0  0  0
  -26.2967  -12.9422   20.3275 N   0  0  0  0  0  0
  -25.9330  -11.6564   20.5743 N   0  0  0  0  0  0
  -22.0491  -12.8211   22.0442 N   0  0  0  0  0  0
  -25.4211  -15.1940   20.4104 N   0  0  0  0  0  0
  -31.8744  -14.6758   20.1473 O   0  0  0  0  0  0
  -21.6680   -6.8863   21.4215 O   0  0  0  0  0  0
  -22.3481  -14.5481   20.6642 O   0  0  0  0  0  0
  -24.6225  -31.8569   23.2098 C   0  0  0  0  0  0
  -25.9081  -32.4778   23.8393 C   0  0  1  0  0  0
  -27.2339  -27.3551   20.0891 C   0  0  0  0  0  0
  -25.5922  -33.8586   24.2306 N   0  0  0  0  0  0
  -23.4143  -30.4867   21.5508 C   0  0  2  0  0  0
  -24.8594  -28.9508   20.1178 C   0  0  0  0  0  0
  -22.7418  -29.4615   22.4938 C   0  0  0  0  0  0
  -18.0273  -28.1399   22.8484 C   0  0  0  0  0  0
  -24.1496  -36.7299   23.2642 C   0  0  0  0  0  0
  -25.9504  -30.8091   21.3656 C   0  0  0  0  0  0
  -26.0283  -29.4360   20.7111 C   0  0  0  0  0  0
  -27.2130  -28.6472   20.6912 C   0  0  0  0  0  0
  -26.0185  -26.8948   19.5223 C   0  0  0  0  0  0
  -24.8524  -27.6814   19.5249 C   0  0  0  0  0  0
  -23.6262  -29.8286   20.1640 C   0  0  0  0  0  0
  -25.4117  -36.3055   24.0320 C   0  0  1  0  0  0
  -20.5871  -28.3675   23.1325 C   0  0  2  0  0  0
  -20.6748  -26.9397   22.5434 C   0  0  0  0  0  0
  -19.5747  -26.6387   21.5209 C   0  0  0  0  0  0
  -18.1923  -26.7960   22.1604 C   0  0  0  0  0  0
  -19.1522  -28.8846   23.2927 C   0  0  0  0  0  0
  -18.9433  -30.1449   23.8939 C   0  0  0  0  0  0
  -17.6432  -30.6591   24.0573 C   0  0  0  0  0  0
  -25.9051  -34.9435   23.5103 C   0  0  0  0  0  0
  -16.5325  -29.9091   23.6317 C   0  0  0  0  0  0
  -16.7260  -28.6519   23.0321 C   0  0  0  0  0  0
  -26.4526  -31.6565   25.0712 C   0  0  0  0  0  0
  -25.3824  -31.3623   26.1467 C   0  0  0  0  0  0
  -27.0290  -30.2987   24.6061 C   0  0  0  0  0  0
  -27.6073  -32.4296   25.7504 C   0  0  0  0  0  0
  -27.5578  -37.1798   24.8456 C   0  0  0  0  0  0
  -21.4132  -29.3050   22.3709 N   0  0  0  0  0  0
  -26.4272  -37.3762   23.9422 N   0  0  0  0  0  0
  -24.6831  -31.0612   22.1033 N   0  0  0  0  0  0
  -23.4156  -28.8117   23.2976 O   0  0  0  0  0  0
  -28.3985  -26.5758   20.1230 O   0  0  0  0  0  0
  -26.5606  -34.8887   22.4665 O   0  0  0  0  0  0
  -23.5397  -32.1348   23.7451 O   0  0  0  0  0  0
  -30.5429  -16.8518   18.4415 C   0  0  0  0  0  0
  -30.7555  -17.9908   17.6538 C   0  0  0  0  0  0
  -30.5274  -19.2560   18.1999 C   0  0  0  0  0  0
  -30.0437  -19.3483   19.5220 C   0  0  0  0  0  0
  -30.1067  -16.9727   19.7816 C   0  0  0  0  0  0
  -29.6889  -22.5375   21.9445 C   0  0  0  0  0  0
  -29.5667  -21.0390   21.5229 C   0  0  0  0  0  0
  -28.5037  -21.4243   19.2874 C   0  0  0  0  0  0
  -28.8019  -23.6421   21.2594 C   0  0  0  0  0  0
  -28.6684  -22.8936   18.8074 C   0  0  0  0  0  0
  -29.7160  -20.7952   20.0102 C   0  0  2  0  0  0
  -29.1493  -24.0268   19.7852 C   0  0  1  0  0  0
  -31.3518  -25.0277   20.2711 C   0  0  0  0  0  0
  -28.5662  -25.4176   19.2420 C   0  0  0  0  0  0
  -29.8034  -18.2240   20.2837 N   0  0  0  0  0  0
  -29.9138  -15.7382   20.5209 N   0  0  0  0  0  0
  -30.5751  -24.0314   19.6032 O   0  0  0  0  0  0
  -31.1651  -17.8638   16.3662 F   0  0  0  0  0  0
  -30.7310  -20.3649   17.4450 F   0  0  0  0  0  0
  -31.4653  -12.4597   19.1358 H   0  0  0  0  0  0
  -30.3349  -11.3758   19.9082 H   0  0  0  0  0  0
  -29.7495  -11.7019   17.4882 H   0  0  0  0  0  0
  -29.6632  -13.4321   17.7176 H   0  0  0  0  0  0
  -27.8303  -11.2982   18.8518 H   0  0  0  0  0  0
  -27.3769  -12.5951   17.7793 H   0  0  0  0  0  0
  -27.6505  -14.2573   19.4898 H   0  0  0  0  0  0
  -28.6945  -12.1168   21.4080 H   0  0  0  0  0  0
  -28.4651  -13.8083   21.7887 H   0  0  0  0  0  0
  -25.2767   -9.5734   22.4737 H   0  0  0  0  0  0
  -24.0032   -7.4676   22.7473 H   0  0  0  0  0  0
  -21.0858   -8.8750   19.8938 H   0  0  0  0  0  0
  -22.3684  -10.9661   19.6148 H   0  0  0  0  0  0
  -21.2035   -7.6133   23.9688 H   0  0  0  0  0  0
  -21.1504   -6.0522   25.9069 H   0  0  0  0  0  0
  -22.0579   -2.7586   23.2850 H   0  0  0  0  0  0
  -22.4129  -11.9956   22.4945 H   0  0  0  0  0  0
  -21.1061  -13.1170   22.2541 H   0  0  0  0  0  0
  -24.6631  -15.8516   20.5585 H   0  0  0  0  0  0
  -26.2564  -15.6363   20.0524 H   0  0  0  0  0  0
  -26.7121  -32.5469   23.1127 H   0  0  0  0  0  0
  -25.0022  -33.9775   25.0408 H   0  0  0  0  0  0
  -22.7120  -31.3100   21.4140 H   0  0  0  0  0  0
  -23.3725  -35.9660   23.3262 H   0  0  0  0  0  0
  -24.3570  -36.8965   22.2064 H   0  0  0  0  0  0
  -23.7305  -37.6512   23.6693 H   0  0  0  0  0  0
  -26.0473  -31.5749   20.5961 H   0  0  0  0  0  0
  -26.8432  -30.8782   21.9734 H   0  0  0  0  0  0
  -28.1158  -29.0194   21.1536 H   0  0  0  0  0  0
  -25.8892  -25.9108   19.1045 H   0  0  0  0  0  0
  -23.9433  -27.2930   19.0894 H   0  0  0  0  0  0
  -23.7560  -30.6103   19.4148 H   0  0  0  0  0  0
  -22.7448  -29.2627   19.8532 H   0  0  0  0  0  0
  -25.1301  -36.1869   25.0807 H   0  0  0  0  0  0
  -20.9987  -28.3231   24.1440 H   0  0  0  0  0  0
  -20.5603  -26.2261   23.3606 H   0  0  0  0  0  0
  -21.6622  -26.7399   22.1259 H   0  0  0  0  0  0
  -19.6884  -25.6286   21.1257 H   0  0  0  0  0  0
  -19.6733  -27.3171   20.6727 H   0  0  0  0  0  0
  -17.4195  -26.6718   21.4003 H   0  0  0  0  0  0
  -18.0320  -26.0094   22.8990 H   0  0  0  0  0  0
  -19.7890  -30.7279   24.2319 H   0  0  0  0  0  0
  -17.4967  -31.6276   24.5159 H   0  0  0  0  0  0
  -15.5330  -30.3004   23.7617 H   0  0  0  0  0  0
  -15.8659  -28.0865   22.6991 H   0  0  0  0  0  0
  -24.6019  -30.6951   25.7806 H   0  0  0  0  0  0
  -24.9005  -32.2738   26.4996 H   0  0  0  0  0  0
  -25.8241  -30.8745   27.0164 H   0  0  0  0  0  0
  -26.2748  -29.6793   24.1184 H   0  0  0  0  0  0
  -27.4087  -29.7209   25.4502 H   0  0  0  0  0  0
  -27.8605  -30.4251   23.9124 H   0  0  0  0  0  0
  -27.2629  -33.3533   26.2175 H   0  0  0  0  0  0
  -28.3861  -32.6977   25.0349 H   0  0  0  0  0  0
  -28.0762  -31.8372   26.5373 H   0  0  0  0  0  0
  -28.2549  -38.0131   24.7480 H   0  0  0  0  0  0
  -28.1104  -36.2655   24.6257 H   0  0  0  0  0  0
  -27.2288  -37.1421   25.8853 H   0  0  0  0  0  0
  -20.9237  -29.8775   21.6967 H   0  0  0  0  0  0
  -26.0113  -38.2799   24.1493 H   0  0  0  0  0  0
  -30.7217  -15.8904   17.9853 H   0  0  0  0  0  0
  -30.7403  -22.8130   21.8788 H   0  0  0  0  0  0
  -29.4745  -22.5799   23.0140 H   0  0  0  0  0  0
  -28.6243  -20.6191   21.8760 H   0  0  0  0  0  0
  -30.3483  -20.4841   22.0455 H   0  0  0  0  0  0
  -28.2897  -20.8387   18.3932 H   0  0  0  0  0  0
  -27.5998  -21.3207   19.8899 H   0  0  0  0  0  0
  -28.8938  -24.5450   21.8650 H   0  0  0  0  0  0
  -27.7473  -23.3784   21.3383 H   0  0  0  0  0  0
  -27.6895  -23.1434   18.3995 H   0  0  0  0  0  0
  -29.3290  -22.8881   17.9418 H   0  0  0  0  0  0
  -30.5984  -21.3656   19.7177 H   0  0  0  0  0  0
  -31.3827  -24.8725   21.3496 H   0  0  0  0  0  0
  -31.0146  -26.0446   20.0720 H   0  0  0  0  0  0
  -32.3802  -24.9661   19.9097 H   0  0  0  0  0  0
  -27.6758  -25.2083   18.6677 H   0  0  0  0  0  0
  -29.2364  -25.7589   18.4502 H   0  0  0  0  0  0
  -29.0040  -15.6315   20.9376 H   0  0  0  0  0  0
  1 25  1  0  0  0
  1 30  2  0  0  0
  1 86  1  0  0  0
  2  3  1  0  0  0
  2 25  1  0  0  0
  2 90  1  0  0  0
  2 91  1  0  0  0
  3  4  1  0  0  0
  3 92  1  0  0  0
  3 93  1  0  0  0
  4  5  1  0  0  0
  4 94  1  0  0  0
  4 95  1  0  0  0
  5  6  1  0  0  0
  5 26  1  0  0  0
  5 96  1  0  0  0
  6 25  1  0  0  0
  6 97  1  0  0  0
  6 98  1  0  0  0
  7  8  2  0  0  0
  7 26  1  0  0  0
  7 29  1  0  0  0
  8  9  1  0  0  0
  8 22  1  0  0  0
  9 10  1  0  0  0
  9 27  2  0  0  0
 10 11  2  0  0  0
 10 15  1  0  0  0
 11 12  1  0  0  0
 11 99  1  0  0  0
 12 13  2  0  0  0
 12100  1  0  0  0
 13 14  1  0  0  0
 13 31  1  0  0  0
 14 15  2  0  0  0
 14101  1  0  0  0
 15102  1  0  0  0
 16 17  2  0  0  0
 16 21  1  0  0  0
 16 31  1  0  0  0
 17 18  1  0  0  0
 17103  1  0  0  0
 18 19  2  0  0  0
 18104  1  0  0  0
 19 20  1  0  0  0
 19 24  1  0  0  0
 20 21  2  0  0  0
 20105  1  0  0  0
 21 23  1  0  0  0
 22 28  1  0  0  0
 22 32  2  0  0  0
 26 27  1  0  0  0
 28106  1  0  0  0
 28107  1  0  0  0
 29108  1  0  0  0
 29109  1  0  0  0
 33 34  1  0  0  0
 33 66  1  0  0  0
 33 70  2  0  0  0
 34 36  1  0  0  0
 34 59  1  0  0  0
 34110  1  0  0  0
 35 44  2  0  0  0
 35 45  1  0  0  0
 35 68  1  0  0  0
 36 56  1  0  0  0
 36111  1  0  0  0
 37 39  1  0  0  0
 37 47  1  0  0  0
 37 66  1  0  0  0
 37112  1  0  0  0
 38 43  2  0  0  0
 38 46  1  0  0  0
 38 47  1  0  0  0
 39 64  1  0  0  0
 39 67  2  0  0  0
 40 52  1  0  0  0
 40 53  2  0  0  0
 40 58  1  0  0  0
 41113  1  0  0  0
 41114  1  0  0  0
 41115  1  0  0  0
 41 48  1  0  0  0
 42 43  1  0  0  0
 42 66  1  0  0  0
 42116  1  0  0  0
 42117  1  0  0  0
 43 44  1  0  0  0
 44118  1  0  0  0
 45 46  2  0  0  0
 45119  1  0  0  0
 46120  1  0  0  0
 47121  1  0  0  0
 47122  1  0  0  0
 48 56  1  0  0  0
 48 65  1  0  0  0
 48123  1  0  0  0
 49 50  1  0  0  0
 49 53  1  0  0  0
 49 64  1  0  0  0
 49124  1  0  0  0
 50 51  1  0  0  0
 50125  1  0  0  0
 50126  1  0  0  0
 51 52  1  0  0  0
 51127  1  0  0  0
 51128  1  0  0  0
 52129  1  0  0  0
 52130  1  0  0  0
 53 54  1  0  0  0
 54 55  2  0  0  0
 54131  1  0  0  0
 55 57  1  0  0  0
 55132  1  0  0  0
 56 69  2  0  0  0
 57 58  2  0  0  0
 57133  1  0  0  0
 58134  1  0  0  0
 59 60  1  0  0  0
 59 61  1  0  0  0
 59 62  1  0  0  0
 60135  1  0  0  0
 60136  1  0  0  0
 60137  1  0  0  0
 61138  1  0  0  0
 61139  1  0  0  0
 61140  1  0  0  0
 62141  1  0  0  0
 62142  1  0  0  0
 62143  1  0  0  0
 63 65  1  0  0  0
 63144  1  0  0  0
 63145  1  0  0  0
 63146  1  0  0  0
 64147  1  0  0  0
 65148  1  0  0  0
 68 84  1  0  0  0
 71 72  2  0  0  0
 71 75  1  0  0  0
 71149  1  0  0  0
 72 73  1  0  0  0
 72 88  1  0  0  0
 73 74  2  0  0  0
 73 89  1  0  0  0
 74 85  1  0  0  0
 74 81  1  0  0  0
 75 85  2  0  0  0
 75 86  1  0  0  0
 76 77  1  0  0  0
 76 79  1  0  0  0
 76150  1  0  0  0
 76151  1  0  0  0
 77 81  1  0  0  0
 77152  1  0  0  0
 77153  1  0  0  0
 78 80  1  0  0  0
 78 81  1  0  0  0
 78154  1  0  0  0
 78155  1  0  0  0
 79 82  1  0  0  0
 79156  1  0  0  0
 79157  1  0  0  0
 80 82  1  0  0  0
 80158  1  0  0  0
 80159  1  0  0  0
 81160  1  0  0  0
 82 84  1  0  0  0
 82 87  1  0  0  0
 83 87  1  0  0  0
 83161  1  0  0  0
 83162  1  0  0  0
 83163  1  0  0  0
 84164  1  0  0  0
 84165  1  0  0  0
 86166  1  0  0  0
M  ISO  4   1 100  68 101  84 101  86 100
M  END
> <chiral flag>
0

> <version>
0

> <s_m_source_file>
/data/baiqing/PycharmProjects/Reinvent-master-3.2/result/LINK_invent/BTK/process_docking_weight1_custom_product_contain_oxygen_bond_distance_aromatic_linkinvent_7_9_3/rearranged_h_0175.sdf

> <i_m_source_file_index>
39

> <r_mmod_Potential_Energy-OPLS-2005>
56.6577796936035

> <r_mmod_Stretch_Energy-OPLS-2005>
71.3046264648438

> <r_mmod_Bend_Energy-OPLS-2005>
169.251617431641

> <r_mmod_Torsional_Energy-OPLS-2005>
289.04150390625

> <r_mmod_Improper_Torsional_Energy-OPLS-2005>
6.99301099777222

> <r_mmod_Van_der_Waal_Energy-OPLS-2005>
163.577133178711

> <r_mmod_Electrostatic_Energy-OPLS-2005>
-475.552185058594

> <r_mmod_Solvation_Energy-OPLS-2005>
-208.000991821289

> <b_mmod_Minimization_Converged-OPLS-2005>
0

> <r_mmod_RMS_Derivative-OPLS-2005>
4.15968990325928

$$$$
40
                    3D
 Structure written by MMmdl.
158166  0  0  1  0            999 V2000
  -30.6781  -14.4788   20.5669 C   0  0  0  0  0  0
  -30.4264  -12.3062   19.4292 C   0  0  0  0  0  0
  -29.5065  -12.5266   18.2100 C   0  0  0  0  0  0
  -28.0231  -12.3916   18.6092 C   0  0  0  0  0  0
  -27.6650  -13.2076   19.8814 C   0  0  2  0  0  0
  -28.7038  -12.9704   21.0008 C   0  0  0  0  0  0
  -25.2601  -13.8150   20.5675 C   0  0  0  0  0  0
  -24.1855  -13.0416   20.9143 C   0  0  0  0  0  0
  -24.6418  -11.6883   20.8707 C   0  0  0  0  0  0
  -23.9080  -10.4277   21.0396 C   0  0  0  0  0  0
  -24.3632   -9.4196   21.9178 C   0  0  0  0  0  0
  -23.6296   -8.2244   22.0757 C   0  0  0  0  0  0
  -22.4266   -8.0296   21.3559 C   0  0  0  0  0  0
  -21.9906   -9.0265   20.4648 C   0  0  0  0  0  0
  -22.7249  -10.2136   20.3047 C   0  0  0  0  0  0
  -21.6856   -6.0729   22.5284 C   0  0  0  0  0  0
  -21.4026   -6.5637   23.8213 C   0  0  0  0  0  0
  -21.3661   -5.6777   24.9173 C   0  0  0  0  0  0
  -21.6040   -4.3046   24.7224 C   0  0  0  0  0  0
  -21.8823   -3.8138   23.4343 C   0  0  0  0  0  0
  -21.9198   -4.6950   22.3396 C   0  0  0  0  0  0
  -22.7881  -13.5222   21.1814 C   0  0  0  0  0  0
  -22.1658   -4.2141   21.0972 F   0  0  0  0  0  0
  -21.5620   -3.4529   25.7732 F   0  0  0  0  0  0
  -30.0385  -13.2829   20.4578 N   0  0  0  0  0  0
  -26.3044  -12.9317   20.3360 N   0  0  0  0  0  0
  -25.9346  -11.6473   20.5742 N   0  0  0  0  0  0
  -22.0531  -12.8243   22.0393 N   0  0  0  0  0  0
  -25.4292  -15.1887   20.4162 N   0  0  0  0  0  0
  -31.7899  -14.6968   20.0749 O   0  0  0  0  0  0
  -21.6634   -6.8888   21.4250 O   0  0  0  0  0  0
  -22.3562  -14.5520   20.6672 O   0  0  0  0  0  0
  -24.6139  -31.8673   23.2085 C   0  0  0  0  0  0
  -25.9038  -32.4813   23.8387 C   0  0  1  0  0  0
  -27.2435  -27.4279   20.1069 C   0  0  0  0  0  0
  -25.5901  -33.8611   24.2319 N   0  0  0  0  0  0
  -23.4053  -30.4886   21.5453 C   0  0  2  0  0  0
  -24.8582  -28.9471   20.1231 C   0  0  0  0  0  0
  -22.7410  -29.4646   22.4939 C   0  0  0  0  0  0
  -18.0284  -28.1368   22.8481 C   0  0  0  0  0  0
  -24.1479  -36.7297   23.2632 C   0  0  0  0  0  0
  -25.9351  -30.8288   21.3668 C   0  0  0  0  0  0
  -26.0167  -29.4578   20.7245 C   0  0  0  0  0  0
  -27.2148  -28.7038   20.7180 C   0  0  0  0  0  0
  -26.0709  -26.9284   19.5075 C   0  0  0  0  0  0
  -24.8782  -27.6782   19.5172 C   0  0  0  0  0  0
  -23.6213  -29.8174   20.1621 C   0  0  0  0  0  0
  -25.4093  -36.3085   24.0330 C   0  0  1  0  0  0
  -20.5871  -28.3657   23.1295 C   0  0  2  0  0  0
  -20.6766  -26.9386   22.5414 C   0  0  0  0  0  0
  -19.5753  -26.6374   21.5195 C   0  0  0  0  0  0
  -18.1930  -26.7917   22.1605 C   0  0  0  0  0  0
  -19.1532  -28.8827   23.2896 C   0  0  0  0  0  0
  -18.9468  -30.1418   23.8937 C   0  0  0  0  0  0
  -17.6471  -30.6562   24.0571 C   0  0  0  0  0  0
  -25.9031  -34.9461   23.5115 C   0  0  0  0  0  0
  -16.5363  -29.9080   23.6304 C   0  0  0  0  0  0
  -16.7274  -28.6490   23.0339 C   0  0  0  0  0  0
  -26.4475  -31.6594   25.0713 C   0  0  0  0  0  0
  -25.3764  -31.3729   26.1482 C   0  0  0  0  0  0
  -27.0275  -30.3021   24.6083 C   0  0  0  0  0  0
  -27.6042  -32.4324   25.7486 C   0  0  0  0  0  0
  -27.5577  -37.1782   24.8442 C   0  0  0  0  0  0
  -21.4135  -29.3021   22.3679 N   0  0  0  0  0  0
  -26.4261  -37.3784   23.9426 N   0  0  0  0  0  0
  -24.6686  -31.0770   22.0987 N   0  0  0  0  0  0
  -23.4175  -28.8193   23.2992 O   0  0  0  0  0  0
  -28.4075  -26.7011   19.9918 O   0  0  0  0  0  0
  -26.5593  -34.8921   22.4678 O   0  0  0  0  0  0
  -23.5328  -32.1431   23.7471 O   0  0  0  0  0  0
  -29.3998  -18.6353   19.2807 C   0  0  0  0  0  0
  -29.8955  -19.6146   20.1775 C   0  0  0  0  0  0
  -30.0059  -16.8261   20.8187 C   0  0  0  0  0  0
  -29.4443  -17.2611   19.5976 C   0  0  0  0  0  0
  -30.4632  -19.1701   21.4006 C   0  0  0  0  0  0
  -30.5129  -17.7914   21.7180 C   0  0  0  0  0  0
  -29.8911  -21.0724   19.7711 C   0  0  0  0  0  0
  -30.9325  -23.7741   21.7492 C   0  0  0  0  0  0
  -28.6496  -24.3238   20.6463 C   0  0  0  0  0  0
  -32.1558  -24.6144   21.4024 C   0  0  0  0  0  0
  -28.7386  -25.8159   21.0711 C   0  0  0  0  0  0
  -29.9415  -23.4426   20.6190 C   0  0  2  0  0  0
  -29.9764  -15.4462   21.1786 N   0  0  0  0  0  0
  -29.6467  -21.9931   20.7170 N   0  0  0  0  0  0
  -30.0974  -21.3840   18.5958 O   0  0  0  0  0  0
  -30.7873  -23.3722   22.9069 O   0  0  0  0  0  0
  -27.5489  -23.8704   20.3082 O   0  0  0  0  0  0
  -28.9260  -16.3588   18.7274 F   0  0  0  0  0  0
  -30.9777  -20.0615   22.2851 F   0  0  0  0  0  0
  -31.0444  -17.3950   22.8997 F   0  0  0  0  0  0
  -31.4759  -12.4023   19.1414 H   0  0  0  0  0  0
  -30.3153  -11.2912   19.8142 H   0  0  0  0  0  0
  -29.7490  -11.8169   17.4184 H   0  0  0  0  0  0
  -29.6848  -13.5221   17.7943 H   0  0  0  0  0  0
  -27.8210  -11.3322   18.7760 H   0  0  0  0  0  0
  -27.3851  -12.6945   17.7785 H   0  0  0  0  0  0
  -27.7104  -14.2596   19.6043 H   0  0  0  0  0  0
  -28.6758  -11.9291   21.3222 H   0  0  0  0  0  0
  -28.4606  -13.5497   21.8934 H   0  0  0  0  0  0
  -25.2800   -9.5635   22.4738 H   0  0  0  0  0  0
  -23.9991   -7.4617   22.7473 H   0  0  0  0  0  0
  -21.0831   -8.8799   19.8950 H   0  0  0  0  0  0
  -22.3742  -10.9671   19.6136 H   0  0  0  0  0  0
  -21.2035   -7.6143   23.9720 H   0  0  0  0  0  0
  -21.1467   -6.0510   25.9075 H   0  0  0  0  0  0
  -22.0604   -2.7593   23.2860 H   0  0  0  0  0  0
  -22.4155  -11.9909   22.4784 H   0  0  0  0  0  0
  -21.1157  -13.1297   22.2605 H   0  0  0  0  0  0
  -24.6534  -15.8373   20.5038 H   0  0  0  0  0  0
  -26.2912  -15.6359   20.1325 H   0  0  0  0  0  0
  -26.7117  -32.5540   23.1166 H   0  0  0  0  0  0
  -25.0045  -33.9770   25.0460 H   0  0  0  0  0  0
  -22.6938  -31.3039   21.4003 H   0  0  0  0  0  0
  -23.3740  -35.9629   23.3264 H   0  0  0  0  0  0
  -24.3584  -36.8944   22.2054 H   0  0  0  0  0  0
  -23.7239  -37.6488   23.6683 H   0  0  0  0  0  0
  -26.0487  -31.5888   20.5925 H   0  0  0  0  0  0
  -26.8218  -30.8872   21.9859 H   0  0  0  0  0  0
  -28.1157  -29.1013   21.1653 H   0  0  0  0  0  0
  -26.0863  -25.9624   19.0225 H   0  0  0  0  0  0
  -23.9888  -27.2773   19.0513 H   0  0  0  0  0  0
  -23.7404  -30.5904   19.4019 H   0  0  0  0  0  0
  -22.7455  -29.2405   19.8596 H   0  0  0  0  0  0
  -25.1267  -36.1917   25.0817 H   0  0  0  0  0  0
  -20.9984  -28.3243   24.1409 H   0  0  0  0  0  0
  -20.5610  -26.2272   23.3607 H   0  0  0  0  0  0
  -21.6649  -26.7382   22.1255 H   0  0  0  0  0  0
  -19.6908  -25.6289   21.1206 H   0  0  0  0  0  0
  -19.6692  -27.3187   20.6730 H   0  0  0  0  0  0
  -17.4193  -26.6655   21.4018 H   0  0  0  0  0  0
  -18.0338  -26.0056   22.8996 H   0  0  0  0  0  0
  -19.7947  -30.7208   24.2349 H   0  0  0  0  0  0
  -17.5031  -31.6241   24.5171 H   0  0  0  0  0  0
  -15.5368  -30.3001   23.7593 H   0  0  0  0  0  0
  -15.8675  -28.0805   22.7058 H   0  0  0  0  0  0
  -24.5910  -30.7089   25.7858 H   0  0  0  0  0  0
  -24.9001  -32.2902   26.4952 H   0  0  0  0  0  0
  -25.8141  -30.8900   27.0227 H   0  0  0  0  0  0
  -26.2789  -29.6815   24.1141 H   0  0  0  0  0  0
  -27.4026  -29.7227   25.4530 H   0  0  0  0  0  0
  -27.8647  -30.4305   23.9219 H   0  0  0  0  0  0
  -27.2630  -33.3597   26.2103 H   0  0  0  0  0  0
  -28.3846  -32.6935   25.0328 H   0  0  0  0  0  0
  -28.0723  -31.8441   26.5389 H   0  0  0  0  0  0
  -28.2545  -38.0130   24.7549 H   0  0  0  0  0  0
  -28.1122  -36.2664   24.6166 H   0  0  0  0  0  0
  -27.2318  -37.1307   25.8850 H   0  0  0  0  0  0
  -20.9278  -29.8759   21.6925 H   0  0  0  0  0  0
  -26.0126  -38.2829   24.1524 H   0  0  0  0  0  0
  -28.9759  -18.9359   18.3331 H   0  0  0  0  0  0
  -31.9383  -25.2985   20.5825 H   0  0  0  0  0  0
  -32.9834  -23.9693   21.1066 H   0  0  0  0  0  0
  -32.4710  -25.2005   22.2665 H   0  0  0  0  0  0
  -29.7427  -26.0701   21.4062 H   0  0  0  0  0  0
  -28.0791  -25.9841   21.9238 H   0  0  0  0  0  0
  -30.4408  -23.6462   19.6704 H   0  0  0  0  0  0
  -29.1283  -15.1376   21.6267 H   0  0  0  0  0  0
  -29.4612  -21.6567   21.6518 H   0  0  0  0  0  0
  1 25  1  0  0  0
  1 30  2  0  0  0
  1 83  1  0  0  0
  2  3  1  0  0  0
  2 25  1  0  0  0
  2 91  1  0  0  0
  2 92  1  0  0  0
  3  4  1  0  0  0
  3 93  1  0  0  0
  3 94  1  0  0  0
  4  5  1  0  0  0
  4 95  1  0  0  0
  4 96  1  0  0  0
  5  6  1  0  0  0
  5 26  1  0  0  0
  5 97  1  0  0  0
  6 25  1  0  0  0
  6 98  1  0  0  0
  6 99  1  0  0  0
  7  8  2  0  0  0
  7 26  1  0  0  0
  7 29  1  0  0  0
  8  9  1  0  0  0
  8 22  1  0  0  0
  9 10  1  0  0  0
  9 27  2  0  0  0
 10 11  2  0  0  0
 10 15  1  0  0  0
 11 12  1  0  0  0
 11100  1  0  0  0
 12 13  2  0  0  0
 12101  1  0  0  0
 13 14  1  0  0  0
 13 31  1  0  0  0
 14 15  2  0  0  0
 14102  1  0  0  0
 15103  1  0  0  0
 16 17  2  0  0  0
 16 21  1  0  0  0
 16 31  1  0  0  0
 17 18  1  0  0  0
 17104  1  0  0  0
 18 19  2  0  0  0
 18105  1  0  0  0
 19 20  1  0  0  0
 19 24  1  0  0  0
 20 21  2  0  0  0
 20106  1  0  0  0
 21 23  1  0  0  0
 22 28  1  0  0  0
 22 32  2  0  0  0
 26 27  1  0  0  0
 28107  1  0  0  0
 28108  1  0  0  0
 29109  1  0  0  0
 29110  1  0  0  0
 33 34  1  0  0  0
 33 66  1  0  0  0
 33 70  2  0  0  0
 34 36  1  0  0  0
 34 59  1  0  0  0
 34111  1  0  0  0
 35 44  2  0  0  0
 35 45  1  0  0  0
 35 68  1  0  0  0
 36 56  1  0  0  0
 36112  1  0  0  0
 37 39  1  0  0  0
 37 47  1  0  0  0
 37 66  1  0  0  0
 37113  1  0  0  0
 38 43  2  0  0  0
 38 46  1  0  0  0
 38 47  1  0  0  0
 39 64  1  0  0  0
 39 67  2  0  0  0
 40 52  1  0  0  0
 40 53  2  0  0  0
 40 58  1  0  0  0
 41114  1  0  0  0
 41115  1  0  0  0
 41116  1  0  0  0
 41 48  1  0  0  0
 42 43  1  0  0  0
 42 66  1  0  0  0
 42117  1  0  0  0
 42118  1  0  0  0
 43 44  1  0  0  0
 44119  1  0  0  0
 45 46  2  0  0  0
 45120  1  0  0  0
 46121  1  0  0  0
 47122  1  0  0  0
 47123  1  0  0  0
 48 56  1  0  0  0
 48 65  1  0  0  0
 48124  1  0  0  0
 49 50  1  0  0  0
 49 53  1  0  0  0
 49 64  1  0  0  0
 49125  1  0  0  0
 50 51  1  0  0  0
 50126  1  0  0  0
 50127  1  0  0  0
 51 52  1  0  0  0
 51128  1  0  0  0
 51129  1  0  0  0
 52130  1  0  0  0
 52131  1  0  0  0
 53 54  1  0  0  0
 54 55  2  0  0  0
 54132  1  0  0  0
 55 57  1  0  0  0
 55133  1  0  0  0
 56 69  2  0  0  0
 57 58  2  0  0  0
 57134  1  0  0  0
 58135  1  0  0  0
 59 60  1  0  0  0
 59 61  1  0  0  0
 59 62  1  0  0  0
 60136  1  0  0  0
 60137  1  0  0  0
 60138  1  0  0  0
 61139  1  0  0  0
 61140  1  0  0  0
 61141  1  0  0  0
 62142  1  0  0  0
 62143  1  0  0  0
 62144  1  0  0  0
 63 65  1  0  0  0
 63145  1  0  0  0
 63146  1  0  0  0
 63147  1  0  0  0
 64148  1  0  0  0
 65149  1  0  0  0
 68 81  1  0  0  0
 71 72  2  0  0  0
 71 74  1  0  0  0
 71150  1  0  0  0
 72 75  1  0  0  0
 72 77  1  0  0  0
 73 74  2  0  0  0
 73 76  1  0  0  0
 73 83  1  0  0  0
 74 88  1  0  0  0
 75 76  2  0  0  0
 75 89  1  0  0  0
 76 90  1  0  0  0
 77 84  1  0  0  0
 77 85  2  0  0  0
 78 80  1  0  0  0
 78 82  1  0  0  0
 78 86  2  0  0  0
 79 81  1  0  0  0
 79 82  1  0  0  0
 79 87  2  0  0  0
 80151  1  0  0  0
 80152  1  0  0  0
 80153  1  0  0  0
 81154  1  0  0  0
 81155  1  0  0  0
 82 84  1  0  0  0
 82156  1  0  0  0
 83157  1  0  0  0
 84158  1  0  0  0
M  ISO  4   1 100  68 101  81 101  83 100
M  END
> <chiral flag>
0

> <version>
0

> <s_m_source_file>
/data/baiqing/PycharmProjects/Reinvent-master-3.2/result/LINK_invent/BTK/process_docking_weight1_custom_product_contain_oxygen_bond_distance_aromatic_linkinvent_7_9_3/rearranged_h_0175.sdf

> <i_m_source_file_index>
40

> <r_mmod_Potential_Energy-OPLS-2005>
-290.679718017578

> <r_mmod_Stretch_Energy-OPLS-2005>
40.8989028930664

> <r_mmod_Bend_Energy-OPLS-2005>
94.4921264648438

> <r_mmod_Torsional_Energy-OPLS-2005>
265.519958496094

> <r_mmod_Improper_Torsional_Energy-OPLS-2005>
5.5726432800293

> <r_mmod_Van_der_Waal_Energy-OPLS-2005>
144.266662597656

> <r_mmod_Electrostatic_Energy-OPLS-2005>
-607.480529785156

> <r_mmod_Solvation_Energy-OPLS-2005>
-245.853103637695

> <b_mmod_Minimization_Converged-OPLS-2005>
0

> <r_mmod_RMS_Derivative-OPLS-2005>
2.84756135940552

$$$$
41
                    3D
 Structure written by MMmdl.
159167  0  0  1  0            999 V2000
  -30.7191  -14.4912   20.5502 C   0  0  0  0  0  0
  -30.4141  -12.3135   19.4308 C   0  0  0  0  0  0
  -29.4937  -12.4990   18.2086 C   0  0  0  0  0  0
  -28.0157  -12.3600   18.6218 C   0  0  0  0  0  0
  -27.6577  -13.2139   19.8689 C   0  0  2  0  0  0
  -28.7014  -13.0324   20.9952 C   0  0  0  0  0  0
  -25.2574  -13.8176   20.5679 C   0  0  0  0  0  0
  -24.1833  -13.0444   20.9177 C   0  0  0  0  0  0
  -24.6397  -11.6915   20.8731 C   0  0  0  0  0  0
  -23.9060  -10.4298   21.0398 C   0  0  0  0  0  0
  -24.3613   -9.4213   21.9176 C   0  0  0  0  0  0
  -23.6291   -8.2249   22.0749 C   0  0  0  0  0  0
  -22.4272   -8.0284   21.3546 C   0  0  0  0  0  0
  -21.9906   -9.0258   20.4649 C   0  0  0  0  0  0
  -22.7231  -10.2139   20.3051 C   0  0  0  0  0  0
  -21.6859   -6.0732   22.5278 C   0  0  0  0  0  0
  -21.4022   -6.5631   23.8212 C   0  0  0  0  0  0
  -21.3658   -5.6786   24.9172 C   0  0  0  0  0  0
  -21.6041   -4.3049   24.7225 C   0  0  0  0  0  0
  -21.8822   -3.8143   23.4346 C   0  0  0  0  0  0
  -21.9197   -4.6959   22.3399 C   0  0  0  0  0  0
  -22.7856  -13.5236   21.1838 C   0  0  0  0  0  0
  -22.1665   -4.2143   21.0977 F   0  0  0  0  0  0
  -21.5624   -3.4533   25.7739 F   0  0  0  0  0  0
  -30.0276  -13.3237   20.4303 N   0  0  0  0  0  0
  -26.3010  -12.9359   20.3344 N   0  0  0  0  0  0
  -25.9326  -11.6513   20.5757 N   0  0  0  0  0  0
  -22.0498  -12.8235   22.0400 N   0  0  0  0  0  0
  -25.4292  -15.1895   20.4089 N   0  0  0  0  0  0
  -31.8571  -14.6188   20.0911 O   0  0  0  0  0  0
  -21.6643   -6.8875   21.4242 O   0  0  0  0  0  0
  -22.3539  -14.5542   20.6682 O   0  0  0  0  0  0
  -24.6165  -31.8674   23.2103 C   0  0  0  0  0  0
  -25.9052  -32.4819   23.8397 C   0  0  1  0  0  0
  -27.2238  -27.4224   20.0984 C   0  0  0  0  0  0
  -25.5905  -33.8615   24.2331 N   0  0  0  0  0  0
  -23.4053  -30.4930   21.5504 C   0  0  2  0  0  0
  -24.8518  -28.9650   20.1075 C   0  0  0  0  0  0
  -22.7427  -29.4657   22.4970 C   0  0  0  0  0  0
  -18.0278  -28.1379   22.8487 C   0  0  0  0  0  0
  -24.1487  -36.7310   23.2632 C   0  0  0  0  0  0
  -25.9367  -30.8310   21.3657 C   0  0  0  0  0  0
  -26.0145  -29.4670   20.7075 C   0  0  0  0  0  0
  -27.2077  -28.7040   20.6990 C   0  0  0  0  0  0
  -26.0499  -26.9495   19.4725 C   0  0  0  0  0  0
  -24.8657  -27.7073   19.4829 C   0  0  0  0  0  0
  -23.6137  -29.8311   20.1626 C   0  0  0  0  0  0
  -25.4100  -36.3105   24.0340 C   0  0  1  0  0  0
  -20.5873  -28.3673   23.1308 C   0  0  2  0  0  0
  -20.6768  -26.9404   22.5419 C   0  0  0  0  0  0
  -19.5746  -26.6389   21.5209 C   0  0  0  0  0  0
  -18.1923  -26.7927   22.1621 C   0  0  0  0  0  0
  -19.1529  -28.8842   23.2895 C   0  0  0  0  0  0
  -18.9457  -30.1450   23.8906 C   0  0  0  0  0  0
  -17.6456  -30.6586   24.0568 C   0  0  0  0  0  0
  -25.9032  -34.9474   23.5131 C   0  0  0  0  0  0
  -16.5344  -29.9089   23.6324 C   0  0  0  0  0  0
  -16.7266  -28.6506   23.0342 C   0  0  0  0  0  0
  -26.4474  -31.6593   25.0729 C   0  0  0  0  0  0
  -25.3740  -31.3712   26.1485 C   0  0  0  0  0  0
  -27.0294  -30.3027   24.6110 C   0  0  0  0  0  0
  -27.6063  -32.4306   25.7477 C   0  0  0  0  0  0
  -27.5593  -37.1782   24.8445 C   0  0  0  0  0  0
  -21.4152  -29.3038   22.3712 N   0  0  0  0  0  0
  -26.4276  -37.3801   23.9436 N   0  0  0  0  0  0
  -24.6712  -31.0773   22.1006 N   0  0  0  0  0  0
  -23.4191  -28.8191   23.3013 O   0  0  0  0  0  0
  -28.3350  -26.6066   20.1516 O   0  0  0  0  0  0
  -26.5596  -34.8926   22.4693 O   0  0  0  0  0  0
  -23.5354  -32.1428   23.7488 O   0  0  0  0  0  0
  -29.6291  -18.0125   21.0347 C   0  0  0  0  0  0
  -31.8560  -17.1738   21.5366 C   0  0  0  0  0  0
  -30.0727  -19.3604   21.1960 C   0  0  0  0  0  0
  -30.5121  -16.9068   21.1866 C   0  0  0  0  0  0
  -32.3139  -18.4925   21.6884 C   0  0  0  0  0  0
  -31.4386  -19.5796   21.5190 C   0  0  0  0  0  0
  -29.0794  -20.5099   21.1245 C   0  0  0  0  0  0
  -29.0605  -24.2414   20.6805 C   0  0  0  0  0  0
  -28.0574  -25.3999   20.9018 C   0  0  0  0  0  0
  -29.2444  -23.2710   23.0587 C   0  0  0  0  0  0
  -28.8585  -22.9862   21.5795 C   0  0  2  0  0  0
  -28.3420  -22.6089   24.1125 C   0  0  0  0  0  0
  -30.0341  -15.5558   21.0332 N   0  0  0  0  0  0
  -29.5606  -21.7699   21.1005 N   0  0  0  0  0  0
  -27.8681  -20.2812   21.1395 O   0  0  0  0  0  0
  -29.9656  -24.3334   19.8442 O   0  0  0  0  0  0
  -33.6093  -18.7170   22.0152 F   0  0  0  0  0  0
  -31.9378  -20.8280   21.6966 F   0  0  0  0  0  0
  -28.7448  -22.9798   25.3270 F   0  0  0  0  0  0
  -27.0781  -22.9987   23.9499 F   0  0  0  0  0  0
  -28.4089  -21.2809   24.0399 F   0  0  0  0  0  0
  -31.4612  -12.3908   19.1312 H   0  0  0  0  0  0
  -30.2994  -11.3118   19.8473 H   0  0  0  0  0  0
  -29.7369  -11.7666   17.4379 H   0  0  0  0  0  0
  -29.6640  -13.4801   17.7626 H   0  0  0  0  0  0
  -27.8286  -11.3058   18.8300 H   0  0  0  0  0  0
  -27.3651  -12.6217   17.7864 H   0  0  0  0  0  0
  -27.6920  -14.2561   19.5511 H   0  0  0  0  0  0
  -28.6802  -12.0103   21.3758 H   0  0  0  0  0  0
  -28.4673  -13.6698   21.8491 H   0  0  0  0  0  0
  -25.2764   -9.5690   22.4738 H   0  0  0  0  0  0
  -24.0008   -7.4642   22.7467 H   0  0  0  0  0  0
  -21.0835   -8.8782   19.8956 H   0  0  0  0  0  0
  -22.3691  -10.9676   19.6152 H   0  0  0  0  0  0
  -21.2021   -7.6141   23.9714 H   0  0  0  0  0  0
  -21.1470   -6.0514   25.9075 H   0  0  0  0  0  0
  -22.0601   -2.7608   23.2851 H   0  0  0  0  0  0
  -22.4107  -11.9899   22.4801 H   0  0  0  0  0  0
  -21.1117  -13.1271   22.2601 H   0  0  0  0  0  0
  -24.6615  -15.8437   20.5130 H   0  0  0  0  0  0
  -26.2779  -15.6283   20.0754 H   0  0  0  0  0  0
  -26.7127  -32.5529   23.1162 H   0  0  0  0  0  0
  -25.0065  -33.9773   25.0485 H   0  0  0  0  0  0
  -22.6938  -31.3104   21.4145 H   0  0  0  0  0  0
  -23.3757  -35.9631   23.3259 H   0  0  0  0  0  0
  -24.3603  -36.8958   22.2055 H   0  0  0  0  0  0
  -23.7221  -37.6499   23.6666 H   0  0  0  0  0  0
  -26.0526  -31.5995   20.5999 H   0  0  0  0  0  0
  -26.8233  -30.8812   21.9862 H   0  0  0  0  0  0
  -28.1010  -29.0804   21.1779 H   0  0  0  0  0  0
  -26.0413  -25.9840   18.9864 H   0  0  0  0  0  0
  -23.9746  -27.3191   19.0090 H   0  0  0  0  0  0
  -23.7201  -30.6087   19.4054 H   0  0  0  0  0  0
  -22.7372  -29.2517   19.8667 H   0  0  0  0  0  0
  -25.1264  -36.1959   25.0830 H   0  0  0  0  0  0
  -20.9964  -28.3245   24.1430 H   0  0  0  0  0  0
  -20.5671  -26.2277   23.3610 H   0  0  0  0  0  0
  -21.6641  -26.7449   22.1213 H   0  0  0  0  0  0
  -19.6909  -25.6302   21.1233 H   0  0  0  0  0  0
  -19.6684  -27.3206   20.6742 H   0  0  0  0  0  0
  -17.4195  -26.6682   21.4018 H   0  0  0  0  0  0
  -18.0319  -26.0068   22.9019 H   0  0  0  0  0  0
  -19.7932  -30.7267   24.2275 H   0  0  0  0  0  0
  -17.5012  -31.6262   24.5178 H   0  0  0  0  0  0
  -15.5344  -30.2991   23.7644 H   0  0  0  0  0  0
  -15.8666  -28.0833   22.7045 H   0  0  0  0  0  0
  -24.5895  -30.7073   25.7835 H   0  0  0  0  0  0
  -24.8952  -32.2875   26.4946 H   0  0  0  0  0  0
  -25.8094  -30.8872   27.0235 H   0  0  0  0  0  0
  -26.2834  -29.6796   24.1163 H   0  0  0  0  0  0
  -27.4055  -29.7258   25.4569 H   0  0  0  0  0  0
  -27.8678  -30.4338   23.9264 H   0  0  0  0  0  0
  -27.2699  -33.3597   26.2090 H   0  0  0  0  0  0
  -28.3840  -32.6877   25.0275 H   0  0  0  0  0  0
  -28.0764  -31.8410   26.5358 H   0  0  0  0  0  0
  -28.2539  -38.0150   24.7601 H   0  0  0  0  0  0
  -28.1154  -36.2690   24.6107 H   0  0  0  0  0  0
  -27.2343  -37.1245   25.8850 H   0  0  0  0  0  0
  -20.9310  -29.8759   21.6936 H   0  0  0  0  0  0
  -26.0157  -38.2860   24.1510 H   0  0  0  0  0  0
  -28.5903  -17.8294   20.7965 H   0  0  0  0  0  0
  -32.5620  -16.3735   21.6993 H   0  0  0  0  0  0
  -28.0377  -25.6603   21.9596 H   0  0  0  0  0  0
  -27.0706  -24.9997   20.6717 H   0  0  0  0  0  0
  -29.2224  -24.3418   23.2603 H   0  0  0  0  0  0
  -30.2804  -22.9809   23.2353 H   0  0  0  0  0  0
  -27.7863  -22.7869   21.5544 H   0  0  0  0  0  0
  -29.0575  -15.3916   21.2232 H   0  0  0  0  0  0
  -30.5638  -21.8555   20.9933 H   0  0  0  0  0  0
  1 25  1  0  0  0
  1 30  2  0  0  0
  1 83  1  0  0  0
  2  3  1  0  0  0
  2 25  1  0  0  0
  2 92  1  0  0  0
  2 93  1  0  0  0
  3  4  1  0  0  0
  3 94  1  0  0  0
  3 95  1  0  0  0
  4  5  1  0  0  0
  4 96  1  0  0  0
  4 97  1  0  0  0
  5  6  1  0  0  0
  5 26  1  0  0  0
  5 98  1  0  0  0
  6 25  1  0  0  0
  6 99  1  0  0  0
  6100  1  0  0  0
  7  8  2  0  0  0
  7 26  1  0  0  0
  7 29  1  0  0  0
  8  9  1  0  0  0
  8 22  1  0  0  0
  9 10  1  0  0  0
  9 27  2  0  0  0
 10 11  2  0  0  0
 10 15  1  0  0  0
 11 12  1  0  0  0
 11101  1  0  0  0
 12 13  2  0  0  0
 12102  1  0  0  0
 13 14  1  0  0  0
 13 31  1  0  0  0
 14 15  2  0  0  0
 14103  1  0  0  0
 15104  1  0  0  0
 16 17  2  0  0  0
 16 21  1  0  0  0
 16 31  1  0  0  0
 17 18  1  0  0  0
 17105  1  0  0  0
 18 19  2  0  0  0
 18106  1  0  0  0
 19 20  1  0  0  0
 19 24  1  0  0  0
 20 21  2  0  0  0
 20107  1  0  0  0
 21 23  1  0  0  0
 22 28  1  0  0  0
 22 32  2  0  0  0
 26 27  1  0  0  0
 28108  1  0  0  0
 28109  1  0  0  0
 29110  1  0  0  0
 29111  1  0  0  0
 33 34  1  0  0  0
 33 66  1  0  0  0
 33 70  2  0  0  0
 34 36  1  0  0  0
 34 59  1  0  0  0
 34112  1  0  0  0
 35 44  2  0  0  0
 35 45  1  0  0  0
 35 68  1  0  0  0
 36 56  1  0  0  0
 36113  1  0  0  0
 37 39  1  0  0  0
 37 47  1  0  0  0
 37 66  1  0  0  0
 37114  1  0  0  0
 38 43  2  0  0  0
 38 46  1  0  0  0
 38 47  1  0  0  0
 39 64  1  0  0  0
 39 67  2  0  0  0
 40 52  1  0  0  0
 40 53  2  0  0  0
 40 58  1  0  0  0
 41115  1  0  0  0
 41116  1  0  0  0
 41117  1  0  0  0
 41 48  1  0  0  0
 42 43  1  0  0  0
 42 66  1  0  0  0
 42118  1  0  0  0
 42119  1  0  0  0
 43 44  1  0  0  0
 44120  1  0  0  0
 45 46  2  0  0  0
 45121  1  0  0  0
 46122  1  0  0  0
 47123  1  0  0  0
 47124  1  0  0  0
 48 56  1  0  0  0
 48 65  1  0  0  0
 48125  1  0  0  0
 49 50  1  0  0  0
 49 53  1  0  0  0
 49 64  1  0  0  0
 49126  1  0  0  0
 50 51  1  0  0  0
 50127  1  0  0  0
 50128  1  0  0  0
 51 52  1  0  0  0
 51129  1  0  0  0
 51130  1  0  0  0
 52131  1  0  0  0
 52132  1  0  0  0
 53 54  1  0  0  0
 54 55  2  0  0  0
 54133  1  0  0  0
 55 57  1  0  0  0
 55134  1  0  0  0
 56 69  2  0  0  0
 57 58  2  0  0  0
 57135  1  0  0  0
 58136  1  0  0  0
 59 60  1  0  0  0
 59 61  1  0  0  0
 59 62  1  0  0  0
 60137  1  0  0  0
 60138  1  0  0  0
 60139  1  0  0  0
 61140  1  0  0  0
 61141  1  0  0  0
 61142  1  0  0  0
 62143  1  0  0  0
 62144  1  0  0  0
 62145  1  0  0  0
 63 65  1  0  0  0
 63146  1  0  0  0
 63147  1  0  0  0
 63148  1  0  0  0
 64149  1  0  0  0
 65150  1  0  0  0
 68 79  1  0  0  0
 71 73  2  0  0  0
 71 74  1  0  0  0
 71151  1  0  0  0
 72 74  2  0  0  0
 72 75  1  0  0  0
 72152  1  0  0  0
 73 76  1  0  0  0
 73 77  1  0  0  0
 74 83  1  0  0  0
 75 76  2  0  0  0
 75 87  1  0  0  0
 76 88  1  0  0  0
 77 84  1  0  0  0
 77 85  2  0  0  0
 78 79  1  0  0  0
 78 81  1  0  0  0
 78 86  2  0  0  0
 79153  1  0  0  0
 79154  1  0  0  0
 80 82  1  0  0  0
 80155  1  0  0  0
 80156  1  0  0  0
 80 81  1  0  0  0
 81 84  1  0  0  0
 81157  1  0  0  0
 82 89  1  0  0  0
 82 90  1  0  0  0
 82 91  1  0  0  0
 83158  1  0  0  0
 84159  1  0  0  0
M  ISO  4   1 100  68 101  79 101  83 100
M  END
> <chiral flag>
0

> <version>
0

> <s_m_source_file>
/data/baiqing/PycharmProjects/Reinvent-master-3.2/result/LINK_invent/BTK/process_docking_weight1_custom_product_contain_oxygen_bond_distance_aromatic_linkinvent_7_9_3/rearranged_h_0175.sdf

> <i_m_source_file_index>
41

> <r_mmod_Potential_Energy-OPLS-2005>
-115.357482910156

> <r_mmod_Stretch_Energy-OPLS-2005>
45.6563491821289

> <r_mmod_Bend_Energy-OPLS-2005>
100.778327941895

> <r_mmod_Torsional_Energy-OPLS-2005>
260.255493164062

> <r_mmod_Improper_Torsional_Energy-OPLS-2005>
5.23994779586792

> <r_mmod_Van_der_Waal_Energy-OPLS-2005>
163.195510864258

> <r_mmod_Electrostatic_Energy-OPLS-2005>
-477.149932861328

> <r_mmod_Solvation_Energy-OPLS-2005>
-232.494125366211

> <b_mmod_Minimization_Converged-OPLS-2005>
0

> <r_mmod_RMS_Derivative-OPLS-2005>
1.01986134052277

$$$$
42
                    3D
 Structure written by MMmdl.
156164  0  0  1  0            999 V2000
  -30.7003  -14.4182   20.6614 C   0  0  0  0  0  0
  -30.4458  -12.3037   19.4027 C   0  0  0  0  0  0
  -29.5062  -12.5199   18.2003 C   0  0  0  0  0  0
  -28.0273  -12.3717   18.6159 C   0  0  0  0  0  0
  -27.6754  -13.1935   19.8857 C   0  0  2  0  0  0
  -28.7087  -12.9156   20.9966 C   0  0  0  0  0  0
  -25.2704  -13.8158   20.5736 C   0  0  0  0  0  0
  -24.1903  -13.0456   20.9184 C   0  0  0  0  0  0
  -24.6404  -11.6912   20.8711 C   0  0  0  0  0  0
  -23.9043  -10.4301   21.0394 C   0  0  0  0  0  0
  -24.3605   -9.4218   21.9169 C   0  0  0  0  0  0
  -23.6288   -8.2250   22.0748 C   0  0  0  0  0  0
  -22.4253   -8.0286   21.3555 C   0  0  0  0  0  0
  -21.9894   -9.0249   20.4634 C   0  0  0  0  0  0
  -22.7223  -10.2138   20.3042 C   0  0  0  0  0  0
  -21.6848   -6.0733   22.5281 C   0  0  0  0  0  0
  -21.3991   -6.5629   23.8211 C   0  0  0  0  0  0
  -21.3662   -5.6784   24.9178 C   0  0  0  0  0  0
  -21.6043   -4.3040   24.7224 C   0  0  0  0  0  0
  -21.8819   -3.8145   23.4340 C   0  0  0  0  0  0
  -21.9186   -4.6964   22.3408 C   0  0  0  0  0  0
  -22.7915  -13.5277   21.1839 C   0  0  0  0  0  0
  -22.1662   -4.2162   21.0986 F   0  0  0  0  0  0
  -21.5639   -3.4528   25.7738 F   0  0  0  0  0  0
  -30.0511  -13.2378   20.4697 N   0  0  0  0  0  0
  -26.3091  -12.9296   20.3369 N   0  0  0  0  0  0
  -25.9316  -11.6444   20.5721 N   0  0  0  0  0  0
  -22.0517  -12.8284   22.0368 N   0  0  0  0  0  0
  -25.4543  -15.1885   20.4301 N   0  0  0  0  0  0
  -31.7551  -14.7067   20.0818 O   0  0  0  0  0  0
  -21.6628   -6.8888   21.4241 O   0  0  0  0  0  0
  -22.3623  -14.5593   20.6693 O   0  0  0  0  0  0
  -24.6130  -31.8696   23.2072 C   0  0  0  0  0  0
  -25.9029  -32.4836   23.8356 C   0  0  1  0  0  0
  -27.2223  -27.4186   20.1089 C   0  0  0  0  0  0
  -25.5921  -33.8630   24.2314 N   0  0  0  0  0  0
  -23.3968  -30.4991   21.5469 C   0  0  2  0  0  0
  -24.8421  -28.9629   20.1128 C   0  0  0  0  0  0
  -22.7389  -29.4727   22.4927 C   0  0  0  0  0  0
  -18.0300  -28.1394   22.8514 C   0  0  0  0  0  0
  -24.1503  -36.7330   23.2637 C   0  0  0  0  0  0
  -25.9259  -30.8357   21.3568 C   0  0  0  0  0  0
  -26.0015  -29.4692   20.7051 C   0  0  0  0  0  0
  -27.1890  -28.7027   20.7031 C   0  0  0  0  0  0
  -26.0296  -26.9204   19.5378 C   0  0  0  0  0  0
  -24.8499  -27.6874   19.5261 C   0  0  0  0  0  0
  -23.6042  -29.8319   20.1597 C   0  0  0  0  0  0
  -25.4123  -36.3127   24.0330 C   0  0  1  0  0  0
  -20.5897  -28.3707   23.1313 C   0  0  2  0  0  0
  -20.6815  -26.9447   22.5414 C   0  0  0  0  0  0
  -19.5788  -26.6410   21.5230 C   0  0  0  0  0  0
  -18.1963  -26.7935   22.1647 C   0  0  0  0  0  0
  -19.1554  -28.8858   23.2923 C   0  0  0  0  0  0
  -18.9465  -30.1458   23.8945 C   0  0  0  0  0  0
  -17.6472  -30.6599   24.0578 C   0  0  0  0  0  0
  -25.9049  -34.9481   23.5102 C   0  0  0  0  0  0
  -16.5365  -29.9092   23.6320 C   0  0  0  0  0  0
  -16.7293  -28.6510   23.0334 C   0  0  0  0  0  0
  -26.4477  -31.6622   25.0682 C   0  0  0  0  0  0
  -25.3746  -31.3726   26.1438 C   0  0  0  0  0  0
  -27.0299  -30.3060   24.6051 C   0  0  0  0  0  0
  -27.6053  -32.4354   25.7461 C   0  0  0  0  0  0
  -27.5598  -37.1825   24.8460 C   0  0  0  0  0  0
  -21.4136  -29.3086   22.3689 N   0  0  0  0  0  0
  -26.4322  -37.3804   23.9385 N   0  0  0  0  0  0
  -24.6633  -31.0826   22.0948 N   0  0  0  0  0  0
  -23.4166  -28.8235   23.2958 O   0  0  0  0  0  0
  -28.4161  -26.7190   20.1331 O   0  0  0  0  0  0
  -26.5615  -34.8944   22.4679 O   0  0  0  0  0  0
  -23.5350  -32.1449   23.7518 O   0  0  0  0  0  0
  -30.8074  -17.5000   22.0386 C   0  0  0  0  0  0
  -29.5294  -19.3789   21.1698 C   0  0  0  0  0  0
  -30.6185  -18.8860   21.9050 C   0  0  0  0  0  0
  -29.9086  -16.6216   21.4101 C   0  0  0  0  0  0
  -28.6359  -18.4329   20.6280 C   0  0  0  0  0  0
  -28.4388  -21.5978   20.8029 C   0  0  0  0  0  0
  -28.3034  -25.2938   18.0724 C   0  0  0  0  0  0
  -28.6470  -22.8493   19.9376 C   0  0  0  0  0  0
  -28.0825  -24.2063   20.4481 C   0  0  0  0  0  0
  -28.6004  -25.3975   19.5842 C   0  0  1  0  0  0
  -28.8196  -17.0915   20.7556 N   0  0  0  0  0  0
  -29.4896  -20.7667   20.8648 N   0  0  0  0  0  0
  -30.1147  -15.2267   21.5627 N   0  0  0  0  0  0
  -27.3849  -21.4006   21.4069 O   0  0  0  0  0  0
  -31.5060  -19.7479   22.4545 F   0  0  0  0  0  0
  -27.5861  -18.8444   19.8771 F   0  0  0  0  0  0
  -31.4854  -12.4390   19.0945 H   0  0  0  0  0  0
  -30.3798  -11.2747   19.7588 H   0  0  0  0  0  0
  -29.7427  -11.8080   17.4091 H   0  0  0  0  0  0
  -29.6715  -13.5110   17.7770 H   0  0  0  0  0  0
  -27.8374  -11.3118   18.7978 H   0  0  0  0  0  0
  -27.3770  -12.6583   17.7876 H   0  0  0  0  0  0
  -27.7435  -14.2495   19.6214 H   0  0  0  0  0  0
  -28.6799  -11.8634   21.2784 H   0  0  0  0  0  0
  -28.4418  -13.4526   21.9061 H   0  0  0  0  0  0
  -25.2746   -9.5682   22.4748 H   0  0  0  0  0  0
  -23.9979   -7.4636   22.7462 H   0  0  0  0  0  0
  -21.0829   -8.8752   19.8953 H   0  0  0  0  0  0
  -22.3664  -10.9660   19.6150 H   0  0  0  0  0  0
  -21.1960   -7.6139   23.9722 H   0  0  0  0  0  0
  -21.1492   -6.0517   25.9092 H   0  0  0  0  0  0
  -22.0600   -2.7613   23.2840 H   0  0  0  0  0  0
  -22.4054  -11.9923   22.4783 H   0  0  0  0  0  0
  -21.1134  -13.1342   22.2510 H   0  0  0  0  0  0
  -24.7165  -15.8645   20.5970 H   0  0  0  0  0  0
  -26.3362  -15.6233   20.1839 H   0  0  0  0  0  0
  -26.7093  -32.5521   23.1119 H   0  0  0  0  0  0
  -25.0072  -33.9783   25.0454 H   0  0  0  0  0  0
  -22.6882  -31.3181   21.4106 H   0  0  0  0  0  0
  -23.3774  -35.9660   23.3304 H   0  0  0  0  0  0
  -24.3597  -36.8946   22.2053 H   0  0  0  0  0  0
  -23.7249  -37.6530   23.6657 H   0  0  0  0  0  0
  -26.0363  -31.6041   20.5884 H   0  0  0  0  0  0
  -26.8157  -30.8919   21.9736 H   0  0  0  0  0  0
  -28.0817  -29.0972   21.1638 H   0  0  0  0  0  0
  -25.9611  -25.9329   19.1182 H   0  0  0  0  0  0
  -23.9526  -27.2852   19.0758 H   0  0  0  0  0  0
  -23.7088  -30.6102   19.4017 H   0  0  0  0  0  0
  -22.7257  -29.2574   19.8587 H   0  0  0  0  0  0
  -25.1319  -36.2005   25.0833 H   0  0  0  0  0  0
  -21.0041  -28.3294   24.1404 H   0  0  0  0  0  0
  -20.5781  -26.2317   23.3584 H   0  0  0  0  0  0
  -21.6656  -26.7524   22.1154 H   0  0  0  0  0  0
  -19.6935  -25.6316   21.1244 H   0  0  0  0  0  0
  -19.6680  -27.3226   20.6752 H   0  0  0  0  0  0
  -17.4209  -26.6706   21.4040 H   0  0  0  0  0  0
  -18.0366  -26.0064   22.9047 H   0  0  0  0  0  0
  -19.7940  -30.7290   24.2302 H   0  0  0  0  0  0
  -17.5014  -31.6266   24.5191 H   0  0  0  0  0  0
  -15.5362  -30.3007   23.7607 H   0  0  0  0  0  0
  -15.8707  -28.0845   22.6999 H   0  0  0  0  0  0
  -24.5856  -30.7171   25.7734 H   0  0  0  0  0  0
  -24.9014  -32.2899   26.4968 H   0  0  0  0  0  0
  -25.8091  -30.8783   27.0135 H   0  0  0  0  0  0
  -26.2795  -29.6813   24.1188 H   0  0  0  0  0  0
  -27.4158  -29.7331   25.4496 H   0  0  0  0  0  0
  -27.8621  -30.4382   23.9122 H   0  0  0  0  0  0
  -27.2635  -33.3599   26.2141 H   0  0  0  0  0  0
  -28.3823  -32.7016   25.0275 H   0  0  0  0  0  0
  -28.0788  -31.8412   26.5299 H   0  0  0  0  0  0
  -28.2635  -38.0112   24.7515 H   0  0  0  0  0  0
  -28.1092  -36.2639   24.6308 H   0  0  0  0  0  0
  -27.2307  -37.1502   25.8866 H   0  0  0  0  0  0
  -20.9251  -29.8784   21.6920 H   0  0  0  0  0  0
  -26.0230  -38.2903   24.1349 H   0  0  0  0  0  0
  -31.6576  -17.1340   22.5981 H   0  0  0  0  0  0
  -27.2730  -25.0364   17.8401 H   0  0  0  0  0  0
  -28.9046  -24.5116   17.6087 H   0  0  0  0  0  0
  -28.5349  -26.2311   17.5667 H   0  0  0  0  0  0
  -28.2153  -22.6009   18.9671 H   0  0  0  0  0  0
  -29.7210  -22.9753   19.7771 H   0  0  0  0  0  0
  -28.4084  -24.3418   21.4814 H   0  0  0  0  0  0
  -26.9926  -24.1875   20.4814 H   0  0  0  0  0  0
  -29.6871  -25.3111   19.6408 H   0  0  0  0  0  0
  -30.3848  -21.1676   20.6100 H   0  0  0  0  0  0
  -29.3660  -14.7550   22.0476 H   0  0  0  0  0  0
  1 25  1  0  0  0
  1 30  2  0  0  0
  1 83  1  0  0  0
  2  3  1  0  0  0
  2 25  1  0  0  0
  2 87  1  0  0  0
  2 88  1  0  0  0
  3  4  1  0  0  0
  3 89  1  0  0  0
  3 90  1  0  0  0
  4  5  1  0  0  0
  4 91  1  0  0  0
  4 92  1  0  0  0
  5  6  1  0  0  0
  5 26  1  0  0  0
  5 93  1  0  0  0
  6 25  1  0  0  0
  6 94  1  0  0  0
  6 95  1  0  0  0
  7  8  2  0  0  0
  7 26  1  0  0  0
  7 29  1  0  0  0
  8  9  1  0  0  0
  8 22  1  0  0  0
  9 10  1  0  0  0
  9 27  2  0  0  0
 10 11  2  0  0  0
 10 15  1  0  0  0
 11 12  1  0  0  0
 11 96  1  0  0  0
 12 13  2  0  0  0
 12 97  1  0  0  0
 13 14  1  0  0  0
 13 31  1  0  0  0
 14 15  2  0  0  0
 14 98  1  0  0  0
 15 99  1  0  0  0
 16 17  2  0  0  0
 16 21  1  0  0  0
 16 31  1  0  0  0
 17 18  1  0  0  0
 17100  1  0  0  0
 18 19  2  0  0  0
 18101  1  0  0  0
 19 20  1  0  0  0
 19 24  1  0  0  0
 20 21  2  0  0  0
 20102  1  0  0  0
 21 23  1  0  0  0
 22 28  1  0  0  0
 22 32  2  0  0  0
 26 27  1  0  0  0
 28103  1  0  0  0
 28104  1  0  0  0
 29105  1  0  0  0
 29106  1  0  0  0
 33 34  1  0  0  0
 33 66  1  0  0  0
 33 70  2  0  0  0
 34 36  1  0  0  0
 34 59  1  0  0  0
 34107  1  0  0  0
 35 44  2  0  0  0
 35 45  1  0  0  0
 35 68  1  0  0  0
 36 56  1  0  0  0
 36108  1  0  0  0
 37 39  1  0  0  0
 37 47  1  0  0  0
 37 66  1  0  0  0
 37109  1  0  0  0
 38 43  2  0  0  0
 38 46  1  0  0  0
 38 47  1  0  0  0
 39 64  1  0  0  0
 39 67  2  0  0  0
 40 52  1  0  0  0
 40 53  2  0  0  0
 40 58  1  0  0  0
 41110  1  0  0  0
 41111  1  0  0  0
 41112  1  0  0  0
 41 48  1  0  0  0
 42 43  1  0  0  0
 42 66  1  0  0  0
 42113  1  0  0  0
 42114  1  0  0  0
 43 44  1  0  0  0
 44115  1  0  0  0
 45 46  2  0  0  0
 45116  1  0  0  0
 46117  1  0  0  0
 47118  1  0  0  0
 47119  1  0  0  0
 48 56  1  0  0  0
 48 65  1  0  0  0
 48120  1  0  0  0
 49 50  1  0  0  0
 49 53  1  0  0  0
 49 64  1  0  0  0
 49121  1  0  0  0
 50 51  1  0  0  0
 50122  1  0  0  0
 50123  1  0  0  0
 51 52  1  0  0  0
 51124  1  0  0  0
 51125  1  0  0  0
 52126  1  0  0  0
 52127  1  0  0  0
 53 54  1  0  0  0
 54 55  2  0  0  0
 54128  1  0  0  0
 55 57  1  0  0  0
 55129  1  0  0  0
 56 69  2  0  0  0
 57 58  2  0  0  0
 57130  1  0  0  0
 58131  1  0  0  0
 59 60  1  0  0  0
 59 61  1  0  0  0
 59 62  1  0  0  0
 60132  1  0  0  0
 60133  1  0  0  0
 60134  1  0  0  0
 61135  1  0  0  0
 61136  1  0  0  0
 61137  1  0  0  0
 62138  1  0  0  0
 62139  1  0  0  0
 62140  1  0  0  0
 63 65  1  0  0  0
 63141  1  0  0  0
 63142  1  0  0  0
 63143  1  0  0  0
 64144  1  0  0  0
 65145  1  0  0  0
 68 80  1  0  0  0
 71 73  2  0  0  0
 71 74  1  0  0  0
 71146  1  0  0  0
 72 73  1  0  0  0
 72 75  2  0  0  0
 72 82  1  0  0  0
 73 85  1  0  0  0
 74 81  2  0  0  0
 74 83  1  0  0  0
 75 81  1  0  0  0
 75 86  1  0  0  0
 76 78  1  0  0  0
 76 82  1  0  0  0
 76 84  2  0  0  0
 77147  1  0  0  0
 77148  1  0  0  0
 77149  1  0  0  0
 77 80  1  0  0  0
 78 79  1  0  0  0
 78150  1  0  0  0
 78151  1  0  0  0
 79 80  1  0  0  0
 79152  1  0  0  0
 79153  1  0  0  0
 80154  1  0  0  0
 82155  1  0  0  0
 83156  1  0  0  0
M  ISO  4   1 100  68 101  80 101  83 100
M  END
> <chiral flag>
0

> <version>
0

> <s_m_source_file>
/data/baiqing/PycharmProjects/Reinvent-master-3.2/result/LINK_invent/BTK/process_docking_weight1_custom_product_contain_oxygen_bond_distance_aromatic_linkinvent_7_9_3/rearranged_h_0175.sdf

> <i_m_source_file_index>
42

> <r_mmod_Potential_Energy-OPLS-2005>
-321.822113037109

> <r_mmod_Stretch_Energy-OPLS-2005>
37.4249801635742

> <r_mmod_Bend_Energy-OPLS-2005>
132.959167480469

> <r_mmod_Torsional_Energy-OPLS-2005>
259.723541259766

> <r_mmod_Improper_Torsional_Energy-OPLS-2005>
6.12469816207886

> <r_mmod_Van_der_Waal_Energy-OPLS-2005>
153.03645324707

> <r_mmod_Electrostatic_Energy-OPLS-2005>
-697.564025878906

> <r_mmod_Solvation_Energy-OPLS-2005>
-225.012786865234

> <b_mmod_Minimization_Converged-OPLS-2005>
0

> <r_mmod_RMS_Derivative-OPLS-2005>
6.48198652267456

$$$$
43
                    3D
 Structure written by MMmdl.
152160  0  0  1  0            999 V2000
  -30.6655  -14.5461   20.5243 C   0  0  0  0  0  0
  -30.4284  -12.3399   19.4350 C   0  0  0  0  0  0
  -29.4994  -12.5006   18.2118 C   0  0  0  0  0  0
  -28.0199  -12.3552   18.6237 C   0  0  0  0  0  0
  -27.6555  -13.2120   19.8664 C   0  0  2  0  0  0
  -28.6998  -13.0297   20.9917 C   0  0  0  0  0  0
  -25.2564  -13.8167   20.5693 C   0  0  0  0  0  0
  -24.1815  -13.0442   20.9188 C   0  0  0  0  0  0
  -24.6377  -11.6908   20.8733 C   0  0  0  0  0  0
  -23.9042  -10.4293   21.0402 C   0  0  0  0  0  0
  -24.3601   -9.4210   21.9175 C   0  0  0  0  0  0
  -23.6282   -8.2238   22.0746 C   0  0  0  0  0  0
  -22.4256   -8.0273   21.3546 C   0  0  0  0  0  0
  -21.9887   -9.0241   20.4650 C   0  0  0  0  0  0
  -22.7210  -10.2124   20.3058 C   0  0  0  0  0  0
  -21.6843   -6.0728   22.5274 C   0  0  0  0  0  0
  -21.4013   -6.5632   23.8213 C   0  0  0  0  0  0
  -21.3660   -5.6786   24.9171 C   0  0  0  0  0  0
  -21.6047   -4.3045   24.7224 C   0  0  0  0  0  0
  -21.8815   -3.8142   23.4344 C   0  0  0  0  0  0
  -21.9192   -4.6962   22.3400 C   0  0  0  0  0  0
  -22.7838  -13.5237   21.1848 C   0  0  0  0  0  0
  -22.1661   -4.2144   21.0984 F   0  0  0  0  0  0
  -21.5632   -3.4532   25.7740 F   0  0  0  0  0  0
  -30.0230  -13.3458   20.4315 N   0  0  0  0  0  0
  -26.2987  -12.9342   20.3328 N   0  0  0  0  0  0
  -25.9301  -11.6501   20.5745 N   0  0  0  0  0  0
  -22.0479  -12.8242   22.0417 N   0  0  0  0  0  0
  -25.4312  -15.1888   20.4127 N   0  0  0  0  0  0
  -31.8274  -14.6868   20.1312 O   0  0  0  0  0  0
  -21.6631   -6.8861   21.4232 O   0  0  0  0  0  0
  -22.3524  -14.5537   20.6686 O   0  0  0  0  0  0
  -24.6194  -31.8655   23.2069 C   0  0  0  0  0  0
  -25.9064  -32.4814   23.8389 C   0  0  1  0  0  0
  -27.2283  -27.3896   20.1170 C   0  0  0  0  0  0
  -25.5901  -33.8608   24.2321 N   0  0  0  0  0  0
  -23.4110  -30.4887   21.5468 C   0  0  2  0  0  0
  -24.8592  -28.9488   20.1144 C   0  0  0  0  0  0
  -22.7445  -29.4656   22.4956 C   0  0  0  0  0  0
  -18.0290  -28.1393   22.8501 C   0  0  0  0  0  0
  -24.1486  -36.7304   23.2639 C   0  0  0  0  0  0
  -25.9446  -30.8182   21.3676 C   0  0  0  0  0  0
  -26.0223  -29.4489   20.7162 C   0  0  0  0  0  0
  -27.2131  -28.6768   20.7129 C   0  0  0  0  0  0
  -26.0512  -26.9183   19.4997 C   0  0  0  0  0  0
  -24.8703  -27.6847   19.5008 C   0  0  0  0  0  0
  -23.6242  -29.8221   20.1618 C   0  0  0  0  0  0
  -25.4104  -36.3105   24.0342 C   0  0  1  0  0  0
  -20.5887  -28.3690   23.1305 C   0  0  2  0  0  0
  -20.6781  -26.9420   22.5422 C   0  0  0  0  0  0
  -19.5751  -26.6399   21.5225 C   0  0  0  0  0  0
  -18.1929  -26.7941   22.1635 C   0  0  0  0  0  0
  -19.1540  -28.8859   23.2902 C   0  0  0  0  0  0
  -18.9462  -30.1459   23.8919 C   0  0  0  0  0  0
  -17.6460  -30.6592   24.0572 C   0  0  0  0  0  0
  -25.9033  -34.9469   23.5135 C   0  0  0  0  0  0
  -16.5355  -29.9090   23.6327 C   0  0  0  0  0  0
  -16.7274  -28.6512   23.0347 C   0  0  0  0  0  0
  -26.4484  -31.6598   25.0726 C   0  0  0  0  0  0
  -25.3738  -31.3709   26.1470 C   0  0  0  0  0  0
  -27.0320  -30.3038   24.6121 C   0  0  0  0  0  0
  -27.6072  -32.4316   25.7473 C   0  0  0  0  0  0
  -27.5583  -37.1804   24.8463 C   0  0  0  0  0  0
  -21.4168  -29.3041   22.3692 N   0  0  0  0  0  0
  -26.4292  -37.3788   23.9415 N   0  0  0  0  0  0
  -24.6764  -31.0732   22.0981 N   0  0  0  0  0  0
  -23.4197  -28.8197   23.3014 O   0  0  0  0  0  0
  -28.3484  -26.5746   20.1283 O   0  0  0  0  0  0
  -26.5596  -34.8930   22.4696 O   0  0  0  0  0  0
  -23.5371  -32.1425   23.7432 O   0  0  0  0  0  0
  -30.8832  -19.3312   20.3786 C   0  0  0  0  0  0
  -29.6098  -19.2590   20.8910 C   0  0  0  0  0  0
  -30.1439  -17.0015   20.7686 C   0  0  0  0  0  0
  -28.1971  -25.3301   20.7317 C   0  0  0  0  0  0
  -28.8104  -24.1802   20.3375 C   0  0  0  0  0  0
  -28.5884  -22.9236   21.1074 C   0  0  0  0  0  0
  -28.7403  -21.5000   19.0444 C   0  0  0  0  0  0
  -28.6973  -20.4269   21.2812 C   0  0  0  0  0  0
  -29.2091  -17.9154   21.1034 N   0  0  0  0  0  0
  -29.8940  -15.5939   20.9122 N   0  0  0  0  0  0
  -28.7858  -21.7025   20.4997 N   0  0  0  0  0  0
  -28.2572  -22.9698   22.2972 O   0  0  0  0  0  0
  -29.6341  -24.2221   19.2792 O   0  0  0  0  0  0
  -31.6107  -17.7567   20.1422 S   0  0  0  0  0  0
  -31.4729  -12.4460   19.1356 H   0  0  0  0  0  0
  -30.3427  -11.3371   19.8552 H   0  0  0  0  0  0
  -29.7479  -11.7612   17.4492 H   0  0  0  0  0  0
  -29.6589  -13.4773   17.7523 H   0  0  0  0  0  0
  -27.8388  -11.3018   18.8385 H   0  0  0  0  0  0
  -27.3678  -12.6112   17.7881 H   0  0  0  0  0  0
  -27.6858  -14.2525   19.5436 H   0  0  0  0  0  0
  -28.6901  -12.0015   21.3572 H   0  0  0  0  0  0
  -28.4603  -13.6500   21.8561 H   0  0  0  0  0  0
  -25.2748   -9.5693   22.4746 H   0  0  0  0  0  0
  -24.0009   -7.4621   22.7443 H   0  0  0  0  0  0
  -21.0824   -8.8733   19.8951 H   0  0  0  0  0  0
  -22.3652  -10.9650   19.6164 H   0  0  0  0  0  0
  -21.2004   -7.6143   23.9709 H   0  0  0  0  0  0
  -21.1490   -6.0522   25.9073 H   0  0  0  0  0  0
  -22.0600   -2.7611   23.2839 H   0  0  0  0  0  0
  -22.4093  -11.9925   22.4847 H   0  0  0  0  0  0
  -21.1086  -13.1258   22.2596 H   0  0  0  0  0  0
  -24.6680  -15.8466   20.5229 H   0  0  0  0  0  0
  -26.2858  -15.6286   20.0963 H   0  0  0  0  0  0
  -26.7136  -32.5522   23.1150 H   0  0  0  0  0  0
  -25.0058  -33.9765   25.0477 H   0  0  0  0  0  0
  -22.7014  -31.3062   21.4044 H   0  0  0  0  0  0
  -23.3755  -35.9630   23.3299 H   0  0  0  0  0  0
  -24.3590  -36.8920   22.2057 H   0  0  0  0  0  0
  -23.7236  -37.6508   23.6651 H   0  0  0  0  0  0
  -26.0635  -31.5818   20.5979 H   0  0  0  0  0  0
  -26.8304  -30.8734   21.9882 H   0  0  0  0  0  0
  -28.1089  -29.0507   21.1877 H   0  0  0  0  0  0
  -26.0459  -25.9451   19.0278 H   0  0  0  0  0  0
  -23.9775  -27.2942   19.0316 H   0  0  0  0  0  0
  -23.7394  -30.5980   19.4039 H   0  0  0  0  0  0
  -22.7477  -29.2460   19.8610 H   0  0  0  0  0  0
  -25.1282  -36.1970   25.0835 H   0  0  0  0  0  0
  -20.9988  -28.3269   24.1422 H   0  0  0  0  0  0
  -20.5708  -26.2293   23.3614 H   0  0  0  0  0  0
  -21.6644  -26.7463   22.1199 H   0  0  0  0  0  0
  -19.6906  -25.6314   21.1244 H   0  0  0  0  0  0
  -19.6686  -27.3220   20.6759 H   0  0  0  0  0  0
  -17.4201  -26.6707   21.4029 H   0  0  0  0  0  0
  -18.0310  -26.0084   22.9030 H   0  0  0  0  0  0
  -19.7932  -30.7275   24.2296 H   0  0  0  0  0  0
  -17.5009  -31.6270   24.5174 H   0  0  0  0  0  0
  -15.5353  -30.2994   23.7634 H   0  0  0  0  0  0
  -15.8681  -28.0830   22.7044 H   0  0  0  0  0  0
  -24.5885  -30.7095   25.7787 H   0  0  0  0  0  0
  -24.8958  -32.2866   26.4955 H   0  0  0  0  0  0
  -25.8080  -30.8831   27.0207 H   0  0  0  0  0  0
  -26.2867  -29.6789   24.1183 H   0  0  0  0  0  0
  -27.4096  -29.7292   25.4591 H   0  0  0  0  0  0
  -27.8701  -30.4363   23.9273 H   0  0  0  0  0  0
  -27.2706  -33.3605   26.2088 H   0  0  0  0  0  0
  -28.3843  -32.6898   25.0264 H   0  0  0  0  0  0
  -28.0779  -31.8413   26.5348 H   0  0  0  0  0  0
  -28.2599  -38.0102   24.7522 H   0  0  0  0  0  0
  -28.1084  -36.2641   24.6270 H   0  0  0  0  0  0
  -27.2310  -37.1428   25.8867 H   0  0  0  0  0  0
  -20.9331  -29.8753   21.6908 H   0  0  0  0  0  0
  -26.0185  -38.2870   24.1415 H   0  0  0  0  0  0
  -31.4467  -20.2225   20.1385 H   0  0  0  0  0  0
  -27.5247  -25.3723   21.5807 H   0  0  0  0  0  0
  -28.0749  -22.2128   18.5551 H   0  0  0  0  0  0
  -28.3589  -20.5107   18.7874 H   0  0  0  0  0  0
  -29.7346  -21.5930   18.6080 H   0  0  0  0  0  0
  -28.8816  -20.6251   22.3381 H   0  0  0  0  0  0
  -27.6569  -20.1026   21.2402 H   0  0  0  0  0  0
  -28.9682  -15.3499   21.2198 H   0  0  0  0  0  0
  -29.6377  -25.1202   18.9727 H   0  0  0  0  0  0
  1 25  1  0  0  0
  1 30  2  0  0  0
  1 80  1  0  0  0
  2  3  1  0  0  0
  2 25  1  0  0  0
  2 85  1  0  0  0
  2 86  1  0  0  0
  3  4  1  0  0  0
  3 87  1  0  0  0
  3 88  1  0  0  0
  4  5  1  0  0  0
  4 89  1  0  0  0
  4 90  1  0  0  0
  5  6  1  0  0  0
  5 26  1  0  0  0
  5 91  1  0  0  0
  6 25  1  0  0  0
  6 92  1  0  0  0
  6 93  1  0  0  0
  7  8  2  0  0  0
  7 26  1  0  0  0
  7 29  1  0  0  0
  8  9  1  0  0  0
  8 22  1  0  0  0
  9 10  1  0  0  0
  9 27  2  0  0  0
 10 11  2  0  0  0
 10 15  1  0  0  0
 11 12  1  0  0  0
 11 94  1  0  0  0
 12 13  2  0  0  0
 12 95  1  0  0  0
 13 14  1  0  0  0
 13 31  1  0  0  0
 14 15  2  0  0  0
 14 96  1  0  0  0
 15 97  1  0  0  0
 16 17  2  0  0  0
 16 21  1  0  0  0
 16 31  1  0  0  0
 17 18  1  0  0  0
 17 98  1  0  0  0
 18 19  2  0  0  0
 18 99  1  0  0  0
 19 20  1  0  0  0
 19 24  1  0  0  0
 20 21  2  0  0  0
 20100  1  0  0  0
 21 23  1  0  0  0
 22 28  1  0  0  0
 22 32  2  0  0  0
 26 27  1  0  0  0
 28101  1  0  0  0
 28102  1  0  0  0
 29103  1  0  0  0
 29104  1  0  0  0
 33 34  1  0  0  0
 33 66  1  0  0  0
 33 70  2  0  0  0
 34 36  1  0  0  0
 34 59  1  0  0  0
 34105  1  0  0  0
 35 44  2  0  0  0
 35 45  1  0  0  0
 35 68  1  0  0  0
 36 56  1  0  0  0
 36106  1  0  0  0
 37 39  1  0  0  0
 37 47  1  0  0  0
 37 66  1  0  0  0
 37107  1  0  0  0
 38 43  2  0  0  0
 38 46  1  0  0  0
 38 47  1  0  0  0
 39 64  1  0  0  0
 39 67  2  0  0  0
 40 52  1  0  0  0
 40 53  2  0  0  0
 40 58  1  0  0  0
 41108  1  0  0  0
 41109  1  0  0  0
 41110  1  0  0  0
 41 48  1  0  0  0
 42 43  1  0  0  0
 42 66  1  0  0  0
 42111  1  0  0  0
 42112  1  0  0  0
 43 44  1  0  0  0
 44113  1  0  0  0
 45 46  2  0  0  0
 45114  1  0  0  0
 46115  1  0  0  0
 47116  1  0  0  0
 47117  1  0  0  0
 48 56  1  0  0  0
 48 65  1  0  0  0
 48118  1  0  0  0
 49 50  1  0  0  0
 49 53  1  0  0  0
 49 64  1  0  0  0
 49119  1  0  0  0
 50 51  1  0  0  0
 50120  1  0  0  0
 50121  1  0  0  0
 51 52  1  0  0  0
 51122  1  0  0  0
 51123  1  0  0  0
 52124  1  0  0  0
 52125  1  0  0  0
 53 54  1  0  0  0
 54 55  2  0  0  0
 54126  1  0  0  0
 55 57  1  0  0  0
 55127  1  0  0  0
 56 69  2  0  0  0
 57 58  2  0  0  0
 57128  1  0  0  0
 58129  1  0  0  0
 59 60  1  0  0  0
 59 61  1  0  0  0
 59 62  1  0  0  0
 60130  1  0  0  0
 60131  1  0  0  0
 60132  1  0  0  0
 61133  1  0  0  0
 61134  1  0  0  0
 61135  1  0  0  0
 62136  1  0  0  0
 62137  1  0  0  0
 62138  1  0  0  0
 63 65  1  0  0  0
 63139  1  0  0  0
 63140  1  0  0  0
 63141  1  0  0  0
 64142  1  0  0  0
 65143  1  0  0  0
 68 74  1  0  0  0
 71 72  2  0  0  0
 71 84  1  0  0  0
 71144  1  0  0  0
 72 78  1  0  0  0
 72 79  1  0  0  0
 73 79  2  0  0  0
 73 80  1  0  0  0
 73 84  1  0  0  0
 74 75  2  0  0  0
 74145  1  0  0  0
 75 76  1  0  0  0
 75 83  1  0  0  0
 76 81  1  0  0  0
 76 82  2  0  0  0
 77 81  1  0  0  0
 77146  1  0  0  0
 77147  1  0  0  0
 77148  1  0  0  0
 78 81  1  0  0  0
 78149  1  0  0  0
 78150  1  0  0  0
 80151  1  0  0  0
 83152  1  0  0  0
M  ISO  4   1 100  68 101  74 101  80 100
M  END
> <chiral flag>
0

> <version>
0

> <s_m_source_file>
/data/baiqing/PycharmProjects/Reinvent-master-3.2/result/LINK_invent/BTK/process_docking_weight1_custom_product_contain_oxygen_bond_distance_aromatic_linkinvent_7_9_3/rearranged_h_0175.sdf

> <i_m_source_file_index>
43

> <r_mmod_Potential_Energy-OPLS-2005>
-123.239524841309

> <r_mmod_Stretch_Energy-OPLS-2005>
52.3089485168457

> <r_mmod_Bend_Energy-OPLS-2005>
112.615325927734

> <r_mmod_Torsional_Energy-OPLS-2005>
218.389770507812

> <r_mmod_Improper_Torsional_Energy-OPLS-2005>
4.92814683914185

> <r_mmod_Van_der_Waal_Energy-OPLS-2005>
143.917282104492

> <r_mmod_Electrostatic_Energy-OPLS-2005>
-452.799468994141

> <r_mmod_Solvation_Energy-OPLS-2005>
-227.458114624023

> <b_mmod_Minimization_Converged-OPLS-2005>
0

> <r_mmod_RMS_Derivative-OPLS-2005>
1.75719034671783

$$$$
44
                    3D
 Structure written by MMmdl.
156164  0  0  1  0            999 V2000
  -30.7158  -14.4421   20.5602 C   0  0  0  0  0  0
  -30.4175  -12.2837   19.4265 C   0  0  0  0  0  0
  -29.4938  -12.4975   18.2081 C   0  0  0  0  0  0
  -28.0138  -12.3672   18.6182 C   0  0  0  0  0  0
  -27.6633  -13.2064   19.8766 C   0  0  2  0  0  0
  -28.7040  -12.9832   20.9995 C   0  0  0  0  0  0
  -25.2607  -13.8178   20.5704 C   0  0  0  0  0  0
  -24.1837  -13.0441   20.9164 C   0  0  0  0  0  0
  -24.6389  -11.6905   20.8741 C   0  0  0  0  0  0
  -23.9053  -10.4291   21.0413 C   0  0  0  0  0  0
  -24.3618   -9.4205   21.9182 C   0  0  0  0  0  0
  -23.6299   -8.2240   22.0745 C   0  0  0  0  0  0
  -22.4274   -8.0285   21.3546 C   0  0  0  0  0  0
  -21.9908   -9.0249   20.4636 C   0  0  0  0  0  0
  -22.7236  -10.2132   20.3052 C   0  0  0  0  0  0
  -21.6852   -6.0734   22.5289 C   0  0  0  0  0  0
  -21.4007   -6.5639   23.8223 C   0  0  0  0  0  0
  -21.3657   -5.6791   24.9178 C   0  0  0  0  0  0
  -21.6053   -4.3058   24.7232 C   0  0  0  0  0  0
  -21.8818   -3.8145   23.4355 C   0  0  0  0  0  0
  -21.9195   -4.6961   22.3405 C   0  0  0  0  0  0
  -22.7860  -13.5234   21.1834 C   0  0  0  0  0  0
  -22.1659   -4.2142   21.0981 F   0  0  0  0  0  0
  -21.5631   -3.4542   25.7753 F   0  0  0  0  0  0
  -30.0411  -13.2677   20.4530 N   0  0  0  0  0  0
  -26.3032  -12.9331   20.3374 N   0  0  0  0  0  0
  -25.9322  -11.6489   20.5771 N   0  0  0  0  0  0
  -22.0499  -12.8232   22.0397 N   0  0  0  0  0  0
  -25.4371  -15.1892   20.4198 N   0  0  0  0  0  0
  -31.8461  -14.6158   20.0953 O   0  0  0  0  0  0
  -21.6645   -6.8881   21.4255 O   0  0  0  0  0  0
  -22.3549  -14.5545   20.6697 O   0  0  0  0  0  0
  -24.6096  -31.8707   23.2122 C   0  0  0  0  0  0
  -25.9010  -32.4835   23.8396 C   0  0  1  0  0  0
  -27.2379  -27.4695   20.0890 C   0  0  0  0  0  0
  -25.5889  -33.8631   24.2320 N   0  0  0  0  0  0
  -23.3959  -30.4915   21.5515 C   0  0  2  0  0  0
  -24.8459  -28.9583   20.1169 C   0  0  0  0  0  0
  -22.7376  -29.4647   22.5013 C   0  0  0  0  0  0
  -18.0268  -28.1355   22.8486 C   0  0  0  0  0  0
  -24.1480  -36.7317   23.2607 C   0  0  0  0  0  0
  -25.9188  -30.8453   21.3599 C   0  0  0  0  0  0
  -26.0001  -29.4773   20.7182 C   0  0  0  0  0  0
  -27.2008  -28.7350   20.7133 C   0  0  0  0  0  0
  -26.0740  -26.9564   19.4848 C   0  0  0  0  0  0
  -24.8745  -27.6936   19.5022 C   0  0  0  0  0  0
  -23.6033  -29.8197   20.1664 C   0  0  0  0  0  0
  -25.4081  -36.3108   24.0337 C   0  0  1  0  0  0
  -20.5852  -28.3621   23.1331 C   0  0  2  0  0  0
  -20.6757  -26.9365   22.5414 C   0  0  0  0  0  0
  -19.5748  -26.6363   21.5190 C   0  0  0  0  0  0
  -18.1918  -26.7903   22.1597 C   0  0  0  0  0  0
  -19.1516  -28.8800   23.2918 C   0  0  0  0  0  0
  -18.9447  -30.1414   23.8917 C   0  0  0  0  0  0
  -17.6447  -30.6565   24.0544 C   0  0  0  0  0  0
  -25.9039  -34.9489   23.5131 C   0  0  0  0  0  0
  -16.5343  -29.9067   23.6305 C   0  0  0  0  0  0
  -16.7256  -28.6486   23.0329 C   0  0  0  0  0  0
  -26.4458  -31.6591   25.0699 C   0  0  0  0  0  0
  -25.3742  -31.3712   26.1458 C   0  0  0  0  0  0
  -27.0252  -30.3031   24.6024 C   0  0  0  0  0  0
  -27.6045  -32.4283   25.7472 C   0  0  0  0  0  0
  -27.5638  -37.1703   24.8377 C   0  0  0  0  0  0
  -21.4107  -29.3016   22.3765 N   0  0  0  0  0  0
  -26.4220  -37.3849   23.9524 N   0  0  0  0  0  0
  -24.6590  -31.0836   22.1003 N   0  0  0  0  0  0
  -23.4174  -28.8184   23.3029 O   0  0  0  0  0  0
  -28.3906  -26.7339   20.0313 O   0  0  0  0  0  0
  -26.5609  -34.8950   22.4698 O   0  0  0  0  0  0
  -23.5302  -32.1436   23.7552 O   0  0  0  0  0  0
  -30.5087  -17.8805   21.3978 C   0  0  0  0  0  0
  -30.1419  -16.7997   20.5588 C   0  0  0  0  0  0
  -30.6759  -19.1810   20.8615 C   0  0  0  0  0  0
  -29.8781  -17.0502   19.1894 C   0  0  0  0  0  0
  -30.4513  -19.4021   19.4841 C   0  0  0  0  0  0
  -30.0360  -18.3431   18.6557 C   0  0  0  0  0  0
  -30.5689  -22.6706   21.7764 C   0  0  0  0  0  0
  -29.1273  -24.6153   20.9652 C   0  0  0  0  0  0
  -29.6338  -23.8153   22.1727 C   0  0  0  0  0  0
  -30.0353  -21.2376   21.9139 C   0  0  0  0  0  0
  -28.7102  -26.0650   21.2496 C   0  0  0  0  0  0
  -30.0264  -15.4751   21.0778 N   0  0  0  0  0  0
  -31.0834  -20.2411   21.6857 N   0  0  0  0  0  0
  -31.7291  -22.8758   21.3994 O   0  0  0  0  0  0
  -29.0029  -24.1163   19.8382 O   0  0  0  0  0  0
  -29.4640  -16.0474   18.3767 F   0  0  0  0  0  0
  -30.6252  -20.6395   18.9555 F   0  0  0  0  0  0
  -29.7910  -18.5681   17.3420 F   0  0  0  0  0  0
  -31.4632  -12.3663   19.1261 H   0  0  0  0  0  0
  -30.3022  -11.2736   19.8216 H   0  0  0  0  0  0
  -29.7262  -11.7725   17.4267 H   0  0  0  0  0  0
  -29.6699  -13.4840   17.7760 H   0  0  0  0  0  0
  -27.8212  -11.3118   18.8143 H   0  0  0  0  0  0
  -27.3639  -12.6451   17.7867 H   0  0  0  0  0  0
  -27.7083  -14.2546   19.5814 H   0  0  0  0  0  0
  -28.6694  -11.9483   21.3430 H   0  0  0  0  0  0
  -28.4732  -13.5903   21.8771 H   0  0  0  0  0  0
  -25.2777   -9.5670   22.4741 H   0  0  0  0  0  0
  -24.0010   -7.4625   22.7458 H   0  0  0  0  0  0
  -21.0834   -8.8757   19.8953 H   0  0  0  0  0  0
  -22.3696  -10.9652   19.6146 H   0  0  0  0  0  0
  -21.1986   -7.6146   23.9720 H   0  0  0  0  0  0
  -21.1486   -6.0521   25.9076 H   0  0  0  0  0  0
  -22.0602   -2.7603   23.2877 H   0  0  0  0  0  0
  -22.4108  -11.9886   22.4775 H   0  0  0  0  0  0
  -21.1121  -13.1271   22.2614 H   0  0  0  0  0  0
  -24.6841  -15.8553   20.5520 H   0  0  0  0  0  0
  -26.3033  -15.6247   20.1297 H   0  0  0  0  0  0
  -26.7079  -32.5592   23.1168 H   0  0  0  0  0  0
  -25.0058  -33.9798   25.0475 H   0  0  0  0  0  0
  -22.6813  -31.3067   21.4132 H   0  0  0  0  0  0
  -23.3836  -35.9539   23.3028 H   0  0  0  0  0  0
  -24.3666  -36.9186   22.2081 H   0  0  0  0  0  0
  -23.7071  -37.6380   23.6776 H   0  0  0  0  0  0
  -26.0161  -31.6056   20.5842 H   0  0  0  0  0  0
  -26.8116  -30.9079   21.9690 H   0  0  0  0  0  0
  -28.0953  -29.1327   21.1739 H   0  0  0  0  0  0
  -26.1000  -25.9904   19.0016 H   0  0  0  0  0  0
  -23.9856  -27.2902   19.0373 H   0  0  0  0  0  0
  -23.7037  -30.5911   19.4027 H   0  0  0  0  0  0
  -22.7284  -29.2346   19.8785 H   0  0  0  0  0  0
  -25.1205  -36.1923   25.0810 H   0  0  0  0  0  0
  -20.9938  -28.3167   24.1448 H   0  0  0  0  0  0
  -20.5640  -26.2217   23.3589 H   0  0  0  0  0  0
  -21.6638  -26.7398   22.1227 H   0  0  0  0  0  0
  -19.6918  -25.6274   21.1212 H   0  0  0  0  0  0
  -19.6706  -27.3187   20.6738 H   0  0  0  0  0  0
  -17.4197  -26.6654   21.3990 H   0  0  0  0  0  0
  -18.0322  -26.0034   22.8983 H   0  0  0  0  0  0
  -19.7928  -30.7228   24.2297 H   0  0  0  0  0  0
  -17.5007  -31.6245   24.5135 H   0  0  0  0  0  0
  -15.5351  -30.2982   23.7612 H   0  0  0  0  0  0
  -15.8659  -28.0825   22.7020 H   0  0  0  0  0  0
  -24.5895  -30.7071   25.7811 H   0  0  0  0  0  0
  -24.8974  -32.2891   26.4911 H   0  0  0  0  0  0
  -25.8117  -30.8878   27.0202 H   0  0  0  0  0  0
  -26.2754  -29.6833   24.1085 H   0  0  0  0  0  0
  -27.4038  -29.7223   25.4449 H   0  0  0  0  0  0
  -27.8596  -30.4351   23.9125 H   0  0  0  0  0  0
  -27.2656  -33.3561   26.2100 H   0  0  0  0  0  0
  -28.3856  -32.6865   25.0302 H   0  0  0  0  0  0
  -28.0702  -31.8364   26.5366 H   0  0  0  0  0  0
  -28.2310  -38.0320   24.7985 H   0  0  0  0  0  0
  -28.1476  -36.2952   24.5483 H   0  0  0  0  0  0
  -27.2493  -37.0462   25.8752 H   0  0  0  0  0  0
  -20.9242  -29.8765   21.7032 H   0  0  0  0  0  0
  -26.0094  -38.2838   24.1881 H   0  0  0  0  0  0
  -30.6974  -17.7044   22.4481 H   0  0  0  0  0  0
  -30.1626  -24.4870   22.8485 H   0  0  0  0  0  0
  -28.7789  -23.4130   22.7155 H   0  0  0  0  0  0
  -29.2058  -21.1185   21.2163 H   0  0  0  0  0  0
  -29.6286  -21.1141   22.9169 H   0  0  0  0  0  0
  -29.5246  -26.5896   21.7505 H   0  0  0  0  0  0
  -27.8582  -26.0514   21.9323 H   0  0  0  0  0  0
  -29.1641  -15.2448   21.5491 H   0  0  0  0  0  0
  -31.8418  -20.7720   21.2547 H   0  0  0  0  0  0
  1 25  1  0  0  0
  1 30  2  0  0  0
  1 82  1  0  0  0
  2  3  1  0  0  0
  2 25  1  0  0  0
  2 89  1  0  0  0
  2 90  1  0  0  0
  3  4  1  0  0  0
  3 91  1  0  0  0
  3 92  1  0  0  0
  4  5  1  0  0  0
  4 93  1  0  0  0
  4 94  1  0  0  0
  5  6  1  0  0  0
  5 26  1  0  0  0
  5 95  1  0  0  0
  6 25  1  0  0  0
  6 96  1  0  0  0
  6 97  1  0  0  0
  7  8  2  0  0  0
  7 26  1  0  0  0
  7 29  1  0  0  0
  8  9  1  0  0  0
  8 22  1  0  0  0
  9 10  1  0  0  0
  9 27  2  0  0  0
 10 11  2  0  0  0
 10 15  1  0  0  0
 11 12  1  0  0  0
 11 98  1  0  0  0
 12 13  2  0  0  0
 12 99  1  0  0  0
 13 14  1  0  0  0
 13 31  1  0  0  0
 14 15  2  0  0  0
 14100  1  0  0  0
 15101  1  0  0  0
 16 17  2  0  0  0
 16 21  1  0  0  0
 16 31  1  0  0  0
 17 18  1  0  0  0
 17102  1  0  0  0
 18 19  2  0  0  0
 18103  1  0  0  0
 19 20  1  0  0  0
 19 24  1  0  0  0
 20 21  2  0  0  0
 20104  1  0  0  0
 21 23  1  0  0  0
 22 28  1  0  0  0
 22 32  2  0  0  0
 26 27  1  0  0  0
 28105  1  0  0  0
 28106  1  0  0  0
 29107  1  0  0  0
 29108  1  0  0  0
 33 34  1  0  0  0
 33 66  1  0  0  0
 33 70  2  0  0  0
 34 36  1  0  0  0
 34 59  1  0  0  0
 34109  1  0  0  0
 35 44  2  0  0  0
 35 45  1  0  0  0
 35 68  1  0  0  0
 36 56  1  0  0  0
 36110  1  0  0  0
 37 39  1  0  0  0
 37 47  1  0  0  0
 37 66  1  0  0  0
 37111  1  0  0  0
 38 43  2  0  0  0
 38 46  1  0  0  0
 38 47  1  0  0  0
 39 64  1  0  0  0
 39 67  2  0  0  0
 40 52  1  0  0  0
 40 53  2  0  0  0
 40 58  1  0  0  0
 41112  1  0  0  0
 41113  1  0  0  0
 41114  1  0  0  0
 41 48  1  0  0  0
 42 43  1  0  0  0
 42 66  1  0  0  0
 42115  1  0  0  0
 42116  1  0  0  0
 43 44  1  0  0  0
 44117  1  0  0  0
 45 46  2  0  0  0
 45118  1  0  0  0
 46119  1  0  0  0
 47120  1  0  0  0
 47121  1  0  0  0
 48 56  1  0  0  0
 48 65  1  0  0  0
 48122  1  0  0  0
 49 50  1  0  0  0
 49 53  1  0  0  0
 49 64  1  0  0  0
 49123  1  0  0  0
 50 51  1  0  0  0
 50124  1  0  0  0
 50125  1  0  0  0
 51 52  1  0  0  0
 51126  1  0  0  0
 51127  1  0  0  0
 52128  1  0  0  0
 52129  1  0  0  0
 53 54  1  0  0  0
 54 55  2  0  0  0
 54130  1  0  0  0
 55 57  1  0  0  0
 55131  1  0  0  0
 56 69  2  0  0  0
 57 58  2  0  0  0
 57132  1  0  0  0
 58133  1  0  0  0
 59 60  1  0  0  0
 59 61  1  0  0  0
 59 62  1  0  0  0
 60134  1  0  0  0
 60135  1  0  0  0
 60136  1  0  0  0
 61137  1  0  0  0
 61138  1  0  0  0
 61139  1  0  0  0
 62140  1  0  0  0
 62141  1  0  0  0
 62142  1  0  0  0
 63 65  1  0  0  0
 63143  1  0  0  0
 63144  1  0  0  0
 63145  1  0  0  0
 64146  1  0  0  0
 65147  1  0  0  0
 68 81  1  0  0  0
 71 72  2  0  0  0
 71 73  1  0  0  0
 71148  1  0  0  0
 72 74  1  0  0  0
 72 82  1  0  0  0
 73 75  2  0  0  0
 73 83  1  0  0  0
 74 76  2  0  0  0
 74 86  1  0  0  0
 75 76  1  0  0  0
 75 87  1  0  0  0
 76 88  1  0  0  0
 77 79  1  0  0  0
 77 80  1  0  0  0
 77 84  2  0  0  0
 78 79  1  0  0  0
 78 81  1  0  0  0
 78 85  2  0  0  0
 79149  1  0  0  0
 79150  1  0  0  0
 80 83  1  0  0  0
 80151  1  0  0  0
 80152  1  0  0  0
 81153  1  0  0  0
 81154  1  0  0  0
 82155  1  0  0  0
 83156  1  0  0  0
M  ISO  4   1 100  68 101  81 101  82 100
M  END
> <chiral flag>
0

> <version>
0

> <s_m_source_file>
/data/baiqing/PycharmProjects/Reinvent-master-3.2/result/LINK_invent/BTK/process_docking_weight1_custom_product_contain_oxygen_bond_distance_aromatic_linkinvent_7_9_3/rearranged_h_0175.sdf

> <i_m_source_file_index>
44

> <r_mmod_Potential_Energy-OPLS-2005>
-25.325626373291

> <r_mmod_Stretch_Energy-OPLS-2005>
34.0046157836914

> <r_mmod_Bend_Energy-OPLS-2005>
88.0694732666016

> <r_mmod_Torsional_Energy-OPLS-2005>
290.998199462891

> <r_mmod_Improper_Torsional_Energy-OPLS-2005>
11.877423286438

> <r_mmod_Van_der_Waal_Energy-OPLS-2005>
149.283676147461

> <r_mmod_Electrostatic_Energy-OPLS-2005>
-359.098175048828

> <r_mmod_Solvation_Energy-OPLS-2005>
-250.393402099609

> <b_mmod_Minimization_Converged-OPLS-2005>
0

> <r_mmod_RMS_Derivative-OPLS-2005>
2.6387791633606

$$$$
45
                    3D
 Structure written by MMmdl.
155163  0  0  1  0            999 V2000
  -30.6849  -14.4833   20.5737 C   0  0  0  0  0  0
  -30.4251  -12.3155   19.4239 C   0  0  0  0  0  0
  -29.4944  -12.5096   18.2071 C   0  0  0  0  0  0
  -28.0147  -12.3674   18.6174 C   0  0  0  0  0  0
  -27.6609  -13.2039   19.8760 C   0  0  2  0  0  0
  -28.7026  -12.9823   20.9970 C   0  0  0  0  0  0
  -25.2597  -13.8152   20.5685 C   0  0  0  0  0  0
  -24.1844  -13.0445   20.9186 C   0  0  0  0  0  0
  -24.6388  -11.6906   20.8740 C   0  0  0  0  0  0
  -23.9057  -10.4298   21.0419 C   0  0  0  0  0  0
  -24.3612   -9.4208   21.9194 C   0  0  0  0  0  0
  -23.6291   -8.2242   22.0757 C   0  0  0  0  0  0
  -22.4281   -8.0282   21.3546 C   0  0  0  0  0  0
  -21.9918   -9.0259   20.4649 C   0  0  0  0  0  0
  -22.7239  -10.2141   20.3064 C   0  0  0  0  0  0
  -21.6847   -6.0737   22.5278 C   0  0  0  0  0  0
  -21.4008   -6.5634   23.8217 C   0  0  0  0  0  0
  -21.3657   -5.6793   24.9183 C   0  0  0  0  0  0
  -21.6043   -4.3055   24.7227 C   0  0  0  0  0  0
  -21.8823   -3.8159   23.4343 C   0  0  0  0  0  0
  -21.9186   -4.6971   22.3394 C   0  0  0  0  0  0
  -22.7869  -13.5249   21.1853 C   0  0  0  0  0  0
  -22.1656   -4.2161   21.0969 F   0  0  0  0  0  0
  -21.5633   -3.4535   25.7739 F   0  0  0  0  0  0
  -30.0324  -13.2967   20.4479 N   0  0  0  0  0  0
  -26.3022  -12.9313   20.3364 N   0  0  0  0  0  0
  -25.9312  -11.6478   20.5760 N   0  0  0  0  0  0
  -22.0504  -12.8236   22.0394 N   0  0  0  0  0  0
  -25.4344  -15.1875   20.4101 N   0  0  0  0  0  0
  -31.8126  -14.6696   20.1094 O   0  0  0  0  0  0
  -21.6626   -6.8893   21.4249 O   0  0  0  0  0  0
  -22.3559  -14.5562   20.6712 O   0  0  0  0  0  0
  -24.6169  -31.8661   23.2107 C   0  0  0  0  0  0
  -25.9057  -32.4820   23.8407 C   0  0  1  0  0  0
  -27.2417  -27.4318   20.1056 C   0  0  0  0  0  0
  -25.5911  -33.8614   24.2345 N   0  0  0  0  0  0
  -23.4052  -30.4892   21.5489 C   0  0  2  0  0  0
  -24.8553  -28.9455   20.1241 C   0  0  0  0  0  0
  -22.7407  -29.4663   22.4983 C   0  0  0  0  0  0
  -18.0271  -28.1399   22.8516 C   0  0  0  0  0  0
  -24.1482  -36.7289   23.2646 C   0  0  0  0  0  0
  -25.9330  -30.8308   21.3656 C   0  0  0  0  0  0
  -26.0137  -29.4608   20.7214 C   0  0  0  0  0  0
  -27.2124  -28.7095   20.7112 C   0  0  0  0  0  0
  -26.0712  -26.9284   19.5062 C   0  0  0  0  0  0
  -24.8783  -27.6771   19.5159 C   0  0  0  0  0  0
  -23.6178  -29.8141   20.1667 C   0  0  0  0  0  0
  -25.4103  -36.3101   24.0348 C   0  0  1  0  0  0
  -20.5853  -28.3686   23.1319 C   0  0  2  0  0  0
  -20.6738  -26.9407   22.5444 C   0  0  0  0  0  0
  -19.5726  -26.6395   21.5230 C   0  0  0  0  0  0
  -18.1893  -26.7970   22.1610 C   0  0  0  0  0  0
  -19.1520  -28.8859   23.2919 C   0  0  0  0  0  0
  -18.9453  -30.1468   23.8923 C   0  0  0  0  0  0
  -17.6449  -30.6597   24.0589 C   0  0  0  0  0  0
  -25.9026  -34.9473   23.5136 C   0  0  0  0  0  0
  -16.5344  -29.9098   23.6347 C   0  0  0  0  0  0
  -16.7261  -28.6523   23.0367 C   0  0  0  0  0  0
  -26.4490  -31.6612   25.0750 C   0  0  0  0  0  0
  -25.3773  -31.3719   26.1517 C   0  0  0  0  0  0
  -27.0324  -30.3054   24.6149 C   0  0  0  0  0  0
  -27.6067  -32.4340   25.7486 C   0  0  0  0  0  0
  -27.5586  -37.1783   24.8460 C   0  0  0  0  0  0
  -21.4132  -29.3044   22.3711 N   0  0  0  0  0  0
  -26.4277  -37.3795   23.9435 N   0  0  0  0  0  0
  -24.6690  -31.0773   22.1004 N   0  0  0  0  0  0
  -23.4169  -28.8213   23.3039 O   0  0  0  0  0  0
  -28.4012  -26.6938   20.0354 O   0  0  0  0  0  0
  -26.5564  -34.8930   22.4682 O   0  0  0  0  0  0
  -23.5358  -32.1384   23.7513 O   0  0  0  0  0  0
  -31.4368  -17.5097   20.8629 C   0  0  0  0  0  0
  -29.1015  -17.7753   21.3783 C   0  0  0  0  0  0
  -30.1814  -16.9045   21.1070 C   0  0  0  0  0  0
  -31.5576  -18.9120   20.9240 C   0  0  0  0  0  0
  -30.4152  -19.6964   21.2181 C   0  0  0  0  0  0
  -30.5671  -21.1899   21.4436 C   0  0  0  0  0  0
  -28.6015  -24.2984   20.6244 C   0  0  0  0  0  0
  -28.6154  -25.7677   21.1124 C   0  0  0  0  0  0
  -29.9220  -23.4932   20.7266 C   0  0  2  0  0  0
  -30.9153  -23.8514   19.5931 C   0  0  0  0  0  0
  -29.2001  -19.1271   21.4240 N   0  0  0  0  0  0
  -29.9507  -15.4829   21.1121 N   0  0  0  0  0  0
  -29.7227  -22.0227   20.8059 N   0  0  0  0  0  0
  -31.4750  -21.6198   22.1608 O   0  0  0  0  0  0
  -27.5534  -23.8019   20.1938 O   0  0  0  0  0  0
  -32.7696  -19.4811   20.7067 F   0  0  0  0  0  0
  -32.0770  -23.2131   19.7422 F   0  0  0  0  0  0
  -31.1689  -25.1606   19.5823 F   0  0  0  0  0  0
  -30.4014  -23.5182   18.4071 F   0  0  0  0  0  0
  -31.4693  -12.4201   19.1240 H   0  0  0  0  0  0
  -30.3278  -11.3043   19.8229 H   0  0  0  0  0  0
  -29.7396  -11.7883   17.4256 H   0  0  0  0  0  0
  -29.6588  -13.4967   17.7730 H   0  0  0  0  0  0
  -27.8259  -11.3109   18.8090 H   0  0  0  0  0  0
  -27.3680  -12.6467   17.7846 H   0  0  0  0  0  0
  -27.7035  -14.2511   19.5767 H   0  0  0  0  0  0
  -28.6845  -11.9440   21.3316 H   0  0  0  0  0  0
  -28.4624  -13.5721   21.8828 H   0  0  0  0  0  0
  -25.2768   -9.5659   22.4758 H   0  0  0  0  0  0
  -23.9997   -7.4630   22.7481 H   0  0  0  0  0  0
  -21.0848   -8.8788   19.8955 H   0  0  0  0  0  0
  -22.3719  -10.9686   19.6162 H   0  0  0  0  0  0
  -21.1997   -7.6134   23.9726 H   0  0  0  0  0  0
  -21.1474   -6.0519   25.9089 H   0  0  0  0  0  0
  -22.0598   -2.7629   23.2845 H   0  0  0  0  0  0
  -22.4096  -11.9868   22.4746 H   0  0  0  0  0  0
  -21.1142  -13.1288   22.2642 H   0  0  0  0  0  0
  -24.6689  -15.8452   20.5081 H   0  0  0  0  0  0
  -26.2817  -15.6201   20.0665 H   0  0  0  0  0  0
  -26.7140  -32.5557   23.1182 H   0  0  0  0  0  0
  -25.0186  -33.9790   25.0575 H   0  0  0  0  0  0
  -22.6957  -31.3060   21.4048 H   0  0  0  0  0  0
  -23.3775  -35.9585   23.3275 H   0  0  0  0  0  0
  -24.3569  -36.8935   22.2063 H   0  0  0  0  0  0
  -23.7200  -37.6461   23.6695 H   0  0  0  0  0  0
  -26.0430  -31.5928   20.5926 H   0  0  0  0  0  0
  -26.8198  -30.8908   21.9842 H   0  0  0  0  0  0
  -28.1120  -29.1082   21.1586 H   0  0  0  0  0  0
  -26.0869  -25.9595   19.0261 H   0  0  0  0  0  0
  -23.9889  -27.2732   19.0525 H   0  0  0  0  0  0
  -23.7302  -30.5827   19.4012 H   0  0  0  0  0  0
  -22.7436  -29.2305   19.8730 H   0  0  0  0  0  0
  -25.1275  -36.1955   25.0837 H   0  0  0  0  0  0
  -20.9952  -28.3281   24.1438 H   0  0  0  0  0  0
  -20.5630  -26.2297   23.3642 H   0  0  0  0  0  0
  -21.6617  -26.7405   22.1279 H   0  0  0  0  0  0
  -19.6862  -25.6308   21.1261 H   0  0  0  0  0  0
  -19.6695  -27.3201   20.6759 H   0  0  0  0  0  0
  -17.4186  -26.6818   21.3968 H   0  0  0  0  0  0
  -18.0190  -26.0079   22.8951 H   0  0  0  0  0  0
  -19.7920  -30.7308   24.2274 H   0  0  0  0  0  0
  -17.4996  -31.6269   24.5213 H   0  0  0  0  0  0
  -15.5349  -30.3006   23.7660 H   0  0  0  0  0  0
  -15.8671  -28.0853   22.7047 H   0  0  0  0  0  0
  -24.6028  -30.6943   25.7914 H   0  0  0  0  0  0
  -24.8866  -32.2856   26.4868 H   0  0  0  0  0  0
  -25.8168  -30.9037   27.0333 H   0  0  0  0  0  0
  -26.2856  -29.6788   24.1267 H   0  0  0  0  0  0
  -27.4135  -29.7344   25.4624 H   0  0  0  0  0  0
  -27.8671  -30.4365   23.9263 H   0  0  0  0  0  0
  -27.2704  -33.3660   26.2030 H   0  0  0  0  0  0
  -28.3865  -32.6849   25.0292 H   0  0  0  0  0  0
  -28.0748  -31.8495   26.5414 H   0  0  0  0  0  0
  -28.2590  -38.0098   24.7529 H   0  0  0  0  0  0
  -28.1097  -36.2620   24.6245 H   0  0  0  0  0  0
  -27.2322  -37.1402   25.8872 H   0  0  0  0  0  0
  -20.9293  -29.8784   21.6948 H   0  0  0  0  0  0
  -26.0168  -38.2856   24.1499 H   0  0  0  0  0  0
  -32.3255  -16.9350   20.6539 H   0  0  0  0  0  0
  -28.1185  -17.3707   21.5739 H   0  0  0  0  0  0
  -29.5772  -25.9889   21.5769 H   0  0  0  0  0  0
  -27.8585  -25.8952   21.8884 H   0  0  0  0  0  0
  -30.3900  -23.8139   21.6582 H   0  0  0  0  0  0
  -29.0388  -15.1868   21.4274 H   0  0  0  0  0  0
  -28.9774  -21.6131   20.2612 H   0  0  0  0  0  0
  1 25  1  0  0  0
  1 30  2  0  0  0
  1 82  1  0  0  0
  2  3  1  0  0  0
  2 25  1  0  0  0
  2 90  1  0  0  0
  2 91  1  0  0  0
  3  4  1  0  0  0
  3 92  1  0  0  0
  3 93  1  0  0  0
  4  5  1  0  0  0
  4 94  1  0  0  0
  4 95  1  0  0  0
  5  6  1  0  0  0
  5 26  1  0  0  0
  5 96  1  0  0  0
  6 25  1  0  0  0
  6 97  1  0  0  0
  6 98  1  0  0  0
  7  8  2  0  0  0
  7 26  1  0  0  0
  7 29  1  0  0  0
  8  9  1  0  0  0
  8 22  1  0  0  0
  9 10  1  0  0  0
  9 27  2  0  0  0
 10 11  2  0  0  0
 10 15  1  0  0  0
 11 12  1  0  0  0
 11 99  1  0  0  0
 12 13  2  0  0  0
 12100  1  0  0  0
 13 14  1  0  0  0
 13 31  1  0  0  0
 14 15  2  0  0  0
 14101  1  0  0  0
 15102  1  0  0  0
 16 17  2  0  0  0
 16 21  1  0  0  0
 16 31  1  0  0  0
 17 18  1  0  0  0
 17103  1  0  0  0
 18 19  2  0  0  0
 18104  1  0  0  0
 19 20  1  0  0  0
 19 24  1  0  0  0
 20 21  2  0  0  0
 20105  1  0  0  0
 21 23  1  0  0  0
 22 28  1  0  0  0
 22 32  2  0  0  0
 26 27  1  0  0  0
 28106  1  0  0  0
 28107  1  0  0  0
 29108  1  0  0  0
 29109  1  0  0  0
 33 34  1  0  0  0
 33 66  1  0  0  0
 33 70  2  0  0  0
 34 36  1  0  0  0
 34 59  1  0  0  0
 34110  1  0  0  0
 35 44  2  0  0  0
 35 45  1  0  0  0
 35 68  1  0  0  0
 36 56  1  0  0  0
 36111  1  0  0  0
 37 39  1  0  0  0
 37 47  1  0  0  0
 37 66  1  0  0  0
 37112  1  0  0  0
 38 43  2  0  0  0
 38 46  1  0  0  0
 38 47  1  0  0  0
 39 64  1  0  0  0
 39 67  2  0  0  0
 40 52  1  0  0  0
 40 53  2  0  0  0
 40 58  1  0  0  0
 41113  1  0  0  0
 41114  1  0  0  0
 41115  1  0  0  0
 41 48  1  0  0  0
 42 43  1  0  0  0
 42 66  1  0  0  0
 42116  1  0  0  0
 42117  1  0  0  0
 43 44  1  0  0  0
 44118  1  0  0  0
 45 46  2  0  0  0
 45119  1  0  0  0
 46120  1  0  0  0
 47121  1  0  0  0
 47122  1  0  0  0
 48 56  1  0  0  0
 48 65  1  0  0  0
 48123  1  0  0  0
 49 50  1  0  0  0
 49 53  1  0  0  0
 49 64  1  0  0  0
 49124  1  0  0  0
 50 51  1  0  0  0
 50125  1  0  0  0
 50126  1  0  0  0
 51 52  1  0  0  0
 51127  1  0  0  0
 51128  1  0  0  0
 52129  1  0  0  0
 52130  1  0  0  0
 53 54  1  0  0  0
 54 55  2  0  0  0
 54131  1  0  0  0
 55 57  1  0  0  0
 55132  1  0  0  0
 56 69  2  0  0  0
 57 58  2  0  0  0
 57133  1  0  0  0
 58134  1  0  0  0
 59 60  1  0  0  0
 59 61  1  0  0  0
 59 62  1  0  0  0
 60135  1  0  0  0
 60136  1  0  0  0
 60137  1  0  0  0
 61138  1  0  0  0
 61139  1  0  0  0
 61140  1  0  0  0
 62141  1  0  0  0
 62142  1  0  0  0
 62143  1  0  0  0
 63 65  1  0  0  0
 63144  1  0  0  0
 63145  1  0  0  0
 63146  1  0  0  0
 64147  1  0  0  0
 65148  1  0  0  0
 68 78  1  0  0  0
 71 73  2  0  0  0
 71 74  1  0  0  0
 71149  1  0  0  0
 72 73  1  0  0  0
 72 81  2  0  0  0
 72150  1  0  0  0
 73 82  1  0  0  0
 74 75  2  0  0  0
 74 86  1  0  0  0
 75 76  1  0  0  0
 75 81  1  0  0  0
 76 83  1  0  0  0
 76 84  2  0  0  0
 77 78  1  0  0  0
 77 79  1  0  0  0
 77 85  2  0  0  0
 78151  1  0  0  0
 78152  1  0  0  0
 79 80  1  0  0  0
 79 83  1  0  0  0
 79153  1  0  0  0
 80 87  1  0  0  0
 80 88  1  0  0  0
 80 89  1  0  0  0
 82154  1  0  0  0
 83155  1  0  0  0
M  ISO  4   1 100  68 101  78 101  82 100
M  END
> <chiral flag>
0

> <version>
0

> <s_m_source_file>
/data/baiqing/PycharmProjects/Reinvent-master-3.2/result/LINK_invent/BTK/process_docking_weight1_custom_product_contain_oxygen_bond_distance_aromatic_linkinvent_7_9_3/rearranged_h_0175.sdf

> <i_m_source_file_index>
45

> <r_mmod_Potential_Energy-OPLS-2005>
-237.427536010742

> <r_mmod_Stretch_Energy-OPLS-2005>
41.5115394592285

> <r_mmod_Bend_Energy-OPLS-2005>
98.9600372314453

> <r_mmod_Torsional_Energy-OPLS-2005>
258.816436767578

> <r_mmod_Improper_Torsional_Energy-OPLS-2005>
4.4178581237793

> <r_mmod_Van_der_Waal_Energy-OPLS-2005>
156.757598876953

> <r_mmod_Electrostatic_Energy-OPLS-2005>
-574.903991699219

> <r_mmod_Solvation_Energy-OPLS-2005>
-235.310668945312

> <b_mmod_Minimization_Converged-OPLS-2005>
0

> <r_mmod_RMS_Derivative-OPLS-2005>
2.39201426506042

$$$$
46
                    3D
 Structure written by MMmdl.
156164  0  0  1  0            999 V2000
  -30.6887  -14.5178   20.5306 C   0  0  0  0  0  0
  -30.4199  -12.3186   19.4493 C   0  0  0  0  0  0
  -29.5048  -12.5052   18.2204 C   0  0  0  0  0  0
  -28.0258  -12.3611   18.6262 C   0  0  0  0  0  0
  -27.6591  -13.2144   19.8716 C   0  0  2  0  0  0
  -28.6971  -13.0375   21.0046 C   0  0  0  0  0  0
  -25.2580  -13.8166   20.5693 C   0  0  0  0  0  0
  -24.1826  -13.0442   20.9159 C   0  0  0  0  0  0
  -24.6387  -11.6906   20.8704 C   0  0  0  0  0  0
  -23.9049  -10.4286   21.0395 C   0  0  0  0  0  0
  -24.3597   -9.4205   21.9180 C   0  0  0  0  0  0
  -23.6264   -8.2244   22.0764 C   0  0  0  0  0  0
  -22.4244   -8.0269   21.3548 C   0  0  0  0  0  0
  -21.9878   -9.0247   20.4652 C   0  0  0  0  0  0
  -22.7213  -10.2125   20.3056 C   0  0  0  0  0  0
  -21.6850   -6.0708   22.5284 C   0  0  0  0  0  0
  -21.4011   -6.5634   23.8209 C   0  0  0  0  0  0
  -21.3665   -5.6792   24.9177 C   0  0  0  0  0  0
  -21.6051   -4.3055   24.7234 C   0  0  0  0  0  0
  -21.8815   -3.8134   23.4361 C   0  0  0  0  0  0
  -21.9197   -4.6938   22.3410 C   0  0  0  0  0  0
  -22.7848  -13.5243   21.1797 C   0  0  0  0  0  0
  -22.1658   -4.2132   21.0981 F   0  0  0  0  0  0
  -21.5633   -3.4540   25.7748 F   0  0  0  0  0  0
  -30.0320  -13.3243   20.4565 N   0  0  0  0  0  0
  -26.3012  -12.9355   20.3333 N   0  0  0  0  0  0
  -25.9319  -11.6512   20.5726 N   0  0  0  0  0  0
  -22.0477  -12.8273   22.0362 N   0  0  0  0  0  0
  -25.4294  -15.1897   20.4154 N   0  0  0  0  0  0
  -31.8189  -14.6787   20.0622 O   0  0  0  0  0  0
  -21.6636   -6.8853   21.4234 O   0  0  0  0  0  0
  -22.3547  -14.5541   20.6623 O   0  0  0  0  0  0
  -24.6166  -31.8656   23.2055 C   0  0  0  0  0  0
  -25.9071  -32.4796   23.8354 C   0  0  1  0  0  0
  -27.2394  -27.4250   20.1103 C   0  0  0  0  0  0
  -25.5905  -33.8587   24.2291 N   0  0  0  0  0  0
  -23.4051  -30.4913   21.5415 C   0  0  2  0  0  0
  -24.8581  -28.9533   20.1124 C   0  0  0  0  0  0
  -22.7402  -29.4675   22.4912 C   0  0  0  0  0  0
  -18.0287  -28.1398   22.8496 C   0  0  0  0  0  0
  -24.1481  -36.7303   23.2633 C   0  0  0  0  0  0
  -25.9350  -30.8360   21.3554 C   0  0  0  0  0  0
  -26.0184  -29.4677   20.7062 C   0  0  0  0  0  0
  -27.2172  -28.7129   20.6977 C   0  0  0  0  0  0
  -26.0654  -26.9272   19.5110 C   0  0  0  0  0  0
  -24.8761  -27.6826   19.5097 C   0  0  0  0  0  0
  -23.6176  -29.8188   20.1582 C   0  0  0  0  0  0
  -25.4106  -36.3069   24.0316 C   0  0  1  0  0  0
  -20.5883  -28.3700   23.1303 C   0  0  2  0  0  0
  -20.6764  -26.9433   22.5424 C   0  0  0  0  0  0
  -19.5732  -26.6408   21.5224 C   0  0  0  0  0  0
  -18.1915  -26.7944   22.1632 C   0  0  0  0  0  0
  -19.1536  -28.8867   23.2902 C   0  0  0  0  0  0
  -18.9454  -30.1471   23.8917 C   0  0  0  0  0  0
  -17.6448  -30.6600   24.0588 C   0  0  0  0  0  0
  -25.9042  -34.9455   23.5093 C   0  0  0  0  0  0
  -16.5350  -29.9099   23.6341 C   0  0  0  0  0  0
  -16.7270  -28.6530   23.0342 C   0  0  0  0  0  0
  -26.4513  -31.6566   25.0679 C   0  0  0  0  0  0
  -25.3777  -31.3704   26.1424 C   0  0  0  0  0  0
  -27.0325  -30.2977   24.6077 C   0  0  0  0  0  0
  -27.6054  -32.4287   25.7481 C   0  0  0  0  0  0
  -27.5567  -37.1800   24.8467 C   0  0  0  0  0  0
  -21.4140  -29.3048   22.3674 N   0  0  0  0  0  0
  -26.4279  -37.3767   23.9410 N   0  0  0  0  0  0
  -24.6702  -31.0778   22.0931 N   0  0  0  0  0  0
  -23.4178  -28.8218   23.2960 O   0  0  0  0  0  0
  -28.3839  -26.6560   20.0979 O   0  0  0  0  0  0
  -26.5591  -34.8914   22.4649 O   0  0  0  0  0  0
  -23.5356  -32.1405   23.7456 O   0  0  0  0  0  0
  -29.7175  -18.0623   21.1594 C   0  0  0  0  0  0
  -29.9861  -16.9956   18.9864 C   0  0  0  0  0  0
  -29.5870  -19.3462   20.5417 C   0  0  0  0  0  0
  -29.9258  -16.8776   20.3948 C   0  0  0  0  0  0
  -29.8347  -18.2433   18.3611 C   0  0  0  0  0  0
  -29.6311  -19.4076   19.1241 C   0  0  0  0  0  0
  -29.4012  -20.6013   21.3848 C   0  0  0  0  0  0
  -28.8288  -24.2204   20.4258 C   0  0  0  0  0  0
  -30.9073  -23.5174   21.7709 C   0  0  0  0  0  0
  -28.3881  -25.5670   21.0513 C   0  0  0  0  0  0
  -29.4659  -23.1475   21.3631 C   0  0  2  0  0  0
  -29.9855  -15.5747   21.0077 N   0  0  0  0  0  0
  -29.4642  -21.7987   20.7621 N   0  0  0  0  0  0
  -29.2521  -20.5136   22.6062 O   0  0  0  0  0  0
  -28.6705  -24.0207   19.2163 O   0  0  0  0  0  0
  -29.8727  -18.3244   17.0089 F   0  0  0  0  0  0
  -29.4705  -20.5769   18.4571 F   0  0  0  0  0  0
  -31.4703  -12.3974   19.1604 H   0  0  0  0  0  0
  -30.3001  -11.3155   19.8622 H   0  0  0  0  0  0
  -29.7533  -11.7746   17.4496 H   0  0  0  0  0  0
  -29.6775  -13.4876   17.7786 H   0  0  0  0  0  0
  -27.8414  -11.3062   18.8326 H   0  0  0  0  0  0
  -27.3800  -12.6224   17.7883 H   0  0  0  0  0  0
  -27.6914  -14.2557   19.5499 H   0  0  0  0  0  0
  -28.6751  -12.0185   21.3926 H   0  0  0  0  0  0
  -28.4574  -13.6832   21.8503 H   0  0  0  0  0  0
  -25.2744   -9.5695   22.4739 H   0  0  0  0  0  0
  -23.9993   -7.4644   22.7497 H   0  0  0  0  0  0
  -21.0819   -8.8751   19.8960 H   0  0  0  0  0  0
  -22.3667  -10.9652   19.6159 H   0  0  0  0  0  0
  -21.1992   -7.6138   23.9711 H   0  0  0  0  0  0
  -21.1491   -6.0517   25.9082 H   0  0  0  0  0  0
  -22.0586   -2.7593   23.2869 H   0  0  0  0  0  0
  -22.4094  -11.9973   22.4837 H   0  0  0  0  0  0
  -21.1078  -13.1306   22.2503 H   0  0  0  0  0  0
  -24.6625  -15.8421   20.5276 H   0  0  0  0  0  0
  -26.2881  -15.6349   20.1192 H   0  0  0  0  0  0
  -26.7131  -32.5544   23.1117 H   0  0  0  0  0  0
  -25.0072  -33.9744   25.0437 H   0  0  0  0  0  0
  -22.6954  -31.3090   21.3940 H   0  0  0  0  0  0
  -23.3713  -35.9666   23.3313 H   0  0  0  0  0  0
  -24.3591  -36.8899   22.2045 H   0  0  0  0  0  0
  -23.7263  -37.6519   23.6655 H   0  0  0  0  0  0
  -26.0448  -31.6069   20.5897 H   0  0  0  0  0  0
  -26.8234  -30.8927   21.9726 H   0  0  0  0  0  0
  -28.1170  -29.1104   21.1471 H   0  0  0  0  0  0
  -26.0737  -25.9525   19.0441 H   0  0  0  0  0  0
  -23.9844  -27.2855   19.0452 H   0  0  0  0  0  0
  -23.7239  -30.5906   19.3937 H   0  0  0  0  0  0
  -22.7408  -29.2356   19.8634 H   0  0  0  0  0  0
  -25.1284  -36.1907   25.0802 H   0  0  0  0  0  0
  -21.0013  -28.3290   24.1404 H   0  0  0  0  0  0
  -20.5690  -26.2302   23.3618 H   0  0  0  0  0  0
  -21.6629  -26.7474   22.1207 H   0  0  0  0  0  0
  -19.6901  -25.6329   21.1226 H   0  0  0  0  0  0
  -19.6662  -27.3244   20.6778 H   0  0  0  0  0  0
  -17.4189  -26.6717   21.4032 H   0  0  0  0  0  0
  -18.0309  -26.0094   22.9033 H   0  0  0  0  0  0
  -19.7932  -30.7296   24.2272 H   0  0  0  0  0  0
  -17.5011  -31.6282   24.5180 H   0  0  0  0  0  0
  -15.5353  -30.3002   23.7673 H   0  0  0  0  0  0
  -15.8670  -28.0878   22.7006 H   0  0  0  0  0  0
  -24.5967  -30.7002   25.7812 H   0  0  0  0  0  0
  -24.8963  -32.2867   26.4833 H   0  0  0  0  0  0
  -25.8159  -30.8938   27.0190 H   0  0  0  0  0  0
  -26.2863  -29.6721   24.1147 H   0  0  0  0  0  0
  -27.4055  -29.7245   25.4574 H   0  0  0  0  0  0
  -27.8727  -30.4230   23.9241 H   0  0  0  0  0  0
  -27.2629  -33.3568   26.2074 H   0  0  0  0  0  0
  -28.3908  -32.6858   25.0363 H   0  0  0  0  0  0
  -28.0660  -31.8382   26.5406 H   0  0  0  0  0  0
  -28.2586  -38.0092   24.7488 H   0  0  0  0  0  0
  -28.1039  -36.2612   24.6307 H   0  0  0  0  0  0
  -27.2290  -37.1484   25.8872 H   0  0  0  0  0  0
  -20.9285  -29.8704   21.6862 H   0  0  0  0  0  0
  -26.0142  -38.2829   24.1413 H   0  0  0  0  0  0
  -29.6659  -17.9915   22.2382 H   0  0  0  0  0  0
  -30.1197  -16.1242   18.3626 H   0  0  0  0  0  0
  -31.5615  -23.5747   20.8987 H   0  0  0  0  0  0
  -31.3342  -22.7843   22.4570 H   0  0  0  0  0  0
  -30.9490  -24.4852   22.2718 H   0  0  0  0  0  0
  -29.0657  -25.8147   21.8674 H   0  0  0  0  0  0
  -27.4034  -25.4272   21.4991 H   0  0  0  0  0  0
  -28.8600  -23.1090   22.2708 H   0  0  0  0  0  0
  -29.2269  -15.3515   21.6355 H   0  0  0  0  0  0
  -29.5362  -21.7763   19.7505 H   0  0  0  0  0  0
  1 25  1  0  0  0
  1 30  2  0  0  0
  1 82  1  0  0  0
  2  3  1  0  0  0
  2 25  1  0  0  0
  2 88  1  0  0  0
  2 89  1  0  0  0
  3  4  1  0  0  0
  3 90  1  0  0  0
  3 91  1  0  0  0
  4  5  1  0  0  0
  4 92  1  0  0  0
  4 93  1  0  0  0
  5  6  1  0  0  0
  5 26  1  0  0  0
  5 94  1  0  0  0
  6 25  1  0  0  0
  6 95  1  0  0  0
  6 96  1  0  0  0
  7  8  2  0  0  0
  7 26  1  0  0  0
  7 29  1  0  0  0
  8  9  1  0  0  0
  8 22  1  0  0  0
  9 10  1  0  0  0
  9 27  2  0  0  0
 10 11  2  0  0  0
 10 15  1  0  0  0
 11 12  1  0  0  0
 11 97  1  0  0  0
 12 13  2  0  0  0
 12 98  1  0  0  0
 13 14  1  0  0  0
 13 31  1  0  0  0
 14 15  2  0  0  0
 14 99  1  0  0  0
 15100  1  0  0  0
 16 17  2  0  0  0
 16 21  1  0  0  0
 16 31  1  0  0  0
 17 18  1  0  0  0
 17101  1  0  0  0
 18 19  2  0  0  0
 18102  1  0  0  0
 19 20  1  0  0  0
 19 24  1  0  0  0
 20 21  2  0  0  0
 20103  1  0  0  0
 21 23  1  0  0  0
 22 28  1  0  0  0
 22 32  2  0  0  0
 26 27  1  0  0  0
 28104  1  0  0  0
 28105  1  0  0  0
 29106  1  0  0  0
 29107  1  0  0  0
 33 34  1  0  0  0
 33 66  1  0  0  0
 33 70  2  0  0  0
 34 36  1  0  0  0
 34 59  1  0  0  0
 34108  1  0  0  0
 35 44  2  0  0  0
 35 45  1  0  0  0
 35 68  1  0  0  0
 36 56  1  0  0  0
 36109  1  0  0  0
 37 39  1  0  0  0
 37 47  1  0  0  0
 37 66  1  0  0  0
 37110  1  0  0  0
 38 43  2  0  0  0
 38 46  1  0  0  0
 38 47  1  0  0  0
 39 64  1  0  0  0
 39 67  2  0  0  0
 40 52  1  0  0  0
 40 53  2  0  0  0
 40 58  1  0  0  0
 41111  1  0  0  0
 41112  1  0  0  0
 41113  1  0  0  0
 41 48  1  0  0  0
 42 43  1  0  0  0
 42 66  1  0  0  0
 42114  1  0  0  0
 42115  1  0  0  0
 43 44  1  0  0  0
 44116  1  0  0  0
 45 46  2  0  0  0
 45117  1  0  0  0
 46118  1  0  0  0
 47119  1  0  0  0
 47120  1  0  0  0
 48 56  1  0  0  0
 48 65  1  0  0  0
 48121  1  0  0  0
 49 50  1  0  0  0
 49 53  1  0  0  0
 49 64  1  0  0  0
 49122  1  0  0  0
 50 51  1  0  0  0
 50123  1  0  0  0
 50124  1  0  0  0
 51 52  1  0  0  0
 51125  1  0  0  0
 51126  1  0  0  0
 52127  1  0  0  0
 52128  1  0  0  0
 53 54  1  0  0  0
 54 55  2  0  0  0
 54129  1  0  0  0
 55 57  1  0  0  0
 55130  1  0  0  0
 56 69  2  0  0  0
 57 58  2  0  0  0
 57131  1  0  0  0
 58132  1  0  0  0
 59 60  1  0  0  0
 59 61  1  0  0  0
 59 62  1  0  0  0
 60133  1  0  0  0
 60134  1  0  0  0
 60135  1  0  0  0
 61136  1  0  0  0
 61137  1  0  0  0
 61138  1  0  0  0
 62139  1  0  0  0
 62140  1  0  0  0
 62141  1  0  0  0
 63 65  1  0  0  0
 63142  1  0  0  0
 63143  1  0  0  0
 63144  1  0  0  0
 64145  1  0  0  0
 65146  1  0  0  0
 68 80  1  0  0  0
 71 73  2  0  0  0
 71 74  1  0  0  0
 71147  1  0  0  0
 72 74  2  0  0  0
 72 75  1  0  0  0
 72148  1  0  0  0
 73 76  1  0  0  0
 73 77  1  0  0  0
 74 82  1  0  0  0
 75 76  2  0  0  0
 75 86  1  0  0  0
 76 87  1  0  0  0
 77 83  1  0  0  0
 77 84  2  0  0  0
 78 80  1  0  0  0
 78 81  1  0  0  0
 78 85  2  0  0  0
 79149  1  0  0  0
 79150  1  0  0  0
 79151  1  0  0  0
 79 81  1  0  0  0
 80152  1  0  0  0
 80153  1  0  0  0
 81 83  1  0  0  0
 81154  1  0  0  0
 82155  1  0  0  0
 83156  1  0  0  0
M  ISO  4   1 100  68 101  80 101  82 100
M  END
> <chiral flag>
0

> <version>
0

> <s_m_source_file>
/data/baiqing/PycharmProjects/Reinvent-master-3.2/result/LINK_invent/BTK/process_docking_weight1_custom_product_contain_oxygen_bond_distance_aromatic_linkinvent_7_9_3/rearranged_h_0175.sdf

> <i_m_source_file_index>
46

> <r_mmod_Potential_Energy-OPLS-2005>
-74.9127578735352

> <r_mmod_Stretch_Energy-OPLS-2005>
46.8763580322266

> <r_mmod_Bend_Energy-OPLS-2005>
94.0895080566406

> <r_mmod_Torsional_Energy-OPLS-2005>
276.370208740234

> <r_mmod_Improper_Torsional_Energy-OPLS-2005>
5.03510665893555

> <r_mmod_Van_der_Waal_Energy-OPLS-2005>
151.626266479492

> <r_mmod_Electrostatic_Energy-OPLS-2005>
-435.08251953125

> <r_mmod_Solvation_Energy-OPLS-2005>
-230.870422363281

> <b_mmod_Minimization_Converged-OPLS-2005>
0

> <r_mmod_RMS_Derivative-OPLS-2005>
3.36524701118469

$$$$
47
                    3D
 Structure written by MMmdl.
158167  0  0  1  0            999 V2000
  -30.6598  -14.5786   20.4913 C   0  0  0  0  0  0
  -30.4338  -12.3527   19.4458 C   0  0  0  0  0  0
  -29.5085  -12.5062   18.2181 C   0  0  0  0  0  0
  -28.0288  -12.3589   18.6279 C   0  0  0  0  0  0
  -27.6594  -13.2154   19.8688 C   0  0  2  0  0  0
  -28.7042  -13.0532   20.9973 C   0  0  0  0  0  0
  -25.2581  -13.8173   20.5666 C   0  0  0  0  0  0
  -24.1844  -13.0432   20.9163 C   0  0  0  0  0  0
  -24.6411  -11.6905   20.8714 C   0  0  0  0  0  0
  -23.9080  -10.4279   21.0394 C   0  0  0  0  0  0
  -24.3622   -9.4194   21.9177 C   0  0  0  0  0  0
  -23.6297   -8.2236   22.0748 C   0  0  0  0  0  0
  -22.4267   -8.0278   21.3554 C   0  0  0  0  0  0
  -21.9910   -9.0251   20.4657 C   0  0  0  0  0  0
  -22.7245  -10.2125   20.3053 C   0  0  0  0  0  0
  -21.6846   -6.0731   22.5275 C   0  0  0  0  0  0
  -21.4012   -6.5638   23.8212 C   0  0  0  0  0  0
  -21.3663   -5.6787   24.9174 C   0  0  0  0  0  0
  -21.6044   -4.3054   24.7224 C   0  0  0  0  0  0
  -21.8818   -3.8145   23.4341 C   0  0  0  0  0  0
  -21.9194   -4.6965   22.3403 C   0  0  0  0  0  0
  -22.7862  -13.5223   21.1831 C   0  0  0  0  0  0
  -22.1658   -4.2158   21.0978 F   0  0  0  0  0  0
  -21.5633   -3.4540   25.7737 F   0  0  0  0  0  0
  -30.0280  -13.3675   20.4366 N   0  0  0  0  0  0
  -26.3025  -12.9353   20.3334 N   0  0  0  0  0  0
  -25.9351  -11.6504   20.5738 N   0  0  0  0  0  0
  -22.0486  -12.8245   22.0391 N   0  0  0  0  0  0
  -25.4283  -15.1893   20.4080 N   0  0  0  0  0  0
  -31.8143  -14.7292   20.0803 O   0  0  0  0  0  0
  -21.6634   -6.8879   21.4241 O   0  0  0  0  0  0
  -22.3551  -14.5535   20.6680 O   0  0  0  0  0  0
  -24.6205  -31.8613   23.2035 C   0  0  0  0  0  0
  -25.9070  -32.4787   23.8359 C   0  0  1  0  0  0
  -27.2449  -27.3741   20.0952 C   0  0  0  0  0  0
  -25.5904  -33.8585   24.2284 N   0  0  0  0  0  0
  -23.4130  -30.4828   21.5438 C   0  0  2  0  0  0
  -24.8622  -28.9400   20.1091 C   0  0  0  0  0  0
  -22.7448  -29.4622   22.4938 C   0  0  0  0  0  0
  -18.0283  -28.1383   22.8483 C   0  0  0  0  0  0
  -24.1491  -36.7301   23.2638 C   0  0  0  0  0  0
  -25.9473  -30.8064   21.3683 C   0  0  0  0  0  0
  -26.0231  -29.4368   20.7110 C   0  0  0  0  0  0
  -27.2113  -28.6603   20.7012 C   0  0  0  0  0  0
  -26.0565  -26.9011   19.4932 C   0  0  0  0  0  0
  -24.8772  -27.6749   19.4966 C   0  0  0  0  0  0
  -23.6254  -29.8121   20.1598 C   0  0  0  0  0  0
  -25.4112  -36.3088   24.0327 C   0  0  1  0  0  0
  -20.5878  -28.3676   23.1293 C   0  0  2  0  0  0
  -20.6763  -26.9401   22.5419 C   0  0  0  0  0  0
  -19.5744  -26.6385   21.5212 C   0  0  0  0  0  0
  -18.1921  -26.7931   22.1618 C   0  0  0  0  0  0
  -19.1531  -28.8848   23.2887 C   0  0  0  0  0  0
  -18.9459  -30.1447   23.8905 C   0  0  0  0  0  0
  -17.6460  -30.6584   24.0564 C   0  0  0  0  0  0
  -25.9037  -34.9455   23.5106 C   0  0  0  0  0  0
  -16.5353  -29.9085   23.6325 C   0  0  0  0  0  0
  -16.7269  -28.6502   23.0348 C   0  0  0  0  0  0
  -26.4485  -31.6596   25.0720 C   0  0  0  0  0  0
  -25.3737  -31.3737   26.1467 C   0  0  0  0  0  0
  -27.0316  -30.3020   24.6155 C   0  0  0  0  0  0
  -27.6059  -32.4331   25.7479 C   0  0  0  0  0  0
  -27.5579  -37.1805   24.8458 C   0  0  0  0  0  0
  -21.4165  -29.3031   22.3688 N   0  0  0  0  0  0
  -26.4293  -37.3778   23.9402 N   0  0  0  0  0  0
  -24.6785  -31.0667   22.0963 N   0  0  0  0  0  0
  -23.4193  -28.8147   23.2992 O   0  0  0  0  0  0
  -28.4171  -26.6220   20.1528 O   0  0  0  0  0  0
  -26.5610  -34.8915   22.4672 O   0  0  0  0  0  0
  -23.5381  -32.1390   23.7393 O   0  0  0  0  0  0
  -29.1450  -16.9010   18.9251 C   0  0  0  0  0  0
  -29.7805  -16.8776   20.1412 C   0  0  0  0  0  0
  -29.9069  -19.1517   19.6654 C   0  0  0  0  0  0
  -28.6533  -24.0707   20.1284 C   0  0  0  0  0  0
  -31.7284  -20.8555   20.4158 C   0  0  0  0  0  0
  -31.0677  -23.3232   20.5469 C   0  0  0  0  0  0
  -30.4134  -20.6041   19.6564 C   0  0  2  0  0  0
  -29.7645  -23.0157   19.7670 C   0  0  1  0  0  0
  -32.1889  -22.3140   20.2171 C   0  0  0  0  0  0
  -28.6285  -25.4263   19.3406 C   0  0  0  0  0  0
  -30.1475  -18.1789   20.5876 N   0  0  0  0  0  0
  -29.9023  -15.6427   20.8733 N   0  0  0  0  0  0
  -29.3412  -21.5878   20.0343 N   0  3  0  0  0  0
  -27.8141  -23.8552   21.0090 O   0  0  0  0  0  0
  -33.2449  -22.5519   20.9954 F   0  0  0  0  0  0
  -32.5640  -22.4904   18.9489 F   0  0  0  0  0  0
  -29.0726  -18.5072   18.2495 S   0  0  0  0  0  0
  -31.4792  -12.4536   19.1459 H   0  0  0  0  0  0
  -30.3444  -11.3525   19.8717 H   0  0  0  0  0  0
  -29.7616  -11.7646   17.4590 H   0  0  0  0  0  0
  -29.6668  -13.4820   17.7561 H   0  0  0  0  0  0
  -27.8464  -11.3043   18.8370 H   0  0  0  0  0  0
  -27.3824  -12.6206   17.7895 H   0  0  0  0  0  0
  -27.6853  -14.2549   19.5444 H   0  0  0  0  0  0
  -28.6964  -12.0322   21.3818 H   0  0  0  0  0  0
  -28.4610  -13.6906   21.8487 H   0  0  0  0  0  0
  -25.2760   -9.5686   22.4761 H   0  0  0  0  0  0
  -24.0006   -7.4626   22.7463 H   0  0  0  0  0  0
  -21.0836   -8.8788   19.8968 H   0  0  0  0  0  0
  -22.3700  -10.9671   19.6172 H   0  0  0  0  0  0
  -21.2000   -7.6139   23.9719 H   0  0  0  0  0  0
  -21.1488   -6.0516   25.9082 H   0  0  0  0  0  0
  -22.0600   -2.7614   23.2840 H   0  0  0  0  0  0
  -22.4072  -11.9895   22.4789 H   0  0  0  0  0  0
  -21.1113  -13.1297   22.2576 H   0  0  0  0  0  0
  -24.6550  -15.8361   20.5120 H   0  0  0  0  0  0
  -26.2776  -15.6404   20.0940 H   0  0  0  0  0  0
  -26.7135  -32.5474   23.1108 H   0  0  0  0  0  0
  -25.0048  -33.9735   25.0431 H   0  0  0  0  0  0
  -22.7047  -31.3016   21.4008 H   0  0  0  0  0  0
  -23.3747  -35.9641   23.3308 H   0  0  0  0  0  0
  -24.3585  -36.8916   22.2052 H   0  0  0  0  0  0
  -23.7255  -37.6508   23.6659 H   0  0  0  0  0  0
  -26.0737  -31.5723   20.6023 H   0  0  0  0  0  0
  -26.8292  -30.8553   21.9953 H   0  0  0  0  0  0
  -28.1072  -29.0398   21.1725 H   0  0  0  0  0  0
  -26.0049  -25.9232   19.0398 H   0  0  0  0  0  0
  -23.9813  -27.2854   19.0337 H   0  0  0  0  0  0
  -23.7357  -30.5849   19.3985 H   0  0  0  0  0  0
  -22.7492  -29.2331   19.8633 H   0  0  0  0  0  0
  -25.1295  -36.1941   25.0822 H   0  0  0  0  0  0
  -20.9974  -28.3257   24.1412 H   0  0  0  0  0  0
  -20.5652  -26.2286   23.3614 H   0  0  0  0  0  0
  -21.6633  -26.7428   22.1222 H   0  0  0  0  0  0
  -19.6899  -25.6294   21.1242 H   0  0  0  0  0  0
  -19.6682  -27.3197   20.6740 H   0  0  0  0  0  0
  -17.4187  -26.6679   21.4023 H   0  0  0  0  0  0
  -18.0324  -26.0081   22.9023 H   0  0  0  0  0  0
  -19.7929  -30.7267   24.2285 H   0  0  0  0  0  0
  -17.5010  -31.6261   24.5166 H   0  0  0  0  0  0
  -15.5352  -30.2988   23.7644 H   0  0  0  0  0  0
  -15.8668  -28.0824   22.7063 H   0  0  0  0  0  0
  -24.5865  -30.7146   25.7791 H   0  0  0  0  0  0
  -24.8993  -32.2915   26.4949 H   0  0  0  0  0  0
  -25.8069  -30.8853   27.0204 H   0  0  0  0  0  0
  -26.2868  -29.6781   24.1201 H   0  0  0  0  0  0
  -27.4037  -29.7272   25.4644 H   0  0  0  0  0  0
  -27.8734  -30.4300   23.9345 H   0  0  0  0  0  0
  -27.2673  -33.3620   26.2076 H   0  0  0  0  0  0
  -28.3852  -32.6911   25.0297 H   0  0  0  0  0  0
  -28.0753  -31.8455   26.5377 H   0  0  0  0  0  0
  -28.2598  -38.0100   24.7499 H   0  0  0  0  0  0
  -28.1075  -36.2630   24.6288 H   0  0  0  0  0  0
  -27.2300  -37.1464   25.8863 H   0  0  0  0  0  0
  -20.9334  -29.8757   21.6906 H   0  0  0  0  0  0
  -26.0176  -38.2855   24.1405 H   0  0  0  0  0  0
  -28.7244  -16.0774   18.3642 H   0  0  0  0  0  0
  -32.5021  -20.1718   20.0622 H   0  0  0  0  0  0
  -31.5903  -20.6392   21.4758 H   0  0  0  0  0  0
  -30.8688  -23.3043   21.6206 H   0  0  0  0  0  0
  -31.4155  -24.3333   20.3257 H   0  0  0  0  0  0
  -30.6390  -20.8024   18.6074 H   0  0  0  0  0  0
  -29.9754  -23.1058   18.7010 H   0  0  0  0  0  0
  -27.9184  -25.3532   18.5198 H   0  0  0  0  0  0
  -29.6002  -25.5422   18.8617 H   0  0  0  0  0  0
  -29.0509  -15.3562   21.3297 H   0  0  0  0  0  0
  -29.1003  -21.4804   21.0069 H   0  0  0  0  0  0
  -28.5125  -21.3950   19.4957 H   0  0  0  0  0  0
  1 25  1  0  0  0
  1 30  2  0  0  0
  1 82  1  0  0  0
  2  3  1  0  0  0
  2 25  1  0  0  0
  2 88  1  0  0  0
  2 89  1  0  0  0
  3  4  1  0  0  0
  3 90  1  0  0  0
  3 91  1  0  0  0
  4  5  1  0  0  0
  4 92  1  0  0  0
  4 93  1  0  0  0
  5  6  1  0  0  0
  5 26  1  0  0  0
  5 94  1  0  0  0
  6 25  1  0  0  0
  6 95  1  0  0  0
  6 96  1  0  0  0
  7  8  2  0  0  0
  7 26  1  0  0  0
  7 29  1  0  0  0
  8  9  1  0  0  0
  8 22  1  0  0  0
  9 10  1  0  0  0
  9 27  2  0  0  0
 10 11  2  0  0  0
 10 15  1  0  0  0
 11 12  1  0  0  0
 11 97  1  0  0  0
 12 13  2  0  0  0
 12 98  1  0  0  0
 13 14  1  0  0  0
 13 31  1  0  0  0
 14 15  2  0  0  0
 14 99  1  0  0  0
 15100  1  0  0  0
 16 17  2  0  0  0
 16 21  1  0  0  0
 16 31  1  0  0  0
 17 18  1  0  0  0
 17101  1  0  0  0
 18 19  2  0  0  0
 18102  1  0  0  0
 19 20  1  0  0  0
 19 24  1  0  0  0
 20 21  2  0  0  0
 20103  1  0  0  0
 21 23  1  0  0  0
 22 28  1  0  0  0
 22 32  2  0  0  0
 26 27  1  0  0  0
 28104  1  0  0  0
 28105  1  0  0  0
 29106  1  0  0  0
 29107  1  0  0  0
 33 34  1  0  0  0
 33 66  1  0  0  0
 33 70  2  0  0  0
 34 36  1  0  0  0
 34 59  1  0  0  0
 34108  1  0  0  0
 35 44  2  0  0  0
 35 45  1  0  0  0
 35 68  1  0  0  0
 36 56  1  0  0  0
 36109  1  0  0  0
 37 39  1  0  0  0
 37 47  1  0  0  0
 37 66  1  0  0  0
 37110  1  0  0  0
 38 43  2  0  0  0
 38 46  1  0  0  0
 38 47  1  0  0  0
 39 64  1  0  0  0
 39 67  2  0  0  0
 40 52  1  0  0  0
 40 53  2  0  0  0
 40 58  1  0  0  0
 41111  1  0  0  0
 41112  1  0  0  0
 41113  1  0  0  0
 41 48  1  0  0  0
 42 43  1  0  0  0
 42 66  1  0  0  0
 42114  1  0  0  0
 42115  1  0  0  0
 43 44  1  0  0  0
 44116  1  0  0  0
 45 46  2  0  0  0
 45117  1  0  0  0
 46118  1  0  0  0
 47119  1  0  0  0
 47120  1  0  0  0
 48 56  1  0  0  0
 48 65  1  0  0  0
 48121  1  0  0  0
 49 50  1  0  0  0
 49 53  1  0  0  0
 49 64  1  0  0  0
 49122  1  0  0  0
 50 51  1  0  0  0
 50123  1  0  0  0
 50124  1  0  0  0
 51 52  1  0  0  0
 51125  1  0  0  0
 51126  1  0  0  0
 52127  1  0  0  0
 52128  1  0  0  0
 53 54  1  0  0  0
 54 55  2  0  0  0
 54129  1  0  0  0
 55 57  1  0  0  0
 55130  1  0  0  0
 56 69  2  0  0  0
 57 58  2  0  0  0
 57131  1  0  0  0
 58132  1  0  0  0
 59 60  1  0  0  0
 59 61  1  0  0  0
 59 62  1  0  0  0
 60133  1  0  0  0
 60134  1  0  0  0
 60135  1  0  0  0
 61136  1  0  0  0
 61137  1  0  0  0
 61138  1  0  0  0
 62139  1  0  0  0
 62140  1  0  0  0
 62141  1  0  0  0
 63 65  1  0  0  0
 63142  1  0  0  0
 63143  1  0  0  0
 63144  1  0  0  0
 64145  1  0  0  0
 65146  1  0  0  0
 68 80  1  0  0  0
 71 72  2  0  0  0
 71 87  1  0  0  0
 71147  1  0  0  0
 72 81  1  0  0  0
 72 82  1  0  0  0
 73 81  2  0  0  0
 73 87  1  0  0  0
 73 77  1  0  0  0
 74 80  1  0  0  0
 74 84  2  0  0  0
 74 78  1  0  0  0
 75 77  1  0  0  0
 75 79  1  0  0  0
 75148  1  0  0  0
 75149  1  0  0  0
 76 78  1  0  0  0
 76 79  1  0  0  0
 76150  1  0  0  0
 76151  1  0  0  0
 77 83  1  0  0  0
 77152  1  0  0  0
 78 83  1  0  0  0
 78153  1  0  0  0
 79 85  1  0  0  0
 79 86  1  0  0  0
 80154  1  0  0  0
 80155  1  0  0  0
 82156  1  0  0  0
 83157  1  0  0  0
 83158  1  0  0  0
M  CHG  1  83   1
M  ISO  4   1 100  68 101  80 101  82 100
M  END
> <chiral flag>
0

> <version>
0

> <s_m_source_file>
/data/baiqing/PycharmProjects/Reinvent-master-3.2/result/LINK_invent/BTK/process_docking_weight1_custom_product_contain_oxygen_bond_distance_aromatic_linkinvent_7_9_3/rearranged_h_0175.sdf

> <i_m_source_file_index>
47

> <r_mmod_Potential_Energy-OPLS-2005>
-340.326904296875

> <r_mmod_Stretch_Energy-OPLS-2005>
58.1385040283203

> <r_mmod_Bend_Energy-OPLS-2005>
137.599105834961

> <r_mmod_Torsional_Energy-OPLS-2005>
280.824584960938

> <r_mmod_Improper_Torsional_Energy-OPLS-2005>
7.65715837478638

> <r_mmod_Van_der_Waal_Energy-OPLS-2005>
117.584823608398

> <r_mmod_Electrostatic_Energy-OPLS-2005>
-448.737945556641

> <r_mmod_Solvation_Energy-OPLS-2005>
-522.426025390625

> <b_mmod_Minimization_Converged-OPLS-2005>
0

> <r_mmod_RMS_Derivative-OPLS-2005>
2.1706600189209

$$$$
48
                    3D
 Structure written by MMmdl.
153161  0  0  1  0            999 V2000
  -30.6953  -14.4638   20.5936 C   0  0  0  0  0  0
  -30.4291  -12.3076   19.4148 C   0  0  0  0  0  0
  -29.4956  -12.5131   18.2031 C   0  0  0  0  0  0
  -28.0161  -12.3722   18.6146 C   0  0  0  0  0  0
  -27.6647  -13.2022   19.8780 C   0  0  2  0  0  0
  -28.7059  -12.9591   20.9944 C   0  0  0  0  0  0
  -25.2609  -13.8150   20.5680 C   0  0  0  0  0  0
  -24.1852  -13.0437   20.9172 C   0  0  0  0  0  0
  -24.6396  -11.6900   20.8727 C   0  0  0  0  0  0
  -23.9057  -10.4290   21.0399 C   0  0  0  0  0  0
  -24.3611   -9.4209   21.9179 C   0  0  0  0  0  0
  -23.6289   -8.2243   22.0752 C   0  0  0  0  0  0
  -22.4272   -8.0279   21.3543 C   0  0  0  0  0  0
  -21.9903   -9.0251   20.4646 C   0  0  0  0  0  0
  -22.7228  -10.2132   20.3052 C   0  0  0  0  0  0
  -21.6852   -6.0735   22.5280 C   0  0  0  0  0  0
  -21.4012   -6.5641   23.8213 C   0  0  0  0  0  0
  -21.3659   -5.6792   24.9175 C   0  0  0  0  0  0
  -21.6044   -4.3053   24.7225 C   0  0  0  0  0  0
  -21.8820   -3.8146   23.4346 C   0  0  0  0  0  0
  -21.9194   -4.6962   22.3403 C   0  0  0  0  0  0
  -22.7877  -13.5243   21.1838 C   0  0  0  0  0  0
  -22.1663   -4.2149   21.0980 F   0  0  0  0  0  0
  -21.5629   -3.4537   25.7737 F   0  0  0  0  0  0
  -30.0404  -13.2769   20.4510 N   0  0  0  0  0  0
  -26.3039  -12.9308   20.3368 N   0  0  0  0  0  0
  -25.9321  -11.6473   20.5756 N   0  0  0  0  0  0
  -22.0512  -12.8239   22.0393 N   0  0  0  0  0  0
  -25.4346  -15.1868   20.4097 N   0  0  0  0  0  0
  -31.8086  -14.6652   20.0948 O   0  0  0  0  0  0
  -21.6639   -6.8876   21.4240 O   0  0  0  0  0  0
  -22.3567  -14.5551   20.6689 O   0  0  0  0  0  0
  -24.6164  -31.8686   23.2117 C   0  0  0  0  0  0
  -25.9058  -32.4822   23.8406 C   0  0  1  0  0  0
  -27.2278  -27.4244   20.0848 C   0  0  0  0  0  0
  -25.5918  -33.8622   24.2335 N   0  0  0  0  0  0
  -23.4036  -30.4957   21.5527 C   0  0  2  0  0  0
  -24.8463  -28.9667   20.1134 C   0  0  0  0  0  0
  -22.7420  -29.4670   22.4986 C   0  0  0  0  0  0
  -18.0275  -28.1381   22.8497 C   0  0  0  0  0  0
  -24.1488  -36.7309   23.2636 C   0  0  0  0  0  0
  -25.9359  -30.8296   21.3682 C   0  0  0  0  0  0
  -26.0098  -29.4653   20.7117 C   0  0  0  0  0  0
  -27.2019  -28.7015   20.6968 C   0  0  0  0  0  0
  -26.0387  -26.9522   19.4736 C   0  0  0  0  0  0
  -24.8562  -27.7093   19.4930 C   0  0  0  0  0  0
  -23.6112  -29.8355   20.1653 C   0  0  0  0  0  0
  -25.4109  -36.3109   24.0340 C   0  0  1  0  0  0
  -20.5868  -28.3671   23.1315 C   0  0  2  0  0  0
  -20.6767  -26.9408   22.5414 C   0  0  0  0  0  0
  -19.5743  -26.6391   21.5213 C   0  0  0  0  0  0
  -18.1923  -26.7929   22.1628 C   0  0  0  0  0  0
  -19.1525  -28.8843   23.2902 C   0  0  0  0  0  0
  -18.9451  -30.1450   23.8909 C   0  0  0  0  0  0
  -17.6453  -30.6586   24.0570 C   0  0  0  0  0  0
  -25.9041  -34.9476   23.5130 C   0  0  0  0  0  0
  -16.5345  -29.9090   23.6328 C   0  0  0  0  0  0
  -16.7265  -28.6507   23.0348 C   0  0  0  0  0  0
  -26.4481  -31.6598   25.0731 C   0  0  0  0  0  0
  -25.3751  -31.3706   26.1484 C   0  0  0  0  0  0
  -27.0307  -30.3041   24.6108 C   0  0  0  0  0  0
  -27.6063  -32.4313   25.7489 C   0  0  0  0  0  0
  -27.5585  -37.1804   24.8464 C   0  0  0  0  0  0
  -21.4147  -29.3041   22.3723 N   0  0  0  0  0  0
  -26.4292  -37.3797   23.9418 N   0  0  0  0  0  0
  -24.6703  -31.0788   22.1020 N   0  0  0  0  0  0
  -23.4192  -28.8205   23.3023 O   0  0  0  0  0  0
  -28.3921  -26.6729   20.1063 O   0  0  0  0  0  0
  -26.5594  -34.8928   22.4687 O   0  0  0  0  0  0
  -23.5354  -32.1441   23.7507 O   0  0  0  0  0  0
  -29.0776  -18.9259   21.9891 C   0  0  0  0  0  0
  -29.0436  -17.5184   21.8684 C   0  0  0  0  0  0
  -31.2486  -18.8660   20.9539 C   0  0  0  0  0  0
  -30.2100  -19.6191   21.5288 C   0  0  0  0  0  0
  -30.1305  -16.8250   21.2910 C   0  0  0  0  0  0
  -29.4404  -24.4069   20.1582 C   0  0  0  0  0  0
  -29.4039  -22.9424   19.6819 C   0  0  0  0  0  0
  -28.2572  -25.2889   19.7248 C   0  0  0  0  0  0
  -31.2105  -17.5103   20.8356 N   0  0  0  0  0  0
  -29.9844  -15.4085   21.2423 N   0  0  0  0  0  0
  -30.4798  -22.0704   20.1979 N   0  0  0  0  0  0
  -30.3775  -24.8373   20.8406 O   0  0  0  0  0  0
  -29.1169  -21.9047   22.3740 O   0  0  0  0  0  0
  -31.6539  -21.6609   22.4360 O   0  0  0  0  0  0
  -30.3647  -21.4005   21.7761 S   0  0  0  0  0  0
  -31.4721  -12.4151   19.1112 H   0  0  0  0  0  0
  -30.3377  -11.2912   19.8008 H   0  0  0  0  0  0
  -29.7343  -11.7945   17.4180 H   0  0  0  0  0  0
  -29.6631  -13.5016   17.7725 H   0  0  0  0  0  0
  -27.8227  -11.3151   18.8005 H   0  0  0  0  0  0
  -27.3664  -12.6561   17.7859 H   0  0  0  0  0  0
  -27.7149  -14.2535   19.5936 H   0  0  0  0  0  0
  -28.6831  -11.9139   21.3069 H   0  0  0  0  0  0
  -28.4587  -13.5271   21.8921 H   0  0  0  0  0  0
  -25.2759   -9.5686   22.4748 H   0  0  0  0  0  0
  -24.0003   -7.4633   22.7467 H   0  0  0  0  0  0
  -21.0836   -8.8767   19.8951 H   0  0  0  0  0  0
  -22.3688  -10.9668   19.6158 H   0  0  0  0  0  0
  -21.2001   -7.6149   23.9715 H   0  0  0  0  0  0
  -21.1481   -6.0522   25.9077 H   0  0  0  0  0  0
  -22.0599   -2.7608   23.2845 H   0  0  0  0  0  0
  -22.4122  -11.9899   22.4781 H   0  0  0  0  0  0
  -21.1129  -13.1269   22.2590 H   0  0  0  0  0  0
  -24.6666  -15.8411   20.5133 H   0  0  0  0  0  0
  -26.2845  -15.6247   20.0771 H   0  0  0  0  0  0
  -26.7130  -32.5528   23.1169 H   0  0  0  0  0  0
  -25.0097  -33.9790   25.0500 H   0  0  0  0  0  0
  -22.6931  -31.3137   21.4172 H   0  0  0  0  0  0
  -23.3748  -35.9642   23.3306 H   0  0  0  0  0  0
  -24.3587  -36.8910   22.2048 H   0  0  0  0  0  0
  -23.7238  -37.6518   23.6640 H   0  0  0  0  0  0
  -26.0545  -31.5970   20.6020 H   0  0  0  0  0  0
  -26.8222  -30.8774   21.9891 H   0  0  0  0  0  0
  -28.0985  -29.0829   21.1655 H   0  0  0  0  0  0
  -25.9892  -25.9997   18.9673 H   0  0  0  0  0  0
  -23.9631  -27.3217   19.0221 H   0  0  0  0  0  0
  -23.7229  -30.6136   19.4093 H   0  0  0  0  0  0
  -22.7337  -29.2594   19.8660 H   0  0  0  0  0  0
  -25.1278  -36.1973   25.0832 H   0  0  0  0  0  0
  -20.9963  -28.3229   24.1434 H   0  0  0  0  0  0
  -20.5680  -26.2276   23.3600 H   0  0  0  0  0  0
  -21.6635  -26.7459   22.1196 H   0  0  0  0  0  0
  -19.6906  -25.6307   21.1230 H   0  0  0  0  0  0
  -19.6680  -27.3212   20.6753 H   0  0  0  0  0  0
  -17.4195  -26.6686   21.4028 H   0  0  0  0  0  0
  -18.0323  -26.0067   22.9020 H   0  0  0  0  0  0
  -19.7927  -30.7266   24.2280 H   0  0  0  0  0  0
  -17.5009  -31.6265   24.5174 H   0  0  0  0  0  0
  -15.5347  -30.2997   23.7645 H   0  0  0  0  0  0
  -15.8666  -28.0836   22.7047 H   0  0  0  0  0  0
  -24.5923  -30.7052   25.7826 H   0  0  0  0  0  0
  -24.8944  -32.2859   26.4945 H   0  0  0  0  0  0
  -25.8109  -30.8870   27.0234 H   0  0  0  0  0  0
  -26.2844  -29.6805   24.1169 H   0  0  0  0  0  0
  -27.4084  -29.7275   25.4561 H   0  0  0  0  0  0
  -27.8683  -30.4356   23.9254 H   0  0  0  0  0  0
  -27.2689  -33.3608   26.2088 H   0  0  0  0  0  0
  -28.3860  -32.6878   25.0303 H   0  0  0  0  0  0
  -28.0747  -31.8421   26.5383 H   0  0  0  0  0  0
  -28.2592  -38.0112   24.7531 H   0  0  0  0  0  0
  -28.1089  -36.2645   24.6256 H   0  0  0  0  0  0
  -27.2312  -37.1412   25.8869 H   0  0  0  0  0  0
  -20.9305  -29.8776   21.6960 H   0  0  0  0  0  0
  -26.0178  -38.2871   24.1428 H   0  0  0  0  0  0
  -28.2561  -19.4549   22.4491 H   0  0  0  0  0  0
  -28.1758  -16.9864   22.2347 H   0  0  0  0  0  0
  -32.1449  -19.3526   20.5983 H   0  0  0  0  0  0
  -29.4617  -22.9537   18.5935 H   0  0  0  0  0  0
  -28.4326  -22.5115   19.9284 H   0  0  0  0  0  0
  -27.3707  -24.8560   20.1893 H   0  0  0  0  0  0
  -28.1402  -25.2143   18.6433 H   0  0  0  0  0  0
  -29.1246  -15.0594   21.6316 H   0  0  0  0  0  0
  -31.4075  -22.4712   20.0469 H   0  0  0  0  0  0
  1 25  1  0  0  0
  1 30  2  0  0  0
  1 80  1  0  0  0
  2  3  1  0  0  0
  2 25  1  0  0  0
  2 86  1  0  0  0
  2 87  1  0  0  0
  3  4  1  0  0  0
  3 88  1  0  0  0
  3 89  1  0  0  0
  4  5  1  0  0  0
  4 90  1  0  0  0
  4 91  1  0  0  0
  5  6  1  0  0  0
  5 26  1  0  0  0
  5 92  1  0  0  0
  6 25  1  0  0  0
  6 93  1  0  0  0
  6 94  1  0  0  0
  7  8  2  0  0  0
  7 26  1  0  0  0
  7 29  1  0  0  0
  8  9  1  0  0  0
  8 22  1  0  0  0
  9 10  1  0  0  0
  9 27  2  0  0  0
 10 11  2  0  0  0
 10 15  1  0  0  0
 11 12  1  0  0  0
 11 95  1  0  0  0
 12 13  2  0  0  0
 12 96  1  0  0  0
 13 14  1  0  0  0
 13 31  1  0  0  0
 14 15  2  0  0  0
 14 97  1  0  0  0
 15 98  1  0  0  0
 16 17  2  0  0  0
 16 21  1  0  0  0
 16 31  1  0  0  0
 17 18  1  0  0  0
 17 99  1  0  0  0
 18 19  2  0  0  0
 18100  1  0  0  0
 19 20  1  0  0  0
 19 24  1  0  0  0
 20 21  2  0  0  0
 20101  1  0  0  0
 21 23  1  0  0  0
 22 28  1  0  0  0
 22 32  2  0  0  0
 26 27  1  0  0  0
 28102  1  0  0  0
 28103  1  0  0  0
 29104  1  0  0  0
 29105  1  0  0  0
 33 34  1  0  0  0
 33 66  1  0  0  0
 33 70  2  0  0  0
 34 36  1  0  0  0
 34 59  1  0  0  0
 34106  1  0  0  0
 35 44  2  0  0  0
 35 45  1  0  0  0
 35 68  1  0  0  0
 36 56  1  0  0  0
 36107  1  0  0  0
 37 39  1  0  0  0
 37 47  1  0  0  0
 37 66  1  0  0  0
 37108  1  0  0  0
 38 43  2  0  0  0
 38 46  1  0  0  0
 38 47  1  0  0  0
 39 64  1  0  0  0
 39 67  2  0  0  0
 40 52  1  0  0  0
 40 53  2  0  0  0
 40 58  1  0  0  0
 41109  1  0  0  0
 41110  1  0  0  0
 41111  1  0  0  0
 41 48  1  0  0  0
 42 43  1  0  0  0
 42 66  1  0  0  0
 42112  1  0  0  0
 42113  1  0  0  0
 43 44  1  0  0  0
 44114  1  0  0  0
 45 46  2  0  0  0
 45115  1  0  0  0
 46116  1  0  0  0
 47117  1  0  0  0
 47118  1  0  0  0
 48 56  1  0  0  0
 48 65  1  0  0  0
 48119  1  0  0  0
 49 50  1  0  0  0
 49 53  1  0  0  0
 49 64  1  0  0  0
 49120  1  0  0  0
 50 51  1  0  0  0
 50121  1  0  0  0
 50122  1  0  0  0
 51 52  1  0  0  0
 51123  1  0  0  0
 51124  1  0  0  0
 52125  1  0  0  0
 52126  1  0  0  0
 53 54  1  0  0  0
 54 55  2  0  0  0
 54127  1  0  0  0
 55 57  1  0  0  0
 55128  1  0  0  0
 56 69  2  0  0  0
 57 58  2  0  0  0
 57129  1  0  0  0
 58130  1  0  0  0
 59 60  1  0  0  0
 59 61  1  0  0  0
 59 62  1  0  0  0
 60131  1  0  0  0
 60132  1  0  0  0
 60133  1  0  0  0
 61134  1  0  0  0
 61135  1  0  0  0
 61136  1  0  0  0
 62137  1  0  0  0
 62138  1  0  0  0
 62139  1  0  0  0
 63 65  1  0  0  0
 63140  1  0  0  0
 63141  1  0  0  0
 63142  1  0  0  0
 64143  1  0  0  0
 65144  1  0  0  0
 68 78  1  0  0  0
 71 72  2  0  0  0
 71 74  1  0  0  0
 71145  1  0  0  0
 72 75  1  0  0  0
 72146  1  0  0  0
 73 74  2  0  0  0
 73 79  1  0  0  0
 73147  1  0  0  0
 74 85  1  0  0  0
 75 79  2  0  0  0
 75 80  1  0  0  0
 76 77  1  0  0  0
 76 78  1  0  0  0
 76 82  2  0  0  0
 77 81  1  0  0  0
 77148  1  0  0  0
 77149  1  0  0  0
 78150  1  0  0  0
 78151  1  0  0  0
 80152  1  0  0  0
 81153  1  0  0  0
 81 85  1  0  0  0
 83 85  2  0  0  0
 84 85  2  0  0  0
M  ISO  4   1 100  68 101  78 101  80 100
M  END
> <chiral flag>
0

> <version>
0

> <s_m_source_file>
/data/baiqing/PycharmProjects/Reinvent-master-3.2/result/LINK_invent/BTK/process_docking_weight1_custom_product_contain_oxygen_bond_distance_aromatic_linkinvent_7_9_3/rearranged_h_0175.sdf

> <i_m_source_file_index>
48

> <r_mmod_Potential_Energy-OPLS-2005>
-330.738128662109

> <r_mmod_Stretch_Energy-OPLS-2005>
37.9708404541016

> <r_mmod_Bend_Energy-OPLS-2005>
103.662338256836

> <r_mmod_Torsional_Energy-OPLS-2005>
212.376205444336

> <r_mmod_Improper_Torsional_Energy-OPLS-2005>
7.46123600006104

> <r_mmod_Van_der_Waal_Energy-OPLS-2005>
154.328628540039

> <r_mmod_Electrostatic_Energy-OPLS-2005>
-565.806335449219

> <r_mmod_Solvation_Energy-OPLS-2005>
-293.379241943359

> <b_mmod_Minimization_Converged-OPLS-2005>
0

> <r_mmod_RMS_Derivative-OPLS-2005>
0.51854944229126

$$$$
49
                    3D
 Structure written by MMmdl.
160168  0  0  1  0            999 V2000
  -30.7480  -14.4525   20.6002 C   0  0  0  0  0  0
  -30.3871  -12.3081   19.4111 C   0  0  0  0  0  0
  -29.4759  -12.5552   18.1941 C   0  0  0  0  0  0
  -27.9953  -12.4525   18.5878 C   0  0  0  0  0  0
  -27.6577  -13.2463   19.8857 C   0  0  2  0  0  0
  -28.7032  -13.0176   20.9964 C   0  0  0  0  0  0
  -25.2528  -13.8207   20.5592 C   0  0  0  0  0  0
  -24.1868  -13.0441   20.9264 C   0  0  0  0  0  0
  -24.6516  -11.6929   20.8838 C   0  0  0  0  0  0
  -23.9229  -10.4293   21.0489 C   0  0  0  0  0  0
  -24.3746   -9.4197   21.9267 C   0  0  0  0  0  0
  -23.6397   -8.2220   22.0804 C   0  0  0  0  0  0
  -22.4365   -8.0281   21.3586 C   0  0  0  0  0  0
  -22.0050   -9.0274   20.4670 C   0  0  0  0  0  0
  -22.7406  -10.2153   20.3127 C   0  0  0  0  0  0
  -21.6879   -6.0780   22.5312 C   0  0  0  0  0  0
  -21.3981   -6.5649   23.8229 C   0  0  0  0  0  0
  -21.3686   -5.6809   24.9176 C   0  0  0  0  0  0
  -21.6061   -4.3067   24.7228 C   0  0  0  0  0  0
  -21.8802   -3.8168   23.4315 C   0  0  0  0  0  0
  -21.9178   -4.7005   22.3385 C   0  0  0  0  0  0
  -22.7838  -13.5192   21.1902 C   0  0  0  0  0  0
  -22.1665   -4.2172   21.0987 F   0  0  0  0  0  0
  -21.5663   -3.4556   25.7738 F   0  0  0  0  0  0
  -30.0222  -13.3122   20.4272 N   0  0  0  0  0  0
  -26.3050  -12.9535   20.3395 N   0  0  0  0  0  0
  -25.9492  -11.6653   20.5924 N   0  0  0  0  0  0
  -22.0502  -12.8149   22.0429 N   0  0  0  0  0  0
  -25.4066  -15.1932   20.3894 N   0  0  0  0  0  0
  -31.8793  -14.5976   20.1131 O   0  0  0  0  0  0
  -21.6641   -6.8951   21.4282 O   0  0  0  0  0  0
  -22.3541  -14.5524   20.6812 O   0  0  0  0  0  0
  -24.6170  -31.8745   23.2191 C   0  0  0  0  0  0
  -25.9074  -32.4848   23.8445 C   0  0  1  0  0  0
  -27.2065  -27.4351   20.0671 C   0  0  0  0  0  0
  -25.5948  -33.8647   24.2378 N   0  0  0  0  0  0
  -23.4013  -30.5141   21.5593 C   0  0  2  0  0  0
  -24.8366  -28.9995   20.1186 C   0  0  0  0  0  0
  -22.7403  -29.4757   22.4975 C   0  0  0  0  0  0
  -18.0275  -28.1373   22.8480 C   0  0  0  0  0  0
  -24.1510  -36.7328   23.2629 C   0  0  0  0  0  0
  -25.9384  -30.8401   21.3765 C   0  0  0  0  0  0
  -26.0081  -29.4793   20.7153 C   0  0  0  0  0  0
  -27.1949  -28.7023   20.6978 C   0  0  0  0  0  0
  -25.9893  -26.9909   19.4727 C   0  0  0  0  0  0
  -24.8196  -27.7481   19.5025 C   0  0  0  0  0  0
  -23.6070  -29.8679   20.1698 C   0  0  0  0  0  0
  -25.4120  -36.3122   24.0341 C   0  0  1  0  0  0
  -20.5869  -28.3690   23.1285 C   0  0  2  0  0  0
  -20.6779  -26.9430   22.5382 C   0  0  0  0  0  0
  -19.5745  -26.6405   21.5186 C   0  0  0  0  0  0
  -18.1932  -26.7923   22.1617 C   0  0  0  0  0  0
  -19.1522  -28.8835   23.2893 C   0  0  0  0  0  0
  -18.9456  -30.1440   23.8912 C   0  0  0  0  0  0
  -17.6457  -30.6582   24.0572 C   0  0  0  0  0  0
  -25.9036  -34.9487   23.5137 C   0  0  0  0  0  0
  -16.5350  -29.9087   23.6318 C   0  0  0  0  0  0
  -16.7269  -28.6502   23.0341 C   0  0  0  0  0  0
  -26.4497  -31.6578   25.0732 C   0  0  0  0  0  0
  -25.3766  -31.3691   26.1475 C   0  0  0  0  0  0
  -27.0336  -30.3016   24.6121 C   0  0  0  0  0  0
  -27.6092  -32.4275   25.7485 C   0  0  0  0  0  0
  -27.5595  -37.1816   24.8461 C   0  0  0  0  0  0
  -21.4133  -29.3080   22.3680 N   0  0  0  0  0  0
  -26.4311  -37.3802   23.9406 N   0  0  0  0  0  0
  -24.6715  -31.0880   22.1090 N   0  0  0  0  0  0
  -23.4170  -28.8239   23.2979 O   0  0  0  0  0  0
  -28.3576  -26.6525   20.0358 O   0  0  0  0  0  0
  -26.5574  -34.8926   22.4684 O   0  0  0  0  0  0
  -23.5357  -32.1493   23.7591 O   0  0  0  0  0  0
  -27.4539  -17.6611   21.4288 C   0  0  0  0  0  0
  -27.4322  -18.2196   20.1443 C   0  0  0  0  0  0
  -28.3921  -17.7264   19.2424 C   0  0  0  0  0  0
  -29.2237  -16.3214   20.8712 C   0  0  0  0  0  0
  -29.1870  -24.3208   19.3982 C   0  0  0  0  0  0
  -28.8376  -20.7091   17.8267 C   0  0  0  0  0  0
  -30.8318  -19.2720   17.6797 C   0  0  0  0  0  0
  -28.5297  -18.2856   17.8334 C   0  0  0  0  0  0
  -28.7096  -23.0921   18.6188 C   0  0  0  0  0  0
  -28.1044  -25.3870   19.4093 C   0  0  0  0  0  0
  -29.5495  -21.8122   18.6432 C   0  0  0  0  0  0
  -28.3740  -16.7395   21.7992 N   0  0  0  0  0  0
  -29.2704  -16.7722   19.6134 N   0  0  0  0  0  0
  -30.1862  -15.4569   21.3005 N   0  0  0  0  0  0
  -29.3866  -19.4805   17.8011 N   0  0  0  0  0  0
  -30.2847  -24.4167   19.9496 O   0  0  0  0  0  0
  -27.7376  -20.9472   17.3134 O   0  0  0  0  0  0
  -26.5484  -19.1900   19.7974 F   0  0  0  0  0  0
  -31.4353  -12.3733   19.1302 H   0  0  0  0  0  0
  -30.2281  -11.2977   19.7860 H   0  0  0  0  0  0
  -29.6908  -11.8658   17.3849 H   0  0  0  0  0  0
  -29.6568  -13.5525   17.8034 H   0  0  0  0  0  0
  -27.7655  -11.3945   18.7193 H   0  0  0  0  0  0
  -27.3752  -12.8234   17.7709 H   0  0  0  0  0  0
  -27.7105  -14.3038   19.6534 H   0  0  0  0  0  0
  -28.6719  -11.9912   21.3584 H   0  0  0  0  0  0
  -28.4792  -13.6394   21.8702 H   0  0  0  0  0  0
  -25.2858   -9.5629   22.4916 H   0  0  0  0  0  0
  -24.0050   -7.4618   22.7572 H   0  0  0  0  0  0
  -21.0957   -8.8881   19.9006 H   0  0  0  0  0  0
  -22.3905  -10.9767   19.6297 H   0  0  0  0  0  0
  -21.1918   -7.6154   23.9737 H   0  0  0  0  0  0
  -21.1576   -6.0534   25.9102 H   0  0  0  0  0  0
  -22.0567   -2.7639   23.2795 H   0  0  0  0  0  0
  -22.4219  -11.9747   22.4736 H   0  0  0  0  0  0
  -21.1165  -13.1179   22.2813 H   0  0  0  0  0  0
  -24.5898  -15.7911   20.4370 H   0  0  0  0  0  0
  -26.1664  -15.5868   19.8548 H   0  0  0  0  0  0
  -26.7136  -32.5574   23.1201 H   0  0  0  0  0  0
  -25.0127  -33.9804   25.0545 H   0  0  0  0  0  0
  -22.6903  -31.3334   21.4294 H   0  0  0  0  0  0
  -23.3771  -35.9658   23.3270 H   0  0  0  0  0  0
  -24.3625  -36.8956   22.2046 H   0  0  0  0  0  0
  -23.7245  -37.6531   23.6640 H   0  0  0  0  0  0
  -26.0555  -31.6163   20.6183 H   0  0  0  0  0  0
  -26.8254  -30.8840   21.9986 H   0  0  0  0  0  0
  -28.0951  -29.0723   21.1700 H   0  0  0  0  0  0
  -25.8640  -26.0533   18.9569 H   0  0  0  0  0  0
  -23.9149  -27.3706   19.0489 H   0  0  0  0  0  0
  -23.7171  -30.6497   19.4173 H   0  0  0  0  0  0
  -22.7302  -29.2931   19.8680 H   0  0  0  0  0  0
  -25.1286  -36.2005   25.0833 H   0  0  0  0  0  0
  -20.9975  -28.3258   24.1400 H   0  0  0  0  0  0
  -20.5694  -26.2295   23.3566 H   0  0  0  0  0  0
  -21.6652  -26.7484   22.1162 H   0  0  0  0  0  0
  -19.6924  -25.6323   21.1194 H   0  0  0  0  0  0
  -19.6675  -27.3230   20.6721 H   0  0  0  0  0  0
  -17.4198  -26.6649   21.4038 H   0  0  0  0  0  0
  -18.0376  -26.0063   22.9012 H   0  0  0  0  0  0
  -19.7942  -30.7251   24.2295 H   0  0  0  0  0  0
  -17.5024  -31.6268   24.5174 H   0  0  0  0  0  0
  -15.5355  -30.3003   23.7643 H   0  0  0  0  0  0
  -15.8670  -28.0844   22.7038 H   0  0  0  0  0  0
  -24.5928  -30.7054   25.7796 H   0  0  0  0  0  0
  -24.8974  -32.2859   26.4928 H   0  0  0  0  0  0
  -25.8110  -30.8835   27.0224 H   0  0  0  0  0  0
  -26.2905  -29.6765   24.1155 H   0  0  0  0  0  0
  -27.4078  -29.7250   25.4592 H   0  0  0  0  0  0
  -27.8751  -30.4315   23.9311 H   0  0  0  0  0  0
  -27.2730  -33.3567   26.2112 H   0  0  0  0  0  0
  -28.3880  -32.6848   25.0285 H   0  0  0  0  0  0
  -28.0788  -31.8355   26.5357 H   0  0  0  0  0  0
  -28.2604  -38.0123   24.7531 H   0  0  0  0  0  0
  -28.1100  -36.2656   24.6266 H   0  0  0  0  0  0
  -27.2310  -37.1438   25.8862 H   0  0  0  0  0  0
  -20.9257  -29.8841   21.6965 H   0  0  0  0  0  0
  -26.0206  -38.2891   24.1393 H   0  0  0  0  0  0
  -26.7462  -17.9836   22.1831 H   0  0  0  0  0  0
  -31.3722  -19.5536   18.5782 H   0  0  0  0  0  0
  -31.2323  -19.8706   16.8628 H   0  0  0  0  0  0
  -31.0935  -18.2285   17.4841 H   0  0  0  0  0  0
  -27.5167  -18.4978   17.4872 H   0  0  0  0  0  0
  -28.9134  -17.5188   17.1575 H   0  0  0  0  0  0
  -28.5453  -23.4012   17.5887 H   0  0  0  0  0  0
  -27.7199  -22.8456   19.0116 H   0  0  0  0  0  0
  -27.2688  -24.8987   19.9126 H   0  0  0  0  0  0
  -27.8295  -25.5515   18.3652 H   0  0  0  0  0  0
  -30.5635  -21.9963   18.2882 H   0  0  0  0  0  0
  -29.6158  -21.4590   19.6741 H   0  0  0  0  0  0
  -30.8831  -15.9643   21.8223 H   0  0  0  0  0  0
  1 25  1  0  0  0
  1 30  2  0  0  0
  1 84  1  0  0  0
  2  3  1  0  0  0
  2 25  1  0  0  0
  2 89  1  0  0  0
  2 90  1  0  0  0
  3  4  1  0  0  0
  3 91  1  0  0  0
  3 92  1  0  0  0
  4  5  1  0  0  0
  4 93  1  0  0  0
  4 94  1  0  0  0
  5  6  1  0  0  0
  5 26  1  0  0  0
  5 95  1  0  0  0
  6 25  1  0  0  0
  6 96  1  0  0  0
  6 97  1  0  0  0
  7  8  2  0  0  0
  7 26  1  0  0  0
  7 29  1  0  0  0
  8  9  1  0  0  0
  8 22  1  0  0  0
  9 10  1  0  0  0
  9 27  2  0  0  0
 10 11  2  0  0  0
 10 15  1  0  0  0
 11 12  1  0  0  0
 11 98  1  0  0  0
 12 13  2  0  0  0
 12 99  1  0  0  0
 13 14  1  0  0  0
 13 31  1  0  0  0
 14 15  2  0  0  0
 14100  1  0  0  0
 15101  1  0  0  0
 16 17  2  0  0  0
 16 21  1  0  0  0
 16 31  1  0  0  0
 17 18  1  0  0  0
 17102  1  0  0  0
 18 19  2  0  0  0
 18103  1  0  0  0
 19 20  1  0  0  0
 19 24  1  0  0  0
 20 21  2  0  0  0
 20104  1  0  0  0
 21 23  1  0  0  0
 22 28  1  0  0  0
 22 32  2  0  0  0
 26 27  1  0  0  0
 28105  1  0  0  0
 28106  1  0  0  0
 29107  1  0  0  0
 29108  1  0  0  0
 33 34  1  0  0  0
 33 66  1  0  0  0
 33 70  2  0  0  0
 34 36  1  0  0  0
 34 59  1  0  0  0
 34109  1  0  0  0
 35 44  2  0  0  0
 35 45  1  0  0  0
 35 68  1  0  0  0
 36 56  1  0  0  0
 36110  1  0  0  0
 37 39  1  0  0  0
 37 47  1  0  0  0
 37 66  1  0  0  0
 37111  1  0  0  0
 38 43  2  0  0  0
 38 46  1  0  0  0
 38 47  1  0  0  0
 39 64  1  0  0  0
 39 67  2  0  0  0
 40 52  1  0  0  0
 40 53  2  0  0  0
 40 58  1  0  0  0
 41112  1  0  0  0
 41113  1  0  0  0
 41114  1  0  0  0
 41 48  1  0  0  0
 42 43  1  0  0  0
 42 66  1  0  0  0
 42115  1  0  0  0
 42116  1  0  0  0
 43 44  1  0  0  0
 44117  1  0  0  0
 45 46  2  0  0  0
 45118  1  0  0  0
 46119  1  0  0  0
 47120  1  0  0  0
 47121  1  0  0  0
 48 56  1  0  0  0
 48 65  1  0  0  0
 48122  1  0  0  0
 49 50  1  0  0  0
 49 53  1  0  0  0
 49 64  1  0  0  0
 49123  1  0  0  0
 50 51  1  0  0  0
 50124  1  0  0  0
 50125  1  0  0  0
 51 52  1  0  0  0
 51126  1  0  0  0
 51127  1  0  0  0
 52128  1  0  0  0
 52129  1  0  0  0
 53 54  1  0  0  0
 54 55  2  0  0  0
 54130  1  0  0  0
 55 57  1  0  0  0
 55131  1  0  0  0
 56 69  2  0  0  0
 57 58  2  0  0  0
 57132  1  0  0  0
 58133  1  0  0  0
 59 60  1  0  0  0
 59 61  1  0  0  0
 59 62  1  0  0  0
 60134  1  0  0  0
 60135  1  0  0  0
 60136  1  0  0  0
 61137  1  0  0  0
 61138  1  0  0  0
 61139  1  0  0  0
 62140  1  0  0  0
 62141  1  0  0  0
 62142  1  0  0  0
 63 65  1  0  0  0
 63143  1  0  0  0
 63144  1  0  0  0
 63145  1  0  0  0
 64146  1  0  0  0
 65147  1  0  0  0
 68 80  1  0  0  0
 71 72  2  0  0  0
 71 82  1  0  0  0
 71148  1  0  0  0
 72 73  1  0  0  0
 72 88  1  0  0  0
 73 78  1  0  0  0
 73 83  2  0  0  0
 74 82  2  0  0  0
 74 83  1  0  0  0
 74 84  1  0  0  0
 75 79  1  0  0  0
 75 80  1  0  0  0
 75 86  2  0  0  0
 76 81  1  0  0  0
 76 85  1  0  0  0
 76 87  2  0  0  0
 77 85  1  0  0  0
 77149  1  0  0  0
 77150  1  0  0  0
 77151  1  0  0  0
 78 85  1  0  0  0
 78152  1  0  0  0
 78153  1  0  0  0
 79 81  1  0  0  0
 79154  1  0  0  0
 79155  1  0  0  0
 80156  1  0  0  0
 80157  1  0  0  0
 81158  1  0  0  0
 81159  1  0  0  0
 84160  1  0  0  0
M  ISO  4   1 100  68 101  80 101  84 100
M  END
> <chiral flag>
0

> <version>
0

> <s_m_source_file>
/data/baiqing/PycharmProjects/Reinvent-master-3.2/result/LINK_invent/BTK/process_docking_weight1_custom_product_contain_oxygen_bond_distance_aromatic_linkinvent_7_9_3/rearranged_h_0175.sdf

> <i_m_source_file_index>
49

> <r_mmod_Potential_Energy-OPLS-2005>
-409.563446044922

> <r_mmod_Stretch_Energy-OPLS-2005>
37.0699691772461

> <r_mmod_Bend_Energy-OPLS-2005>
132.505813598633

> <r_mmod_Torsional_Energy-OPLS-2005>
278.075469970703

> <r_mmod_Improper_Torsional_Energy-OPLS-2005>
8.69982147216797

> <r_mmod_Van_der_Waal_Energy-OPLS-2005>
177.847274780273

> <r_mmod_Electrostatic_Energy-OPLS-2005>
-812.883422851562

> <r_mmod_Solvation_Energy-OPLS-2005>
-247.692108154297

> <b_mmod_Minimization_Converged-OPLS-2005>
0

> <r_mmod_RMS_Derivative-OPLS-2005>
11.9705924987793

$$$$
50
                    3D
 Structure written by MMmdl.
149157  0  0  1  0            999 V2000
  -30.6350  -14.5620   20.5738 C   0  0  0  0  0  0
  -30.4390  -12.3559   19.4527 C   0  0  0  0  0  0
  -29.5129  -12.5104   18.2246 C   0  0  0  0  0  0
  -28.0329  -12.3437   18.6329 C   0  0  0  0  0  0
  -27.6638  -13.1961   19.8726 C   0  0  2  0  0  0
  -28.6976  -13.0039   21.0054 C   0  0  0  0  0  0
  -25.2628  -13.8121   20.5642 C   0  0  0  0  0  0
  -24.1855  -13.0442   20.9145 C   0  0  0  0  0  0
  -24.6399  -11.6900   20.8697 C   0  0  0  0  0  0
  -23.9068  -10.4304   21.0391 C   0  0  0  0  0  0
  -24.3625   -9.4228   21.9175 C   0  0  0  0  0  0
  -23.6303   -8.2265   22.0755 C   0  0  0  0  0  0
  -22.4283   -8.0299   21.3553 C   0  0  0  0  0  0
  -21.9927   -9.0270   20.4628 C   0  0  0  0  0  0
  -22.7250  -10.2150   20.3024 C   0  0  0  0  0  0
  -21.6864   -6.0746   22.5274 C   0  0  0  0  0  0
  -21.4018   -6.5641   23.8198 C   0  0  0  0  0  0
  -21.3644   -5.6794   24.9162 C   0  0  0  0  0  0
  -21.6039   -4.3063   24.7227 C   0  0  0  0  0  0
  -21.8820   -3.8163   23.4330 C   0  0  0  0  0  0
  -21.9215   -4.6970   22.3383 C   0  0  0  0  0  0
  -22.7887  -13.5260   21.1814 C   0  0  0  0  0  0
  -22.1676   -4.2175   21.0965 F   0  0  0  0  0  0
  -21.5635   -3.4541   25.7748 F   0  0  0  0  0  0
  -30.0269  -13.3446   20.4666 N   0  0  0  0  0  0
  -26.3039  -12.9259   20.3312 N   0  0  0  0  0  0
  -25.9318  -11.6449   20.5714 N   0  0  0  0  0  0
  -22.0504  -12.8263   22.0351 N   0  0  0  0  0  0
  -25.4410  -15.1826   20.4035 N   0  0  0  0  0  0
  -31.7477  -14.7799   20.0707 O   0  0  0  0  0  0
  -21.6630   -6.8884   21.4239 O   0  0  0  0  0  0
  -22.3610  -14.5601   20.6680 O   0  0  0  0  0  0
  -24.6196  -31.8654   23.2078 C   0  0  0  0  0  0
  -25.9109  -32.4792   23.8370 C   0  0  1  0  0  0
  -27.2096  -27.3829   20.1064 C   0  0  0  0  0  0
  -25.5942  -33.8574   24.2308 N   0  0  0  0  0  0
  -23.4063  -30.4905   21.5468 C   0  0  2  0  0  0
  -24.8453  -28.9559   20.1051 C   0  0  0  0  0  0
  -22.7406  -29.4671   22.4972 C   0  0  0  0  0  0
  -18.0270  -28.1398   22.8553 C   0  0  0  0  0  0
  -24.1430  -36.7230   23.2650 C   0  0  0  0  0  0
  -25.9394  -30.8171   21.3631 C   0  0  0  0  0  0
  -26.0071  -29.4493   20.7071 C   0  0  0  0  0  0
  -27.1885  -28.6702   20.7123 C   0  0  0  0  0  0
  -26.0341  -26.9263   19.4719 C   0  0  0  0  0  0
  -24.8588  -27.6999   19.4754 C   0  0  0  0  0  0
  -23.6077  -29.8262   20.1609 C   0  0  0  0  0  0
  -25.4072  -36.3053   24.0347 C   0  0  1  0  0  0
  -20.5875  -28.3666   23.1319 C   0  0  2  0  0  0
  -20.6713  -26.9374   22.5400 C   0  0  0  0  0  0
  -19.5684  -26.6405   21.5215 C   0  0  0  0  0  0
  -18.1873  -26.7982   22.1647 C   0  0  0  0  0  0
  -19.1538  -28.8855   23.2938 C   0  0  0  0  0  0
  -18.9452  -30.1495   23.8920 C   0  0  0  0  0  0
  -17.6448  -30.6603   24.0605 C   0  0  0  0  0  0
  -25.9013  -34.9452   23.5105 C   0  0  0  0  0  0
  -16.5352  -29.9093   23.6361 C   0  0  0  0  0  0
  -16.7270  -28.6510   23.0402 C   0  0  0  0  0  0
  -26.4546  -31.6634   25.0771 C   0  0  0  0  0  0
  -25.3806  -31.3772   26.1521 C   0  0  0  0  0  0
  -27.0363  -30.3034   24.6187 C   0  0  0  0  0  0
  -27.6059  -32.4430   25.7570 C   0  0  0  0  0  0
  -27.5539  -37.1765   24.8476 C   0  0  0  0  0  0
  -21.4131  -29.3037   22.3714 N   0  0  0  0  0  0
  -26.4213  -37.3782   23.9474 N   0  0  0  0  0  0
  -24.6743  -31.0724   22.0994 N   0  0  0  0  0  0
  -23.4194  -28.8152   23.2962 O   0  0  0  0  0  0
  -28.3492  -26.5981   20.1714 O   0  0  0  0  0  0
  -26.5555  -34.8949   22.4665 O   0  0  0  0  0  0
  -23.5394  -32.1415   23.7441 O   0  0  0  0  0  0
  -29.3448  -18.8147   19.7316 C   0  0  0  0  0  0
  -29.6951  -19.4406   20.9127 C   0  0  0  0  0  0
  -29.8539  -16.9276   20.9440 C   0  0  0  0  0  0
  -28.3188  -25.2538   19.8037 C   0  0  0  0  0  0
  -28.4802  -24.2134   20.6707 C   0  0  0  0  0  0
  -28.5993  -22.8172   20.1811 C   0  0  0  0  0  0
  -29.9379  -20.9267   21.1851 C   0  0  0  0  0  0
  -29.4458  -17.4045   19.7569 N   0  0  0  0  0  0
  -29.9298  -15.5206   21.2260 N   0  0  0  0  0  0
  -28.8146  -21.9042   21.1621 N   0  0  0  0  0  0
  -28.6195  -22.4828   18.9927 O   0  0  0  0  0  0
  -28.5864  -24.4525   21.9919 O   0  0  0  0  0  0
  -30.0493  -18.2191   22.1426 S   0  0  0  0  0  0
  -31.4815  -12.4817   19.1584 H   0  0  0  0  0  0
  -30.3662  -11.3481   19.8636 H   0  0  0  0  0  0
  -29.7771  -11.7759   17.4643 H   0  0  0  0  0  0
  -29.6655  -13.4896   17.7690 H   0  0  0  0  0  0
  -27.8759  -11.2868   18.8536 H   0  0  0  0  0  0
  -27.3809  -12.5812   17.7953 H   0  0  0  0  0  0
  -27.7037  -14.2391   19.5562 H   0  0  0  0  0  0
  -28.6935  -11.9679   21.3524 H   0  0  0  0  0  0
  -28.4252  -13.5997   21.8773 H   0  0  0  0  0  0
  -25.2767   -9.5720   22.4758 H   0  0  0  0  0  0
  -24.0028   -7.4652   22.7466 H   0  0  0  0  0  0
  -21.0875   -8.8748   19.8916 H   0  0  0  0  0  0
  -22.3698  -10.9670   19.6124 H   0  0  0  0  0  0
  -21.1980   -7.6157   23.9707 H   0  0  0  0  0  0
  -21.1462   -6.0514   25.9051 H   0  0  0  0  0  0
  -22.0619   -2.7629   23.2815 H   0  0  0  0  0  0
  -22.4081  -11.9894   22.4704 H   0  0  0  0  0  0
  -21.1093  -13.1260   22.2460 H   0  0  0  0  0  0
  -24.6720  -15.8392   20.4676 H   0  0  0  0  0  0
  -26.3017  -15.6149   20.0935 H   0  0  0  0  0  0
  -26.7157  -32.5477   23.1078 H   0  0  0  0  0  0
  -25.0271  -33.9752   25.0567 H   0  0  0  0  0  0
  -22.6983  -31.3130   21.4143 H   0  0  0  0  0  0
  -23.3712  -35.9508   23.3282 H   0  0  0  0  0  0
  -24.3498  -36.8892   22.2050 H   0  0  0  0  0  0
  -23.7111  -37.6427   23.6638 H   0  0  0  0  0  0
  -26.0670  -31.5843   20.5994 H   0  0  0  0  0  0
  -26.8250  -30.8666   21.9855 H   0  0  0  0  0  0
  -28.0744  -29.0462   21.2001 H   0  0  0  0  0  0
  -25.9962  -25.9630   18.9854 H   0  0  0  0  0  0
  -23.9666  -27.3186   18.9948 H   0  0  0  0  0  0
  -23.7236  -30.6013   19.4065 H   0  0  0  0  0  0
  -22.7271  -29.2494   19.8762 H   0  0  0  0  0  0
  -25.1200  -36.1901   25.0821 H   0  0  0  0  0  0
  -21.0074  -28.3231   24.1405 H   0  0  0  0  0  0
  -20.5599  -26.2258   23.3590 H   0  0  0  0  0  0
  -21.6587  -26.7395   22.1199 H   0  0  0  0  0  0
  -19.6772  -25.6308   21.1223 H   0  0  0  0  0  0
  -19.6587  -27.3216   20.6755 H   0  0  0  0  0  0
  -17.4133  -26.6857   21.4034 H   0  0  0  0  0  0
  -18.0196  -26.0123   22.9010 H   0  0  0  0  0  0
  -19.7943  -30.7362   24.2240 H   0  0  0  0  0  0
  -17.4990  -31.6314   24.5168 H   0  0  0  0  0  0
  -15.5328  -30.2979   23.7679 H   0  0  0  0  0  0
  -15.8701  -28.0812   22.7120 H   0  0  0  0  0  0
  -24.5951  -30.7116   25.7905 H   0  0  0  0  0  0
  -24.9074  -32.2962   26.4982 H   0  0  0  0  0  0
  -25.8235  -30.8975   27.0245 H   0  0  0  0  0  0
  -26.2903  -29.6804   24.1210 H   0  0  0  0  0  0
  -27.4067  -29.7307   25.4710 H   0  0  0  0  0  0
  -27.8776  -30.4347   23.9373 H   0  0  0  0  0  0
  -27.2571  -33.3725   26.2061 H   0  0  0  0  0  0
  -28.3901  -32.6999   25.0450 H   0  0  0  0  0  0
  -28.0617  -31.8643   26.5597 H   0  0  0  0  0  0
  -28.2524  -38.0093   24.7608 H   0  0  0  0  0  0
  -28.1082  -36.2663   24.6146 H   0  0  0  0  0  0
  -27.2317  -37.1295   25.8897 H   0  0  0  0  0  0
  -20.9200  -29.8813   21.7053 H   0  0  0  0  0  0
  -26.0092  -38.2818   24.1586 H   0  0  0  0  0  0
  -29.0743  -19.2978   18.8010 H   0  0  0  0  0  0
  -28.1918  -25.1398   18.7296 H   0  0  0  0  0  0
  -30.7362  -21.2799   20.5224 H   0  0  0  0  0  0
  -30.3663  -21.0199   22.1887 H   0  0  0  0  0  0
  -29.1847  -15.1769   21.8109 H   0  0  0  0  0  0
  -28.5602  -22.2513   22.0779 H   0  0  0  0  0  0
  -28.5123  -25.3883   22.1192 H   0  0  0  0  0  0
  1 25  1  0  0  0
  1 30  2  0  0  0
  1 79  1  0  0  0
  2  3  1  0  0  0
  2 25  1  0  0  0
  2 84  1  0  0  0
  2 85  1  0  0  0
  3  4  1  0  0  0
  3 86  1  0  0  0
  3 87  1  0  0  0
  4  5  1  0  0  0
  4 88  1  0  0  0
  4 89  1  0  0  0
  5  6  1  0  0  0
  5 26  1  0  0  0
  5 90  1  0  0  0
  6 25  1  0  0  0
  6 91  1  0  0  0
  6 92  1  0  0  0
  7  8  2  0  0  0
  7 26  1  0  0  0
  7 29  1  0  0  0
  8  9  1  0  0  0
  8 22  1  0  0  0
  9 10  1  0  0  0
  9 27  2  0  0  0
 10 11  2  0  0  0
 10 15  1  0  0  0
 11 12  1  0  0  0
 11 93  1  0  0  0
 12 13  2  0  0  0
 12 94  1  0  0  0
 13 14  1  0  0  0
 13 31  1  0  0  0
 14 15  2  0  0  0
 14 95  1  0  0  0
 15 96  1  0  0  0
 16 17  2  0  0  0
 16 21  1  0  0  0
 16 31  1  0  0  0
 17 18  1  0  0  0
 17 97  1  0  0  0
 18 19  2  0  0  0
 18 98  1  0  0  0
 19 20  1  0  0  0
 19 24  1  0  0  0
 20 21  2  0  0  0
 20 99  1  0  0  0
 21 23  1  0  0  0
 22 28  1  0  0  0
 22 32  2  0  0  0
 26 27  1  0  0  0
 28100  1  0  0  0
 28101  1  0  0  0
 29102  1  0  0  0
 29103  1  0  0  0
 33 34  1  0  0  0
 33 66  1  0  0  0
 33 70  2  0  0  0
 34 36  1  0  0  0
 34 59  1  0  0  0
 34104  1  0  0  0
 35 44  2  0  0  0
 35 45  1  0  0  0
 35 68  1  0  0  0
 36 56  1  0  0  0
 36105  1  0  0  0
 37 39  1  0  0  0
 37 47  1  0  0  0
 37 66  1  0  0  0
 37106  1  0  0  0
 38 43  2  0  0  0
 38 46  1  0  0  0
 38 47  1  0  0  0
 39 64  1  0  0  0
 39 67  2  0  0  0
 40 52  1  0  0  0
 40 53  2  0  0  0
 40 58  1  0  0  0
 41107  1  0  0  0
 41108  1  0  0  0
 41109  1  0  0  0
 41 48  1  0  0  0
 42 43  1  0  0  0
 42 66  1  0  0  0
 42110  1  0  0  0
 42111  1  0  0  0
 43 44  1  0  0  0
 44112  1  0  0  0
 45 46  2  0  0  0
 45113  1  0  0  0
 46114  1  0  0  0
 47115  1  0  0  0
 47116  1  0  0  0
 48 56  1  0  0  0
 48 65  1  0  0  0
 48117  1  0  0  0
 49 50  1  0  0  0
 49 53  1  0  0  0
 49 64  1  0  0  0
 49118  1  0  0  0
 50 51  1  0  0  0
 50119  1  0  0  0
 50120  1  0  0  0
 51 52  1  0  0  0
 51121  1  0  0  0
 51122  1  0  0  0
 52123  1  0  0  0
 52124  1  0  0  0
 53 54  1  0  0  0
 54 55  2  0  0  0
 54125  1  0  0  0
 55 57  1  0  0  0
 55126  1  0  0  0
 56 69  2  0  0  0
 57 58  2  0  0  0
 57127  1  0  0  0
 58128  1  0  0  0
 59 60  1  0  0  0
 59 61  1  0  0  0
 59 62  1  0  0  0
 60129  1  0  0  0
 60130  1  0  0  0
 60131  1  0  0  0
 61132  1  0  0  0
 61133  1  0  0  0
 61134  1  0  0  0
 62135  1  0  0  0
 62136  1  0  0  0
 62137  1  0  0  0
 63 65  1  0  0  0
 63138  1  0  0  0
 63139  1  0  0  0
 63140  1  0  0  0
 64141  1  0  0  0
 65142  1  0  0  0
 68 74  1  0  0  0
 71 72  2  0  0  0
 71 78  1  0  0  0
 71143  1  0  0  0
 72 77  1  0  0  0
 72 83  1  0  0  0
 73 78  2  0  0  0
 73 79  1  0  0  0
 73 83  1  0  0  0
 74 75  2  0  0  0
 74144  1  0  0  0
 75 76  1  0  0  0
 75 82  1  0  0  0
 76 80  1  0  0  0
 76 81  2  0  0  0
 77 80  1  0  0  0
 77145  1  0  0  0
 77146  1  0  0  0
 79147  1  0  0  0
 80148  1  0  0  0
 82149  1  0  0  0
M  ISO  4   1 100  68 101  74 101  79 100
M  END
> <chiral flag>
0

> <version>
0

> <s_m_source_file>
/data/baiqing/PycharmProjects/Reinvent-master-3.2/result/LINK_invent/BTK/process_docking_weight1_custom_product_contain_oxygen_bond_distance_aromatic_linkinvent_7_9_3/rearranged_h_0175.sdf

> <i_m_source_file_index>
50

> <r_mmod_Potential_Energy-OPLS-2005>
-147.926895141602

> <r_mmod_Stretch_Energy-OPLS-2005>
49.5256423950195

> <r_mmod_Bend_Energy-OPLS-2005>
112.466484069824

> <r_mmod_Torsional_Energy-OPLS-2005>
254.433135986328

> <r_mmod_Improper_Torsional_Energy-OPLS-2005>
8.43210792541504

> <r_mmod_Van_der_Waal_Energy-OPLS-2005>
128.042922973633

> <r_mmod_Electrostatic_Energy-OPLS-2005>
-488.266693115234

> <r_mmod_Solvation_Energy-OPLS-2005>
-240.069488525391

> <b_mmod_Minimization_Converged-OPLS-2005>
0

> <r_mmod_RMS_Derivative-OPLS-2005>
7.43595695495605

$$$$
51
                    3D
 Structure written by MMmdl.
154162  0  0  1  0            999 V2000
  -30.7052  -14.5440   20.4781 C   0  0  0  0  0  0
  -30.4078  -12.3268   19.4489 C   0  0  0  0  0  0
  -29.4938  -12.4859   18.2174 C   0  0  0  0  0  0
  -28.0154  -12.3484   18.6287 C   0  0  0  0  0  0
  -27.6491  -13.2222   19.8597 C   0  0  2  0  0  0
  -28.6934  -13.0889   20.9911 C   0  0  0  0  0  0
  -25.2533  -13.8198   20.5691 C   0  0  0  0  0  0
  -24.1814  -13.0449   20.9202 C   0  0  0  0  0  0
  -24.6395  -11.6921   20.8758 C   0  0  0  0  0  0
  -23.9077  -10.4298   21.0414 C   0  0  0  0  0  0
  -24.3627   -9.4209   21.9188 C   0  0  0  0  0  0
  -23.6302   -8.2244   22.0753 C   0  0  0  0  0  0
  -22.4282   -8.0286   21.3545 C   0  0  0  0  0  0
  -21.9920   -9.0260   20.4648 C   0  0  0  0  0  0
  -22.7251  -10.2138   20.3060 C   0  0  0  0  0  0
  -21.6854   -6.0743   22.5283 C   0  0  0  0  0  0
  -21.4015   -6.5644   23.8217 C   0  0  0  0  0  0
  -21.3661   -5.6794   24.9179 C   0  0  0  0  0  0
  -21.6041   -4.3057   24.7226 C   0  0  0  0  0  0
  -21.8820   -3.8154   23.4347 C   0  0  0  0  0  0
  -21.9191   -4.6971   22.3405 C   0  0  0  0  0  0
  -22.7838  -13.5234   21.1865 C   0  0  0  0  0  0
  -22.1658   -4.2158   21.0981 F   0  0  0  0  0  0
  -21.5628   -3.4537   25.7737 F   0  0  0  0  0  0
  -30.0160  -13.3677   20.4178 N   0  0  0  0  0  0
  -26.2967  -12.9394   20.3323 N   0  0  0  0  0  0
  -25.9322  -11.6543   20.5778 N   0  0  0  0  0  0
  -22.0481  -12.8222   22.0421 N   0  0  0  0  0  0
  -25.4232  -15.1918   20.4087 N   0  0  0  0  0  0
  -31.8974  -14.5813   20.1642 O   0  0  0  0  0  0
  -21.6642   -6.8887   21.4246 O   0  0  0  0  0  0
  -22.3521  -14.5538   20.6711 O   0  0  0  0  0  0
  -24.6177  -31.8644   23.2072 C   0  0  0  0  0  0
  -25.9055  -32.4802   23.8374 C   0  0  1  0  0  0
  -27.2254  -27.3898   20.1001 C   0  0  0  0  0  0
  -25.5895  -33.8604   24.2300 N   0  0  0  0  0  0
  -23.4063  -30.4891   21.5483 C   0  0  2  0  0  0
  -24.8503  -28.9509   20.1106 C   0  0  0  0  0  0
  -22.7422  -29.4647   22.4968 C   0  0  0  0  0  0
  -18.0273  -28.1383   22.8495 C   0  0  0  0  0  0
  -24.1483  -36.7316   23.2639 C   0  0  0  0  0  0
  -25.9393  -30.8161   21.3668 C   0  0  0  0  0  0
  -26.0123  -29.4476   20.7123 C   0  0  0  0  0  0
  -27.1994  -28.6739   20.7040 C   0  0  0  0  0  0
  -26.0413  -26.9194   19.4869 C   0  0  0  0  0  0
  -24.8617  -27.6885   19.4941 C   0  0  0  0  0  0
  -23.6159  -29.8248   20.1613 C   0  0  0  0  0  0
  -25.4105  -36.3102   24.0332 C   0  0  1  0  0  0
  -20.5868  -28.3671   23.1317 C   0  0  2  0  0  0
  -20.6767  -26.9402   22.5425 C   0  0  0  0  0  0
  -19.5744  -26.6391   21.5221 C   0  0  0  0  0  0
  -18.1923  -26.7930   22.1628 C   0  0  0  0  0  0
  -19.1524  -28.8843   23.2903 C   0  0  0  0  0  0
  -18.9447  -30.1451   23.8911 C   0  0  0  0  0  0
  -17.6450  -30.6586   24.0570 C   0  0  0  0  0  0
  -25.9037  -34.9469   23.5118 C   0  0  0  0  0  0
  -16.5343  -29.9087   23.6330 C   0  0  0  0  0  0
  -16.7262  -28.6507   23.0344 C   0  0  0  0  0  0
  -26.4470  -31.6588   25.0714 C   0  0  0  0  0  0
  -25.3728  -31.3708   26.1457 C   0  0  0  0  0  0
  -27.0302  -30.3022   24.6119 C   0  0  0  0  0  0
  -27.6044  -32.4307   25.7477 C   0  0  0  0  0  0
  -27.5578  -37.1810   24.8463 C   0  0  0  0  0  0
  -21.4146  -29.3033   22.3716 N   0  0  0  0  0  0
  -26.4289  -37.3787   23.9409 N   0  0  0  0  0  0
  -24.6729  -31.0724   22.0985 N   0  0  0  0  0  0
  -23.4181  -28.8189   23.3019 O   0  0  0  0  0  0
  -28.3907  -26.6366   20.1487 O   0  0  0  0  0  0
  -26.5609  -34.8927   22.4687 O   0  0  0  0  0  0
  -23.5364  -32.1414   23.7451 O   0  0  0  0  0  0
  -29.5133  -18.1350   20.7585 C   0  0  0  0  0  0
  -29.8316  -19.4784   20.3737 C   0  0  0  0  0  0
  -30.9964  -19.6741   19.5979 C   0  0  0  0  0  0
  -30.3312  -17.0389   20.3310 C   0  0  0  0  0  0
  -31.7372  -18.5498   19.2113 C   0  0  0  0  0  0
  -28.5060  -23.0127   20.9489 C   0  0  0  0  0  0
  -28.7567  -21.7191   20.0920 C   0  0  0  0  0  0
  -27.6670  -24.1710   20.3446 C   0  0  0  0  0  0
  -28.4448  -25.2985   19.5882 C   0  0  0  0  0  0
  -31.4121  -17.2938   19.5482 N   0  0  0  0  0  0
  -32.8935  -18.6977   18.4575 N   0  0  0  0  0  0
  -29.0929  -20.6275   20.8275 N   0  0  0  0  0  0
  -29.9859  -15.6810   20.7109 N   0  0  0  0  0  0
  -28.9433  -23.1069   22.1022 O   0  0  0  0  0  0
  -28.6066  -21.7103   18.8648 O   0  0  0  0  0  0
  -31.4272  -20.9154   19.2549 F   0  0  0  0  0  0
  -31.4559  -12.3928   19.1509 H   0  0  0  0  0  0
  -30.2902  -11.3363   19.8905 H   0  0  0  0  0  0
  -29.7425  -11.7377   17.4634 H   0  0  0  0  0  0
  -29.6614  -13.4591   17.7535 H   0  0  0  0  0  0
  -27.8360  -11.2966   18.8541 H   0  0  0  0  0  0
  -27.3658  -12.5919   17.7875 H   0  0  0  0  0  0
  -27.6669  -14.2570   19.5165 H   0  0  0  0  0  0
  -28.6772  -12.0833   21.4139 H   0  0  0  0  0  0
  -28.4653  -13.7665   21.8156 H   0  0  0  0  0  0
  -25.2772   -9.5681   22.4765 H   0  0  0  0  0  0
  -24.0013   -7.4631   22.7463 H   0  0  0  0  0  0
  -21.0854   -8.8782   19.8949 H   0  0  0  0  0  0
  -22.3717  -10.9677   19.6168 H   0  0  0  0  0  0
  -21.2009   -7.6150   23.9729 H   0  0  0  0  0  0
  -21.1483   -6.0520   25.9083 H   0  0  0  0  0  0
  -22.0598   -2.7617   23.2844 H   0  0  0  0  0  0
  -22.4095  -11.9876   22.4797 H   0  0  0  0  0  0
  -21.1096  -13.1241   22.2626 H   0  0  0  0  0  0
  -24.6528  -15.8426   20.5138 H   0  0  0  0  0  0
  -26.2657  -15.6323   20.0622 H   0  0  0  0  0  0
  -26.7117  -32.5486   23.1125 H   0  0  0  0  0  0
  -25.0025  -33.9764   25.0430 H   0  0  0  0  0  0
  -22.6962  -31.3065   21.4094 H   0  0  0  0  0  0
  -23.3739  -35.9654   23.3308 H   0  0  0  0  0  0
  -24.3581  -36.8933   22.2055 H   0  0  0  0  0  0
  -23.7247  -37.6527   23.6651 H   0  0  0  0  0  0
  -26.0579  -31.5804   20.5975 H   0  0  0  0  0  0
  -26.8265  -30.8676   21.9870 H   0  0  0  0  0  0
  -28.0946  -29.0540   21.1768 H   0  0  0  0  0  0
  -26.0003  -25.9545   19.0053 H   0  0  0  0  0  0
  -23.9678  -27.3020   19.0237 H   0  0  0  0  0  0
  -23.7293  -30.6024   19.4046 H   0  0  0  0  0  0
  -22.7371  -29.2509   19.8622 H   0  0  0  0  0  0
  -25.1283  -36.1965   25.0824 H   0  0  0  0  0  0
  -20.9953  -28.3226   24.1441 H   0  0  0  0  0  0
  -20.5679  -26.2270   23.3610 H   0  0  0  0  0  0
  -21.6636  -26.7450   22.1207 H   0  0  0  0  0  0
  -19.6905  -25.6304   21.1242 H   0  0  0  0  0  0
  -19.6687  -27.3215   20.6761 H   0  0  0  0  0  0
  -17.4197  -26.6685   21.4028 H   0  0  0  0  0  0
  -18.0313  -26.0072   22.9021 H   0  0  0  0  0  0
  -19.7921  -30.7269   24.2286 H   0  0  0  0  0  0
  -17.5002  -31.6269   24.5166 H   0  0  0  0  0  0
  -15.5345  -30.2993   23.7654 H   0  0  0  0  0  0
  -15.8661  -28.0840   22.7041 H   0  0  0  0  0  0
  -24.5896  -30.7057   25.7798 H   0  0  0  0  0  0
  -24.8925  -32.2873   26.4892 H   0  0  0  0  0  0
  -25.8076  -30.8881   27.0219 H   0  0  0  0  0  0
  -26.2857  -29.6786   24.1154 H   0  0  0  0  0  0
  -27.4039  -29.7252   25.4592 H   0  0  0  0  0  0
  -27.8705  -30.4333   23.9297 H   0  0  0  0  0  0
  -27.2658  -33.3594   26.2079 H   0  0  0  0  0  0
  -28.3840  -32.6889   25.0297 H   0  0  0  0  0  0
  -28.0723  -31.8414   26.5375 H   0  0  0  0  0  0
  -28.2597  -38.0103   24.7503 H   0  0  0  0  0  0
  -28.1070  -36.2639   24.6286 H   0  0  0  0  0  0
  -27.2300  -37.1461   25.8866 H   0  0  0  0  0  0
  -20.9293  -29.8755   21.6946 H   0  0  0  0  0  0
  -26.0177  -38.2867   24.1398 H   0  0  0  0  0  0
  -28.6486  -17.9519   21.3801 H   0  0  0  0  0  0
  -27.0774  -24.6092   21.1491 H   0  0  0  0  0  0
  -26.9417  -23.7262   19.6631 H   0  0  0  0  0  0
  -28.1282  -25.3303   18.5449 H   0  0  0  0  0  0
  -29.5016  -25.0325   19.5389 H   0  0  0  0  0  0
  -33.0214  -19.5957   18.0060 H   0  0  0  0  0  0
  -33.2309  -17.9031   17.9310 H   0  0  0  0  0  0
  -29.0093  -20.7479   21.8274 H   0  0  0  0  0  0
  -29.0508  -15.5405   21.0561 H   0  0  0  0  0  0
  1 25  1  0  0  0
  1 30  2  0  0  0
  1 83  1  0  0  0
  2  3  1  0  0  0
  2 25  1  0  0  0
  2 87  1  0  0  0
  2 88  1  0  0  0
  3  4  1  0  0  0
  3 89  1  0  0  0
  3 90  1  0  0  0
  4  5  1  0  0  0
  4 91  1  0  0  0
  4 92  1  0  0  0
  5  6  1  0  0  0
  5 26  1  0  0  0
  5 93  1  0  0  0
  6 25  1  0  0  0
  6 94  1  0  0  0
  6 95  1  0  0  0
  7  8  2  0  0  0
  7 26  1  0  0  0
  7 29  1  0  0  0
  8  9  1  0  0  0
  8 22  1  0  0  0
  9 10  1  0  0  0
  9 27  2  0  0  0
 10 11  2  0  0  0
 10 15  1  0  0  0
 11 12  1  0  0  0
 11 96  1  0  0  0
 12 13  2  0  0  0
 12 97  1  0  0  0
 13 14  1  0  0  0
 13 31  1  0  0  0
 14 15  2  0  0  0
 14 98  1  0  0  0
 15 99  1  0  0  0
 16 17  2  0  0  0
 16 21  1  0  0  0
 16 31  1  0  0  0
 17 18  1  0  0  0
 17100  1  0  0  0
 18 19  2  0  0  0
 18101  1  0  0  0
 19 20  1  0  0  0
 19 24  1  0  0  0
 20 21  2  0  0  0
 20102  1  0  0  0
 21 23  1  0  0  0
 22 28  1  0  0  0
 22 32  2  0  0  0
 26 27  1  0  0  0
 28103  1  0  0  0
 28104  1  0  0  0
 29105  1  0  0  0
 29106  1  0  0  0
 33 34  1  0  0  0
 33 66  1  0  0  0
 33 70  2  0  0  0
 34 36  1  0  0  0
 34 59  1  0  0  0
 34107  1  0  0  0
 35 44  2  0  0  0
 35 45  1  0  0  0
 35 68  1  0  0  0
 36 56  1  0  0  0
 36108  1  0  0  0
 37 39  1  0  0  0
 37 47  1  0  0  0
 37 66  1  0  0  0
 37109  1  0  0  0
 38 43  2  0  0  0
 38 46  1  0  0  0
 38 47  1  0  0  0
 39 64  1  0  0  0
 39 67  2  0  0  0
 40 52  1  0  0  0
 40 53  2  0  0  0
 40 58  1  0  0  0
 41110  1  0  0  0
 41111  1  0  0  0
 41112  1  0  0  0
 41 48  1  0  0  0
 42 43  1  0  0  0
 42 66  1  0  0  0
 42113  1  0  0  0
 42114  1  0  0  0
 43 44  1  0  0  0
 44115  1  0  0  0
 45 46  2  0  0  0
 45116  1  0  0  0
 46117  1  0  0  0
 47118  1  0  0  0
 47119  1  0  0  0
 48 56  1  0  0  0
 48 65  1  0  0  0
 48120  1  0  0  0
 49 50  1  0  0  0
 49 53  1  0  0  0
 49 64  1  0  0  0
 49121  1  0  0  0
 50 51  1  0  0  0
 50122  1  0  0  0
 50123  1  0  0  0
 51 52  1  0  0  0
 51124  1  0  0  0
 51125  1  0  0  0
 52126  1  0  0  0
 52127  1  0  0  0
 53 54  1  0  0  0
 54 55  2  0  0  0
 54128  1  0  0  0
 55 57  1  0  0  0
 55129  1  0  0  0
 56 69  2  0  0  0
 57 58  2  0  0  0
 57130  1  0  0  0
 58131  1  0  0  0
 59 60  1  0  0  0
 59 61  1  0  0  0
 59 62  1  0  0  0
 60132  1  0  0  0
 60133  1  0  0  0
 60134  1  0  0  0
 61135  1  0  0  0
 61136  1  0  0  0
 61137  1  0  0  0
 62138  1  0  0  0
 62139  1  0  0  0
 62140  1  0  0  0
 63 65  1  0  0  0
 63141  1  0  0  0
 63142  1  0  0  0
 63143  1  0  0  0
 64144  1  0  0  0
 65145  1  0  0  0
 68 79  1  0  0  0
 71 72  2  0  0  0
 71 74  1  0  0  0
 71146  1  0  0  0
 72 73  1  0  0  0
 72 82  1  0  0  0
 73 75  2  0  0  0
 73 86  1  0  0  0
 74 80  2  0  0  0
 74 83  1  0  0  0
 75 80  1  0  0  0
 75 81  1  0  0  0
 76 77  1  0  0  0
 76 78  1  0  0  0
 76 84  2  0  0  0
 77 82  1  0  0  0
 77 85  2  0  0  0
 78 79  1  0  0  0
 78147  1  0  0  0
 78148  1  0  0  0
 79149  1  0  0  0
 79150  1  0  0  0
 81151  1  0  0  0
 81152  1  0  0  0
 82153  1  0  0  0
 83154  1  0  0  0
M  ISO  4   1 100  68 101  79 101  83 100
M  END
> <chiral flag>
0

> <version>
0

> <s_m_source_file>
/data/baiqing/PycharmProjects/Reinvent-master-3.2/result/LINK_invent/BTK/process_docking_weight1_custom_product_contain_oxygen_bond_distance_aromatic_linkinvent_7_9_3/rearranged_h_0175.sdf

> <i_m_source_file_index>
51

> <r_mmod_Potential_Energy-OPLS-2005>
-170.949508666992

> <r_mmod_Stretch_Energy-OPLS-2005>
53.1161041259766

> <r_mmod_Bend_Energy-OPLS-2005>
120.066360473633

> <r_mmod_Torsional_Energy-OPLS-2005>
244.710494995117

> <r_mmod_Improper_Torsional_Energy-OPLS-2005>
8.56054210662842

> <r_mmod_Van_der_Waal_Energy-OPLS-2005>
158.11506652832

> <r_mmod_Electrostatic_Energy-OPLS-2005>
-512.578308105469

> <r_mmod_Solvation_Energy-OPLS-2005>
-272.116912841797

> <b_mmod_Minimization_Converged-OPLS-2005>
0

> <r_mmod_RMS_Derivative-OPLS-2005>
1.05481815338135

$$$$
52
                    3D
 Structure written by MMmdl.
168176  0  0  1  0            999 V2000
  -30.6849  -14.4777   20.5089 C   0  0  0  0  0  0
  -30.4195  -12.2896   19.4143 C   0  0  0  0  0  0
  -29.4920  -12.5010   18.1981 C   0  0  0  0  0  0
  -28.0115  -12.3733   18.6105 C   0  0  0  0  0  0
  -27.6656  -13.2062   19.8732 C   0  0  2  0  0  0
  -28.7115  -12.9855   20.9910 C   0  0  0  0  0  0
  -25.2630  -13.8164   20.5662 C   0  0  0  0  0  0
  -24.1874  -13.0435   20.9157 C   0  0  0  0  0  0
  -24.6425  -11.6907   20.8714 C   0  0  0  0  0  0
  -23.9082  -10.4287   21.0390 C   0  0  0  0  0  0
  -24.3619   -9.4213   21.9176 C   0  0  0  0  0  0
  -23.6291   -8.2253   22.0767 C   0  0  0  0  0  0
  -22.4286   -8.0281   21.3533 C   0  0  0  0  0  0
  -21.9916   -9.0256   20.4646 C   0  0  0  0  0  0
  -22.7243  -10.2133   20.3052 C   0  0  0  0  0  0
  -21.6854   -6.0735   22.5271 C   0  0  0  0  0  0
  -21.4003   -6.5633   23.8204 C   0  0  0  0  0  0
  -21.3655   -5.6790   24.9158 C   0  0  0  0  0  0
  -21.6042   -4.3053   24.7212 C   0  0  0  0  0  0
  -21.8819   -3.8145   23.4340 C   0  0  0  0  0  0
  -21.9189   -4.6965   22.3390 C   0  0  0  0  0  0
  -22.7888  -13.5237   21.1798 C   0  0  0  0  0  0
  -22.1668   -4.2153   21.0962 F   0  0  0  0  0  0
  -21.5629   -3.4539   25.7720 F   0  0  0  0  0  0
  -30.0452  -13.2792   20.4345 N   0  0  0  0  0  0
  -26.3079  -12.9332   20.3379 N   0  0  0  0  0  0
  -25.9362  -11.6492   20.5780 N   0  0  0  0  0  0
  -22.0528  -12.8242   22.0362 N   0  0  0  0  0  0
  -25.4337  -15.1889   20.4071 N   0  0  0  0  0  0
  -31.8113  -14.6767   20.0436 O   0  0  0  0  0  0
  -21.6633   -6.8886   21.4238 O   0  0  0  0  0  0
  -22.3560  -14.5532   20.6636 O   0  0  0  0  0  0
  -24.6159  -31.8652   23.2095 C   0  0  0  0  0  0
  -25.9060  -32.4805   23.8364 C   0  0  1  0  0  0
  -27.2295  -27.4264   20.1008 C   0  0  0  0  0  0
  -25.5943  -33.8595   24.2313 N   0  0  0  0  0  0
  -23.4034  -30.4896   21.5493 C   0  0  2  0  0  0
  -24.8499  -28.9544   20.1119 C   0  0  0  0  0  0
  -22.7406  -29.4639   22.4981 C   0  0  0  0  0  0
  -18.0288  -28.1370   22.8487 C   0  0  0  0  0  0
  -24.1477  -36.7267   23.2647 C   0  0  0  0  0  0
  -25.9305  -30.8294   21.3609 C   0  0  0  0  0  0
  -26.0100  -29.4615   20.7113 C   0  0  0  0  0  0
  -27.2071  -28.7049   20.7014 C   0  0  0  0  0  0
  -26.0569  -26.9281   19.5006 C   0  0  0  0  0  0
  -24.8682  -27.6856   19.5041 C   0  0  0  0  0  0
  -23.6107  -29.8214   20.1641 C   0  0  0  0  0  0
  -25.4113  -36.3079   24.0348 C   0  0  1  0  0  0
  -20.5879  -28.3636   23.1313 C   0  0  2  0  0  0
  -20.6763  -26.9380   22.5418 C   0  0  0  0  0  0
  -19.5737  -26.6366   21.5205 C   0  0  0  0  0  0
  -18.1904  -26.7918   22.1616 C   0  0  0  0  0  0
  -19.1540  -28.8834   23.2870 C   0  0  0  0  0  0
  -18.9475  -30.1428   23.8899 C   0  0  0  0  0  0
  -17.6471  -30.6570   24.0562 C   0  0  0  0  0  0
  -25.9053  -34.9460   23.5130 C   0  0  0  0  0  0
  -16.5359  -29.9070   23.6354 C   0  0  0  0  0  0
  -16.7274  -28.6493   23.0370 C   0  0  0  0  0  0
  -26.4501  -31.6590   25.0705 C   0  0  0  0  0  0
  -25.3771  -31.3689   26.1452 C   0  0  0  0  0  0
  -27.0350  -30.3059   24.6049 C   0  0  0  0  0  0
  -27.6078  -32.4301   25.7478 C   0  0  0  0  0  0
  -27.5564  -37.1768   24.8484 C   0  0  0  0  0  0
  -21.4142  -29.2990   22.3722 N   0  0  0  0  0  0
  -26.4290  -37.3769   23.9425 N   0  0  0  0  0  0
  -24.6670  -31.0761   22.0980 N   0  0  0  0  0  0
  -23.4175  -28.8194   23.3031 O   0  0  0  0  0  0
  -28.3737  -26.6620   20.0915 O   0  0  0  0  0  0
  -26.5584  -34.8919   22.4651 O   0  0  0  0  0  0
  -23.5354  -32.1409   23.7524 O   0  0  0  0  0  0
  -29.8358  -17.3598   19.3995 C   0  0  0  0  0  0
  -29.7451  -18.7900   19.4333 C   0  0  0  0  0  0
  -29.8223  -19.3372   20.6882 C   0  0  0  0  0  0
  -29.9589  -16.7906   20.6525 C   0  0  0  0  0  0
  -29.8496  -20.7166   21.2427 C   0  0  0  0  0  0
  -28.5591  -24.1823   20.3736 C   0  0  0  0  0  0
  -27.5704  -22.2929   26.2629 C   0  0  0  0  0  0
  -26.1131  -21.1799   24.5734 C   0  0  0  0  0  0
  -25.9911  -23.6664   24.8957 C   0  0  0  0  0  0
  -28.3559  -25.5712   21.0347 C   0  0  0  0  0  0
  -27.6280  -22.7256   22.3316 C   0  0  0  0  0  0
  -28.7973  -22.9726   21.3255 C   0  0  1  0  0  0
  -28.0720  -22.6522   23.8143 C   0  0  2  0  0  0
  -26.9373  -22.4511   24.8639 C   0  0  0  0  0  0
  -29.9472  -15.4785   21.0174 N   0  0  0  0  0  0
  -29.1568  -21.7074   20.6409 N   0  0  0  0  0  0
  -30.4480  -20.9232   22.3001 O   0  0  0  0  0  0
  -28.5399  -24.0655   19.1418 O   0  0  0  0  0  0
  -29.6025  -19.4980   18.3344 F   0  0  0  0  0  0
  -28.7253  -23.7806   24.1042 F   0  0  0  0  0  0
  -30.0074  -18.0497   21.8669 S   0  0  0  0  0  0
  -31.4671  -12.3696   19.1175 H   0  0  0  0  0  0
  -30.2964  -11.2787   19.8122 H   0  0  0  0  0  0
  -29.7242  -11.7778   17.4159 H   0  0  0  0  0  0
  -29.6640  -13.4864   17.7619 H   0  0  0  0  0  0
  -27.8060  -11.3178   18.7928 H   0  0  0  0  0  0
  -27.3651  -12.6657   17.7818 H   0  0  0  0  0  0
  -27.7111  -14.2537   19.5757 H   0  0  0  0  0  0
  -28.6850  -11.9532   21.3427 H   0  0  0  0  0  0
  -28.4826  -13.5941   21.8667 H   0  0  0  0  0  0
  -25.2767   -9.5681   22.4744 H   0  0  0  0  0  0
  -23.9982   -7.4653   22.7504 H   0  0  0  0  0  0
  -21.0837   -8.8767   19.8958 H   0  0  0  0  0  0
  -22.3702  -10.9661   19.6152 H   0  0  0  0  0  0
  -21.1996   -7.6141   23.9700 H   0  0  0  0  0  0
  -21.1480   -6.0516   25.9049 H   0  0  0  0  0  0
  -22.0608   -2.7613   23.2823 H   0  0  0  0  0  0
  -22.4135  -11.9895   22.4732 H   0  0  0  0  0  0
  -21.1159  -13.1278   22.2584 H   0  0  0  0  0  0
  -24.6630  -15.8415   20.4930 H   0  0  0  0  0  0
  -26.2927  -15.6278   20.0953 H   0  0  0  0  0  0
  -26.7139  -32.5577   23.1128 H   0  0  0  0  0  0
  -25.0187  -33.9736   25.0533 H   0  0  0  0  0  0
  -22.6911  -31.3066   21.4110 H   0  0  0  0  0  0
  -23.3770  -35.9568   23.3327 H   0  0  0  0  0  0
  -24.3575  -36.8874   22.2057 H   0  0  0  0  0  0
  -23.7201  -37.6459   23.6663 H   0  0  0  0  0  0
  -26.0395  -31.5943   20.5883 H   0  0  0  0  0  0
  -26.8176  -30.8861   21.9810 H   0  0  0  0  0  0
  -28.1038  -29.0921   21.1655 H   0  0  0  0  0  0
  -26.0650  -25.9566   19.0281 H   0  0  0  0  0  0
  -23.9791  -27.2852   19.0376 H   0  0  0  0  0  0
  -23.7110  -30.5942   19.4017 H   0  0  0  0  0  0
  -22.7347  -29.2374   19.8791 H   0  0  0  0  0  0
  -25.1266  -36.1927   25.0844 H   0  0  0  0  0  0
  -20.9963  -28.3217   24.1441 H   0  0  0  0  0  0
  -20.5690  -26.2236   23.3590 H   0  0  0  0  0  0
  -21.6604  -26.7394   22.1183 H   0  0  0  0  0  0
  -19.6903  -25.6288   21.1222 H   0  0  0  0  0  0
  -19.6727  -27.3188   20.6750 H   0  0  0  0  0  0
  -17.4170  -26.6724   21.4002 H   0  0  0  0  0  0
  -18.0259  -26.0036   22.8993 H   0  0  0  0  0  0
  -19.7957  -30.7214   24.2268 H   0  0  0  0  0  0
  -17.5047  -31.6282   24.5109 H   0  0  0  0  0  0
  -15.5371  -30.2961   23.7698 H   0  0  0  0  0  0
  -15.8671  -28.0808   22.7102 H   0  0  0  0  0  0
  -24.5963  -30.7023   25.7774 H   0  0  0  0  0  0
  -24.8963  -32.2840   26.4893 H   0  0  0  0  0  0
  -25.8120  -30.8858   27.0204 H   0  0  0  0  0  0
  -26.2855  -29.6780   24.1217 H   0  0  0  0  0  0
  -27.4284  -29.7336   25.4452 H   0  0  0  0  0  0
  -27.8609  -30.4434   23.9080 H   0  0  0  0  0  0
  -27.2703  -33.3622   26.1996 H   0  0  0  0  0  0
  -28.3906  -32.6782   25.0315 H   0  0  0  0  0  0
  -28.0680  -31.8450   26.5432 H   0  0  0  0  0  0
  -28.2555  -38.0069   24.7493 H   0  0  0  0  0  0
  -28.1051  -36.2590   24.6334 H   0  0  0  0  0  0
  -27.2259  -37.1444   25.8874 H   0  0  0  0  0  0
  -20.9288  -29.8715   21.6964 H   0  0  0  0  0  0
  -26.0185  -38.2842   24.1447 H   0  0  0  0  0  0
  -29.7770  -16.8191   18.4646 H   0  0  0  0  0  0
  -26.8055  -22.1703   27.0314 H   0  0  0  0  0  0
  -28.1700  -23.1620   26.5336 H   0  0  0  0  0  0
  -28.2214  -21.4190   26.3134 H   0  0  0  0  0  0
  -25.3692  -21.0003   25.3532 H   0  0  0  0  0  0
  -26.7425  -20.2910   24.5220 H   0  0  0  0  0  0
  -25.5667  -21.2552   23.6331 H   0  0  0  0  0  0
  -25.2462  -23.5662   25.6850 H   0  0  0  0  0  0
  -25.4495  -23.7838   23.9564 H   0  0  0  0  0  0
  -26.5360  -24.5923   25.0772 H   0  0  0  0  0  0
  -29.1604  -25.7271   21.7545 H   0  0  0  0  0  0
  -27.4242  -25.5655   21.6045 H   0  0  0  0  0  0
  -27.1223  -21.7969   22.0696 H   0  0  0  0  0  0
  -26.8649  -23.4935   22.2262 H   0  0  0  0  0  0
  -29.6768  -23.2699   21.8973 H   0  0  0  0  0  0
  -28.8004  -21.8506   23.9335 H   0  0  0  0  0  0
  -29.1455  -15.1749   21.5505 H   0  0  0  0  0  0
  -28.7686  -21.5652   19.7153 H   0  0  0  0  0  0
  1 25  1  0  0  0
  1 30  2  0  0  0
  1 85  1  0  0  0
  2  3  1  0  0  0
  2 25  1  0  0  0
  2 92  1  0  0  0
  2 93  1  0  0  0
  3  4  1  0  0  0
  3 94  1  0  0  0
  3 95  1  0  0  0
  4  5  1  0  0  0
  4 96  1  0  0  0
  4 97  1  0  0  0
  5  6  1  0  0  0
  5 26  1  0  0  0
  5 98  1  0  0  0
  6 25  1  0  0  0
  6 99  1  0  0  0
  6100  1  0  0  0
  7  8  2  0  0  0
  7 26  1  0  0  0
  7 29  1  0  0  0
  8  9  1  0  0  0
  8 22  1  0  0  0
  9 10  1  0  0  0
  9 27  2  0  0  0
 10 11  2  0  0  0
 10 15  1  0  0  0
 11 12  1  0  0  0
 11101  1  0  0  0
 12 13  2  0  0  0
 12102  1  0  0  0
 13 14  1  0  0  0
 13 31  1  0  0  0
 14 15  2  0  0  0
 14103  1  0  0  0
 15104  1  0  0  0
 16 17  2  0  0  0
 16 21  1  0  0  0
 16 31  1  0  0  0
 17 18  1  0  0  0
 17105  1  0  0  0
 18 19  2  0  0  0
 18106  1  0  0  0
 19 20  1  0  0  0
 19 24  1  0  0  0
 20 21  2  0  0  0
 20107  1  0  0  0
 21 23  1  0  0  0
 22 28  1  0  0  0
 22 32  2  0  0  0
 26 27  1  0  0  0
 28108  1  0  0  0
 28109  1  0  0  0
 29110  1  0  0  0
 29111  1  0  0  0
 33 34  1  0  0  0
 33 66  1  0  0  0
 33 70  2  0  0  0
 34 36  1  0  0  0
 34 59  1  0  0  0
 34112  1  0  0  0
 35 44  2  0  0  0
 35 45  1  0  0  0
 35 68  1  0  0  0
 36 56  1  0  0  0
 36113  1  0  0  0
 37 39  1  0  0  0
 37 47  1  0  0  0
 37 66  1  0  0  0
 37114  1  0  0  0
 38 43  2  0  0  0
 38 46  1  0  0  0
 38 47  1  0  0  0
 39 64  1  0  0  0
 39 67  2  0  0  0
 40 52  1  0  0  0
 40 53  2  0  0  0
 40 58  1  0  0  0
 41115  1  0  0  0
 41116  1  0  0  0
 41117  1  0  0  0
 41 48  1  0  0  0
 42 43  1  0  0  0
 42 66  1  0  0  0
 42118  1  0  0  0
 42119  1  0  0  0
 43 44  1  0  0  0
 44120  1  0  0  0
 45 46  2  0  0  0
 45121  1  0  0  0
 46122  1  0  0  0
 47123  1  0  0  0
 47124  1  0  0  0
 48 56  1  0  0  0
 48 65  1  0  0  0
 48125  1  0  0  0
 49 50  1  0  0  0
 49 53  1  0  0  0
 49 64  1  0  0  0
 49126  1  0  0  0
 50 51  1  0  0  0
 50127  1  0  0  0
 50128  1  0  0  0
 51 52  1  0  0  0
 51129  1  0  0  0
 51130  1  0  0  0
 52131  1  0  0  0
 52132  1  0  0  0
 53 54  1  0  0  0
 54 55  2  0  0  0
 54133  1  0  0  0
 55 57  1  0  0  0
 55134  1  0  0  0
 56 69  2  0  0  0
 57 58  2  0  0  0
 57135  1  0  0  0
 58136  1  0  0  0
 59 60  1  0  0  0
 59 61  1  0  0  0
 59 62  1  0  0  0
 60137  1  0  0  0
 60138  1  0  0  0
 60139  1  0  0  0
 61140  1  0  0  0
 61141  1  0  0  0
 61142  1  0  0  0
 62143  1  0  0  0
 62144  1  0  0  0
 62145  1  0  0  0
 63 65  1  0  0  0
 63146  1  0  0  0
 63147  1  0  0  0
 63148  1  0  0  0
 64149  1  0  0  0
 65150  1  0  0  0
 68 80  1  0  0  0
 71 72  1  0  0  0
 71 74  2  0  0  0
 71151  1  0  0  0
 72 73  2  0  0  0
 72 89  1  0  0  0
 73 75  1  0  0  0
 73 91  1  0  0  0
 74 85  1  0  0  0
 74 91  1  0  0  0
 75 86  1  0  0  0
 75 87  2  0  0  0
 76 80  1  0  0  0
 76 82  1  0  0  0
 76 88  2  0  0  0
 77152  1  0  0  0
 77153  1  0  0  0
 77154  1  0  0  0
 77 84  1  0  0  0
 78 84  1  0  0  0
 78155  1  0  0  0
 78156  1  0  0  0
 78157  1  0  0  0
 79 84  1  0  0  0
 79158  1  0  0  0
 79159  1  0  0  0
 79160  1  0  0  0
 80161  1  0  0  0
 80162  1  0  0  0
 81 83  1  0  0  0
 81163  1  0  0  0
 81164  1  0  0  0
 81 82  1  0  0  0
 82 86  1  0  0  0
 82165  1  0  0  0
 83 84  1  0  0  0
 83 90  1  0  0  0
 83166  1  0  0  0
 85167  1  0  0  0
 86168  1  0  0  0
M  ISO  4   1 100  68 101  80 101  85 100
M  END
> <chiral flag>
0

> <version>
0

> <s_m_source_file>
/data/baiqing/PycharmProjects/Reinvent-master-3.2/result/LINK_invent/BTK/process_docking_weight1_custom_product_contain_oxygen_bond_distance_aromatic_linkinvent_7_9_3/rearranged_h_0175.sdf

> <i_m_source_file_index>
52

> <r_mmod_Potential_Energy-OPLS-2005>
-50.0639495849609

> <r_mmod_Stretch_Energy-OPLS-2005>
40.9144325256348

> <r_mmod_Bend_Energy-OPLS-2005>
108.973190307617

> <r_mmod_Torsional_Energy-OPLS-2005>
297.986267089844

> <r_mmod_Improper_Torsional_Energy-OPLS-2005>
4.81520748138428

> <r_mmod_Van_der_Waal_Energy-OPLS-2005>
130.418716430664

> <r_mmod_Electrostatic_Energy-OPLS-2005>
-415.319732666016

> <r_mmod_Solvation_Energy-OPLS-2005>
-232.106170654297

> <b_mmod_Minimization_Converged-OPLS-2005>
0

> <r_mmod_RMS_Derivative-OPLS-2005>
4.5870156288147

$$$$
53
                    3D
 Structure written by MMmdl.
155163  0  0  1  0            999 V2000
  -30.6848  -14.4068   20.6056 C   0  0  0  0  0  0
  -30.4330  -12.2785   19.3991 C   0  0  0  0  0  0
  -29.4958  -12.5120   18.1940 C   0  0  0  0  0  0
  -28.0184  -12.3614   18.6099 C   0  0  0  0  0  0
  -27.6699  -13.1864   19.8778 C   0  0  2  0  0  0
  -28.7036  -12.9037   20.9891 C   0  0  0  0  0  0
  -25.2642  -13.8129   20.5588 C   0  0  0  0  0  0
  -24.1853  -13.0428   20.9102 C   0  0  0  0  0  0
  -24.6366  -11.6895   20.8671 C   0  0  0  0  0  0
  -23.9004  -10.4316   21.0376 C   0  0  0  0  0  0
  -24.3583   -9.4258   21.9161 C   0  0  0  0  0  0
  -23.6295   -8.2272   22.0744 C   0  0  0  0  0  0
  -22.4281   -8.0281   21.3530 C   0  0  0  0  0  0
  -21.9883   -9.0244   20.4630 C   0  0  0  0  0  0
  -22.7174  -10.2142   20.3034 C   0  0  0  0  0  0
  -21.6864   -6.0732   22.5286 C   0  0  0  0  0  0
  -21.4022   -6.5641   23.8220 C   0  0  0  0  0  0
  -21.3657   -5.6794   24.9181 C   0  0  0  0  0  0
  -21.6057   -4.3060   24.7240 C   0  0  0  0  0  0
  -21.8826   -3.8143   23.4364 C   0  0  0  0  0  0
  -21.9211   -4.6957   22.3420 C   0  0  0  0  0  0
  -22.7905  -13.5260   21.1833 C   0  0  0  0  0  0
  -22.1669   -4.2140   21.0998 F   0  0  0  0  0  0
  -21.5652   -3.4552   25.7757 F   0  0  0  0  0  0
  -30.0477  -13.2161   20.4633 N   0  0  0  0  0  0
  -26.3049  -12.9234   20.3301 N   0  0  0  0  0  0
  -25.9288  -11.6420   20.5700 N   0  0  0  0  0  0
  -22.0561  -12.8222   22.0388 N   0  0  0  0  0  0
  -25.4463  -15.1823   20.4029 N   0  0  0  0  0  0
  -31.7617  -14.6768   20.0597 O   0  0  0  0  0  0
  -21.6657   -6.8863   21.4233 O   0  0  0  0  0  0
  -22.3605  -14.5598   20.6748 O   0  0  0  0  0  0
  -24.6096  -31.8700   23.2121 C   0  0  0  0  0  0
  -25.9016  -32.4818   23.8399 C   0  0  1  0  0  0
  -27.2385  -27.4719   20.0922 C   0  0  0  0  0  0
  -25.5888  -33.8618   24.2330 N   0  0  0  0  0  0
  -23.3949  -30.4895   21.5523 C   0  0  2  0  0  0
  -24.8418  -28.9514   20.1243 C   0  0  0  0  0  0
  -22.7381  -29.4651   22.5034 C   0  0  0  0  0  0
  -18.0281  -28.1338   22.8497 C   0  0  0  0  0  0
  -24.1488  -36.7328   23.2638 C   0  0  0  0  0  0
  -25.9181  -30.8440   21.3603 C   0  0  0  0  0  0
  -25.9975  -29.4752   20.7201 C   0  0  0  0  0  0
  -27.1978  -28.7361   20.7112 C   0  0  0  0  0  0
  -26.0707  -26.9469   19.5024 C   0  0  0  0  0  0
  -24.8683  -27.6795   19.5230 C   0  0  0  0  0  0
  -23.6027  -29.8156   20.1680 C   0  0  0  0  0  0
  -25.4104  -36.3111   24.0332 C   0  0  1  0  0  0
  -20.5853  -28.3620   23.1378 C   0  0  2  0  0  0
  -20.6739  -26.9346   22.5468 C   0  0  0  0  0  0
  -19.5738  -26.6367   21.5222 C   0  0  0  0  0  0
  -18.1925  -26.7887   22.1621 C   0  0  0  0  0  0
  -19.1520  -28.8803   23.2928 C   0  0  0  0  0  0
  -18.9425  -30.1405   23.8938 C   0  0  0  0  0  0
  -17.6424  -30.6538   24.0566 C   0  0  0  0  0  0
  -25.9022  -34.9474   23.5128 C   0  0  0  0  0  0
  -16.5327  -29.9035   23.6294 C   0  0  0  0  0  0
  -16.7277  -28.6461   23.0318 C   0  0  0  0  0  0
  -26.4462  -31.6592   25.0718 C   0  0  0  0  0  0
  -25.3778  -31.3701   26.1506 C   0  0  0  0  0  0
  -27.0288  -30.3041   24.6062 C   0  0  0  0  0  0
  -27.6028  -32.4301   25.7500 C   0  0  0  0  0  0
  -27.5569  -37.1810   24.8464 C   0  0  0  0  0  0
  -21.4118  -29.3012   22.3805 N   0  0  0  0  0  0
  -26.4295  -37.3786   23.9394 N   0  0  0  0  0  0
  -24.6585  -31.0803   22.1021 N   0  0  0  0  0  0
  -23.4172  -28.8237   23.3101 O   0  0  0  0  0  0
  -28.4146  -26.7707   20.0515 O   0  0  0  0  0  0
  -26.5584  -34.8917   22.4686 O   0  0  0  0  0  0
  -23.5300  -32.1470   23.7524 O   0  0  0  0  0  0
  -29.0909  -18.3300   19.6462 C   0  0  0  0  0  0
  -28.7347  -18.8778   20.8696 C   0  0  0  0  0  0
  -29.6615  -16.5969   21.0089 C   0  0  0  0  0  0
  -28.2644  -24.3438   20.3149 C   0  0  0  0  0  0
  -27.3613  -20.8600   20.5213 C   0  0  0  0  0  0
  -29.0241  -18.9516   18.2791 C   0  0  0  0  0  0
  -28.3249  -23.1162   21.2194 C   0  0  0  0  0  0
  -28.4785  -25.7014   20.9928 C   0  0  0  0  0  0
  -27.0616  -22.2293   21.1273 C   0  0  0  0  0  0
  -29.5980  -17.0279   19.7450 N   0  0  0  0  0  0
  -28.2480  -20.1048   21.1885 N   0  0  0  0  0  0
  -30.0365  -15.2870   21.3762 N   0  0  0  0  0  0
  -28.0704  -24.2312   19.0994 O   0  0  0  0  0  0
  -26.7628  -20.4968   19.5071 O   0  0  0  0  0  0
  -29.0775  -17.7615   22.1732 S   0  0  0  0  0  0
  -31.4762  -12.3979   19.0990 H   0  0  0  0  0  0
  -30.3479  -11.2515   19.7569 H   0  0  0  0  0  0
  -29.7324  -11.8082   17.3947 H   0  0  0  0  0  0
  -29.6625  -13.5081   17.7821 H   0  0  0  0  0  0
  -27.8427  -11.3008   18.8030 H   0  0  0  0  0  0
  -27.3599  -12.6359   17.7847 H   0  0  0  0  0  0
  -27.7332  -14.2414   19.6069 H   0  0  0  0  0  0
  -28.6685  -11.8496   21.2687 H   0  0  0  0  0  0
  -28.4508  -13.4421   21.9040 H   0  0  0  0  0  0
  -25.2735   -9.5801   22.4707 H   0  0  0  0  0  0
  -24.0054   -7.4692   22.7460 H   0  0  0  0  0  0
  -21.0823   -8.8718   19.8947 H   0  0  0  0  0  0
  -22.3587  -10.9661   19.6150 H   0  0  0  0  0  0
  -21.1986   -7.6147   23.9716 H   0  0  0  0  0  0
  -21.1463   -6.0523   25.9078 H   0  0  0  0  0  0
  -22.0602   -2.7604   23.2868 H   0  0  0  0  0  0
  -22.4151  -11.9832   22.4706 H   0  0  0  0  0  0
  -21.1206  -13.1264   22.2659 H   0  0  0  0  0  0
  -24.6882  -15.8481   20.5066 H   0  0  0  0  0  0
  -26.3056  -15.6109   20.0812 H   0  0  0  0  0  0
  -26.7096  -32.5553   23.1173 H   0  0  0  0  0  0
  -25.0051  -33.9784   25.0481 H   0  0  0  0  0  0
  -22.6804  -31.3039   21.4091 H   0  0  0  0  0  0
  -23.3725  -35.9687   23.3326 H   0  0  0  0  0  0
  -24.3603  -36.8915   22.2050 H   0  0  0  0  0  0
  -23.7269  -37.6548   23.6649 H   0  0  0  0  0  0
  -26.0130  -31.6052   20.5837 H   0  0  0  0  0  0
  -26.8129  -30.9109   21.9685 H   0  0  0  0  0  0
  -28.0911  -29.1270   21.1767 H   0  0  0  0  0  0
  -26.0902  -25.9770   19.0268 H   0  0  0  0  0  0
  -23.9785  -27.2629   19.0698 H   0  0  0  0  0  0
  -23.7164  -30.5876   19.4066 H   0  0  0  0  0  0
  -22.7286  -29.2331   19.8715 H   0  0  0  0  0  0
  -25.1273  -36.1972   25.0824 H   0  0  0  0  0  0
  -20.9953  -28.3159   24.1489 H   0  0  0  0  0  0
  -20.5589  -26.2206   23.3646 H   0  0  0  0  0  0
  -21.6632  -26.7373   22.1310 H   0  0  0  0  0  0
  -19.6924  -25.6316   21.1167 H   0  0  0  0  0  0
  -19.6659  -27.3239   20.6791 H   0  0  0  0  0  0
  -17.4220  -26.6658   21.4007 H   0  0  0  0  0  0
  -18.0292  -25.9997   22.8989 H   0  0  0  0  0  0
  -19.7890  -30.7202   24.2354 H   0  0  0  0  0  0
  -17.4956  -31.6200   24.5203 H   0  0  0  0  0  0
  -15.5307  -30.2923   23.7578 H   0  0  0  0  0  0
  -15.8708  -28.0770   22.6987 H   0  0  0  0  0  0
  -24.5925  -30.7042   25.7913 H   0  0  0  0  0  0
  -24.9003  -32.2863   26.4986 H   0  0  0  0  0  0
  -25.8179  -30.8889   27.0254 H   0  0  0  0  0  0
  -26.2834  -29.6802   24.1116 H   0  0  0  0  0  0
  -27.4088  -29.7234   25.4479 H   0  0  0  0  0  0
  -27.8649  -30.4359   23.9193 H   0  0  0  0  0  0
  -27.2624  -33.3563   26.2140 H   0  0  0  0  0  0
  -28.3838  -32.6911   25.0354 H   0  0  0  0  0  0
  -28.0722  -31.8407   26.5387 H   0  0  0  0  0  0
  -28.2590  -38.0094   24.7469 H   0  0  0  0  0  0
  -28.1046  -36.2614   24.6328 H   0  0  0  0  0  0
  -27.2297  -37.1517   25.8872 H   0  0  0  0  0  0
  -20.9278  -29.8742   21.7040 H   0  0  0  0  0  0
  -26.0178  -38.2868   24.1364 H   0  0  0  0  0  0
  -29.2504  -20.0175   18.3110 H   0  0  0  0  0  0
  -28.0297  -18.8324   17.8447 H   0  0  0  0  0  0
  -29.7320  -18.4920   17.5873 H   0  0  0  0  0  0
  -28.4639  -23.4506   22.2486 H   0  0  0  0  0  0
  -29.2237  -22.5575   20.9567 H   0  0  0  0  0  0
  -29.4580  -25.7038   21.4726 H   0  0  0  0  0  0
  -27.7383  -25.8203   21.7839 H   0  0  0  0  0  0
  -26.6591  -22.0736   22.1284 H   0  0  0  0  0  0
  -26.2622  -22.7100   20.5583 H   0  0  0  0  0  0
  -28.5314  -20.4630   22.0901 H   0  0  0  0  0  0
  -29.4188  -14.8739   22.0556 H   0  0  0  0  0  0
  1 25  1  0  0  0
  1 30  2  0  0  0
  1 82  1  0  0  0
  2  3  1  0  0  0
  2 25  1  0  0  0
  2 86  1  0  0  0
  2 87  1  0  0  0
  3  4  1  0  0  0
  3 88  1  0  0  0
  3 89  1  0  0  0
  4  5  1  0  0  0
  4 90  1  0  0  0
  4 91  1  0  0  0
  5  6  1  0  0  0
  5 26  1  0  0  0
  5 92  1  0  0  0
  6 25  1  0  0  0
  6 93  1  0  0  0
  6 94  1  0  0  0
  7  8  2  0  0  0
  7 26  1  0  0  0
  7 29  1  0  0  0
  8  9  1  0  0  0
  8 22  1  0  0  0
  9 10  1  0  0  0
  9 27  2  0  0  0
 10 11  2  0  0  0
 10 15  1  0  0  0
 11 12  1  0  0  0
 11 95  1  0  0  0
 12 13  2  0  0  0
 12 96  1  0  0  0
 13 14  1  0  0  0
 13 31  1  0  0  0
 14 15  2  0  0  0
 14 97  1  0  0  0
 15 98  1  0  0  0
 16 17  2  0  0  0
 16 21  1  0  0  0
 16 31  1  0  0  0
 17 18  1  0  0  0
 17 99  1  0  0  0
 18 19  2  0  0  0
 18100  1  0  0  0
 19 20  1  0  0  0
 19 24  1  0  0  0
 20 21  2  0  0  0
 20101  1  0  0  0
 21 23  1  0  0  0
 22 28  1  0  0  0
 22 32  2  0  0  0
 26 27  1  0  0  0
 28102  1  0  0  0
 28103  1  0  0  0
 29104  1  0  0  0
 29105  1  0  0  0
 33 34  1  0  0  0
 33 66  1  0  0  0
 33 70  2  0  0  0
 34 36  1  0  0  0
 34 59  1  0  0  0
 34106  1  0  0  0
 35 44  2  0  0  0
 35 45  1  0  0  0
 35 68  1  0  0  0
 36 56  1  0  0  0
 36107  1  0  0  0
 37 39  1  0  0  0
 37 47  1  0  0  0
 37 66  1  0  0  0
 37108  1  0  0  0
 38 43  2  0  0  0
 38 46  1  0  0  0
 38 47  1  0  0  0
 39 64  1  0  0  0
 39 67  2  0  0  0
 40 52  1  0  0  0
 40 53  2  0  0  0
 40 58  1  0  0  0
 41109  1  0  0  0
 41110  1  0  0  0
 41111  1  0  0  0
 41 48  1  0  0  0
 42 43  1  0  0  0
 42 66  1  0  0  0
 42112  1  0  0  0
 42113  1  0  0  0
 43 44  1  0  0  0
 44114  1  0  0  0
 45 46  2  0  0  0
 45115  1  0  0  0
 46116  1  0  0  0
 47117  1  0  0  0
 47118  1  0  0  0
 48 56  1  0  0  0
 48 65  1  0  0  0
 48119  1  0  0  0
 49 50  1  0  0  0
 49 53  1  0  0  0
 49 64  1  0  0  0
 49120  1  0  0  0
 50 51  1  0  0  0
 50121  1  0  0  0
 50122  1  0  0  0
 51 52  1  0  0  0
 51123  1  0  0  0
 51124  1  0  0  0
 52125  1  0  0  0
 52126  1  0  0  0
 53 54  1  0  0  0
 54 55  2  0  0  0
 54127  1  0  0  0
 55 57  1  0  0  0
 55128  1  0  0  0
 56 69  2  0  0  0
 57 58  2  0  0  0
 57129  1  0  0  0
 58130  1  0  0  0
 59 60  1  0  0  0
 59 61  1  0  0  0
 59 62  1  0  0  0
 60131  1  0  0  0
 60132  1  0  0  0
 60133  1  0  0  0
 61134  1  0  0  0
 61135  1  0  0  0
 61136  1  0  0  0
 62137  1  0  0  0
 62138  1  0  0  0
 62139  1  0  0  0
 63 65  1  0  0  0
 63140  1  0  0  0
 63141  1  0  0  0
 63142  1  0  0  0
 64143  1  0  0  0
 65144  1  0  0  0
 68 78  1  0  0  0
 71 72  2  0  0  0
 71 76  1  0  0  0
 71 80  1  0  0  0
 72 81  1  0  0  0
 72 85  1  0  0  0
 73 80  2  0  0  0
 73 82  1  0  0  0
 73 85  1  0  0  0
 74 77  1  0  0  0
 74 78  1  0  0  0
 74 83  2  0  0  0
 75 79  1  0  0  0
 75 81  1  0  0  0
 75 84  2  0  0  0
 76145  1  0  0  0
 76146  1  0  0  0
 76147  1  0  0  0
 77 79  1  0  0  0
 77148  1  0  0  0
 77149  1  0  0  0
 78150  1  0  0  0
 78151  1  0  0  0
 79152  1  0  0  0
 79153  1  0  0  0
 81154  1  0  0  0
 82155  1  0  0  0
M  ISO  4   1 100  68 101  78 101  82 100
M  END
> <chiral flag>
0

> <version>
0

> <s_m_source_file>
/data/baiqing/PycharmProjects/Reinvent-master-3.2/result/LINK_invent/BTK/process_docking_weight1_custom_product_contain_oxygen_bond_distance_aromatic_linkinvent_7_9_3/rearranged_h_0175.sdf

> <i_m_source_file_index>
53

> <r_mmod_Potential_Energy-OPLS-2005>
-201.189880371094

> <r_mmod_Stretch_Energy-OPLS-2005>
31.1183204650879

> <r_mmod_Bend_Energy-OPLS-2005>
96.9308319091797

> <r_mmod_Torsional_Energy-OPLS-2005>
272.417938232422

> <r_mmod_Improper_Torsional_Energy-OPLS-2005>
4.99764919281006

> <r_mmod_Van_der_Waal_Energy-OPLS-2005>
128.2109375

> <r_mmod_Electrostatic_Energy-OPLS-2005>
-480.5859375

> <r_mmod_Solvation_Energy-OPLS-2005>
-262.415771484375

> <b_mmod_Minimization_Converged-OPLS-2005>
0

> <r_mmod_RMS_Derivative-OPLS-2005>
3.39166927337646

$$$$
54
                    3D
 Structure written by MMmdl.
151159  0  0  1  0            999 V2000
  -30.7371  -14.5280   20.5198 C   0  0  0  0  0  0
  -30.4114  -12.3212   19.4544 C   0  0  0  0  0  0
  -29.4994  -12.4990   18.2237 C   0  0  0  0  0  0
  -28.0198  -12.3604   18.6294 C   0  0  0  0  0  0
  -27.6514  -13.2268   19.8645 C   0  0  2  0  0  0
  -28.6992  -13.0848   20.9926 C   0  0  0  0  0  0
  -25.2382  -13.8031   20.5602 C   0  0  0  0  0  0
  -24.1733  -13.0294   20.9196 C   0  0  0  0  0  0
  -24.6398  -11.6819   20.8769 C   0  0  0  0  0  0
  -23.9084  -10.4214   21.0414 C   0  0  0  0  0  0
  -24.3623   -9.4140   21.9201 C   0  0  0  0  0  0
  -23.6280   -8.2192   22.0765 C   0  0  0  0  0  0
  -22.4265   -8.0248   21.3546 C   0  0  0  0  0  0
  -21.9909   -9.0220   20.4646 C   0  0  0  0  0  0
  -22.7256  -10.2083   20.3053 C   0  0  0  0  0  0
  -21.6838   -6.0718   22.5280 C   0  0  0  0  0  0
  -21.4002   -6.5628   23.8211 C   0  0  0  0  0  0
  -21.3658   -5.6786   24.9177 C   0  0  0  0  0  0
  -21.6047   -4.3049   24.7230 C   0  0  0  0  0  0
  -21.8820   -3.8135   23.4353 C   0  0  0  0  0  0
  -21.9187   -4.6947   22.3406 C   0  0  0  0  0  0
  -22.7760  -13.5099   21.1859 C   0  0  0  0  0  0
  -22.1656   -4.2133   21.0984 F   0  0  0  0  0  0
  -21.5637   -3.4536   25.7746 F   0  0  0  0  0  0
  -30.0344  -13.3573   20.4345 N   0  0  0  0  0  0
  -26.2963  -12.9359   20.3350 N   0  0  0  0  0  0
  -25.9348  -11.6489   20.5814 N   0  0  0  0  0  0
  -22.0424  -12.8117   22.0449 N   0  0  0  0  0  0
  -25.3676  -15.1684   20.3816 N   0  0  0  0  0  0
  -31.8960  -14.5700   20.0998 O   0  0  0  0  0  0
  -21.6619   -6.8856   21.4242 O   0  0  0  0  0  0
  -22.3441  -14.5413   20.6715 O   0  0  0  0  0  0
  -24.6159  -31.8674   23.2096 C   0  0  0  0  0  0
  -25.9049  -32.4820   23.8399 C   0  0  1  0  0  0
  -27.2389  -27.4279   20.1029 C   0  0  0  0  0  0
  -25.5908  -33.8619   24.2334 N   0  0  0  0  0  0
  -23.4056  -30.4904   21.5495 C   0  0  2  0  0  0
  -24.8554  -28.9572   20.1130 C   0  0  0  0  0  0
  -22.7424  -29.4655   22.4982 C   0  0  0  0  0  0
  -18.0273  -28.1376   22.8492 C   0  0  0  0  0  0
  -24.1489  -36.7312   23.2637 C   0  0  0  0  0  0
  -25.9352  -30.8315   21.3647 C   0  0  0  0  0  0
  -26.0159  -29.4656   20.7117 C   0  0  0  0  0  0
  -27.2126  -28.7085   20.7039 C   0  0  0  0  0  0
  -26.0642  -26.9425   19.4864 C   0  0  0  0  0  0
  -24.8748  -27.6950   19.4955 C   0  0  0  0  0  0
  -23.6157  -29.8223   20.1643 C   0  0  0  0  0  0
  -25.4109  -36.3113   24.0340 C   0  0  1  0  0  0
  -20.5868  -28.3668   23.1311 C   0  0  2  0  0  0
  -20.6764  -26.9402   22.5415 C   0  0  0  0  0  0
  -19.5744  -26.6385   21.5213 C   0  0  0  0  0  0
  -18.1922  -26.7925   22.1619 C   0  0  0  0  0  0
  -19.1523  -28.8838   23.2899 C   0  0  0  0  0  0
  -18.9449  -30.1443   23.8910 C   0  0  0  0  0  0
  -17.6451  -30.6582   24.0566 C   0  0  0  0  0  0
  -25.9036  -34.9476   23.5133 C   0  0  0  0  0  0
  -16.5342  -29.9084   23.6327 C   0  0  0  0  0  0
  -16.7262  -28.6500   23.0350 C   0  0  0  0  0  0
  -26.4478  -31.6591   25.0723 C   0  0  0  0  0  0
  -25.3746  -31.3686   26.1469 C   0  0  0  0  0  0
  -27.0303  -30.3033   24.6089 C   0  0  0  0  0  0
  -27.6059  -32.4303   25.7487 C   0  0  0  0  0  0
  -27.5584  -37.1813   24.8464 C   0  0  0  0  0  0
  -21.4150  -29.3033   22.3719 N   0  0  0  0  0  0
  -26.4298  -37.3795   23.9408 N   0  0  0  0  0  0
  -24.6705  -31.0772   22.0999 N   0  0  0  0  0  0
  -23.4191  -28.8200   23.3031 O   0  0  0  0  0  0
  -28.3762  -26.6423   20.1268 O   0  0  0  0  0  0
  -26.5591  -34.8927   22.4690 O   0  0  0  0  0  0
  -23.5349  -32.1428   23.7485 O   0  0  0  0  0  0
  -28.4174  -19.9261   21.1397 C   0  0  0  0  0  0
  -28.6248  -18.5088   21.1432 C   0  0  0  0  0  0
  -29.9259  -18.1552   20.8767 C   0  0  0  0  0  0
  -29.5259  -20.6799   20.8279 C   0  0  0  0  0  0
  -30.5397  -16.8225   20.7133 C   0  0  0  0  0  0
  -28.2114  -25.3586   20.6171 C   0  0  0  0  0  0
  -29.0590  -24.3244   20.4014 C   0  0  0  0  0  0
  -28.7295  -22.9976   20.9497 C   0  0  0  0  0  0
  -27.5130  -17.5270   21.3104 C   0  0  0  0  0  0
  -30.0085  -15.6605   20.9274 N   0  0  0  0  0  0
  -29.6280  -22.0341   20.6385 N   0  0  0  0  0  0
  -27.7328  -22.7720   21.6418 O   0  0  0  0  0  0
  -30.1776  -24.5051   19.6814 O   0  0  0  0  0  0
  -26.3378  -18.1326   21.4878 F   0  0  0  0  0  0
  -27.4181  -16.7956   20.2029 F   0  0  0  0  0  0
  -27.7035  -16.7221   22.3557 F   0  0  0  0  0  0
  -30.8914  -19.5978   20.5989 S   0  0  0  0  0  0
  -31.4601  -12.3698   19.1563 H   0  0  0  0  0  0
  -30.2781  -11.3289   19.8887 H   0  0  0  0  0  0
  -29.7468  -11.7600   17.4606 H   0  0  0  0  0  0
  -29.6700  -13.4774   17.7717 H   0  0  0  0  0  0
  -27.8377  -11.3078   18.8485 H   0  0  0  0  0  0
  -27.3723  -12.6109   17.7884 H   0  0  0  0  0  0
  -27.6704  -14.2648   19.5333 H   0  0  0  0  0  0
  -28.6741  -12.0789   21.4139 H   0  0  0  0  0  0
  -28.4644  -13.7602   21.8168 H   0  0  0  0  0  0
  -25.2763   -9.5611   22.4785 H   0  0  0  0  0  0
  -23.9972   -7.4579   22.7489 H   0  0  0  0  0  0
  -21.0836   -8.8746   19.8951 H   0  0  0  0  0  0
  -22.3728  -10.9627   19.6160 H   0  0  0  0  0  0
  -21.1988   -7.6136   23.9709 H   0  0  0  0  0  0
  -21.1484   -6.0519   25.9079 H   0  0  0  0  0  0
  -22.0604   -2.7597   23.2859 H   0  0  0  0  0  0
  -22.4040  -11.9780   22.4838 H   0  0  0  0  0  0
  -21.1054  -13.1159   22.2677 H   0  0  0  0  0  0
  -24.5807  -15.8005   20.4668 H   0  0  0  0  0  0
  -26.2151  -15.6210   20.0568 H   0  0  0  0  0  0
  -26.7120  -32.5536   23.1166 H   0  0  0  0  0  0
  -25.0079  -33.9782   25.0494 H   0  0  0  0  0  0
  -22.6951  -31.3076   21.4098 H   0  0  0  0  0  0
  -23.3752  -35.9643   23.3304 H   0  0  0  0  0  0
  -24.3586  -36.8919   22.2050 H   0  0  0  0  0  0
  -23.7238  -37.6519   23.6643 H   0  0  0  0  0  0
  -26.0481  -31.5976   20.5964 H   0  0  0  0  0  0
  -26.8227  -30.8860   21.9834 H   0  0  0  0  0  0
  -28.1071  -29.0926   21.1739 H   0  0  0  0  0  0
  -26.0659  -25.9731   19.0078 H   0  0  0  0  0  0
  -23.9848  -27.2988   19.0261 H   0  0  0  0  0  0
  -23.7221  -30.5971   19.4040 H   0  0  0  0  0  0
  -22.7403  -29.2407   19.8694 H   0  0  0  0  0  0
  -25.1285  -36.1984   25.0835 H   0  0  0  0  0  0
  -20.9958  -28.3228   24.1431 H   0  0  0  0  0  0
  -20.5665  -26.2274   23.3603 H   0  0  0  0  0  0
  -21.6635  -26.7446   22.1207 H   0  0  0  0  0  0
  -19.6906  -25.6300   21.1232 H   0  0  0  0  0  0
  -19.6687  -27.3202   20.6750 H   0  0  0  0  0  0
  -17.4197  -26.6685   21.4013 H   0  0  0  0  0  0
  -18.0315  -26.0056   22.9003 H   0  0  0  0  0  0
  -19.7925  -30.7256   24.2284 H   0  0  0  0  0  0
  -17.5006  -31.6266   24.5161 H   0  0  0  0  0  0
  -15.5344  -30.2992   23.7640 H   0  0  0  0  0  0
  -15.8663  -28.0825   22.7057 H   0  0  0  0  0  0
  -24.5936  -30.7014   25.7803 H   0  0  0  0  0  0
  -24.8915  -32.2829   26.4922 H   0  0  0  0  0  0
  -25.8106  -30.8858   27.0223 H   0  0  0  0  0  0
  -26.2838  -29.6798   24.1150 H   0  0  0  0  0  0
  -27.4081  -29.7263   25.4539 H   0  0  0  0  0  0
  -27.8673  -30.4350   23.9229 H   0  0  0  0  0  0
  -27.2690  -33.3598   26.2088 H   0  0  0  0  0  0
  -28.3864  -32.6865   25.0310 H   0  0  0  0  0  0
  -28.0731  -31.8406   26.5385 H   0  0  0  0  0  0
  -28.2605  -38.0107   24.7511 H   0  0  0  0  0  0
  -28.1080  -36.2640   24.6293 H   0  0  0  0  0  0
  -27.2301  -37.1458   25.8868 H   0  0  0  0  0  0
  -20.9312  -29.8762   21.6945 H   0  0  0  0  0  0
  -26.0191  -38.2876   24.1405 H   0  0  0  0  0  0
  -27.4302  -20.3298   21.3105 H   0  0  0  0  0  0
  -31.5651  -16.9041   20.3383 H   0  0  0  0  0  0
  -27.3062  -25.2534   21.2041 H   0  0  0  0  0  0
  -30.4483  -22.3762   20.1535 H   0  0  0  0  0  0
  -30.1903  -25.4188   19.4238 H   0  0  0  0  0  0
  1 25  1  0  0  0
  1 30  2  0  0  0
  1 80  1  0  0  0
  2  3  1  0  0  0
  2 25  1  0  0  0
  2 88  1  0  0  0
  2 89  1  0  0  0
  3  4  1  0  0  0
  3 90  1  0  0  0
  3 91  1  0  0  0
  4  5  1  0  0  0
  4 92  1  0  0  0
  4 93  1  0  0  0
  5  6  1  0  0  0
  5 26  1  0  0  0
  5 94  1  0  0  0
  6 25  1  0  0  0
  6 95  1  0  0  0
  6 96  1  0  0  0
  7  8  2  0  0  0
  7 26  1  0  0  0
  7 29  1  0  0  0
  8  9  1  0  0  0
  8 22  1  0  0  0
  9 10  1  0  0  0
  9 27  2  0  0  0
 10 11  2  0  0  0
 10 15  1  0  0  0
 11 12  1  0  0  0
 11 97  1  0  0  0
 12 13  2  0  0  0
 12 98  1  0  0  0
 13 14  1  0  0  0
 13 31  1  0  0  0
 14 15  2  0  0  0
 14 99  1  0  0  0
 15100  1  0  0  0
 16 17  2  0  0  0
 16 21  1  0  0  0
 16 31  1  0  0  0
 17 18  1  0  0  0
 17101  1  0  0  0
 18 19  2  0  0  0
 18102  1  0  0  0
 19 20  1  0  0  0
 19 24  1  0  0  0
 20 21  2  0  0  0
 20103  1  0  0  0
 21 23  1  0  0  0
 22 28  1  0  0  0
 22 32  2  0  0  0
 26 27  1  0  0  0
 28104  1  0  0  0
 28105  1  0  0  0
 29106  1  0  0  0
 29107  1  0  0  0
 33 34  1  0  0  0
 33 66  1  0  0  0
 33 70  2  0  0  0
 34 36  1  0  0  0
 34 59  1  0  0  0
 34108  1  0  0  0
 35 44  2  0  0  0
 35 45  1  0  0  0
 35 68  1  0  0  0
 36 56  1  0  0  0
 36109  1  0  0  0
 37 39  1  0  0  0
 37 47  1  0  0  0
 37 66  1  0  0  0
 37110  1  0  0  0
 38 43  2  0  0  0
 38 46  1  0  0  0
 38 47  1  0  0  0
 39 64  1  0  0  0
 39 67  2  0  0  0
 40 52  1  0  0  0
 40 53  2  0  0  0
 40 58  1  0  0  0
 41111  1  0  0  0
 41112  1  0  0  0
 41113  1  0  0  0
 41 48  1  0  0  0
 42 43  1  0  0  0
 42 66  1  0  0  0
 42114  1  0  0  0
 42115  1  0  0  0
 43 44  1  0  0  0
 44116  1  0  0  0
 45 46  2  0  0  0
 45117  1  0  0  0
 46118  1  0  0  0
 47119  1  0  0  0
 47120  1  0  0  0
 48 56  1  0  0  0
 48 65  1  0  0  0
 48121  1  0  0  0
 49 50  1  0  0  0
 49 53  1  0  0  0
 49 64  1  0  0  0
 49122  1  0  0  0
 50 51  1  0  0  0
 50123  1  0  0  0
 50124  1  0  0  0
 51 52  1  0  0  0
 51125  1  0  0  0
 51126  1  0  0  0
 52127  1  0  0  0
 52128  1  0  0  0
 53 54  1  0  0  0
 54 55  2  0  0  0
 54129  1  0  0  0
 55 57  1  0  0  0
 55130  1  0  0  0
 56 69  2  0  0  0
 57 58  2  0  0  0
 57131  1  0  0  0
 58132  1  0  0  0
 59 60  1  0  0  0
 59 61  1  0  0  0
 59 62  1  0  0  0
 60133  1  0  0  0
 60134  1  0  0  0
 60135  1  0  0  0
 61136  1  0  0  0
 61137  1  0  0  0
 61138  1  0  0  0
 62139  1  0  0  0
 62140  1  0  0  0
 62141  1  0  0  0
 63 65  1  0  0  0
 63142  1  0  0  0
 63143  1  0  0  0
 63144  1  0  0  0
 64145  1  0  0  0
 65146  1  0  0  0
 68 76  1  0  0  0
 71 72  1  0  0  0
 71 74  2  0  0  0
 71147  1  0  0  0
 72 73  2  0  0  0
 72 79  1  0  0  0
 73 75  1  0  0  0
 73 87  1  0  0  0
 74 81  1  0  0  0
 74 87  1  0  0  0
 75 80  2  0  0  0
 75148  1  0  0  0
 76 77  2  0  0  0
 76149  1  0  0  0
 77 78  1  0  0  0
 77 83  1  0  0  0
 78 81  1  0  0  0
 78 82  2  0  0  0
 79 84  1  0  0  0
 79 85  1  0  0  0
 79 86  1  0  0  0
 81150  1  0  0  0
 83151  1  0  0  0
M  ISO  4   1 100  68 101  76 101  80 100
M  END
> <chiral flag>
0

> <version>
0

> <s_m_source_file>
/data/baiqing/PycharmProjects/Reinvent-master-3.2/result/LINK_invent/BTK/process_docking_weight1_custom_product_contain_oxygen_bond_distance_aromatic_linkinvent_7_9_3/rearranged_h_0175.sdf

> <i_m_source_file_index>
54

> <r_mmod_Potential_Energy-OPLS-2005>
-139.845901489258

> <r_mmod_Stretch_Energy-OPLS-2005>
43.4394721984863

> <r_mmod_Bend_Energy-OPLS-2005>
107.056640625

> <r_mmod_Torsional_Energy-OPLS-2005>
168.28971862793

> <r_mmod_Improper_Torsional_Energy-OPLS-2005>
4.67525291442871

> <r_mmod_Van_der_Waal_Energy-OPLS-2005>
162.507675170898

> <r_mmod_Electrostatic_Energy-OPLS-2005>
-463.756469726562

> <r_mmod_Solvation_Energy-OPLS-2005>
-185.134246826172

> <b_mmod_Minimization_Converged-OPLS-2005>
0

> <r_mmod_RMS_Derivative-OPLS-2005>
0.493308186531067

$$$$
55
                    3D
 Structure written by MMmdl.
168176  0  0  1  0            999 V2000
  -30.7743  -14.4118   20.6043 C   0  0  0  0  0  0
  -30.3898  -12.2850   19.4274 C   0  0  0  0  0  0
  -29.4851  -12.5169   18.2052 C   0  0  0  0  0  0
  -28.0050  -12.3915   18.6104 C   0  0  0  0  0  0
  -27.6558  -13.2231   19.8751 C   0  0  2  0  0  0
  -28.6940  -13.0211   21.0016 C   0  0  0  0  0  0
  -25.2560  -13.8206   20.5728 C   0  0  0  0  0  0
  -24.1829  -13.0440   20.9198 C   0  0  0  0  0  0
  -24.6399  -11.6921   20.8725 C   0  0  0  0  0  0
  -23.9069  -10.4297   21.0389 C   0  0  0  0  0  0
  -24.3633   -9.4215   21.9166 C   0  0  0  0  0  0
  -23.6314   -8.2245   22.0726 C   0  0  0  0  0  0
  -22.4279   -8.0295   21.3550 C   0  0  0  0  0  0
  -21.9934   -9.0249   20.4627 C   0  0  0  0  0  0
  -22.7250  -10.2137   20.3034 C   0  0  0  0  0  0
  -21.6854   -6.0753   22.5280 C   0  0  0  0  0  0
  -21.4007   -6.5646   23.8218 C   0  0  0  0  0  0
  -21.3665   -5.6796   24.9178 C   0  0  0  0  0  0
  -21.6048   -4.3058   24.7221 C   0  0  0  0  0  0
  -21.8822   -3.8158   23.4337 C   0  0  0  0  0  0
  -21.9196   -4.6979   22.3397 C   0  0  0  0  0  0
  -22.7852  -13.5231   21.1876 C   0  0  0  0  0  0
  -22.1668   -4.2162   21.0976 F   0  0  0  0  0  0
  -21.5631   -3.4537   25.7731 F   0  0  0  0  0  0
  -30.0263  -13.2880   20.4436 N   0  0  0  0  0  0
  -26.2995  -12.9411   20.3376 N   0  0  0  0  0  0
  -25.9332  -11.6546   20.5764 N   0  0  0  0  0  0
  -22.0495  -12.8193   22.0409 N   0  0  0  0  0  0
  -25.4291  -15.1926   20.4171 N   0  0  0  0  0  0
  -31.8841  -14.5202   20.0911 O   0  0  0  0  0  0
  -21.6653   -6.8898   21.4238 O   0  0  0  0  0  0
  -22.3520  -14.5545   20.6746 O   0  0  0  0  0  0
  -24.6151  -31.8665   23.2016 C   0  0  0  0  0  0
  -25.9033  -32.4815   23.8342 C   0  0  1  0  0  0
  -27.2420  -27.4306   20.0950 C   0  0  0  0  0  0
  -25.5897  -33.8623   24.2305 N   0  0  0  0  0  0
  -23.4036  -30.4854   21.5468 C   0  0  2  0  0  0
  -24.8501  -28.9386   20.1237 C   0  0  0  0  0  0
  -22.7390  -29.4661   22.4994 C   0  0  0  0  0  0
  -18.0274  -28.1374   22.8524 C   0  0  0  0  0  0
  -24.1497  -36.7305   23.2645 C   0  0  0  0  0  0
  -25.9317  -30.8298   21.3513 C   0  0  0  0  0  0
  -26.0113  -29.4577   20.7134 C   0  0  0  0  0  0
  -27.2128  -28.7127   20.6935 C   0  0  0  0  0  0
  -26.0643  -26.9176   19.5134 C   0  0  0  0  0  0
  -24.8675  -27.6624   19.5292 C   0  0  0  0  0  0
  -23.6096  -29.8042   20.1682 C   0  0  0  0  0  0
  -25.4119  -36.3117   24.0347 C   0  0  1  0  0  0
  -20.5855  -28.3654   23.1348 C   0  0  2  0  0  0
  -20.6778  -26.9393   22.5429 C   0  0  0  0  0  0
  -19.5771  -26.6396   21.5205 C   0  0  0  0  0  0
  -18.1939  -26.7926   22.1615 C   0  0  0  0  0  0
  -19.1522  -28.8836   23.2935 C   0  0  0  0  0  0
  -18.9450  -30.1455   23.8920 C   0  0  0  0  0  0
  -17.6453  -30.6591   24.0580 C   0  0  0  0  0  0
  -25.9038  -34.9488   23.5116 C   0  0  0  0  0  0
  -16.5340  -29.9098   23.6342 C   0  0  0  0  0  0
  -16.7258  -28.6514   23.0364 C   0  0  0  0  0  0
  -26.4445  -31.6575   25.0674 C   0  0  0  0  0  0
  -25.3722  -31.3702   26.1413 C   0  0  0  0  0  0
  -27.0220  -30.3021   24.5996 C   0  0  0  0  0  0
  -27.6036  -32.4265   25.7444 C   0  0  0  0  0  0
  -27.5577  -37.1802   24.8468 C   0  0  0  0  0  0
  -21.4116  -29.3019   22.3738 N   0  0  0  0  0  0
  -26.4294  -37.3806   23.9408 N   0  0  0  0  0  0
  -24.6685  -31.0795   22.0892 N   0  0  0  0  0  0
  -23.4139  -28.8212   23.3061 O   0  0  0  0  0  0
  -28.4200  -26.7171   19.9965 O   0  0  0  0  0  0
  -26.5632  -34.8945   22.4697 O   0  0  0  0  0  0
  -23.5348  -32.1401   23.7424 O   0  0  0  0  0  0
  -29.9075  -18.8604   22.1503 C   0  0  0  0  0  0
  -29.5210  -20.1793   21.8309 C   0  0  0  0  0  0
  -30.3168  -19.8403   19.5716 C   0  0  0  0  0  0
  -30.5206  -18.0140   21.1995 C   0  0  0  0  0  0
  -30.7288  -18.5191   19.8817 C   0  0  0  0  0  0
  -29.7379  -20.7031   20.5320 C   0  0  0  0  0  0
  -28.5252  -25.5115   20.6525 C   0  0  0  0  0  0
  -28.7815  -24.3315   20.0286 C   0  0  0  0  0  0
  -28.9613  -23.1078   20.8336 C   0  0  0  0  0  0
  -33.3049  -19.3172   18.4426 C   0  0  0  0  0  0
  -33.7824  -17.0169   19.2109 C   0  0  0  0  0  0
  -32.9898  -17.3753   16.8900 C   0  0  0  0  0  0
  -31.3244  -17.6615   18.7549 C   0  0  0  0  0  0
  -31.0153  -16.6366   21.6850 C   0  0  0  0  0  0
  -32.8255  -17.8577   18.3462 C   0  0  0  0  0  0
  -29.4152  -22.0458   20.1206 N   0  0  0  0  0  0
  -30.2461  -15.4379   21.2952 N   0  0  0  0  0  0
  -28.7480  -23.0600   22.0475 O   0  0  0  0  0  0
  -28.8544  -24.2872   18.6850 O   0  0  0  0  0  0
  -31.4398  -12.3266   19.1334 H   0  0  0  0  0  0
  -30.2409  -11.2793   19.8222 H   0  0  0  0  0  0
  -29.7185  -11.8008   17.4163 H   0  0  0  0  0  0
  -29.6752  -13.5073   17.7887 H   0  0  0  0  0  0
  -27.7952  -11.3365   18.7866 H   0  0  0  0  0  0
  -27.3645  -12.6934   17.7810 H   0  0  0  0  0  0
  -27.6987  -14.2723   19.5802 H   0  0  0  0  0  0
  -28.6552  -11.9978   21.3787 H   0  0  0  0  0  0
  -28.4669  -13.6606   21.8549 H   0  0  0  0  0  0
  -25.2773   -9.5701   22.4743 H   0  0  0  0  0  0
  -24.0034   -7.4637   22.7437 H   0  0  0  0  0  0
  -21.0873   -8.8768   19.8925 H   0  0  0  0  0  0
  -22.3709  -10.9678   19.6145 H   0  0  0  0  0  0
  -21.1990   -7.6149   23.9724 H   0  0  0  0  0  0
  -21.1487   -6.0523   25.9091 H   0  0  0  0  0  0
  -22.0597   -2.7610   23.2823 H   0  0  0  0  0  0
  -22.4117  -11.9852   22.4783 H   0  0  0  0  0  0
  -21.1092  -13.1173   22.2593 H   0  0  0  0  0  0
  -24.6680  -15.8547   20.5350 H   0  0  0  0  0  0
  -26.2952  -15.6320   20.1266 H   0  0  0  0  0  0
  -26.7088  -32.5503   23.1094 H   0  0  0  0  0  0
  -25.0034  -33.9791   25.0441 H   0  0  0  0  0  0
  -22.6960  -31.3043   21.4017 H   0  0  0  0  0  0
  -23.3757  -35.9635   23.3344 H   0  0  0  0  0  0
  -24.3581  -36.8876   22.2046 H   0  0  0  0  0  0
  -23.7265  -37.6539   23.6619 H   0  0  0  0  0  0
  -26.0395  -31.5818   20.5677 H   0  0  0  0  0  0
  -26.8244  -30.8988   21.9625 H   0  0  0  0  0  0
  -28.1190  -29.1220   21.1211 H   0  0  0  0  0  0
  -26.0754  -25.9476   19.0353 H   0  0  0  0  0  0
  -23.9732  -27.2491   19.0814 H   0  0  0  0  0  0
  -23.7096  -30.5703   19.3979 H   0  0  0  0  0  0
  -22.7370  -29.2153   19.8837 H   0  0  0  0  0  0
  -25.1300  -36.1969   25.0847 H   0  0  0  0  0  0
  -20.9968  -28.3170   24.1470 H   0  0  0  0  0  0
  -20.5712  -26.2216   23.3577 H   0  0  0  0  0  0
  -21.6645  -26.7463   22.1219 H   0  0  0  0  0  0
  -19.6932  -25.6310   21.1238 H   0  0  0  0  0  0
  -19.6744  -27.3229   20.6755 H   0  0  0  0  0  0
  -17.4220  -26.6691   21.4003 H   0  0  0  0  0  0
  -18.0350  -26.0053   22.8998 H   0  0  0  0  0  0
  -19.7922  -30.7296   24.2264 H   0  0  0  0  0  0
  -17.5011  -31.6287   24.5158 H   0  0  0  0  0  0
  -15.5354  -30.3029   23.7673 H   0  0  0  0  0  0
  -15.8637  -28.0861   22.7073 H   0  0  0  0  0  0
  -24.5954  -30.6964   25.7771 H   0  0  0  0  0  0
  -24.8839  -32.2868   26.4746 H   0  0  0  0  0  0
  -25.8094  -30.8982   27.0224 H   0  0  0  0  0  0
  -26.2722  -29.6837   24.1043 H   0  0  0  0  0  0
  -27.4008  -29.7179   25.4393 H   0  0  0  0  0  0
  -27.8554  -30.4360   23.9099 H   0  0  0  0  0  0
  -27.2690  -33.3602   26.1975 H   0  0  0  0  0  0
  -28.3874  -32.6737   25.0276 H   0  0  0  0  0  0
  -28.0643  -31.8394   26.5392 H   0  0  0  0  0  0
  -28.2613  -38.0072   24.7497 H   0  0  0  0  0  0
  -28.1056  -36.2615   24.6323 H   0  0  0  0  0  0
  -27.2304  -37.1492   25.8873 H   0  0  0  0  0  0
  -20.9246  -29.8646   21.6907 H   0  0  0  0  0  0
  -26.0178  -38.2886   24.1398 H   0  0  0  0  0  0
  -29.7558  -18.5046   23.1620 H   0  0  0  0  0  0
  -29.0662  -20.7696   22.6126 H   0  0  0  0  0  0
  -30.4686  -20.2021   18.5646 H   0  0  0  0  0  0
  -28.4157  -25.6268   21.7244 H   0  0  0  0  0  0
  -34.3427  -19.4007   18.1170 H   0  0  0  0  0  0
  -33.2614  -19.6859   19.4672 H   0  0  0  0  0  0
  -32.7179  -19.9858   17.8140 H   0  0  0  0  0  0
  -34.8213  -17.1822   18.9266 H   0  0  0  0  0  0
  -33.6060  -15.9494   19.0973 H   0  0  0  0  0  0
  -33.7076  -17.2753   20.2637 H   0  0  0  0  0  0
  -34.0224  -17.4540   16.5490 H   0  0  0  0  0  0
  -32.3763  -17.9544   16.1995 H   0  0  0  0  0  0
  -32.6973  -16.3292   16.7836 H   0  0  0  0  0  0
  -30.7176  -17.9022   17.8795 H   0  0  0  0  0  0
  -31.1036  -16.6136   18.9250 H   0  0  0  0  0  0
  -31.0545  -16.6511   22.7751 H   0  0  0  0  0  0
  -32.0629  -16.5418   21.4105 H   0  0  0  0  0  0
  -29.6249  -22.2535   19.1554 H   0  0  0  0  0  0
  -29.3217  -15.3221   21.6813 H   0  0  0  0  0  0
  -28.6534  -23.4034   18.4081 H   0  0  0  0  0  0
  1 25  1  0  0  0
  1 30  2  0  0  0
  1 87  1  0  0  0
  2  3  1  0  0  0
  2 25  1  0  0  0
  2 90  1  0  0  0
  2 91  1  0  0  0
  3  4  1  0  0  0
  3 92  1  0  0  0
  3 93  1  0  0  0
  4  5  1  0  0  0
  4 94  1  0  0  0
  4 95  1  0  0  0
  5  6  1  0  0  0
  5 26  1  0  0  0
  5 96  1  0  0  0
  6 25  1  0  0  0
  6 97  1  0  0  0
  6 98  1  0  0  0
  7  8  2  0  0  0
  7 26  1  0  0  0
  7 29  1  0  0  0
  8  9  1  0  0  0
  8 22  1  0  0  0
  9 10  1  0  0  0
  9 27  2  0  0  0
 10 11  2  0  0  0
 10 15  1  0  0  0
 11 12  1  0  0  0
 11 99  1  0  0  0
 12 13  2  0  0  0
 12100  1  0  0  0
 13 14  1  0  0  0
 13 31  1  0  0  0
 14 15  2  0  0  0
 14101  1  0  0  0
 15102  1  0  0  0
 16 17  2  0  0  0
 16 21  1  0  0  0
 16 31  1  0  0  0
 17 18  1  0  0  0
 17103  1  0  0  0
 18 19  2  0  0  0
 18104  1  0  0  0
 19 20  1  0  0  0
 19 24  1  0  0  0
 20 21  2  0  0  0
 20105  1  0  0  0
 21 23  1  0  0  0
 22 28  1  0  0  0
 22 32  2  0  0  0
 26 27  1  0  0  0
 28106  1  0  0  0
 28107  1  0  0  0
 29108  1  0  0  0
 29109  1  0  0  0
 33 34  1  0  0  0
 33 66  1  0  0  0
 33 70  2  0  0  0
 34 36  1  0  0  0
 34 59  1  0  0  0
 34110  1  0  0  0
 35 44  2  0  0  0
 35 45  1  0  0  0
 35 68  1  0  0  0
 36 56  1  0  0  0
 36111  1  0  0  0
 37 39  1  0  0  0
 37 47  1  0  0  0
 37 66  1  0  0  0
 37112  1  0  0  0
 38 43  2  0  0  0
 38 46  1  0  0  0
 38 47  1  0  0  0
 39 64  1  0  0  0
 39 67  2  0  0  0
 40 52  1  0  0  0
 40 53  2  0  0  0
 40 58  1  0  0  0
 41113  1  0  0  0
 41114  1  0  0  0
 41115  1  0  0  0
 41 48  1  0  0  0
 42 43  1  0  0  0
 42 66  1  0  0  0
 42116  1  0  0  0
 42117  1  0  0  0
 43 44  1  0  0  0
 44118  1  0  0  0
 45 46  2  0  0  0
 45119  1  0  0  0
 46120  1  0  0  0
 47121  1  0  0  0
 47122  1  0  0  0
 48 56  1  0  0  0
 48 65  1  0  0  0
 48123  1  0  0  0
 49 50  1  0  0  0
 49 53  1  0  0  0
 49 64  1  0  0  0
 49124  1  0  0  0
 50 51  1  0  0  0
 50125  1  0  0  0
 50126  1  0  0  0
 51 52  1  0  0  0
 51127  1  0  0  0
 51128  1  0  0  0
 52129  1  0  0  0
 52130  1  0  0  0
 53 54  1  0  0  0
 54 55  2  0  0  0
 54131  1  0  0  0
 55 57  1  0  0  0
 55132  1  0  0  0
 56 69  2  0  0  0
 57 58  2  0  0  0
 57133  1  0  0  0
 58134  1  0  0  0
 59 60  1  0  0  0
 59 61  1  0  0  0
 59 62  1  0  0  0
 60135  1  0  0  0
 60136  1  0  0  0
 60137  1  0  0  0
 61138  1  0  0  0
 61139  1  0  0  0
 61140  1  0  0  0
 62141  1  0  0  0
 62142  1  0  0  0
 62143  1  0  0  0
 63 65  1  0  0  0
 63144  1  0  0  0
 63145  1  0  0  0
 63146  1  0  0  0
 64147  1  0  0  0
 65148  1  0  0  0
 68 77  1  0  0  0
 71 72  2  0  0  0
 71 74  1  0  0  0
 71149  1  0  0  0
 72 76  1  0  0  0
 72150  1  0  0  0
 73 75  1  0  0  0
 73 76  2  0  0  0
 73151  1  0  0  0
 74 75  2  0  0  0
 74 84  1  0  0  0
 75 83  1  0  0  0
 76 86  1  0  0  0
 77 78  2  0  0  0
 77152  1  0  0  0
 78 79  1  0  0  0
 78 89  1  0  0  0
 79 86  1  0  0  0
 79 88  2  0  0  0
 80153  1  0  0  0
 80154  1  0  0  0
 80155  1  0  0  0
 80 85  1  0  0  0
 81 85  1  0  0  0
 81156  1  0  0  0
 81157  1  0  0  0
 81158  1  0  0  0
 82 85  1  0  0  0
 82159  1  0  0  0
 82160  1  0  0  0
 82161  1  0  0  0
 83 85  1  0  0  0
 83162  1  0  0  0
 83163  1  0  0  0
 84 87  1  0  0  0
 84164  1  0  0  0
 84165  1  0  0  0
 86166  1  0  0  0
 87167  1  0  0  0
 89168  1  0  0  0
M  ISO  4   1 100  68 101  77 101  87 100
M  END
> <chiral flag>
0

> <version>
0

> <s_m_source_file>
/data/baiqing/PycharmProjects/Reinvent-master-3.2/result/LINK_invent/BTK/process_docking_weight1_custom_product_contain_oxygen_bond_distance_aromatic_linkinvent_7_9_3/rearranged_h_0175.sdf

> <i_m_source_file_index>
55

> <r_mmod_Potential_Energy-OPLS-2005>
-98.8699035644531

> <r_mmod_Stretch_Energy-OPLS-2005>
45.5155410766602

> <r_mmod_Bend_Energy-OPLS-2005>
126.984825134277

> <r_mmod_Torsional_Energy-OPLS-2005>
225.577377319336

> <r_mmod_Improper_Torsional_Energy-OPLS-2005>
2.79318499565125

> <r_mmod_Van_der_Waal_Energy-OPLS-2005>
160.868408203125

> <r_mmod_Electrostatic_Energy-OPLS-2005>
-448.410858154297

> <r_mmod_Solvation_Energy-OPLS-2005>
-225.345153808594

> <b_mmod_Minimization_Converged-OPLS-2005>
0

> <r_mmod_RMS_Derivative-OPLS-2005>
4.57032442092896

$$$$
56
                    3D
 Structure written by MMmdl.
153161  0  0  1  0            999 V2000
  -30.7096  -14.5702   20.6142 C   0  0  0  0  0  0
  -30.4260  -12.3959   19.4378 C   0  0  0  0  0  0
  -29.4922  -12.5221   18.2176 C   0  0  0  0  0  0
  -28.0231  -12.3507   18.6433 C   0  0  0  0  0  0
  -27.6553  -13.2159   19.8786 C   0  0  2  0  0  0
  -28.7050  -13.0462   21.0012 C   0  0  0  0  0  0
  -25.2477  -13.8094   20.5546 C   0  0  0  0  0  0
  -24.1787  -13.0388   20.9202 C   0  0  0  0  0  0
  -24.6393  -11.6880   20.8801 C   0  0  0  0  0  0
  -23.9068  -10.4274   21.0434 C   0  0  0  0  0  0
  -24.3624   -9.4201   21.9203 C   0  0  0  0  0  0
  -23.6310   -8.2231   22.0751 C   0  0  0  0  0  0
  -22.4282   -8.0275   21.3550 C   0  0  0  0  0  0
  -21.9932   -9.0250   20.4639 C   0  0  0  0  0  0
  -22.7260  -10.2124   20.3064 C   0  0  0  0  0  0
  -21.6856   -6.0743   22.5286 C   0  0  0  0  0  0
  -21.4004   -6.5651   23.8222 C   0  0  0  0  0  0
  -21.3660   -5.6802   24.9188 C   0  0  0  0  0  0
  -21.6041   -4.3068   24.7236 C   0  0  0  0  0  0
  -21.8821   -3.8157   23.4361 C   0  0  0  0  0  0
  -21.9201   -4.6970   22.3415 C   0  0  0  0  0  0
  -22.7812  -13.5190   21.1889 C   0  0  0  0  0  0
  -22.1660   -4.2164   21.0991 F   0  0  0  0  0  0
  -21.5644   -3.4538   25.7748 F   0  0  0  0  0  0
  -30.0146  -13.4002   20.4427 N   0  0  0  0  0  0
  -26.2990  -12.9322   20.3411 N   0  0  0  0  0  0
  -25.9338  -11.6485   20.5886 N   0  0  0  0  0  0
  -22.0462  -12.8160   22.0439 N   0  0  0  0  0  0
  -25.4059  -15.1738   20.3551 N   0  0  0  0  0  0
  -31.8024  -14.7321   20.0638 O   0  0  0  0  0  0
  -21.6638   -6.8876   21.4247 O   0  0  0  0  0  0
  -22.3474  -14.5509   20.6777 O   0  0  0  0  0  0
  -24.6204  -31.8659   23.2073 C   0  0  0  0  0  0
  -25.9077  -32.4806   23.8363 C   0  0  1  0  0  0
  -27.2168  -27.3809   20.1067 C   0  0  0  0  0  0
  -25.5912  -33.8594   24.2306 N   0  0  0  0  0  0
  -23.4072  -30.4920   21.5496 C   0  0  2  0  0  0
  -24.8498  -28.9474   20.1186 C   0  0  0  0  0  0
  -22.7413  -29.4693   22.4984 C   0  0  0  0  0  0
  -18.0278  -28.1415   22.8444 C   0  0  0  0  0  0
  -24.1487  -36.7321   23.2637 C   0  0  0  0  0  0
  -25.9399  -30.8158   21.3633 C   0  0  0  0  0  0
  -26.0160  -29.4427   20.7182 C   0  0  0  0  0  0
  -27.2058  -28.6680   20.7070 C   0  0  0  0  0  0
  -26.0367  -26.9176   19.4881 C   0  0  0  0  0  0
  -24.8573  -27.6853   19.5004 C   0  0  0  0  0  0
  -23.6170  -29.8260   20.1652 C   0  0  0  0  0  0
  -25.4106  -36.3093   24.0335 C   0  0  1  0  0  0
  -20.5865  -28.3710   23.1343 C   0  0  2  0  0  0
  -20.6747  -26.9406   22.5513 C   0  0  0  0  0  0
  -19.5816  -26.6380   21.5228 C   0  0  0  0  0  0
  -18.1941  -26.7984   22.1517 C   0  0  0  0  0  0
  -19.1516  -28.8867   23.2902 C   0  0  0  0  0  0
  -18.9450  -30.1459   23.8950 C   0  0  0  0  0  0
  -17.6464  -30.6590   24.0590 C   0  0  0  0  0  0
  -25.9036  -34.9458   23.5127 C   0  0  0  0  0  0
  -16.5344  -29.9099   23.6329 C   0  0  0  0  0  0
  -16.7270  -28.6543   23.0300 C   0  0  0  0  0  0
  -26.4495  -31.6582   25.0692 C   0  0  0  0  0  0
  -25.3776  -31.3709   26.1464 C   0  0  0  0  0  0
  -27.0333  -30.3021   24.6074 C   0  0  0  0  0  0
  -27.6063  -32.4311   25.7466 C   0  0  0  0  0  0
  -27.5573  -37.1819   24.8465 C   0  0  0  0  0  0
  -21.4126  -29.3080   22.3724 N   0  0  0  0  0  0
  -26.4285  -37.3785   23.9399 N   0  0  0  0  0  0
  -24.6758  -31.0725   22.0993 N   0  0  0  0  0  0
  -23.4160  -28.8244   23.3056 O   0  0  0  0  0  0
  -28.3515  -26.5869   20.0524 O   0  0  0  0  0  0
  -26.5587  -34.8929   22.4679 O   0  0  0  0  0  0
  -23.5389  -32.1411   23.7449 O   0  0  0  0  0  0
  -28.0387  -16.4805   21.6949 C   0  0  0  0  0  0
  -27.6240  -18.8448   21.3519 C   0  0  0  0  0  0
  -27.1663  -17.5797   21.7314 C   0  0  0  0  0  0
  -29.3742  -16.6487   21.2756 C   0  0  0  0  0  0
  -28.9660  -18.9980   20.9739 C   0  0  0  0  0  0
  -29.3092  -22.8677   20.5721 C   0  0  0  0  0  0
  -28.6858  -24.1356   19.9019 C   0  0  0  0  0  0
  -28.6259  -21.4771   20.4022 C   0  0  0  0  0  0
  -28.4278  -25.4123   20.7852 C   0  0  0  0  0  0
  -29.8122  -17.9162   20.9451 N   0  0  0  0  0  0
  -30.2660  -15.5238   21.4809 N   0  0  0  0  0  0
  -29.4834  -20.2839   20.6643 N   0  0  0  0  0  0
  -30.3876  -22.9337   21.1717 O   0  0  0  0  0  0
  -25.8938  -17.4341   22.1710 F   0  0  0  0  0  0
  -27.2922  -25.1860   21.4954 F   0  0  0  0  0  0
  -29.4098  -25.5670   21.7063 F   0  0  0  0  0  0
  -31.4635  -12.5157   19.1217 H   0  0  0  0  0  0
  -30.3672  -11.3928   19.8642 H   0  0  0  0  0  0
  -29.7529  -11.7806   17.4630 H   0  0  0  0  0  0
  -29.6268  -13.4978   17.7478 H   0  0  0  0  0  0
  -27.8745  -11.2970   18.8827 H   0  0  0  0  0  0
  -27.3547  -12.5700   17.8106 H   0  0  0  0  0  0
  -27.6846  -14.2550   19.5525 H   0  0  0  0  0  0
  -28.7169  -12.0126   21.3518 H   0  0  0  0  0  0
  -28.4688  -13.6355   21.8829 H   0  0  0  0  0  0
  -25.2757   -9.5696   22.4787 H   0  0  0  0  0  0
  -24.0031   -7.4616   22.7456 H   0  0  0  0  0  0
  -21.0880   -8.8798   19.8912 H   0  0  0  0  0  0
  -22.3754  -10.9683   19.6184 H   0  0  0  0  0  0
  -21.1968   -7.6159   23.9734 H   0  0  0  0  0  0
  -21.1477   -6.0529   25.9096 H   0  0  0  0  0  0
  -22.0592   -2.7616   23.2868 H   0  0  0  0  0  0
  -22.4061  -11.9800   22.4807 H   0  0  0  0  0  0
  -21.1076  -13.1167   22.2631 H   0  0  0  0  0  0
  -24.6531  -15.8397   20.4874 H   0  0  0  0  0  0
  -26.2717  -15.6042   20.0606 H   0  0  0  0  0  0
  -26.7128  -32.5500   23.1105 H   0  0  0  0  0  0
  -25.0061  -33.9740   25.0452 H   0  0  0  0  0  0
  -22.7004  -31.3136   21.4106 H   0  0  0  0  0  0
  -23.3734  -35.9676   23.3305 H   0  0  0  0  0  0
  -24.3572  -36.8921   22.2049 H   0  0  0  0  0  0
  -23.7261  -37.6538   23.6646 H   0  0  0  0  0  0
  -26.0505  -31.5751   20.5873 H   0  0  0  0  0  0
  -26.8303  -30.8775   21.9778 H   0  0  0  0  0  0
  -28.1080  -29.0514   21.1628 H   0  0  0  0  0  0
  -26.0273  -25.9563   18.9945 H   0  0  0  0  0  0
  -23.9626  -27.3034   19.0281 H   0  0  0  0  0  0
  -23.7387  -30.6025   19.4077 H   0  0  0  0  0  0
  -22.7344  -29.2576   19.8628 H   0  0  0  0  0  0
  -25.1283  -36.1963   25.0829 H   0  0  0  0  0  0
  -20.9941  -28.3312   24.1465 H   0  0  0  0  0  0
  -21.6658  -26.7342   22.1448 H   0  0  0  0  0  0
  -20.5503  -26.2389   23.3782 H   0  0  0  0  0  0
  -19.6972  -25.6266   21.1335 H   0  0  0  0  0  0
  -19.6879  -27.3149   20.6723 H   0  0  0  0  0  0
  -17.4296  -26.6853   21.3807 H   0  0  0  0  0  0
  -18.0225  -26.0084   22.8831 H   0  0  0  0  0  0
  -19.7931  -30.7235   24.2376 H   0  0  0  0  0  0
  -17.4993  -31.6255   24.5209 H   0  0  0  0  0  0
  -15.5330  -30.2989   23.7648 H   0  0  0  0  0  0
  -15.8675  -28.0879   22.6962 H   0  0  0  0  0  0
  -24.5976  -30.7001   25.7845 H   0  0  0  0  0  0
  -24.8942  -32.2874   26.4859 H   0  0  0  0  0  0
  -25.8156  -30.8938   27.0241 H   0  0  0  0  0  0
  -26.2863  -29.6760   24.1182 H   0  0  0  0  0  0
  -27.4173  -29.7283   25.4516 H   0  0  0  0  0  0
  -27.8670  -30.4335   23.9179 H   0  0  0  0  0  0
  -27.2669  -33.3619   26.2041 H   0  0  0  0  0  0
  -28.3889  -32.6866   25.0306 H   0  0  0  0  0  0
  -28.0727  -31.8437   26.5391 H   0  0  0  0  0  0
  -28.2612  -38.0098   24.7492 H   0  0  0  0  0  0
  -28.1056  -36.2625   24.6325 H   0  0  0  0  0  0
  -27.2295  -37.1526   25.8874 H   0  0  0  0  0  0
  -20.9266  -29.8818   21.6965 H   0  0  0  0  0  0
  -26.0178  -38.2875   24.1367 H   0  0  0  0  0  0
  -27.6638  -15.5395   22.0606 H   0  0  0  0  0  0
  -26.9292  -19.6669   21.4102 H   0  0  0  0  0  0
  -27.7528  -23.8498   19.4166 H   0  0  0  0  0  0
  -29.3614  -24.4118   19.0917 H   0  0  0  0  0  0
  -28.2361  -21.4106   19.3860 H   0  0  0  0  0  0
  -27.7672  -21.4857   21.0714 H   0  0  0  0  0  0
  -31.1168  -15.8970   21.8716 H   0  0  0  0  0  0
  -30.4664  -20.3817   20.4277 H   0  0  0  0  0  0
  1 25  1  0  0  0
  1 30  2  0  0  0
  1 81  1  0  0  0
  2  3  1  0  0  0
  2 25  1  0  0  0
  2 87  1  0  0  0
  2 88  1  0  0  0
  3  4  1  0  0  0
  3 89  1  0  0  0
  3 90  1  0  0  0
  4  5  1  0  0  0
  4 91  1  0  0  0
  4 92  1  0  0  0
  5  6  1  0  0  0
  5 26  1  0  0  0
  5 93  1  0  0  0
  6 25  1  0  0  0
  6 94  1  0  0  0
  6 95  1  0  0  0
  7  8  2  0  0  0
  7 26  1  0  0  0
  7 29  1  0  0  0
  8  9  1  0  0  0
  8 22  1  0  0  0
  9 10  1  0  0  0
  9 27  2  0  0  0
 10 11  2  0  0  0
 10 15  1  0  0  0
 11 12  1  0  0  0
 11 96  1  0  0  0
 12 13  2  0  0  0
 12 97  1  0  0  0
 13 14  1  0  0  0
 13 31  1  0  0  0
 14 15  2  0  0  0
 14 98  1  0  0  0
 15 99  1  0  0  0
 16 17  2  0  0  0
 16 21  1  0  0  0
 16 31  1  0  0  0
 17 18  1  0  0  0
 17100  1  0  0  0
 18 19  2  0  0  0
 18101  1  0  0  0
 19 20  1  0  0  0
 19 24  1  0  0  0
 20 21  2  0  0  0
 20102  1  0  0  0
 21 23  1  0  0  0
 22 28  1  0  0  0
 22 32  2  0  0  0
 26 27  1  0  0  0
 28103  1  0  0  0
 28104  1  0  0  0
 29105  1  0  0  0
 29106  1  0  0  0
 33 34  1  0  0  0
 33 66  1  0  0  0
 33 70  2  0  0  0
 34 36  1  0  0  0
 34 59  1  0  0  0
 34107  1  0  0  0
 35 44  2  0  0  0
 35 45  1  0  0  0
 35 68  1  0  0  0
 36 56  1  0  0  0
 36108  1  0  0  0
 37 39  1  0  0  0
 37 47  1  0  0  0
 37 66  1  0  0  0
 37109  1  0  0  0
 38 43  2  0  0  0
 38 46  1  0  0  0
 38 47  1  0  0  0
 39 64  1  0  0  0
 39 67  2  0  0  0
 40 52  1  0  0  0
 40 53  2  0  0  0
 40 58  1  0  0  0
 41110  1  0  0  0
 41111  1  0  0  0
 41112  1  0  0  0
 41 48  1  0  0  0
 42 43  1  0  0  0
 42 66  1  0  0  0
 42113  1  0  0  0
 42114  1  0  0  0
 43 44  1  0  0  0
 44115  1  0  0  0
 45 46  2  0  0  0
 45116  1  0  0  0
 46117  1  0  0  0
 47118  1  0  0  0
 47119  1  0  0  0
 48 56  1  0  0  0
 48 65  1  0  0  0
 48120  1  0  0  0
 49 50  1  0  0  0
 49 53  1  0  0  0
 49 64  1  0  0  0
 49121  1  0  0  0
 50 51  1  0  0  0
 50122  1  0  0  0
 50123  1  0  0  0
 51 52  1  0  0  0
 51124  1  0  0  0
 51125  1  0  0  0
 52126  1  0  0  0
 52127  1  0  0  0
 53 54  1  0  0  0
 54 55  2  0  0  0
 54128  1  0  0  0
 55 57  1  0  0  0
 55129  1  0  0  0
 56 69  2  0  0  0
 57 58  2  0  0  0
 57130  1  0  0  0
 58131  1  0  0  0
 59 60  1  0  0  0
 59 61  1  0  0  0
 59 62  1  0  0  0
 60132  1  0  0  0
 60133  1  0  0  0
 60134  1  0  0  0
 61135  1  0  0  0
 61136  1  0  0  0
 61137  1  0  0  0
 62138  1  0  0  0
 62139  1  0  0  0
 62140  1  0  0  0
 63 65  1  0  0  0
 63141  1  0  0  0
 63142  1  0  0  0
 63143  1  0  0  0
 64144  1  0  0  0
 65145  1  0  0  0
 68 79  1  0  0  0
 71 73  2  0  0  0
 71 74  1  0  0  0
 71146  1  0  0  0
 72 73  1  0  0  0
 72 75  2  0  0  0
 72147  1  0  0  0
 73 84  1  0  0  0
 74 80  2  0  0  0
 74 81  1  0  0  0
 75 80  1  0  0  0
 75 82  1  0  0  0
 76 77  1  0  0  0
 76 78  1  0  0  0
 76 83  2  0  0  0
 77 79  1  0  0  0
 77148  1  0  0  0
 77149  1  0  0  0
 78 82  1  0  0  0
 78150  1  0  0  0
 78151  1  0  0  0
 79 85  1  0  0  0
 79 86  1  0  0  0
 81152  1  0  0  0
 82153  1  0  0  0
M  ISO  4   1 100  68 101  79 101  81 100
M  END
> <chiral flag>
0

> <version>
0

> <s_m_source_file>
/data/baiqing/PycharmProjects/Reinvent-master-3.2/result/LINK_invent/BTK/process_docking_weight1_custom_product_contain_oxygen_bond_distance_aromatic_linkinvent_7_9_3/rearranged_h_0175.sdf

> <i_m_source_file_index>
56

> <r_mmod_Potential_Energy-OPLS-2005>
-272.938995361328

> <r_mmod_Stretch_Energy-OPLS-2005>
57.2887573242188

> <r_mmod_Bend_Energy-OPLS-2005>
155.940093994141

> <r_mmod_Torsional_Energy-OPLS-2005>
238.866729736328

> <r_mmod_Improper_Torsional_Energy-OPLS-2005>
10.5236864089966

> <r_mmod_Van_der_Waal_Energy-OPLS-2005>
146.833801269531

> <r_mmod_Electrostatic_Energy-OPLS-2005>
-678.834899902344

> <r_mmod_Solvation_Energy-OPLS-2005>
-229.66455078125

> <b_mmod_Minimization_Converged-OPLS-2005>
0

> <r_mmod_RMS_Derivative-OPLS-2005>
3.39395833015442

$$$$
57
                    3D
 Structure written by MMmdl.
160168  0  0  1  0            999 V2000
  -31.3715  -14.8263   21.2660 C   0  0  0  0  0  0
  -30.6862  -14.5541   18.8400 C   0  0  0  0  0  0
  -29.2999  -14.1070   17.5496 C   0  0  0  0  0  0
  -27.4339  -14.1496   18.0515 C   0  0  0  0  0  0
  -26.9332  -14.6094   19.9293 C   0  0  2  0  0  0
  -28.4929  -15.0438   21.3161 C   0  0  0  0  0  0
  -24.8594  -14.0715   20.8512 C   0  0  0  0  0  0
  -23.9903  -13.0750   21.0112 C   0  0  0  0  0  0
  -24.6655  -11.8319   20.8242 C   0  0  0  0  0  0
  -24.0128  -10.4773   20.9576 C   0  0  0  0  0  0
  -24.4380   -9.4733   21.8666 C   0  0  0  0  0  0
  -23.6876   -8.2792   22.0573 C   0  0  0  0  0  0
  -22.4790   -8.0630   21.3486 C   0  0  0  0  0  0
  -22.0553   -9.0527   20.4448 C   0  0  0  0  0  0
  -22.8078  -10.2299   20.2524 C   0  0  0  0  0  0
  -21.7123   -6.0973   22.5275 C   0  0  0  0  0  0
  -21.4225   -6.5798   23.8218 C   0  0  0  0  0  0
  -21.3727   -5.6887   24.9140 C   0  0  0  0  0  0
  -21.6040   -4.3138   24.7160 C   0  0  0  0  0  0
  -21.8796   -3.8279   23.4257 C   0  0  0  0  0  0
  -21.9269   -4.7151   22.3355 C   0  0  0  0  0  0
  -22.5653  -13.3966   21.2388 C   0  0  0  0  0  0
  -22.1687   -4.2321   21.0929 F   0  0  0  0  0  0
  -21.5533   -3.4583   25.7644 F   0  0  0  0  0  0
  -30.2721  -15.0235   20.5967 N   0  0  0  0  0  0
  -25.9948  -13.5486   20.4145 N   0  0  0  0  0  0
  -25.9509  -12.1360   20.4314 N   0  0  0  0  0  0
  -21.9026  -12.6571   22.1054 N   0  0  0  0  0  0
  -24.7221  -15.4456   21.0026 N   0  0  0  0  0  0
  -32.4244  -14.7208   20.6457 O   0  0  0  0  0  0
  -21.7036   -6.9239   21.4292 O   0  0  0  0  0  0
  -22.0736  -14.3934   20.7044 O   0  0  0  0  0  0
  -24.7976  -31.6392   23.0501 C   0  0  0  0  0  0
  -25.9935  -32.3709   23.7494 C   0  0  1  0  0  0
  -27.0921  -25.4633   20.1507 C   0  0  0  0  0  0
  -25.5994  -33.7616   24.1230 N   0  0  0  0  0  0
  -23.6570  -30.1984   21.4394 C   0  0  2  0  0  0
  -25.0669  -28.2822   20.1071 C   0  0  0  0  0  0
  -22.8180  -29.3486   22.4406 C   0  0  0  0  0  0
  -18.0384  -28.1467   22.8396 C   0  0  0  0  0  0
  -24.1505  -36.6853   23.2687 C   0  0  0  0  0  0
  -26.2532  -29.9396   21.4877 C   0  0  0  0  0  0
  -26.2648  -28.3785   20.8171 C   0  0  0  0  0  0
  -27.2059  -27.0397   20.7880 C   0  0  0  0  0  0
  -25.9021  -25.8942   19.3910 C   0  0  0  0  0  0
  -24.9953  -27.0697   19.3731 C   0  0  0  0  0  0
  -23.9450  -29.3989   20.1130 C   0  0  0  0  0  0
  -25.4188  -36.2469   24.0202 C   0  0  1  0  0  0
  -20.6063  -28.3841   23.0966 C   0  0  2  0  0  0
  -20.6780  -26.9400   22.5447 C   0  0  0  0  0  0
  -19.5794  -26.6319   21.5228 C   0  0  0  0  0  0
  -18.1969  -26.7976   22.1585 C   0  0  0  0  0  0
  -19.1678  -28.9003   23.2632 C   0  0  0  0  0  0
  -18.9573  -30.1562   23.8725 C   0  0  0  0  0  0
  -17.6555  -30.6623   24.0524 C   0  0  0  0  0  0
  -25.9227  -34.8882   23.4664 C   0  0  0  0  0  0
  -16.5435  -29.9094   23.6371 C   0  0  0  0  0  0
  -16.7360  -28.6523   23.0377 C   0  0  0  0  0  0
  -26.4771  -31.6318   25.0605 C   0  0  0  0  0  0
  -25.3558  -31.3926   26.1016 C   0  0  0  0  0  0
  -27.0897  -30.2591   24.7278 C   0  0  0  0  0  0
  -27.5997  -32.4484   25.7447 C   0  0  0  0  0  0
  -27.5532  -37.1565   24.8461 C   0  0  0  0  0  0
  -21.4744  -29.2842   22.3152 N   0  0  0  0  0  0
  -26.4217  -37.3361   23.9410 N   0  0  0  0  0  0
  -24.9495  -30.6573   22.0449 N   0  0  0  0  0  0
  -23.4099  -28.7307   23.3270 O   0  0  0  0  0  0
  -27.7973  -23.6818   20.1485 O   0  0  0  0  0  0
  -26.6072  -34.8711   22.4426 O   0  0  0  0  0  0
  -23.6783  -32.0044   23.4721 O   0  0  0  0  0  0
  -31.1843  -12.2402   22.1347 C   0  0  0  0  0  0
  -29.9026  -12.0321   21.6073 C   0  0  0  0  0  0
  -28.9120  -11.7574   22.5819 C   0  0  0  0  0  0
  -31.0724  -13.2688   23.0814 C   0  0  0  0  0  0
  -29.1987  -12.2063   23.8995 C   0  0  0  0  0  0
  -28.2777  -18.8763   19.9779 C   0  0  0  0  0  0
  -29.0894  -11.0332   19.4627 C   0  0  0  0  0  0
  -29.6143  -16.9347   18.1766 C   0  0  0  0  0  0
  -27.8159  -21.3295   19.6612 C   0  0  0  0  0  0
  -29.6824  -12.2968   20.1147 C   0  0  1  0  0  0
  -28.6709  -16.2473   19.2393 C   0  0  1  0  0  0
  -30.2488  -13.0484   24.1355 N   0  0  0  0  0  0
  -31.2104  -14.5912   22.5785 N   0  0  0  0  0  0
  -28.8446  -13.5467   19.7111 N   0  3  0  0  0  0
  -28.4099  -18.8219   21.2036 O   0  0  0  0  0  0
  -27.7266  -11.1842   22.2809 F   0  0  0  0  0  0
  -28.3292  -11.9453   24.9052 F   0  0  0  0  0  0
  -31.3536  -15.3055   18.4228 H   0  0  0  0  0  0
  -31.4408  -13.7748   18.7452 H   0  0  0  0  0  0
  -29.5053  -13.0802   17.2376 H   0  0  0  0  0  0
  -29.4471  -14.5920   16.5840 H   0  0  0  0  0  0
  -26.9965  -13.1765   17.8110 H   0  0  0  0  0  0
  -26.9062  -14.8161   17.3653 H   0  0  0  0  0  0
  -26.4415  -15.5368   19.6614 H   0  0  0  0  0  0
  -28.3124  -16.0220   21.7681 H   0  0  0  0  0  0
  -28.4225  -14.3755   22.1728 H   0  0  0  0  0  0
  -25.3430   -9.6298   22.4382 H   0  0  0  0  0  0
  -24.0511   -7.5339   22.7502 H   0  0  0  0  0  0
  -21.1398   -8.9074   19.8886 H   0  0  0  0  0  0
  -22.4318  -10.9713   19.5610 H   0  0  0  0  0  0
  -21.2331   -7.6317   23.9786 H   0  0  0  0  0  0
  -21.1534   -6.0593   25.9052 H   0  0  0  0  0  0
  -22.0485   -2.7735   23.2694 H   0  0  0  0  0  0
  -22.3430  -11.8714   22.5612 H   0  0  0  0  0  0
  -20.9387  -12.8718   22.3184 H   0  0  0  0  0  0
  -23.8292  -15.8504   21.2628 H   0  0  0  0  0  0
  -25.4412  -16.1467   20.8853 H   0  0  0  0  0  0
  -26.8207  -32.4051   23.0381 H   0  0  0  0  0  0
  -24.9813  -33.8442   24.9166 H   0  0  0  0  0  0
  -23.0567  -31.0689   21.1662 H   0  0  0  0  0  0
  -23.3803  -35.9140   23.3170 H   0  0  0  0  0  0
  -24.3540  -36.8769   22.2140 H   0  0  0  0  0  0
  -23.7238  -37.5921   23.6982 H   0  0  0  0  0  0
  -26.6089  -30.5959   20.6926 H   0  0  0  0  0  0
  -27.0585  -29.9731   22.2058 H   0  0  0  0  0  0
  -28.0821  -27.1543   21.4103 H   0  0  0  0  0  0
  -25.5370  -25.1017   18.7534 H   0  0  0  0  0  0
  -24.1291  -26.9609   18.7357 H   0  0  0  0  0  0
  -24.2197  -30.1166   19.3389 H   0  0  0  0  0  0
  -23.0166  -28.9479   19.7593 H   0  0  0  0  0  0
  -25.1457  -36.1059   25.0686 H   0  0  0  0  0  0
  -21.0096  -28.3551   24.1116 H   0  0  0  0  0  0
  -20.5510  -26.2494   23.3799 H   0  0  0  0  0  0
  -21.6634  -26.7152   22.1354 H   0  0  0  0  0  0
  -19.6924  -25.6184   21.1365 H   0  0  0  0  0  0
  -19.6796  -27.3039   20.6693 H   0  0  0  0  0  0
  -17.4254  -26.6741   21.3968 H   0  0  0  0  0  0
  -18.0300  -26.0155   22.9005 H   0  0  0  0  0  0
  -19.8051  -30.7408   24.2034 H   0  0  0  0  0  0
  -17.5103  -31.6283   24.5165 H   0  0  0  0  0  0
  -15.5430  -30.2945   23.7792 H   0  0  0  0  0  0
  -15.8759  -28.0787   22.7191 H   0  0  0  0  0  0
  -24.5846  -30.7183   25.7272 H   0  0  0  0  0  0
  -24.8648  -32.3228   26.3880 H   0  0  0  0  0  0
  -25.7484  -30.9441   27.0149 H   0  0  0  0  0  0
  -26.3699  -29.5748   24.2781 H   0  0  0  0  0  0
  -27.4407  -29.7627   25.6335 H   0  0  0  0  0  0
  -27.9639  -30.3528   24.0835 H   0  0  0  0  0  0
  -27.2398  -33.4005   26.1351 H   0  0  0  0  0  0
  -28.4099  -32.6683   25.0486 H   0  0  0  0  0  0
  -28.0339  -31.9098   26.5876 H   0  0  0  0  0  0
  -28.2422  -37.9970   24.7516 H   0  0  0  0  0  0
  -28.1150  -36.2471   24.6270 H   0  0  0  0  0  0
  -27.2253  -37.1150   25.8862 H   0  0  0  0  0  0
  -21.0302  -29.8334   21.5927 H   0  0  0  0  0  0
  -25.9938  -38.2359   24.1426 H   0  0  0  0  0  0
  -31.4712  -11.3375   22.6605 H   0  0  0  0  0  0
  -29.7440  -10.1752   19.6314 H   0  0  0  0  0  0
  -28.9850  -11.1371   18.3839 H   0  0  0  0  0  0
  -28.1139  -10.7715   19.8662 H   0  0  0  0  0  0
  -29.1729  -17.8826   17.8787 H   0  0  0  0  0  0
  -29.7645  -16.4788   17.2092 H   0  0  0  0  0  0
  -30.5730  -17.2234   18.6049 H   0  0  0  0  0  0
  -26.7373  -21.2232   19.5548 H   0  0  0  0  0  0
  -28.1699  -21.3995   18.6326 H   0  0  0  0  0  0
  -30.6809  -12.2643   19.7043 H   0  0  0  0  0  0
  -27.8285  -16.2778   18.5653 H   0  0  0  0  0  0
  -30.5904  -15.2421   23.0347 H   0  0  0  0  0  0
  -27.9601  -13.3511   20.1592 H   0  0  0  0  0  0
  -28.7004  -13.3118   18.7385 H   0  0  0  0  0  0
  1 25  1  0  0  0
  1 30  2  0  0  0
  1 83  1  0  0  0
  2  3  1  0  0  0
  2 25  1  0  0  0
  2 88  1  0  0  0
  2 89  1  0  0  0
  3  4  1  0  0  0
  3 90  1  0  0  0
  3 91  1  0  0  0
  4  5  1  0  0  0
  4 92  1  0  0  0
  4 93  1  0  0  0
  5  6  1  0  0  0
  5 26  1  0  0  0
  5 94  1  0  0  0
  6 25  1  0  0  0
  6 95  1  0  0  0
  6 96  1  0  0  0
  7  8  2  0  0  0
  7 26  1  0  0  0
  7 29  1  0  0  0
  8  9  1  0  0  0
  8 22  1  0  0  0
  9 10  1  0  0  0
  9 27  2  0  0  0
 10 11  2  0  0  0
 10 15  1  0  0  0
 11 12  1  0  0  0
 11 97  1  0  0  0
 12 13  2  0  0  0
 12 98  1  0  0  0
 13 14  1  0  0  0
 13 31  1  0  0  0
 14 15  2  0  0  0
 14 99  1  0  0  0
 15100  1  0  0  0
 16 17  2  0  0  0
 16 21  1  0  0  0
 16 31  1  0  0  0
 17 18  1  0  0  0
 17101  1  0  0  0
 18 19  2  0  0  0
 18102  1  0  0  0
 19 20  1  0  0  0
 19 24  1  0  0  0
 20 21  2  0  0  0
 20103  1  0  0  0
 21 23  1  0  0  0
 22 28  1  0  0  0
 22 32  2  0  0  0
 26 27  1  0  0  0
 28104  1  0  0  0
 28105  1  0  0  0
 29106  1  0  0  0
 29107  1  0  0  0
 33 34  1  0  0  0
 33 66  1  0  0  0
 33 70  2  0  0  0
 34 36  1  0  0  0
 34 59  1  0  0  0
 34108  1  0  0  0
 35 44  2  0  0  0
 35 45  1  0  0  0
 35 68  1  0  0  0
 36 56  1  0  0  0
 36109  1  0  0  0
 37 39  1  0  0  0
 37 47  1  0  0  0
 37 66  1  0  0  0
 37110  1  0  0  0
 38 43  2  0  0  0
 38 46  1  0  0  0
 38 47  1  0  0  0
 39 64  1  0  0  0
 39 67  2  0  0  0
 40 52  1  0  0  0
 40 53  2  0  0  0
 40 58  1  0  0  0
 41111  1  0  0  0
 41112  1  0  0  0
 41113  1  0  0  0
 41 48  1  0  0  0
 42 43  1  0  0  0
 42 66  1  0  0  0
 42114  1  0  0  0
 42115  1  0  0  0
 43 44  1  0  0  0
 44116  1  0  0  0
 45 46  2  0  0  0
 45117  1  0  0  0
 46118  1  0  0  0
 47119  1  0  0  0
 47120  1  0  0  0
 48 56  1  0  0  0
 48 65  1  0  0  0
 48121  1  0  0  0
 49 50  1  0  0  0
 49 53  1  0  0  0
 49 64  1  0  0  0
 49122  1  0  0  0
 50 51  1  0  0  0
 50123  1  0  0  0
 50124  1  0  0  0
 51 52  1  0  0  0
 51125  1  0  0  0
 51126  1  0  0  0
 52127  1  0  0  0
 52128  1  0  0  0
 53 54  1  0  0  0
 54 55  2  0  0  0
 54129  1  0  0  0
 55 57  1  0  0  0
 55130  1  0  0  0
 56 69  2  0  0  0
 57 58  2  0  0  0
 57131  1  0  0  0
 58132  1  0  0  0
 59 60  1  0  0  0
 59 61  1  0  0  0
 59 62  1  0  0  0
 60133  1  0  0  0
 60134  1  0  0  0
 60135  1  0  0  0
 61136  1  0  0  0
 61137  1  0  0  0
 61138  1  0  0  0
 62139  1  0  0  0
 62140  1  0  0  0
 62141  1  0  0  0
 63 65  1  0  0  0
 63142  1  0  0  0
 63143  1  0  0  0
 63144  1  0  0  0
 64145  1  0  0  0
 65146  1  0  0  0
 68 79  1  0  0  0
 71 72  2  0  0  0
 71 74  1  0  0  0
 71147  1  0  0  0
 72 73  1  0  0  0
 72 80  1  0  0  0
 73 75  2  0  0  0
 73 86  1  0  0  0
 74 82  2  0  0  0
 74 83  1  0  0  0
 75 82  1  0  0  0
 75 87  1  0  0  0
 76 79  1  0  0  0
 76 81  1  0  0  0
 76 85  2  0  0  0
 77148  1  0  0  0
 77149  1  0  0  0
 77150  1  0  0  0
 77 80  1  0  0  0
 78151  1  0  0  0
 78152  1  0  0  0
 78153  1  0  0  0
 78 81  1  0  0  0
 79154  1  0  0  0
 79155  1  0  0  0
 80 84  1  0  0  0
 80156  1  0  0  0
 81 84  1  0  0  0
 81157  1  0  0  0
 83158  1  0  0  0
 84159  1  0  0  0
 84160  1  0  0  0
M  CHG  1  84   1
M  ISO  4   1 100  68 101  79 101  83 100
M  END
> <chiral flag>
0

> <version>
0

> <s_m_source_file>
/data/baiqing/PycharmProjects/Reinvent-master-3.2/result/LINK_invent/BTK/process_docking_weight1_custom_product_contain_oxygen_bond_distance_aromatic_linkinvent_7_9_3/rearranged_h_0175.sdf

> <i_m_source_file_index>
57

> <r_mmod_Potential_Energy-OPLS-2005>
17713.21875

> <r_mmod_Stretch_Energy-OPLS-2005>
9418.3046875

> <r_mmod_Bend_Energy-OPLS-2005>
1852.13671875

> <r_mmod_Torsional_Energy-OPLS-2005>
550.365417480469

> <r_mmod_Improper_Torsional_Energy-OPLS-2005>
29.0154094696045

> <r_mmod_Van_der_Waal_Energy-OPLS-2005>
1915.73559570312

> <r_mmod_Electrostatic_Energy-OPLS-2005>
-532.127624511719

> <r_mmod_Solvation_Energy-OPLS-2005>
-439.270324707031

> <b_mmod_Minimization_Converged-OPLS-2005>
0

> <r_mmod_RMS_Derivative-OPLS-2005>
3.00921702384949

$$$$
58
                    3D
 Structure written by MMmdl.
155163  0  0  1  0            999 V2000
  -30.7099  -14.4332   20.4831 C   0  0  0  0  0  0
  -30.4209  -12.2476   19.4373 C   0  0  0  0  0  0
  -29.5039  -12.4345   18.2135 C   0  0  0  0  0  0
  -28.0174  -12.3448   18.6185 C   0  0  0  0  0  0
  -27.6591  -13.1882   19.8738 C   0  0  2  0  0  0
  -28.7065  -12.9875   20.9921 C   0  0  0  0  0  0
  -25.2605  -13.8143   20.5711 C   0  0  0  0  0  0
  -24.1845  -13.0436   20.9226 C   0  0  0  0  0  0
  -24.6372  -11.6895   20.8755 C   0  0  0  0  0  0
  -23.9053  -10.4265   21.0356 C   0  0  0  0  0  0
  -24.3596   -9.4185   21.9155 C   0  0  0  0  0  0
  -23.6273   -8.2220   22.0724 C   0  0  0  0  0  0
  -22.4256   -8.0274   21.3529 C   0  0  0  0  0  0
  -21.9901   -9.0237   20.4634 C   0  0  0  0  0  0
  -22.7228  -10.2121   20.3026 C   0  0  0  0  0  0
  -21.6832   -6.0730   22.5293 C   0  0  0  0  0  0
  -21.3985   -6.5615   23.8232 C   0  0  0  0  0  0
  -21.3648   -5.6769   24.9187 C   0  0  0  0  0  0
  -21.6037   -4.3031   24.7236 C   0  0  0  0  0  0
  -21.8831   -3.8145   23.4364 C   0  0  0  0  0  0
  -21.9201   -4.6960   22.3420 C   0  0  0  0  0  0
  -22.7847  -13.5220   21.1851 C   0  0  0  0  0  0
  -22.1673   -4.2160   21.0998 F   0  0  0  0  0  0
  -21.5627   -3.4510   25.7727 F   0  0  0  0  0  0
  -30.0392  -13.2564   20.4297 N   0  0  0  0  0  0
  -26.3006  -12.9261   20.3387 N   0  0  0  0  0  0
  -25.9283  -11.6453   20.5816 N   0  0  0  0  0  0
  -22.0446  -12.8211   22.0404 N   0  0  0  0  0  0
  -25.4389  -15.1909   20.4195 N   0  0  0  0  0  0
  -31.8911  -14.5609   20.1513 O   0  0  0  0  0  0
  -21.6634   -6.8861   21.4237 O   0  0  0  0  0  0
  -22.3560  -14.5544   20.6752 O   0  0  0  0  0  0
  -24.6116  -31.8708   23.2070 C   0  0  0  0  0  0
  -25.9027  -32.4819   23.8366 C   0  0  1  0  0  0
  -27.2540  -27.4824   20.0822 C   0  0  0  0  0  0
  -25.5897  -33.8615   24.2312 N   0  0  0  0  0  0
  -23.3968  -30.4903   21.5483 C   0  0  2  0  0  0
  -24.8457  -28.9545   20.1213 C   0  0  0  0  0  0
  -22.7396  -29.4666   22.4995 C   0  0  0  0  0  0
  -18.0281  -28.1374   22.8483 C   0  0  0  0  0  0
  -24.1501  -36.7324   23.2627 C   0  0  0  0  0  0
  -25.9196  -30.8513   21.3512 C   0  0  0  0  0  0
  -26.0035  -29.4862   20.7045 C   0  0  0  0  0  0
  -27.2104  -28.7601   20.6759 C   0  0  0  0  0  0
  -26.0808  -26.9491   19.5050 C   0  0  0  0  0  0
  -24.8783  -27.6836   19.5210 C   0  0  0  0  0  0
  -23.6033  -29.8154   20.1657 C   0  0  0  0  0  0
  -25.4112  -36.3115   24.0336 C   0  0  1  0  0  0
  -20.5866  -28.3658   23.1328 C   0  0  2  0  0  0
  -20.6771  -26.9393   22.5421 C   0  0  0  0  0  0
  -19.5763  -26.6386   21.5206 C   0  0  0  0  0  0
  -18.1937  -26.7925   22.1608 C   0  0  0  0  0  0
  -19.1520  -28.8835   23.2911 C   0  0  0  0  0  0
  -18.9449  -30.1443   23.8922 C   0  0  0  0  0  0
  -17.6448  -30.6578   24.0568 C   0  0  0  0  0  0
  -25.9037  -34.9480   23.5120 C   0  0  0  0  0  0
  -16.5346  -29.9085   23.6309 C   0  0  0  0  0  0
  -16.7270  -28.6504   23.0331 C   0  0  0  0  0  0
  -26.4461  -31.6571   25.0671 C   0  0  0  0  0  0
  -25.3725  -31.3711   26.1421 C   0  0  0  0  0  0
  -27.0221  -30.2996   24.6003 C   0  0  0  0  0  0
  -27.6068  -32.4248   25.7435 C   0  0  0  0  0  0
  -27.5596  -37.1805   24.8448 C   0  0  0  0  0  0
  -21.4127  -29.3029   22.3733 N   0  0  0  0  0  0
  -26.4297  -37.3794   23.9413 N   0  0  0  0  0  0
  -24.6600  -31.0861   22.0943 N   0  0  0  0  0  0
  -23.4189  -28.8229   23.3031 O   0  0  0  0  0  0
  -28.4527  -26.8148   20.0313 O   0  0  0  0  0  0
  -26.5608  -34.8931   22.4684 O   0  0  0  0  0  0
  -23.5323  -32.1439   23.7488 O   0  0  0  0  0  0
  -30.7986  -17.8451   20.7114 C   0  0  0  0  0  0
  -30.1958  -16.7462   20.0335 C   0  0  0  0  0  0
  -29.8873  -16.9975   18.7170 C   0  0  0  0  0  0
  -30.9333  -18.9469   19.8979 C   0  0  0  0  0  0
  -29.7713  -23.3296   20.6210 C   0  0  0  0  0  0
  -30.7205  -22.4215   20.2915 C   0  0  0  0  0  0
  -29.7139  -24.7283   20.1664 C   0  0  0  0  0  0
  -30.5649  -21.0669   20.8158 C   0  0  0  0  0  0
  -29.2527  -16.1360   17.6819 C   0  0  0  0  0  0
  -28.4363  -25.4886   20.5472 C   0  0  0  0  0  0
  -29.9314  -15.5063   20.6734 N   0  0  0  0  0  0
  -31.3630  -20.1937   20.1934 N   0  0  0  0  0  0
  -30.6118  -25.2742   19.5085 O   0  0  0  0  0  0
  -29.7959  -20.7345   21.7220 O   0  0  0  0  0  0
  -31.7634  -22.7121   19.4868 O   0  0  0  0  0  0
  -30.3960  -18.5999   18.2749 S   0  0  0  0  0  0
  -31.4665  -12.3217   19.1374 H   0  0  0  0  0  0
  -30.3035  -11.2498   19.8621 H   0  0  0  0  0  0
  -29.7308  -11.6777   17.4596 H   0  0  0  0  0  0
  -29.7162  -13.3887   17.7378 H   0  0  0  0  0  0
  -27.8007  -11.2940   18.8108 H   0  0  0  0  0  0
  -27.3856  -12.6333   17.7799 H   0  0  0  0  0  0
  -27.6872  -14.2332   19.5851 H   0  0  0  0  0  0
  -28.6659  -11.9661   21.3711 H   0  0  0  0  0  0
  -28.4957  -13.6261   21.8484 H   0  0  0  0  0  0
  -25.2745   -9.5672   22.4735 H   0  0  0  0  0  0
  -23.9998   -7.4593   22.7432 H   0  0  0  0  0  0
  -21.0828   -8.8766   19.8946 H   0  0  0  0  0  0
  -22.3685  -10.9659   19.6136 H   0  0  0  0  0  0
  -21.1941   -7.6134   23.9729 H   0  0  0  0  0  0
  -21.1442   -6.0483   25.9079 H   0  0  0  0  0  0
  -22.0637   -2.7613   23.2866 H   0  0  0  0  0  0
  -22.4021  -11.9919   22.4943 H   0  0  0  0  0  0
  -21.1042  -13.1244   22.2455 H   0  0  0  0  0  0
  -24.7018  -15.8649   20.5981 H   0  0  0  0  0  0
  -26.3012  -15.6389   20.1367 H   0  0  0  0  0  0
  -26.7098  -32.5562   23.1135 H   0  0  0  0  0  0
  -25.0033  -33.9766   25.0455 H   0  0  0  0  0  0
  -22.6832  -31.3029   21.4059 H   0  0  0  0  0  0
  -23.3746  -35.9669   23.3286 H   0  0  0  0  0  0
  -24.3600  -36.8932   22.2038 H   0  0  0  0  0  0
  -23.7270  -37.6537   23.6639 H   0  0  0  0  0  0
  -26.0220  -31.6181   20.5813 H   0  0  0  0  0  0
  -26.8115  -30.9097   21.9639 H   0  0  0  0  0  0
  -28.1110  -29.1766   21.1046 H   0  0  0  0  0  0
  -26.0969  -25.9843   19.0168 H   0  0  0  0  0  0
  -23.9904  -27.2668   19.0665 H   0  0  0  0  0  0
  -23.7026  -30.5843   19.3970 H   0  0  0  0  0  0
  -22.7315  -29.2244   19.8774 H   0  0  0  0  0  0
  -25.1282  -36.1963   25.0826 H   0  0  0  0  0  0
  -20.9960  -28.3230   24.1451 H   0  0  0  0  0  0
  -20.5661  -26.2267   23.3602 H   0  0  0  0  0  0
  -21.6653  -26.7441   22.1230 H   0  0  0  0  0  0
  -19.6923  -25.6306   21.1227 H   0  0  0  0  0  0
  -19.6700  -27.3203   20.6744 H   0  0  0  0  0  0
  -17.4201  -26.6667   21.4013 H   0  0  0  0  0  0
  -18.0338  -26.0068   22.9007 H   0  0  0  0  0  0
  -19.7924  -30.7261   24.2298 H   0  0  0  0  0  0
  -17.4999  -31.6253   24.5175 H   0  0  0  0  0  0
  -15.5348  -30.2995   23.7614 H   0  0  0  0  0  0
  -15.8673  -28.0834   22.7023 H   0  0  0  0  0  0
  -24.5902  -30.7042   25.7771 H   0  0  0  0  0  0
  -24.8910  -32.2884   26.4830 H   0  0  0  0  0  0
  -25.8070  -30.8911   27.0197 H   0  0  0  0  0  0
  -26.2726  -29.6830   24.1018 H   0  0  0  0  0  0
  -27.3934  -29.7157   25.4435 H   0  0  0  0  0  0
  -27.8604  -30.4276   23.9144 H   0  0  0  0  0  0
  -27.2721  -33.3551   26.2037 H   0  0  0  0  0  0
  -28.3882  -32.6780   25.0255 H   0  0  0  0  0  0
  -28.0717  -31.8323   26.5325 H   0  0  0  0  0  0
  -28.2595  -38.0121   24.7526 H   0  0  0  0  0  0
  -28.1113  -36.2659   24.6225 H   0  0  0  0  0  0
  -27.2328  -37.1399   25.8852 H   0  0  0  0  0  0
  -20.9282  -29.8734   21.6941 H   0  0  0  0  0  0
  -26.0186  -38.2868   24.1420 H   0  0  0  0  0  0
  -31.0849  -17.7980   21.7511 H   0  0  0  0  0  0
  -28.9520  -23.0334   21.2630 H   0  0  0  0  0  0
  -28.5410  -15.4437   18.1113 H   0  0  0  0  0  0
  -30.0052  -15.5700   17.1360 H   0  0  0  0  0  0
  -28.7079  -16.7413   16.9593 H   0  0  0  0  0  0
  -28.3673  -25.5316   21.6345 H   0  0  0  0  0  0
  -27.5777  -24.9215   20.1893 H   0  0  0  0  0  0
  -28.9749  -15.3055   20.9086 H   0  0  0  0  0  0
  -31.9330  -20.6588   19.4979 H   0  0  0  0  0  0
  -31.6879  -23.6314   19.2496 H   0  0  0  0  0  0
  1 25  1  0  0  0
  1 30  2  0  0  0
  1 81  1  0  0  0
  2  3  1  0  0  0
  2 25  1  0  0  0
  2 87  1  0  0  0
  2 88  1  0  0  0
  3  4  1  0  0  0
  3 89  1  0  0  0
  3 90  1  0  0  0
  4  5  1  0  0  0
  4 91  1  0  0  0
  4 92  1  0  0  0
  5  6  1  0  0  0
  5 26  1  0  0  0
  5 93  1  0  0  0
  6 25  1  0  0  0
  6 94  1  0  0  0
  6 95  1  0  0  0
  7  8  2  0  0  0
  7 26  1  0  0  0
  7 29  1  0  0  0
  8  9  1  0  0  0
  8 22  1  0  0  0
  9 10  1  0  0  0
  9 27  2  0  0  0
 10 11  2  0  0  0
 10 15  1  0  0  0
 11 12  1  0  0  0
 11 96  1  0  0  0
 12 13  2  0  0  0
 12 97  1  0  0  0
 13 14  1  0  0  0
 13 31  1  0  0  0
 14 15  2  0  0  0
 14 98  1  0  0  0
 15 99  1  0  0  0
 16 17  2  0  0  0
 16 21  1  0  0  0
 16 31  1  0  0  0
 17 18  1  0  0  0
 17100  1  0  0  0
 18 19  2  0  0  0
 18101  1  0  0  0
 19 20  1  0  0  0
 19 24  1  0  0  0
 20 21  2  0  0  0
 20102  1  0  0  0
 21 23  1  0  0  0
 22 28  1  0  0  0
 22 32  2  0  0  0
 26 27  1  0  0  0
 28103  1  0  0  0
 28104  1  0  0  0
 29105  1  0  0  0
 29106  1  0  0  0
 33 34  1  0  0  0
 33 66  1  0  0  0
 33 70  2  0  0  0
 34 36  1  0  0  0
 34 59  1  0  0  0
 34107  1  0  0  0
 35 44  2  0  0  0
 35 45  1  0  0  0
 35 68  1  0  0  0
 36 56  1  0  0  0
 36108  1  0  0  0
 37 39  1  0  0  0
 37 47  1  0  0  0
 37 66  1  0  0  0
 37109  1  0  0  0
 38 43  2  0  0  0
 38 46  1  0  0  0
 38 47  1  0  0  0
 39 64  1  0  0  0
 39 67  2  0  0  0
 40 52  1  0  0  0
 40 53  2  0  0  0
 40 58  1  0  0  0
 41110  1  0  0  0
 41111  1  0  0  0
 41112  1  0  0  0
 41 48  1  0  0  0
 42 43  1  0  0  0
 42 66  1  0  0  0
 42113  1  0  0  0
 42114  1  0  0  0
 43 44  1  0  0  0
 44115  1  0  0  0
 45 46  2  0  0  0
 45116  1  0  0  0
 46117  1  0  0  0
 47118  1  0  0  0
 47119  1  0  0  0
 48 56  1  0  0  0
 48 65  1  0  0  0
 48120  1  0  0  0
 49 50  1  0  0  0
 49 53  1  0  0  0
 49 64  1  0  0  0
 49121  1  0  0  0
 50 51  1  0  0  0
 50122  1  0  0  0
 50123  1  0  0  0
 51 52  1  0  0  0
 51124  1  0  0  0
 51125  1  0  0  0
 52126  1  0  0  0
 52127  1  0  0  0
 53 54  1  0  0  0
 54 55  2  0  0  0
 54128  1  0  0  0
 55 57  1  0  0  0
 55129  1  0  0  0
 56 69  2  0  0  0
 57 58  2  0  0  0
 57130  1  0  0  0
 58131  1  0  0  0
 59 60  1  0  0  0
 59 61  1  0  0  0
 59 62  1  0  0  0
 60132  1  0  0  0
 60133  1  0  0  0
 60134  1  0  0  0
 61135  1  0  0  0
 61136  1  0  0  0
 61137  1  0  0  0
 62138  1  0  0  0
 62139  1  0  0  0
 62140  1  0  0  0
 63 65  1  0  0  0
 63141  1  0  0  0
 63142  1  0  0  0
 63143  1  0  0  0
 64144  1  0  0  0
 65145  1  0  0  0
 68 80  1  0  0  0
 71 72  1  0  0  0
 71 74  2  0  0  0
 71146  1  0  0  0
 72 73  2  0  0  0
 72 81  1  0  0  0
 73 79  1  0  0  0
 73 86  1  0  0  0
 74 82  1  0  0  0
 74 86  1  0  0  0
 75 76  2  0  0  0
 75 77  1  0  0  0
 75147  1  0  0  0
 76 78  1  0  0  0
 76 85  1  0  0  0
 77 80  1  0  0  0
 77 83  2  0  0  0
 78 82  1  0  0  0
 78 84  2  0  0  0
 79148  1  0  0  0
 79149  1  0  0  0
 79150  1  0  0  0
 80151  1  0  0  0
 80152  1  0  0  0
 81153  1  0  0  0
 82154  1  0  0  0
 85155  1  0  0  0
M  ISO  4   1 100  68 101  80 101  81 100
M  END
> <chiral flag>
0

> <version>
0

> <s_m_source_file>
/data/baiqing/PycharmProjects/Reinvent-master-3.2/result/LINK_invent/BTK/process_docking_weight1_custom_product_contain_oxygen_bond_distance_aromatic_linkinvent_7_9_3/rearranged_h_0175.sdf

> <i_m_source_file_index>
58

> <r_mmod_Potential_Energy-OPLS-2005>
-86.0337982177734

> <r_mmod_Stretch_Energy-OPLS-2005>
30.7598171234131

> <r_mmod_Bend_Energy-OPLS-2005>
101.148544311523

> <r_mmod_Torsional_Energy-OPLS-2005>
293.586944580078

> <r_mmod_Improper_Torsional_Energy-OPLS-2005>
11.1556186676025

> <r_mmod_Van_der_Waal_Energy-OPLS-2005>
142.305297851562

> <r_mmod_Electrostatic_Energy-OPLS-2005>
-440.859436035156

> <r_mmod_Solvation_Energy-OPLS-2005>
-240.563171386719

> <b_mmod_Minimization_Converged-OPLS-2005>
0

> <r_mmod_RMS_Derivative-OPLS-2005>
5.36192178726196

$$$$
59
                    3D
 Structure written by MMmdl.
154162  0  0  1  0            999 V2000
  -30.7022  -14.4169   20.6345 C   0  0  0  0  0  0
  -30.4289  -12.2967   19.4033 C   0  0  0  0  0  0
  -29.4905  -12.5315   18.2008 C   0  0  0  0  0  0
  -28.0120  -12.3886   18.6112 C   0  0  0  0  0  0
  -27.6696  -13.1993   19.8875 C   0  0  2  0  0  0
  -28.7077  -12.9219   20.9987 C   0  0  0  0  0  0
  -25.2607  -13.8139   20.5672 C   0  0  0  0  0  0
  -24.1850  -13.0429   20.9185 C   0  0  0  0  0  0
  -24.6392  -11.6890   20.8743 C   0  0  0  0  0  0
  -23.9056  -10.4281   21.0417 C   0  0  0  0  0  0
  -24.3606   -9.4194   21.9194 C   0  0  0  0  0  0
  -23.6286   -8.2226   22.0754 C   0  0  0  0  0  0
  -22.4270   -8.0269   21.3544 C   0  0  0  0  0  0
  -21.9904   -9.0245   20.4649 C   0  0  0  0  0  0
  -22.7224  -10.2127   20.3064 C   0  0  0  0  0  0
  -21.6850   -6.0726   22.5281 C   0  0  0  0  0  0
  -21.4005   -6.5637   23.8210 C   0  0  0  0  0  0
  -21.3661   -5.6798   24.9180 C   0  0  0  0  0  0
  -21.6050   -4.3060   24.7237 C   0  0  0  0  0  0
  -21.8814   -3.8140   23.4360 C   0  0  0  0  0  0
  -21.9184   -4.6950   22.3408 C   0  0  0  0  0  0
  -22.7869  -13.5229   21.1847 C   0  0  0  0  0  0
  -22.1662   -4.2133   21.0987 F   0  0  0  0  0  0
  -21.5631   -3.4547   25.7752 F   0  0  0  0  0  0
  -30.0520  -13.2336   20.4723 N   0  0  0  0  0  0
  -26.3059  -12.9300   20.3422 N   0  0  0  0  0  0
  -25.9321  -11.6465   20.5791 N   0  0  0  0  0  0
  -22.0520  -12.8220   22.0410 N   0  0  0  0  0  0
  -25.4325  -15.1848   20.3992 N   0  0  0  0  0  0
  -31.7536  -14.7060   20.0548 O   0  0  0  0  0  0
  -21.6635   -6.8864   21.4241 O   0  0  0  0  0  0
  -22.3543  -14.5532   20.6699 O   0  0  0  0  0  0
  -24.6128  -31.8686   23.2120 C   0  0  0  0  0  0
  -25.9028  -32.4828   23.8405 C   0  0  1  0  0  0
  -27.2378  -27.4529   20.0944 C   0  0  0  0  0  0
  -25.5885  -33.8628   24.2334 N   0  0  0  0  0  0
  -23.4004  -30.4911   21.5522 C   0  0  2  0  0  0
  -24.8469  -28.9550   20.1206 C   0  0  0  0  0  0
  -22.7404  -29.4660   22.5014 C   0  0  0  0  0  0
  -18.0284  -28.1374   22.8495 C   0  0  0  0  0  0
  -24.1486  -36.7324   23.2641 C   0  0  0  0  0  0
  -25.9266  -30.8408   21.3606 C   0  0  0  0  0  0
  -26.0058  -29.4747   20.7109 C   0  0  0  0  0  0
  -27.2068  -28.7321   20.6920 C   0  0  0  0  0  0
  -26.0635  -26.9384   19.5060 C   0  0  0  0  0  0
  -24.8688  -27.6845   19.5174 C   0  0  0  0  0  0
  -23.6073  -29.8198   20.1686 C   0  0  0  0  0  0
  -25.4108  -36.3120   24.0341 C   0  0  1  0  0  0
  -20.5866  -28.3655   23.1335 C   0  0  2  0  0  0
  -20.6777  -26.9393   22.5429 C   0  0  0  0  0  0
  -19.5764  -26.6392   21.5208 C   0  0  0  0  0  0
  -18.1937  -26.7925   22.1626 C   0  0  0  0  0  0
  -19.1528  -28.8841   23.2910 C   0  0  0  0  0  0
  -18.9448  -30.1447   23.8909 C   0  0  0  0  0  0
  -17.6449  -30.6585   24.0559 C   0  0  0  0  0  0
  -25.9028  -34.9482   23.5137 C   0  0  0  0  0  0
  -16.5347  -29.9075   23.6316 C   0  0  0  0  0  0
  -16.7271  -28.6492   23.0338 C   0  0  0  0  0  0
  -26.4467  -31.6601   25.0723 C   0  0  0  0  0  0
  -25.3746  -31.3686   26.1475 C   0  0  0  0  0  0
  -27.0294  -30.3053   24.6074 C   0  0  0  0  0  0
  -27.6048  -32.4316   25.7483 C   0  0  0  0  0  0
  -27.5581  -37.1819   24.8464 C   0  0  0  0  0  0
  -21.4135  -29.3022   22.3742 N   0  0  0  0  0  0
  -26.4298  -37.3801   23.9400 N   0  0  0  0  0  0
  -24.6648  -31.0805   22.1004 N   0  0  0  0  0  0
  -23.4186  -28.8206   23.3053 O   0  0  0  0  0  0
  -28.4107  -26.7362   20.0612 O   0  0  0  0  0  0
  -26.5593  -34.8932   22.4698 O   0  0  0  0  0  0
  -23.5327  -32.1435   23.7530 O   0  0  0  0  0  0
  -29.1635  -17.3304   22.3191 C   0  0  0  0  0  0
  -28.4862  -18.5526   22.1268 C   0  0  0  0  0  0
  -29.6007  -16.5654   21.2140 C   0  0  0  0  0  0
  -29.3885  -17.0732   19.9019 C   0  0  0  0  0  0
  -28.7118  -18.2980   19.7100 C   0  0  0  0  0  0
  -28.2327  -19.0237   20.8229 C   0  0  0  0  0  0
  -28.2522  -22.9717   20.9109 C   0  0  0  0  0  0
  -28.4344  -25.5538   20.8741 C   0  0  0  0  0  0
  -28.4012  -24.2428   20.0497 C   0  0  1  0  0  0
  -30.1132  -15.2623   21.4935 N   0  0  0  0  0  0
  -28.1426  -21.7755   20.1969 N   0  0  0  0  0  0
  -28.1969  -23.0137   22.1441 O   0  0  0  0  0  0
  -26.2877  -20.1895   19.4196 O   0  0  0  0  0  0
  -26.4657  -20.7197   21.8873 O   0  0  0  0  0  0
  -29.7611  -16.3683   18.8056 F   0  0  0  0  0  0
  -28.4859  -18.7368   18.4476 F   0  0  0  0  0  0
  -29.5102  -24.1321   19.3116 F   0  0  0  0  0  0
  -27.1298  -20.4388   20.6025 S   0  0  0  0  0  0
  -31.4692  -12.4193   19.0961 H   0  0  0  0  0  0
  -30.3447  -11.2696   19.7629 H   0  0  0  0  0  0
  -29.7233  -11.8315   17.3976 H   0  0  0  0  0  0
  -29.6608  -13.5295   17.7943 H   0  0  0  0  0  0
  -27.8109  -11.3299   18.7790 H   0  0  0  0  0  0
  -27.3619  -12.6946   17.7899 H   0  0  0  0  0  0
  -27.7318  -14.2558   19.6270 H   0  0  0  0  0  0
  -28.6730  -11.8723   21.2931 H   0  0  0  0  0  0
  -28.4505  -13.4733   21.9025 H   0  0  0  0  0  0
  -25.2756   -9.5655   22.4767 H   0  0  0  0  0  0
  -23.9995   -7.4606   22.7461 H   0  0  0  0  0  0
  -21.0836   -8.8754   19.8955 H   0  0  0  0  0  0
  -22.3688  -10.9662   19.6167 H   0  0  0  0  0  0
  -21.2001   -7.6146   23.9705 H   0  0  0  0  0  0
  -21.1496   -6.0541   25.9081 H   0  0  0  0  0  0
  -22.0593   -2.7601   23.2876 H   0  0  0  0  0  0
  -22.4148  -11.9887   22.4804 H   0  0  0  0  0  0
  -21.1136  -13.1234   22.2616 H   0  0  0  0  0  0
  -24.6561  -15.8347   20.4597 H   0  0  0  0  0  0
  -26.2763  -15.6043   20.0332 H   0  0  0  0  0  0
  -26.7106  -32.5548   23.1178 H   0  0  0  0  0  0
  -25.0024  -33.9791   25.0470 H   0  0  0  0  0  0
  -22.6873  -31.3066   21.4128 H   0  0  0  0  0  0
  -23.3741  -35.9663   23.3322 H   0  0  0  0  0  0
  -24.3585  -36.8923   22.2051 H   0  0  0  0  0  0
  -23.7241  -37.6541   23.6642 H   0  0  0  0  0  0
  -26.0322  -31.6081   20.5924 H   0  0  0  0  0  0
  -26.8173  -30.8984   21.9750 H   0  0  0  0  0  0
  -28.1050  -29.1346   21.1382 H   0  0  0  0  0  0
  -26.0680  -25.9713   19.0262 H   0  0  0  0  0  0
  -23.9774  -27.2789   19.0590 H   0  0  0  0  0  0
  -23.7134  -30.5919   19.4060 H   0  0  0  0  0  0
  -22.7331  -29.2369   19.8747 H   0  0  0  0  0  0
  -25.1287  -36.1996   25.0837 H   0  0  0  0  0  0
  -20.9954  -28.3223   24.1458 H   0  0  0  0  0  0
  -20.5651  -26.2261   23.3603 H   0  0  0  0  0  0
  -21.6650  -26.7427   22.1238 H   0  0  0  0  0  0
  -19.6930  -25.6309   21.1214 H   0  0  0  0  0  0
  -19.6714  -27.3236   20.6767 H   0  0  0  0  0  0
  -17.4210  -26.6689   21.4018 H   0  0  0  0  0  0
  -18.0330  -26.0051   22.9005 H   0  0  0  0  0  0
  -19.7920  -30.7265   24.2289 H   0  0  0  0  0  0
  -17.4999  -31.6256   24.5172 H   0  0  0  0  0  0
  -15.5348  -30.2981   23.7652 H   0  0  0  0  0  0
  -15.8664  -28.0824   22.7046 H   0  0  0  0  0  0
  -24.5910  -30.7047   25.7807 H   0  0  0  0  0  0
  -24.8943  -32.2829   26.4969 H   0  0  0  0  0  0
  -25.8112  -30.8818   27.0203 H   0  0  0  0  0  0
  -26.2826  -29.6816   24.1145 H   0  0  0  0  0  0
  -27.4097  -29.7286   25.4516 H   0  0  0  0  0  0
  -27.8644  -30.4392   23.9194 H   0  0  0  0  0  0
  -27.2670  -33.3596   26.2112 H   0  0  0  0  0  0
  -28.3828  -32.6915   25.0291 H   0  0  0  0  0  0
  -28.0745  -31.8407   26.5356 H   0  0  0  0  0  0
  -28.2615  -38.0103   24.7509 H   0  0  0  0  0  0
  -28.1068  -36.2640   24.6299 H   0  0  0  0  0  0
  -27.2302  -37.1477   25.8870 H   0  0  0  0  0  0
  -20.9295  -29.8699   21.6932 H   0  0  0  0  0  0
  -26.0196  -38.2886   24.1395 H   0  0  0  0  0  0
  -29.3065  -16.9645   23.3261 H   0  0  0  0  0  0
  -28.1115  -19.1027   22.9783 H   0  0  0  0  0  0
  -29.3516  -25.5816   21.4629 H   0  0  0  0  0  0
  -27.6173  -25.5714   21.5987 H   0  0  0  0  0  0
  -27.5650  -24.2671   19.3533 H   0  0  0  0  0  0
  -29.6062  -14.7833   22.2219 H   0  0  0  0  0  0
  -28.3669  -21.7676   19.2038 H   0  0  0  0  0  0
  1 25  1  0  0  0
  1 30  2  0  0  0
  1 80  1  0  0  0
  2  3  1  0  0  0
  2 25  1  0  0  0
  2 89  1  0  0  0
  2 90  1  0  0  0
  3  4  1  0  0  0
  3 91  1  0  0  0
  3 92  1  0  0  0
  4  5  1  0  0  0
  4 93  1  0  0  0
  4 94  1  0  0  0
  5  6  1  0  0  0
  5 26  1  0  0  0
  5 95  1  0  0  0
  6 25  1  0  0  0
  6 96  1  0  0  0
  6 97  1  0  0  0
  7  8  2  0  0  0
  7 26  1  0  0  0
  7 29  1  0  0  0
  8  9  1  0  0  0
  8 22  1  0  0  0
  9 10  1  0  0  0
  9 27  2  0  0  0
 10 11  2  0  0  0
 10 15  1  0  0  0
 11 12  1  0  0  0
 11 98  1  0  0  0
 12 13  2  0  0  0
 12 99  1  0  0  0
 13 14  1  0  0  0
 13 31  1  0  0  0
 14 15  2  0  0  0
 14100  1  0  0  0
 15101  1  0  0  0
 16 17  2  0  0  0
 16 21  1  0  0  0
 16 31  1  0  0  0
 17 18  1  0  0  0
 17102  1  0  0  0
 18 19  2  0  0  0
 18103  1  0  0  0
 19 20  1  0  0  0
 19 24  1  0  0  0
 20 21  2  0  0  0
 20104  1  0  0  0
 21 23  1  0  0  0
 22 28  1  0  0  0
 22 32  2  0  0  0
 26 27  1  0  0  0
 28105  1  0  0  0
 28106  1  0  0  0
 29107  1  0  0  0
 29108  1  0  0  0
 33 34  1  0  0  0
 33 66  1  0  0  0
 33 70  2  0  0  0
 34 36  1  0  0  0
 34 59  1  0  0  0
 34109  1  0  0  0
 35 44  2  0  0  0
 35 45  1  0  0  0
 35 68  1  0  0  0
 36 56  1  0  0  0
 36110  1  0  0  0
 37 39  1  0  0  0
 37 47  1  0  0  0
 37 66  1  0  0  0
 37111  1  0  0  0
 38 43  2  0  0  0
 38 46  1  0  0  0
 38 47  1  0  0  0
 39 64  1  0  0  0
 39 67  2  0  0  0
 40 52  1  0  0  0
 40 53  2  0  0  0
 40 58  1  0  0  0
 41112  1  0  0  0
 41113  1  0  0  0
 41114  1  0  0  0
 41 48  1  0  0  0
 42 43  1  0  0  0
 42 66  1  0  0  0
 42115  1  0  0  0
 42116  1  0  0  0
 43 44  1  0  0  0
 44117  1  0  0  0
 45 46  2  0  0  0
 45118  1  0  0  0
 46119  1  0  0  0
 47120  1  0  0  0
 47121  1  0  0  0
 48 56  1  0  0  0
 48 65  1  0  0  0
 48122  1  0  0  0
 49 50  1  0  0  0
 49 53  1  0  0  0
 49 64  1  0  0  0
 49123  1  0  0  0
 50 51  1  0  0  0
 50124  1  0  0  0
 50125  1  0  0  0
 51 52  1  0  0  0
 51126  1  0  0  0
 51127  1  0  0  0
 52128  1  0  0  0
 52129  1  0  0  0
 53 54  1  0  0  0
 54 55  2  0  0  0
 54130  1  0  0  0
 55 57  1  0  0  0
 55131  1  0  0  0
 56 69  2  0  0  0
 57 58  2  0  0  0
 57132  1  0  0  0
 58133  1  0  0  0
 59 60  1  0  0  0
 59 61  1  0  0  0
 59 62  1  0  0  0
 60134  1  0  0  0
 60135  1  0  0  0
 60136  1  0  0  0
 61137  1  0  0  0
 61138  1  0  0  0
 61139  1  0  0  0
 62140  1  0  0  0
 62141  1  0  0  0
 62142  1  0  0  0
 63 65  1  0  0  0
 63143  1  0  0  0
 63144  1  0  0  0
 63145  1  0  0  0
 64146  1  0  0  0
 65147  1  0  0  0
 68 78  1  0  0  0
 71 72  2  0  0  0
 71 73  1  0  0  0
 71148  1  0  0  0
 72 76  1  0  0  0
 72149  1  0  0  0
 73 74  2  0  0  0
 73 80  1  0  0  0
 74 75  1  0  0  0
 74 85  1  0  0  0
 75 76  2  0  0  0
 75 86  1  0  0  0
 76 88  1  0  0  0
 77 79  1  0  0  0
 77 81  1  0  0  0
 77 82  2  0  0  0
 78 79  1  0  0  0
 78150  1  0  0  0
 78151  1  0  0  0
 79 87  1  0  0  0
 79152  1  0  0  0
 80153  1  0  0  0
 81154  1  0  0  0
 81 88  1  0  0  0
 83 88  2  0  0  0
 84 88  2  0  0  0
M  ISO  4   1 100  68 101  78 101  80 100
M  END
> <chiral flag>
0

> <version>
0

> <s_m_source_file>
/data/baiqing/PycharmProjects/Reinvent-master-3.2/result/LINK_invent/BTK/process_docking_weight1_custom_product_contain_oxygen_bond_distance_aromatic_linkinvent_7_9_3/rearranged_h_0175.sdf

> <i_m_source_file_index>
59

> <r_mmod_Potential_Energy-OPLS-2005>
-190.313339233398

> <r_mmod_Stretch_Energy-OPLS-2005>
35.3739051818848

> <r_mmod_Bend_Energy-OPLS-2005>
96.5383758544922

> <r_mmod_Torsional_Energy-OPLS-2005>
284.750427246094

> <r_mmod_Improper_Torsional_Energy-OPLS-2005>
7.34043502807617

> <r_mmod_Van_der_Waal_Energy-OPLS-2005>
143.621429443359

> <r_mmod_Electrostatic_Energy-OPLS-2005>
-507.415985107422

> <r_mmod_Solvation_Energy-OPLS-2005>
-258.560241699219

> <b_mmod_Minimization_Converged-OPLS-2005>
0

> <r_mmod_RMS_Derivative-OPLS-2005>
1.53511357307434

$$$$
60
                    3D
 Structure written by MMmdl.
149157  0  0  1  0            999 V2000
  -30.5851  -14.7007   20.4924 C   0  0  0  0  0  0
  -30.4483  -12.4307   19.4603 C   0  0  0  0  0  0
  -29.5136  -12.5161   18.2311 C   0  0  0  0  0  0
  -28.0371  -12.3433   18.6423 C   0  0  0  0  0  0
  -27.6527  -13.2183   19.8645 C   0  0  2  0  0  0
  -28.6987  -13.0859   20.9947 C   0  0  0  0  0  0
  -25.2552  -13.8162   20.5685 C   0  0  0  0  0  0
  -24.1818  -13.0425   20.9172 C   0  0  0  0  0  0
  -24.6395  -11.6900   20.8731 C   0  0  0  0  0  0
  -23.9064  -10.4286   21.0400 C   0  0  0  0  0  0
  -24.3616   -9.4204   21.9180 C   0  0  0  0  0  0
  -23.6290   -8.2242   22.0753 C   0  0  0  0  0  0
  -22.4272   -8.0281   21.3543 C   0  0  0  0  0  0
  -21.9905   -9.0253   20.4645 C   0  0  0  0  0  0
  -22.7235  -10.2131   20.3052 C   0  0  0  0  0  0
  -21.6853   -6.0734   22.5279 C   0  0  0  0  0  0
  -21.4015   -6.5638   23.8212 C   0  0  0  0  0  0
  -21.3658   -5.6790   24.9173 C   0  0  0  0  0  0
  -21.6044   -4.3053   24.7225 C   0  0  0  0  0  0
  -21.8819   -3.8145   23.4346 C   0  0  0  0  0  0
  -21.9193   -4.6961   22.3402 C   0  0  0  0  0  0
  -22.7843  -13.5221   21.1845 C   0  0  0  0  0  0
  -22.1661   -4.2147   21.0979 F   0  0  0  0  0  0
  -21.5628   -3.4537   25.7737 F   0  0  0  0  0  0
  -30.0088  -13.4539   20.4327 N   0  0  0  0  0  0
  -26.2988  -12.9348   20.3329 N   0  0  0  0  0  0
  -25.9328  -11.6501   20.5759 N   0  0  0  0  0  0
  -22.0490  -12.8219   22.0410 N   0  0  0  0  0  0
  -25.4250  -15.1884   20.4135 N   0  0  0  0  0  0
  -31.7397  -14.8915   20.0997 O   0  0  0  0  0  0
  -21.6637   -6.8877   21.4241 O   0  0  0  0  0  0
  -22.3522  -14.5527   20.6699 O   0  0  0  0  0  0
  -24.6284  -31.8567   23.2000 C   0  0  0  0  0  0
  -25.9117  -32.4764   23.8341 C   0  0  1  0  0  0
  -27.2278  -27.2901   20.1274 C   0  0  0  0  0  0
  -25.5919  -33.8566   24.2264 N   0  0  0  0  0  0
  -23.4252  -30.4784   21.5423 C   0  0  2  0  0  0
  -24.8750  -28.9271   20.1122 C   0  0  0  0  0  0
  -22.7491  -29.4604   22.4920 C   0  0  0  0  0  0
  -18.0289  -28.1387   22.8486 C   0  0  0  0  0  0
  -24.1488  -36.7291   23.2641 C   0  0  0  0  0  0
  -25.9686  -30.7773   21.3777 C   0  0  0  0  0  0
  -26.0440  -29.4006   20.7230 C   0  0  0  0  0  0
  -27.2240  -28.5928   20.7230 C   0  0  0  0  0  0
  -26.0396  -26.8786   19.4850 C   0  0  0  0  0  0
  -24.8755  -27.6716   19.4841 C   0  0  0  0  0  0
  -23.6436  -29.8105   20.1589 C   0  0  0  0  0  0
  -25.4113  -36.3076   24.0328 C   0  0  1  0  0  0
  -20.5891  -28.3693   23.1276 C   0  0  2  0  0  0
  -20.6777  -26.9413   22.5409 C   0  0  0  0  0  0
  -19.5751  -26.6383   21.5213 C   0  0  0  0  0  0
  -18.1932  -26.7928   22.1628 C   0  0  0  0  0  0
  -19.1542  -28.8857   23.2876 C   0  0  0  0  0  0
  -18.9463  -30.1457   23.8894 C   0  0  0  0  0  0
  -17.6463  -30.6588   24.0562 C   0  0  0  0  0  0
  -25.9049  -34.9445   23.5099 C   0  0  0  0  0  0
  -16.5354  -29.9086   23.6331 C   0  0  0  0  0  0
  -16.7275  -28.6503   23.0353 C   0  0  0  0  0  0
  -26.4494  -31.6587   25.0725 C   0  0  0  0  0  0
  -25.3720  -31.3734   26.1447 C   0  0  0  0  0  0
  -27.0347  -30.3008   24.6205 C   0  0  0  0  0  0
  -27.6044  -32.4334   25.7497 C   0  0  0  0  0  0
  -27.5576  -37.1803   24.8466 C   0  0  0  0  0  0
  -21.4200  -29.3042   22.3666 N   0  0  0  0  0  0
  -26.4292  -37.3770   23.9403 N   0  0  0  0  0  0
  -24.6927  -31.0550   22.0966 N   0  0  0  0  0  0
  -23.4199  -28.8146   23.3015 O   0  0  0  0  0  0
  -28.3256  -26.4069   20.1452 O   0  0  0  0  0  0
  -26.5625  -34.8917   22.4671 O   0  0  0  0  0  0
  -23.5439  -32.1379   23.7306 O   0  0  0  0  0  0
  -28.5232  -19.3347   20.9995 C   0  0  0  0  0  0
  -30.7596  -18.0137   20.1329 C   0  0  0  0  0  0
  -29.7535  -17.1940   20.7045 C   0  0  0  0  0  0
  -28.6192  -17.9215   21.1383 C   0  0  0  0  0  0
  -29.5679  -20.0946   20.4137 C   0  0  0  0  0  0
  -28.1053  -25.0318   20.4367 C   0  0  0  0  0  0
  -28.9390  -23.9574   20.1825 C   0  0  0  0  0  0
  -28.5805  -22.5386   20.5522 C   0  0  0  0  0  0
  -30.6642  -19.3830   19.9993 N   0  0  0  0  0  0
  -29.7506  -15.7262   20.8695 N   0  0  0  0  0  0
  -29.5108  -21.5654   20.2395 N   0  0  0  0  0  0
  -27.5146  -22.2574   21.1051 O   0  0  0  0  0  0
  -30.1168  -24.1803   19.5811 O   0  0  0  0  0  0
  -27.5883  -17.2397   21.6945 F   0  0  0  0  0  0
  -31.4861  -12.5764   19.1557 H   0  0  0  0  0  0
  -30.4053  -11.4376   19.9102 H   0  0  0  0  0  0
  -29.7872  -11.7583   17.4957 H   0  0  0  0  0  0
  -29.6442  -13.4809   17.7381 H   0  0  0  0  0  0
  -27.8823  -11.2903   18.8807 H   0  0  0  0  0  0
  -27.3813  -12.5628   17.7989 H   0  0  0  0  0  0
  -27.6645  -14.2513   19.5163 H   0  0  0  0  0  0
  -28.7252  -12.0632   21.3739 H   0  0  0  0  0  0
  -28.4329  -13.7103   21.8490 H   0  0  0  0  0  0
  -25.2763   -9.5679   22.4752 H   0  0  0  0  0  0
  -23.9997   -7.4633   22.7474 H   0  0  0  0  0  0
  -21.0834   -8.8773   19.8953 H   0  0  0  0  0  0
  -22.3693  -10.9670   19.6161 H   0  0  0  0  0  0
  -21.2010   -7.6147   23.9714 H   0  0  0  0  0  0
  -21.1478   -6.0521   25.9076 H   0  0  0  0  0  0
  -22.0600   -2.7607   23.2847 H   0  0  0  0  0  0
  -22.4106  -11.9878   22.4796 H   0  0  0  0  0  0
  -21.1113  -13.1252   22.2625 H   0  0  0  0  0  0
  -24.6665  -15.8448   20.5610 H   0  0  0  0  0  0
  -26.2930  -15.6417   20.1613 H   0  0  0  0  0  0
  -26.7185  -32.5427   23.1088 H   0  0  0  0  0  0
  -25.0052  -33.9704   25.0399 H   0  0  0  0  0  0
  -22.7205  -31.2996   21.3959 H   0  0  0  0  0  0
  -23.3742  -35.9634   23.3317 H   0  0  0  0  0  0
  -24.3575  -36.8899   22.2053 H   0  0  0  0  0  0
  -23.7254  -37.6502   23.6657 H   0  0  0  0  0  0
  -26.1040  -31.5381   20.6076 H   0  0  0  0  0  0
  -26.8472  -30.8279   22.0092 H   0  0  0  0  0  0
  -28.1210  -28.9494   21.2095 H   0  0  0  0  0  0
  -26.0019  -25.9166   18.9938 H   0  0  0  0  0  0
  -23.9817  -27.3042   18.9988 H   0  0  0  0  0  0
  -23.7655  -30.5859   19.4016 H   0  0  0  0  0  0
  -22.7635  -29.2409   19.8552 H   0  0  0  0  0  0
  -25.1297  -36.1929   25.0822 H   0  0  0  0  0  0
  -20.9982  -28.3270   24.1397 H   0  0  0  0  0  0
  -20.5676  -26.2302   23.3611 H   0  0  0  0  0  0
  -21.6645  -26.7438   22.1203 H   0  0  0  0  0  0
  -19.6911  -25.6293   21.1245 H   0  0  0  0  0  0
  -19.6687  -27.3191   20.6742 H   0  0  0  0  0  0
  -17.4199  -26.6670   21.4034 H   0  0  0  0  0  0
  -18.0336  -26.0074   22.9028 H   0  0  0  0  0  0
  -19.7938  -30.7274   24.2265 H   0  0  0  0  0  0
  -17.5016  -31.6269   24.5162 H   0  0  0  0  0  0
  -15.5354  -30.2988   23.7656 H   0  0  0  0  0  0
  -15.8675  -28.0820   22.7073 H   0  0  0  0  0  0
  -24.5890  -30.7091   25.7774 H   0  0  0  0  0  0
  -24.8919  -32.2905   26.4872 H   0  0  0  0  0  0
  -25.8038  -30.8908   27.0224 H   0  0  0  0  0  0
  -26.2935  -29.6750   24.1220 H   0  0  0  0  0  0
  -27.4024  -29.7275   25.4726 H   0  0  0  0  0  0
  -27.8811  -30.4288   23.9454 H   0  0  0  0  0  0
  -27.2643  -33.3633   26.2068 H   0  0  0  0  0  0
  -28.3855  -32.6899   25.0327 H   0  0  0  0  0  0
  -28.0713  -31.8468   26.5419 H   0  0  0  0  0  0
  -28.2604  -38.0089   24.7493 H   0  0  0  0  0  0
  -28.1061  -36.2619   24.6320 H   0  0  0  0  0  0
  -27.2289  -37.1485   25.8869 H   0  0  0  0  0  0
  -20.9384  -29.8765   21.6873 H   0  0  0  0  0  0
  -26.0173  -38.2848   24.1390 H   0  0  0  0  0  0
  -27.6233  -19.8139   21.3513 H   0  0  0  0  0  0
  -31.6726  -17.5736   19.7604 H   0  0  0  0  0  0
  -27.1505  -24.8820   20.9253 H   0  0  0  0  0  0
  -28.8776  -15.3804   21.2406 H   0  0  0  0  0  0
  -30.3237  -21.9666   19.7940 H   0  0  0  0  0  0
  -30.1714  -25.1150   19.4243 H   0  0  0  0  0  0
  1 25  1  0  0  0
  1 30  2  0  0  0
  1 80  1  0  0  0
  2  3  1  0  0  0
  2 25  1  0  0  0
  2 85  1  0  0  0
  2 86  1  0  0  0
  3  4  1  0  0  0
  3 87  1  0  0  0
  3 88  1  0  0  0
  4  5  1  0  0  0
  4 89  1  0  0  0
  4 90  1  0  0  0
  5  6  1  0  0  0
  5 26  1  0  0  0
  5 91  1  0  0  0
  6 25  1  0  0  0
  6 92  1  0  0  0
  6 93  1  0  0  0
  7  8  2  0  0  0
  7 26  1  0  0  0
  7 29  1  0  0  0
  8  9  1  0  0  0
  8 22  1  0  0  0
  9 10  1  0  0  0
  9 27  2  0  0  0
 10 11  2  0  0  0
 10 15  1  0  0  0
 11 12  1  0  0  0
 11 94  1  0  0  0
 12 13  2  0  0  0
 12 95  1  0  0  0
 13 14  1  0  0  0
 13 31  1  0  0  0
 14 15  2  0  0  0
 14 96  1  0  0  0
 15 97  1  0  0  0
 16 17  2  0  0  0
 16 21  1  0  0  0
 16 31  1  0  0  0
 17 18  1  0  0  0
 17 98  1  0  0  0
 18 19  2  0  0  0
 18 99  1  0  0  0
 19 20  1  0  0  0
 19 24  1  0  0  0
 20 21  2  0  0  0
 20100  1  0  0  0
 21 23  1  0  0  0
 22 28  1  0  0  0
 22 32  2  0  0  0
 26 27  1  0  0  0
 28101  1  0  0  0
 28102  1  0  0  0
 29103  1  0  0  0
 29104  1  0  0  0
 33 34  1  0  0  0
 33 66  1  0  0  0
 33 70  2  0  0  0
 34 36  1  0  0  0
 34 59  1  0  0  0
 34105  1  0  0  0
 35 44  2  0  0  0
 35 45  1  0  0  0
 35 68  1  0  0  0
 36 56  1  0  0  0
 36106  1  0  0  0
 37 39  1  0  0  0
 37 47  1  0  0  0
 37 66  1  0  0  0
 37107  1  0  0  0
 38 43  2  0  0  0
 38 46  1  0  0  0
 38 47  1  0  0  0
 39 64  1  0  0  0
 39 67  2  0  0  0
 40 52  1  0  0  0
 40 53  2  0  0  0
 40 58  1  0  0  0
 41108  1  0  0  0
 41109  1  0  0  0
 41110  1  0  0  0
 41 48  1  0  0  0
 42 43  1  0  0  0
 42 66  1  0  0  0
 42111  1  0  0  0
 42112  1  0  0  0
 43 44  1  0  0  0
 44113  1  0  0  0
 45 46  2  0  0  0
 45114  1  0  0  0
 46115  1  0  0  0
 47116  1  0  0  0
 47117  1  0  0  0
 48 56  1  0  0  0
 48 65  1  0  0  0
 48118  1  0  0  0
 49 50  1  0  0  0
 49 53  1  0  0  0
 49 64  1  0  0  0
 49119  1  0  0  0
 50 51  1  0  0  0
 50120  1  0  0  0
 50121  1  0  0  0
 51 52  1  0  0  0
 51122  1  0  0  0
 51123  1  0  0  0
 52124  1  0  0  0
 52125  1  0  0  0
 53 54  1  0  0  0
 54 55  2  0  0  0
 54126  1  0  0  0
 55 57  1  0  0  0
 55127  1  0  0  0
 56 69  2  0  0  0
 57 58  2  0  0  0
 57128  1  0  0  0
 58129  1  0  0  0
 59 60  1  0  0  0
 59 61  1  0  0  0
 59 62  1  0  0  0
 60130  1  0  0  0
 60131  1  0  0  0
 60132  1  0  0  0
 61133  1  0  0  0
 61134  1  0  0  0
 61135  1  0  0  0
 62136  1  0  0  0
 62137  1  0  0  0
 62138  1  0  0  0
 63 65  1  0  0  0
 63139  1  0  0  0
 63140  1  0  0  0
 63141  1  0  0  0
 64142  1  0  0  0
 65143  1  0  0  0
 68 76  1  0  0  0
 71 74  2  0  0  0
 71 75  1  0  0  0
 71144  1  0  0  0
 72 73  2  0  0  0
 72 79  1  0  0  0
 72145  1  0  0  0
 73 74  1  0  0  0
 73 80  1  0  0  0
 74 84  1  0  0  0
 75 79  2  0  0  0
 75 81  1  0  0  0
 76 77  2  0  0  0
 76146  1  0  0  0
 77 78  1  0  0  0
 77 83  1  0  0  0
 78 81  1  0  0  0
 78 82  2  0  0  0
 80147  1  0  0  0
 81148  1  0  0  0
 83149  1  0  0  0
M  ISO  4   1 100  68 101  76 101  80 100
M  END
> <chiral flag>
0

> <version>
0

> <s_m_source_file>
/data/baiqing/PycharmProjects/Reinvent-master-3.2/result/LINK_invent/BTK/process_docking_weight1_custom_product_contain_oxygen_bond_distance_aromatic_linkinvent_7_9_3/rearranged_h_0175.sdf

> <i_m_source_file_index>
60

> <r_mmod_Potential_Energy-OPLS-2005>
-250.901824951172

> <r_mmod_Stretch_Energy-OPLS-2005>
92.4531021118164

> <r_mmod_Bend_Energy-OPLS-2005>
156.633773803711

> <r_mmod_Torsional_Energy-OPLS-2005>
205.780883789062

> <r_mmod_Improper_Torsional_Energy-OPLS-2005>
3.50378489494324

> <r_mmod_Van_der_Waal_Energy-OPLS-2005>
147.157516479492

> <r_mmod_Electrostatic_Energy-OPLS-2005>
-703.684387207031

> <r_mmod_Solvation_Energy-OPLS-2005>
-220.266952514648

> <b_mmod_Minimization_Converged-OPLS-2005>
0

> <r_mmod_RMS_Derivative-OPLS-2005>
0.283267915248871

$$$$
61
                    3D
 Structure written by MMmdl.
160168  0  0  1  0            999 V2000
  -30.5789  -14.6939   20.4643 C   0  0  0  0  0  0
  -30.4548  -12.4179   19.4595 C   0  0  0  0  0  0
  -29.5155  -12.4855   18.2316 C   0  0  0  0  0  0
  -28.0396  -12.3134   18.6501 C   0  0  0  0  0  0
  -27.6505  -13.2092   19.8540 C   0  0  2  0  0  0
  -28.6981  -13.0843   20.9840 C   0  0  0  0  0  0
  -25.2577  -13.8128   20.5677 C   0  0  0  0  0  0
  -24.1853  -13.0442   20.9251 C   0  0  0  0  0  0
  -24.6396  -11.6902   20.8793 C   0  0  0  0  0  0
  -23.9076  -10.4295   21.0441 C   0  0  0  0  0  0
  -24.3619   -9.4188   21.9200 C   0  0  0  0  0  0
  -23.6290   -8.2225   22.0752 C   0  0  0  0  0  0
  -22.4265   -8.0284   21.3554 C   0  0  0  0  0  0
  -21.9920   -9.0268   20.4658 C   0  0  0  0  0  0
  -22.7264  -10.2138   20.3076 C   0  0  0  0  0  0
  -21.6846   -6.0739   22.5281 C   0  0  0  0  0  0
  -21.4008   -6.5647   23.8211 C   0  0  0  0  0  0
  -21.3660   -5.6796   24.9181 C   0  0  0  0  0  0
  -21.6033   -4.3052   24.7228 C   0  0  0  0  0  0
  -21.8824   -3.8158   23.4348 C   0  0  0  0  0  0
  -21.9189   -4.6974   22.3408 C   0  0  0  0  0  0
  -22.7876  -13.5241   21.1904 C   0  0  0  0  0  0
  -22.1665   -4.2169   21.0989 F   0  0  0  0  0  0
  -21.5620   -3.4532   25.7731 F   0  0  0  0  0  0
  -30.0114  -13.4454   20.4190 N   0  0  0  0  0  0
  -26.2983  -12.9313   20.3273 N   0  0  0  0  0  0
  -25.9319  -11.6484   20.5774 N   0  0  0  0  0  0
  -22.0521  -12.8224   22.0440 N   0  0  0  0  0  0
  -25.4297  -15.1830   20.3984 N   0  0  0  0  0  0
  -31.7569  -14.8886   20.1494 O   0  0  0  0  0  0
  -21.6635   -6.8878   21.4241 O   0  0  0  0  0  0
  -22.3584  -14.5578   20.6762 O   0  0  0  0  0  0
  -24.6284  -31.8540   23.1970 C   0  0  0  0  0  0
  -25.9126  -32.4715   23.8298 C   0  0  1  0  0  0
  -27.2455  -27.3043   20.1231 C   0  0  0  0  0  0
  -25.5929  -33.8513   24.2218 N   0  0  0  0  0  0
  -23.4222  -30.4748   21.5430 C   0  0  2  0  0  0
  -24.8678  -28.9097   20.1205 C   0  0  0  0  0  0
  -22.7461  -29.4622   22.4955 C   0  0  0  0  0  0
  -18.0295  -28.1402   22.8492 C   0  0  0  0  0  0
  -24.1509  -36.7269   23.2635 C   0  0  0  0  0  0
  -25.9575  -30.7849   21.3590 C   0  0  0  0  0  0
  -26.0363  -29.4061   20.7072 C   0  0  0  0  0  0
  -27.2246  -28.6165   20.6937 C   0  0  0  0  0  0
  -26.0496  -26.8525   19.5227 C   0  0  0  0  0  0
  -24.8731  -27.6346   19.5268 C   0  0  0  0  0  0
  -23.6357  -29.7948   20.1651 C   0  0  0  0  0  0
  -25.4125  -36.3022   24.0316 C   0  0  1  0  0  0
  -20.5883  -28.3716   23.1285 C   0  0  2  0  0  0
  -20.6754  -26.9435   22.5436 C   0  0  0  0  0  0
  -19.5740  -26.6408   21.5232 C   0  0  0  0  0  0
  -18.1921  -26.7944   22.1635 C   0  0  0  0  0  0
  -19.1539  -28.8879   23.2891 C   0  0  0  0  0  0
  -18.9476  -30.1484   23.8908 C   0  0  0  0  0  0
  -17.6470  -30.6601   24.0579 C   0  0  0  0  0  0
  -25.9065  -34.9406   23.5066 C   0  0  0  0  0  0
  -16.5368  -29.9093   23.6332 C   0  0  0  0  0  0
  -16.7281  -28.6519   23.0334 C   0  0  0  0  0  0
  -26.4553  -31.6488   25.0631 C   0  0  0  0  0  0
  -25.3822  -31.3606   26.1387 C   0  0  0  0  0  0
  -27.0375  -30.2909   24.6025 C   0  0  0  0  0  0
  -27.6118  -32.4196   25.7417 C   0  0  0  0  0  0
  -27.5580  -37.1780   24.8477 C   0  0  0  0  0  0
  -21.4174  -29.3050   22.3661 N   0  0  0  0  0  0
  -26.4291  -37.3722   23.9423 N   0  0  0  0  0  0
  -24.6889  -31.0538   22.0920 N   0  0  0  0  0  0
  -23.4168  -28.8211   23.3092 O   0  0  0  0  0  0
  -28.4074  -26.5125   20.1783 O   0  0  0  0  0  0
  -26.5651  -34.8894   22.4651 O   0  0  0  0  0  0
  -23.5434  -32.1382   23.7289 O   0  0  0  0  0  0
  -30.6670  -18.1036   20.8258 C   0  0  0  0  0  0
  -29.6975  -17.1613   20.3918 C   0  0  0  0  0  0
  -28.5736  -17.7421   19.7516 C   0  0  0  0  0  0
  -28.4438  -19.1522   19.5809 C   0  0  0  0  0  0
  -29.4471  -20.0217   20.0734 C   0  0  0  0  0  0
  -28.7115  -22.4510   21.0300 C   0  0  0  0  0  0
  -30.7333  -22.1623   19.4722 C   0  0  0  0  0  0
  -28.5748  -24.6052   22.3396 C   0  0  0  0  0  0
  -26.5917  -23.8426   21.0236 C   0  0  0  0  0  0
  -28.4900  -25.0540   19.8609 C   0  0  0  0  0  0
  -29.3498  -21.6029   19.8597 C   0  0  1  0  0  0
  -28.1322  -23.9681   20.9929 C   0  0  0  0  0  0
  -30.5464  -19.4665   20.6832 N   0  0  0  0  0  0
  -29.6861  -15.7143   20.6716 N   0  0  0  0  0  0
  -28.5940  -21.8528   22.1064 O   0  0  0  0  0  0
  -27.5861  -16.9253   19.3052 F   0  0  0  0  0  0
  -27.3533  -19.6644   18.9585 F   0  0  0  0  0  0
  -31.4882  -12.5726   19.1482 H   0  0  0  0  0  0
  -30.4260  -11.4293   19.9242 H   0  0  0  0  0  0
  -29.7912  -11.7115   17.5116 H   0  0  0  0  0  0
  -29.6396  -13.4413   17.7192 H   0  0  0  0  0  0
  -27.8992  -11.2655   18.9192 H   0  0  0  0  0  0
  -27.3812  -12.5020   17.8015 H   0  0  0  0  0  0
  -27.6552  -14.2350   19.4838 H   0  0  0  0  0  0
  -28.7189  -12.0663   21.3755 H   0  0  0  0  0  0
  -28.4340  -13.7141   21.8362 H   0  0  0  0  0  0
  -25.2740   -9.5655   22.4814 H   0  0  0  0  0  0
  -23.9992   -7.4603   22.7436 H   0  0  0  0  0  0
  -21.0866   -8.8821   19.8943 H   0  0  0  0  0  0
  -22.3732  -10.9720   19.6209 H   0  0  0  0  0  0
  -21.2008   -7.6152   23.9736 H   0  0  0  0  0  0
  -21.1472   -6.0518   25.9084 H   0  0  0  0  0  0
  -22.0600   -2.7628   23.2846 H   0  0  0  0  0  0
  -22.4124  -11.9862   22.4814 H   0  0  0  0  0  0
  -21.1152  -13.1279   22.2661 H   0  0  0  0  0  0
  -24.6494  -15.8254   20.4802 H   0  0  0  0  0  0
  -26.2305  -15.6064   19.9454 H   0  0  0  0  0  0
  -26.7159  -32.5373   23.1019 H   0  0  0  0  0  0
  -24.9967  -33.9635   25.0280 H   0  0  0  0  0  0
  -22.7192  -31.2971   21.3935 H   0  0  0  0  0  0
  -23.3718  -35.9644   23.3270 H   0  0  0  0  0  0
  -24.3637  -36.8906   22.2055 H   0  0  0  0  0  0
  -23.7327  -37.6496   23.6677 H   0  0  0  0  0  0
  -26.0742  -31.5440   20.5847 H   0  0  0  0  0  0
  -26.8406  -30.8455   21.9809 H   0  0  0  0  0  0
  -28.1255  -29.0080   21.1463 H   0  0  0  0  0  0
  -25.9952  -25.8753   19.0672 H   0  0  0  0  0  0
  -23.9688  -27.2338   19.0905 H   0  0  0  0  0  0
  -23.7589  -30.5671   19.4069 H   0  0  0  0  0  0
  -22.7506  -29.2311   19.8639 H   0  0  0  0  0  0
  -25.1294  -36.1861   25.0795 H   0  0  0  0  0  0
  -20.9997  -28.3324   24.1402 H   0  0  0  0  0  0
  -20.5647  -26.2349   23.3654 H   0  0  0  0  0  0
  -21.6618  -26.7427   22.1265 H   0  0  0  0  0  0
  -19.6910  -25.6336   21.1232 H   0  0  0  0  0  0
  -19.6666  -27.3227   20.6767 H   0  0  0  0  0  0
  -17.4201  -26.6737   21.4026 H   0  0  0  0  0  0
  -18.0306  -26.0085   22.9017 H   0  0  0  0  0  0
  -19.7962  -30.7299   24.2254 H   0  0  0  0  0  0
  -17.5032  -31.6263   24.5204 H   0  0  0  0  0  0
  -15.5373  -30.2989   23.7641 H   0  0  0  0  0  0
  -15.8693  -28.0839   22.6996 H   0  0  0  0  0  0
  -24.6094  -30.6813   25.7795 H   0  0  0  0  0  0
  -24.8896  -32.2715   26.4757 H   0  0  0  0  0  0
  -25.8228  -30.8917   27.0188 H   0  0  0  0  0  0
  -26.2893  -29.6660   24.1129 H   0  0  0  0  0  0
  -27.4193  -29.7172   25.4484 H   0  0  0  0  0  0
  -27.8711  -30.4180   23.9120 H   0  0  0  0  0  0
  -27.2758  -33.3528   26.1943 H   0  0  0  0  0  0
  -28.3980  -32.6678   25.0274 H   0  0  0  0  0  0
  -28.0705  -31.8311   26.5375 H   0  0  0  0  0  0
  -28.2570  -38.0092   24.7458 H   0  0  0  0  0  0
  -28.1091  -36.2610   24.6333 H   0  0  0  0  0  0
  -27.2299  -37.1440   25.8882 H   0  0  0  0  0  0
  -20.9387  -29.8718   21.6789 H   0  0  0  0  0  0
  -26.0141  -38.2785   24.1415 H   0  0  0  0  0  0
  -31.5488  -17.7744   21.3584 H   0  0  0  0  0  0
  -30.6868  -23.1877   19.1135 H   0  0  0  0  0  0
  -31.1874  -21.5748   18.6765 H   0  0  0  0  0  0
  -31.4249  -22.1375   20.3144 H   0  0  0  0  0  0
  -29.6613  -24.7096   22.3941 H   0  0  0  0  0  0
  -28.1530  -25.5971   22.4821 H   0  0  0  0  0  0
  -28.2435  -24.0275   23.2040 H   0  0  0  0  0  0
  -26.2381  -23.0541   21.6908 H   0  0  0  0  0  0
  -26.1987  -23.6243   20.0314 H   0  0  0  0  0  0
  -26.1362  -24.7688   21.3726 H   0  0  0  0  0  0
  -27.9574  -24.8405   18.9355 H   0  0  0  0  0  0
  -29.5346  -24.9208   19.5958 H   0  0  0  0  0  0
  -28.6947  -21.7517   18.9999 H   0  0  0  0  0  0
  -28.7553  -15.3467   20.8041 H   0  0  0  0  0  0
  1 25  1  0  0  0
  1 30  2  0  0  0
  1 84  1  0  0  0
  2  3  1  0  0  0
  2 25  1  0  0  0
  2 88  1  0  0  0
  2 89  1  0  0  0
  3  4  1  0  0  0
  3 90  1  0  0  0
  3 91  1  0  0  0
  4  5  1  0  0  0
  4 92  1  0  0  0
  4 93  1  0  0  0
  5  6  1  0  0  0
  5 26  1  0  0  0
  5 94  1  0  0  0
  6 25  1  0  0  0
  6 95  1  0  0  0
  6 96  1  0  0  0
  7  8  2  0  0  0
  7 26  1  0  0  0
  7 29  1  0  0  0
  8  9  1  0  0  0
  8 22  1  0  0  0
  9 10  1  0  0  0
  9 27  2  0  0  0
 10 11  2  0  0  0
 10 15  1  0  0  0
 11 12  1  0  0  0
 11 97  1  0  0  0
 12 13  2  0  0  0
 12 98  1  0  0  0
 13 14  1  0  0  0
 13 31  1  0  0  0
 14 15  2  0  0  0
 14 99  1  0  0  0
 15100  1  0  0  0
 16 17  2  0  0  0
 16 21  1  0  0  0
 16 31  1  0  0  0
 17 18  1  0  0  0
 17101  1  0  0  0
 18 19  2  0  0  0
 18102  1  0  0  0
 19 20  1  0  0  0
 19 24  1  0  0  0
 20 21  2  0  0  0
 20103  1  0  0  0
 21 23  1  0  0  0
 22 28  1  0  0  0
 22 32  2  0  0  0
 26 27  1  0  0  0
 28104  1  0  0  0
 28105  1  0  0  0
 29106  1  0  0  0
 29107  1  0  0  0
 33 34  1  0  0  0
 33 66  1  0  0  0
 33 70  2  0  0  0
 34 36  1  0  0  0
 34 59  1  0  0  0
 34108  1  0  0  0
 35 44  2  0  0  0
 35 45  1  0  0  0
 35 68  1  0  0  0
 36 56  1  0  0  0
 36109  1  0  0  0
 37 39  1  0  0  0
 37 47  1  0  0  0
 37 66  1  0  0  0
 37110  1  0  0  0
 38 43  2  0  0  0
 38 46  1  0  0  0
 38 47  1  0  0  0
 39 64  1  0  0  0
 39 67  2  0  0  0
 40 52  1  0  0  0
 40 53  2  0  0  0
 40 58  1  0  0  0
 41111  1  0  0  0
 41112  1  0  0  0
 41113  1  0  0  0
 41 48  1  0  0  0
 42 43  1  0  0  0
 42 66  1  0  0  0
 42114  1  0  0  0
 42115  1  0  0  0
 43 44  1  0  0  0
 44116  1  0  0  0
 45 46  2  0  0  0
 45117  1  0  0  0
 46118  1  0  0  0
 47119  1  0  0  0
 47120  1  0  0  0
 48 56  1  0  0  0
 48 65  1  0  0  0
 48121  1  0  0  0
 49 50  1  0  0  0
 49 53  1  0  0  0
 49 64  1  0  0  0
 49122  1  0  0  0
 50 51  1  0  0  0
 50123  1  0  0  0
 50124  1  0  0  0
 51 52  1  0  0  0
 51125  1  0  0  0
 51126  1  0  0  0
 52127  1  0  0  0
 52128  1  0  0  0
 53 54  1  0  0  0
 54 55  2  0  0  0
 54129  1  0  0  0
 55 57  1  0  0  0
 55130  1  0  0  0
 56 69  2  0  0  0
 57 58  2  0  0  0
 57131  1  0  0  0
 58132  1  0  0  0
 59 60  1  0  0  0
 59 61  1  0  0  0
 59 62  1  0  0  0
 60133  1  0  0  0
 60134  1  0  0  0
 60135  1  0  0  0
 61136  1  0  0  0
 61137  1  0  0  0
 61138  1  0  0  0
 62139  1  0  0  0
 62140  1  0  0  0
 62141  1  0  0  0
 63 65  1  0  0  0
 63142  1  0  0  0
 63143  1  0  0  0
 63144  1  0  0  0
 64145  1  0  0  0
 65146  1  0  0  0
 68 80  1  0  0  0
 71 72  2  0  0  0
 71 83  1  0  0  0
 71147  1  0  0  0
 72 73  1  0  0  0
 72 84  1  0  0  0
 73 74  2  0  0  0
 73 86  1  0  0  0
 74 75  1  0  0  0
 74 87  1  0  0  0
 75 81  1  0  0  0
 75 83  2  0  0  0
 76 81  1  0  0  0
 76 82  1  0  0  0
 76 85  2  0  0  0
 77148  1  0  0  0
 77149  1  0  0  0
 77150  1  0  0  0
 77 81  1  0  0  0
 78151  1  0  0  0
 78152  1  0  0  0
 78153  1  0  0  0
 78 82  1  0  0  0
 79 82  1  0  0  0
 79154  1  0  0  0
 79155  1  0  0  0
 79156  1  0  0  0
 80 82  1  0  0  0
 80157  1  0  0  0
 80158  1  0  0  0
 81159  1  0  0  0
 84160  1  0  0  0
M  ISO  4   1 100  68 101  80 101  84 100
M  END
> <chiral flag>
0

> <version>
0

> <s_m_source_file>
/data/baiqing/PycharmProjects/Reinvent-master-3.2/result/LINK_invent/BTK/process_docking_weight1_custom_product_contain_oxygen_bond_distance_aromatic_linkinvent_7_9_3/rearranged_h_0175.sdf

> <i_m_source_file_index>
61

> <r_mmod_Potential_Energy-OPLS-2005>
49.9024658203125

> <r_mmod_Stretch_Energy-OPLS-2005>
104.074981689453

> <r_mmod_Bend_Energy-OPLS-2005>
196.925582885742

> <r_mmod_Torsional_Energy-OPLS-2005>
249.033477783203

> <r_mmod_Improper_Torsional_Energy-OPLS-2005>
7.55287027359009

> <r_mmod_Van_der_Waal_Energy-OPLS-2005>
140.815048217773

> <r_mmod_Electrostatic_Energy-OPLS-2005>
-497.982452392578

> <r_mmod_Solvation_Energy-OPLS-2005>
-212.582855224609

> <b_mmod_Minimization_Converged-OPLS-2005>
0

> <r_mmod_RMS_Derivative-OPLS-2005>
4.80422925949097

$$$$
62
                    3D
 Structure written by MMmdl.
149157  0  0  1  0            999 V2000
  -30.6627  -14.5401   20.5222 C   0  0  0  0  0  0
  -30.4209  -12.3376   19.4263 C   0  0  0  0  0  0
  -29.4933  -12.5236   18.2057 C   0  0  0  0  0  0
  -28.0157  -12.3609   18.6152 C   0  0  0  0  0  0
  -27.6562  -13.2086   19.8650 C   0  0  2  0  0  0
  -28.7002  -13.0167   20.9893 C   0  0  0  0  0  0
  -25.2567  -13.8136   20.5669 C   0  0  0  0  0  0
  -24.1807  -13.0421   20.9159 C   0  0  0  0  0  0
  -24.6364  -11.6894   20.8712 C   0  0  0  0  0  0
  -23.9030  -10.4278   21.0376 C   0  0  0  0  0  0
  -24.3582   -9.4214   21.9168 C   0  0  0  0  0  0
  -23.6261   -8.2235   22.0738 C   0  0  0  0  0  0
  -22.4252   -8.0251   21.3535 C   0  0  0  0  0  0
  -21.9879   -9.0233   20.4640 C   0  0  0  0  0  0
  -22.7189  -10.2117   20.3041 C   0  0  0  0  0  0
  -21.6859   -6.0720   22.5273 C   0  0  0  0  0  0
  -21.4024   -6.5635   23.8204 C   0  0  0  0  0  0
  -21.3671   -5.6788   24.9166 C   0  0  0  0  0  0
  -21.6037   -4.3037   24.7219 C   0  0  0  0  0  0
  -21.8812   -3.8139   23.4339 C   0  0  0  0  0  0
  -21.9204   -4.6957   22.3393 C   0  0  0  0  0  0
  -22.7823  -13.5238   21.1810 C   0  0  0  0  0  0
  -22.1665   -4.2143   21.0965 F   0  0  0  0  0  0
  -21.5651   -3.4518   25.7737 F   0  0  0  0  0  0
  -30.0265  -13.3359   20.4346 N   0  0  0  0  0  0
  -26.2990  -12.9321   20.3307 N   0  0  0  0  0  0
  -25.9290  -11.6465   20.5699 N   0  0  0  0  0  0
  -22.0464  -12.8270   22.0369 N   0  0  0  0  0  0
  -25.4330  -15.1850   20.4118 N   0  0  0  0  0  0
  -31.8176  -14.6983   20.1126 O   0  0  0  0  0  0
  -21.6611   -6.8859   21.4223 O   0  0  0  0  0  0
  -22.3538  -14.5566   20.6674 O   0  0  0  0  0  0
  -24.6170  -31.8689   23.2048 C   0  0  0  0  0  0
  -25.9052  -32.4822   23.8380 C   0  0  1  0  0  0
  -27.2330  -27.4189   20.1090 C   0  0  0  0  0  0
  -25.5909  -33.8616   24.2322 N   0  0  0  0  0  0
  -23.4064  -30.4883   21.5474 C   0  0  2  0  0  0
  -24.8534  -28.9505   20.1134 C   0  0  0  0  0  0
  -22.7452  -29.4644   22.4991 C   0  0  0  0  0  0
  -18.0296  -28.1363   22.8503 C   0  0  0  0  0  0
  -24.1497  -36.7316   23.2632 C   0  0  0  0  0  0
  -25.9358  -30.8283   21.3602 C   0  0  0  0  0  0
  -26.0138  -29.4585   20.7125 C   0  0  0  0  0  0
  -27.2091  -28.7012   20.7067 C   0  0  0  0  0  0
  -26.0620  -26.9293   19.4964 C   0  0  0  0  0  0
  -24.8739  -27.6841   19.5004 C   0  0  0  0  0  0
  -23.6150  -29.8181   20.1620 C   0  0  0  0  0  0
  -25.4115  -36.3112   24.0344 C   0  0  1  0  0  0
  -20.5884  -28.3642   23.1347 C   0  0  2  0  0  0
  -20.6769  -26.9380   22.5422 C   0  0  0  0  0  0
  -19.5731  -26.6384   21.5224 C   0  0  0  0  0  0
  -18.1921  -26.7915   22.1638 C   0  0  0  0  0  0
  -19.1543  -28.8830   23.2918 C   0  0  0  0  0  0
  -18.9456  -30.1437   23.8913 C   0  0  0  0  0  0
  -17.6454  -30.6565   24.0576 C   0  0  0  0  0  0
  -25.9055  -34.9480   23.5134 C   0  0  0  0  0  0
  -16.5349  -29.9066   23.6313 C   0  0  0  0  0  0
  -16.7292  -28.6486   23.0338 C   0  0  0  0  0  0
  -26.4455  -31.6602   25.0720 C   0  0  0  0  0  0
  -25.3720  -31.3688   26.1467 C   0  0  0  0  0  0
  -27.0270  -30.3063   24.6053 C   0  0  0  0  0  0
  -27.6051  -32.4310   25.7468 C   0  0  0  0  0  0
  -27.5616  -37.1782   24.8444 C   0  0  0  0  0  0
  -21.4177  -29.3009   22.3754 N   0  0  0  0  0  0
  -26.4284  -37.3816   23.9440 N   0  0  0  0  0  0
  -24.6711  -31.0790   22.0945 N   0  0  0  0  0  0
  -23.4251  -28.8213   23.3033 O   0  0  0  0  0  0
  -28.3615  -26.6277   20.1211 O   0  0  0  0  0  0
  -26.5616  -34.8938   22.4694 O   0  0  0  0  0  0
  -23.5362  -32.1430   23.7462 O   0  0  0  0  0  0
  -29.5325  -19.2341   20.8925 C   0  0  0  0  0  0
  -30.5350  -19.2724   19.9528 C   0  0  0  0  0  0
  -30.0628  -16.9792   20.6822 C   0  0  0  0  0  0
  -28.6873  -24.1511   20.4576 C   0  0  0  0  0  0
  -28.4745  -22.8896   21.3764 C   0  0  0  0  0  0
  -28.7737  -20.4032   21.5212 C   0  0  0  0  0  0
  -28.2673  -25.5219   21.0529 C   0  0  0  0  0  0
  -29.2710  -17.8946   21.2840 N   0  0  0  0  0  0
  -29.9024  -15.5761   20.9535 N   0  0  0  0  0  0
  -28.8912  -21.7153   20.8502 N   0  0  0  0  0  0
  -29.1625  -24.0570   19.3187 O   0  0  0  0  0  0
  -27.9613  -22.9723   22.4969 O   0  0  0  0  0  0
  -30.9986  -20.4147   19.3840 F   0  0  0  0  0  0
  -31.1982  -17.7112   19.5379 S   0  0  0  0  0  0
  -31.4659  -12.4370   19.1283 H   0  0  0  0  0  0
  -30.3156  -11.3299   19.8309 H   0  0  0  0  0  0
  -29.7470  -11.8077   17.4225 H   0  0  0  0  0  0
  -29.6422  -13.5138   17.7710 H   0  0  0  0  0  0
  -27.8355  -11.3051   18.8169 H   0  0  0  0  0  0
  -27.3622  -12.6291   17.7828 H   0  0  0  0  0  0
  -27.6906  -14.2512   19.5480 H   0  0  0  0  0  0
  -28.6896  -11.9871   21.3480 H   0  0  0  0  0  0
  -28.4540  -13.6322   21.8561 H   0  0  0  0  0  0
  -25.2722   -9.5732   22.4729 H   0  0  0  0  0  0
  -24.0018   -7.4640   22.7435 H   0  0  0  0  0  0
  -21.0838   -8.8724   19.8933 H   0  0  0  0  0  0
  -22.3627  -10.9652   19.6148 H   0  0  0  0  0  0
  -21.1991   -7.6144   23.9719 H   0  0  0  0  0  0
  -21.1518   -6.0501   25.9083 H   0  0  0  0  0  0
  -22.0591   -2.7603   23.2810 H   0  0  0  0  0  0
  -22.4081  -11.9949   22.4795 H   0  0  0  0  0  0
  -21.1061  -13.1300   22.2524 H   0  0  0  0  0  0
  -24.6648  -15.8398   20.5106 H   0  0  0  0  0  0
  -26.2941  -15.6279   20.1190 H   0  0  0  0  0  0
  -26.7143  -32.5525   23.1170 H   0  0  0  0  0  0
  -25.0093  -33.9770   25.0490 H   0  0  0  0  0  0
  -22.6932  -31.3027   21.4086 H   0  0  0  0  0  0
  -23.3791  -35.9609   23.3220 H   0  0  0  0  0  0
  -24.3638  -36.9007   22.2067 H   0  0  0  0  0  0
  -23.7191  -37.6477   23.6686 H   0  0  0  0  0  0
  -26.0559  -31.5910   20.5900 H   0  0  0  0  0  0
  -26.8219  -30.8835   21.9788 H   0  0  0  0  0  0
  -28.1017  -29.0868   21.1787 H   0  0  0  0  0  0
  -26.0686  -25.9574   19.0241 H   0  0  0  0  0  0
  -23.9859  -27.2849   19.0297 H   0  0  0  0  0  0
  -23.7197  -30.5908   19.3991 H   0  0  0  0  0  0
  -22.7379  -29.2373   19.8708 H   0  0  0  0  0  0
  -25.1274  -36.1966   25.0830 H   0  0  0  0  0  0
  -20.9990  -28.3163   24.1466 H   0  0  0  0  0  0
  -20.5677  -26.2233   23.3600 H   0  0  0  0  0  0
  -21.6638  -26.7402   22.1209 H   0  0  0  0  0  0
  -19.6872  -25.6304   21.1234 H   0  0  0  0  0  0
  -19.6671  -27.3220   20.6772 H   0  0  0  0  0  0
  -17.4198  -26.6718   21.4026 H   0  0  0  0  0  0
  -18.0279  -26.0054   22.9021 H   0  0  0  0  0  0
  -19.7924  -30.7260   24.2285 H   0  0  0  0  0  0
  -17.4994  -31.6237   24.5181 H   0  0  0  0  0  0
  -15.5340  -30.2962   23.7601 H   0  0  0  0  0  0
  -15.8707  -28.0811   22.7008 H   0  0  0  0  0  0
  -24.5881  -30.7054   25.7789 H   0  0  0  0  0  0
  -24.8908  -32.2824   26.4962 H   0  0  0  0  0  0
  -25.8073  -30.8812   27.0198 H   0  0  0  0  0  0
  -26.2772  -29.6844   24.1146 H   0  0  0  0  0  0
  -27.4121  -29.7277   25.4459 H   0  0  0  0  0  0
  -27.8582  -30.4433   23.9135 H   0  0  0  0  0  0
  -27.2704  -33.3622   26.2048 H   0  0  0  0  0  0
  -28.3835  -32.6848   25.0260 H   0  0  0  0  0  0
  -28.0738  -31.8422   26.5365 H   0  0  0  0  0  0
  -28.2527  -38.0185   24.7658 H   0  0  0  0  0  0
  -28.1213  -36.2732   24.6039 H   0  0  0  0  0  0
  -27.2378  -37.1162   25.8847 H   0  0  0  0  0  0
  -20.9337  -29.8760   21.7008 H   0  0  0  0  0  0
  -26.0179  -38.2877   24.1492 H   0  0  0  0  0  0
  -29.1115  -20.5283   22.5523 H   0  0  0  0  0  0
  -27.7123  -20.1575   21.6002 H   0  0  0  0  0  0
  -28.9107  -25.7397   21.9063 H   0  0  0  0  0  0
  -27.2521  -25.4249   21.4407 H   0  0  0  0  0  0
  -29.0210  -15.3235   21.3670 H   0  0  0  0  0  0
  -29.3234  -21.7484   19.9350 H   0  0  0  0  0  0
  1 25  1  0  0  0
  1 30  2  0  0  0
  1 79  1  0  0  0
  2  3  1  0  0  0
  2 25  1  0  0  0
  2 85  1  0  0  0
  2 86  1  0  0  0
  3  4  1  0  0  0
  3 87  1  0  0  0
  3 88  1  0  0  0
  4  5  1  0  0  0
  4 89  1  0  0  0
  4 90  1  0  0  0
  5  6  1  0  0  0
  5 26  1  0  0  0
  5 91  1  0  0  0
  6 25  1  0  0  0
  6 92  1  0  0  0
  6 93  1  0  0  0
  7  8  2  0  0  0
  7 26  1  0  0  0
  7 29  1  0  0  0
  8  9  1  0  0  0
  8 22  1  0  0  0
  9 10  1  0  0  0
  9 27  2  0  0  0
 10 11  2  0  0  0
 10 15  1  0  0  0
 11 12  1  0  0  0
 11 94  1  0  0  0
 12 13  2  0  0  0
 12 95  1  0  0  0
 13 14  1  0  0  0
 13 31  1  0  0  0
 14 15  2  0  0  0
 14 96  1  0  0  0
 15 97  1  0  0  0
 16 17  2  0  0  0
 16 21  1  0  0  0
 16 31  1  0  0  0
 17 18  1  0  0  0
 17 98  1  0  0  0
 18 19  2  0  0  0
 18 99  1  0  0  0
 19 20  1  0  0  0
 19 24  1  0  0  0
 20 21  2  0  0  0
 20100  1  0  0  0
 21 23  1  0  0  0
 22 28  1  0  0  0
 22 32  2  0  0  0
 26 27  1  0  0  0
 28101  1  0  0  0
 28102  1  0  0  0
 29103  1  0  0  0
 29104  1  0  0  0
 33 34  1  0  0  0
 33 66  1  0  0  0
 33 70  2  0  0  0
 34 36  1  0  0  0
 34 59  1  0  0  0
 34105  1  0  0  0
 35 44  2  0  0  0
 35 45  1  0  0  0
 35 68  1  0  0  0
 36 56  1  0  0  0
 36106  1  0  0  0
 37 39  1  0  0  0
 37 47  1  0  0  0
 37 66  1  0  0  0
 37107  1  0  0  0
 38 43  2  0  0  0
 38 46  1  0  0  0
 38 47  1  0  0  0
 39 64  1  0  0  0
 39 67  2  0  0  0
 40 52  1  0  0  0
 40 53  2  0  0  0
 40 58  1  0  0  0
 41108  1  0  0  0
 41109  1  0  0  0
 41110  1  0  0  0
 41 48  1  0  0  0
 42 43  1  0  0  0
 42 66  1  0  0  0
 42111  1  0  0  0
 42112  1  0  0  0
 43 44  1  0  0  0
 44113  1  0  0  0
 45 46  2  0  0  0
 45114  1  0  0  0
 46115  1  0  0  0
 47116  1  0  0  0
 47117  1  0  0  0
 48 56  1  0  0  0
 48 65  1  0  0  0
 48118  1  0  0  0
 49 50  1  0  0  0
 49 53  1  0  0  0
 49 64  1  0  0  0
 49119  1  0  0  0
 50 51  1  0  0  0
 50120  1  0  0  0
 50121  1  0  0  0
 51 52  1  0  0  0
 51122  1  0  0  0
 51123  1  0  0  0
 52124  1  0  0  0
 52125  1  0  0  0
 53 54  1  0  0  0
 54 55  2  0  0  0
 54126  1  0  0  0
 55 57  1  0  0  0
 55127  1  0  0  0
 56 69  2  0  0  0
 57 58  2  0  0  0
 57128  1  0  0  0
 58129  1  0  0  0
 59 60  1  0  0  0
 59 61  1  0  0  0
 59 62  1  0  0  0
 60130  1  0  0  0
 60131  1  0  0  0
 60132  1  0  0  0
 61133  1  0  0  0
 61134  1  0  0  0
 61135  1  0  0  0
 62136  1  0  0  0
 62137  1  0  0  0
 62138  1  0  0  0
 63 65  1  0  0  0
 63139  1  0  0  0
 63140  1  0  0  0
 63141  1  0  0  0
 64142  1  0  0  0
 65143  1  0  0  0
 68 77  1  0  0  0
 71 72  2  0  0  0
 71 76  1  0  0  0
 71 78  1  0  0  0
 72 83  1  0  0  0
 72 84  1  0  0  0
 73 78  2  0  0  0
 73 79  1  0  0  0
 73 84  1  0  0  0
 74 75  1  0  0  0
 74 77  1  0  0  0
 74 81  2  0  0  0
 75 80  1  0  0  0
 75 82  2  0  0  0
 76 80  1  0  0  0
 76144  1  0  0  0
 76145  1  0  0  0
 77146  1  0  0  0
 77147  1  0  0  0
 79148  1  0  0  0
 80149  1  0  0  0
M  ISO  4   1 100  68 101  77 101  79 100
M  END
> <chiral flag>
0

> <version>
0

> <s_m_source_file>
/data/baiqing/PycharmProjects/Reinvent-master-3.2/result/LINK_invent/BTK/process_docking_weight1_custom_product_contain_oxygen_bond_distance_aromatic_linkinvent_7_9_3/rearranged_h_0175.sdf

> <i_m_source_file_index>
62

> <r_mmod_Potential_Energy-OPLS-2005>
-106.807708740234

> <r_mmod_Stretch_Energy-OPLS-2005>
44.8897018432617

> <r_mmod_Bend_Energy-OPLS-2005>
101.623512268066

> <r_mmod_Torsional_Energy-OPLS-2005>
226.346054077148

> <r_mmod_Improper_Torsional_Energy-OPLS-2005>
3.77020573616028

> <r_mmod_Van_der_Waal_Energy-OPLS-2005>
125.457443237305

> <r_mmod_Electrostatic_Energy-OPLS-2005>
-394.751159667969

> <r_mmod_Solvation_Energy-OPLS-2005>
-234.618606567383

> <b_mmod_Minimization_Converged-OPLS-2005>
0

> <r_mmod_RMS_Derivative-OPLS-2005>
3.88089966773987

$$$$
63
                    3D
 Structure written by MMmdl.
156164  0  0  1  0            999 V2000
  -30.6622  -14.5552   20.5251 C   0  0  0  0  0  0
  -30.4292  -12.3440   19.4376 C   0  0  0  0  0  0
  -29.4993  -12.4946   18.2144 C   0  0  0  0  0  0
  -28.0215  -12.3455   18.6282 C   0  0  0  0  0  0
  -27.6548  -13.2093   19.8643 C   0  0  2  0  0  0
  -28.6990  -13.0382   20.9910 C   0  0  0  0  0  0
  -25.2571  -13.8166   20.5679 C   0  0  0  0  0  0
  -24.1829  -13.0440   20.9191 C   0  0  0  0  0  0
  -24.6386  -11.6909   20.8741 C   0  0  0  0  0  0
  -23.9056  -10.4295   21.0410 C   0  0  0  0  0  0
  -24.3611   -9.4209   21.9186 C   0  0  0  0  0  0
  -23.6287   -8.2242   22.0754 C   0  0  0  0  0  0
  -22.4268   -8.0280   21.3545 C   0  0  0  0  0  0
  -21.9906   -9.0253   20.4645 C   0  0  0  0  0  0
  -22.7233  -10.2134   20.3055 C   0  0  0  0  0  0
  -21.6853   -6.0733   22.5278 C   0  0  0  0  0  0
  -21.4012   -6.5639   23.8211 C   0  0  0  0  0  0
  -21.3660   -5.6792   24.9175 C   0  0  0  0  0  0
  -21.6043   -4.3054   24.7226 C   0  0  0  0  0  0
  -21.8821   -3.8145   23.4348 C   0  0  0  0  0  0
  -21.9190   -4.6961   22.3402 C   0  0  0  0  0  0
  -22.7852  -13.5237   21.1850 C   0  0  0  0  0  0
  -22.1660   -4.2147   21.0979 F   0  0  0  0  0  0
  -21.5631   -3.4538   25.7740 F   0  0  0  0  0  0
  -30.0213  -13.3545   20.4278 N   0  0  0  0  0  0
  -26.2990  -12.9332   20.3321 N   0  0  0  0  0  0
  -25.9310  -11.6494   20.5763 N   0  0  0  0  0  0
  -22.0491  -12.8225   22.0407 N   0  0  0  0  0  0
  -25.4298  -15.1884   20.4091 N   0  0  0  0  0  0
  -31.8274  -14.7087   20.1464 O   0  0  0  0  0  0
  -21.6637   -6.8876   21.4240 O   0  0  0  0  0  0
  -22.3541  -14.5547   20.6707 O   0  0  0  0  0  0
  -24.6179  -31.8649   23.2056 C   0  0  0  0  0  0
  -25.9057  -32.4807   23.8367 C   0  0  1  0  0  0
  -27.2309  -27.3948   20.1108 C   0  0  0  0  0  0
  -25.5894  -33.8604   24.2295 N   0  0  0  0  0  0
  -23.4088  -30.4852   21.5475 C   0  0  2  0  0  0
  -24.8576  -28.9454   20.1136 C   0  0  0  0  0  0
  -22.7441  -29.4629   22.4977 C   0  0  0  0  0  0
  -18.0276  -28.1370   22.8483 C   0  0  0  0  0  0
  -24.1491  -36.7318   23.2638 C   0  0  0  0  0  0
  -25.9400  -30.8192   21.3637 C   0  0  0  0  0  0
  -26.0189  -29.4479   20.7156 C   0  0  0  0  0  0
  -27.2123  -28.6808   20.7090 C   0  0  0  0  0  0
  -26.0587  -26.9183   19.4922 C   0  0  0  0  0  0
  -24.8742  -27.6818   19.4966 C   0  0  0  0  0  0
  -23.6203  -29.8159   20.1626 C   0  0  0  0  0  0
  -25.4109  -36.3101   24.0330 C   0  0  1  0  0  0
  -20.5871  -28.3660   23.1311 C   0  0  2  0  0  0
  -20.6770  -26.9397   22.5415 C   0  0  0  0  0  0
  -19.5750  -26.6380   21.5209 C   0  0  0  0  0  0
  -18.1924  -26.7917   22.1616 C   0  0  0  0  0  0
  -19.1529  -28.8836   23.2887 C   0  0  0  0  0  0
  -18.9456  -30.1447   23.8889 C   0  0  0  0  0  0
  -17.6455  -30.6577   24.0560 C   0  0  0  0  0  0
  -25.9039  -34.9465   23.5114 C   0  0  0  0  0  0
  -16.5345  -29.9072   23.6332 C   0  0  0  0  0  0
  -16.7265  -28.6494   23.0343 C   0  0  0  0  0  0
  -26.4467  -31.6592   25.0705 C   0  0  0  0  0  0
  -25.3720  -31.3708   26.1451 C   0  0  0  0  0  0
  -27.0285  -30.3029   24.6076 C   0  0  0  0  0  0
  -27.6041  -32.4311   25.7469 C   0  0  0  0  0  0
  -27.5580  -37.1813   24.8463 C   0  0  0  0  0  0
  -21.4164  -29.3020   22.3716 N   0  0  0  0  0  0
  -26.4294  -37.3792   23.9408 N   0  0  0  0  0  0
  -24.6739  -31.0718   22.0973 N   0  0  0  0  0  0
  -23.4190  -28.8177   23.3042 O   0  0  0  0  0  0
  -28.3698  -26.6055   20.0775 O   0  0  0  0  0  0
  -26.5618  -34.8932   22.4683 O   0  0  0  0  0  0
  -23.5360  -32.1414   23.7429 O   0  0  0  0  0  0
  -31.3322  -17.6142   21.0653 C   0  0  0  0  0  0
  -31.2544  -19.0518   21.0342 C   0  0  0  0  0  0
  -29.9793  -19.5261   20.7848 C   0  0  0  0  0  0
  -30.1431  -16.9551   20.8524 C   0  0  0  0  0  0
  -29.4119  -20.9176   20.5934 C   0  0  0  0  0  0
  -29.8661  -23.2523   21.3573 C   0  0  0  0  0  0
  -32.4707  -19.9089   21.2449 C   0  0  0  0  0  0
  -27.4154  -25.4373   22.1191 C   0  0  0  0  0  0
  -28.9135  -24.1291   20.4739 C   0  0  0  0  0  0
  -28.5472  -25.5501   21.0722 C   0  0  1  0  0  0
  -29.8691  -15.6074   20.8616 N   0  0  0  0  0  0
  -30.0177  -21.9023   21.2901 N   0  0  0  0  0  0
  -28.4398  -21.0987   19.8549 O   0  0  0  0  0  0
  -30.5802  -23.8369   22.1759 O   0  0  0  0  0  0
  -28.8840  -18.1589   20.5806 S   0  0  0  0  0  0
  -31.4726  -12.4536   19.1365 H   0  0  0  0  0  0
  -30.3448  -11.3442   19.8658 H   0  0  0  0  0  0
  -29.7510  -11.7507   17.4574 H   0  0  0  0  0  0
  -29.6546  -13.4694   17.7493 H   0  0  0  0  0  0
  -27.8470  -11.2924   18.8509 H   0  0  0  0  0  0
  -27.3679  -12.5898   17.7900 H   0  0  0  0  0  0
  -27.6817  -14.2476   19.5335 H   0  0  0  0  0  0
  -28.6918  -12.0143   21.3676 H   0  0  0  0  0  0
  -28.4573  -13.6689   21.8477 H   0  0  0  0  0  0
  -25.2757   -9.5683   22.4761 H   0  0  0  0  0  0
  -23.9996   -7.4634   22.7476 H   0  0  0  0  0  0
  -21.0840   -8.8774   19.8948 H   0  0  0  0  0  0
  -22.3697  -10.9672   19.6164 H   0  0  0  0  0  0
  -21.2007   -7.6147   23.9714 H   0  0  0  0  0  0
  -21.1480   -6.0522   25.9076 H   0  0  0  0  0  0
  -22.0599   -2.7609   23.2849 H   0  0  0  0  0  0
  -22.4098  -11.9875   22.4781 H   0  0  0  0  0  0
  -21.1111  -13.1257   22.2618 H   0  0  0  0  0  0
  -24.6642  -15.8441   20.5199 H   0  0  0  0  0  0
  -26.2762  -15.6265   20.0686 H   0  0  0  0  0  0
  -26.7127  -32.5512   23.1127 H   0  0  0  0  0  0
  -25.0001  -33.9749   25.0410 H   0  0  0  0  0  0
  -22.6996  -31.3022   21.4055 H   0  0  0  0  0  0
  -23.3739  -35.9667   23.3301 H   0  0  0  0  0  0
  -24.3578  -36.8942   22.2055 H   0  0  0  0  0  0
  -23.7264  -37.6528   23.6658 H   0  0  0  0  0  0
  -26.0505  -31.5798   20.5896 H   0  0  0  0  0  0
  -26.8287  -30.8788   21.9798 H   0  0  0  0  0  0
  -28.1111  -29.0646   21.1716 H   0  0  0  0  0  0
  -26.0629  -25.9490   19.0138 H   0  0  0  0  0  0
  -23.9834  -27.2928   19.0226 H   0  0  0  0  0  0
  -23.7313  -30.5900   19.4027 H   0  0  0  0  0  0
  -22.7435  -29.2375   19.8669 H   0  0  0  0  0  0
  -25.1288  -36.1958   25.0823 H   0  0  0  0  0  0
  -20.9954  -28.3227   24.1432 H   0  0  0  0  0  0
  -20.5690  -26.2262   23.3600 H   0  0  0  0  0  0
  -21.6639  -26.7444   22.1203 H   0  0  0  0  0  0
  -19.6920  -25.6294   21.1232 H   0  0  0  0  0  0
  -19.6700  -27.3196   20.6745 H   0  0  0  0  0  0
  -17.4206  -26.6672   21.4009 H   0  0  0  0  0  0
  -18.0318  -26.0058   22.9007 H   0  0  0  0  0  0
  -19.7934  -30.7268   24.2250 H   0  0  0  0  0  0
  -17.5007  -31.6259   24.5158 H   0  0  0  0  0  0
  -15.5343  -30.2964   23.7668 H   0  0  0  0  0  0
  -15.8666  -28.0817   22.7046 H   0  0  0  0  0  0
  -24.5896  -30.7050   25.7789 H   0  0  0  0  0  0
  -24.8897  -32.2868   26.4877 H   0  0  0  0  0  0
  -25.8064  -30.8893   27.0218 H   0  0  0  0  0  0
  -26.2821  -29.6805   24.1127 H   0  0  0  0  0  0
  -27.4053  -29.7253   25.4523 H   0  0  0  0  0  0
  -27.8659  -30.4339   23.9216 H   0  0  0  0  0  0
  -27.2664  -33.3624   26.2018 H   0  0  0  0  0  0
  -28.3860  -32.6842   25.0297 H   0  0  0  0  0  0
  -28.0685  -31.8443   26.5404 H   0  0  0  0  0  0
  -28.2598  -38.0110   24.7497 H   0  0  0  0  0  0
  -28.1073  -36.2639   24.6292 H   0  0  0  0  0  0
  -27.2293  -37.1471   25.8865 H   0  0  0  0  0  0
  -20.9337  -29.8728   21.6919 H   0  0  0  0  0  0
  -26.0178  -38.2865   24.1409 H   0  0  0  0  0  0
  -32.2721  -17.1130   21.2539 H   0  0  0  0  0  0
  -33.3864  -19.3167   21.2253 H   0  0  0  0  0  0
  -32.4411  -20.4120   22.2114 H   0  0  0  0  0  0
  -32.5691  -20.6703   20.4707 H   0  0  0  0  0  0
  -27.6753  -24.7250   22.9026 H   0  0  0  0  0  0
  -26.4843  -25.0962   21.6664 H   0  0  0  0  0  0
  -27.2208  -26.3908   22.6112 H   0  0  0  0  0  0
  -27.9978  -23.5854   20.2460 H   0  0  0  0  0  0
  -29.4244  -24.2724   19.5220 H   0  0  0  0  0  0
  -29.4138  -25.9195   21.6208 H   0  0  0  0  0  0
  -28.9053  -15.3589   21.0232 H   0  0  0  0  0  0
  -30.7347  -21.5569   21.9053 H   0  0  0  0  0  0
  1 25  1  0  0  0
  1 30  2  0  0  0
  1 81  1  0  0  0
  2  3  1  0  0  0
  2 25  1  0  0  0
  2 86  1  0  0  0
  2 87  1  0  0  0
  3  4  1  0  0  0
  3 88  1  0  0  0
  3 89  1  0  0  0
  4  5  1  0  0  0
  4 90  1  0  0  0
  4 91  1  0  0  0
  5  6  1  0  0  0
  5 26  1  0  0  0
  5 92  1  0  0  0
  6 25  1  0  0  0
  6 93  1  0  0  0
  6 94  1  0  0  0
  7  8  2  0  0  0
  7 26  1  0  0  0
  7 29  1  0  0  0
  8  9  1  0  0  0
  8 22  1  0  0  0
  9 10  1  0  0  0
  9 27  2  0  0  0
 10 11  2  0  0  0
 10 15  1  0  0  0
 11 12  1  0  0  0
 11 95  1  0  0  0
 12 13  2  0  0  0
 12 96  1  0  0  0
 13 14  1  0  0  0
 13 31  1  0  0  0
 14 15  2  0  0  0
 14 97  1  0  0  0
 15 98  1  0  0  0
 16 17  2  0  0  0
 16 21  1  0  0  0
 16 31  1  0  0  0
 17 18  1  0  0  0
 17 99  1  0  0  0
 18 19  2  0  0  0
 18100  1  0  0  0
 19 20  1  0  0  0
 19 24  1  0  0  0
 20 21  2  0  0  0
 20101  1  0  0  0
 21 23  1  0  0  0
 22 28  1  0  0  0
 22 32  2  0  0  0
 26 27  1  0  0  0
 28102  1  0  0  0
 28103  1  0  0  0
 29104  1  0  0  0
 29105  1  0  0  0
 33 34  1  0  0  0
 33 66  1  0  0  0
 33 70  2  0  0  0
 34 36  1  0  0  0
 34 59  1  0  0  0
 34106  1  0  0  0
 35 44  2  0  0  0
 35 45  1  0  0  0
 35 68  1  0  0  0
 36 56  1  0  0  0
 36107  1  0  0  0
 37 39  1  0  0  0
 37 47  1  0  0  0
 37 66  1  0  0  0
 37108  1  0  0  0
 38 43  2  0  0  0
 38 46  1  0  0  0
 38 47  1  0  0  0
 39 64  1  0  0  0
 39 67  2  0  0  0
 40 52  1  0  0  0
 40 53  2  0  0  0
 40 58  1  0  0  0
 41109  1  0  0  0
 41110  1  0  0  0
 41111  1  0  0  0
 41 48  1  0  0  0
 42 43  1  0  0  0
 42 66  1  0  0  0
 42112  1  0  0  0
 42113  1  0  0  0
 43 44  1  0  0  0
 44114  1  0  0  0
 45 46  2  0  0  0
 45115  1  0  0  0
 46116  1  0  0  0
 47117  1  0  0  0
 47118  1  0  0  0
 48 56  1  0  0  0
 48 65  1  0  0  0
 48119  1  0  0  0
 49 50  1  0  0  0
 49 53  1  0  0  0
 49 64  1  0  0  0
 49120  1  0  0  0
 50 51  1  0  0  0
 50121  1  0  0  0
 50122  1  0  0  0
 51 52  1  0  0  0
 51123  1  0  0  0
 51124  1  0  0  0
 52125  1  0  0  0
 52126  1  0  0  0
 53 54  1  0  0  0
 54 55  2  0  0  0
 54127  1  0  0  0
 55 57  1  0  0  0
 55128  1  0  0  0
 56 69  2  0  0  0
 57 58  2  0  0  0
 57129  1  0  0  0
 58130  1  0  0  0
 59 60  1  0  0  0
 59 61  1  0  0  0
 59 62  1  0  0  0
 60131  1  0  0  0
 60132  1  0  0  0
 60133  1  0  0  0
 61134  1  0  0  0
 61135  1  0  0  0
 61136  1  0  0  0
 62137  1  0  0  0
 62138  1  0  0  0
 62139  1  0  0  0
 63 65  1  0  0  0
 63140  1  0  0  0
 63141  1  0  0  0
 63142  1  0  0  0
 64143  1  0  0  0
 65144  1  0  0  0
 68 80  1  0  0  0
 71 72  1  0  0  0
 71 74  2  0  0  0
 71145  1  0  0  0
 72 73  2  0  0  0
 72 77  1  0  0  0
 73 75  1  0  0  0
 73 85  1  0  0  0
 74 81  1  0  0  0
 74 85  1  0  0  0
 75 82  1  0  0  0
 75 83  2  0  0  0
 76 79  1  0  0  0
 76 82  1  0  0  0
 76 84  2  0  0  0
 77146  1  0  0  0
 77147  1  0  0  0
 77148  1  0  0  0
 78149  1  0  0  0
 78150  1  0  0  0
 78151  1  0  0  0
 78 80  1  0  0  0
 79 80  1  0  0  0
 79152  1  0  0  0
 79153  1  0  0  0
 80154  1  0  0  0
 81155  1  0  0  0
 82156  1  0  0  0
M  ISO  4   1 100  68 101  80 101  81 100
M  END
> <chiral flag>
0

> <version>
0

> <s_m_source_file>
/data/baiqing/PycharmProjects/Reinvent-master-3.2/result/LINK_invent/BTK/process_docking_weight1_custom_product_contain_oxygen_bond_distance_aromatic_linkinvent_7_9_3/rearranged_h_0175.sdf

> <i_m_source_file_index>
63

> <r_mmod_Potential_Energy-OPLS-2005>
-116.582046508789

> <r_mmod_Stretch_Energy-OPLS-2005>
51.3374519348145

> <r_mmod_Bend_Energy-OPLS-2005>
146.405578613281

> <r_mmod_Torsional_Energy-OPLS-2005>
249.424118041992

> <r_mmod_Improper_Torsional_Energy-OPLS-2005>
5.1701865196228

> <r_mmod_Van_der_Waal_Energy-OPLS-2005>
126.589492797852

> <r_mmod_Electrostatic_Energy-OPLS-2005>
-488.663696289062

> <r_mmod_Solvation_Energy-OPLS-2005>
-230.708679199219

> <b_mmod_Minimization_Converged-OPLS-2005>
0

> <r_mmod_RMS_Derivative-OPLS-2005>
1.16658174991608

$$$$
64
                    3D
 Structure written by MMmdl.
156164  0  0  1  0            999 V2000
  -30.6922  -14.4579   20.5414 C   0  0  0  0  0  0
  -30.4226  -12.2842   19.4356 C   0  0  0  0  0  0
  -29.5029  -12.4960   18.2135 C   0  0  0  0  0  0
  -28.0191  -12.3727   18.6155 C   0  0  0  0  0  0
  -27.6624  -13.2075   19.8742 C   0  0  2  0  0  0
  -28.6992  -12.9832   21.0001 C   0  0  0  0  0  0
  -25.2590  -13.8166   20.5673 C   0  0  0  0  0  0
  -24.1838  -13.0441   20.9175 C   0  0  0  0  0  0
  -24.6396  -11.6906   20.8726 C   0  0  0  0  0  0
  -23.9069  -10.4283   21.0385 C   0  0  0  0  0  0
  -24.3612   -9.4203   21.9175 C   0  0  0  0  0  0
  -23.6293   -8.2243   22.0751 C   0  0  0  0  0  0
  -22.4280   -8.0274   21.3532 C   0  0  0  0  0  0
  -21.9903   -9.0259   20.4647 C   0  0  0  0  0  0
  -22.7228  -10.2139   20.3047 C   0  0  0  0  0  0
  -21.6862   -6.0735   22.5272 C   0  0  0  0  0  0
  -21.4021   -6.5646   23.8210 C   0  0  0  0  0  0
  -21.3662   -5.6794   24.9174 C   0  0  0  0  0  0
  -21.6040   -4.3054   24.7224 C   0  0  0  0  0  0
  -21.8818   -3.8142   23.4345 C   0  0  0  0  0  0
  -21.9190   -4.6958   22.3393 C   0  0  0  0  0  0
  -22.7850  -13.5246   21.1826 C   0  0  0  0  0  0
  -22.1648   -4.2154   21.0970 F   0  0  0  0  0  0
  -21.5630   -3.4528   25.7737 F   0  0  0  0  0  0
  -30.0368  -13.2706   20.4543 N   0  0  0  0  0  0
  -26.3027  -12.9342   20.3341 N   0  0  0  0  0  0
  -25.9321  -11.6503   20.5748 N   0  0  0  0  0  0
  -22.0475  -12.8269   22.0399 N   0  0  0  0  0  0
  -25.4308  -15.1894   20.4107 N   0  0  0  0  0  0
  -31.8461  -14.6147   20.1274 O   0  0  0  0  0  0
  -21.6629   -6.8874   21.4240 O   0  0  0  0  0  0
  -22.3528  -14.5536   20.6643 O   0  0  0  0  0  0
  -24.6139  -31.8689   23.2114 C   0  0  0  0  0  0
  -25.9042  -32.4832   23.8404 C   0  0  1  0  0  0
  -27.2315  -27.4586   20.0919 C   0  0  0  0  0  0
  -25.5915  -33.8629   24.2344 N   0  0  0  0  0  0
  -23.4007  -30.4921   21.5509 C   0  0  2  0  0  0
  -24.8479  -28.9622   20.1114 C   0  0  0  0  0  0
  -22.7398  -29.4661   22.4994 C   0  0  0  0  0  0
  -18.0272  -28.1372   22.8500 C   0  0  0  0  0  0
  -24.1484  -36.7325   23.2641 C   0  0  0  0  0  0
  -25.9260  -30.8421   21.3609 C   0  0  0  0  0  0
  -26.0045  -29.4788   20.7094 C   0  0  0  0  0  0
  -27.2021  -28.7315   20.7002 C   0  0  0  0  0  0
  -26.0674  -26.9517   19.4849 C   0  0  0  0  0  0
  -24.8727  -27.6963   19.4973 C   0  0  0  0  0  0
  -23.6073  -29.8247   20.1644 C   0  0  0  0  0  0
  -25.4104  -36.3128   24.0345 C   0  0  1  0  0  0
  -20.5863  -28.3658   23.1328 C   0  0  2  0  0  0
  -20.6759  -26.9399   22.5426 C   0  0  0  0  0  0
  -19.5738  -26.6383   21.5218 C   0  0  0  0  0  0
  -18.1913  -26.7918   22.1625 C   0  0  0  0  0  0
  -19.1522  -28.8824   23.2906 C   0  0  0  0  0  0
  -18.9451  -30.1437   23.8918 C   0  0  0  0  0  0
  -17.6457  -30.6582   24.0564 C   0  0  0  0  0  0
  -25.9035  -34.9491   23.5138 C   0  0  0  0  0  0
  -16.5346  -29.9089   23.6327 C   0  0  0  0  0  0
  -16.7262  -28.6496   23.0351 C   0  0  0  0  0  0
  -26.4469  -31.6608   25.0732 C   0  0  0  0  0  0
  -25.3740  -31.3712   26.1492 C   0  0  0  0  0  0
  -27.0295  -30.3055   24.6086 C   0  0  0  0  0  0
  -27.6049  -32.4323   25.7488 C   0  0  0  0  0  0
  -27.5579  -37.1818   24.8460 C   0  0  0  0  0  0
  -21.4128  -29.3025   22.3728 N   0  0  0  0  0  0
  -26.4298  -37.3807   23.9407 N   0  0  0  0  0  0
  -24.6651  -31.0810   22.1003 N   0  0  0  0  0  0
  -23.4184  -28.8209   23.3027 O   0  0  0  0  0  0
  -28.3581  -26.6787   20.1151 O   0  0  0  0  0  0
  -26.5580  -34.8937   22.4689 O   0  0  0  0  0  0
  -23.5339  -32.1419   23.7535 O   0  0  0  0  0  0
  -29.7625  -19.3951   19.3961 C   0  0  0  0  0  0
  -30.4186  -17.0892   19.1512 C   0  0  0  0  0  0
  -30.3394  -18.3840   18.6248 C   0  0  0  0  0  0
  -29.2897  -19.0713   20.6785 C   0  0  0  0  0  0
  -29.9285  -16.8210   20.4513 C   0  0  0  0  0  0
  -29.5088  -23.7549   20.5732 C   0  0  0  0  0  0
  -28.5987  -22.6277   21.1480 C   0  0  0  0  0  0
  -28.6808  -20.1547   21.5633 C   0  0  0  0  0  0
  -28.5268  -26.0388   21.3850 C   0  0  0  0  0  0
  -29.6963  -25.0299   21.4262 C   0  0  2  0  0  0
  -29.3644  -17.8141   21.1854 N   0  0  0  0  0  0
  -29.9417  -15.4916   20.9687 N   0  0  0  0  0  0
  -29.2590  -21.4681   21.2882 N   0  0  0  0  0  0
  -30.1244  -23.5973   19.5088 O   0  0  0  0  0  0
  -27.4001  -22.7836   21.4009 O   0  0  0  0  0  0
  -30.9174  -25.7127   21.1257 O   0  0  0  0  0  0
  -30.8122  -18.6545   17.3859 F   0  0  0  0  0  0
  -31.4720  -12.3690   19.1461 H   0  0  0  0  0  0
  -30.3116  -11.2751   19.8340 H   0  0  0  0  0  0
  -29.7389  -11.7655   17.4405 H   0  0  0  0  0  0
  -29.6864  -13.4785   17.7772 H   0  0  0  0  0  0
  -27.8133  -11.3175   18.7988 H   0  0  0  0  0  0
  -27.3789  -12.6606   17.7811 H   0  0  0  0  0  0
  -27.7100  -14.2560   19.5809 H   0  0  0  0  0  0
  -28.6636  -11.9502   21.3502 H   0  0  0  0  0  0
  -28.4676  -13.5927   21.8743 H   0  0  0  0  0  0
  -25.2750   -9.5705   22.4752 H   0  0  0  0  0  0
  -24.0005   -7.4643   22.7474 H   0  0  0  0  0  0
  -21.0826   -8.8772   19.8964 H   0  0  0  0  0  0
  -22.3660  -10.9681   19.6160 H   0  0  0  0  0  0
  -21.2012   -7.6160   23.9729 H   0  0  0  0  0  0
  -21.1485   -6.0514   25.9088 H   0  0  0  0  0  0
  -22.0591   -2.7609   23.2833 H   0  0  0  0  0  0
  -22.4057  -11.9955   22.4857 H   0  0  0  0  0  0
  -21.1084  -13.1303   22.2558 H   0  0  0  0  0  0
  -24.6655  -15.8433   20.5310 H   0  0  0  0  0  0
  -26.2835  -15.6317   20.0916 H   0  0  0  0  0  0
  -26.7108  -32.5550   23.1167 H   0  0  0  0  0  0
  -25.0082  -33.9762   25.0499 H   0  0  0  0  0  0
  -22.6912  -31.3098   21.4126 H   0  0  0  0  0  0
  -23.3744  -35.9663   23.3317 H   0  0  0  0  0  0
  -24.3566  -36.8917   22.2052 H   0  0  0  0  0  0
  -23.7233  -37.6540   23.6624 H   0  0  0  0  0  0
  -26.0313  -31.6105   20.5936 H   0  0  0  0  0  0
  -26.8165  -30.8966   21.9754 H   0  0  0  0  0  0
  -28.0985  -29.1241   21.1610 H   0  0  0  0  0  0
  -26.0834  -25.9751   19.0211 H   0  0  0  0  0  0
  -23.9825  -27.2918   19.0381 H   0  0  0  0  0  0
  -23.7120  -30.5992   19.4041 H   0  0  0  0  0  0
  -22.7327  -29.2419   19.8716 H   0  0  0  0  0  0
  -25.1270  -36.2007   25.0837 H   0  0  0  0  0  0
  -20.9936  -28.3221   24.1454 H   0  0  0  0  0  0
  -20.5665  -26.2255   23.3599 H   0  0  0  0  0  0
  -21.6621  -26.7438   22.1212 H   0  0  0  0  0  0
  -19.6885  -25.6293   21.1236 H   0  0  0  0  0  0
  -19.6683  -27.3195   20.6749 H   0  0  0  0  0  0
  -17.4182  -26.6683   21.4025 H   0  0  0  0  0  0
  -18.0313  -26.0051   22.9014 H   0  0  0  0  0  0
  -19.7929  -30.7238   24.2295 H   0  0  0  0  0  0
  -17.5019  -31.6267   24.5158 H   0  0  0  0  0  0
  -15.5343  -30.2993   23.7640 H   0  0  0  0  0  0
  -15.8663  -28.0821   22.7057 H   0  0  0  0  0  0
  -24.5896  -30.7074   25.7836 H   0  0  0  0  0  0
  -24.8954  -32.2872   26.4976 H   0  0  0  0  0  0
  -25.8114  -30.8860   27.0229 H   0  0  0  0  0  0
  -26.2835  -29.6832   24.1135 H   0  0  0  0  0  0
  -27.4057  -29.7279   25.4538 H   0  0  0  0  0  0
  -27.8673  -30.4374   23.9234 H   0  0  0  0  0  0
  -27.2668  -33.3592   26.2126 H   0  0  0  0  0  0
  -28.3838  -32.6935   25.0314 H   0  0  0  0  0  0
  -28.0748  -31.8419   26.5356 H   0  0  0  0  0  0
  -28.2615  -38.0102   24.7511 H   0  0  0  0  0  0
  -28.1060  -36.2635   24.6287 H   0  0  0  0  0  0
  -27.2294  -37.1484   25.8865 H   0  0  0  0  0  0
  -20.9289  -29.8762   21.6964 H   0  0  0  0  0  0
  -26.0197  -38.2892   24.1411 H   0  0  0  0  0  0
  -29.6923  -20.3965   18.9948 H   0  0  0  0  0  0
  -30.8545  -16.3198   18.5302 H   0  0  0  0  0  0
  -28.8378  -19.9112   22.6146 H   0  0  0  0  0  0
  -27.6026  -20.1540   21.3993 H   0  0  0  0  0  0
  -28.6831  -26.7971   22.1559 H   0  0  0  0  0  0
  -27.6031  -25.5224   21.6547 H   0  0  0  0  0  0
  -29.7780  -24.6827   22.4568 H   0  0  0  0  0  0
  -29.1356  -15.2422   21.5178 H   0  0  0  0  0  0
  -30.2389  -21.4714   21.0368 H   0  0  0  0  0  0
  -30.9361  -26.5062   21.6509 H   0  0  0  0  0  0
  1 25  1  0  0  0
  1 30  2  0  0  0
  1 82  1  0  0  0
  2  3  1  0  0  0
  2 25  1  0  0  0
  2 88  1  0  0  0
  2 89  1  0  0  0
  3  4  1  0  0  0
  3 90  1  0  0  0
  3 91  1  0  0  0
  4  5  1  0  0  0
  4 92  1  0  0  0
  4 93  1  0  0  0
  5  6  1  0  0  0
  5 26  1  0  0  0
  5 94  1  0  0  0
  6 25  1  0  0  0
  6 95  1  0  0  0
  6 96  1  0  0  0
  7  8  2  0  0  0
  7 26  1  0  0  0
  7 29  1  0  0  0
  8  9  1  0  0  0
  8 22  1  0  0  0
  9 10  1  0  0  0
  9 27  2  0  0  0
 10 11  2  0  0  0
 10 15  1  0  0  0
 11 12  1  0  0  0
 11 97  1  0  0  0
 12 13  2  0  0  0
 12 98  1  0  0  0
 13 14  1  0  0  0
 13 31  1  0  0  0
 14 15  2  0  0  0
 14 99  1  0  0  0
 15100  1  0  0  0
 16 17  2  0  0  0
 16 21  1  0  0  0
 16 31  1  0  0  0
 17 18  1  0  0  0
 17101  1  0  0  0
 18 19  2  0  0  0
 18102  1  0  0  0
 19 20  1  0  0  0
 19 24  1  0  0  0
 20 21  2  0  0  0
 20103  1  0  0  0
 21 23  1  0  0  0
 22 28  1  0  0  0
 22 32  2  0  0  0
 26 27  1  0  0  0
 28104  1  0  0  0
 28105  1  0  0  0
 29106  1  0  0  0
 29107  1  0  0  0
 33 34  1  0  0  0
 33 66  1  0  0  0
 33 70  2  0  0  0
 34 36  1  0  0  0
 34 59  1  0  0  0
 34108  1  0  0  0
 35 44  2  0  0  0
 35 45  1  0  0  0
 35 68  1  0  0  0
 36 56  1  0  0  0
 36109  1  0  0  0
 37 39  1  0  0  0
 37 47  1  0  0  0
 37 66  1  0  0  0
 37110  1  0  0  0
 38 43  2  0  0  0
 38 46  1  0  0  0
 38 47  1  0  0  0
 39 64  1  0  0  0
 39 67  2  0  0  0
 40 52  1  0  0  0
 40 53  2  0  0  0
 40 58  1  0  0  0
 41111  1  0  0  0
 41112  1  0  0  0
 41113  1  0  0  0
 41 48  1  0  0  0
 42 43  1  0  0  0
 42 66  1  0  0  0
 42114  1  0  0  0
 42115  1  0  0  0
 43 44  1  0  0  0
 44116  1  0  0  0
 45 46  2  0  0  0
 45117  1  0  0  0
 46118  1  0  0  0
 47119  1  0  0  0
 47120  1  0  0  0
 48 56  1  0  0  0
 48 65  1  0  0  0
 48121  1  0  0  0
 49 50  1  0  0  0
 49 53  1  0  0  0
 49 64  1  0  0  0
 49122  1  0  0  0
 50 51  1  0  0  0
 50123  1  0  0  0
 50124  1  0  0  0
 51 52  1  0  0  0
 51125  1  0  0  0
 51126  1  0  0  0
 52127  1  0  0  0
 52128  1  0  0  0
 53 54  1  0  0  0
 54 55  2  0  0  0
 54129  1  0  0  0
 55 57  1  0  0  0
 55130  1  0  0  0
 56 69  2  0  0  0
 57 58  2  0  0  0
 57131  1  0  0  0
 58132  1  0  0  0
 59 60  1  0  0  0
 59 61  1  0  0  0
 59 62  1  0  0  0
 60133  1  0  0  0
 60134  1  0  0  0
 60135  1  0  0  0
 61136  1  0  0  0
 61137  1  0  0  0
 61138  1  0  0  0
 62139  1  0  0  0
 62140  1  0  0  0
 62141  1  0  0  0
 63 65  1  0  0  0
 63142  1  0  0  0
 63143  1  0  0  0
 63144  1  0  0  0
 64145  1  0  0  0
 65146  1  0  0  0
 68 79  1  0  0  0
 71 73  2  0  0  0
 71 74  1  0  0  0
 71147  1  0  0  0
 72 73  1  0  0  0
 72 75  2  0  0  0
 72148  1  0  0  0
 73 87  1  0  0  0
 74 78  1  0  0  0
 74 81  2  0  0  0
 75 81  1  0  0  0
 75 82  1  0  0  0
 76 77  1  0  0  0
 76 80  1  0  0  0
 76 84  2  0  0  0
 77 83  1  0  0  0
 77 85  2  0  0  0
 78 83  1  0  0  0
 78149  1  0  0  0
 78150  1  0  0  0
 79 80  1  0  0  0
 79151  1  0  0  0
 79152  1  0  0  0
 80 86  1  0  0  0
 80153  1  0  0  0
 82154  1  0  0  0
 83155  1  0  0  0
 86156  1  0  0  0
M  ISO  4   1 100  68 101  79 101  82 100
M  END
> <chiral flag>
0

> <version>
0

> <s_m_source_file>
/data/baiqing/PycharmProjects/Reinvent-master-3.2/result/LINK_invent/BTK/process_docking_weight1_custom_product_contain_oxygen_bond_distance_aromatic_linkinvent_7_9_3/rearranged_h_0175.sdf

> <i_m_source_file_index>
64

> <r_mmod_Potential_Energy-OPLS-2005>
-241.685607910156

> <r_mmod_Stretch_Energy-OPLS-2005>
36.2955551147461

> <r_mmod_Bend_Energy-OPLS-2005>
95.7896499633789

> <r_mmod_Torsional_Energy-OPLS-2005>
263.516418457031

> <r_mmod_Improper_Torsional_Energy-OPLS-2005>
5.55630826950073

> <r_mmod_Van_der_Waal_Energy-OPLS-2005>
153.855331420898

> <r_mmod_Electrostatic_Energy-OPLS-2005>
-536.622863769531

> <r_mmod_Solvation_Energy-OPLS-2005>
-273.219451904297

> <b_mmod_Minimization_Converged-OPLS-2005>
0

> <r_mmod_RMS_Derivative-OPLS-2005>
2.89033198356628

$$$$
65
                    3D
 Structure written by MMmdl.
154162  0  0  1  0            999 V2000
  -30.6998  -14.4345   20.5452 C   0  0  0  0  0  0
  -30.4168  -12.2735   19.4217 C   0  0  0  0  0  0
  -29.4914  -12.5014   18.2066 C   0  0  0  0  0  0
  -28.0094  -12.3748   18.6156 C   0  0  0  0  0  0
  -27.6627  -13.2040   19.8805 C   0  0  2  0  0  0
  -28.7028  -12.9659   21.0007 C   0  0  0  0  0  0
  -25.2583  -13.8162   20.5653 C   0  0  0  0  0  0
  -24.1807  -13.0438   20.9083 C   0  0  0  0  0  0
  -24.6349  -11.6904   20.8681 C   0  0  0  0  0  0
  -23.8999  -10.4292   21.0388 C   0  0  0  0  0  0
  -24.3567   -9.4217   21.9166 C   0  0  0  0  0  0
  -23.6271   -8.2226   22.0727 C   0  0  0  0  0  0
  -22.4248   -8.0257   21.3507 C   0  0  0  0  0  0
  -21.9868   -9.0233   20.4622 C   0  0  0  0  0  0
  -22.7176  -10.2127   20.3038 C   0  0  0  0  0  0
  -21.6856   -6.0735   22.5271 C   0  0  0  0  0  0
  -21.4022   -6.5646   23.8205 C   0  0  0  0  0  0
  -21.3637   -5.6790   24.9158 C   0  0  0  0  0  0
  -21.6031   -4.3049   24.7217 C   0  0  0  0  0  0
  -21.8826   -3.8150   23.4339 C   0  0  0  0  0  0
  -21.9197   -4.6967   22.3402 C   0  0  0  0  0  0
  -22.7848  -13.5259   21.1777 C   0  0  0  0  0  0
  -22.1669   -4.2155   21.0971 F   0  0  0  0  0  0
  -21.5615   -3.4524   25.7727 F   0  0  0  0  0  0
  -30.0406  -13.2506   20.4536 N   0  0  0  0  0  0
  -26.3019  -12.9320   20.3375 N   0  0  0  0  0  0
  -25.9280  -11.6480   20.5758 N   0  0  0  0  0  0
  -22.0497  -12.8279   22.0383 N   0  0  0  0  0  0
  -25.4348  -15.1877   20.4167 N   0  0  0  0  0  0
  -31.8389  -14.6134   20.1037 O   0  0  0  0  0  0
  -21.6599   -6.8864   21.4224 O   0  0  0  0  0  0
  -22.3527  -14.5540   20.6600 O   0  0  0  0  0  0
  -24.6114  -31.8693   23.2098 C   0  0  0  0  0  0
  -25.9015  -32.4837   23.8398 C   0  0  1  0  0  0
  -27.2383  -27.4637   20.0882 C   0  0  0  0  0  0
  -25.5873  -33.8635   24.2329 N   0  0  0  0  0  0
  -23.3965  -30.4923   21.5516 C   0  0  2  0  0  0
  -24.8410  -28.9566   20.1216 C   0  0  0  0  0  0
  -22.7375  -29.4669   22.5022 C   0  0  0  0  0  0
  -18.0258  -28.1366   22.8508 C   0  0  0  0  0  0
  -24.1473  -36.7321   23.2646 C   0  0  0  0  0  0
  -25.9217  -30.8445   21.3563 C   0  0  0  0  0  0
  -25.9994  -29.4787   20.7091 C   0  0  0  0  0  0
  -27.1987  -28.7390   20.6882 C   0  0  0  0  0  0
  -26.0581  -26.9387   19.5106 C   0  0  0  0  0  0
  -24.8621  -27.6832   19.5256 C   0  0  0  0  0  0
  -23.6014  -29.8194   20.1687 C   0  0  0  0  0  0
  -25.4093  -36.3120   24.0346 C   0  0  1  0  0  0
  -20.5850  -28.3633   23.1346 C   0  0  2  0  0  0
  -20.6747  -26.9375   22.5431 C   0  0  0  0  0  0
  -19.5733  -26.6376   21.5218 C   0  0  0  0  0  0
  -18.1907  -26.7919   22.1630 C   0  0  0  0  0  0
  -19.1510  -28.8818   23.2932 C   0  0  0  0  0  0
  -18.9442  -30.1427   23.8934 C   0  0  0  0  0  0
  -17.6451  -30.6583   24.0556 C   0  0  0  0  0  0
  -25.9017  -34.9485   23.5134 C   0  0  0  0  0  0
  -16.5336  -29.9086   23.6335 C   0  0  0  0  0  0
  -16.7252  -28.6501   23.0361 C   0  0  0  0  0  0
  -26.4444  -31.6620   25.0728 C   0  0  0  0  0  0
  -25.3712  -31.3726   26.1489 C   0  0  0  0  0  0
  -27.0264  -30.3062   24.6084 C   0  0  0  0  0  0
  -27.6012  -32.4333   25.7499 C   0  0  0  0  0  0
  -27.5574  -37.1808   24.8466 C   0  0  0  0  0  0
  -21.4113  -29.3009   22.3756 N   0  0  0  0  0  0
  -26.4282  -37.3801   23.9419 N   0  0  0  0  0  0
  -24.6615  -31.0830   22.0976 N   0  0  0  0  0  0
  -23.4168  -28.8222   23.3055 O   0  0  0  0  0  0
  -28.4441  -26.8031   20.0715 O   0  0  0  0  0  0
  -26.5587  -34.8941   22.4698 O   0  0  0  0  0  0
  -23.5319  -32.1436   23.7507 O   0  0  0  0  0  0
  -28.9622  -18.7338   19.8052 C   0  0  0  0  0  0
  -29.3666  -18.3803   18.5269 C   0  0  0  0  0  0
  -29.7627  -16.6379   20.2260 C   0  0  0  0  0  0
  -28.3078  -19.9960   20.1529 C   0  0  0  0  0  0
  -30.0735  -23.3513   20.3784 C   0  0  0  0  0  0
  -29.8651  -24.8521   20.0436 C   0  0  0  0  0  0
  -29.1606  -20.9853   20.9535 C   0  0  0  0  0  0
  -28.8401  -22.4704   20.6250 C   0  0  0  0  0  0
  -28.4351  -25.3884   19.8924 C   0  0  0  0  0  0
  -29.1802  -17.7170   20.7560 N   0  0  0  0  0  0
  -29.2914  -19.0819   17.3224 N   0  0  0  0  0  0
  -29.9635  -15.4621   20.9920 N   0  0  0  0  0  0
  -27.1517  -20.3022   19.8401 O   0  0  0  0  0  0
  -31.2186  -22.8860   20.4476 O   0  0  0  0  0  0
  -30.8432  -25.5993   19.8938 O   0  0  0  0  0  0
  -30.0876  -16.7929   18.4983 S   0  0  0  0  0  0
  -31.4622  -12.3586   19.1228 H   0  0  0  0  0  0
  -30.3021  -11.2593   19.8094 H   0  0  0  0  0  0
  -29.7199  -11.7840   17.4170 H   0  0  0  0  0  0
  -29.6729  -13.4923   17.7842 H   0  0  0  0  0  0
  -27.8000  -11.3200   18.7983 H   0  0  0  0  0  0
  -27.3644  -12.6722   17.7879 H   0  0  0  0  0  0
  -27.7139  -14.2546   19.5904 H   0  0  0  0  0  0
  -28.6599  -11.9277   21.3349 H   0  0  0  0  0  0
  -28.4740  -13.5651   21.8833 H   0  0  0  0  0  0
  -25.2685   -9.5735   22.4763 H   0  0  0  0  0  0
  -23.9988   -7.4629   22.7461 H   0  0  0  0  0  0
  -21.0788   -8.8767   19.8951 H   0  0  0  0  0  0
  -22.3597  -10.9675   19.6166 H   0  0  0  0  0  0
  -21.2030   -7.6168   23.9719 H   0  0  0  0  0  0
  -21.1437   -6.0504   25.9053 H   0  0  0  0  0  0
  -22.0628   -2.7618   23.2819 H   0  0  0  0  0  0
  -22.4079  -11.9890   22.4705 H   0  0  0  0  0  0
  -21.1127  -13.1329   22.2591 H   0  0  0  0  0  0
  -24.6702  -15.8431   20.5345 H   0  0  0  0  0  0
  -26.3044  -15.6319   20.1501 H   0  0  0  0  0  0
  -26.7091  -32.5557   23.1174 H   0  0  0  0  0  0
  -25.0009  -33.9798   25.0467 H   0  0  0  0  0  0
  -22.6845  -31.3074   21.4116 H   0  0  0  0  0  0
  -23.3733  -35.9655   23.3313 H   0  0  0  0  0  0
  -24.3571  -36.8928   22.2060 H   0  0  0  0  0  0
  -23.7223  -37.6526   23.6653 H   0  0  0  0  0  0
  -26.0259  -31.6065   20.5835 H   0  0  0  0  0  0
  -26.8130  -30.9022   21.9687 H   0  0  0  0  0  0
  -28.0974  -29.1446   21.1317 H   0  0  0  0  0  0
  -26.0468  -25.9690   19.0352 H   0  0  0  0  0  0
  -23.9683  -27.2713   19.0764 H   0  0  0  0  0  0
  -23.7038  -30.5895   19.4032 H   0  0  0  0  0  0
  -22.7272  -29.2325   19.8789 H   0  0  0  0  0  0
  -25.1263  -36.1984   25.0837 H   0  0  0  0  0  0
  -20.9950  -28.3183   24.1466 H   0  0  0  0  0  0
  -20.5648  -26.2227   23.3601 H   0  0  0  0  0  0
  -21.6617  -26.7421   22.1224 H   0  0  0  0  0  0
  -19.6878  -25.6288   21.1248 H   0  0  0  0  0  0
  -19.6688  -27.3196   20.6758 H   0  0  0  0  0  0
  -17.4175  -26.6677   21.4023 H   0  0  0  0  0  0
  -18.0298  -26.0056   22.9024 H   0  0  0  0  0  0
  -19.7913  -30.7220   24.2338 H   0  0  0  0  0  0
  -17.5004  -31.6278   24.5124 H   0  0  0  0  0  0
  -15.5338  -30.2981   23.7657 H   0  0  0  0  0  0
  -15.8648  -28.0823   22.7065 H   0  0  0  0  0  0
  -24.5860  -30.7100   25.7836 H   0  0  0  0  0  0
  -24.8944  -32.2893   26.4967 H   0  0  0  0  0  0
  -25.8081  -30.8875   27.0230 H   0  0  0  0  0  0
  -26.2802  -29.6846   24.1125 H   0  0  0  0  0  0
  -27.4021  -29.7273   25.4535 H   0  0  0  0  0  0
  -27.8642  -30.4385   23.9230 H   0  0  0  0  0  0
  -27.2615  -33.3601   26.2132 H   0  0  0  0  0  0
  -28.3806  -32.6949   25.0330 H   0  0  0  0  0  0
  -28.0702  -31.8431   26.5383 H   0  0  0  0  0  0
  -28.2594  -38.0102   24.7519 H   0  0  0  0  0  0
  -28.1061  -36.2636   24.6270 H   0  0  0  0  0  0
  -27.2303  -37.1444   25.8872 H   0  0  0  0  0  0
  -20.9240  -29.8717   21.6988 H   0  0  0  0  0  0
  -26.0173  -38.2880   24.1419 H   0  0  0  0  0  0
  -30.2049  -20.7496   20.7456 H   0  0  0  0  0  0
  -29.0133  -20.7990   22.0179 H   0  0  0  0  0  0
  -28.2205  -22.5436   19.7307 H   0  0  0  0  0  0
  -28.2593  -22.9027   21.4397 H   0  0  0  0  0  0
  -27.7762  -24.9284   20.6291 H   0  0  0  0  0  0
  -28.0713  -25.1291   18.8985 H   0  0  0  0  0  0
  -28.7564  -19.9355   17.1920 H   0  0  0  0  0  0
  -29.5335  -18.6565   16.4326 H   0  0  0  0  0  0
  -29.2003  -15.2251   21.6058 H   0  0  0  0  0  0
  1 25  1  0  0  0
  1 30  2  0  0  0
  1 82  1  0  0  0
  2  3  1  0  0  0
  2 25  1  0  0  0
  2 87  1  0  0  0
  2 88  1  0  0  0
  3  4  1  0  0  0
  3 89  1  0  0  0
  3 90  1  0  0  0
  4  5  1  0  0  0
  4 91  1  0  0  0
  4 92  1  0  0  0
  5  6  1  0  0  0
  5 26  1  0  0  0
  5 93  1  0  0  0
  6 25  1  0  0  0
  6 94  1  0  0  0
  6 95  1  0  0  0
  7  8  2  0  0  0
  7 26  1  0  0  0
  7 29  1  0  0  0
  8  9  1  0  0  0
  8 22  1  0  0  0
  9 10  1  0  0  0
  9 27  2  0  0  0
 10 11  2  0  0  0
 10 15  1  0  0  0
 11 12  1  0  0  0
 11 96  1  0  0  0
 12 13  2  0  0  0
 12 97  1  0  0  0
 13 14  1  0  0  0
 13 31  1  0  0  0
 14 15  2  0  0  0
 14 98  1  0  0  0
 15 99  1  0  0  0
 16 17  2  0  0  0
 16 21  1  0  0  0
 16 31  1  0  0  0
 17 18  1  0  0  0
 17100  1  0  0  0
 18 19  2  0  0  0
 18101  1  0  0  0
 19 20  1  0  0  0
 19 24  1  0  0  0
 20 21  2  0  0  0
 20102  1  0  0  0
 21 23  1  0  0  0
 22 28  1  0  0  0
 22 32  2  0  0  0
 26 27  1  0  0  0
 28103  1  0  0  0
 28104  1  0  0  0
 29105  1  0  0  0
 29106  1  0  0  0
 33 34  1  0  0  0
 33 66  1  0  0  0
 33 70  2  0  0  0
 34 36  1  0  0  0
 34 59  1  0  0  0
 34107  1  0  0  0
 35 44  2  0  0  0
 35 45  1  0  0  0
 35 68  1  0  0  0
 36 56  1  0  0  0
 36108  1  0  0  0
 37 39  1  0  0  0
 37 47  1  0  0  0
 37 66  1  0  0  0
 37109  1  0  0  0
 38 43  2  0  0  0
 38 46  1  0  0  0
 38 47  1  0  0  0
 39 64  1  0  0  0
 39 67  2  0  0  0
 40 52  1  0  0  0
 40 53  2  0  0  0
 40 58  1  0  0  0
 41110  1  0  0  0
 41111  1  0  0  0
 41112  1  0  0  0
 41 48  1  0  0  0
 42 43  1  0  0  0
 42 66  1  0  0  0
 42113  1  0  0  0
 42114  1  0  0  0
 43 44  1  0  0  0
 44115  1  0  0  0
 45 46  2  0  0  0
 45116  1  0  0  0
 46117  1  0  0  0
 47118  1  0  0  0
 47119  1  0  0  0
 48 56  1  0  0  0
 48 65  1  0  0  0
 48120  1  0  0  0
 49 50  1  0  0  0
 49 53  1  0  0  0
 49 64  1  0  0  0
 49121  1  0  0  0
 50 51  1  0  0  0
 50122  1  0  0  0
 50123  1  0  0  0
 51 52  1  0  0  0
 51124  1  0  0  0
 51125  1  0  0  0
 52126  1  0  0  0
 52127  1  0  0  0
 53 54  1  0  0  0
 54 55  2  0  0  0
 54128  1  0  0  0
 55 57  1  0  0  0
 55129  1  0  0  0
 56 69  2  0  0  0
 57 58  2  0  0  0
 57130  1  0  0  0
 58131  1  0  0  0
 59 60  1  0  0  0
 59 61  1  0  0  0
 59 62  1  0  0  0
 60132  1  0  0  0
 60133  1  0  0  0
 60134  1  0  0  0
 61135  1  0  0  0
 61136  1  0  0  0
 61137  1  0  0  0
 62138  1  0  0  0
 62139  1  0  0  0
 62140  1  0  0  0
 63 65  1  0  0  0
 63141  1  0  0  0
 63142  1  0  0  0
 63143  1  0  0  0
 64144  1  0  0  0
 65145  1  0  0  0
 68 79  1  0  0  0
 71 72  2  0  0  0
 71 74  1  0  0  0
 71 80  1  0  0  0
 72 81  1  0  0  0
 72 86  1  0  0  0
 73 80  2  0  0  0
 73 82  1  0  0  0
 73 86  1  0  0  0
 74 77  1  0  0  0
 74 83  2  0  0  0
 75 76  1  0  0  0
 75 78  1  0  0  0
 75 84  2  0  0  0
 76 79  1  0  0  0
 76 85  2  0  0  0
 77 78  1  0  0  0
 77146  1  0  0  0
 77147  1  0  0  0
 78148  1  0  0  0
 78149  1  0  0  0
 79150  1  0  0  0
 79151  1  0  0  0
 81152  1  0  0  0
 81153  1  0  0  0
 82154  1  0  0  0
M  ISO  4   1 100  68 101  79 101  82 100
M  END
> <chiral flag>
0

> <version>
0

> <s_m_source_file>
/data/baiqing/PycharmProjects/Reinvent-master-3.2/result/LINK_invent/BTK/process_docking_weight1_custom_product_contain_oxygen_bond_distance_aromatic_linkinvent_7_9_3/rearranged_h_0175.sdf

> <i_m_source_file_index>
65

> <r_mmod_Potential_Energy-OPLS-2005>
37.127384185791

> <r_mmod_Stretch_Energy-OPLS-2005>
34.0318946838379

> <r_mmod_Bend_Energy-OPLS-2005>
96.8939437866211

> <r_mmod_Torsional_Energy-OPLS-2005>
261.404968261719

> <r_mmod_Improper_Torsional_Energy-OPLS-2005>
7.41031360626221

> <r_mmod_Van_der_Waal_Energy-OPLS-2005>
131.653259277344

> <r_mmod_Electrostatic_Energy-OPLS-2005>
-232.734802246094

> <r_mmod_Solvation_Energy-OPLS-2005>
-272.732177734375

> <b_mmod_Minimization_Converged-OPLS-2005>
0

> <r_mmod_RMS_Derivative-OPLS-2005>
2.9829683303833

$$$$
66
                    3D
 Structure written by MMmdl.
152160  0  0  1  0            999 V2000
  -30.7061  -14.5032   20.5714 C   0  0  0  0  0  0
  -30.4209  -12.3285   19.4274 C   0  0  0  0  0  0
  -29.4939  -12.5050   18.2081 C   0  0  0  0  0  0
  -28.0170  -12.3586   18.6236 C   0  0  0  0  0  0
  -27.6577  -13.2116   19.8699 C   0  0  2  0  0  0
  -28.7011  -13.0228   20.9944 C   0  0  0  0  0  0
  -25.2575  -13.8170   20.5685 C   0  0  0  0  0  0
  -24.1831  -13.0441   20.9181 C   0  0  0  0  0  0
  -24.6390  -11.6908   20.8734 C   0  0  0  0  0  0
  -23.9059  -10.4294   21.0401 C   0  0  0  0  0  0
  -24.3611   -9.4209   21.9180 C   0  0  0  0  0  0
  -23.6288   -8.2244   22.0751 C   0  0  0  0  0  0
  -22.4271   -8.0280   21.3543 C   0  0  0  0  0  0
  -21.9904   -9.0253   20.4647 C   0  0  0  0  0  0
  -22.7230  -10.2133   20.3054 C   0  0  0  0  0  0
  -21.6853   -6.0733   22.5278 C   0  0  0  0  0  0
  -21.4015   -6.5638   23.8211 C   0  0  0  0  0  0
  -21.3660   -5.6791   24.9174 C   0  0  0  0  0  0
  -21.6043   -4.3054   24.7225 C   0  0  0  0  0  0
  -21.8820   -3.8145   23.4347 C   0  0  0  0  0  0
  -21.9194   -4.6962   22.3403 C   0  0  0  0  0  0
  -22.7854  -13.5237   21.1843 C   0  0  0  0  0  0
  -22.1663   -4.2146   21.0981 F   0  0  0  0  0  0
  -21.5628   -3.4539   25.7739 F   0  0  0  0  0  0
  -30.0261  -13.3300   20.4330 N   0  0  0  0  0  0
  -26.3008  -12.9347   20.3352 N   0  0  0  0  0  0
  -25.9319  -11.6502   20.5759 N   0  0  0  0  0  0
  -22.0494  -12.8232   22.0400 N   0  0  0  0  0  0
  -25.4296  -15.1889   20.4101 N   0  0  0  0  0  0
  -31.8355  -14.6638   20.1009 O   0  0  0  0  0  0
  -21.6638   -6.8874   21.4240 O   0  0  0  0  0  0
  -22.3540  -14.5544   20.6693 O   0  0  0  0  0  0
  -24.6175  -31.8663   23.2091 C   0  0  0  0  0  0
  -25.9059  -32.4813   23.8390 C   0  0  1  0  0  0
  -27.2268  -27.4032   20.1043 C   0  0  0  0  0  0
  -25.5909  -33.8612   24.2319 N   0  0  0  0  0  0
  -23.4070  -30.4906   21.5498 C   0  0  2  0  0  0
  -24.8538  -28.9564   20.1120 C   0  0  0  0  0  0
  -22.7427  -29.4652   22.4973 C   0  0  0  0  0  0
  -18.0276  -28.1380   22.8490 C   0  0  0  0  0  0
  -24.1487  -36.7308   23.2636 C   0  0  0  0  0  0
  -25.9397  -30.8219   21.3687 C   0  0  0  0  0  0
  -26.0163  -29.4548   20.7149 C   0  0  0  0  0  0
  -27.2072  -28.6851   20.7094 C   0  0  0  0  0  0
  -26.0497  -26.9374   19.4768 C   0  0  0  0  0  0
  -24.8666  -27.6979   19.4886 C   0  0  0  0  0  0
  -23.6174  -29.8261   20.1635 C   0  0  0  0  0  0
  -25.4108  -36.3105   24.0335 C   0  0  1  0  0  0
  -20.5870  -28.3669   23.1310 C   0  0  2  0  0  0
  -20.6766  -26.9402   22.5418 C   0  0  0  0  0  0
  -19.5747  -26.6388   21.5210 C   0  0  0  0  0  0
  -18.1924  -26.7927   22.1619 C   0  0  0  0  0  0
  -19.1526  -28.8841   23.2898 C   0  0  0  0  0  0
  -18.9455  -30.1448   23.8909 C   0  0  0  0  0  0
  -17.6456  -30.6584   24.0566 C   0  0  0  0  0  0
  -25.9038  -34.9470   23.5123 C   0  0  0  0  0  0
  -16.5346  -29.9085   23.6328 C   0  0  0  0  0  0
  -16.7265  -28.6503   23.0347 C   0  0  0  0  0  0
  -26.4480  -31.6598   25.0726 C   0  0  0  0  0  0
  -25.3741  -31.3718   26.1474 C   0  0  0  0  0  0
  -27.0309  -30.3034   24.6122 C   0  0  0  0  0  0
  -27.6058  -32.4317   25.7483 C   0  0  0  0  0  0
  -27.5582  -37.1807   24.8461 C   0  0  0  0  0  0
  -21.4151  -29.3032   22.3712 N   0  0  0  0  0  0
  -26.4294  -37.3791   23.9409 N   0  0  0  0  0  0
  -24.6730  -31.0743   22.1005 N   0  0  0  0  0  0
  -23.4188  -28.8189   23.3021 O   0  0  0  0  0  0
  -28.3604  -26.6066   20.1210 O   0  0  0  0  0  0
  -26.5598  -34.8925   22.4684 O   0  0  0  0  0  0
  -23.5361  -32.1428   23.7468 O   0  0  0  0  0  0
  -31.5350  -19.4255   22.0203 C   0  0  0  0  0  0
  -32.2206  -18.2683   22.4302 C   0  0  0  0  0  0
  -30.3251  -19.3334   21.2900 C   0  0  0  0  0  0
  -30.5265  -16.8525   21.3772 C   0  0  0  0  0  0
  -31.7211  -16.9919   22.1230 C   0  0  0  0  0  0
  -29.8214  -18.0314   20.9897 C   0  0  0  0  0  0
  -28.1910  -25.2664   20.4508 C   0  0  0  0  0  0
  -29.1266  -24.3024   20.2678 C   0  0  0  0  0  0
  -28.8445  -22.8594   20.6359 C   0  0  0  0  0  0
  -30.0142  -21.7951   20.7793 C   0  0  0  0  0  0
  -29.5788  -20.5144   20.9237 N   0  0  0  0  0  0
  -30.0093  -15.5432   21.0826 N   0  0  0  0  0  0
  -27.6860  -22.4787   20.8519 O   0  0  0  0  0  0
  -31.2096  -22.1111   20.7650 O   0  0  0  0  0  0
  -30.3139  -24.6358   19.7395 O   0  0  0  0  0  0
  -32.3784  -15.9035   22.5933 F   0  0  0  0  0  0
  -28.6483  -17.9121   20.3195 F   0  0  0  0  0  0
  -31.4650  -12.4251   19.1246 H   0  0  0  0  0  0
  -30.3244  -11.3235   19.8408 H   0  0  0  0  0  0
  -29.7392  -11.7725   17.4380 H   0  0  0  0  0  0
  -29.6561  -13.4863   17.7596 H   0  0  0  0  0  0
  -27.8374  -11.3037   18.8345 H   0  0  0  0  0  0
  -27.3634  -12.6164   17.7894 H   0  0  0  0  0  0
  -27.6923  -14.2546   19.5544 H   0  0  0  0  0  0
  -28.6862  -11.9950   21.3598 H   0  0  0  0  0  0
  -28.4612  -13.6445   21.8581 H   0  0  0  0  0  0
  -25.2757   -9.5686   22.4752 H   0  0  0  0  0  0
  -24.0000   -7.4636   22.7469 H   0  0  0  0  0  0
  -21.0834   -8.8770   19.8953 H   0  0  0  0  0  0
  -22.3687  -10.9670   19.6162 H   0  0  0  0  0  0
  -21.2008   -7.6146   23.9714 H   0  0  0  0  0  0
  -21.1480   -6.0522   25.9076 H   0  0  0  0  0  0
  -22.0599   -2.7607   23.2850 H   0  0  0  0  0  0
  -22.4104  -11.9894   22.4793 H   0  0  0  0  0  0
  -21.1112  -13.1260   22.2600 H   0  0  0  0  0  0
  -24.6627  -15.8435   20.5187 H   0  0  0  0  0  0
  -26.2812  -15.6310   20.0872 H   0  0  0  0  0  0
  -26.7127  -32.5517   23.1147 H   0  0  0  0  0  0
  -25.0069  -33.9771   25.0473 H   0  0  0  0  0  0
  -22.6970  -31.3084   21.4108 H   0  0  0  0  0  0
  -23.3748  -35.9643   23.3304 H   0  0  0  0  0  0
  -24.3582  -36.8918   22.2050 H   0  0  0  0  0  0
  -23.7243  -37.6517   23.6647 H   0  0  0  0  0  0
  -26.0583  -31.5877   20.6008 H   0  0  0  0  0  0
  -26.8253  -30.8734   21.9903 H   0  0  0  0  0  0
  -28.1030  -29.0605   21.1842 H   0  0  0  0  0  0
  -26.0397  -25.9744   18.9857 H   0  0  0  0  0  0
  -23.9753  -27.3113   19.0138 H   0  0  0  0  0  0
  -23.7274  -30.6025   19.4055 H   0  0  0  0  0  0
  -22.7402  -29.2485   19.8662 H   0  0  0  0  0  0
  -25.1285  -36.1968   25.0829 H   0  0  0  0  0  0
  -20.9963  -28.3238   24.1429 H   0  0  0  0  0  0
  -20.5666  -26.2274   23.3606 H   0  0  0  0  0  0
  -21.6639  -26.7441   22.1214 H   0  0  0  0  0  0
  -19.6909  -25.6304   21.1230 H   0  0  0  0  0  0
  -19.6691  -27.3207   20.6748 H   0  0  0  0  0  0
  -17.4198  -26.6682   21.4016 H   0  0  0  0  0  0
  -18.0318  -26.0065   22.9008 H   0  0  0  0  0  0
  -19.7932  -30.7260   24.2282 H   0  0  0  0  0  0
  -17.5011  -31.6265   24.5166 H   0  0  0  0  0  0
  -15.5347  -30.2988   23.7650 H   0  0  0  0  0  0
  -15.8665  -28.0828   22.7053 H   0  0  0  0  0  0
  -24.5914  -30.7061   25.7818 H   0  0  0  0  0  0
  -24.8932  -32.2879   26.4913 H   0  0  0  0  0  0
  -25.8094  -30.8899   27.0236 H   0  0  0  0  0  0
  -26.2859  -29.6795   24.1170 H   0  0  0  0  0  0
  -27.4061  -29.7274   25.4591 H   0  0  0  0  0  0
  -27.8704  -30.4341   23.9288 H   0  0  0  0  0  0
  -27.2682  -33.3609   26.2087 H   0  0  0  0  0  0
  -28.3851  -32.6891   25.0298 H   0  0  0  0  0  0
  -28.0743  -31.8425   26.5377 H   0  0  0  0  0  0
  -28.2604  -38.0100   24.7510 H   0  0  0  0  0  0
  -28.1074  -36.2634   24.6280 H   0  0  0  0  0  0
  -27.2303  -37.1455   25.8865 H   0  0  0  0  0  0
  -20.9312  -29.8756   21.6936 H   0  0  0  0  0  0
  -26.0181  -38.2869   24.1412 H   0  0  0  0  0  0
  -31.9471  -20.3796   22.3114 H   0  0  0  0  0  0
  -33.1297  -18.3592   23.0065 H   0  0  0  0  0  0
  -27.2204  -25.0558   20.8834 H   0  0  0  0  0  0
  -28.5825  -20.3963   20.7860 H   0  0  0  0  0  0
  -29.0230  -15.4032   21.2315 H   0  0  0  0  0  0
  -30.2871  -25.5711   19.5806 H   0  0  0  0  0  0
  1 25  1  0  0  0
  1 30  2  0  0  0
  1 82  1  0  0  0
  2  3  1  0  0  0
  2 25  1  0  0  0
  2 88  1  0  0  0
  2 89  1  0  0  0
  3  4  1  0  0  0
  3 90  1  0  0  0
  3 91  1  0  0  0
  4  5  1  0  0  0
  4 92  1  0  0  0
  4 93  1  0  0  0
  5  6  1  0  0  0
  5 26  1  0  0  0
  5 94  1  0  0  0
  6 25  1  0  0  0
  6 95  1  0  0  0
  6 96  1  0  0  0
  7  8  2  0  0  0
  7 26  1  0  0  0
  7 29  1  0  0  0
  8  9  1  0  0  0
  8 22  1  0  0  0
  9 10  1  0  0  0
  9 27  2  0  0  0
 10 11  2  0  0  0
 10 15  1  0  0  0
 11 12  1  0  0  0
 11 97  1  0  0  0
 12 13  2  0  0  0
 12 98  1  0  0  0
 13 14  1  0  0  0
 13 31  1  0  0  0
 14 15  2  0  0  0
 14 99  1  0  0  0
 15100  1  0  0  0
 16 17  2  0  0  0
 16 21  1  0  0  0
 16 31  1  0  0  0
 17 18  1  0  0  0
 17101  1  0  0  0
 18 19  2  0  0  0
 18102  1  0  0  0
 19 20  1  0  0  0
 19 24  1  0  0  0
 20 21  2  0  0  0
 20103  1  0  0  0
 21 23  1  0  0  0
 22 28  1  0  0  0
 22 32  2  0  0  0
 26 27  1  0  0  0
 28104  1  0  0  0
 28105  1  0  0  0
 29106  1  0  0  0
 29107  1  0  0  0
 33 34  1  0  0  0
 33 66  1  0  0  0
 33 70  2  0  0  0
 34 36  1  0  0  0
 34 59  1  0  0  0
 34108  1  0  0  0
 35 44  2  0  0  0
 35 45  1  0  0  0
 35 68  1  0  0  0
 36 56  1  0  0  0
 36109  1  0  0  0
 37 39  1  0  0  0
 37 47  1  0  0  0
 37 66  1  0  0  0
 37110  1  0  0  0
 38 43  2  0  0  0
 38 46  1  0  0  0
 38 47  1  0  0  0
 39 64  1  0  0  0
 39 67  2  0  0  0
 40 52  1  0  0  0
 40 53  2  0  0  0
 40 58  1  0  0  0
 41111  1  0  0  0
 41112  1  0  0  0
 41113  1  0  0  0
 41 48  1  0  0  0
 42 43  1  0  0  0
 42 66  1  0  0  0
 42114  1  0  0  0
 42115  1  0  0  0
 43 44  1  0  0  0
 44116  1  0  0  0
 45 46  2  0  0  0
 45117  1  0  0  0
 46118  1  0  0  0
 47119  1  0  0  0
 47120  1  0  0  0
 48 56  1  0  0  0
 48 65  1  0  0  0
 48121  1  0  0  0
 49 50  1  0  0  0
 49 53  1  0  0  0
 49 64  1  0  0  0
 49122  1  0  0  0
 50 51  1  0  0  0
 50123  1  0  0  0
 50124  1  0  0  0
 51 52  1  0  0  0
 51125  1  0  0  0
 51126  1  0  0  0
 52127  1  0  0  0
 52128  1  0  0  0
 53 54  1  0  0  0
 54 55  2  0  0  0
 54129  1  0  0  0
 55 57  1  0  0  0
 55130  1  0  0  0
 56 69  2  0  0  0
 57 58  2  0  0  0
 57131  1  0  0  0
 58132  1  0  0  0
 59 60  1  0  0  0
 59 61  1  0  0  0
 59 62  1  0  0  0
 60133  1  0  0  0
 60134  1  0  0  0
 60135  1  0  0  0
 61136  1  0  0  0
 61137  1  0  0  0
 61138  1  0  0  0
 62139  1  0  0  0
 62140  1  0  0  0
 62141  1  0  0  0
 63 65  1  0  0  0
 63142  1  0  0  0
 63143  1  0  0  0
 63144  1  0  0  0
 64145  1  0  0  0
 65146  1  0  0  0
 68 77  1  0  0  0
 71 72  2  0  0  0
 71 73  1  0  0  0
 71147  1  0  0  0
 72 75  1  0  0  0
 72148  1  0  0  0
 73 76  2  0  0  0
 73 81  1  0  0  0
 74 75  2  0  0  0
 74 76  1  0  0  0
 74 82  1  0  0  0
 75 86  1  0  0  0
 76 87  1  0  0  0
 77 78  2  0  0  0
 77149  1  0  0  0
 78 79  1  0  0  0
 78 85  1  0  0  0
 79 80  1  0  0  0
 79 83  2  0  0  0
 80 81  1  0  0  0
 80 84  2  0  0  0
 81150  1  0  0  0
 82151  1  0  0  0
 85152  1  0  0  0
M  ISO  4   1 100  68 101  77 101  82 100
M  END
> <chiral flag>
0

> <version>
0

> <s_m_source_file>
/data/baiqing/PycharmProjects/Reinvent-master-3.2/result/LINK_invent/BTK/process_docking_weight1_custom_product_contain_oxygen_bond_distance_aromatic_linkinvent_7_9_3/rearranged_h_0175.sdf

> <i_m_source_file_index>
66

> <r_mmod_Potential_Energy-OPLS-2005>
-32.9733848571777

> <r_mmod_Stretch_Energy-OPLS-2005>
52.0320892333984

> <r_mmod_Bend_Energy-OPLS-2005>
101.154670715332

> <r_mmod_Torsional_Energy-OPLS-2005>
229.704711914062

> <r_mmod_Improper_Torsional_Energy-OPLS-2005>
4.26796960830688

> <r_mmod_Van_der_Waal_Energy-OPLS-2005>
167.009658813477

> <r_mmod_Electrostatic_Energy-OPLS-2005>
-381.743347167969

> <r_mmod_Solvation_Energy-OPLS-2005>
-223.942687988281

> <b_mmod_Minimization_Converged-OPLS-2005>
0

> <r_mmod_RMS_Derivative-OPLS-2005>
0.369520366191864

$$$$
67
                    3D
 Structure written by MMmdl.
151159  0  0  1  0            999 V2000
  -30.5668  -14.7675   20.4982 C   0  0  0  0  0  0
  -30.4434  -12.4796   19.4678 C   0  0  0  0  0  0
  -29.5115  -12.4982   18.2353 C   0  0  0  0  0  0
  -28.0409  -12.3040   18.6568 C   0  0  0  0  0  0
  -27.6396  -13.2166   19.8461 C   0  0  2  0  0  0
  -28.6795  -13.1545   20.9823 C   0  0  0  0  0  0
  -25.2531  -13.8150   20.5678 C   0  0  0  0  0  0
  -24.1805  -13.0418   20.9194 C   0  0  0  0  0  0
  -24.6378  -11.6889   20.8755 C   0  0  0  0  0  0
  -23.9043  -10.4279   21.0423 C   0  0  0  0  0  0
  -24.3611   -9.4194   21.9195 C   0  0  0  0  0  0
  -23.6293   -8.2231   22.0760 C   0  0  0  0  0  0
  -22.4274   -8.0284   21.3545 C   0  0  0  0  0  0
  -21.9903   -9.0243   20.4636 C   0  0  0  0  0  0
  -22.7221  -10.2124   20.3053 C   0  0  0  0  0  0
  -21.6864   -6.0735   22.5272 C   0  0  0  0  0  0
  -21.4005   -6.5636   23.8204 C   0  0  0  0  0  0
  -21.3653   -5.6794   24.9166 C   0  0  0  0  0  0
  -21.6054   -4.3062   24.7217 C   0  0  0  0  0  0
  -21.8817   -3.8145   23.4343 C   0  0  0  0  0  0
  -21.9186   -4.6961   22.3398 C   0  0  0  0  0  0
  -22.7828  -13.5217   21.1853 C   0  0  0  0  0  0
  -22.1666   -4.2144   21.0983 F   0  0  0  0  0  0
  -21.5627   -3.4546   25.7734 F   0  0  0  0  0  0
  -29.9711  -13.5315   20.3955 N   0  0  0  0  0  0
  -26.2924  -12.9327   20.3232 N   0  0  0  0  0  0
  -25.9298  -11.6488   20.5749 N   0  0  0  0  0  0
  -22.0486  -12.8204   22.0419 N   0  0  0  0  0  0
  -25.4214  -15.1881   20.4073 N   0  0  0  0  0  0
  -31.7693  -14.8959   20.2450 O   0  0  0  0  0  0
  -21.6646   -6.8877   21.4239 O   0  0  0  0  0  0
  -22.3513  -14.5528   20.6721 O   0  0  0  0  0  0
  -24.6309  -31.8549   23.1933 C   0  0  0  0  0  0
  -25.9131  -32.4759   23.8296 C   0  0  1  0  0  0
  -27.2240  -27.2777   20.1426 C   0  0  0  0  0  0
  -25.5919  -33.8548   24.2244 N   0  0  0  0  0  0
  -23.4266  -30.4751   21.5358 C   0  0  2  0  0  0
  -24.8725  -28.9153   20.1159 C   0  0  0  0  0  0
  -22.7492  -29.4592   22.4892 C   0  0  0  0  0  0
  -18.0288  -28.1397   22.8452 C   0  0  0  0  0  0
  -24.1483  -36.7282   23.2649 C   0  0  0  0  0  0
  -25.9669  -30.7795   21.3620 C   0  0  0  0  0  0
  -26.0440  -29.3978   20.7162 C   0  0  0  0  0  0
  -27.2238  -28.5922   20.7142 C   0  0  0  0  0  0
  -26.0350  -26.8492   19.5197 C   0  0  0  0  0  0
  -24.8735  -27.6483   19.5071 C   0  0  0  0  0  0
  -23.6413  -29.8014   20.1548 C   0  0  0  0  0  0
  -25.4111  -36.3084   24.0337 C   0  0  1  0  0  0
  -20.5888  -28.3692   23.1283 C   0  0  2  0  0  0
  -20.6763  -26.9402   22.5438 C   0  0  0  0  0  0
  -19.5765  -26.6388   21.5231 C   0  0  0  0  0  0
  -18.1932  -26.7928   22.1610 C   0  0  0  0  0  0
  -19.1532  -28.8854   23.2864 C   0  0  0  0  0  0
  -18.9475  -30.1453   23.8887 C   0  0  0  0  0  0
  -17.6478  -30.6592   24.0561 C   0  0  0  0  0  0
  -25.9045  -34.9446   23.5103 C   0  0  0  0  0  0
  -16.5357  -29.9097   23.6351 C   0  0  0  0  0  0
  -16.7270  -28.6534   23.0341 C   0  0  0  0  0  0
  -26.4499  -31.6582   25.0693 C   0  0  0  0  0  0
  -25.3716  -31.3739   26.1415 C   0  0  0  0  0  0
  -27.0347  -30.3017   24.6129 C   0  0  0  0  0  0
  -27.6056  -32.4317   25.7454 C   0  0  0  0  0  0
  -27.5568  -37.1791   24.8457 C   0  0  0  0  0  0
  -21.4200  -29.3043   22.3656 N   0  0  0  0  0  0
  -26.4277  -37.3788   23.9427 N   0  0  0  0  0  0
  -24.6945  -31.0532   22.0877 N   0  0  0  0  0  0
  -23.4198  -28.8131   23.2992 O   0  0  0  0  0  0
  -28.3340  -26.4174   20.1313 O   0  0  0  0  0  0
  -26.5645  -34.8932   22.4687 O   0  0  0  0  0  0
  -23.5474  -32.1339   23.7251 O   0  0  0  0  0  0
  -30.1925  -19.9566   22.0336 C   0  0  0  0  0  0
  -30.6368  -17.5406   22.1953 C   0  0  0  0  0  0
  -29.4811  -19.8183   20.8195 C   0  0  0  0  0  0
  -29.9370  -17.2800   20.9965 C   0  0  0  0  0  0
  -30.7511  -18.8496   22.7061 C   0  0  0  0  0  0
  -29.3497  -18.4399   20.3363 C   0  0  0  0  0  0
  -28.9022  -22.4157   20.6395 C   0  0  0  0  0  0
  -28.9487  -21.1130   20.1309 C   0  0  0  0  0  0
  -28.4441  -23.7442   19.9721 C   0  0  0  0  0  0
  -28.2370  -25.0868   20.8175 C   0  0  0  0  0  0
  -29.7212  -15.8680   20.5855 N   0  0  0  0  0  0
  -28.2056  -23.8161   18.7616 O   0  0  0  0  0  0
  -28.5291  -20.8751   18.8784 O   0  0  0  0  0  0
  -31.4080  -19.0506   23.8742 F   0  0  0  0  0  0
  -28.6338  -18.2222   19.2052 F   0  0  0  0  0  0
  -31.4800  -12.6440   19.1628 H   0  0  0  0  0  0
  -30.4241  -11.5057   19.9602 H   0  0  0  0  0  0
  -29.8049  -11.7165   17.5335 H   0  0  0  0  0  0
  -29.6189  -13.4447   17.7054 H   0  0  0  0  0  0
  -27.9200  -11.2588   18.9438 H   0  0  0  0  0  0
  -27.3756  -12.4655   17.8082 H   0  0  0  0  0  0
  -27.6301  -14.2324   19.4528 H   0  0  0  0  0  0
  -28.7308  -12.1530   21.4135 H   0  0  0  0  0  0
  -28.4055  -13.8276   21.7987 H   0  0  0  0  0  0
  -25.2750   -9.5687   22.4768 H   0  0  0  0  0  0
  -24.0002   -7.4624   22.7493 H   0  0  0  0  0  0
  -21.0830   -8.8746   19.8948 H   0  0  0  0  0  0
  -22.3673  -10.9664   19.6167 H   0  0  0  0  0  0
  -21.2006   -7.6141   23.9700 H   0  0  0  0  0  0
  -21.1482   -6.0530   25.9071 H   0  0  0  0  0  0
  -22.0606   -2.7605   23.2842 H   0  0  0  0  0  0
  -22.4112  -11.9837   22.4748 H   0  0  0  0  0  0
  -21.1114  -13.1224   22.2660 H   0  0  0  0  0  0
  -24.6492  -15.8364   20.5125 H   0  0  0  0  0  0
  -26.2522  -15.6266   20.0312 H   0  0  0  0  0  0
  -26.7176  -32.5400   23.1034 H   0  0  0  0  0  0
  -25.0064  -33.9657   25.0379 H   0  0  0  0  0  0
  -22.7251  -31.2984   21.3875 H   0  0  0  0  0  0
  -23.3763  -35.9591   23.3300 H   0  0  0  0  0  0
  -24.3602  -36.8930   22.2071 H   0  0  0  0  0  0
  -23.7215  -37.6474   23.6670 H   0  0  0  0  0  0
  -26.0882  -31.5318   20.5816 H   0  0  0  0  0  0
  -26.8515  -30.8438   21.9839 H   0  0  0  0  0  0
  -28.1240  -28.9611   21.1840 H   0  0  0  0  0  0
  -26.0015  -25.8792   19.0451 H   0  0  0  0  0  0
  -23.9773  -27.2794   19.0301 H   0  0  0  0  0  0
  -23.7568  -30.5725   19.3914 H   0  0  0  0  0  0
  -22.7605  -29.2297   19.8590 H   0  0  0  0  0  0
  -25.1292  -36.1939   25.0831 H   0  0  0  0  0  0
  -20.9977  -28.3246   24.1408 H   0  0  0  0  0  0
  -20.5700  -26.2262   23.3623 H   0  0  0  0  0  0
  -21.6608  -26.7444   22.1203 H   0  0  0  0  0  0
  -19.6910  -25.6330   21.1215 H   0  0  0  0  0  0
  -19.6689  -27.3212   20.6777 H   0  0  0  0  0  0
  -17.4198  -26.6691   21.4013 H   0  0  0  0  0  0
  -18.0289  -26.0101   22.9036 H   0  0  0  0  0  0
  -19.7960  -30.7276   24.2214 H   0  0  0  0  0  0
  -17.5044  -31.6260   24.5184 H   0  0  0  0  0  0
  -15.5365  -30.2999   23.7697 H   0  0  0  0  0  0
  -15.8672  -28.0879   22.7032 H   0  0  0  0  0  0
  -24.5876  -30.7095   25.7747 H   0  0  0  0  0  0
  -24.8904  -32.2906   26.4824 H   0  0  0  0  0  0
  -25.8031  -30.8930   27.0199 H   0  0  0  0  0  0
  -26.2908  -29.6746   24.1188 H   0  0  0  0  0  0
  -27.4122  -29.7313   25.4625 H   0  0  0  0  0  0
  -27.8721  -30.4362   23.9288 H   0  0  0  0  0  0
  -27.2675  -33.3634   26.1994 H   0  0  0  0  0  0
  -28.3850  -32.6845   25.0259 H   0  0  0  0  0  0
  -28.0694  -31.8452   26.5392 H   0  0  0  0  0  0
  -28.2583  -38.0091   24.7563 H   0  0  0  0  0  0
  -28.1085  -36.2648   24.6216 H   0  0  0  0  0  0
  -27.2308  -37.1352   25.8862 H   0  0  0  0  0  0
  -20.9364  -29.8814   21.6911 H   0  0  0  0  0  0
  -26.0166  -38.2859   24.1484 H   0  0  0  0  0  0
  -30.3301  -20.9294   22.4802 H   0  0  0  0  0  0
  -31.0604  -16.7285   22.7649 H   0  0  0  0  0  0
  -29.2421  -22.5632   21.6526 H   0  0  0  0  0  0
  -28.9960  -25.0832   21.5999 H   0  0  0  0  0  0
  -27.2792  -25.0166   21.3324 H   0  0  0  0  0  0
  -28.7545  -15.6408   20.4190 H   0  0  0  0  0  0
  -28.5759  -19.9329   18.7382 H   0  0  0  0  0  0
  1 25  1  0  0  0
  1 30  2  0  0  0
  1 81  1  0  0  0
  2  3  1  0  0  0
  2 25  1  0  0  0
  2 86  1  0  0  0
  2 87  1  0  0  0
  3  4  1  0  0  0
  3 88  1  0  0  0
  3 89  1  0  0  0
  4  5  1  0  0  0
  4 90  1  0  0  0
  4 91  1  0  0  0
  5  6  1  0  0  0
  5 26  1  0  0  0
  5 92  1  0  0  0
  6 25  1  0  0  0
  6 93  1  0  0  0
  6 94  1  0  0  0
  7  8  2  0  0  0
  7 26  1  0  0  0
  7 29  1  0  0  0
  8  9  1  0  0  0
  8 22  1  0  0  0
  9 10  1  0  0  0
  9 27  2  0  0  0
 10 11  2  0  0  0
 10 15  1  0  0  0
 11 12  1  0  0  0
 11 95  1  0  0  0
 12 13  2  0  0  0
 12 96  1  0  0  0
 13 14  1  0  0  0
 13 31  1  0  0  0
 14 15  2  0  0  0
 14 97  1  0  0  0
 15 98  1  0  0  0
 16 17  2  0  0  0
 16 21  1  0  0  0
 16 31  1  0  0  0
 17 18  1  0  0  0
 17 99  1  0  0  0
 18 19  2  0  0  0
 18100  1  0  0  0
 19 20  1  0  0  0
 19 24  1  0  0  0
 20 21  2  0  0  0
 20101  1  0  0  0
 21 23  1  0  0  0
 22 28  1  0  0  0
 22 32  2  0  0  0
 26 27  1  0  0  0
 28102  1  0  0  0
 28103  1  0  0  0
 29104  1  0  0  0
 29105  1  0  0  0
 33 34  1  0  0  0
 33 66  1  0  0  0
 33 70  2  0  0  0
 34 36  1  0  0  0
 34 59  1  0  0  0
 34106  1  0  0  0
 35 44  2  0  0  0
 35 45  1  0  0  0
 35 68  1  0  0  0
 36 56  1  0  0  0
 36107  1  0  0  0
 37 39  1  0  0  0
 37 47  1  0  0  0
 37 66  1  0  0  0
 37108  1  0  0  0
 38 43  2  0  0  0
 38 46  1  0  0  0
 38 47  1  0  0  0
 39 64  1  0  0  0
 39 67  2  0  0  0
 40 52  1  0  0  0
 40 53  2  0  0  0
 40 58  1  0  0  0
 41109  1  0  0  0
 41110  1  0  0  0
 41111  1  0  0  0
 41 48  1  0  0  0
 42 43  1  0  0  0
 42 66  1  0  0  0
 42112  1  0  0  0
 42113  1  0  0  0
 43 44  1  0  0  0
 44114  1  0  0  0
 45 46  2  0  0  0
 45115  1  0  0  0
 46116  1  0  0  0
 47117  1  0  0  0
 47118  1  0  0  0
 48 56  1  0  0  0
 48 65  1  0  0  0
 48119  1  0  0  0
 49 50  1  0  0  0
 49 53  1  0  0  0
 49 64  1  0  0  0
 49120  1  0  0  0
 50 51  1  0  0  0
 50121  1  0  0  0
 50122  1  0  0  0
 51 52  1  0  0  0
 51123  1  0  0  0
 51124  1  0  0  0
 52125  1  0  0  0
 52126  1  0  0  0
 53 54  1  0  0  0
 54 55  2  0  0  0
 54127  1  0  0  0
 55 57  1  0  0  0
 55128  1  0  0  0
 56 69  2  0  0  0
 57 58  2  0  0  0
 57129  1  0  0  0
 58130  1  0  0  0
 59 60  1  0  0  0
 59 61  1  0  0  0
 59 62  1  0  0  0
 60131  1  0  0  0
 60132  1  0  0  0
 60133  1  0  0  0
 61134  1  0  0  0
 61135  1  0  0  0
 61136  1  0  0  0
 62137  1  0  0  0
 62138  1  0  0  0
 62139  1  0  0  0
 63 65  1  0  0  0
 63140  1  0  0  0
 63141  1  0  0  0
 63142  1  0  0  0
 64143  1  0  0  0
 65144  1  0  0  0
 68 80  1  0  0  0
 71 73  2  0  0  0
 71 75  1  0  0  0
 71145  1  0  0  0
 72 74  1  0  0  0
 72 75  2  0  0  0
 72146  1  0  0  0
 73 76  1  0  0  0
 73 78  1  0  0  0
 74 76  2  0  0  0
 74 81  1  0  0  0
 75 84  1  0  0  0
 76 85  1  0  0  0
 77 78  2  0  0  0
 77 79  1  0  0  0
 77147  1  0  0  0
 78 83  1  0  0  0
 79 80  1  0  0  0
 79 82  2  0  0  0
 80148  1  0  0  0
 80149  1  0  0  0
 81150  1  0  0  0
 83151  1  0  0  0
M  ISO  4   1 100  68 101  80 101  81 100
M  END
> <chiral flag>
0

> <version>
0

> <s_m_source_file>
/data/baiqing/PycharmProjects/Reinvent-master-3.2/result/LINK_invent/BTK/process_docking_weight1_custom_product_contain_oxygen_bond_distance_aromatic_linkinvent_7_9_3/rearranged_h_0175.sdf

> <i_m_source_file_index>
67

> <r_mmod_Potential_Energy-OPLS-2005>
172.54719543457

> <r_mmod_Stretch_Energy-OPLS-2005>
125.074363708496

> <r_mmod_Bend_Energy-OPLS-2005>
149.531753540039

> <r_mmod_Torsional_Energy-OPLS-2005>
251.121490478516

> <r_mmod_Improper_Torsional_Energy-OPLS-2005>
8.26322937011719

> <r_mmod_Van_der_Waal_Energy-OPLS-2005>
135.598434448242

> <r_mmod_Electrostatic_Energy-OPLS-2005>
-340.457000732422

> <r_mmod_Solvation_Energy-OPLS-2005>
-244.031982421875

> <b_mmod_Minimization_Converged-OPLS-2005>
0

> <r_mmod_RMS_Derivative-OPLS-2005>
3.96556687355042

$$$$
68
                    3D
 Structure written by MMmdl.
158166  0  0  1  0            999 V2000
  -30.7368  -14.4920   20.5634 C   0  0  0  0  0  0
  -30.4098  -12.3188   19.4375 C   0  0  0  0  0  0
  -29.4914  -12.5021   18.2136 C   0  0  0  0  0  0
  -28.0152  -12.3600   18.6274 C   0  0  0  0  0  0
  -27.6565  -13.2189   19.8702 C   0  0  2  0  0  0
  -28.6994  -13.0479   20.9990 C   0  0  0  0  0  0
  -25.2561  -13.8188   20.5694 C   0  0  0  0  0  0
  -24.1827  -13.0448   20.9192 C   0  0  0  0  0  0
  -24.6398  -11.6920   20.8743 C   0  0  0  0  0  0
  -23.9069  -10.4298   21.0405 C   0  0  0  0  0  0
  -24.3619   -9.4211   21.9181 C   0  0  0  0  0  0
  -23.6295   -8.2246   22.0754 C   0  0  0  0  0  0
  -22.4277   -8.0284   21.3544 C   0  0  0  0  0  0
  -21.9913   -9.0258   20.4645 C   0  0  0  0  0  0
  -22.7242  -10.2137   20.3053 C   0  0  0  0  0  0
  -21.6853   -6.0737   22.5279 C   0  0  0  0  0  0
  -21.4014   -6.5638   23.8213 C   0  0  0  0  0  0
  -21.3658   -5.6791   24.9175 C   0  0  0  0  0  0
  -21.6044   -4.3055   24.7224 C   0  0  0  0  0  0
  -21.8819   -3.8148   23.4345 C   0  0  0  0  0  0
  -21.9193   -4.6964   22.3401 C   0  0  0  0  0  0
  -22.7848  -13.5235   21.1851 C   0  0  0  0  0  0
  -22.1663   -4.2149   21.0979 F   0  0  0  0  0  0
  -21.5627   -3.4538   25.7736 F   0  0  0  0  0  0
  -30.0285  -13.3334   20.4375 N   0  0  0  0  0  0
  -26.3004  -12.9383   20.3361 N   0  0  0  0  0  0
  -25.9330  -11.6531   20.5779 N   0  0  0  0  0  0
  -22.0489  -12.8224   22.0403 N   0  0  0  0  0  0
  -25.4272  -15.1904   20.4093 N   0  0  0  0  0  0
  -31.8623  -14.6099   20.0733 O   0  0  0  0  0  0
  -21.6643   -6.8881   21.4242 O   0  0  0  0  0  0
  -22.3532  -14.5540   20.6698 O   0  0  0  0  0  0
  -24.6178  -31.8670   23.2102 C   0  0  0  0  0  0
  -25.9065  -32.4815   23.8400 C   0  0  1  0  0  0
  -27.2206  -27.4004   20.1034 C   0  0  0  0  0  0
  -25.5915  -33.8615   24.2328 N   0  0  0  0  0  0
  -23.4070  -30.4934   21.5505 C   0  0  2  0  0  0
  -24.8530  -28.9642   20.1075 C   0  0  0  0  0  0
  -22.7431  -29.4658   22.4963 C   0  0  0  0  0  0
  -18.0278  -28.1379   22.8489 C   0  0  0  0  0  0
  -24.1489  -36.7305   23.2637 C   0  0  0  0  0  0
  -25.9413  -30.8210   21.3722 C   0  0  0  0  0  0
  -26.0157  -29.4552   20.7160 C   0  0  0  0  0  0
  -27.2031  -28.6790   20.7163 C   0  0  0  0  0  0
  -26.0477  -26.9557   19.4500 C   0  0  0  0  0  0
  -24.8656  -27.7147   19.4693 C   0  0  0  0  0  0
  -23.6169  -29.8334   20.1624 C   0  0  0  0  0  0
  -25.4109  -36.3105   24.0339 C   0  0  1  0  0  0
  -20.5874  -28.3672   23.1303 C   0  0  2  0  0  0
  -20.6766  -26.9405   22.5411 C   0  0  0  0  0  0
  -19.5743  -26.6388   21.5209 C   0  0  0  0  0  0
  -18.1924  -26.7926   22.1622 C   0  0  0  0  0  0
  -19.1530  -28.8841   23.2893 C   0  0  0  0  0  0
  -18.9456  -30.1446   23.8904 C   0  0  0  0  0  0
  -17.6458  -30.6582   24.0566 C   0  0  0  0  0  0
  -25.9041  -34.9472   23.5129 C   0  0  0  0  0  0
  -16.5348  -29.9083   23.6331 C   0  0  0  0  0  0
  -16.7267  -28.6502   23.0349 C   0  0  0  0  0  0
  -26.4482  -31.6596   25.0733 C   0  0  0  0  0  0
  -25.3746  -31.3706   26.1480 C   0  0  0  0  0  0
  -27.0315  -30.3032   24.6126 C   0  0  0  0  0  0
  -27.6057  -32.4316   25.7493 C   0  0  0  0  0  0
  -27.5584  -37.1803   24.8461 C   0  0  0  0  0  0
  -21.4155  -29.3038   22.3706 N   0  0  0  0  0  0
  -26.4290  -37.3795   23.9417 N   0  0  0  0  0  0
  -24.6735  -31.0752   22.1018 N   0  0  0  0  0  0
  -23.4194  -28.8193   23.3006 O   0  0  0  0  0  0
  -28.3402  -26.5813   20.1519 O   0  0  0  0  0  0
  -26.5593  -34.8925   22.4684 O   0  0  0  0  0  0
  -23.5363  -32.1435   23.7477 O   0  0  0  0  0  0
  -31.9762  -17.0959   21.5809 C   0  0  0  0  0  0
  -32.5443  -18.3773   21.5988 C   0  0  0  0  0  0
  -29.8068  -18.0612   20.9921 C   0  0  0  0  0  0
  -30.6213  -16.9030   21.2242 C   0  0  0  0  0  0
  -30.3780  -19.3804   21.0424 C   0  0  0  0  0  0
  -31.7685  -19.5056   21.2987 C   0  0  0  0  0  0
  -28.1185  -25.2326   20.4199 C   0  0  0  0  0  0
  -29.0624  -24.2623   20.4693 C   0  0  0  0  0  0
  -28.6584  -22.8283   20.7099 C   0  0  0  0  0  0
  -29.6786  -21.7931   21.3117 C   0  0  0  0  0  0
  -28.0925  -17.6192   19.1691 C   0  0  0  0  0  0
  -28.3273  -17.8786   20.6628 C   0  0  0  0  0  0
  -29.5876  -20.5555   20.7595 N   0  0  0  0  0  0
  -30.1027  -15.5570   21.1168 N   0  0  0  0  0  0
  -27.5134  -22.4336   20.4545 O   0  0  0  0  0  0
  -30.3971  -22.0796   22.2765 O   0  0  0  0  0  0
  -30.3580  -24.5588   20.2873 O   0  0  0  0  0  0
  -32.3981  -20.7025   21.2220 F   0  0  0  0  0  0
  -31.4565  -12.3889   19.1359 H   0  0  0  0  0  0
  -30.2931  -11.3186   19.8573 H   0  0  0  0  0  0
  -29.7359  -11.7685   17.4444 H   0  0  0  0  0  0
  -29.6583  -13.4834   17.7667 H   0  0  0  0  0  0
  -27.8342  -11.3060   18.8418 H   0  0  0  0  0  0
  -27.3620  -12.6144   17.7919 H   0  0  0  0  0  0
  -27.6877  -14.2599   19.5482 H   0  0  0  0  0  0
  -28.6769  -12.0290   21.3881 H   0  0  0  0  0  0
  -28.4627  -13.6936   21.8456 H   0  0  0  0  0  0
  -25.2765   -9.5688   22.4753 H   0  0  0  0  0  0
  -24.0005   -7.4637   22.7472 H   0  0  0  0  0  0
  -21.0845   -8.8776   19.8951 H   0  0  0  0  0  0
  -22.3701  -10.9674   19.6159 H   0  0  0  0  0  0
  -21.2005   -7.6146   23.9715 H   0  0  0  0  0  0
  -21.1478   -6.0521   25.9077 H   0  0  0  0  0  0
  -22.0598   -2.7611   23.2845 H   0  0  0  0  0  0
  -22.4103  -11.9881   22.4784 H   0  0  0  0  0  0
  -21.1106  -13.1250   22.2608 H   0  0  0  0  0  0
  -24.6576  -15.8430   20.5096 H   0  0  0  0  0  0
  -26.2723  -15.6236   20.0628 H   0  0  0  0  0  0
  -26.7134  -32.5520   23.1160 H   0  0  0  0  0  0
  -25.0090  -33.9775   25.0490 H   0  0  0  0  0  0
  -22.6972  -31.3119   21.4141 H   0  0  0  0  0  0
  -23.3754  -35.9634   23.3297 H   0  0  0  0  0  0
  -24.3592  -36.8919   22.2053 H   0  0  0  0  0  0
  -23.7232  -37.6509   23.6646 H   0  0  0  0  0  0
  -26.0639  -31.5880   20.6061 H   0  0  0  0  0  0
  -26.8260  -30.8689   21.9953 H   0  0  0  0  0  0
  -28.0948  -29.0436   21.2068 H   0  0  0  0  0  0
  -26.0325  -26.0051   18.9356 H   0  0  0  0  0  0
  -23.9767  -27.3369   18.9824 H   0  0  0  0  0  0
  -23.7271  -30.6122   19.4070 H   0  0  0  0  0  0
  -22.7397  -29.2568   19.8631 H   0  0  0  0  0  0
  -25.1282  -36.1969   25.0831 H   0  0  0  0  0  0
  -20.9973  -28.3238   24.1420 H   0  0  0  0  0  0
  -20.5674  -26.2277   23.3600 H   0  0  0  0  0  0
  -21.6635  -26.7446   22.1201 H   0  0  0  0  0  0
  -19.6905  -25.6303   21.1227 H   0  0  0  0  0  0
  -19.6684  -27.3207   20.6747 H   0  0  0  0  0  0
  -17.4197  -26.6680   21.4020 H   0  0  0  0  0  0
  -18.0323  -26.0064   22.9014 H   0  0  0  0  0  0
  -19.7933  -30.7257   24.2277 H   0  0  0  0  0  0
  -17.5016  -31.6263   24.5166 H   0  0  0  0  0  0
  -15.5349  -30.2987   23.7651 H   0  0  0  0  0  0
  -15.8668  -28.0825   22.7055 H   0  0  0  0  0  0
  -24.5916  -30.7057   25.7818 H   0  0  0  0  0  0
  -24.8943  -32.2864   26.4936 H   0  0  0  0  0  0
  -25.8102  -30.8870   27.0232 H   0  0  0  0  0  0
  -26.2862  -29.6793   24.1178 H   0  0  0  0  0  0
  -27.4074  -29.7271   25.4590 H   0  0  0  0  0  0
  -27.8707  -30.4343   23.9291 H   0  0  0  0  0  0
  -27.2677  -33.3614   26.2083 H   0  0  0  0  0  0
  -28.3857  -32.6881   25.0312 H   0  0  0  0  0  0
  -28.0734  -31.8433   26.5398 H   0  0  0  0  0  0
  -28.2588  -38.0115   24.7536 H   0  0  0  0  0  0
  -28.1094  -36.2648   24.6249 H   0  0  0  0  0  0
  -27.2309  -37.1407   25.8865 H   0  0  0  0  0  0
  -20.9313  -29.8771   21.6938 H   0  0  0  0  0  0
  -26.0178  -38.2871   24.1430 H   0  0  0  0  0  0
  -32.6170  -16.2565   21.8091 H   0  0  0  0  0  0
  -33.5951  -18.4963   21.8173 H   0  0  0  0  0  0
  -27.0789  -24.9943   20.6023 H   0  0  0  0  0  0
  -27.0300  -17.5005   18.9562 H   0  0  0  0  0  0
  -28.6008  -16.7131   18.8377 H   0  0  0  0  0  0
  -28.4602  -18.4471   18.5626 H   0  0  0  0  0  0
  -27.7547  -18.7492   20.9822 H   0  0  0  0  0  0
  -27.9216  -17.0541   21.2494 H   0  0  0  0  0  0
  -28.8247  -20.4522   20.1052 H   0  0  0  0  0  0
  -29.1352  -15.4134   21.3596 H   0  0  0  0  0  0
  -30.4060  -25.4956   20.1420 H   0  0  0  0  0  0
  1 25  1  0  0  0
  1 30  2  0  0  0
  1 84  1  0  0  0
  2  3  1  0  0  0
  2 25  1  0  0  0
  2 89  1  0  0  0
  2 90  1  0  0  0
  3  4  1  0  0  0
  3 91  1  0  0  0
  3 92  1  0  0  0
  4  5  1  0  0  0
  4 93  1  0  0  0
  4 94  1  0  0  0
  5  6  1  0  0  0
  5 26  1  0  0  0
  5 95  1  0  0  0
  6 25  1  0  0  0
  6 96  1  0  0  0
  6 97  1  0  0  0
  7  8  2  0  0  0
  7 26  1  0  0  0
  7 29  1  0  0  0
  8  9  1  0  0  0
  8 22  1  0  0  0
  9 10  1  0  0  0
  9 27  2  0  0  0
 10 11  2  0  0  0
 10 15  1  0  0  0
 11 12  1  0  0  0
 11 98  1  0  0  0
 12 13  2  0  0  0
 12 99  1  0  0  0
 13 14  1  0  0  0
 13 31  1  0  0  0
 14 15  2  0  0  0
 14100  1  0  0  0
 15101  1  0  0  0
 16 17  2  0  0  0
 16 21  1  0  0  0
 16 31  1  0  0  0
 17 18  1  0  0  0
 17102  1  0  0  0
 18 19  2  0  0  0
 18103  1  0  0  0
 19 20  1  0  0  0
 19 24  1  0  0  0
 20 21  2  0  0  0
 20104  1  0  0  0
 21 23  1  0  0  0
 22 28  1  0  0  0
 22 32  2  0  0  0
 26 27  1  0  0  0
 28105  1  0  0  0
 28106  1  0  0  0
 29107  1  0  0  0
 29108  1  0  0  0
 33 34  1  0  0  0
 33 66  1  0  0  0
 33 70  2  0  0  0
 34 36  1  0  0  0
 34 59  1  0  0  0
 34109  1  0  0  0
 35 44  2  0  0  0
 35 45  1  0  0  0
 35 68  1  0  0  0
 36 56  1  0  0  0
 36110  1  0  0  0
 37 39  1  0  0  0
 37 47  1  0  0  0
 37 66  1  0  0  0
 37111  1  0  0  0
 38 43  2  0  0  0
 38 46  1  0  0  0
 38 47  1  0  0  0
 39 64  1  0  0  0
 39 67  2  0  0  0
 40 52  1  0  0  0
 40 53  2  0  0  0
 40 58  1  0  0  0
 41112  1  0  0  0
 41113  1  0  0  0
 41114  1  0  0  0
 41 48  1  0  0  0
 42 43  1  0  0  0
 42 66  1  0  0  0
 42115  1  0  0  0
 42116  1  0  0  0
 43 44  1  0  0  0
 44117  1  0  0  0
 45 46  2  0  0  0
 45118  1  0  0  0
 46119  1  0  0  0
 47120  1  0  0  0
 47121  1  0  0  0
 48 56  1  0  0  0
 48 65  1  0  0  0
 48122  1  0  0  0
 49 50  1  0  0  0
 49 53  1  0  0  0
 49 64  1  0  0  0
 49123  1  0  0  0
 50 51  1  0  0  0
 50124  1  0  0  0
 50125  1  0  0  0
 51 52  1  0  0  0
 51126  1  0  0  0
 51127  1  0  0  0
 52128  1  0  0  0
 52129  1  0  0  0
 53 54  1  0  0  0
 54 55  2  0  0  0
 54130  1  0  0  0
 55 57  1  0  0  0
 55131  1  0  0  0
 56 69  2  0  0  0
 57 58  2  0  0  0
 57132  1  0  0  0
 58133  1  0  0  0
 59 60  1  0  0  0
 59 61  1  0  0  0
 59 62  1  0  0  0
 60134  1  0  0  0
 60135  1  0  0  0
 60136  1  0  0  0
 61137  1  0  0  0
 61138  1  0  0  0
 61139  1  0  0  0
 62140  1  0  0  0
 62141  1  0  0  0
 62142  1  0  0  0
 63 65  1  0  0  0
 63143  1  0  0  0
 63144  1  0  0  0
 63145  1  0  0  0
 64146  1  0  0  0
 65147  1  0  0  0
 68 77  1  0  0  0
 71 72  2  0  0  0
 71 74  1  0  0  0
 71148  1  0  0  0
 72 76  1  0  0  0
 72149  1  0  0  0
 73 74  2  0  0  0
 73 75  1  0  0  0
 73 82  1  0  0  0
 74 84  1  0  0  0
 75 76  2  0  0  0
 75 83  1  0  0  0
 76 88  1  0  0  0
 77 78  2  0  0  0
 77150  1  0  0  0
 78 79  1  0  0  0
 78 87  1  0  0  0
 79 80  1  0  0  0
 79 85  2  0  0  0
 80 83  1  0  0  0
 80 86  2  0  0  0
 81 82  1  0  0  0
 81151  1  0  0  0
 81152  1  0  0  0
 81153  1  0  0  0
 82154  1  0  0  0
 82155  1  0  0  0
 83156  1  0  0  0
 84157  1  0  0  0
 87158  1  0  0  0
M  ISO  4   1 100  68 101  77 101  84 100
M  END
> <chiral flag>
0

> <version>
0

> <s_m_source_file>
/data/baiqing/PycharmProjects/Reinvent-master-3.2/result/LINK_invent/BTK/process_docking_weight1_custom_product_contain_oxygen_bond_distance_aromatic_linkinvent_7_9_3/rearranged_h_0175.sdf

> <i_m_source_file_index>
68

> <r_mmod_Potential_Energy-OPLS-2005>
43.1459007263184

> <r_mmod_Stretch_Energy-OPLS-2005>
53.773853302002

> <r_mmod_Bend_Energy-OPLS-2005>
103.006011962891

> <r_mmod_Torsional_Energy-OPLS-2005>
235.680419921875

> <r_mmod_Improper_Torsional_Energy-OPLS-2005>
4.70506286621094

> <r_mmod_Van_der_Waal_Energy-OPLS-2005>
163.585983276367

> <r_mmod_Electrostatic_Energy-OPLS-2005>
-307.447784423828

> <r_mmod_Solvation_Energy-OPLS-2005>
-231.609756469727

> <b_mmod_Minimization_Converged-OPLS-2005>
0

> <r_mmod_RMS_Derivative-OPLS-2005>
0.437367647886276

$$$$
69
                    3D
 Structure written by MMmdl.
152160  0  0  1  0            999 V2000
  -30.6943  -14.4450   20.5961 C   0  0  0  0  0  0
  -30.4179  -12.2827   19.4374 C   0  0  0  0  0  0
  -29.5026  -12.5054   18.2149 C   0  0  0  0  0  0
  -28.0195  -12.3633   18.6156 C   0  0  0  0  0  0
  -27.6597  -13.2015   19.8725 C   0  0  2  0  0  0
  -28.6944  -12.9609   20.9974 C   0  0  0  0  0  0
  -25.2553  -13.8102   20.5688 C   0  0  0  0  0  0
  -24.1795  -13.0383   20.9113 C   0  0  0  0  0  0
  -24.6363  -11.6866   20.8678 C   0  0  0  0  0  0
  -23.9036  -10.4267   21.0358 C   0  0  0  0  0  0
  -24.3595   -9.4198   21.9152 C   0  0  0  0  0  0
  -23.6284   -8.2223   22.0738 C   0  0  0  0  0  0
  -22.4253   -8.0253   21.3544 C   0  0  0  0  0  0
  -21.9885   -9.0202   20.4622 C   0  0  0  0  0  0
  -22.7200  -10.2090   20.3020 C   0  0  0  0  0  0
  -21.6847   -6.0728   22.5289 C   0  0  0  0  0  0
  -21.4004   -6.5635   23.8219 C   0  0  0  0  0  0
  -21.3667   -5.6791   24.9185 C   0  0  0  0  0  0
  -21.6046   -4.3052   24.7234 C   0  0  0  0  0  0
  -21.8815   -3.8141   23.4353 C   0  0  0  0  0  0
  -21.9184   -4.6958   22.3407 C   0  0  0  0  0  0
  -22.7835  -13.5196   21.1825 C   0  0  0  0  0  0
  -22.1656   -4.2145   21.0985 F   0  0  0  0  0  0
  -21.5635   -3.4528   25.7746 F   0  0  0  0  0  0
  -30.0374  -13.2621   20.4644 N   0  0  0  0  0  0
  -26.2998  -12.9292   20.3328 N   0  0  0  0  0  0
  -25.9291  -11.6455   20.5708 N   0  0  0  0  0  0
  -22.0489  -12.8179   22.0395 N   0  0  0  0  0  0
  -25.4239  -15.1830   20.4299 N   0  0  0  0  0  0
  -31.7929  -14.6720   20.0841 O   0  0  0  0  0  0
  -21.6621   -6.8854   21.4249 O   0  0  0  0  0  0
  -22.3515  -14.5517   20.6709 O   0  0  0  0  0  0
  -24.6109  -31.8714   23.2101 C   0  0  0  0  0  0
  -25.9023  -32.4822   23.8406 C   0  0  1  0  0  0
  -27.2212  -27.4301   20.0872 C   0  0  0  0  0  0
  -25.5888  -33.8616   24.2320 N   0  0  0  0  0  0
  -23.3950  -30.4951   21.5516 C   0  0  2  0  0  0
  -24.8369  -28.9622   20.1144 C   0  0  0  0  0  0
  -22.7386  -29.4688   22.5016 C   0  0  0  0  0  0
  -18.0277  -28.1372   22.8512 C   0  0  0  0  0  0
  -24.1483  -36.7280   23.2636 C   0  0  0  0  0  0
  -25.9266  -30.8335   21.3649 C   0  0  0  0  0  0
  -25.9997  -29.4701   20.7063 C   0  0  0  0  0  0
  -27.1902  -28.7091   20.6918 C   0  0  0  0  0  0
  -26.0318  -26.9366   19.4985 C   0  0  0  0  0  0
  -24.8456  -27.6926   19.5144 C   0  0  0  0  0  0
  -23.5987  -29.8285   20.1666 C   0  0  0  0  0  0
  -25.4113  -36.3098   24.0337 C   0  0  1  0  0  0
  -20.5861  -28.3654   23.1341 C   0  0  2  0  0  0
  -20.6753  -26.9388   22.5444 C   0  0  0  0  0  0
  -19.5731  -26.6388   21.5227 C   0  0  0  0  0  0
  -18.1909  -26.7925   22.1637 C   0  0  0  0  0  0
  -19.1523  -28.8839   23.2923 C   0  0  0  0  0  0
  -18.9445  -30.1450   23.8917 C   0  0  0  0  0  0
  -17.6449  -30.6593   24.0567 C   0  0  0  0  0  0
  -25.9041  -34.9471   23.5122 C   0  0  0  0  0  0
  -16.5353  -29.9087   23.6316 C   0  0  0  0  0  0
  -16.7258  -28.6496   23.0352 C   0  0  0  0  0  0
  -26.4443  -31.6601   25.0732 C   0  0  0  0  0  0
  -25.3693  -31.3712   26.1464 C   0  0  0  0  0  0
  -27.0250  -30.3033   24.6126 C   0  0  0  0  0  0
  -27.6032  -32.4312   25.7482 C   0  0  0  0  0  0
  -27.5575  -37.1793   24.8474 C   0  0  0  0  0  0
  -21.4132  -29.3004   22.3719 N   0  0  0  0  0  0
  -26.4290  -37.3787   23.9408 N   0  0  0  0  0  0
  -24.6624  -31.0826   22.0987 N   0  0  0  0  0  0
  -23.4184  -28.8234   23.3048 O   0  0  0  0  0  0
  -28.4040  -26.7119   20.1071 O   0  0  0  0  0  0
  -26.5606  -34.8913   22.4684 O   0  0  0  0  0  0
  -23.5311  -32.1462   23.7500 O   0  0  0  0  0  0
  -28.6160  -18.7806   20.7108 C   0  0  0  0  0  0
  -31.0763  -17.5578   20.5895 C   0  0  0  0  0  0
  -29.9654  -16.7766   20.9640 C   0  0  0  0  0  0
  -28.7199  -17.4192   21.0333 C   0  0  0  0  0  0
  -29.7751  -19.4881   20.3380 C   0  0  0  0  0  0
  -29.7821  -23.1826   19.6730 C   0  0  0  0  0  0
  -29.7598  -21.9475   20.6193 C   0  0  0  0  0  0
  -29.6114  -24.5874   20.2716 C   0  0  0  0  0  0
  -28.3717  -25.3273   19.7289 C   0  0  0  0  0  0
  -30.9805  -18.8745   20.2813 N   0  0  0  0  0  0
  -30.0120  -15.3837   21.2689 N   0  0  0  0  0  0
  -29.6219  -20.8218   19.9050 N   0  0  0  0  0  0
  -29.9524  -23.0483   18.4540 O   0  0  0  0  0  0
  -29.8284  -22.0201   21.8528 O   0  0  0  0  0  0
  -27.6201  -16.7088   21.3791 F   0  0  0  0  0  0
  -31.4702  -12.3535   19.1605 H   0  0  0  0  0  0
  -30.2827  -11.2729   19.8294 H   0  0  0  0  0  0
  -29.7470  -11.7954   17.4237 H   0  0  0  0  0  0
  -29.6759  -13.4988   17.8014 H   0  0  0  0  0  0
  -27.8283  -11.3076   18.8134 H   0  0  0  0  0  0
  -27.3734  -12.6346   17.7781 H   0  0  0  0  0  0
  -27.7080  -14.2483   19.5748 H   0  0  0  0  0  0
  -28.6629  -11.9197   21.3200 H   0  0  0  0  0  0
  -28.4431  -13.5384   21.8865 H   0  0  0  0  0  0
  -25.2736   -9.5684   22.4720 H   0  0  0  0  0  0
  -23.9987   -7.4627   22.7466 H   0  0  0  0  0  0
  -21.0813   -8.8704   19.8938 H   0  0  0  0  0  0
  -22.3644  -10.9613   19.6112 H   0  0  0  0  0  0
  -21.1998   -7.6138   23.9728 H   0  0  0  0  0  0
  -21.1501   -6.0516   25.9091 H   0  0  0  0  0  0
  -22.0590   -2.7600   23.2851 H   0  0  0  0  0  0
  -22.4115  -11.9820   22.4745 H   0  0  0  0  0  0
  -21.1105  -13.1186   22.2616 H   0  0  0  0  0  0
  -24.6786  -15.8247   20.6715 H   0  0  0  0  0  0
  -26.3318  -15.6328   20.4018 H   0  0  0  0  0  0
  -26.7084  -32.5515   23.1149 H   0  0  0  0  0  0
  -25.0024  -33.9798   25.0457 H   0  0  0  0  0  0
  -22.6825  -31.3096   21.4157 H   0  0  0  0  0  0
  -23.3758  -35.9597   23.3316 H   0  0  0  0  0  0
  -24.3563  -36.8866   22.2041 H   0  0  0  0  0  0
  -23.7214  -37.6484   23.6637 H   0  0  0  0  0  0
  -26.0484  -31.6106   20.6091 H   0  0  0  0  0  0
  -26.8094  -30.8754   21.9907 H   0  0  0  0  0  0
  -28.0855  -29.0954   21.1559 H   0  0  0  0  0  0
  -25.9829  -25.9688   19.0241 H   0  0  0  0  0  0
  -23.9442  -27.2969   19.0659 H   0  0  0  0  0  0
  -23.6910  -30.5988   19.4002 H   0  0  0  0  0  0
  -22.7255  -29.2405   19.8808 H   0  0  0  0  0  0
  -25.1284  -36.1950   25.0832 H   0  0  0  0  0  0
  -20.9962  -28.3203   24.1456 H   0  0  0  0  0  0
  -20.5621  -26.2263   23.3618 H   0  0  0  0  0  0
  -21.6622  -26.7409   22.1249 H   0  0  0  0  0  0
  -19.6880  -25.6296   21.1231 H   0  0  0  0  0  0
  -19.6665  -27.3210   20.6758 H   0  0  0  0  0  0
  -17.4179  -26.6687   21.4036 H   0  0  0  0  0  0
  -18.0314  -26.0065   22.9032 H   0  0  0  0  0  0
  -19.7930  -30.7272   24.2277 H   0  0  0  0  0  0
  -17.5007  -31.6265   24.5158 H   0  0  0  0  0  0
  -15.5341  -30.2999   23.7629 H   0  0  0  0  0  0
  -15.8669  -28.0822   22.7064 H   0  0  0  0  0  0
  -24.5982  -30.6897   25.7831 H   0  0  0  0  0  0
  -24.8726  -32.2846   26.4764 H   0  0  0  0  0  0
  -25.8062  -30.9059   27.0308 H   0  0  0  0  0  0
  -26.2784  -29.6822   24.1160 H   0  0  0  0  0  0
  -27.3955  -29.7251   25.4599 H   0  0  0  0  0  0
  -27.8663  -30.4317   23.9300 H   0  0  0  0  0  0
  -27.2714  -33.3697   26.1939 H   0  0  0  0  0  0
  -28.3917  -32.6708   25.0328 H   0  0  0  0  0  0
  -28.0597  -31.8484   26.5487 H   0  0  0  0  0  0
  -28.2619  -38.0074   24.7522 H   0  0  0  0  0  0
  -28.1056  -36.2602   24.6315 H   0  0  0  0  0  0
  -27.2291  -37.1453   25.8883 H   0  0  0  0  0  0
  -20.9273  -29.8682   21.6915 H   0  0  0  0  0  0
  -26.0177  -38.2859   24.1433 H   0  0  0  0  0  0
  -27.6535  -19.2670   20.7320 H   0  0  0  0  0  0
  -32.0703  -17.1405   20.5324 H   0  0  0  0  0  0
  -29.5621  -24.5360   21.3596 H   0  0  0  0  0  0
  -30.5140  -25.1461   20.0249 H   0  0  0  0  0  0
  -27.4901  -24.8244   20.1309 H   0  0  0  0  0  0
  -28.3208  -25.2652   18.6401 H   0  0  0  0  0  0
  -29.1683  -15.0264   21.6916 H   0  0  0  0  0  0
  -29.5800  -20.9848   18.9097 H   0  0  0  0  0  0
  1 25  1  0  0  0
  1 30  2  0  0  0
  1 81  1  0  0  0
  2  3  1  0  0  0
  2 25  1  0  0  0
  2 86  1  0  0  0
  2 87  1  0  0  0
  3  4  1  0  0  0
  3 88  1  0  0  0
  3 89  1  0  0  0
  4  5  1  0  0  0
  4 90  1  0  0  0
  4 91  1  0  0  0
  5  6  1  0  0  0
  5 26  1  0  0  0
  5 92  1  0  0  0
  6 25  1  0  0  0
  6 93  1  0  0  0
  6 94  1  0  0  0
  7  8  2  0  0  0
  7 26  1  0  0  0
  7 29  1  0  0  0
  8  9  1  0  0  0
  8 22  1  0  0  0
  9 10  1  0  0  0
  9 27  2  0  0  0
 10 11  2  0  0  0
 10 15  1  0  0  0
 11 12  1  0  0  0
 11 95  1  0  0  0
 12 13  2  0  0  0
 12 96  1  0  0  0
 13 14  1  0  0  0
 13 31  1  0  0  0
 14 15  2  0  0  0
 14 97  1  0  0  0
 15 98  1  0  0  0
 16 17  2  0  0  0
 16 21  1  0  0  0
 16 31  1  0  0  0
 17 18  1  0  0  0
 17 99  1  0  0  0
 18 19  2  0  0  0
 18100  1  0  0  0
 19 20  1  0  0  0
 19 24  1  0  0  0
 20 21  2  0  0  0
 20101  1  0  0  0
 21 23  1  0  0  0
 22 28  1  0  0  0
 22 32  2  0  0  0
 26 27  1  0  0  0
 28102  1  0  0  0
 28103  1  0  0  0
 29104  1  0  0  0
 29105  1  0  0  0
 33 34  1  0  0  0
 33 66  1  0  0  0
 33 70  2  0  0  0
 34 36  1  0  0  0
 34 59  1  0  0  0
 34106  1  0  0  0
 35 44  2  0  0  0
 35 45  1  0  0  0
 35 68  1  0  0  0
 36 56  1  0  0  0
 36107  1  0  0  0
 37 39  1  0  0  0
 37 47  1  0  0  0
 37 66  1  0  0  0
 37108  1  0  0  0
 38 43  2  0  0  0
 38 46  1  0  0  0
 38 47  1  0  0  0
 39 64  1  0  0  0
 39 67  2  0  0  0
 40 52  1  0  0  0
 40 53  2  0  0  0
 40 58  1  0  0  0
 41109  1  0  0  0
 41110  1  0  0  0
 41111  1  0  0  0
 41 48  1  0  0  0
 42 43  1  0  0  0
 42 66  1  0  0  0
 42112  1  0  0  0
 42113  1  0  0  0
 43 44  1  0  0  0
 44114  1  0  0  0
 45 46  2  0  0  0
 45115  1  0  0  0
 46116  1  0  0  0
 47117  1  0  0  0
 47118  1  0  0  0
 48 56  1  0  0  0
 48 65  1  0  0  0
 48119  1  0  0  0
 49 50  1  0  0  0
 49 53  1  0  0  0
 49 64  1  0  0  0
 49120  1  0  0  0
 50 51  1  0  0  0
 50121  1  0  0  0
 50122  1  0  0  0
 51 52  1  0  0  0
 51123  1  0  0  0
 51124  1  0  0  0
 52125  1  0  0  0
 52126  1  0  0  0
 53 54  1  0  0  0
 54 55  2  0  0  0
 54127  1  0  0  0
 55 57  1  0  0  0
 55128  1  0  0  0
 56 69  2  0  0  0
 57 58  2  0  0  0
 57129  1  0  0  0
 58130  1  0  0  0
 59 60  1  0  0  0
 59 61  1  0  0  0
 59 62  1  0  0  0
 60131  1  0  0  0
 60132  1  0  0  0
 60133  1  0  0  0
 61134  1  0  0  0
 61135  1  0  0  0
 61136  1  0  0  0
 62137  1  0  0  0
 62138  1  0  0  0
 62139  1  0  0  0
 63 65  1  0  0  0
 63140  1  0  0  0
 63141  1  0  0  0
 63142  1  0  0  0
 64143  1  0  0  0
 65144  1  0  0  0
 68 79  1  0  0  0
 71 74  2  0  0  0
 71 75  1  0  0  0
 71145  1  0  0  0
 72 73  2  0  0  0
 72 80  1  0  0  0
 72146  1  0  0  0
 73 74  1  0  0  0
 73 81  1  0  0  0
 74 85  1  0  0  0
 75 80  2  0  0  0
 75 82  1  0  0  0
 76 77  1  0  0  0
 76 78  1  0  0  0
 76 83  2  0  0  0
 77 82  1  0  0  0
 77 84  2  0  0  0
 78 79  1  0  0  0
 78147  1  0  0  0
 78148  1  0  0  0
 79149  1  0  0  0
 79150  1  0  0  0
 81151  1  0  0  0
 82152  1  0  0  0
M  ISO  4   1 100  68 101  79 101  81 100
M  END
> <chiral flag>
0

> <version>
0

> <s_m_source_file>
/data/baiqing/PycharmProjects/Reinvent-master-3.2/result/LINK_invent/BTK/process_docking_weight1_custom_product_contain_oxygen_bond_distance_aromatic_linkinvent_7_9_3/rearranged_h_0175.sdf

> <i_m_source_file_index>
69

> <r_mmod_Potential_Energy-OPLS-2005>
-373.374603271484

> <r_mmod_Stretch_Energy-OPLS-2005>
35.1526985168457

> <r_mmod_Bend_Energy-OPLS-2005>
102.703895568848

> <r_mmod_Torsional_Energy-OPLS-2005>
254.550827026367

> <r_mmod_Improper_Torsional_Energy-OPLS-2005>
6.4797887802124

> <r_mmod_Van_der_Waal_Energy-OPLS-2005>
162.293151855469

> <r_mmod_Electrostatic_Energy-OPLS-2005>
-707.746704101562

> <r_mmod_Solvation_Energy-OPLS-2005>
-238.455200195312

> <b_mmod_Minimization_Converged-OPLS-2005>
0

> <r_mmod_RMS_Derivative-OPLS-2005>
4.10580110549927

$$$$
70
                    3D
 Structure written by MMmdl.
163171  0  0  1  0            999 V2000
  -30.7539  -14.4688   20.6271 C   0  0  0  0  0  0
  -30.4144  -12.3233   19.4384 C   0  0  0  0  0  0
  -29.4951  -12.5233   18.2163 C   0  0  0  0  0  0
  -28.0133  -12.3862   18.6160 C   0  0  0  0  0  0
  -27.6608  -13.2142   19.8784 C   0  0  2  0  0  0
  -28.6986  -12.9749   20.9961 C   0  0  0  0  0  0
  -25.2556  -13.8172   20.5662 C   0  0  0  0  0  0
  -24.1829  -13.0444   20.9195 C   0  0  0  0  0  0
  -24.6390  -11.6914   20.8723 C   0  0  0  0  0  0
  -23.9061  -10.4292   21.0371 C   0  0  0  0  0  0
  -24.3617   -9.4212   21.9144 C   0  0  0  0  0  0
  -23.6297   -8.2242   22.0721 C   0  0  0  0  0  0
  -22.4264   -8.0289   21.3534 C   0  0  0  0  0  0
  -21.9882   -9.0261   20.4636 C   0  0  0  0  0  0
  -22.7206  -10.2141   20.3050 C   0  0  0  0  0  0
  -21.6848   -6.0747   22.5284 C   0  0  0  0  0  0
  -21.4018   -6.5646   23.8220 C   0  0  0  0  0  0
  -21.3652   -5.6799   24.9181 C   0  0  0  0  0  0
  -21.6034   -4.3061   24.7215 C   0  0  0  0  0  0
  -21.8818   -3.8151   23.4339 C   0  0  0  0  0  0
  -21.9183   -4.6974   22.3401 C   0  0  0  0  0  0
  -22.7852  -13.5231   21.1862 C   0  0  0  0  0  0
  -22.1648   -4.2158   21.0977 F   0  0  0  0  0  0
  -21.5626   -3.4549   25.7727 F   0  0  0  0  0  0
  -30.0326  -13.3126   20.4677 N   0  0  0  0  0  0
  -26.3005  -12.9361   20.3351 N   0  0  0  0  0  0
  -25.9319  -11.6516   20.5755 N   0  0  0  0  0  0
  -22.0500  -12.8244   22.0457 N   0  0  0  0  0  0
  -25.4209  -15.1888   20.3986 N   0  0  0  0  0  0
  -31.8237  -14.6141   20.0257 O   0  0  0  0  0  0
  -21.6634   -6.8883   21.4237 O   0  0  0  0  0  0
  -22.3530  -14.5513   20.6660 O   0  0  0  0  0  0
  -24.6140  -31.8681   23.2101 C   0  0  0  0  0  0
  -25.9034  -32.4822   23.8393 C   0  0  1  0  0  0
  -27.2213  -27.4323   20.0973 C   0  0  0  0  0  0
  -25.5889  -33.8621   24.2334 N   0  0  0  0  0  0
  -23.4024  -30.4928   21.5514 C   0  0  2  0  0  0
  -24.8470  -28.9639   20.1080 C   0  0  0  0  0  0
  -22.7411  -29.4663   22.4986 C   0  0  0  0  0  0
  -18.0270  -28.1388   22.8500 C   0  0  0  0  0  0
  -24.1486  -36.7321   23.2639 C   0  0  0  0  0  0
  -25.9321  -30.8337   21.3625 C   0  0  0  0  0  0
  -26.0095  -29.4708   20.7045 C   0  0  0  0  0  0
  -27.2045  -28.7141   20.6939 C   0  0  0  0  0  0
  -26.0483  -26.9469   19.4822 C   0  0  0  0  0  0
  -24.8615  -27.7020   19.4900 C   0  0  0  0  0  0
  -23.6099  -29.8304   20.1635 C   0  0  0  0  0  0
  -25.4104  -36.3114   24.0340 C   0  0  1  0  0  0
  -20.5867  -28.3664   23.1324 C   0  0  2  0  0  0
  -20.6769  -26.9404   22.5416 C   0  0  0  0  0  0
  -19.5743  -26.6395   21.5219 C   0  0  0  0  0  0
  -18.1919  -26.7939   22.1630 C   0  0  0  0  0  0
  -19.1522  -28.8845   23.2910 C   0  0  0  0  0  0
  -18.9456  -30.1461   23.8905 C   0  0  0  0  0  0
  -17.6456  -30.6592   24.0576 C   0  0  0  0  0  0
  -25.9026  -34.9476   23.5132 C   0  0  0  0  0  0
  -16.5348  -29.9094   23.6339 C   0  0  0  0  0  0
  -16.7260  -28.6517   23.0345 C   0  0  0  0  0  0
  -26.4457  -31.6592   25.0715 C   0  0  0  0  0  0
  -25.3728  -31.3699   26.1469 C   0  0  0  0  0  0
  -27.0288  -30.3039   24.6088 C   0  0  0  0  0  0
  -27.6040  -32.4303   25.7472 C   0  0  0  0  0  0
  -27.5584  -37.1815   24.8465 C   0  0  0  0  0  0
  -21.4141  -29.3026   22.3726 N   0  0  0  0  0  0
  -26.4290  -37.3803   23.9413 N   0  0  0  0  0  0
  -24.6683  -31.0785   22.0998 N   0  0  0  0  0  0
  -23.4182  -28.8192   23.3018 O   0  0  0  0  0  0
  -28.3483  -26.6379   20.1290 O   0  0  0  0  0  0
  -26.5601  -34.8921   22.4700 O   0  0  0  0  0  0
  -23.5335  -32.1416   23.7502 O   0  0  0  0  0  0
  -28.1063  -17.6279   21.0124 C   0  0  0  0  0  0
  -27.0754  -18.5833   20.9618 C   0  0  0  0  0  0
  -29.4603  -18.0038   20.8461 C   0  0  0  0  0  0
  -28.7064  -20.3609   20.5736 C   0  0  0  0  0  0
  -27.3642  -19.9399   20.7340 C   0  0  0  0  0  0
  -29.7376  -19.3856   20.6075 C   0  0  0  0  0  0
  -28.5386  -22.8284   20.8837 C   0  0  0  0  0  0
  -28.6703  -25.7869   22.3433 C   0  0  0  0  0  0
  -29.7694  -15.4508   22.6804 C   0  0  0  0  0  0
  -28.9137  -24.2113   20.2880 C   0  0  0  0  0  0
  -30.5847  -16.9274   20.8632 C   0  0  1  0  0  0
  -28.1895  -25.4392   20.9220 C   0  0  2  0  0  0
  -31.8712  -17.3870   21.6182 C   0  0  0  0  0  0
  -29.0411  -21.7266   20.2879 N   0  0  0  0  0  0
  -30.1894  -15.5372   21.2701 N   0  0  0  0  0  0
  -27.8278  -22.7596   21.8883 O   0  0  0  0  0  0
  -26.3349  -20.8138   20.6202 F   0  0  0  0  0  0
  -31.0038  -19.8097   20.3914 F   0  0  0  0  0  0
  -32.7037  -18.0222   20.7949 F   0  0  0  0  0  0
  -32.5579  -16.3815   22.1638 F   0  0  0  0  0  0
  -31.4605  -12.3958   19.1352 H   0  0  0  0  0  0
  -30.3074  -11.3124   19.8365 H   0  0  0  0  0  0
  -29.7390  -11.7987   17.4388 H   0  0  0  0  0  0
  -29.6695  -13.5096   17.7819 H   0  0  0  0  0  0
  -27.8155  -11.3312   18.8050 H   0  0  0  0  0  0
  -27.3659  -12.6705   17.7854 H   0  0  0  0  0  0
  -27.7076  -14.2669   19.5988 H   0  0  0  0  0  0
  -28.6869  -11.9269   21.2984 H   0  0  0  0  0  0
  -28.4164  -13.5095   21.8944 H   0  0  0  0  0  0
  -25.2770   -9.5717   22.4712 H   0  0  0  0  0  0
  -24.0028   -7.4623   22.7430 H   0  0  0  0  0  0
  -21.0788   -8.8792   19.8972 H   0  0  0  0  0  0
  -22.3627  -10.9695   19.6207 H   0  0  0  0  0  0
  -21.2023   -7.6154   23.9738 H   0  0  0  0  0  0
  -21.1474   -6.0523   25.9088 H   0  0  0  0  0  0
  -22.0593   -2.7615   23.2833 H   0  0  0  0  0  0
  -22.4108  -11.9932   22.4914 H   0  0  0  0  0  0
  -21.1131  -13.1297   22.2681 H   0  0  0  0  0  0
  -24.6390  -15.8276   20.4866 H   0  0  0  0  0  0
  -26.2453  -15.6217   20.0060 H   0  0  0  0  0  0
  -26.7103  -32.5524   23.1153 H   0  0  0  0  0  0
  -25.0027  -33.9797   25.0473 H   0  0  0  0  0  0
  -22.6916  -31.3099   21.4151 H   0  0  0  0  0  0
  -23.3736  -35.9671   23.3315 H   0  0  0  0  0  0
  -24.3575  -36.8914   22.2051 H   0  0  0  0  0  0
  -23.7246  -37.6537   23.6635 H   0  0  0  0  0  0
  -26.0477  -31.6010   20.5959 H   0  0  0  0  0  0
  -26.8196  -30.8832   21.9810 H   0  0  0  0  0  0
  -28.0998  -29.0975   21.1639 H   0  0  0  0  0  0
  -26.0481  -25.9743   19.0100 H   0  0  0  0  0  0
  -23.9690  -27.3082   19.0222 H   0  0  0  0  0  0
  -23.7171  -30.6080   19.4060 H   0  0  0  0  0  0
  -22.7335  -29.2510   19.8663 H   0  0  0  0  0  0
  -25.1278  -36.1979   25.0834 H   0  0  0  0  0  0
  -20.9969  -28.3224   24.1441 H   0  0  0  0  0  0
  -20.5690  -26.2267   23.3597 H   0  0  0  0  0  0
  -21.6637  -26.7452   22.1198 H   0  0  0  0  0  0
  -19.6896  -25.6309   21.1236 H   0  0  0  0  0  0
  -19.6689  -27.3224   20.6763 H   0  0  0  0  0  0
  -17.4199  -26.6699   21.4023 H   0  0  0  0  0  0
  -18.0308  -26.0084   22.9026 H   0  0  0  0  0  0
  -19.7929  -30.7288   24.2266 H   0  0  0  0  0  0
  -17.5008  -31.6272   24.5175 H   0  0  0  0  0  0
  -15.5352  -30.2997   23.7661 H   0  0  0  0  0  0
  -15.8661  -28.0846   22.7037 H   0  0  0  0  0  0
  -24.5901  -30.7042   25.7805 H   0  0  0  0  0  0
  -24.8917  -32.2860   26.4920 H   0  0  0  0  0  0
  -25.8084  -30.8862   27.0224 H   0  0  0  0  0  0
  -26.2834  -29.6807   24.1142 H   0  0  0  0  0  0
  -27.4061  -29.7259   25.4531 H   0  0  0  0  0  0
  -27.8662  -30.4358   23.9237 H   0  0  0  0  0  0
  -27.2670  -33.3591   26.2091 H   0  0  0  0  0  0
  -28.3832  -32.6885   25.0287 H   0  0  0  0  0  0
  -28.0735  -31.8402   26.5355 H   0  0  0  0  0  0
  -28.2607  -38.0112   24.7521 H   0  0  0  0  0  0
  -28.1073  -36.2640   24.6273 H   0  0  0  0  0  0
  -27.2307  -37.1458   25.8873 H   0  0  0  0  0  0
  -20.9288  -29.8740   21.6956 H   0  0  0  0  0  0
  -26.0173  -38.2878   24.1424 H   0  0  0  0  0  0
  -27.8272  -16.5979   21.1608 H   0  0  0  0  0  0
  -26.0481  -18.2686   21.0805 H   0  0  0  0  0  0
  -28.4797  -24.9775   23.0467 H   0  0  0  0  0  0
  -28.1494  -26.6630   22.7295 H   0  0  0  0  0  0
  -29.7394  -25.9988   22.3604 H   0  0  0  0  0  0
  -30.0792  -16.3272   23.2484 H   0  0  0  0  0  0
  -30.2020  -14.5841   23.1815 H   0  0  0  0  0  0
  -28.6883  -15.4034   22.7821 H   0  0  0  0  0  0
  -28.6622  -24.1780   19.2274 H   0  0  0  0  0  0
  -29.9942  -24.3452   20.3443 H   0  0  0  0  0  0
  -30.8573  -16.8714   19.8074 H   0  0  0  0  0  0
  -27.1334  -25.1734   21.0004 H   0  0  0  0  0  0
  -31.6347  -18.0657   22.4391 H   0  0  0  0  0  0
  -29.7720  -21.8696   19.6045 H   0  0  0  0  0  0
  1 25  1  0  0  0
  1 30  2  0  0  0
  1 85  1  0  0  0
  2  3  1  0  0  0
  2 25  1  0  0  0
  2 91  1  0  0  0
  2 92  1  0  0  0
  3  4  1  0  0  0
  3 93  1  0  0  0
  3 94  1  0  0  0
  4  5  1  0  0  0
  4 95  1  0  0  0
  4 96  1  0  0  0
  5  6  1  0  0  0
  5 26  1  0  0  0
  5 97  1  0  0  0
  6 25  1  0  0  0
  6 98  1  0  0  0
  6 99  1  0  0  0
  7  8  2  0  0  0
  7 26  1  0  0  0
  7 29  1  0  0  0
  8  9  1  0  0  0
  8 22  1  0  0  0
  9 10  1  0  0  0
  9 27  2  0  0  0
 10 11  2  0  0  0
 10 15  1  0  0  0
 11 12  1  0  0  0
 11100  1  0  0  0
 12 13  2  0  0  0
 12101  1  0  0  0
 13 14  1  0  0  0
 13 31  1  0  0  0
 14 15  2  0  0  0
 14102  1  0  0  0
 15103  1  0  0  0
 16 17  2  0  0  0
 16 21  1  0  0  0
 16 31  1  0  0  0
 17 18  1  0  0  0
 17104  1  0  0  0
 18 19  2  0  0  0
 18105  1  0  0  0
 19 20  1  0  0  0
 19 24  1  0  0  0
 20 21  2  0  0  0
 20106  1  0  0  0
 21 23  1  0  0  0
 22 28  1  0  0  0
 22 32  2  0  0  0
 26 27  1  0  0  0
 28107  1  0  0  0
 28108  1  0  0  0
 29109  1  0  0  0
 29110  1  0  0  0
 33 34  1  0  0  0
 33 66  1  0  0  0
 33 70  2  0  0  0
 34 36  1  0  0  0
 34 59  1  0  0  0
 34111  1  0  0  0
 35 44  2  0  0  0
 35 45  1  0  0  0
 35 68  1  0  0  0
 36 56  1  0  0  0
 36112  1  0  0  0
 37 39  1  0  0  0
 37 47  1  0  0  0
 37 66  1  0  0  0
 37113  1  0  0  0
 38 43  2  0  0  0
 38 46  1  0  0  0
 38 47  1  0  0  0
 39 64  1  0  0  0
 39 67  2  0  0  0
 40 52  1  0  0  0
 40 53  2  0  0  0
 40 58  1  0  0  0
 41114  1  0  0  0
 41115  1  0  0  0
 41116  1  0  0  0
 41 48  1  0  0  0
 42 43  1  0  0  0
 42 66  1  0  0  0
 42117  1  0  0  0
 42118  1  0  0  0
 43 44  1  0  0  0
 44119  1  0  0  0
 45 46  2  0  0  0
 45120  1  0  0  0
 46121  1  0  0  0
 47122  1  0  0  0
 47123  1  0  0  0
 48 56  1  0  0  0
 48 65  1  0  0  0
 48124  1  0  0  0
 49 50  1  0  0  0
 49 53  1  0  0  0
 49 64  1  0  0  0
 49125  1  0  0  0
 50 51  1  0  0  0
 50126  1  0  0  0
 50127  1  0  0  0
 51 52  1  0  0  0
 51128  1  0  0  0
 51129  1  0  0  0
 52130  1  0  0  0
 52131  1  0  0  0
 53 54  1  0  0  0
 54 55  2  0  0  0
 54132  1  0  0  0
 55 57  1  0  0  0
 55133  1  0  0  0
 56 69  2  0  0  0
 57 58  2  0  0  0
 57134  1  0  0  0
 58135  1  0  0  0
 59 60  1  0  0  0
 59 61  1  0  0  0
 59 62  1  0  0  0
 60136  1  0  0  0
 60137  1  0  0  0
 60138  1  0  0  0
 61139  1  0  0  0
 61140  1  0  0  0
 61141  1  0  0  0
 62142  1  0  0  0
 62143  1  0  0  0
 62144  1  0  0  0
 63 65  1  0  0  0
 63145  1  0  0  0
 63146  1  0  0  0
 63147  1  0  0  0
 64148  1  0  0  0
 65149  1  0  0  0
 68 82  1  0  0  0
 71 72  2  0  0  0
 71 73  1  0  0  0
 71150  1  0  0  0
 72 75  1  0  0  0
 72151  1  0  0  0
 73 76  2  0  0  0
 73 81  1  0  0  0
 74 75  2  0  0  0
 74 76  1  0  0  0
 74 84  1  0  0  0
 75 87  1  0  0  0
 76 88  1  0  0  0
 77 80  1  0  0  0
 77 84  1  0  0  0
 77 86  2  0  0  0
 78152  1  0  0  0
 78153  1  0  0  0
 78154  1  0  0  0
 78 82  1  0  0  0
 79 85  1  0  0  0
 79155  1  0  0  0
 79156  1  0  0  0
 79157  1  0  0  0
 80 82  1  0  0  0
 80158  1  0  0  0
 80159  1  0  0  0
 81 83  1  0  0  0
 81 85  1  0  0  0
 81160  1  0  0  0
 82161  1  0  0  0
 83 89  1  0  0  0
 83 90  1  0  0  0
 83162  1  0  0  0
 84163  1  0  0  0
M  ISO  4   1 100  68 101  82 101  85 100
M  END
> <chiral flag>
0

> <version>
0

> <s_m_source_file>
/data/baiqing/PycharmProjects/Reinvent-master-3.2/result/LINK_invent/BTK/process_docking_weight1_custom_product_contain_oxygen_bond_distance_aromatic_linkinvent_7_9_3/rearranged_h_0175.sdf

> <i_m_source_file_index>
70

> <r_mmod_Potential_Energy-OPLS-2005>
67.5342330932617

> <r_mmod_Stretch_Energy-OPLS-2005>
52.2125663757324

> <r_mmod_Bend_Energy-OPLS-2005>
112.00936126709

> <r_mmod_Torsional_Energy-OPLS-2005>
307.836456298828

> <r_mmod_Improper_Torsional_Energy-OPLS-2005>
7.6833963394165

> <r_mmod_Van_der_Waal_Energy-OPLS-2005>
173.54150390625

> <r_mmod_Electrostatic_Energy-OPLS-2005>
-389.922485351562

> <r_mmod_Solvation_Energy-OPLS-2005>
-209.95263671875

> <b_mmod_Minimization_Converged-OPLS-2005>
0

> <r_mmod_RMS_Derivative-OPLS-2005>
2.44750714302063

$$$$
71
                    3D
 Structure written by MMmdl.
161169  0  0  1  0            999 V2000
  -30.7215  -14.3889   20.6295 C   0  0  0  0  0  0
  -30.4259  -12.2753   19.4032 C   0  0  0  0  0  0
  -29.4961  -12.5096   18.1961 C   0  0  0  0  0  0
  -28.0135  -12.3854   18.6033 C   0  0  0  0  0  0
  -27.6685  -13.1994   19.8792 C   0  0  2  0  0  0
  -28.7051  -12.9225   20.9910 C   0  0  0  0  0  0
  -25.2640  -13.8153   20.5696 C   0  0  0  0  0  0
  -24.1854  -13.0443   20.9133 C   0  0  0  0  0  0
  -24.6387  -11.6901   20.8694 C   0  0  0  0  0  0
  -23.9051  -10.4297   21.0386 C   0  0  0  0  0  0
  -24.3609   -9.4223   21.9177 C   0  0  0  0  0  0
  -23.6283   -8.2260   22.0761 C   0  0  0  0  0  0
  -22.4270   -8.0291   21.3549 C   0  0  0  0  0  0
  -21.9892   -9.0265   20.4659 C   0  0  0  0  0  0
  -22.7219  -10.2137   20.3058 C   0  0  0  0  0  0
  -21.6854   -6.0735   22.5279 C   0  0  0  0  0  0
  -21.4016   -6.5634   23.8214 C   0  0  0  0  0  0
  -21.3656   -5.6784   24.9171 C   0  0  0  0  0  0
  -21.6048   -4.3049   24.7219 C   0  0  0  0  0  0
  -21.8826   -3.8141   23.4343 C   0  0  0  0  0  0
  -21.9197   -4.6959   22.3401 C   0  0  0  0  0  0
  -22.7890  -13.5271   21.1816 C   0  0  0  0  0  0
  -22.1678   -4.2152   21.0973 F   0  0  0  0  0  0
  -21.5613   -3.4535   25.7730 F   0  0  0  0  0  0
  -30.0451  -13.2258   20.4559 N   0  0  0  0  0  0
  -26.3056  -12.9301   20.3366 N   0  0  0  0  0  0
  -25.9310  -11.6467   20.5712 N   0  0  0  0  0  0
  -22.0504  -12.8300   22.0365 N   0  0  0  0  0  0
  -25.4410  -15.1873   20.4229 N   0  0  0  0  0  0
  -31.8143  -14.6189   20.1004 O   0  0  0  0  0  0
  -21.6643   -6.8887   21.4243 O   0  0  0  0  0  0
  -22.3593  -14.5594   20.6671 O   0  0  0  0  0  0
  -24.6103  -31.8709   23.2142 C   0  0  0  0  0  0
  -25.9017  -32.4841   23.8416 C   0  0  1  0  0  0
  -27.2310  -27.4746   20.0825 C   0  0  0  0  0  0
  -25.5885  -33.8638   24.2351 N   0  0  0  0  0  0
  -23.3949  -30.4950   21.5551 C   0  0  2  0  0  0
  -24.8381  -28.9641   20.1187 C   0  0  0  0  0  0
  -22.7381  -29.4667   22.5027 C   0  0  0  0  0  0
  -18.0264  -28.1367   22.8495 C   0  0  0  0  0  0
  -24.1485  -36.7324   23.2639 C   0  0  0  0  0  0
  -25.9198  -30.8483   21.3593 C   0  0  0  0  0  0
  -25.9976  -29.4856   20.7067 C   0  0  0  0  0  0
  -27.1989  -28.7491   20.6818 C   0  0  0  0  0  0
  -26.0557  -26.9531   19.4976 C   0  0  0  0  0  0
  -24.8601  -27.6942   19.5139 C   0  0  0  0  0  0
  -23.5996  -29.8277   20.1691 C   0  0  0  0  0  0
  -25.4103  -36.3126   24.0345 C   0  0  1  0  0  0
  -20.5846  -28.3642   23.1339 C   0  0  2  0  0  0
  -20.6754  -26.9385   22.5423 C   0  0  0  0  0  0
  -19.5736  -26.6378   21.5213 C   0  0  0  0  0  0
  -18.1913  -26.7914   22.1623 C   0  0  0  0  0  0
  -19.1511  -28.8823   23.2913 C   0  0  0  0  0  0
  -18.9445  -30.1431   23.8926 C   0  0  0  0  0  0
  -17.6449  -30.6579   24.0568 C   0  0  0  0  0  0
  -25.9024  -34.9488   23.5146 C   0  0  0  0  0  0
  -16.5336  -29.9083   23.6320 C   0  0  0  0  0  0
  -16.7253  -28.6492   23.0347 C   0  0  0  0  0  0
  -26.4466  -31.6608   25.0726 C   0  0  0  0  0  0
  -25.3759  -31.3686   26.1496 C   0  0  0  0  0  0
  -27.0289  -30.3063   24.6056 C   0  0  0  0  0  0
  -27.6054  -32.4315   25.7479 C   0  0  0  0  0  0
  -27.5581  -37.1816   24.8463 C   0  0  0  0  0  0
  -21.4113  -29.3024   22.3767 N   0  0  0  0  0  0
  -26.4291  -37.3804   23.9412 N   0  0  0  0  0  0
  -24.6603  -31.0841   22.1024 N   0  0  0  0  0  0
  -23.4178  -28.8208   23.3048 O   0  0  0  0  0  0
  -28.4157  -26.7838   20.0554 O   0  0  0  0  0  0
  -26.5584  -34.8931   22.4705 O   0  0  0  0  0  0
  -23.5308  -32.1449   23.7563 O   0  0  0  0  0  0
  -31.0623  -18.9912   20.9749 C   0  0  0  0  0  0
  -29.7264  -18.8686   20.6722 C   0  0  0  0  0  0
  -29.2663  -17.5340   20.8627 C   0  0  0  0  0  0
  -30.2385  -16.6373   21.2162 C   0  0  0  0  0  0
  -28.8994  -19.9811   20.2288 C   0  0  0  0  0  0
  -28.5903  -24.4421   19.3659 C   0  0  0  0  0  0
  -29.2024  -23.0814   19.7712 C   0  0  0  0  0  0
  -27.6009  -19.9642   17.3002 C   0  0  0  0  0  0
  -29.9330  -20.4840   16.4786 C   0  0  0  0  0  0
  -28.3533  -25.4321   20.5129 C   0  0  0  0  0  0
  -29.4380  -20.7319   18.9757 C   0  0  1  0  0  0
  -29.0998  -19.9665   17.6645 C   0  0  0  0  0  0
  -30.0696  -15.3042   21.3568 N   0  0  0  0  0  0
  -28.9506  -22.1116   18.8818 N   0  0  0  0  0  0
  -27.8219  -20.2861   20.7517 O   0  0  0  0  0  0
  -28.2958  -24.7111   18.1930 O   0  0  0  0  0  0
  -29.8714  -22.9170   20.7961 O   0  0  0  0  0  0
  -28.0243  -17.1715   20.6306 F   0  0  0  0  0  0
  -31.7649  -17.4661   21.4413 S   0  0  0  0  0  0
  -31.4701  -12.3778   19.1017 H   0  0  0  0  0  0
  -30.3266  -11.2531   19.7698 H   0  0  0  0  0  0
  -29.7253  -11.7970   17.4028 H   0  0  0  0  0  0
  -29.6799  -13.5003   17.7777 H   0  0  0  0  0  0
  -27.8009  -11.3283   18.7669 H   0  0  0  0  0  0
  -27.3743  -12.6991   17.7769 H   0  0  0  0  0  0
  -27.7275  -14.2556   19.6116 H   0  0  0  0  0  0
  -28.6695  -11.8705   21.2767 H   0  0  0  0  0  0
  -28.4624  -13.4715   21.9013 H   0  0  0  0  0  0
  -25.2754   -9.5703   22.4755 H   0  0  0  0  0  0
  -23.9990   -7.4669   22.7497 H   0  0  0  0  0  0
  -21.0813   -8.8786   19.8993 H   0  0  0  0  0  0
  -22.3665  -10.9672   19.6180 H   0  0  0  0  0  0
  -21.2015   -7.6142   23.9714 H   0  0  0  0  0  0
  -21.1474   -6.0516   25.9076 H   0  0  0  0  0  0
  -22.0608   -2.7606   23.2840 H   0  0  0  0  0  0
  -22.4062  -11.9940   22.4765 H   0  0  0  0  0  0
  -21.1160  -13.1416   22.2575 H   0  0  0  0  0  0
  -24.6901  -15.8479   20.5864 H   0  0  0  0  0  0
  -26.3180  -15.6403   20.1923 H   0  0  0  0  0  0
  -26.7089  -32.5569   23.1182 H   0  0  0  0  0  0
  -25.0054  -33.9808   25.0509 H   0  0  0  0  0  0
  -22.6818  -31.3109   21.4194 H   0  0  0  0  0  0
  -23.3742  -35.9660   23.3312 H   0  0  0  0  0  0
  -24.3581  -36.8924   22.2050 H   0  0  0  0  0  0
  -23.7240  -37.6535   23.6642 H   0  0  0  0  0  0
  -26.0256  -31.6162   20.5922 H   0  0  0  0  0  0
  -26.8100  -30.9026   21.9737 H   0  0  0  0  0  0
  -28.0984  -29.1530   21.1257 H   0  0  0  0  0  0
  -26.0610  -25.9881   19.0119 H   0  0  0  0  0  0
  -23.9680  -27.2888   19.0561 H   0  0  0  0  0  0
  -23.7056  -30.6033   19.4094 H   0  0  0  0  0  0
  -22.7232  -29.2469   19.8749 H   0  0  0  0  0  0
  -25.1273  -36.2002   25.0837 H   0  0  0  0  0  0
  -20.9930  -28.3198   24.1462 H   0  0  0  0  0  0
  -20.5648  -26.2250   23.3602 H   0  0  0  0  0  0
  -21.6631  -26.7436   22.1224 H   0  0  0  0  0  0
  -19.6901  -25.6297   21.1227 H   0  0  0  0  0  0
  -19.6676  -27.3202   20.6754 H   0  0  0  0  0  0
  -17.4184  -26.6659   21.4025 H   0  0  0  0  0  0
  -18.0315  -26.0048   22.9011 H   0  0  0  0  0  0
  -19.7922  -30.7231   24.2311 H   0  0  0  0  0  0
  -17.5008  -31.6263   24.5153 H   0  0  0  0  0  0
  -15.5341  -30.2997   23.7625 H   0  0  0  0  0  0
  -15.8647  -28.0821   22.7056 H   0  0  0  0  0  0
  -24.5916  -30.7047   25.7843 H   0  0  0  0  0  0
  -24.8972  -32.2833   26.4999 H   0  0  0  0  0  0
  -25.8141  -30.8820   27.0221 H   0  0  0  0  0  0
  -26.2811  -29.6827   24.1140 H   0  0  0  0  0  0
  -27.4123  -29.7284   25.4477 H   0  0  0  0  0  0
  -27.8619  -30.4405   23.9151 H   0  0  0  0  0  0
  -27.2685  -33.3599   26.2099 H   0  0  0  0  0  0
  -28.3837  -32.6897   25.0287 H   0  0  0  0  0  0
  -28.0753  -31.8416   26.5359 H   0  0  0  0  0  0
  -28.2603  -38.0109   24.7514 H   0  0  0  0  0  0
  -28.1072  -36.2643   24.6279 H   0  0  0  0  0  0
  -27.2305  -37.1460   25.8868 H   0  0  0  0  0  0
  -20.9265  -29.8767   21.7015 H   0  0  0  0  0  0
  -26.0187  -38.2886   24.1412 H   0  0  0  0  0  0
  -31.6796  -19.8801   20.9493 H   0  0  0  0  0  0
  -27.4210  -19.3513   16.4159 H   0  0  0  0  0  0
  -27.2312  -20.9659   17.0785 H   0  0  0  0  0  0
  -26.9864  -19.5530   18.1017 H   0  0  0  0  0  0
  -29.7246  -19.9140   15.5721 H   0  0  0  0  0  0
  -31.0015  -20.3940   16.6764 H   0  0  0  0  0  0
  -29.7241  -21.5320   16.2625 H   0  0  0  0  0  0
  -29.1253  -25.3028   21.2713 H   0  0  0  0  0  0
  -27.4001  -25.2074   20.9943 H   0  0  0  0  0  0
  -30.5240  -20.7951   19.0570 H   0  0  0  0  0  0
  -29.3923  -18.9241   17.8085 H   0  0  0  0  0  0
  -29.1635  -15.0059   21.6845 H   0  0  0  0  0  0
  -28.3922  -22.3664   18.0791 H   0  0  0  0  0  0
  1 25  1  0  0  0
  1 30  2  0  0  0
  1 83  1  0  0  0
  2  3  1  0  0  0
  2 25  1  0  0  0
  2 90  1  0  0  0
  2 91  1  0  0  0
  3  4  1  0  0  0
  3 92  1  0  0  0
  3 93  1  0  0  0
  4  5  1  0  0  0
  4 94  1  0  0  0
  4 95  1  0  0  0
  5  6  1  0  0  0
  5 26  1  0  0  0
  5 96  1  0  0  0
  6 25  1  0  0  0
  6 97  1  0  0  0
  6 98  1  0  0  0
  7  8  2  0  0  0
  7 26  1  0  0  0
  7 29  1  0  0  0
  8  9  1  0  0  0
  8 22  1  0  0  0
  9 10  1  0  0  0
  9 27  2  0  0  0
 10 11  2  0  0  0
 10 15  1  0  0  0
 11 12  1  0  0  0
 11 99  1  0  0  0
 12 13  2  0  0  0
 12100  1  0  0  0
 13 14  1  0  0  0
 13 31  1  0  0  0
 14 15  2  0  0  0
 14101  1  0  0  0
 15102  1  0  0  0
 16 17  2  0  0  0
 16 21  1  0  0  0
 16 31  1  0  0  0
 17 18  1  0  0  0
 17103  1  0  0  0
 18 19  2  0  0  0
 18104  1  0  0  0
 19 20  1  0  0  0
 19 24  1  0  0  0
 20 21  2  0  0  0
 20105  1  0  0  0
 21 23  1  0  0  0
 22 28  1  0  0  0
 22 32  2  0  0  0
 26 27  1  0  0  0
 28106  1  0  0  0
 28107  1  0  0  0
 29108  1  0  0  0
 29109  1  0  0  0
 33 34  1  0  0  0
 33 66  1  0  0  0
 33 70  2  0  0  0
 34 36  1  0  0  0
 34 59  1  0  0  0
 34110  1  0  0  0
 35 44  2  0  0  0
 35 45  1  0  0  0
 35 68  1  0  0  0
 36 56  1  0  0  0
 36111  1  0  0  0
 37 39  1  0  0  0
 37 47  1  0  0  0
 37 66  1  0  0  0
 37112  1  0  0  0
 38 43  2  0  0  0
 38 46  1  0  0  0
 38 47  1  0  0  0
 39 64  1  0  0  0
 39 67  2  0  0  0
 40 52  1  0  0  0
 40 53  2  0  0  0
 40 58  1  0  0  0
 41113  1  0  0  0
 41114  1  0  0  0
 41115  1  0  0  0
 41 48  1  0  0  0
 42 43  1  0  0  0
 42 66  1  0  0  0
 42116  1  0  0  0
 42117  1  0  0  0
 43 44  1  0  0  0
 44118  1  0  0  0
 45 46  2  0  0  0
 45119  1  0  0  0
 46120  1  0  0  0
 47121  1  0  0  0
 47122  1  0  0  0
 48 56  1  0  0  0
 48 65  1  0  0  0
 48123  1  0  0  0
 49 50  1  0  0  0
 49 53  1  0  0  0
 49 64  1  0  0  0
 49124  1  0  0  0
 50 51  1  0  0  0
 50125  1  0  0  0
 50126  1  0  0  0
 51 52  1  0  0  0
 51127  1  0  0  0
 51128  1  0  0  0
 52129  1  0  0  0
 52130  1  0  0  0
 53 54  1  0  0  0
 54 55  2  0  0  0
 54131  1  0  0  0
 55 57  1  0  0  0
 55132  1  0  0  0
 56 69  2  0  0  0
 57 58  2  0  0  0
 57133  1  0  0  0
 58134  1  0  0  0
 59 60  1  0  0  0
 59 61  1  0  0  0
 59 62  1  0  0  0
 60135  1  0  0  0
 60136  1  0  0  0
 60137  1  0  0  0
 61138  1  0  0  0
 61139  1  0  0  0
 61140  1  0  0  0
 62141  1  0  0  0
 62142  1  0  0  0
 62143  1  0  0  0
 63 65  1  0  0  0
 63144  1  0  0  0
 63145  1  0  0  0
 63146  1  0  0  0
 64147  1  0  0  0
 65148  1  0  0  0
 68 80  1  0  0  0
 71 72  2  0  0  0
 71 89  1  0  0  0
 71149  1  0  0  0
 72 73  1  0  0  0
 72 75  1  0  0  0
 73 74  2  0  0  0
 73 88  1  0  0  0
 74 83  1  0  0  0
 74 89  1  0  0  0
 75 81  1  0  0  0
 75 85  2  0  0  0
 76 77  1  0  0  0
 76 80  1  0  0  0
 76 86  2  0  0  0
 77 84  1  0  0  0
 77 87  2  0  0  0
 78150  1  0  0  0
 78151  1  0  0  0
 78152  1  0  0  0
 78 82  1  0  0  0
 79 82  1  0  0  0
 79153  1  0  0  0
 79154  1  0  0  0
 79155  1  0  0  0
 80156  1  0  0  0
 80157  1  0  0  0
 81 82  1  0  0  0
 81 84  1  0  0  0
 81158  1  0  0  0
 82159  1  0  0  0
 83160  1  0  0  0
 84161  1  0  0  0
M  ISO  4   1 100  68 101  80 101  83 100
M  END
> <chiral flag>
0

> <version>
0

> <s_m_source_file>
/data/baiqing/PycharmProjects/Reinvent-master-3.2/result/LINK_invent/BTK/process_docking_weight1_custom_product_contain_oxygen_bond_distance_aromatic_linkinvent_7_9_3/rearranged_h_0175.sdf

> <i_m_source_file_index>
71

> <r_mmod_Potential_Energy-OPLS-2005>
-74.5359649658203

> <r_mmod_Stretch_Energy-OPLS-2005>
32.889533996582

> <r_mmod_Bend_Energy-OPLS-2005>
95.3686752319336

> <r_mmod_Torsional_Energy-OPLS-2005>
276.891815185547

> <r_mmod_Improper_Torsional_Energy-OPLS-2005>
4.59921741485596

> <r_mmod_Van_der_Waal_Energy-OPLS-2005>
136.055435180664

> <r_mmod_Electrostatic_Energy-OPLS-2005>
-397.259979248047

> <r_mmod_Solvation_Energy-OPLS-2005>
-230.960723876953

> <b_mmod_Minimization_Converged-OPLS-2005>
0

> <r_mmod_RMS_Derivative-OPLS-2005>
1.77478218078613

$$$$
72
                    3D
 Structure written by MMmdl.
161169  0  0  1  0            999 V2000
  -30.7157  -14.4200   20.6737 C   0  0  0  0  0  0
  -30.4316  -12.3116   19.3967 C   0  0  0  0  0  0
  -29.4928  -12.5193   18.1887 C   0  0  0  0  0  0
  -28.0136  -12.3787   18.6006 C   0  0  0  0  0  0
  -27.6638  -13.1931   19.8727 C   0  0  2  0  0  0
  -28.7029  -12.9236   20.9852 C   0  0  0  0  0  0
  -25.2541  -13.7944   20.5534 C   0  0  0  0  0  0
  -24.1805  -13.0288   20.9162 C   0  0  0  0  0  0
  -24.6384  -11.6766   20.8728 C   0  0  0  0  0  0
  -23.9028  -10.4189   21.0419 C   0  0  0  0  0  0
  -24.3577   -9.4105   21.9200 C   0  0  0  0  0  0
  -23.6226   -8.2150   22.0773 C   0  0  0  0  0  0
  -22.4208   -8.0221   21.3558 C   0  0  0  0  0  0
  -21.9850   -9.0197   20.4645 C   0  0  0  0  0  0
  -22.7206  -10.2053   20.3063 C   0  0  0  0  0  0
  -21.6795   -6.0677   22.5291 C   0  0  0  0  0  0
  -21.3960   -6.5579   23.8228 C   0  0  0  0  0  0
  -21.3654   -5.6742   24.9197 C   0  0  0  0  0  0
  -21.6052   -4.3013   24.7251 C   0  0  0  0  0  0
  -21.8806   -3.8106   23.4374 C   0  0  0  0  0  0
  -21.9164   -4.6903   22.3427 C   0  0  0  0  0  0
  -22.7846  -13.5148   21.1811 C   0  0  0  0  0  0
  -22.1640   -4.2106   21.1000 F   0  0  0  0  0  0
  -21.5654   -3.4498   25.7767 F   0  0  0  0  0  0
  -30.0492  -13.2484   20.4662 N   0  0  0  0  0  0
  -26.3018  -12.9169   20.3270 N   0  0  0  0  0  0
  -25.9298  -11.6334   20.5713 N   0  0  0  0  0  0
  -22.0435  -12.8226   22.0371 N   0  0  0  0  0  0
  -25.4073  -15.1575   20.3723 N   0  0  0  0  0  0
  -31.7380  -14.7359   20.0511 O   0  0  0  0  0  0
  -21.6581   -6.8818   21.4256 O   0  0  0  0  0  0
  -22.3555  -14.5465   20.6633 O   0  0  0  0  0  0
  -24.6116  -31.8720   23.2074 C   0  0  0  0  0  0
  -25.9014  -32.4823   23.8396 C   0  0  1  0  0  0
  -27.2404  -27.4378   20.1084 C   0  0  0  0  0  0
  -25.5880  -33.8612   24.2348 N   0  0  0  0  0  0
  -23.3991  -30.4958   21.5460 C   0  0  2  0  0  0
  -24.8482  -28.9513   20.1249 C   0  0  0  0  0  0
  -22.7400  -29.4716   22.4970 C   0  0  0  0  0  0
  -18.0290  -28.1424   22.8487 C   0  0  0  0  0  0
  -24.1466  -36.7269   23.2644 C   0  0  0  0  0  0
  -25.9271  -30.8377   21.3592 C   0  0  0  0  0  0
  -26.0090  -29.4686   20.7155 C   0  0  0  0  0  0
  -27.2058  -28.7202   20.7045 C   0  0  0  0  0  0
  -26.0628  -26.9329   19.5135 C   0  0  0  0  0  0
  -24.8688  -27.6802   19.5297 C   0  0  0  0  0  0
  -23.6129  -29.8218   20.1647 C   0  0  0  0  0  0
  -25.4088  -36.3088   24.0352 C   0  0  1  0  0  0
  -20.5878  -28.3706   23.1304 C   0  0  2  0  0  0
  -20.6778  -26.9434   22.5426 C   0  0  0  0  0  0
  -19.5751  -26.6418   21.5216 C   0  0  0  0  0  0
  -18.1927  -26.7965   22.1629 C   0  0  0  0  0  0
  -19.1547  -28.8880   23.2887 C   0  0  0  0  0  0
  -18.9485  -30.1482   23.8911 C   0  0  0  0  0  0
  -17.6488  -30.6608   24.0590 C   0  0  0  0  0  0
  -25.9040  -34.9464   23.5153 C   0  0  0  0  0  0
  -16.5379  -29.9124   23.6322 C   0  0  0  0  0  0
  -16.7274  -28.6546   23.0324 C   0  0  0  0  0  0
  -26.4468  -31.6582   25.0701 C   0  0  0  0  0  0
  -25.3778  -31.3650   26.1482 C   0  0  0  0  0  0
  -27.0310  -30.3038   24.6039 C   0  0  0  0  0  0
  -27.6071  -32.4289   25.7452 C   0  0  0  0  0  0
  -27.5569  -37.1781   24.8486 C   0  0  0  0  0  0
  -21.4134  -29.3059   22.3671 N   0  0  0  0  0  0
  -26.4260  -37.3783   23.9446 N   0  0  0  0  0  0
  -24.6638  -31.0865   22.0945 N   0  0  0  0  0  0
  -23.4167  -28.8257   23.3021 O   0  0  0  0  0  0
  -28.4167  -26.7206   20.0975 O   0  0  0  0  0  0
  -26.5605  -34.8920   22.4721 O   0  0  0  0  0  0
  -23.5316  -32.1472   23.7494 O   0  0  0  0  0  0
  -28.5211  -18.9854   21.5271 C   0  0  0  0  0  0
  -28.3156  -16.5947   21.6682 C   0  0  0  0  0  0
  -27.7033  -17.8563   21.6513 C   0  0  0  0  0  0
  -29.9194  -18.8428   21.4105 C   0  0  0  0  0  0
  -29.7168  -16.4903   21.5547 C   0  0  0  0  0  0
  -29.6828  -24.6556   20.4786 C   0  0  0  0  0  0
  -30.3681  -21.1825   20.7220 C   0  0  0  0  0  0
  -25.6079  -18.4287   20.3747 C   0  0  0  0  0  0
  -26.1972  -18.0156   21.7324 C   0  0  0  0  0  0
  -29.9381  -23.5615   21.5289 C   0  0  0  0  0  0
  -28.3088  -25.3515   20.5142 C   0  0  0  0  0  0
  -31.0199  -22.4960   21.1786 C   0  0  0  0  0  0
  -30.4947  -17.6056   21.4490 N   0  0  0  0  0  0
  -30.6970  -20.0362   21.3569 N   0  0  0  0  0  0
  -30.2175  -15.1661   21.6747 N   0  0  0  0  0  0
  -30.5393  -24.9682   19.6437 O   0  0  0  0  0  0
  -29.5826  -21.2226   19.7692 O   0  0  0  0  0  0
  -31.4740  -12.4305   19.0921 H   0  0  0  0  0  0
  -30.3478  -11.2863   19.7599 H   0  0  0  0  0  0
  -29.7284  -11.7963   17.4055 H   0  0  0  0  0  0
  -29.6620  -13.5007   17.7426 H   0  0  0  0  0  0
  -27.8017  -11.3216   18.7656 H   0  0  0  0  0  0
  -27.3738  -12.6874   17.7737 H   0  0  0  0  0  0
  -27.7185  -14.2489   19.6038 H   0  0  0  0  0  0
  -28.6752  -11.8704   21.2678 H   0  0  0  0  0  0
  -28.4349  -13.4626   21.8950 H   0  0  0  0  0  0
  -25.2716   -9.5531   22.4779 H   0  0  0  0  0  0
  -23.9907   -7.4501   22.7467 H   0  0  0  0  0  0
  -21.0782   -8.8696   19.8930 H   0  0  0  0  0  0
  -22.3679  -10.9579   19.6149 H   0  0  0  0  0  0
  -21.1915   -7.6078   23.9719 H   0  0  0  0  0  0
  -21.1504   -6.0476   25.9104 H   0  0  0  0  0  0
  -22.0596   -2.7561   23.2896 H   0  0  0  0  0  0
  -22.3996  -11.9908   22.4833 H   0  0  0  0  0  0
  -21.1027  -13.1269   22.2494 H   0  0  0  0  0  0
  -24.6380  -15.7955   20.5413 H   0  0  0  0  0  0
  -26.2258  -15.6103   19.9879 H   0  0  0  0  0  0
  -26.7073  -32.5564   23.1160 H   0  0  0  0  0  0
  -25.0018  -33.9776   25.0479 H   0  0  0  0  0  0
  -22.6840  -31.3091   21.4014 H   0  0  0  0  0  0
  -23.3733  -35.9599   23.3324 H   0  0  0  0  0  0
  -24.3576  -36.8868   22.2063 H   0  0  0  0  0  0
  -23.7209  -37.6469   23.6648 H   0  0  0  0  0  0
  -26.0476  -31.5947   20.5835 H   0  0  0  0  0  0
  -26.8138  -30.8981   21.9776 H   0  0  0  0  0  0
  -28.0993  -29.1182   21.1639 H   0  0  0  0  0  0
  -26.0586  -25.9687   19.0282 H   0  0  0  0  0  0
  -23.9724  -27.2704   19.0837 H   0  0  0  0  0  0
  -23.7320  -30.5917   19.4021 H   0  0  0  0  0  0
  -22.7355  -29.2486   19.8617 H   0  0  0  0  0  0
  -25.1241  -36.1945   25.0835 H   0  0  0  0  0  0
  -21.0009  -28.3327   24.1414 H   0  0  0  0  0  0
  -20.5712  -26.2320   23.3626 H   0  0  0  0  0  0
  -21.6642  -26.7484   22.1222 H   0  0  0  0  0  0
  -19.6909  -25.6335   21.1223 H   0  0  0  0  0  0
  -19.6695  -27.3246   20.6755 H   0  0  0  0  0  0
  -17.4200  -26.6717   21.4024 H   0  0  0  0  0  0
  -18.0318  -26.0123   22.9044 H   0  0  0  0  0  0
  -19.7972  -30.7274   24.2297 H   0  0  0  0  0  0
  -17.5061  -31.6283   24.5208 H   0  0  0  0  0  0
  -15.5389  -30.3042   23.7644 H   0  0  0  0  0  0
  -15.8668  -28.0868   22.7042 H   0  0  0  0  0  0
  -24.5947  -30.6981   25.7836 H   0  0  0  0  0  0
  -24.8968  -32.2790   26.4981 H   0  0  0  0  0  0
  -25.8200  -30.8804   27.0200 H   0  0  0  0  0  0
  -26.2827  -29.6760   24.1182 H   0  0  0  0  0  0
  -27.4210  -29.7295   25.4453 H   0  0  0  0  0  0
  -27.8602  -30.4366   23.9086 H   0  0  0  0  0  0
  -27.2711  -33.3586   26.2056 H   0  0  0  0  0  0
  -28.3869  -32.6860   25.0265 H   0  0  0  0  0  0
  -28.0743  -31.8385   26.5350 H   0  0  0  0  0  0
  -28.2589  -38.0065   24.7529 H   0  0  0  0  0  0
  -28.1051  -36.2616   24.6289 H   0  0  0  0  0  0
  -27.2315  -37.1419   25.8891 H   0  0  0  0  0  0
  -20.9301  -29.8767   21.6881 H   0  0  0  0  0  0
  -26.0142  -38.2846   24.1467 H   0  0  0  0  0  0
  -28.0575  -19.9623   21.5120 H   0  0  0  0  0  0
  -27.6988  -15.7117   21.7736 H   0  0  0  0  0  0
  -24.5194  -18.4573   20.4156 H   0  0  0  0  0  0
  -25.8928  -17.7322   19.5855 H   0  0  0  0  0  0
  -25.9608  -19.4152   20.0750 H   0  0  0  0  0  0
  -25.9430  -18.7567   22.4919 H   0  0  0  0  0  0
  -25.7456  -17.0883   22.0837 H   0  0  0  0  0  0
  -28.9879  -23.0776   21.7591 H   0  0  0  0  0  0
  -30.2307  -24.0792   22.4427 H   0  0  0  0  0  0
  -27.9000  -25.3082   21.5259 H   0  0  0  0  0  0
  -27.6382  -24.7890   19.8652 H   0  0  0  0  0  0
  -31.7167  -22.8424   20.4154 H   0  0  0  0  0  0
  -31.6259  -22.3064   22.0673 H   0  0  0  0  0  0
  -31.5303  -20.0442   21.9270 H   0  0  0  0  0  0
  -29.6263  -14.5925   22.2542 H   0  0  0  0  0  0
  1 25  1  0  0  0
  1 30  2  0  0  0
  1 85  1  0  0  0
  2  3  1  0  0  0
  2 25  1  0  0  0
  2 88  1  0  0  0
  2 89  1  0  0  0
  3  4  1  0  0  0
  3 90  1  0  0  0
  3 91  1  0  0  0
  4  5  1  0  0  0
  4 92  1  0  0  0
  4 93  1  0  0  0
  5  6  1  0  0  0
  5 26  1  0  0  0
  5 94  1  0  0  0
  6 25  1  0  0  0
  6 95  1  0  0  0
  6 96  1  0  0  0
  7  8  2  0  0  0
  7 26  1  0  0  0
  7 29  1  0  0  0
  8  9  1  0  0  0
  8 22  1  0  0  0
  9 10  1  0  0  0
  9 27  2  0  0  0
 10 11  2  0  0  0
 10 15  1  0  0  0
 11 12  1  0  0  0
 11 97  1  0  0  0
 12 13  2  0  0  0
 12 98  1  0  0  0
 13 14  1  0  0  0
 13 31  1  0  0  0
 14 15  2  0  0  0
 14 99  1  0  0  0
 15100  1  0  0  0
 16 17  2  0  0  0
 16 21  1  0  0  0
 16 31  1  0  0  0
 17 18  1  0  0  0
 17101  1  0  0  0
 18 19  2  0  0  0
 18102  1  0  0  0
 19 20  1  0  0  0
 19 24  1  0  0  0
 20 21  2  0  0  0
 20103  1  0  0  0
 21 23  1  0  0  0
 22 28  1  0  0  0
 22 32  2  0  0  0
 26 27  1  0  0  0
 28104  1  0  0  0
 28105  1  0  0  0
 29106  1  0  0  0
 29107  1  0  0  0
 33 34  1  0  0  0
 33 66  1  0  0  0
 33 70  2  0  0  0
 34 36  1  0  0  0
 34 59  1  0  0  0
 34108  1  0  0  0
 35 44  2  0  0  0
 35 45  1  0  0  0
 35 68  1  0  0  0
 36 56  1  0  0  0
 36109  1  0  0  0
 37 39  1  0  0  0
 37 47  1  0  0  0
 37 66  1  0  0  0
 37110  1  0  0  0
 38 43  2  0  0  0
 38 46  1  0  0  0
 38 47  1  0  0  0
 39 64  1  0  0  0
 39 67  2  0  0  0
 40 52  1  0  0  0
 40 53  2  0  0  0
 40 58  1  0  0  0
 41111  1  0  0  0
 41112  1  0  0  0
 41113  1  0  0  0
 41 48  1  0  0  0
 42 43  1  0  0  0
 42 66  1  0  0  0
 42114  1  0  0  0
 42115  1  0  0  0
 43 44  1  0  0  0
 44116  1  0  0  0
 45 46  2  0  0  0
 45117  1  0  0  0
 46118  1  0  0  0
 47119  1  0  0  0
 47120  1  0  0  0
 48 56  1  0  0  0
 48 65  1  0  0  0
 48121  1  0  0  0
 49 50  1  0  0  0
 49 53  1  0  0  0
 49 64  1  0  0  0
 49122  1  0  0  0
 50 51  1  0  0  0
 50123  1  0  0  0
 50124  1  0  0  0
 51 52  1  0  0  0
 51125  1  0  0  0
 51126  1  0  0  0
 52127  1  0  0  0
 52128  1  0  0  0
 53 54  1  0  0  0
 54 55  2  0  0  0
 54129  1  0  0  0
 55 57  1  0  0  0
 55130  1  0  0  0
 56 69  2  0  0  0
 57 58  2  0  0  0
 57131  1  0  0  0
 58132  1  0  0  0
 59 60  1  0  0  0
 59 61  1  0  0  0
 59 62  1  0  0  0
 60133  1  0  0  0
 60134  1  0  0  0
 60135  1  0  0  0
 61136  1  0  0  0
 61137  1  0  0  0
 61138  1  0  0  0
 62139  1  0  0  0
 62140  1  0  0  0
 62141  1  0  0  0
 63 65  1  0  0  0
 63142  1  0  0  0
 63143  1  0  0  0
 63144  1  0  0  0
 64145  1  0  0  0
 65146  1  0  0  0
 68 81  1  0  0  0
 71 73  2  0  0  0
 71 74  1  0  0  0
 71147  1  0  0  0
 72 73  1  0  0  0
 72 75  2  0  0  0
 72148  1  0  0  0
 73 79  1  0  0  0
 74 83  2  0  0  0
 74 84  1  0  0  0
 75 83  1  0  0  0
 75 85  1  0  0  0
 76 80  1  0  0  0
 76 81  1  0  0  0
 76 86  2  0  0  0
 77 82  1  0  0  0
 77 84  1  0  0  0
 77 87  2  0  0  0
 78 79  1  0  0  0
 78149  1  0  0  0
 78150  1  0  0  0
 78151  1  0  0  0
 79152  1  0  0  0
 79153  1  0  0  0
 80 82  1  0  0  0
 80154  1  0  0  0
 80155  1  0  0  0
 81156  1  0  0  0
 81157  1  0  0  0
 82158  1  0  0  0
 82159  1  0  0  0
 84160  1  0  0  0
 85161  1  0  0  0
M  ISO  4   1 100  68 101  81 101  85 100
M  END
> <chiral flag>
0

> <version>
0

> <s_m_source_file>
/data/baiqing/PycharmProjects/Reinvent-master-3.2/result/LINK_invent/BTK/process_docking_weight1_custom_product_contain_oxygen_bond_distance_aromatic_linkinvent_7_9_3/rearranged_h_0175.sdf

> <i_m_source_file_index>
72

> <r_mmod_Potential_Energy-OPLS-2005>
-269.051483154297

> <r_mmod_Stretch_Energy-OPLS-2005>
38.418830871582

> <r_mmod_Bend_Energy-OPLS-2005>
101.143783569336

> <r_mmod_Torsional_Energy-OPLS-2005>
274.048950195312

> <r_mmod_Improper_Torsional_Energy-OPLS-2005>
6.98026514053345

> <r_mmod_Van_der_Waal_Energy-OPLS-2005>
150.418411254883

> <r_mmod_Electrostatic_Energy-OPLS-2005>
-583.705017089844

> <r_mmod_Solvation_Energy-OPLS-2005>
-266.568084716797

> <b_mmod_Minimization_Converged-OPLS-2005>
0

> <r_mmod_RMS_Derivative-OPLS-2005>
4.54026317596436

$$$$
73
                    3D
 Structure written by MMmdl.
153161  0  0  1  0            999 V2000
  -30.6033  -14.8187   20.4732 C   0  0  0  0  0  0
  -30.4306  -12.5113   19.4773 C   0  0  0  0  0  0
  -29.5066  -12.4968   18.2411 C   0  0  0  0  0  0
  -28.0367  -12.3146   18.6642 C   0  0  0  0  0  0
  -27.6343  -13.2338   19.8476 C   0  0  2  0  0  0
  -28.6833  -13.2126   20.9805 C   0  0  0  0  0  0
  -25.2496  -13.8191   20.5765 C   0  0  0  0  0  0
  -24.1786  -13.0437   20.9246 C   0  0  0  0  0  0
  -24.6385  -11.6914   20.8799 C   0  0  0  0  0  0
  -23.9062  -10.4288   21.0449 C   0  0  0  0  0  0
  -24.3613   -9.4195   21.9204 C   0  0  0  0  0  0
  -23.6298   -8.2217   22.0746 C   0  0  0  0  0  0
  -22.4277   -8.0264   21.3551 C   0  0  0  0  0  0
  -21.9917   -9.0257   20.4674 C   0  0  0  0  0  0
  -22.7230  -10.2146   20.3095 C   0  0  0  0  0  0
  -21.6840   -6.0735   22.5272 C   0  0  0  0  0  0
  -21.4016   -6.5641   23.8202 C   0  0  0  0  0  0
  -21.3653   -5.6788   24.9157 C   0  0  0  0  0  0
  -21.6036   -4.3048   24.7202 C   0  0  0  0  0  0
  -21.8818   -3.8152   23.4321 C   0  0  0  0  0  0
  -21.9176   -4.6967   22.3382 C   0  0  0  0  0  0
  -22.7800  -13.5231   21.1858 C   0  0  0  0  0  0
  -22.1637   -4.2168   21.0955 F   0  0  0  0  0  0
  -21.5633   -3.4527   25.7707 F   0  0  0  0  0  0
  -29.9624  -13.5970   20.3749 N   0  0  0  0  0  0
  -26.2908  -12.9406   20.3323 N   0  0  0  0  0  0
  -25.9305  -11.6549   20.5809 N   0  0  0  0  0  0
  -22.0419  -12.8249   22.0413 N   0  0  0  0  0  0
  -25.4148  -15.1918   20.4202 N   0  0  0  0  0  0
  -31.7988  -14.8778   20.1723 O   0  0  0  0  0  0
  -21.6631   -6.8873   21.4228 O   0  0  0  0  0  0
  -22.3499  -14.5495   20.6628 O   0  0  0  0  0  0
  -24.6362  -31.8521   23.1922 C   0  0  0  0  0  0
  -25.9166  -32.4736   23.8303 C   0  0  1  0  0  0
  -27.2235  -27.2073   20.1404 C   0  0  0  0  0  0
  -25.5947  -33.8542   24.2225 N   0  0  0  0  0  0
  -23.4349  -30.4717   21.5354 C   0  0  2  0  0  0
  -24.8849  -28.9092   20.1058 C   0  0  0  0  0  0
  -22.7534  -29.4579   22.4865 C   0  0  0  0  0  0
  -18.0305  -28.1401   22.8497 C   0  0  0  0  0  0
  -24.1473  -36.7241   23.2645 C   0  0  0  0  0  0
  -25.9839  -30.7479   21.3809 C   0  0  0  0  0  0
  -26.0559  -29.3642   20.7235 C   0  0  0  0  0  0
  -27.2241  -28.5269   20.7284 C   0  0  0  0  0  0
  -26.0265  -26.8352   19.4865 C   0  0  0  0  0  0
  -24.8786  -27.6555   19.4744 C   0  0  0  0  0  0
  -23.6546  -29.8002   20.1532 C   0  0  0  0  0  0
  -25.4112  -36.3050   24.0326 C   0  0  1  0  0  0
  -20.5916  -28.3721   23.1244 C   0  0  2  0  0  0
  -20.6787  -26.9428   22.5406 C   0  0  0  0  0  0
  -19.5742  -26.6388   21.5226 C   0  0  0  0  0  0
  -18.1930  -26.7944   22.1645 C   0  0  0  0  0  0
  -19.1565  -28.8878   23.2864 C   0  0  0  0  0  0
  -18.9485  -30.1485   23.8876 C   0  0  0  0  0  0
  -17.6478  -30.6599   24.0575 C   0  0  0  0  0  0
  -25.9073  -34.9429   23.5071 C   0  0  0  0  0  0
  -16.5365  -29.9102   23.6345 C   0  0  0  0  0  0
  -16.7293  -28.6518   23.0371 C   0  0  0  0  0  0
  -26.4510  -31.6572   25.0706 C   0  0  0  0  0  0
  -25.3712  -31.3742   26.1401 C   0  0  0  0  0  0
  -27.0369  -30.2977   24.6240 C   0  0  0  0  0  0
  -27.6054  -32.4325   25.7491 C   0  0  0  0  0  0
  -27.5558  -37.1779   24.8479 C   0  0  0  0  0  0
  -21.4234  -29.3045   22.3604 N   0  0  0  0  0  0
  -26.4269  -37.3764   23.9423 N   0  0  0  0  0  0
  -24.7037  -31.0447   22.0912 N   0  0  0  0  0  0
  -23.4220  -28.8142   23.2991 O   0  0  0  0  0  0
  -28.3090  -26.2849   20.2427 O   0  0  0  0  0  0
  -26.5637  -34.8918   22.4637 O   0  0  0  0  0  0
  -23.5492  -32.1379   23.7174 O   0  0  0  0  0  0
  -31.5403  -18.0726   23.2098 C   0  0  0  0  0  0
  -30.3077  -17.2570   21.3532 C   0  0  0  0  0  0
  -31.1035  -16.9874   22.5240 C   0  0  0  0  0  0
  -30.0570  -18.6880   21.2143 C   0  0  0  0  0  0
  -28.2365  -24.8831   19.8855 C   0  0  0  0  0  0
  -29.3320  -19.7434   20.3662 C   0  0  0  0  0  0
  -28.7395  -23.7506   20.5518 C   0  0  0  0  0  0
  -28.6534  -22.3242   19.9811 C   0  0  0  0  0  0
  -29.4176  -23.9182   21.9037 C   0  0  0  0  0  0
  -29.8672  -16.0061   20.6522 N   0  0  0  0  0  0
  -29.2433  -21.1260   20.7105 N   0  0  0  0  0  0
  -28.7938  -19.3181   19.2118 N   0  3  0  0  0  0
  -28.1163  -22.0880   18.8908 O   0  0  0  0  0  0
  -31.3723  -15.7732   22.9515 F   0  0  0  0  0  0
  -30.9709  -19.5254   22.4731 S   0  0  0  0  0  0
  -31.4681  -12.6427   19.1685 H   0  0  0  0  0  0
  -30.3942  -11.5532   19.9979 H   0  0  0  0  0  0
  -29.8019  -11.6945   17.5644 H   0  0  0  0  0  0
  -29.6161  -13.4249   17.6802 H   0  0  0  0  0  0
  -27.9117  -11.2705   18.9553 H   0  0  0  0  0  0
  -27.3705  -12.4773   17.8155 H   0  0  0  0  0  0
  -27.6157  -14.2461   19.4433 H   0  0  0  0  0  0
  -28.7529  -12.2228   21.4347 H   0  0  0  0  0  0
  -28.4091  -13.8995   21.7831 H   0  0  0  0  0  0
  -25.2751   -9.5653   22.4802 H   0  0  0  0  0  0
  -24.0023   -7.4590   22.7441 H   0  0  0  0  0  0
  -21.0848   -8.8764   19.8994 H   0  0  0  0  0  0
  -22.3685  -10.9688   19.6224 H   0  0  0  0  0  0
  -21.2029   -7.6156   23.9703 H   0  0  0  0  0  0
  -21.1462   -6.0515   25.9061 H   0  0  0  0  0  0
  -22.0604   -2.7619   23.2794 H   0  0  0  0  0  0
  -22.4088  -11.9982   22.4884 H   0  0  0  0  0  0
  -21.0998  -13.1227   22.2519 H   0  0  0  0  0  0
  -24.6407  -15.8343   20.5490 H   0  0  0  0  0  0
  -26.2448  -15.6386   20.0548 H   0  0  0  0  0  0
  -26.7249  -32.5369   23.1060 H   0  0  0  0  0  0
  -25.0094  -33.9680   25.0372 H   0  0  0  0  0  0
  -22.7314  -31.2933   21.3873 H   0  0  0  0  0  0
  -23.3748  -35.9557   23.3316 H   0  0  0  0  0  0
  -24.3556  -36.8854   22.2058 H   0  0  0  0  0  0
  -23.7212  -37.6436   23.6668 H   0  0  0  0  0  0
  -26.1283  -31.5051   20.6103 H   0  0  0  0  0  0
  -26.8581  -30.7989   22.0178 H   0  0  0  0  0  0
  -28.1185  -28.8713   21.2295 H   0  0  0  0  0  0
  -25.9406  -25.8734   19.0064 H   0  0  0  0  0  0
  -23.9833  -27.3015   18.9811 H   0  0  0  0  0  0
  -23.7782  -30.5721   19.3938 H   0  0  0  0  0  0
  -22.7733  -29.2329   19.8501 H   0  0  0  0  0  0
  -25.1301  -36.1869   25.0819 H   0  0  0  0  0  0
  -21.0050  -28.3325   24.1349 H   0  0  0  0  0  0
  -20.5689  -26.2348   23.3633 H   0  0  0  0  0  0
  -21.6651  -26.7423   22.1196 H   0  0  0  0  0  0
  -19.6891  -25.6295   21.1263 H   0  0  0  0  0  0
  -19.6674  -27.3193   20.6751 H   0  0  0  0  0  0
  -17.4209  -26.6712   21.4043 H   0  0  0  0  0  0
  -18.0317  -26.0079   22.9033 H   0  0  0  0  0  0
  -19.7955  -30.7327   24.2217 H   0  0  0  0  0  0
  -17.5030  -31.6277   24.5181 H   0  0  0  0  0  0
  -15.5371  -30.3007   23.7667 H   0  0  0  0  0  0
  -15.8693  -28.0838   22.7096 H   0  0  0  0  0  0
  -24.5915  -30.7057   25.7723 H   0  0  0  0  0  0
  -24.8861  -32.2915   26.4752 H   0  0  0  0  0  0
  -25.8007  -30.8976   27.0220 H   0  0  0  0  0  0
  -26.2954  -29.6695   24.1284 H   0  0  0  0  0  0
  -27.4044  -29.7278   25.4784 H   0  0  0  0  0  0
  -27.8843  -30.4223   23.9493 H   0  0  0  0  0  0
  -27.2659  -33.3651   26.2009 H   0  0  0  0  0  0
  -28.3900  -32.6835   25.0343 H   0  0  0  0  0  0
  -28.0684  -31.8484   26.5459 H   0  0  0  0  0  0
  -28.2601  -38.0052   24.7516 H   0  0  0  0  0  0
  -28.1020  -36.2584   24.6316 H   0  0  0  0  0  0
  -27.2272  -37.1453   25.8881 H   0  0  0  0  0  0
  -20.9430  -29.8724   21.6754 H   0  0  0  0  0  0
  -26.0125  -38.2819   24.1446 H   0  0  0  0  0  0
  -32.1459  -18.1022   24.1060 H   0  0  0  0  0  0
  -27.7504  -24.7633   18.9273 H   0  0  0  0  0  0
  -29.4250  -24.9646   22.2141 H   0  0  0  0  0  0
  -30.4532  -23.5784   21.8706 H   0  0  0  0  0  0
  -28.8879  -23.3538   22.6740 H   0  0  0  0  0  0
  -28.8700  -15.8962   20.5695 H   0  0  0  0  0  0
  -29.6783  -21.2836   21.6044 H   0  0  0  0  0  0
  -28.8689  -18.3572   18.9199 H   0  0  0  0  0  0
  -28.3418  -19.9786   18.5911 H   0  0  0  0  0  0
  1 25  1  0  0  0
  1 30  2  0  0  0
  1 80  1  0  0  0
  2  3  1  0  0  0
  2 25  1  0  0  0
  2 86  1  0  0  0
  2 87  1  0  0  0
  3  4  1  0  0  0
  3 88  1  0  0  0
  3 89  1  0  0  0
  4  5  1  0  0  0
  4 90  1  0  0  0
  4 91  1  0  0  0
  5  6  1  0  0  0
  5 26  1  0  0  0
  5 92  1  0  0  0
  6 25  1  0  0  0
  6 93  1  0  0  0
  6 94  1  0  0  0
  7  8  2  0  0  0
  7 26  1  0  0  0
  7 29  1  0  0  0
  8  9  1  0  0  0
  8 22  1  0  0  0
  9 10  1  0  0  0
  9 27  2  0  0  0
 10 11  2  0  0  0
 10 15  1  0  0  0
 11 12  1  0  0  0
 11 95  1  0  0  0
 12 13  2  0  0  0
 12 96  1  0  0  0
 13 14  1  0  0  0
 13 31  1  0  0  0
 14 15  2  0  0  0
 14 97  1  0  0  0
 15 98  1  0  0  0
 16 17  2  0  0  0
 16 21  1  0  0  0
 16 31  1  0  0  0
 17 18  1  0  0  0
 17 99  1  0  0  0
 18 19  2  0  0  0
 18100  1  0  0  0
 19 20  1  0  0  0
 19 24  1  0  0  0
 20 21  2  0  0  0
 20101  1  0  0  0
 21 23  1  0  0  0
 22 28  1  0  0  0
 22 32  2  0  0  0
 26 27  1  0  0  0
 28102  1  0  0  0
 28103  1  0  0  0
 29104  1  0  0  0
 29105  1  0  0  0
 33 34  1  0  0  0
 33 66  1  0  0  0
 33 70  2  0  0  0
 34 36  1  0  0  0
 34 59  1  0  0  0
 34106  1  0  0  0
 35 44  2  0  0  0
 35 45  1  0  0  0
 35 68  1  0  0  0
 36 56  1  0  0  0
 36107  1  0  0  0
 37 39  1  0  0  0
 37 47  1  0  0  0
 37 66  1  0  0  0
 37108  1  0  0  0
 38 43  2  0  0  0
 38 46  1  0  0  0
 38 47  1  0  0  0
 39 64  1  0  0  0
 39 67  2  0  0  0
 40 52  1  0  0  0
 40 53  2  0  0  0
 40 58  1  0  0  0
 41109  1  0  0  0
 41110  1  0  0  0
 41111  1  0  0  0
 41 48  1  0  0  0
 42 43  1  0  0  0
 42 66  1  0  0  0
 42112  1  0  0  0
 42113  1  0  0  0
 43 44  1  0  0  0
 44114  1  0  0  0
 45 46  2  0  0  0
 45115  1  0  0  0
 46116  1  0  0  0
 47117  1  0  0  0
 47118  1  0  0  0
 48 56  1  0  0  0
 48 65  1  0  0  0
 48119  1  0  0  0
 49 50  1  0  0  0
 49 53  1  0  0  0
 49 64  1  0  0  0
 49120  1  0  0  0
 50 51  1  0  0  0
 50121  1  0  0  0
 50122  1  0  0  0
 51 52  1  0  0  0
 51123  1  0  0  0
 51124  1  0  0  0
 52125  1  0  0  0
 52126  1  0  0  0
 53 54  1  0  0  0
 54 55  2  0  0  0
 54127  1  0  0  0
 55 57  1  0  0  0
 55128  1  0  0  0
 56 69  2  0  0  0
 57 58  2  0  0  0
 57129  1  0  0  0
 58130  1  0  0  0
 59 60  1  0  0  0
 59 61  1  0  0  0
 59 62  1  0  0  0
 60131  1  0  0  0
 60132  1  0  0  0
 60133  1  0  0  0
 61134  1  0  0  0
 61135  1  0  0  0
 61136  1  0  0  0
 62137  1  0  0  0
 62138  1  0  0  0
 62139  1  0  0  0
 63 65  1  0  0  0
 63140  1  0  0  0
 63141  1  0  0  0
 63142  1  0  0  0
 64143  1  0  0  0
 65144  1  0  0  0
 68 75  1  0  0  0
 71 73  2  0  0  0
 71 85  1  0  0  0
 71145  1  0  0  0
 72 73  1  0  0  0
 72 74  2  0  0  0
 72 80  1  0  0  0
 73 84  1  0  0  0
 74 76  1  0  0  0
 74 85  1  0  0  0
 75 77  2  0  0  0
 75146  1  0  0  0
 76 81  1  0  0  0
 76 82  2  0  0  0
 77 78  1  0  0  0
 77 79  1  0  0  0
 78 81  1  0  0  0
 78 83  2  0  0  0
 79147  1  0  0  0
 79148  1  0  0  0
 79149  1  0  0  0
 80150  1  0  0  0
 81151  1  0  0  0
 82152  1  0  0  0
 82153  1  0  0  0
M  CHG  1  82   1
M  ISO  4   1 100  68 101  75 101  80 100
M  END
> <chiral flag>
0

> <version>
0

> <s_m_source_file>
/data/baiqing/PycharmProjects/Reinvent-master-3.2/result/LINK_invent/BTK/process_docking_weight1_custom_product_contain_oxygen_bond_distance_aromatic_linkinvent_7_9_3/rearranged_h_0175.sdf

> <i_m_source_file_index>
73

> <r_mmod_Potential_Energy-OPLS-2005>
87.7725067138672

> <r_mmod_Stretch_Energy-OPLS-2005>
179.709991455078

> <r_mmod_Bend_Energy-OPLS-2005>
228.155914306641

> <r_mmod_Torsional_Energy-OPLS-2005>
239.515014648438

> <r_mmod_Improper_Torsional_Energy-OPLS-2005>
7.64309787750244

> <r_mmod_Van_der_Waal_Energy-OPLS-2005>
135.290573120117

> <r_mmod_Electrostatic_Energy-OPLS-2005>
-339.425079345703

> <r_mmod_Solvation_Energy-OPLS-2005>
-485.542083740234

> <b_mmod_Minimization_Converged-OPLS-2005>
0

> <r_mmod_RMS_Derivative-OPLS-2005>
2.7290472984314

$$$$
74
                    3D
 Structure written by MMmdl.
156164  0  0  1  0            999 V2000
  -30.6727  -14.7528   20.4551 C   0  0  0  0  0  0
  -30.4214  -12.4630   19.4839 C   0  0  0  0  0  0
  -29.5108  -12.5302   18.2403 C   0  0  0  0  0  0
  -28.0394  -12.3518   18.6537 C   0  0  0  0  0  0
  -27.6448  -13.2489   19.8579 C   0  0  2  0  0  0
  -28.6950  -13.2103   20.9931 C   0  0  0  0  0  0
  -25.2502  -13.8220   20.5726 C   0  0  0  0  0  0
  -24.1815  -13.0446   20.9249 C   0  0  0  0  0  0
  -24.6429  -11.6933   20.8771 C   0  0  0  0  0  0
  -23.9099  -10.4314   21.0407 C   0  0  0  0  0  0
  -24.3632   -9.4226   21.9191 C   0  0  0  0  0  0
  -23.6292   -8.2263   22.0761 C   0  0  0  0  0  0
  -22.4273   -8.0305   21.3557 C   0  0  0  0  0  0
  -21.9928   -9.0284   20.4655 C   0  0  0  0  0  0
  -22.7260  -10.2153   20.3065 C   0  0  0  0  0  0
  -21.6856   -6.0747   22.5276 C   0  0  0  0  0  0
  -21.4022   -6.5642   23.8213 C   0  0  0  0  0  0
  -21.3659   -5.6789   24.9174 C   0  0  0  0  0  0
  -21.6040   -4.3052   24.7222 C   0  0  0  0  0  0
  -21.8811   -3.8153   23.4337 C   0  0  0  0  0  0
  -21.9193   -4.6973   22.3402 C   0  0  0  0  0  0
  -22.7828  -13.5224   21.1876 C   0  0  0  0  0  0
  -22.1667   -4.2154   21.0983 F   0  0  0  0  0  0
  -21.5622   -3.4542   25.7738 F   0  0  0  0  0  0
  -29.9947  -13.5510   20.4003 N   0  0  0  0  0  0
  -26.2974  -12.9482   20.3346 N   0  0  0  0  0  0
  -25.9378  -11.6598   20.5799 N   0  0  0  0  0  0
  -22.0455  -12.8224   22.0417 N   0  0  0  0  0  0
  -25.4120  -15.1954   20.4158 N   0  0  0  0  0  0
  -31.8649  -14.7455   20.1454 O   0  0  0  0  0  0
  -21.6648   -6.8889   21.4233 O   0  0  0  0  0  0
  -22.3520  -14.5518   20.6689 O   0  0  0  0  0  0
  -24.6331  -31.8548   23.1981 C   0  0  0  0  0  0
  -25.9174  -32.4737   23.8312 C   0  0  1  0  0  0
  -27.2182  -27.2407   20.1217 C   0  0  0  0  0  0
  -25.5976  -33.8534   24.2258 N   0  0  0  0  0  0
  -23.4291  -30.4815   21.5403 C   0  0  2  0  0  0
  -24.8764  -28.9292   20.1095 C   0  0  0  0  0  0
  -22.7502  -29.4623   22.4878 C   0  0  0  0  0  0
  -18.0301  -28.1390   22.8492 C   0  0  0  0  0  0
  -24.1500  -36.7266   23.2637 C   0  0  0  0  0  0
  -25.9767  -30.7612   21.3825 C   0  0  0  0  0  0
  -26.0488  -29.3823   20.7249 C   0  0  0  0  0  0
  -27.2172  -28.5502   20.7242 C   0  0  0  0  0  0
  -26.0158  -26.8664   19.4737 C   0  0  0  0  0  0
  -24.8678  -27.6792   19.4766 C   0  0  0  0  0  0
  -23.6486  -29.8176   20.1572 C   0  0  0  0  0  0
  -25.4128  -36.3044   24.0316 C   0  0  1  0  0  0
  -20.5905  -28.3712   23.1245 C   0  0  2  0  0  0
  -20.6772  -26.9426   22.5384 C   0  0  0  0  0  0
  -19.5743  -26.6395   21.5195 C   0  0  0  0  0  0
  -18.1937  -26.7928   22.1623 C   0  0  0  0  0  0
  -19.1557  -28.8868   23.2866 C   0  0  0  0  0  0
  -18.9473  -30.1466   23.8893 C   0  0  0  0  0  0
  -17.6472  -30.6583   24.0574 C   0  0  0  0  0  0
  -25.9066  -34.9420   23.5076 C   0  0  0  0  0  0
  -16.5367  -29.9086   23.6322 C   0  0  0  0  0  0
  -16.7286  -28.6498   23.0352 C   0  0  0  0  0  0
  -26.4536  -31.6550   25.0696 C   0  0  0  0  0  0
  -25.3764  -31.3727   26.1424 C   0  0  0  0  0  0
  -27.0379  -30.2952   24.6205 C   0  0  0  0  0  0
  -27.6070  -32.4301   25.7493 C   0  0  0  0  0  0
  -27.5582  -37.1787   24.8467 C   0  0  0  0  0  0
  -21.4208  -29.3074   22.3625 N   0  0  0  0  0  0
  -26.4296  -37.3752   23.9410 N   0  0  0  0  0  0
  -24.6986  -31.0510   22.0963 N   0  0  0  0  0  0
  -23.4205  -28.8157   23.2973 O   0  0  0  0  0  0
  -28.3193  -26.3452   20.2099 O   0  0  0  0  0  0
  -26.5622  -34.8892   22.4638 O   0  0  0  0  0  0
  -23.5478  -32.1380   23.7269 O   0  0  0  0  0  0
  -31.7299  -17.7070   20.2794 C   0  0  0  0  0  0
  -31.2378  -20.0881   20.1914 C   0  0  0  0  0  0
  -32.1567  -19.0339   20.1130 C   0  0  0  0  0  0
  -30.3716  -17.3906   20.5214 C   0  0  0  0  0  0
  -29.8923  -19.8098   20.4664 C   0  0  0  0  0  0
  -28.6325  -23.6478   20.4576 C   0  0  0  0  0  0
  -28.3427  -24.9707   19.5718 C   0  0  0  0  0  0
  -28.0281  -21.9346   18.5578 C   0  0  0  0  0  0
  -28.9626  -22.1878   19.7754 C   0  0  2  0  0  0
  -28.7406  -21.3762   17.3141 C   0  0  0  0  0  0
  -29.4916  -18.4806   20.6331 N   0  0  0  0  0  0
  -29.9729  -15.9487   20.6468 N   0  0  0  0  0  0
  -28.9886  -20.9263   20.6406 N   0  0  0  0  0  0
  -28.6058  -23.7557   21.6849 O   0  0  0  0  0  0
  -33.4674  -19.2975   19.8911 F   0  0  0  0  0  0
  -27.8664  -21.3038   16.3102 F   0  0  0  0  0  0
  -29.2291  -20.1572   17.5365 F   0  0  0  0  0  0
  -29.7371  -22.1831   16.9493 F   0  0  0  0  0  0
  -31.4682  -12.5468   19.1886 H   0  0  0  0  0  0
  -30.3276  -11.4926   19.9767 H   0  0  0  0  0  0
  -29.7983  -11.7655   17.5152 H   0  0  0  0  0  0
  -29.6375  -13.4922   17.7397 H   0  0  0  0  0  0
  -27.8992  -11.3025   18.9146 H   0  0  0  0  0  0
  -27.3799  -12.5522   17.8073 H   0  0  0  0  0  0
  -27.6321  -14.2703   19.4748 H   0  0  0  0  0  0
  -28.7314  -12.2276   21.4642 H   0  0  0  0  0  0
  -28.4319  -13.9159   21.7831 H   0  0  0  0  0  0
  -25.2767   -9.5707   22.4785 H   0  0  0  0  0  0
  -24.0002   -7.4650   22.7476 H   0  0  0  0  0  0
  -21.0873   -8.8806   19.8955 H   0  0  0  0  0  0
  -22.3712  -10.9708   19.6193 H   0  0  0  0  0  0
  -21.2015   -7.6150   23.9720 H   0  0  0  0  0  0
  -21.1490   -6.0528   25.9073 H   0  0  0  0  0  0
  -22.0582   -2.7621   23.2844 H   0  0  0  0  0  0
  -22.4047  -11.9904   22.4864 H   0  0  0  0  0  0
  -21.1060  -13.1259   22.2547 H   0  0  0  0  0  0
  -24.6338  -15.8340   20.5378 H   0  0  0  0  0  0
  -26.2438  -15.6510   20.0638 H   0  0  0  0  0  0
  -26.7236  -32.5381   23.1038 H   0  0  0  0  0  0
  -25.0165  -33.9666   25.0437 H   0  0  0  0  0  0
  -22.7259  -31.3051   21.3947 H   0  0  0  0  0  0
  -23.3741  -35.9616   23.3290 H   0  0  0  0  0  0
  -24.3595  -36.8896   22.2054 H   0  0  0  0  0  0
  -23.7265  -37.6469   23.6660 H   0  0  0  0  0  0
  -26.1231  -31.5223   20.6149 H   0  0  0  0  0  0
  -26.8508  -30.8054   22.0210 H   0  0  0  0  0  0
  -28.1088  -28.8934   21.2319 H   0  0  0  0  0  0
  -25.8921  -25.9223   18.9721 H   0  0  0  0  0  0
  -23.9694  -27.3247   18.9919 H   0  0  0  0  0  0
  -23.7785  -30.5929   19.4016 H   0  0  0  0  0  0
  -22.7629  -29.2583   19.8470 H   0  0  0  0  0  0
  -25.1306  -36.1871   25.0802 H   0  0  0  0  0  0
  -21.0025  -28.3307   24.1361 H   0  0  0  0  0  0
  -20.5654  -26.2347   23.3607 H   0  0  0  0  0  0
  -21.6641  -26.7432   22.1203 H   0  0  0  0  0  0
  -19.6899  -25.6313   21.1221 H   0  0  0  0  0  0
  -19.6653  -27.3207   20.6728 H   0  0  0  0  0  0
  -17.4198  -26.6699   21.4029 H   0  0  0  0  0  0
  -18.0338  -26.0058   22.9009 H   0  0  0  0  0  0
  -19.7952  -30.7281   24.2253 H   0  0  0  0  0  0
  -17.5025  -31.6249   24.5199 H   0  0  0  0  0  0
  -15.5365  -30.2989   23.7621 H   0  0  0  0  0  0
  -15.8694  -28.0803   22.7071 H   0  0  0  0  0  0
  -24.5943  -30.7063   25.7782 H   0  0  0  0  0  0
  -24.8962  -32.2907   26.4808 H   0  0  0  0  0  0
  -25.8094  -30.8945   27.0223 H   0  0  0  0  0  0
  -26.2978  -29.6696   24.1209 H   0  0  0  0  0  0
  -27.4017  -29.7208   25.4733 H   0  0  0  0  0  0
  -27.8867  -30.4189   23.9483 H   0  0  0  0  0  0
  -27.2655  -33.3597   26.2062 H   0  0  0  0  0  0
  -28.3906  -32.6884   25.0356 H   0  0  0  0  0  0
  -28.0716  -31.8438   26.5433 H   0  0  0  0  0  0
  -28.2590  -38.0093   24.7501 H   0  0  0  0  0  0
  -28.1078  -36.2608   24.6296 H   0  0  0  0  0  0
  -27.2288  -37.1452   25.8870 H   0  0  0  0  0  0
  -20.9386  -29.8834   21.6867 H   0  0  0  0  0  0
  -26.0143  -38.2817   24.1402 H   0  0  0  0  0  0
  -32.5038  -16.9607   20.2142 H   0  0  0  0  0  0
  -31.6019  -21.0980   20.0857 H   0  0  0  0  0  0
  -27.4223  -24.7676   19.0399 H   0  0  0  0  0  0
  -29.1059  -25.0057   18.7948 H   0  0  0  0  0  0
  -27.5328  -22.8467   18.2308 H   0  0  0  0  0  0
  -27.2100  -21.2699   18.8416 H   0  0  0  0  0  0
  -29.9672  -22.2987   19.3698 H   0  0  0  0  0  0
  -28.9952  -15.8136   20.8370 H   0  0  0  0  0  0
  -28.0882  -20.6789   21.0341 H   0  0  0  0  0  0
  1 25  1  0  0  0
  1 30  2  0  0  0
  1 82  1  0  0  0
  2  3  1  0  0  0
  2 25  1  0  0  0
  2 89  1  0  0  0
  2 90  1  0  0  0
  3  4  1  0  0  0
  3 91  1  0  0  0
  3 92  1  0  0  0
  4  5  1  0  0  0
  4 93  1  0  0  0
  4 94  1  0  0  0
  5  6  1  0  0  0
  5 26  1  0  0  0
  5 95  1  0  0  0
  6 25  1  0  0  0
  6 96  1  0  0  0
  6 97  1  0  0  0
  7  8  2  0  0  0
  7 26  1  0  0  0
  7 29  1  0  0  0
  8  9  1  0  0  0
  8 22  1  0  0  0
  9 10  1  0  0  0
  9 27  2  0  0  0
 10 11  2  0  0  0
 10 15  1  0  0  0
 11 12  1  0  0  0
 11 98  1  0  0  0
 12 13  2  0  0  0
 12 99  1  0  0  0
 13 14  1  0  0  0
 13 31  1  0  0  0
 14 15  2  0  0  0
 14100  1  0  0  0
 15101  1  0  0  0
 16 17  2  0  0  0
 16 21  1  0  0  0
 16 31  1  0  0  0
 17 18  1  0  0  0
 17102  1  0  0  0
 18 19  2  0  0  0
 18103  1  0  0  0
 19 20  1  0  0  0
 19 24  1  0  0  0
 20 21  2  0  0  0
 20104  1  0  0  0
 21 23  1  0  0  0
 22 28  1  0  0  0
 22 32  2  0  0  0
 26 27  1  0  0  0
 28105  1  0  0  0
 28106  1  0  0  0
 29107  1  0  0  0
 29108  1  0  0  0
 33 34  1  0  0  0
 33 66  1  0  0  0
 33 70  2  0  0  0
 34 36  1  0  0  0
 34 59  1  0  0  0
 34109  1  0  0  0
 35 44  2  0  0  0
 35 45  1  0  0  0
 35 68  1  0  0  0
 36 56  1  0  0  0
 36110  1  0  0  0
 37 39  1  0  0  0
 37 47  1  0  0  0
 37 66  1  0  0  0
 37111  1  0  0  0
 38 43  2  0  0  0
 38 46  1  0  0  0
 38 47  1  0  0  0
 39 64  1  0  0  0
 39 67  2  0  0  0
 40 52  1  0  0  0
 40 53  2  0  0  0
 40 58  1  0  0  0
 41112  1  0  0  0
 41113  1  0  0  0
 41114  1  0  0  0
 41 48  1  0  0  0
 42 43  1  0  0  0
 42 66  1  0  0  0
 42115  1  0  0  0
 42116  1  0  0  0
 43 44  1  0  0  0
 44117  1  0  0  0
 45 46  2  0  0  0
 45118  1  0  0  0
 46119  1  0  0  0
 47120  1  0  0  0
 47121  1  0  0  0
 48 56  1  0  0  0
 48 65  1  0  0  0
 48122  1  0  0  0
 49 50  1  0  0  0
 49 53  1  0  0  0
 49 64  1  0  0  0
 49123  1  0  0  0
 50 51  1  0  0  0
 50124  1  0  0  0
 50125  1  0  0  0
 51 52  1  0  0  0
 51126  1  0  0  0
 51127  1  0  0  0
 52128  1  0  0  0
 52129  1  0  0  0
 53 54  1  0  0  0
 54 55  2  0  0  0
 54130  1  0  0  0
 55 57  1  0  0  0
 55131  1  0  0  0
 56 69  2  0  0  0
 57 58  2  0  0  0
 57132  1  0  0  0
 58133  1  0  0  0
 59 60  1  0  0  0
 59 61  1  0  0  0
 59 62  1  0  0  0
 60134  1  0  0  0
 60135  1  0  0  0
 60136  1  0  0  0
 61137  1  0  0  0
 61138  1  0  0  0
 61139  1  0  0  0
 62140  1  0  0  0
 62141  1  0  0  0
 62142  1  0  0  0
 63 65  1  0  0  0
 63143  1  0  0  0
 63144  1  0  0  0
 63145  1  0  0  0
 64146  1  0  0  0
 65147  1  0  0  0
 68 77  1  0  0  0
 71 73  2  0  0  0
 71 74  1  0  0  0
 71148  1  0  0  0
 72 73  1  0  0  0
 72 75  2  0  0  0
 72149  1  0  0  0
 73 85  1  0  0  0
 74 81  2  0  0  0
 74 82  1  0  0  0
 75 81  1  0  0  0
 75 83  1  0  0  0
 76 77  1  0  0  0
 76 79  1  0  0  0
 76 84  2  0  0  0
 77150  1  0  0  0
 77151  1  0  0  0
 78 80  1  0  0  0
 78152  1  0  0  0
 78153  1  0  0  0
 78 79  1  0  0  0
 79 83  1  0  0  0
 79154  1  0  0  0
 80 86  1  0  0  0
 80 87  1  0  0  0
 80 88  1  0  0  0
 82155  1  0  0  0
 83156  1  0  0  0
M  ISO  4   1 100  68 101  77 101  82 100
M  END
> <chiral flag>
0

> <version>
0

> <s_m_source_file>
/data/baiqing/PycharmProjects/Reinvent-master-3.2/result/LINK_invent/BTK/process_docking_weight1_custom_product_contain_oxygen_bond_distance_aromatic_linkinvent_7_9_3/rearranged_h_0175.sdf

> <i_m_source_file_index>
74

> <r_mmod_Potential_Energy-OPLS-2005>
-14.4159536361694

> <r_mmod_Stretch_Energy-OPLS-2005>
146.672760009766

> <r_mmod_Bend_Energy-OPLS-2005>
192.660034179688

> <r_mmod_Torsional_Energy-OPLS-2005>
223.877990722656

> <r_mmod_Improper_Torsional_Energy-OPLS-2005>
6.82995462417603

> <r_mmod_Van_der_Waal_Energy-OPLS-2005>
151.203353881836

> <r_mmod_Electrostatic_Energy-OPLS-2005>
-583.273498535156

> <r_mmod_Solvation_Energy-OPLS-2005>
-245.296142578125

> <b_mmod_Minimization_Converged-OPLS-2005>
0

> <r_mmod_RMS_Derivative-OPLS-2005>
3.30259895324707

$$$$
75
                    3D
 Structure written by MMmdl.
152160  0  0  1  0            999 V2000
  -30.6893  -14.4760   20.5744 C   0  0  0  0  0  0
  -30.4308  -12.3103   19.4144 C   0  0  0  0  0  0
  -29.4977  -12.5114   18.2016 C   0  0  0  0  0  0
  -28.0191  -12.3678   18.6160 C   0  0  0  0  0  0
  -27.6685  -13.1983   19.8798 C   0  0  2  0  0  0
  -28.7120  -12.9630   20.9963 C   0  0  0  0  0  0
  -25.2641  -13.8132   20.5653 C   0  0  0  0  0  0
  -24.1881  -13.0425   20.9146 C   0  0  0  0  0  0
  -24.6412  -11.6892   20.8728 C   0  0  0  0  0  0
  -23.9067  -10.4285   21.0414 C   0  0  0  0  0  0
  -24.3614   -9.4198   21.9199 C   0  0  0  0  0  0
  -23.6287   -8.2237   22.0761 C   0  0  0  0  0  0
  -22.4271   -8.0282   21.3546 C   0  0  0  0  0  0
  -21.9907   -9.0254   20.4655 C   0  0  0  0  0  0
  -22.7232  -10.2135   20.3063 C   0  0  0  0  0  0
  -21.6846   -6.0739   22.5288 C   0  0  0  0  0  0
  -21.4012   -6.5643   23.8224 C   0  0  0  0  0  0
  -21.3658   -5.6793   24.9189 C   0  0  0  0  0  0
  -21.6037   -4.3055   24.7232 C   0  0  0  0  0  0
  -21.8816   -3.8146   23.4353 C   0  0  0  0  0  0
  -21.9194   -4.6968   22.3407 C   0  0  0  0  0  0
  -22.7910  -13.5258   21.1805 C   0  0  0  0  0  0
  -22.1662   -4.2162   21.0985 F   0  0  0  0  0  0
  -21.5634   -3.4533   25.7741 F   0  0  0  0  0  0
  -30.0437  -13.2831   20.4469 N   0  0  0  0  0  0
  -26.3078  -12.9286   20.3380 N   0  0  0  0  0  0
  -25.9342  -11.6449   20.5766 N   0  0  0  0  0  0
  -22.0524  -12.8279   22.0362 N   0  0  0  0  0  0
  -25.4343  -15.1843   20.4023 N   0  0  0  0  0  0
  -31.8005  -14.7003   20.0853 O   0  0  0  0  0  0
  -21.6625   -6.8880   21.4252 O   0  0  0  0  0  0
  -22.3622  -14.5573   20.6661 O   0  0  0  0  0  0
  -24.6152  -31.8691   23.2108 C   0  0  0  0  0  0
  -25.9033  -32.4837   23.8399 C   0  0  1  0  0  0
  -27.2266  -27.4059   20.0862 C   0  0  0  0  0  0
  -25.5904  -33.8642   24.2319 N   0  0  0  0  0  0
  -23.4049  -30.4957   21.5521 C   0  0  2  0  0  0
  -24.8498  -28.9690   20.1096 C   0  0  0  0  0  0
  -22.7426  -29.4670   22.4972 C   0  0  0  0  0  0
  -18.0284  -28.1395   22.8492 C   0  0  0  0  0  0
  -24.1499  -36.7314   23.2634 C   0  0  0  0  0  0
  -25.9413  -30.8216   21.3745 C   0  0  0  0  0  0
  -26.0139  -29.4571   20.7165 C   0  0  0  0  0  0
  -27.2028  -28.6823   20.7069 C   0  0  0  0  0  0
  -26.0415  -26.9643   19.4438 C   0  0  0  0  0  0
  -24.8607  -27.7222   19.4705 C   0  0  0  0  0  0
  -23.6140  -29.8375   20.1638 C   0  0  0  0  0  0
  -25.4121  -36.3117   24.0327 C   0  0  1  0  0  0
  -20.5882  -28.3663   23.1316 C   0  0  2  0  0  0
  -20.6783  -26.9406   22.5404 C   0  0  0  0  0  0
  -19.5759  -26.6395   21.5209 C   0  0  0  0  0  0
  -18.1932  -26.7939   22.1622 C   0  0  0  0  0  0
  -19.1534  -28.8850   23.2904 C   0  0  0  0  0  0
  -18.9456  -30.1462   23.8898 C   0  0  0  0  0  0
  -17.6456  -30.6591   24.0575 C   0  0  0  0  0  0
  -25.9042  -34.9487   23.5115 C   0  0  0  0  0  0
  -16.5347  -29.9092   23.6342 C   0  0  0  0  0  0
  -16.7271  -28.6524   23.0334 C   0  0  0  0  0  0
  -26.4461  -31.6617   25.0729 C   0  0  0  0  0  0
  -25.3717  -31.3729   26.1465 C   0  0  0  0  0  0
  -27.0274  -30.3049   24.6121 C   0  0  0  0  0  0
  -27.6041  -32.4328   25.7489 C   0  0  0  0  0  0
  -27.5591  -37.1814   24.8464 C   0  0  0  0  0  0
  -21.4155  -29.3028   22.3710 N   0  0  0  0  0  0
  -26.4305  -37.3800   23.9407 N   0  0  0  0  0  0
  -24.6723  -31.0774   22.1025 N   0  0  0  0  0  0
  -23.4186  -28.8186   23.3001 O   0  0  0  0  0  0
  -28.3722  -26.6157   20.1236 O   0  0  0  0  0  0
  -26.5600  -34.8935   22.4677 O   0  0  0  0  0  0
  -23.5329  -32.1465   23.7462 O   0  0  0  0  0  0
  -31.0666  -17.6374   20.7426 C   0  0  0  0  0  0
  -30.0140  -16.7830   21.0158 C   0  0  0  0  0  0
  -29.4031  -19.2068   20.8452 C   0  0  0  0  0  0
  -28.5975  -20.4843   20.8083 C   0  0  0  0  0  0
  -29.1704  -24.2313   20.4627 C   0  0  0  0  0  0
  -28.2561  -23.1353   22.5947 C   0  0  0  0  0  0
  -28.1758  -25.2135   19.7984 C   0  0  0  0  0  0
  -28.5406  -22.9548   21.0920 C   0  0  2  0  0  0
  -30.7145  -19.0003   20.6525 N   0  0  0  0  0  0
  -29.9674  -15.4303   21.1923 N   0  0  0  0  0  0
  -29.2462  -21.6702   20.8513 N   0  0  0  0  0  0
  -27.3636  -20.4226   20.7979 O   0  0  0  0  0  0
  -30.3828  -24.4681   20.4867 O   0  0  0  0  0  0
  -28.5341  -17.7001   21.1586 S   0  0  0  0  0  0
  -31.4761  -12.4144   19.1164 H   0  0  0  0  0  0
  -30.3335  -11.2949   19.8039 H   0  0  0  0  0  0
  -29.7350  -11.7894   17.4192 H   0  0  0  0  0  0
  -29.6651  -13.4983   17.7652 H   0  0  0  0  0  0
  -27.8346  -11.3097   18.8069 H   0  0  0  0  0  0
  -27.3665  -12.6470   17.7891 H   0  0  0  0  0  0
  -27.7176  -14.2497   19.5942 H   0  0  0  0  0  0
  -28.6924  -11.9215   21.3219 H   0  0  0  0  0  0
  -28.4678  -13.5425   21.8876 H   0  0  0  0  0  0
  -25.2769   -9.5693   22.4767 H   0  0  0  0  0  0
  -24.0005   -7.4638   22.7502 H   0  0  0  0  0  0
  -21.0821   -8.8769   19.8970 H   0  0  0  0  0  0
  -22.3689  -10.9674   19.6166 H   0  0  0  0  0  0
  -21.1991   -7.6149   23.9734 H   0  0  0  0  0  0
  -21.1491   -6.0520   25.9096 H   0  0  0  0  0  0
  -22.0593   -2.7615   23.2840 H   0  0  0  0  0  0
  -22.4114  -11.9936   22.4760 H   0  0  0  0  0  0
  -21.1148  -13.1361   22.2549 H   0  0  0  0  0  0
  -24.6556  -15.8282   20.4887 H   0  0  0  0  0  0
  -26.2778  -15.6280   20.0619 H   0  0  0  0  0  0
  -26.7106  -32.5530   23.1157 H   0  0  0  0  0  0
  -25.0075  -33.9843   25.0475 H   0  0  0  0  0  0
  -22.6922  -31.3118   21.4162 H   0  0  0  0  0  0
  -23.3757  -35.9653   23.3310 H   0  0  0  0  0  0
  -24.3580  -36.8906   22.2041 H   0  0  0  0  0  0
  -23.7246  -37.6522   23.6643 H   0  0  0  0  0  0
  -26.0648  -31.5884   20.6081 H   0  0  0  0  0  0
  -26.8263  -30.8674   21.9971 H   0  0  0  0  0  0
  -28.0962  -29.0515   21.1921 H   0  0  0  0  0  0
  -25.9908  -26.0327   18.9004 H   0  0  0  0  0  0
  -23.9723  -27.3487   18.9808 H   0  0  0  0  0  0
  -23.7244  -30.6182   19.4097 H   0  0  0  0  0  0
  -22.7380  -29.2605   19.8632 H   0  0  0  0  0  0
  -25.1300  -36.1980   25.0816 H   0  0  0  0  0  0
  -20.9985  -28.3226   24.1431 H   0  0  0  0  0  0
  -20.5698  -26.2269   23.3579 H   0  0  0  0  0  0
  -21.6654  -26.7456   22.1191 H   0  0  0  0  0  0
  -19.6910  -25.6306   21.1232 H   0  0  0  0  0  0
  -19.6707  -27.3223   20.6751 H   0  0  0  0  0  0
  -17.4206  -26.6690   21.4018 H   0  0  0  0  0  0
  -18.0334  -26.0086   22.9023 H   0  0  0  0  0  0
  -19.7926  -30.7297   24.2246 H   0  0  0  0  0  0
  -17.5003  -31.6268   24.5176 H   0  0  0  0  0  0
  -15.5348  -30.2982   23.7673 H   0  0  0  0  0  0
  -15.8675  -28.0851   22.7008 H   0  0  0  0  0  0
  -24.5917  -30.7050   25.7799 H   0  0  0  0  0  0
  -24.8886  -32.2888   26.4883 H   0  0  0  0  0  0
  -25.8065  -30.8923   27.0234 H   0  0  0  0  0  0
  -26.2821  -29.6825   24.1166 H   0  0  0  0  0  0
  -27.4006  -29.7273   25.4583 H   0  0  0  0  0  0
  -27.8685  -30.4346   23.9308 H   0  0  0  0  0  0
  -27.2684  -33.3628   26.2089 H   0  0  0  0  0  0
  -28.3855  -32.6873   25.0317 H   0  0  0  0  0  0
  -28.0719  -31.8430   26.5381 H   0  0  0  0  0  0
  -28.2613  -38.0111   24.7518 H   0  0  0  0  0  0
  -28.1083  -36.2635   24.6294 H   0  0  0  0  0  0
  -27.2313  -37.1473   25.8870 H   0  0  0  0  0  0
  -20.9284  -29.8742   21.6948 H   0  0  0  0  0  0
  -26.0184  -38.2874   24.1403 H   0  0  0  0  0  0
  -32.1033  -17.3606   20.6078 H   0  0  0  0  0  0
  -27.6671  -24.0341   22.7780 H   0  0  0  0  0  0
  -29.1773  -23.2229   23.1730 H   0  0  0  0  0  0
  -27.6876  -22.2948   22.9951 H   0  0  0  0  0  0
  -27.1905  -24.8893   20.1330 H   0  0  0  0  0  0
  -28.2180  -25.0784   18.7182 H   0  0  0  0  0  0
  -27.5655  -22.8578   20.6125 H   0  0  0  0  0  0
  -29.1073  -15.0772   21.5856 H   0  0  0  0  0  0
  -30.2584  -21.6641   20.8266 H   0  0  0  0  0  0
  1 25  1  0  0  0
  1 30  2  0  0  0
  1 80  1  0  0  0
  2  3  1  0  0  0
  2 25  1  0  0  0
  2 85  1  0  0  0
  2 86  1  0  0  0
  3  4  1  0  0  0
  3 87  1  0  0  0
  3 88  1  0  0  0
  4  5  1  0  0  0
  4 89  1  0  0  0
  4 90  1  0  0  0
  5  6  1  0  0  0
  5 26  1  0  0  0
  5 91  1  0  0  0
  6 25  1  0  0  0
  6 92  1  0  0  0
  6 93  1  0  0  0
  7  8  2  0  0  0
  7 26  1  0  0  0
  7 29  1  0  0  0
  8  9  1  0  0  0
  8 22  1  0  0  0
  9 10  1  0  0  0
  9 27  2  0  0  0
 10 11  2  0  0  0
 10 15  1  0  0  0
 11 12  1  0  0  0
 11 94  1  0  0  0
 12 13  2  0  0  0
 12 95  1  0  0  0
 13 14  1  0  0  0
 13 31  1  0  0  0
 14 15  2  0  0  0
 14 96  1  0  0  0
 15 97  1  0  0  0
 16 17  2  0  0  0
 16 21  1  0  0  0
 16 31  1  0  0  0
 17 18  1  0  0  0
 17 98  1  0  0  0
 18 19  2  0  0  0
 18 99  1  0  0  0
 19 20  1  0  0  0
 19 24  1  0  0  0
 20 21  2  0  0  0
 20100  1  0  0  0
 21 23  1  0  0  0
 22 28  1  0  0  0
 22 32  2  0  0  0
 26 27  1  0  0  0
 28101  1  0  0  0
 28102  1  0  0  0
 29103  1  0  0  0
 29104  1  0  0  0
 33 34  1  0  0  0
 33 66  1  0  0  0
 33 70  2  0  0  0
 34 36  1  0  0  0
 34 59  1  0  0  0
 34105  1  0  0  0
 35 44  2  0  0  0
 35 45  1  0  0  0
 35 68  1  0  0  0
 36 56  1  0  0  0
 36106  1  0  0  0
 37 39  1  0  0  0
 37 47  1  0  0  0
 37 66  1  0  0  0
 37107  1  0  0  0
 38 43  2  0  0  0
 38 46  1  0  0  0
 38 47  1  0  0  0
 39 64  1  0  0  0
 39 67  2  0  0  0
 40 52  1  0  0  0
 40 53  2  0  0  0
 40 58  1  0  0  0
 41108  1  0  0  0
 41109  1  0  0  0
 41110  1  0  0  0
 41 48  1  0  0  0
 42 43  1  0  0  0
 42 66  1  0  0  0
 42111  1  0  0  0
 42112  1  0  0  0
 43 44  1  0  0  0
 44113  1  0  0  0
 45 46  2  0  0  0
 45114  1  0  0  0
 46115  1  0  0  0
 47116  1  0  0  0
 47117  1  0  0  0
 48 56  1  0  0  0
 48 65  1  0  0  0
 48118  1  0  0  0
 49 50  1  0  0  0
 49 53  1  0  0  0
 49 64  1  0  0  0
 49119  1  0  0  0
 50 51  1  0  0  0
 50120  1  0  0  0
 50121  1  0  0  0
 51 52  1  0  0  0
 51122  1  0  0  0
 51123  1  0  0  0
 52124  1  0  0  0
 52125  1  0  0  0
 53 54  1  0  0  0
 54 55  2  0  0  0
 54126  1  0  0  0
 55 57  1  0  0  0
 55127  1  0  0  0
 56 69  2  0  0  0
 57 58  2  0  0  0
 57128  1  0  0  0
 58129  1  0  0  0
 59 60  1  0  0  0
 59 61  1  0  0  0
 59 62  1  0  0  0
 60130  1  0  0  0
 60131  1  0  0  0
 60132  1  0  0  0
 61133  1  0  0  0
 61134  1  0  0  0
 61135  1  0  0  0
 62136  1  0  0  0
 62137  1  0  0  0
 62138  1  0  0  0
 63 65  1  0  0  0
 63139  1  0  0  0
 63140  1  0  0  0
 63141  1  0  0  0
 64142  1  0  0  0
 65143  1  0  0  0
 68 77  1  0  0  0
 71 72  2  0  0  0
 71 79  1  0  0  0
 71144  1  0  0  0
 72 80  1  0  0  0
 72 84  1  0  0  0
 73 74  1  0  0  0
 73 79  2  0  0  0
 73 84  1  0  0  0
 74 81  1  0  0  0
 74 82  2  0  0  0
 75 77  1  0  0  0
 75 78  1  0  0  0
 75 83  2  0  0  0
 76145  1  0  0  0
 76146  1  0  0  0
 76147  1  0  0  0
 76 78  1  0  0  0
 77148  1  0  0  0
 77149  1  0  0  0
 78 81  1  0  0  0
 78150  1  0  0  0
 80151  1  0  0  0
 81152  1  0  0  0
M  ISO  4   1 100  68 101  77 101  80 100
M  END
> <chiral flag>
0

> <version>
0

> <s_m_source_file>
/data/baiqing/PycharmProjects/Reinvent-master-3.2/result/LINK_invent/BTK/process_docking_weight1_custom_product_contain_oxygen_bond_distance_aromatic_linkinvent_7_9_3/rearranged_h_0175.sdf

> <i_m_source_file_index>
75

> <r_mmod_Potential_Energy-OPLS-2005>
-69.6422805786133

> <r_mmod_Stretch_Energy-OPLS-2005>
42.9153366088867

> <r_mmod_Bend_Energy-OPLS-2005>
111.331184387207

> <r_mmod_Torsional_Energy-OPLS-2005>
236.910614013672

> <r_mmod_Improper_Torsional_Energy-OPLS-2005>
4.35667276382446

> <r_mmod_Van_der_Waal_Energy-OPLS-2005>
140.447494506836

> <r_mmod_Electrostatic_Energy-OPLS-2005>
-379.5986328125

> <r_mmod_Solvation_Energy-OPLS-2005>
-242.401916503906

> <b_mmod_Minimization_Converged-OPLS-2005>
0

> <r_mmod_RMS_Derivative-OPLS-2005>
2.34127020835876

$$$$
76
                    3D
 Structure written by MMmdl.
149157  0  0  1  0            999 V2000
  -30.5896  -14.7002   20.4907 C   0  0  0  0  0  0
  -30.4470  -12.4300   19.4615 C   0  0  0  0  0  0
  -29.5142  -12.5143   18.2311 C   0  0  0  0  0  0
  -28.0380  -12.3400   18.6425 C   0  0  0  0  0  0
  -27.6525  -13.2179   19.8622 C   0  0  2  0  0  0
  -28.6974  -13.0917   20.9944 C   0  0  0  0  0  0
  -25.2562  -13.8167   20.5681 C   0  0  0  0  0  0
  -24.1832  -13.0435   20.9198 C   0  0  0  0  0  0
  -24.6399  -11.6905   20.8742 C   0  0  0  0  0  0
  -23.9066  -10.4290   21.0405 C   0  0  0  0  0  0
  -24.3617   -9.4205   21.9183 C   0  0  0  0  0  0
  -23.6289   -8.2244   22.0755 C   0  0  0  0  0  0
  -22.4272   -8.0281   21.3546 C   0  0  0  0  0  0
  -21.9905   -9.0256   20.4649 C   0  0  0  0  0  0
  -22.7236  -10.2134   20.3057 C   0  0  0  0  0  0
  -21.6855   -6.0732   22.5277 C   0  0  0  0  0  0
  -21.4017   -6.5637   23.8209 C   0  0  0  0  0  0
  -21.3658   -5.6790   24.9172 C   0  0  0  0  0  0
  -21.6042   -4.3053   24.7224 C   0  0  0  0  0  0
  -21.8820   -3.8144   23.4345 C   0  0  0  0  0  0
  -21.9193   -4.6960   22.3401 C   0  0  0  0  0  0
  -22.7855  -13.5232   21.1854 C   0  0  0  0  0  0
  -22.1662   -4.2146   21.0979 F   0  0  0  0  0  0
  -21.5626   -3.4537   25.7737 F   0  0  0  0  0  0
  -30.0074  -13.4562   20.4311 N   0  0  0  0  0  0
  -26.2986  -12.9347   20.3307 N   0  0  0  0  0  0
  -25.9328  -11.6503   20.5753 N   0  0  0  0  0  0
  -22.0492  -12.8231   22.0409 N   0  0  0  0  0  0
  -25.4272  -15.1889   20.4071 N   0  0  0  0  0  0
  -31.7477  -14.8804   20.1035 O   0  0  0  0  0  0
  -21.6640   -6.8876   21.4239 O   0  0  0  0  0  0
  -22.3543  -14.5536   20.6694 O   0  0  0  0  0  0
  -24.6283  -31.8571   23.2004 C   0  0  0  0  0  0
  -25.9119  -32.4765   23.8344 C   0  0  1  0  0  0
  -27.2270  -27.2915   20.1278 C   0  0  0  0  0  0
  -25.5923  -33.8566   24.2270 N   0  0  0  0  0  0
  -23.4248  -30.4788   21.5430 C   0  0  2  0  0  0
  -24.8745  -28.9283   20.1118 C   0  0  0  0  0  0
  -22.7491  -29.4604   22.4924 C   0  0  0  0  0  0
  -18.0288  -28.1387   22.8486 C   0  0  0  0  0  0
  -24.1489  -36.7290   23.2637 C   0  0  0  0  0  0
  -25.9678  -30.7784   21.3775 C   0  0  0  0  0  0
  -26.0434  -29.4018   20.7228 C   0  0  0  0  0  0
  -27.2232  -28.5941   20.7235 C   0  0  0  0  0  0
  -26.0394  -26.8805   19.4840 C   0  0  0  0  0  0
  -24.8751  -27.6732   19.4831 C   0  0  0  0  0  0
  -23.6430  -29.8116   20.1592 C   0  0  0  0  0  0
  -25.4112  -36.3076   24.0329 C   0  0  1  0  0  0
  -20.5889  -28.3693   23.1277 C   0  0  2  0  0  0
  -20.6777  -26.9413   22.5408 C   0  0  0  0  0  0
  -19.5752  -26.6383   21.5212 C   0  0  0  0  0  0
  -18.1932  -26.7929   22.1626 C   0  0  0  0  0  0
  -19.1541  -28.8858   23.2875 C   0  0  0  0  0  0
  -18.9463  -30.1458   23.8894 C   0  0  0  0  0  0
  -17.6462  -30.6588   24.0561 C   0  0  0  0  0  0
  -25.9051  -34.9445   23.5103 C   0  0  0  0  0  0
  -16.5353  -29.9085   23.6329 C   0  0  0  0  0  0
  -16.7274  -28.6502   23.0353 C   0  0  0  0  0  0
  -26.4496  -31.6582   25.0722 C   0  0  0  0  0  0
  -25.3725  -31.3736   26.1450 C   0  0  0  0  0  0
  -27.0334  -30.2997   24.6196 C   0  0  0  0  0  0
  -27.6056  -32.4316   25.7491 C   0  0  0  0  0  0
  -27.5582  -37.1795   24.8460 C   0  0  0  0  0  0
  -21.4200  -29.3042   22.3669 N   0  0  0  0  0  0
  -26.4288  -37.3774   23.9412 N   0  0  0  0  0  0
  -24.6924  -31.0554   22.0971 N   0  0  0  0  0  0
  -23.4199  -28.8145   23.3017 O   0  0  0  0  0  0
  -28.3239  -26.4076   20.1485 O   0  0  0  0  0  0
  -26.5623  -34.8917   22.4672 O   0  0  0  0  0  0
  -23.5439  -32.1383   23.7311 O   0  0  0  0  0  0
  -30.8256  -17.9884   20.0999 C   0  0  0  0  0  0
  -28.6807  -17.9878   21.1175 C   0  0  0  0  0  0
  -29.7907  -17.2101   20.6858 C   0  0  0  0  0  0
  -30.6985  -19.4125   19.9790 C   0  0  0  0  0  0
  -29.5374  -20.1040   20.4383 C   0  0  0  0  0  0
  -28.1001  -25.0329   20.4384 C   0  0  0  0  0  0
  -28.9377  -23.9592   20.1961 C   0  0  0  0  0  0
  -28.5742  -22.5405   20.5605 C   0  0  0  0  0  0
  -28.5526  -19.3483   21.0048 N   0  0  0  0  0  0
  -29.7592  -15.7382   20.8546 N   0  0  0  0  0  0
  -29.5046  -21.5691   20.2582 N   0  0  0  0  0  0
  -27.5023  -22.2552   21.1008 O   0  0  0  0  0  0
  -30.1240  -24.1831   19.6120 O   0  0  0  0  0  0
  -31.7048  -20.1217   19.4100 F   0  0  0  0  0  0
  -31.4855  -12.5721   19.1576 H   0  0  0  0  0  0
  -30.4009  -11.4380   19.9135 H   0  0  0  0  0  0
  -29.7894  -11.7566   17.4961 H   0  0  0  0  0  0
  -29.6448  -13.4791   17.7382 H   0  0  0  0  0  0
  -27.8852  -11.2873   18.8834 H   0  0  0  0  0  0
  -27.3824  -12.5563   17.7980 H   0  0  0  0  0  0
  -27.6639  -14.2496   19.5105 H   0  0  0  0  0  0
  -28.7242  -12.0719   21.3814 H   0  0  0  0  0  0
  -28.4320  -13.7231   21.8438 H   0  0  0  0  0  0
  -25.2763   -9.5679   22.4754 H   0  0  0  0  0  0
  -23.9998   -7.4635   22.7475 H   0  0  0  0  0  0
  -21.0835   -8.8775   19.8957 H   0  0  0  0  0  0
  -22.3695  -10.9672   19.6165 H   0  0  0  0  0  0
  -21.2013   -7.6145   23.9711 H   0  0  0  0  0  0
  -21.1478   -6.0521   25.9073 H   0  0  0  0  0  0
  -22.0601   -2.7605   23.2849 H   0  0  0  0  0  0
  -22.4102  -11.9894   22.4806 H   0  0  0  0  0  0
  -21.1110  -13.1264   22.2609 H   0  0  0  0  0  0
  -24.6516  -15.8365   20.4955 H   0  0  0  0  0  0
  -26.2569  -15.6182   20.0194 H   0  0  0  0  0  0
  -26.7186  -32.5430   23.1090 H   0  0  0  0  0  0
  -25.0059  -33.9706   25.0408 H   0  0  0  0  0  0
  -22.7198  -31.2998   21.3972 H   0  0  0  0  0  0
  -23.3755  -35.9618   23.3286 H   0  0  0  0  0  0
  -24.3584  -36.8925   22.2055 H   0  0  0  0  0  0
  -23.7235  -37.6485   23.6669 H   0  0  0  0  0  0
  -26.1015  -31.5390   20.6071 H   0  0  0  0  0  0
  -26.8471  -30.8300   22.0079 H   0  0  0  0  0  0
  -28.1200  -28.9503   21.2110 H   0  0  0  0  0  0
  -26.0013  -25.9189   18.9922 H   0  0  0  0  0  0
  -23.9815  -27.3060   18.9973 H   0  0  0  0  0  0
  -23.7643  -30.5873   19.4022 H   0  0  0  0  0  0
  -22.7627  -29.2420   19.8559 H   0  0  0  0  0  0
  -25.1289  -36.1927   25.0822 H   0  0  0  0  0  0
  -20.9976  -28.3270   24.1399 H   0  0  0  0  0  0
  -20.5680  -26.2300   23.3609 H   0  0  0  0  0  0
  -21.6647  -26.7444   22.1201 H   0  0  0  0  0  0
  -19.6913  -25.6293   21.1243 H   0  0  0  0  0  0
  -19.6686  -27.3192   20.6741 H   0  0  0  0  0  0
  -17.4199  -26.6669   21.4033 H   0  0  0  0  0  0
  -18.0337  -26.0074   22.9027 H   0  0  0  0  0  0
  -19.7938  -30.7276   24.2262 H   0  0  0  0  0  0
  -17.5016  -31.6269   24.5161 H   0  0  0  0  0  0
  -15.5354  -30.2987   23.7656 H   0  0  0  0  0  0
  -15.8673  -28.0819   22.7073 H   0  0  0  0  0  0
  -24.5872  -30.7120   25.7776 H   0  0  0  0  0  0
  -24.8953  -32.2912   26.4899 H   0  0  0  0  0  0
  -25.8037  -30.8881   27.0213 H   0  0  0  0  0  0
  -26.2910  -29.6747   24.1216 H   0  0  0  0  0  0
  -27.4013  -29.7256   25.4712 H   0  0  0  0  0  0
  -27.8792  -30.4270   23.9435 H   0  0  0  0  0  0
  -27.2669  -33.3621   26.2063 H   0  0  0  0  0  0
  -28.3867  -32.6868   25.0317 H   0  0  0  0  0  0
  -28.0720  -31.8443   26.5411 H   0  0  0  0  0  0
  -28.2583  -38.0109   24.7530 H   0  0  0  0  0  0
  -28.1094  -36.2642   24.6252 H   0  0  0  0  0  0
  -27.2305  -37.1405   25.8863 H   0  0  0  0  0  0
  -20.9382  -29.8763   21.6874 H   0  0  0  0  0  0
  -26.0169  -38.2845   24.1425 H   0  0  0  0  0  0
  -31.7207  -17.5108   19.7313 H   0  0  0  0  0  0
  -27.8365  -17.4918   21.5740 H   0  0  0  0  0  0
  -27.1390  -24.8821   20.9139 H   0  0  0  0  0  0
  -28.8836  -15.3906   21.2182 H   0  0  0  0  0  0
  -30.3338  -21.9437   19.8186 H   0  0  0  0  0  0
  -30.1808  -25.1182   19.4581 H   0  0  0  0  0  0
  1 25  1  0  0  0
  1 30  2  0  0  0
  1 80  1  0  0  0
  2  3  1  0  0  0
  2 25  1  0  0  0
  2 85  1  0  0  0
  2 86  1  0  0  0
  3  4  1  0  0  0
  3 87  1  0  0  0
  3 88  1  0  0  0
  4  5  1  0  0  0
  4 89  1  0  0  0
  4 90  1  0  0  0
  5  6  1  0  0  0
  5 26  1  0  0  0
  5 91  1  0  0  0
  6 25  1  0  0  0
  6 92  1  0  0  0
  6 93  1  0  0  0
  7  8  2  0  0  0
  7 26  1  0  0  0
  7 29  1  0  0  0
  8  9  1  0  0  0
  8 22  1  0  0  0
  9 10  1  0  0  0
  9 27  2  0  0  0
 10 11  2  0  0  0
 10 15  1  0  0  0
 11 12  1  0  0  0
 11 94  1  0  0  0
 12 13  2  0  0  0
 12 95  1  0  0  0
 13 14  1  0  0  0
 13 31  1  0  0  0
 14 15  2  0  0  0
 14 96  1  0  0  0
 15 97  1  0  0  0
 16 17  2  0  0  0
 16 21  1  0  0  0
 16 31  1  0  0  0
 17 18  1  0  0  0
 17 98  1  0  0  0
 18 19  2  0  0  0
 18 99  1  0  0  0
 19 20  1  0  0  0
 19 24  1  0  0  0
 20 21  2  0  0  0
 20100  1  0  0  0
 21 23  1  0  0  0
 22 28  1  0  0  0
 22 32  2  0  0  0
 26 27  1  0  0  0
 28101  1  0  0  0
 28102  1  0  0  0
 29103  1  0  0  0
 29104  1  0  0  0
 33 34  1  0  0  0
 33 66  1  0  0  0
 33 70  2  0  0  0
 34 36  1  0  0  0
 34 59  1  0  0  0
 34105  1  0  0  0
 35 44  2  0  0  0
 35 45  1  0  0  0
 35 68  1  0  0  0
 36 56  1  0  0  0
 36106  1  0  0  0
 37 39  1  0  0  0
 37 47  1  0  0  0
 37 66  1  0  0  0
 37107  1  0  0  0
 38 43  2  0  0  0
 38 46  1  0  0  0
 38 47  1  0  0  0
 39 64  1  0  0  0
 39 67  2  0  0  0
 40 52  1  0  0  0
 40 53  2  0  0  0
 40 58  1  0  0  0
 41108  1  0  0  0
 41109  1  0  0  0
 41110  1  0  0  0
 41 48  1  0  0  0
 42 43  1  0  0  0
 42 66  1  0  0  0
 42111  1  0  0  0
 42112  1  0  0  0
 43 44  1  0  0  0
 44113  1  0  0  0
 45 46  2  0  0  0
 45114  1  0  0  0
 46115  1  0  0  0
 47116  1  0  0  0
 47117  1  0  0  0
 48 56  1  0  0  0
 48 65  1  0  0  0
 48118  1  0  0  0
 49 50  1  0  0  0
 49 53  1  0  0  0
 49 64  1  0  0  0
 49119  1  0  0  0
 50 51  1  0  0  0
 50120  1  0  0  0
 50121  1  0  0  0
 51 52  1  0  0  0
 51122  1  0  0  0
 51123  1  0  0  0
 52124  1  0  0  0
 52125  1  0  0  0
 53 54  1  0  0  0
 54 55  2  0  0  0
 54126  1  0  0  0
 55 57  1  0  0  0
 55127  1  0  0  0
 56 69  2  0  0  0
 57 58  2  0  0  0
 57128  1  0  0  0
 58129  1  0  0  0
 59 60  1  0  0  0
 59 61  1  0  0  0
 59 62  1  0  0  0
 60130  1  0  0  0
 60131  1  0  0  0
 60132  1  0  0  0
 61133  1  0  0  0
 61134  1  0  0  0
 61135  1  0  0  0
 62136  1  0  0  0
 62137  1  0  0  0
 62138  1  0  0  0
 63 65  1  0  0  0
 63139  1  0  0  0
 63140  1  0  0  0
 63141  1  0  0  0
 64142  1  0  0  0
 65143  1  0  0  0
 68 76  1  0  0  0
 71 73  2  0  0  0
 71 74  1  0  0  0
 71144  1  0  0  0
 72 73  1  0  0  0
 72 79  2  0  0  0
 72145  1  0  0  0
 73 80  1  0  0  0
 74 75  2  0  0  0
 74 84  1  0  0  0
 75 79  1  0  0  0
 75 81  1  0  0  0
 76 77  2  0  0  0
 76146  1  0  0  0
 77 78  1  0  0  0
 77 83  1  0  0  0
 78 81  1  0  0  0
 78 82  2  0  0  0
 80147  1  0  0  0
 81148  1  0  0  0
 83149  1  0  0  0
M  ISO  4   1 100  68 101  76 101  80 100
M  END
> <chiral flag>
0

> <version>
0

> <s_m_source_file>
/data/baiqing/PycharmProjects/Reinvent-master-3.2/result/LINK_invent/BTK/process_docking_weight1_custom_product_contain_oxygen_bond_distance_aromatic_linkinvent_7_9_3/rearranged_h_0175.sdf

> <i_m_source_file_index>
76

> <r_mmod_Potential_Energy-OPLS-2005>
-153.889251708984

> <r_mmod_Stretch_Energy-OPLS-2005>
92.8927536010742

> <r_mmod_Bend_Energy-OPLS-2005>
146.847702026367

> <r_mmod_Torsional_Energy-OPLS-2005>
197.890487670898

> <r_mmod_Improper_Torsional_Energy-OPLS-2005>
3.99383687973022

> <r_mmod_Van_der_Waal_Energy-OPLS-2005>
145.466796875

> <r_mmod_Electrostatic_Energy-OPLS-2005>
-571.767456054688

> <r_mmod_Solvation_Energy-OPLS-2005>
-236.277984619141

> <b_mmod_Minimization_Converged-OPLS-2005>
0

> <r_mmod_RMS_Derivative-OPLS-2005>
0.38497605919838

$$$$
77
                    3D
 Structure written by MMmdl.
150158  0  0  1  0            999 V2000
  -30.5994  -14.6876   20.4850 C   0  0  0  0  0  0
  -30.4456  -12.4214   19.4535 C   0  0  0  0  0  0
  -29.5110  -12.5123   18.2256 C   0  0  0  0  0  0
  -28.0345  -12.3426   18.6380 C   0  0  0  0  0  0
  -27.6508  -13.2190   19.8597 C   0  0  2  0  0  0
  -28.6991  -13.0910   20.9887 C   0  0  0  0  0  0
  -25.2555  -13.8176   20.5697 C   0  0  0  0  0  0
  -24.1823  -13.0434   20.9186 C   0  0  0  0  0  0
  -24.6397  -11.6906   20.8730 C   0  0  0  0  0  0
  -23.9064  -10.4291   21.0397 C   0  0  0  0  0  0
  -24.3615   -9.4209   21.9177 C   0  0  0  0  0  0
  -23.6287   -8.2247   22.0752 C   0  0  0  0  0  0
  -22.4269   -8.0283   21.3544 C   0  0  0  0  0  0
  -21.9902   -9.0256   20.4647 C   0  0  0  0  0  0
  -22.7233  -10.2135   20.3052 C   0  0  0  0  0  0
  -21.6854   -6.0731   22.5277 C   0  0  0  0  0  0
  -21.4017   -6.5636   23.8210 C   0  0  0  0  0  0
  -21.3660   -5.6789   24.9171 C   0  0  0  0  0  0
  -21.6044   -4.3052   24.7223 C   0  0  0  0  0  0
  -21.8820   -3.8142   23.4345 C   0  0  0  0  0  0
  -21.9194   -4.6958   22.3401 C   0  0  0  0  0  0
  -22.7845  -13.5227   21.1850 C   0  0  0  0  0  0
  -22.1660   -4.2144   21.0979 F   0  0  0  0  0  0
  -21.5627   -3.4537   25.7737 F   0  0  0  0  0  0
  -30.0093  -13.4490   20.4207 N   0  0  0  0  0  0
  -26.2981  -12.9360   20.3311 N   0  0  0  0  0  0
  -25.9327  -11.6509   20.5742 N   0  0  0  0  0  0
  -22.0487  -12.8226   22.0412 N   0  0  0  0  0  0
  -25.4233  -15.1907   20.4171 N   0  0  0  0  0  0
  -31.7721  -14.8517   20.1374 O   0  0  0  0  0  0
  -21.6638   -6.8875   21.4239 O   0  0  0  0  0  0
  -22.3523  -14.5530   20.6695 O   0  0  0  0  0  0
  -24.6292  -31.8579   23.2012 C   0  0  0  0  0  0
  -25.9130  -32.4764   23.8345 C   0  0  1  0  0  0
  -27.2229  -27.2877   20.1076 C   0  0  0  0  0  0
  -25.5934  -33.8566   24.2268 N   0  0  0  0  0  0
  -23.4235  -30.4830   21.5456 C   0  0  2  0  0  0
  -24.8680  -28.9369   20.1108 C   0  0  0  0  0  0
  -22.7487  -29.4619   22.4929 C   0  0  0  0  0  0
  -18.0288  -28.1386   22.8481 C   0  0  0  0  0  0
  -24.1492  -36.7291   23.2637 C   0  0  0  0  0  0
  -25.9690  -30.7767   21.3798 C   0  0  0  0  0  0
  -26.0398  -29.4024   20.7191 C   0  0  0  0  0  0
  -27.2162  -28.5889   20.7113 C   0  0  0  0  0  0
  -26.0183  -26.8854   19.4791 C   0  0  0  0  0  0
  -24.8610  -27.6840   19.4844 C   0  0  0  0  0  0
  -23.6388  -29.8213   20.1602 C   0  0  0  0  0  0
  -25.4114  -36.3076   24.0329 C   0  0  1  0  0  0
  -20.5890  -28.3693   23.1276 C   0  0  2  0  0  0
  -20.6778  -26.9414   22.5408 C   0  0  0  0  0  0
  -19.5755  -26.6381   21.5211 C   0  0  0  0  0  0
  -18.1934  -26.7929   22.1621 C   0  0  0  0  0  0
  -19.1541  -28.8857   23.2873 C   0  0  0  0  0  0
  -18.9464  -30.1458   23.8893 C   0  0  0  0  0  0
  -17.6464  -30.6587   24.0561 C   0  0  0  0  0  0
  -25.9057  -34.9445   23.5101 C   0  0  0  0  0  0
  -16.5355  -29.9085   23.6330 C   0  0  0  0  0  0
  -16.7275  -28.6502   23.0352 C   0  0  0  0  0  0
  -26.4494  -31.6580   25.0726 C   0  0  0  0  0  0
  -25.3715  -31.3733   26.1447 C   0  0  0  0  0  0
  -27.0333  -30.2991   24.6215 C   0  0  0  0  0  0
  -27.6056  -32.4310   25.7493 C   0  0  0  0  0  0
  -27.5585  -37.1796   24.8457 C   0  0  0  0  0  0
  -21.4197  -29.3044   22.3668 N   0  0  0  0  0  0
  -26.4290  -37.3774   23.9411 N   0  0  0  0  0  0
  -24.6928  -31.0564   22.0983 N   0  0  0  0  0  0
  -23.4201  -28.8156   23.3018 O   0  0  0  0  0  0
  -28.3460  -26.4294   20.1551 O   0  0  0  0  0  0
  -26.5631  -34.8916   22.4672 O   0  0  0  0  0  0
  -23.5450  -32.1397   23.7321 O   0  0  0  0  0  0
  -28.5470  -19.3055   20.1433 C   0  0  0  0  0  0
  -29.6229  -20.1497   20.5354 C   0  0  0  0  0  0
  -29.8129  -17.1938   20.6124 C   0  0  0  0  0  0
  -28.6395  -17.8793   20.1931 C   0  0  0  0  0  0
  -30.8030  -19.4613   20.9490 C   0  0  0  0  0  0
  -30.9041  -18.0286   20.9837 C   0  0  0  0  0  0
  -28.2517  -25.0392   19.8642 C   0  0  0  0  0  0
  -28.9500  -23.9958   20.4371 C   0  0  0  0  0  0
  -28.7321  -22.5597   20.0332 C   0  0  0  0  0  0
  -29.5659  -21.6282   20.6072 N   0  0  0  0  0  0
  -29.7435  -15.7287   20.7498 N   0  0  0  0  0  0
  -27.8674  -22.2151   19.2250 O   0  0  0  0  0  0
  -29.8517  -24.2641   21.3929 O   0  0  0  0  0  0
  -27.5562  -17.1403   19.8476 F   0  0  0  0  0  0
  -31.8691  -20.1962   21.3495 F   0  0  0  0  0  0
  -32.0510  -17.4664   21.4357 F   0  0  0  0  0  0
  -31.4840  -12.5617   19.1483 H   0  0  0  0  0  0
  -30.3966  -11.4294   19.9050 H   0  0  0  0  0  0
  -29.7821  -11.7562   17.4876 H   0  0  0  0  0  0
  -29.6443  -13.4785   17.7355 H   0  0  0  0  0  0
  -27.8779  -11.2894   18.8752 H   0  0  0  0  0  0
  -27.3795  -12.5639   17.7943 H   0  0  0  0  0  0
  -27.6589  -14.2504   19.5076 H   0  0  0  0  0  0
  -28.7227  -12.0715   21.3765 H   0  0  0  0  0  0
  -28.4412  -13.7262   21.8376 H   0  0  0  0  0  0
  -25.2761   -9.5684   22.4749 H   0  0  0  0  0  0
  -23.9996   -7.4639   22.7472 H   0  0  0  0  0  0
  -21.0831   -8.8775   19.8955 H   0  0  0  0  0  0
  -22.3690  -10.9671   19.6161 H   0  0  0  0  0  0
  -21.2013   -7.6144   23.9711 H   0  0  0  0  0  0
  -21.1478   -6.0519   25.9073 H   0  0  0  0  0  0
  -22.0601   -2.7602   23.2850 H   0  0  0  0  0  0
  -22.4099  -11.9892   22.4812 H   0  0  0  0  0  0
  -21.1105  -13.1259   22.2610 H   0  0  0  0  0  0
  -24.6532  -15.8374   20.5447 H   0  0  0  0  0  0
  -26.2700  -15.6565   20.1086 H   0  0  0  0  0  0
  -26.7195  -32.5415   23.1085 H   0  0  0  0  0  0
  -25.0055  -33.9702   25.0397 H   0  0  0  0  0  0
  -22.7186  -31.3048   21.4033 H   0  0  0  0  0  0
  -23.3758  -35.9620   23.3288 H   0  0  0  0  0  0
  -24.3586  -36.8922   22.2054 H   0  0  0  0  0  0
  -23.7243  -37.6488   23.6667 H   0  0  0  0  0  0
  -26.1097  -31.5409   20.6143 H   0  0  0  0  0  0
  -26.8459  -30.8206   22.0140 H   0  0  0  0  0  0
  -28.1141  -28.9427   21.1985 H   0  0  0  0  0  0
  -25.9148  -25.9354   18.9832 H   0  0  0  0  0  0
  -23.9622  -27.3201   19.0050 H   0  0  0  0  0  0
  -23.7603  -30.5996   19.4057 H   0  0  0  0  0  0
  -22.7567  -29.2548   19.8563 H   0  0  0  0  0  0
  -25.1293  -36.1926   25.0821 H   0  0  0  0  0  0
  -20.9975  -28.3271   24.1400 H   0  0  0  0  0  0
  -20.5675  -26.2304   23.3609 H   0  0  0  0  0  0
  -21.6650  -26.7440   22.1207 H   0  0  0  0  0  0
  -19.6918  -25.6290   21.1245 H   0  0  0  0  0  0
  -19.6692  -27.3185   20.6735 H   0  0  0  0  0  0
  -17.4201  -26.6671   21.4027 H   0  0  0  0  0  0
  -18.0335  -26.0071   22.9018 H   0  0  0  0  0  0
  -19.7941  -30.7276   24.2257 H   0  0  0  0  0  0
  -17.5019  -31.6267   24.5163 H   0  0  0  0  0  0
  -15.5355  -30.2988   23.7656 H   0  0  0  0  0  0
  -15.8673  -28.0819   22.7073 H   0  0  0  0  0  0
  -24.5890  -30.7080   25.7775 H   0  0  0  0  0  0
  -24.8903  -32.2904   26.4857 H   0  0  0  0  0  0
  -25.8026  -30.8917   27.0231 H   0  0  0  0  0  0
  -26.2915  -29.6741   24.1229 H   0  0  0  0  0  0
  -27.3995  -29.7254   25.4739 H   0  0  0  0  0  0
  -27.8804  -30.4255   23.9469 H   0  0  0  0  0  0
  -27.2673  -33.3611   26.2071 H   0  0  0  0  0  0
  -28.3863  -32.6864   25.0315 H   0  0  0  0  0  0
  -28.0728  -31.8432   26.5404 H   0  0  0  0  0  0
  -28.2586  -38.0110   24.7531 H   0  0  0  0  0  0
  -28.1099  -36.2644   24.6244 H   0  0  0  0  0  0
  -27.2309  -37.1397   25.8861 H   0  0  0  0  0  0
  -20.9377  -29.8771   21.6881 H   0  0  0  0  0  0
  -26.0171  -38.2847   24.1421 H   0  0  0  0  0  0
  -27.6098  -19.7396   19.8294 H   0  0  0  0  0  0
  -27.5556  -24.8255   19.0701 H   0  0  0  0  0  0
  -30.2844  -22.0595   21.1748 H   0  0  0  0  0  0
  -28.8017  -15.4004   20.8943 H   0  0  0  0  0  0
  -29.8486  -25.2054   21.5160 H   0  0  0  0  0  0
  1 25  1  0  0  0
  1 30  2  0  0  0
  1 81  1  0  0  0
  2  3  1  0  0  0
  2 25  1  0  0  0
  2 87  1  0  0  0
  2 88  1  0  0  0
  3  4  1  0  0  0
  3 89  1  0  0  0
  3 90  1  0  0  0
  4  5  1  0  0  0
  4 91  1  0  0  0
  4 92  1  0  0  0
  5  6  1  0  0  0
  5 26  1  0  0  0
  5 93  1  0  0  0
  6 25  1  0  0  0
  6 94  1  0  0  0
  6 95  1  0  0  0
  7  8  2  0  0  0
  7 26  1  0  0  0
  7 29  1  0  0  0
  8  9  1  0  0  0
  8 22  1  0  0  0
  9 10  1  0  0  0
  9 27  2  0  0  0
 10 11  2  0  0  0
 10 15  1  0  0  0
 11 12  1  0  0  0
 11 96  1  0  0  0
 12 13  2  0  0  0
 12 97  1  0  0  0
 13 14  1  0  0  0
 13 31  1  0  0  0
 14 15  2  0  0  0
 14 98  1  0  0  0
 15 99  1  0  0  0
 16 17  2  0  0  0
 16 21  1  0  0  0
 16 31  1  0  0  0
 17 18  1  0  0  0
 17100  1  0  0  0
 18 19  2  0  0  0
 18101  1  0  0  0
 19 20  1  0  0  0
 19 24  1  0  0  0
 20 21  2  0  0  0
 20102  1  0  0  0
 21 23  1  0  0  0
 22 28  1  0  0  0
 22 32  2  0  0  0
 26 27  1  0  0  0
 28103  1  0  0  0
 28104  1  0  0  0
 29105  1  0  0  0
 29106  1  0  0  0
 33 34  1  0  0  0
 33 66  1  0  0  0
 33 70  2  0  0  0
 34 36  1  0  0  0
 34 59  1  0  0  0
 34107  1  0  0  0
 35 44  2  0  0  0
 35 45  1  0  0  0
 35 68  1  0  0  0
 36 56  1  0  0  0
 36108  1  0  0  0
 37 39  1  0  0  0
 37 47  1  0  0  0
 37 66  1  0  0  0
 37109  1  0  0  0
 38 43  2  0  0  0
 38 46  1  0  0  0
 38 47  1  0  0  0
 39 64  1  0  0  0
 39 67  2  0  0  0
 40 52  1  0  0  0
 40 53  2  0  0  0
 40 58  1  0  0  0
 41110  1  0  0  0
 41111  1  0  0  0
 41112  1  0  0  0
 41 48  1  0  0  0
 42 43  1  0  0  0
 42 66  1  0  0  0
 42113  1  0  0  0
 42114  1  0  0  0
 43 44  1  0  0  0
 44115  1  0  0  0
 45 46  2  0  0  0
 45116  1  0  0  0
 46117  1  0  0  0
 47118  1  0  0  0
 47119  1  0  0  0
 48 56  1  0  0  0
 48 65  1  0  0  0
 48120  1  0  0  0
 49 50  1  0  0  0
 49 53  1  0  0  0
 49 64  1  0  0  0
 49121  1  0  0  0
 50 51  1  0  0  0
 50122  1  0  0  0
 50123  1  0  0  0
 51 52  1  0  0  0
 51124  1  0  0  0
 51125  1  0  0  0
 52126  1  0  0  0
 52127  1  0  0  0
 53 54  1  0  0  0
 54 55  2  0  0  0
 54128  1  0  0  0
 55 57  1  0  0  0
 55129  1  0  0  0
 56 69  2  0  0  0
 57 58  2  0  0  0
 57130  1  0  0  0
 58131  1  0  0  0
 59 60  1  0  0  0
 59 61  1  0  0  0
 59 62  1  0  0  0
 60132  1  0  0  0
 60133  1  0  0  0
 60134  1  0  0  0
 61135  1  0  0  0
 61136  1  0  0  0
 61137  1  0  0  0
 62138  1  0  0  0
 62139  1  0  0  0
 62140  1  0  0  0
 63 65  1  0  0  0
 63141  1  0  0  0
 63142  1  0  0  0
 63143  1  0  0  0
 64144  1  0  0  0
 65145  1  0  0  0
 68 77  1  0  0  0
 71 72  2  0  0  0
 71 74  1  0  0  0
 71146  1  0  0  0
 72 75  1  0  0  0
 72 80  1  0  0  0
 73 74  2  0  0  0
 73 76  1  0  0  0
 73 81  1  0  0  0
 74 84  1  0  0  0
 75 76  2  0  0  0
 75 85  1  0  0  0
 76 86  1  0  0  0
 77 78  2  0  0  0
 77147  1  0  0  0
 78 79  1  0  0  0
 78 83  1  0  0  0
 79 80  1  0  0  0
 79 82  2  0  0  0
 80148  1  0  0  0
 81149  1  0  0  0
 83150  1  0  0  0
M  ISO  4   1 100  68 101  77 101  81 100
M  END
> <chiral flag>
0

> <version>
0

> <s_m_source_file>
/data/baiqing/PycharmProjects/Reinvent-master-3.2/result/LINK_invent/BTK/process_docking_weight1_custom_product_contain_oxygen_bond_distance_aromatic_linkinvent_7_9_3/rearranged_h_0175.sdf

> <i_m_source_file_index>
77

> <r_mmod_Potential_Energy-OPLS-2005>
-24.6453285217285

> <r_mmod_Stretch_Energy-OPLS-2005>
90.8817291259766

> <r_mmod_Bend_Energy-OPLS-2005>
149.624694824219

> <r_mmod_Torsional_Energy-OPLS-2005>
219.155120849609

> <r_mmod_Improper_Torsional_Energy-OPLS-2005>
5.9968090057373

> <r_mmod_Van_der_Waal_Energy-OPLS-2005>
147.932525634766

> <r_mmod_Electrostatic_Energy-OPLS-2005>
-490.533966064453

> <r_mmod_Solvation_Energy-OPLS-2005>
-211.297454833984

> <b_mmod_Minimization_Converged-OPLS-2005>
0

> <r_mmod_RMS_Derivative-OPLS-2005>
0.697729647159576

$$$$
78
                    3D
 Structure written by MMmdl.
150158  0  0  1  0            999 V2000
  -30.6559  -14.5347   20.5265 C   0  0  0  0  0  0
  -30.4285  -12.3339   19.4361 C   0  0  0  0  0  0
  -29.5029  -12.5199   18.2152 C   0  0  0  0  0  0
  -28.0230  -12.3735   18.6195 C   0  0  0  0  0  0
  -27.6602  -13.2137   19.8735 C   0  0  2  0  0  0
  -28.7009  -13.0124   20.9985 C   0  0  0  0  0  0
  -25.2570  -13.8171   20.5683 C   0  0  0  0  0  0
  -24.1822  -13.0438   20.9154 C   0  0  0  0  0  0
  -24.6383  -11.6910   20.8713 C   0  0  0  0  0  0
  -23.9050  -10.4296   21.0385 C   0  0  0  0  0  0
  -24.3607   -9.4218   21.9174 C   0  0  0  0  0  0
  -23.6278   -8.2256   22.0759 C   0  0  0  0  0  0
  -22.4258   -8.0286   21.3556 C   0  0  0  0  0  0
  -21.9885   -9.0255   20.4657 C   0  0  0  0  0  0
  -22.7216  -10.2130   20.3047 C   0  0  0  0  0  0
  -21.6855   -6.0721   22.5271 C   0  0  0  0  0  0
  -21.4019   -6.5627   23.8205 C   0  0  0  0  0  0
  -21.3659   -5.6782   24.9171 C   0  0  0  0  0  0
  -21.6040   -4.3044   24.7220 C   0  0  0  0  0  0
  -21.8822   -3.8139   23.4343 C   0  0  0  0  0  0
  -21.9198   -4.6953   22.3396 C   0  0  0  0  0  0
  -22.7849  -13.5250   21.1824 C   0  0  0  0  0  0
  -22.1671   -4.2139   21.0977 F   0  0  0  0  0  0
  -21.5620   -3.4530   25.7734 F   0  0  0  0  0  0
  -30.0301  -13.3265   20.4506 N   0  0  0  0  0  0
  -26.3011  -12.9350   20.3340 N   0  0  0  0  0  0
  -25.9315  -11.6504   20.5732 N   0  0  0  0  0  0
  -22.0487  -12.8262   22.0386 N   0  0  0  0  0  0
  -25.4291  -15.1895   20.4122 N   0  0  0  0  0  0
  -31.7889  -14.7189   20.0689 O   0  0  0  0  0  0
  -21.6640   -6.8873   21.4239 O   0  0  0  0  0  0
  -22.3544  -14.5561   20.6673 O   0  0  0  0  0  0
  -24.6186  -31.8645   23.2070 C   0  0  0  0  0  0
  -25.9062  -32.4799   23.8381 C   0  0  1  0  0  0
  -27.2278  -27.3849   20.0981 C   0  0  0  0  0  0
  -25.5904  -33.8600   24.2310 N   0  0  0  0  0  0
  -23.4080  -30.4878   21.5482 C   0  0  2  0  0  0
  -24.8515  -28.9480   20.1112 C   0  0  0  0  0  0
  -22.7429  -29.4632   22.4963 C   0  0  0  0  0  0
  -18.0278  -28.1383   22.8486 C   0  0  0  0  0  0
  -24.1485  -36.7302   23.2639 C   0  0  0  0  0  0
  -25.9421  -30.8128   21.3688 C   0  0  0  0  0  0
  -26.0135  -29.4447   20.7126 C   0  0  0  0  0  0
  -27.1999  -28.6688   20.7043 C   0  0  0  0  0  0
  -26.0390  -26.9090   19.4992 C   0  0  0  0  0  0
  -24.8616  -27.6820   19.5017 C   0  0  0  0  0  0
  -23.6169  -29.8215   20.1621 C   0  0  0  0  0  0
  -25.4107  -36.3095   24.0334 C   0  0  1  0  0  0
  -20.5869  -28.3666   23.1310 C   0  0  2  0  0  0
  -20.6758  -26.9396   22.5419 C   0  0  0  0  0  0
  -19.5741  -26.6381   21.5211 C   0  0  0  0  0  0
  -18.1920  -26.7929   22.1621 C   0  0  0  0  0  0
  -19.1527  -28.8844   23.2894 C   0  0  0  0  0  0
  -18.9449  -30.1447   23.8907 C   0  0  0  0  0  0
  -17.6453  -30.6583   24.0563 C   0  0  0  0  0  0
  -25.9038  -34.9462   23.5119 C   0  0  0  0  0  0
  -16.5344  -29.9082   23.6330 C   0  0  0  0  0  0
  -16.7264  -28.6502   23.0342 C   0  0  0  0  0  0
  -26.4477  -31.6602   25.0733 C   0  0  0  0  0  0
  -25.3738  -31.3720   26.1483 C   0  0  0  0  0  0
  -27.0317  -30.3036   24.6152 C   0  0  0  0  0  0
  -27.6049  -32.4332   25.7492 C   0  0  0  0  0  0
  -27.5576  -37.1807   24.8461 C   0  0  0  0  0  0
  -21.4151  -29.3027   22.3711 N   0  0  0  0  0  0
  -26.4286  -37.3784   23.9405 N   0  0  0  0  0  0
  -24.6746  -31.0711   22.0986 N   0  0  0  0  0  0
  -23.4189  -28.8160   23.3002 O   0  0  0  0  0  0
  -28.3982  -26.6385   20.1440 O   0  0  0  0  0  0
  -26.5601  -34.8917   22.4682 O   0  0  0  0  0  0
  -23.5371  -32.1412   23.7448 O   0  0  0  0  0  0
  -29.6458  -18.0306   21.1880 C   0  0  0  0  0  0
  -29.5436  -19.2119   20.3548 C   0  0  0  0  0  0
  -29.8367  -16.8317   20.5105 C   0  0  0  0  0  0
  -29.6211  -18.8463   19.0352 C   0  0  0  0  0  0
  -29.4631  -20.6447   20.8549 C   0  0  0  0  0  0
  -28.4312  -24.0949   20.1892 C   0  0  0  0  0  0
  -29.5548  -23.0330   20.0219 C   0  0  0  0  0  0
  -28.5609  -25.4178   19.3705 C   0  0  0  0  0  0
  -29.9252  -15.5607   21.0291 N   0  0  0  0  0  0
  -29.1374  -21.6057   19.9605 N   0  0  0  0  0  0
  -29.7377  -20.9256   22.0241 O   0  0  0  0  0  0
  -27.4703  -23.8906   20.9381 O   0  0  0  0  0  0
  -29.5533  -19.7074   17.9888 F   0  0  0  0  0  0
  -29.8565  -17.1405   18.7796 S   0  0  0  0  0  0
  -31.4731  -12.4396   19.1358 H   0  0  0  0  0  0
  -30.3367  -11.3230   19.8367 H   0  0  0  0  0  0
  -29.7508  -11.7965   17.4374 H   0  0  0  0  0  0
  -29.6658  -13.5071   17.7792 H   0  0  0  0  0  0
  -27.8339  -11.3179   18.8142 H   0  0  0  0  0  0
  -27.3788  -12.6502   17.7838 H   0  0  0  0  0  0
  -27.6966  -14.2597   19.5690 H   0  0  0  0  0  0
  -28.6825  -11.9799   21.3484 H   0  0  0  0  0  0
  -28.4579  -13.6212   21.8697 H   0  0  0  0  0  0
  -25.2758   -9.5678   22.4748 H   0  0  0  0  0  0
  -23.9977   -7.4648   22.7482 H   0  0  0  0  0  0
  -21.0808   -8.8759   19.8980 H   0  0  0  0  0  0
  -22.3663  -10.9653   19.6147 H   0  0  0  0  0  0
  -21.2020   -7.6135   23.9689 H   0  0  0  0  0  0
  -21.1478   -6.0527   25.9066 H   0  0  0  0  0  0
  -22.0607   -2.7600   23.2845 H   0  0  0  0  0  0
  -22.4079  -11.9920   22.4788 H   0  0  0  0  0  0
  -21.1111  -13.1318   22.2570 H   0  0  0  0  0  0
  -24.6658  -15.8473   20.5273 H   0  0  0  0  0  0
  -26.2865  -15.6307   20.1042 H   0  0  0  0  0  0
  -26.7128  -32.5485   23.1136 H   0  0  0  0  0  0
  -25.0058  -33.9762   25.0457 H   0  0  0  0  0  0
  -22.6987  -31.3064   21.4091 H   0  0  0  0  0  0
  -23.3740  -35.9641   23.3316 H   0  0  0  0  0  0
  -24.3577  -36.8906   22.2051 H   0  0  0  0  0  0
  -23.7253  -37.6514   23.6652 H   0  0  0  0  0  0
  -26.0684  -31.5786   20.6025 H   0  0  0  0  0  0
  -26.8253  -30.8597   21.9943 H   0  0  0  0  0  0
  -28.0964  -29.0454   21.1767 H   0  0  0  0  0  0
  -25.9851  -25.9299   19.0483 H   0  0  0  0  0  0
  -23.9648  -27.2903   19.0412 H   0  0  0  0  0  0
  -23.7305  -30.5978   19.4049 H   0  0  0  0  0  0
  -22.7381  -29.2475   19.8624 H   0  0  0  0  0  0
  -25.1287  -36.1954   25.0827 H   0  0  0  0  0  0
  -20.9962  -28.3238   24.1432 H   0  0  0  0  0  0
  -20.5652  -26.2269   23.3608 H   0  0  0  0  0  0
  -21.6632  -26.7429   22.1225 H   0  0  0  0  0  0
  -19.6897  -25.6297   21.1232 H   0  0  0  0  0  0
  -19.6680  -27.3194   20.6746 H   0  0  0  0  0  0
  -17.4185  -26.6680   21.4026 H   0  0  0  0  0  0
  -18.0312  -26.0076   22.9021 H   0  0  0  0  0  0
  -19.7924  -30.7260   24.2282 H   0  0  0  0  0  0
  -17.5004  -31.6265   24.5161 H   0  0  0  0  0  0
  -15.5343  -30.2979   23.7651 H   0  0  0  0  0  0
  -15.8665  -28.0822   22.7050 H   0  0  0  0  0  0
  -24.5895  -30.7085   25.7820 H   0  0  0  0  0  0
  -24.8952  -32.2882   26.4950 H   0  0  0  0  0  0
  -25.8091  -30.8872   27.0231 H   0  0  0  0  0  0
  -26.2882  -29.6793   24.1186 H   0  0  0  0  0  0
  -27.4039  -29.7278   25.4636 H   0  0  0  0  0  0
  -27.8734  -30.4331   23.9345 H   0  0  0  0  0  0
  -27.2664  -33.3617   26.2099 H   0  0  0  0  0  0
  -28.3838  -32.6925   25.0311 H   0  0  0  0  0  0
  -28.0742  -31.8450   26.5386 H   0  0  0  0  0  0
  -28.2599  -38.0098   24.7506 H   0  0  0  0  0  0
  -28.1069  -36.2635   24.6288 H   0  0  0  0  0  0
  -27.2301  -37.1462   25.8866 H   0  0  0  0  0  0
  -20.9310  -29.8757   21.6943 H   0  0  0  0  0  0
  -26.0172  -38.2857   24.1408 H   0  0  0  0  0  0
  -29.6000  -18.1169   22.2640 H   0  0  0  0  0  0
  -30.2841  -23.1879   20.8183 H   0  0  0  0  0  0
  -30.0838  -23.2457   19.0930 H   0  0  0  0  0  0
  -27.8990  -25.3805   18.5071 H   0  0  0  0  0  0
  -29.5674  -25.4500   18.9552 H   0  0  0  0  0  0
  -29.1543  -15.2793   21.6173 H   0  0  0  0  0  0
  -28.8778  -21.2618   19.0438 H   0  0  0  0  0  0
  1 25  1  0  0  0
  1 30  2  0  0  0
  1 79  1  0  0  0
  2  3  1  0  0  0
  2 25  1  0  0  0
  2 85  1  0  0  0
  2 86  1  0  0  0
  3  4  1  0  0  0
  3 87  1  0  0  0
  3 88  1  0  0  0
  4  5  1  0  0  0
  4 89  1  0  0  0
  4 90  1  0  0  0
  5  6  1  0  0  0
  5 26  1  0  0  0
  5 91  1  0  0  0
  6 25  1  0  0  0
  6 92  1  0  0  0
  6 93  1  0  0  0
  7  8  2  0  0  0
  7 26  1  0  0  0
  7 29  1  0  0  0
  8  9  1  0  0  0
  8 22  1  0  0  0
  9 10  1  0  0  0
  9 27  2  0  0  0
 10 11  2  0  0  0
 10 15  1  0  0  0
 11 12  1  0  0  0
 11 94  1  0  0  0
 12 13  2  0  0  0
 12 95  1  0  0  0
 13 14  1  0  0  0
 13 31  1  0  0  0
 14 15  2  0  0  0
 14 96  1  0  0  0
 15 97  1  0  0  0
 16 17  2  0  0  0
 16 21  1  0  0  0
 16 31  1  0  0  0
 17 18  1  0  0  0
 17 98  1  0  0  0
 18 19  2  0  0  0
 18 99  1  0  0  0
 19 20  1  0  0  0
 19 24  1  0  0  0
 20 21  2  0  0  0
 20100  1  0  0  0
 21 23  1  0  0  0
 22 28  1  0  0  0
 22 32  2  0  0  0
 26 27  1  0  0  0
 28101  1  0  0  0
 28102  1  0  0  0
 29103  1  0  0  0
 29104  1  0  0  0
 33 34  1  0  0  0
 33 66  1  0  0  0
 33 70  2  0  0  0
 34 36  1  0  0  0
 34 59  1  0  0  0
 34105  1  0  0  0
 35 44  2  0  0  0
 35 45  1  0  0  0
 35 68  1  0  0  0
 36 56  1  0  0  0
 36106  1  0  0  0
 37 39  1  0  0  0
 37 47  1  0  0  0
 37 66  1  0  0  0
 37107  1  0  0  0
 38 43  2  0  0  0
 38 46  1  0  0  0
 38 47  1  0  0  0
 39 64  1  0  0  0
 39 67  2  0  0  0
 40 52  1  0  0  0
 40 53  2  0  0  0
 40 58  1  0  0  0
 41108  1  0  0  0
 41109  1  0  0  0
 41110  1  0  0  0
 41 48  1  0  0  0
 42 43  1  0  0  0
 42 66  1  0  0  0
 42111  1  0  0  0
 42112  1  0  0  0
 43 44  1  0  0  0
 44113  1  0  0  0
 45 46  2  0  0  0
 45114  1  0  0  0
 46115  1  0  0  0
 47116  1  0  0  0
 47117  1  0  0  0
 48 56  1  0  0  0
 48 65  1  0  0  0
 48118  1  0  0  0
 49 50  1  0  0  0
 49 53  1  0  0  0
 49 64  1  0  0  0
 49119  1  0  0  0
 50 51  1  0  0  0
 50120  1  0  0  0
 50121  1  0  0  0
 51 52  1  0  0  0
 51122  1  0  0  0
 51123  1  0  0  0
 52124  1  0  0  0
 52125  1  0  0  0
 53 54  1  0  0  0
 54 55  2  0  0  0
 54126  1  0  0  0
 55 57  1  0  0  0
 55127  1  0  0  0
 56 69  2  0  0  0
 57 58  2  0  0  0
 57128  1  0  0  0
 58129  1  0  0  0
 59 60  1  0  0  0
 59 61  1  0  0  0
 59 62  1  0  0  0
 60130  1  0  0  0
 60131  1  0  0  0
 60132  1  0  0  0
 61133  1  0  0  0
 61134  1  0  0  0
 61135  1  0  0  0
 62136  1  0  0  0
 62137  1  0  0  0
 62138  1  0  0  0
 63 65  1  0  0  0
 63139  1  0  0  0
 63140  1  0  0  0
 63141  1  0  0  0
 64142  1  0  0  0
 65143  1  0  0  0
 68 78  1  0  0  0
 71 72  1  0  0  0
 71 73  2  0  0  0
 71144  1  0  0  0
 72 74  2  0  0  0
 72 75  1  0  0  0
 73 79  1  0  0  0
 73 84  1  0  0  0
 74 83  1  0  0  0
 74 84  1  0  0  0
 75 80  1  0  0  0
 75 81  2  0  0  0
 76 77  1  0  0  0
 76 78  1  0  0  0
 76 82  2  0  0  0
 77 80  1  0  0  0
 77145  1  0  0  0
 77146  1  0  0  0
 78147  1  0  0  0
 78148  1  0  0  0
 79149  1  0  0  0
 80150  1  0  0  0
M  ISO  4   1 100  68 101  78 101  79 100
M  END
> <chiral flag>
0

> <version>
0

> <s_m_source_file>
/data/baiqing/PycharmProjects/Reinvent-master-3.2/result/LINK_invent/BTK/process_docking_weight1_custom_product_contain_oxygen_bond_distance_aromatic_linkinvent_7_9_3/rearranged_h_0175.sdf

> <i_m_source_file_index>
78

> <r_mmod_Potential_Energy-OPLS-2005>
-97.4485931396484

> <r_mmod_Stretch_Energy-OPLS-2005>
48.2684440612793

> <r_mmod_Bend_Energy-OPLS-2005>
121.214256286621

> <r_mmod_Torsional_Energy-OPLS-2005>
245.494491577148

> <r_mmod_Improper_Torsional_Energy-OPLS-2005>
5.96985673904419

> <r_mmod_Van_der_Waal_Energy-OPLS-2005>
126.432769775391

> <r_mmod_Electrostatic_Energy-OPLS-2005>
-409.723449707031

> <r_mmod_Solvation_Energy-OPLS-2005>
-257.105682373047

> <b_mmod_Minimization_Converged-OPLS-2005>
0

> <r_mmod_RMS_Derivative-OPLS-2005>
1.49617576599121

$$$$
79
                    3D
 Structure written by MMmdl.
155163  0  0  1  0            999 V2000
  -30.6783  -14.4540   20.6018 C   0  0  0  0  0  0
  -30.4297  -12.3106   19.4015 C   0  0  0  0  0  0
  -29.4964  -12.5357   18.1934 C   0  0  0  0  0  0
  -28.0143  -12.3943   18.5995 C   0  0  0  0  0  0
  -27.6662  -13.2010   19.8787 C   0  0  2  0  0  0
  -28.7063  -12.9335   20.9895 C   0  0  0  0  0  0
  -25.2616  -13.8138   20.5654 C   0  0  0  0  0  0
  -24.1853  -13.0442   20.9174 C   0  0  0  0  0  0
  -24.6387  -11.6907   20.8726 C   0  0  0  0  0  0
  -23.9032  -10.4302   21.0400 C   0  0  0  0  0  0
  -24.3588   -9.4230   21.9186 C   0  0  0  0  0  0
  -23.6284   -8.2253   22.0759 C   0  0  0  0  0  0
  -22.4268   -8.0275   21.3549 C   0  0  0  0  0  0
  -21.9885   -9.0245   20.4648 C   0  0  0  0  0  0
  -22.7197  -10.2136   20.3060 C   0  0  0  0  0  0
  -21.6856   -6.0729   22.5281 C   0  0  0  0  0  0
  -21.4018   -6.5633   23.8213 C   0  0  0  0  0  0
  -21.3668   -5.6779   24.9173 C   0  0  0  0  0  0
  -21.6050   -4.3043   24.7220 C   0  0  0  0  0  0
  -21.8825   -3.8137   23.4341 C   0  0  0  0  0  0
  -21.9192   -4.6956   22.3399 C   0  0  0  0  0  0
  -22.7884  -13.5280   21.1827 C   0  0  0  0  0  0
  -22.1664   -4.2143   21.0979 F   0  0  0  0  0  0
  -21.5629   -3.4524   25.7733 F   0  0  0  0  0  0
  -30.0398  -13.2615   20.4514 N   0  0  0  0  0  0
  -26.3041  -12.9287   20.3337 N   0  0  0  0  0  0
  -25.9306  -11.6457   20.5721 N   0  0  0  0  0  0
  -22.0475  -12.8311   22.0368 N   0  0  0  0  0  0
  -25.4358  -15.1841   20.3987 N   0  0  0  0  0  0
  -31.7864  -14.7019   20.1179 O   0  0  0  0  0  0
  -21.6649   -6.8868   21.4245 O   0  0  0  0  0  0
  -22.3597  -14.5592   20.6666 O   0  0  0  0  0  0
  -24.6083  -31.8705   23.2123 C   0  0  0  0  0  0
  -25.8984  -32.4835   23.8424 C   0  0  1  0  0  0
  -27.2551  -27.4624   20.0991 C   0  0  0  0  0  0
  -25.5855  -33.8635   24.2336 N   0  0  0  0  0  0
  -23.3977  -30.4898   21.5502 C   0  0  2  0  0  0
  -24.8529  -28.9568   20.1217 C   0  0  0  0  0  0
  -22.7381  -29.4639   22.4997 C   0  0  0  0  0  0
  -18.0256  -28.1343   22.8473 C   0  0  0  0  0  0
  -24.1483  -36.7363   23.2638 C   0  0  0  0  0  0
  -25.9226  -30.8440   21.3658 C   0  0  0  0  0  0
  -26.0068  -29.4756   20.7224 C   0  0  0  0  0  0
  -27.2099  -28.7353   20.7201 C   0  0  0  0  0  0
  -26.0852  -26.9579   19.4946 C   0  0  0  0  0  0
  -24.8832  -27.6912   19.5097 C   0  0  0  0  0  0
  -23.6098  -29.8168   20.1664 C   0  0  0  0  0  0
  -25.4097  -36.3132   24.0336 C   0  0  1  0  0  0
  -20.5841  -28.3626   23.1332 C   0  0  2  0  0  0
  -20.6735  -26.9372   22.5411 C   0  0  0  0  0  0
  -19.5722  -26.6356   21.5195 C   0  0  0  0  0  0
  -18.1902  -26.7890   22.1605 C   0  0  0  0  0  0
  -19.1504  -28.8802   23.2888 C   0  0  0  0  0  0
  -18.9426  -30.1407   23.8904 C   0  0  0  0  0  0
  -17.6436  -30.6565   24.0529 C   0  0  0  0  0  0
  -25.9026  -34.9485   23.5138 C   0  0  0  0  0  0
  -16.5328  -29.9058   23.6306 C   0  0  0  0  0  0
  -16.7248  -28.6464   23.0347 C   0  0  0  0  0  0
  -26.4441  -31.6610   25.0755 C   0  0  0  0  0  0
  -25.3729  -31.3713   26.1524 C   0  0  0  0  0  0
  -27.0248  -30.3035   24.6138 C   0  0  0  0  0  0
  -27.6025  -32.4330   25.7494 C   0  0  0  0  0  0
  -27.5585  -37.1822   24.8435 C   0  0  0  0  0  0
  -21.4115  -29.3017   22.3768 N   0  0  0  0  0  0
  -26.4277  -37.3823   23.9415 N   0  0  0  0  0  0
  -24.6599  -31.0823   22.1018 N   0  0  0  0  0  0
  -23.4160  -28.8183   23.3026 O   0  0  0  0  0  0
  -28.3803  -26.6708   20.0135 O   0  0  0  0  0  0
  -26.5603  -34.8914   22.4712 O   0  0  0  0  0  0
  -23.5283  -32.1453   23.7527 O   0  0  0  0  0  0
  -28.8732  -17.5359   20.7281 C   0  0  0  0  0  0
  -31.2356  -17.5279   21.2068 C   0  0  0  0  0  0
  -30.0343  -16.8044   21.0455 C   0  0  0  0  0  0
  -28.9604  -18.9283   20.5491 C   0  0  0  0  0  0
  -30.1990  -19.5744   20.7369 C   0  0  0  0  0  0
  -30.5929  -25.9172   20.5987 C   0  0  0  0  0  0
  -30.9229  -21.9762   20.9245 C   0  0  0  0  0  0
  -30.5734  -24.5260   21.2558 C   0  0  0  0  0  0
  -29.4549  -26.8982   20.9196 C   0  0  0  0  0  0
  -30.6814  -23.3464   20.2528 C   0  0  0  0  0  0
  -31.3162  -18.8748   21.0710 N   0  0  0  0  0  0
  -29.9398  -15.3927   21.2210 N   0  0  0  0  0  0
  -30.1695  -20.9652   20.4621 N   0  0  0  0  0  0
  -31.5181  -26.2632   19.8563 O   0  0  0  0  0  0
  -31.7667  -21.8615   21.8195 O   0  0  0  0  0  0
  -27.8613  -19.6411   20.1951 F   0  0  0  0  0  0
  -31.6912  -23.5385   19.4016 F   0  0  0  0  0  0
  -29.5525  -23.3002   19.5358 F   0  0  0  0  0  0
  -31.4733  -12.4281   19.1052 H   0  0  0  0  0  0
  -30.3366  -11.2871   19.7681 H   0  0  0  0  0  0
  -29.7341  -11.8338   17.3932 H   0  0  0  0  0  0
  -29.6676  -13.5332   17.7829 H   0  0  0  0  0  0
  -27.8058  -11.3356   18.7571 H   0  0  0  0  0  0
  -27.3711  -12.7101   17.7765 H   0  0  0  0  0  0
  -27.7222  -14.2581   19.6145 H   0  0  0  0  0  0
  -28.6828  -11.8817   21.2764 H   0  0  0  0  0  0
  -28.4607  -13.4792   21.9012 H   0  0  0  0  0  0
  -25.2722   -9.5741   22.4765 H   0  0  0  0  0  0
  -23.9998   -7.4660   22.7495 H   0  0  0  0  0  0
  -21.0799   -8.8750   19.8970 H   0  0  0  0  0  0
  -22.3623  -10.9669   19.6175 H   0  0  0  0  0  0
  -21.2020   -7.6140   23.9717 H   0  0  0  0  0  0
  -21.1488   -6.0506   25.9076 H   0  0  0  0  0  0
  -22.0598   -2.7599   23.2829 H   0  0  0  0  0  0
  -22.3995  -11.9943   22.4767 H   0  0  0  0  0  0
  -21.1124  -13.1443   22.2575 H   0  0  0  0  0  0
  -24.6607  -15.8325   20.4811 H   0  0  0  0  0  0
  -26.2579  -15.5991   19.9819 H   0  0  0  0  0  0
  -26.7055  -32.5571   23.1199 H   0  0  0  0  0  0
  -24.9899  -33.9810   25.0403 H   0  0  0  0  0  0
  -22.6838  -31.3042   21.4078 H   0  0  0  0  0  0
  -23.3730  -35.9706   23.3255 H   0  0  0  0  0  0
  -24.3593  -36.9042   22.2065 H   0  0  0  0  0  0
  -23.7239  -37.6556   23.6684 H   0  0  0  0  0  0
  -26.0340  -31.6099   20.5970 H   0  0  0  0  0  0
  -26.8106  -30.9004   21.9846 H   0  0  0  0  0  0
  -28.0903  -29.1575   21.1841 H   0  0  0  0  0  0
  -26.1060  -25.9903   19.0129 H   0  0  0  0  0  0
  -23.9968  -27.2843   19.0423 H   0  0  0  0  0  0
  -23.7111  -30.5884   19.4009 H   0  0  0  0  0  0
  -22.7406  -29.2246   19.8752 H   0  0  0  0  0  0
  -25.1271  -36.2012   25.0830 H   0  0  0  0  0  0
  -20.9909  -28.3170   24.1460 H   0  0  0  0  0  0
  -20.5607  -26.2246   23.3585 H   0  0  0  0  0  0
  -21.6613  -26.7406   22.1232 H   0  0  0  0  0  0
  -19.6875  -25.6264   21.1229 H   0  0  0  0  0  0
  -19.6657  -27.3155   20.6710 H   0  0  0  0  0  0
  -17.4169  -26.6630   21.4006 H   0  0  0  0  0  0
  -18.0307  -26.0024   22.8996 H   0  0  0  0  0  0
  -19.7906  -30.7187   24.2318 H   0  0  0  0  0  0
  -17.4993  -31.6260   24.5099 H   0  0  0  0  0  0
  -15.5325  -30.2953   23.7612 H   0  0  0  0  0  0
  -15.8647  -28.0765   22.7092 H   0  0  0  0  0  0
  -24.5760  -30.7256   25.7815 H   0  0  0  0  0  0
  -24.9110  -32.2891   26.5182 H   0  0  0  0  0  0
  -25.8072  -30.8653   27.0163 H   0  0  0  0  0  0
  -26.2783  -29.6808   24.1186 H   0  0  0  0  0  0
  -27.3974  -29.7273   25.4626 H   0  0  0  0  0  0
  -27.8651  -30.4310   23.9304 H   0  0  0  0  0  0
  -27.2618  -33.3553   26.2203 H   0  0  0  0  0  0
  -28.3743  -32.7031   25.0278 H   0  0  0  0  0  0
  -28.0801  -31.8406   26.5309 H   0  0  0  0  0  0
  -28.2558  -38.0160   24.7544 H   0  0  0  0  0  0
  -28.1125  -36.2707   24.6161 H   0  0  0  0  0  0
  -27.2334  -37.1365   25.8840 H   0  0  0  0  0  0
  -20.9269  -29.8803   21.7057 H   0  0  0  0  0  0
  -26.0171  -38.2897   24.1447 H   0  0  0  0  0  0
  -27.9239  -17.0398   20.5938 H   0  0  0  0  0  0
  -32.1529  -17.0230   21.4740 H   0  0  0  0  0  0
  -29.6597  -24.4276   21.8428 H   0  0  0  0  0  0
  -31.3996  -24.4902   21.9653 H   0  0  0  0  0  0
  -29.8354  -27.9120   20.8002 H   0  0  0  0  0  0
  -29.1270  -26.7781   21.9533 H   0  0  0  0  0  0
  -29.0487  -15.0405   21.5389 H   0  0  0  0  0  0
  -29.4256  -21.2471   19.8389 H   0  0  0  0  0  0
  1 25  1  0  0  0
  1 30  2  0  0  0
  1 82  1  0  0  0
  2  3  1  0  0  0
  2 25  1  0  0  0
  2 89  1  0  0  0
  2 90  1  0  0  0
  3  4  1  0  0  0
  3 91  1  0  0  0
  3 92  1  0  0  0
  4  5  1  0  0  0
  4 93  1  0  0  0
  4 94  1  0  0  0
  5  6  1  0  0  0
  5 26  1  0  0  0
  5 95  1  0  0  0
  6 25  1  0  0  0
  6 96  1  0  0  0
  6 97  1  0  0  0
  7  8  2  0  0  0
  7 26  1  0  0  0
  7 29  1  0  0  0
  8  9  1  0  0  0
  8 22  1  0  0  0
  9 10  1  0  0  0
  9 27  2  0  0  0
 10 11  2  0  0  0
 10 15  1  0  0  0
 11 12  1  0  0  0
 11 98  1  0  0  0
 12 13  2  0  0  0
 12 99  1  0  0  0
 13 14  1  0  0  0
 13 31  1  0  0  0
 14 15  2  0  0  0
 14100  1  0  0  0
 15101  1  0  0  0
 16 17  2  0  0  0
 16 21  1  0  0  0
 16 31  1  0  0  0
 17 18  1  0  0  0
 17102  1  0  0  0
 18 19  2  0  0  0
 18103  1  0  0  0
 19 20  1  0  0  0
 19 24  1  0  0  0
 20 21  2  0  0  0
 20104  1  0  0  0
 21 23  1  0  0  0
 22 28  1  0  0  0
 22 32  2  0  0  0
 26 27  1  0  0  0
 28105  1  0  0  0
 28106  1  0  0  0
 29107  1  0  0  0
 29108  1  0  0  0
 33 34  1  0  0  0
 33 66  1  0  0  0
 33 70  2  0  0  0
 34 36  1  0  0  0
 34 59  1  0  0  0
 34109  1  0  0  0
 35 44  2  0  0  0
 35 45  1  0  0  0
 35 68  1  0  0  0
 36 56  1  0  0  0
 36110  1  0  0  0
 37 39  1  0  0  0
 37 47  1  0  0  0
 37 66  1  0  0  0
 37111  1  0  0  0
 38 43  2  0  0  0
 38 46  1  0  0  0
 38 47  1  0  0  0
 39 64  1  0  0  0
 39 67  2  0  0  0
 40 52  1  0  0  0
 40 53  2  0  0  0
 40 58  1  0  0  0
 41112  1  0  0  0
 41113  1  0  0  0
 41114  1  0  0  0
 41 48  1  0  0  0
 42 43  1  0  0  0
 42 66  1  0  0  0
 42115  1  0  0  0
 42116  1  0  0  0
 43 44  1  0  0  0
 44117  1  0  0  0
 45 46  2  0  0  0
 45118  1  0  0  0
 46119  1  0  0  0
 47120  1  0  0  0
 47121  1  0  0  0
 48 56  1  0  0  0
 48 65  1  0  0  0
 48122  1  0  0  0
 49 50  1  0  0  0
 49 53  1  0  0  0
 49 64  1  0  0  0
 49123  1  0  0  0
 50 51  1  0  0  0
 50124  1  0  0  0
 50125  1  0  0  0
 51 52  1  0  0  0
 51126  1  0  0  0
 51127  1  0  0  0
 52128  1  0  0  0
 52129  1  0  0  0
 53 54  1  0  0  0
 54 55  2  0  0  0
 54130  1  0  0  0
 55 57  1  0  0  0
 55131  1  0  0  0
 56 69  2  0  0  0
 57 58  2  0  0  0
 57132  1  0  0  0
 58133  1  0  0  0
 59 60  1  0  0  0
 59 61  1  0  0  0
 59 62  1  0  0  0
 60134  1  0  0  0
 60135  1  0  0  0
 60136  1  0  0  0
 61137  1  0  0  0
 61138  1  0  0  0
 61139  1  0  0  0
 62140  1  0  0  0
 62141  1  0  0  0
 62142  1  0  0  0
 63 65  1  0  0  0
 63143  1  0  0  0
 63144  1  0  0  0
 63145  1  0  0  0
 64146  1  0  0  0
 65147  1  0  0  0
 68 79  1  0  0  0
 71 73  2  0  0  0
 71 74  1  0  0  0
 71148  1  0  0  0
 72 73  1  0  0  0
 72 81  2  0  0  0
 72149  1  0  0  0
 73 82  1  0  0  0
 74 75  2  0  0  0
 74 86  1  0  0  0
 75 81  1  0  0  0
 75 83  1  0  0  0
 76 78  1  0  0  0
 76 79  1  0  0  0
 76 84  2  0  0  0
 77 80  1  0  0  0
 77 83  1  0  0  0
 77 85  2  0  0  0
 78 80  1  0  0  0
 78150  1  0  0  0
 78151  1  0  0  0
 79152  1  0  0  0
 79153  1  0  0  0
 80 87  1  0  0  0
 80 88  1  0  0  0
 82154  1  0  0  0
 83155  1  0  0  0
M  ISO  4   1 100  68 101  79 101  82 100
M  END
> <chiral flag>
0

> <version>
0

> <s_m_source_file>
/data/baiqing/PycharmProjects/Reinvent-master-3.2/result/LINK_invent/BTK/process_docking_weight1_custom_product_contain_oxygen_bond_distance_aromatic_linkinvent_7_9_3/rearranged_h_0175.sdf

> <i_m_source_file_index>
79

> <r_mmod_Potential_Energy-OPLS-2005>
-298.462860107422

> <r_mmod_Stretch_Energy-OPLS-2005>
35.5934944152832

> <r_mmod_Bend_Energy-OPLS-2005>
107.863464355469

> <r_mmod_Torsional_Energy-OPLS-2005>
226.030487060547

> <r_mmod_Improper_Torsional_Energy-OPLS-2005>
5.25151205062866

> <r_mmod_Van_der_Waal_Energy-OPLS-2005>
156.825714111328

> <r_mmod_Electrostatic_Energy-OPLS-2005>
-578.715515136719

> <r_mmod_Solvation_Energy-OPLS-2005>
-260.827239990234

> <b_mmod_Minimization_Converged-OPLS-2005>
0

> <r_mmod_RMS_Derivative-OPLS-2005>
2.47398352622986

$$$$
80
                    3D
 Structure written by MMmdl.
154162  0  0  1  0            999 V2000
  -30.6521  -14.5909   20.5044 C   0  0  0  0  0  0
  -30.4314  -12.3651   19.4386 C   0  0  0  0  0  0
  -29.5035  -12.5016   18.2127 C   0  0  0  0  0  0
  -28.0222  -12.3573   18.6191 C   0  0  0  0  0  0
  -27.6511  -13.2175   19.8583 C   0  0  2  0  0  0
  -28.6985  -13.0632   20.9844 C   0  0  0  0  0  0
  -25.2553  -13.8166   20.5686 C   0  0  0  0  0  0
  -24.1833  -13.0431   20.9199 C   0  0  0  0  0  0
  -24.6410  -11.6908   20.8732 C   0  0  0  0  0  0
  -23.9093  -10.4285   21.0409 C   0  0  0  0  0  0
  -24.3639   -9.4203   21.9186 C   0  0  0  0  0  0
  -23.6310   -8.2247   22.0750 C   0  0  0  0  0  0
  -22.4298   -8.0287   21.3540 C   0  0  0  0  0  0
  -21.9935   -9.0262   20.4643 C   0  0  0  0  0  0
  -22.7270  -10.2134   20.3055 C   0  0  0  0  0  0
  -21.6851   -6.0743   22.5282 C   0  0  0  0  0  0
  -21.4016   -6.5652   23.8221 C   0  0  0  0  0  0
  -21.3653   -5.6800   24.9179 C   0  0  0  0  0  0
  -21.6041   -4.3063   24.7226 C   0  0  0  0  0  0
  -21.8817   -3.8159   23.4352 C   0  0  0  0  0  0
  -21.9199   -4.6973   22.3409 C   0  0  0  0  0  0
  -22.7857  -13.5217   21.1872 C   0  0  0  0  0  0
  -22.1659   -4.2173   21.0978 F   0  0  0  0  0  0
  -21.5630   -3.4543   25.7726 F   0  0  0  0  0  0
  -30.0131  -13.3866   20.4115 N   0  0  0  0  0  0
  -26.2984  -12.9353   20.3300 N   0  0  0  0  0  0
  -25.9339  -11.6510   20.5753 N   0  0  0  0  0  0
  -22.0496  -12.8186   22.0409 N   0  0  0  0  0  0
  -25.4239  -15.1896   20.4103 N   0  0  0  0  0  0
  -31.8364  -14.7183   20.1733 O   0  0  0  0  0  0
  -21.6639   -6.8892   21.4253 O   0  0  0  0  0  0
  -22.3539  -14.5526   20.6726 O   0  0  0  0  0  0
  -24.6189  -31.8654   23.2082 C   0  0  0  0  0  0
  -25.9071  -32.4814   23.8380 C   0  0  1  0  0  0
  -27.2357  -27.3905   20.1192 C   0  0  0  0  0  0
  -25.5942  -33.8609   24.2318 N   0  0  0  0  0  0
  -23.4096  -30.4851   21.5508 C   0  0  2  0  0  0
  -24.8579  -28.9386   20.1254 C   0  0  0  0  0  0
  -22.7427  -29.4656   22.5026 C   0  0  0  0  0  0
  -18.0261  -28.1384   22.8496 C   0  0  0  0  0  0
  -24.1486  -36.7283   23.2643 C   0  0  0  0  0  0
  -25.9380  -30.8212   21.3631 C   0  0  0  0  0  0
  -26.0192  -29.4436   20.7254 C   0  0  0  0  0  0
  -27.2120  -28.6754   20.7226 C   0  0  0  0  0  0
  -26.0601  -26.9114   19.5103 C   0  0  0  0  0  0
  -24.8742  -27.6726   19.5154 C   0  0  0  0  0  0
  -23.6198  -29.8082   20.1688 C   0  0  0  0  0  0
  -25.4106  -36.3083   24.0338 C   0  0  1  0  0  0
  -20.5861  -28.3671   23.1313 C   0  0  2  0  0  0
  -20.6768  -26.9414   22.5408 C   0  0  0  0  0  0
  -19.5744  -26.6378   21.5215 C   0  0  0  0  0  0
  -18.1910  -26.7921   22.1620 C   0  0  0  0  0  0
  -19.1515  -28.8839   23.2905 C   0  0  0  0  0  0
  -18.9445  -30.1438   23.8925 C   0  0  0  0  0  0
  -17.6451  -30.6595   24.0556 C   0  0  0  0  0  0
  -25.9040  -34.9458   23.5106 C   0  0  0  0  0  0
  -16.5343  -29.9094   23.6334 C   0  0  0  0  0  0
  -16.7257  -28.6501   23.0376 C   0  0  0  0  0  0
  -26.4491  -31.6595   25.0718 C   0  0  0  0  0  0
  -25.3741  -31.3714   26.1459 C   0  0  0  0  0  0
  -27.0330  -30.3043   24.6081 C   0  0  0  0  0  0
  -27.6064  -32.4306   25.7478 C   0  0  0  0  0  0
  -27.5560  -37.1797   24.8457 C   0  0  0  0  0  0
  -21.4157  -29.3043   22.3734 N   0  0  0  0  0  0
  -26.4274  -37.3773   23.9410 N   0  0  0  0  0  0
  -24.6743  -31.0722   22.1003 N   0  0  0  0  0  0
  -23.4161  -28.8196   23.3091 O   0  0  0  0  0  0
  -28.3873  -26.6289   20.0240 O   0  0  0  0  0  0
  -26.5559  -34.8896   22.4648 O   0  0  0  0  0  0
  -23.5376  -32.1440   23.7456 O   0  0  0  0  0  0
  -30.4459  -19.5818   20.8477 C   0  0  0  0  0  0
  -31.4052  -18.8723   21.5578 C   0  0  0  0  0  0
  -30.1933  -17.0664   20.8375 C   0  0  0  0  0  0
  -30.4223  -21.0451   20.4499 C   0  0  0  0  0  0
  -28.2542  -24.1822   20.7279 C   0  0  0  0  0  0
  -28.6497  -25.6576   21.0666 C   0  0  0  0  0  0
  -29.2805  -23.2491   19.9994 C   0  0  2  0  0  0
  -29.1281  -23.3142   18.4609 C   0  0  0  0  0  0
  -31.2435  -17.4797   21.5539 N   0  0  0  0  0  0
  -32.5052  -19.3899   22.2487 N   0  0  0  0  0  0
  -29.8467  -15.6689   20.7157 N   0  0  0  0  0  0
  -29.3058  -21.8169   20.4660 N   0  0  0  0  0  0
  -31.4992  -21.5573   20.1396 O   0  0  0  0  0  0
  -27.1469  -23.7670   21.0885 O   0  0  0  0  0  0
  -30.1375  -22.6993   17.8429 F   0  0  0  0  0  0
  -29.1051  -24.5792   18.0381 F   0  0  0  0  0  0
  -27.9867  -22.7329   18.0862 F   0  0  0  0  0  0
  -29.2670  -18.4459   20.1758 S   0  0  0  0  0  0
  -31.4761  -12.4743   19.1414 H   0  0  0  0  0  0
  -30.3493  -11.3694   19.8763 H   0  0  0  0  0  0
  -29.7626  -11.7551   17.4602 H   0  0  0  0  0  0
  -29.6600  -13.4728   17.7428 H   0  0  0  0  0  0
  -27.8378  -11.3024   18.8296 H   0  0  0  0  0  0
  -27.3767  -12.6149   17.7789 H   0  0  0  0  0  0
  -27.6676  -14.2541   19.5229 H   0  0  0  0  0  0
  -28.7006  -12.0431   21.3684 H   0  0  0  0  0  0
  -28.4611  -13.7051   21.8346 H   0  0  0  0  0  0
  -25.2783   -9.5670   22.4761 H   0  0  0  0  0  0
  -24.0018   -7.4631   22.7465 H   0  0  0  0  0  0
  -21.0867   -8.8779   19.8941 H   0  0  0  0  0  0
  -22.3739  -10.9671   19.6156 H   0  0  0  0  0  0
  -21.2000   -7.6164   23.9734 H   0  0  0  0  0  0
  -21.1475   -6.0524   25.9077 H   0  0  0  0  0  0
  -22.0603   -2.7634   23.2838 H   0  0  0  0  0  0
  -22.4115  -11.9831   22.4755 H   0  0  0  0  0  0
  -21.1108  -13.1190   22.2614 H   0  0  0  0  0  0
  -24.6515  -15.8368   20.5262 H   0  0  0  0  0  0
  -26.2579  -15.6349   20.0521 H   0  0  0  0  0  0
  -26.7154  -32.5513   23.1152 H   0  0  0  0  0  0
  -25.0146  -33.9782   25.0505 H   0  0  0  0  0  0
  -22.7007  -31.3023   21.4029 H   0  0  0  0  0  0
  -23.3756  -35.9612   23.3284 H   0  0  0  0  0  0
  -24.3575  -36.8927   22.2063 H   0  0  0  0  0  0
  -23.7217  -37.6476   23.6661 H   0  0  0  0  0  0
  -26.0341  -31.5762   20.5826 H   0  0  0  0  0  0
  -26.8328  -30.8950   21.9704 H   0  0  0  0  0  0
  -28.1115  -29.0669   21.1757 H   0  0  0  0  0  0
  -26.0645  -25.9461   19.0229 H   0  0  0  0  0  0
  -23.9814  -27.2817   19.0453 H   0  0  0  0  0  0
  -23.7214  -30.5762   19.4013 H   0  0  0  0  0  0
  -22.7484  -29.2204   19.8780 H   0  0  0  0  0  0
  -25.1291  -36.1929   25.0831 H   0  0  0  0  0  0
  -20.9932  -28.3219   24.1442 H   0  0  0  0  0  0
  -20.5670  -26.2291   23.3612 H   0  0  0  0  0  0
  -21.6633  -26.7462   22.1188 H   0  0  0  0  0  0
  -19.6910  -25.6278   21.1260 H   0  0  0  0  0  0
  -19.6682  -27.3189   20.6740 H   0  0  0  0  0  0
  -17.4189  -26.6694   21.4004 H   0  0  0  0  0  0
  -18.0302  -26.0055   22.8999 H   0  0  0  0  0  0
  -19.7924  -30.7239   24.2326 H   0  0  0  0  0  0
  -17.5009  -31.6289   24.5129 H   0  0  0  0  0  0
  -15.5344  -30.3013   23.7635 H   0  0  0  0  0  0
  -15.8650  -28.0811   22.7130 H   0  0  0  0  0  0
  -24.5877  -30.7123   25.7750 H   0  0  0  0  0  0
  -24.8991  -32.2902   26.4912 H   0  0  0  0  0  0
  -25.8068  -30.8825   27.0199 H   0  0  0  0  0  0
  -26.2881  -29.6804   24.1121 H   0  0  0  0  0  0
  -27.4128  -29.7260   25.4509 H   0  0  0  0  0  0
  -27.8688  -30.4386   23.9205 H   0  0  0  0  0  0
  -27.2710  -33.3633   26.2010 H   0  0  0  0  0  0
  -28.3897  -32.6823   25.0313 H   0  0  0  0  0  0
  -28.0699  -31.8454   26.5434 H   0  0  0  0  0  0
  -28.2560  -38.0104   24.7509 H   0  0  0  0  0  0
  -28.1076  -36.2635   24.6281 H   0  0  0  0  0  0
  -27.2278  -37.1435   25.8859 H   0  0  0  0  0  0
  -20.9329  -29.8766   21.6945 H   0  0  0  0  0  0
  -26.0157  -38.2847   24.1436 H   0  0  0  0  0  0
  -29.7156  -25.6895   21.2924 H   0  0  0  0  0  0
  -28.1427  -25.9621   21.9827 H   0  0  0  0  0  0
  -30.2549  -23.6846   20.2203 H   0  0  0  0  0  0
  -32.8070  -20.3401   22.0535 H   0  0  0  0  0  0
  -33.2496  -18.7639   22.5392 H   0  0  0  0  0  0
  -28.8605  -15.4672   20.7141 H   0  0  0  0  0  0
  -28.4227  -21.4095   20.7404 H   0  0  0  0  0  0
  1 25  1  0  0  0
  1 30  2  0  0  0
  1 81  1  0  0  0
  2  3  1  0  0  0
  2 25  1  0  0  0
  2 89  1  0  0  0
  2 90  1  0  0  0
  3  4  1  0  0  0
  3 91  1  0  0  0
  3 92  1  0  0  0
  4  5  1  0  0  0
  4 93  1  0  0  0
  4 94  1  0  0  0
  5  6  1  0  0  0
  5 26  1  0  0  0
  5 95  1  0  0  0
  6 25  1  0  0  0
  6 96  1  0  0  0
  6 97  1  0  0  0
  7  8  2  0  0  0
  7 26  1  0  0  0
  7 29  1  0  0  0
  8  9  1  0  0  0
  8 22  1  0  0  0
  9 10  1  0  0  0
  9 27  2  0  0  0
 10 11  2  0  0  0
 10 15  1  0  0  0
 11 12  1  0  0  0
 11 98  1  0  0  0
 12 13  2  0  0  0
 12 99  1  0  0  0
 13 14  1  0  0  0
 13 31  1  0  0  0
 14 15  2  0  0  0
 14100  1  0  0  0
 15101  1  0  0  0
 16 17  2  0  0  0
 16 21  1  0  0  0
 16 31  1  0  0  0
 17 18  1  0  0  0
 17102  1  0  0  0
 18 19  2  0  0  0
 18103  1  0  0  0
 19 20  1  0  0  0
 19 24  1  0  0  0
 20 21  2  0  0  0
 20104  1  0  0  0
 21 23  1  0  0  0
 22 28  1  0  0  0
 22 32  2  0  0  0
 26 27  1  0  0  0
 28105  1  0  0  0
 28106  1  0  0  0
 29107  1  0  0  0
 29108  1  0  0  0
 33 34  1  0  0  0
 33 66  1  0  0  0
 33 70  2  0  0  0
 34 36  1  0  0  0
 34 59  1  0  0  0
 34109  1  0  0  0
 35 44  2  0  0  0
 35 45  1  0  0  0
 35 68  1  0  0  0
 36 56  1  0  0  0
 36110  1  0  0  0
 37 39  1  0  0  0
 37 47  1  0  0  0
 37 66  1  0  0  0
 37111  1  0  0  0
 38 43  2  0  0  0
 38 46  1  0  0  0
 38 47  1  0  0  0
 39 64  1  0  0  0
 39 67  2  0  0  0
 40 52  1  0  0  0
 40 53  2  0  0  0
 40 58  1  0  0  0
 41112  1  0  0  0
 41113  1  0  0  0
 41114  1  0  0  0
 41 48  1  0  0  0
 42 43  1  0  0  0
 42 66  1  0  0  0
 42115  1  0  0  0
 42116  1  0  0  0
 43 44  1  0  0  0
 44117  1  0  0  0
 45 46  2  0  0  0
 45118  1  0  0  0
 46119  1  0  0  0
 47120  1  0  0  0
 47121  1  0  0  0
 48 56  1  0  0  0
 48 65  1  0  0  0
 48122  1  0  0  0
 49 50  1  0  0  0
 49 53  1  0  0  0
 49 64  1  0  0  0
 49123  1  0  0  0
 50 51  1  0  0  0
 50124  1  0  0  0
 50125  1  0  0  0
 51 52  1  0  0  0
 51126  1  0  0  0
 51127  1  0  0  0
 52128  1  0  0  0
 52129  1  0  0  0
 53 54  1  0  0  0
 54 55  2  0  0  0
 54130  1  0  0  0
 55 57  1  0  0  0
 55131  1  0  0  0
 56 69  2  0  0  0
 57 58  2  0  0  0
 57132  1  0  0  0
 58133  1  0  0  0
 59 60  1  0  0  0
 59 61  1  0  0  0
 59 62  1  0  0  0
 60134  1  0  0  0
 60135  1  0  0  0
 60136  1  0  0  0
 61137  1  0  0  0
 61138  1  0  0  0
 61139  1  0  0  0
 62140  1  0  0  0
 62141  1  0  0  0
 62142  1  0  0  0
 63 65  1  0  0  0
 63143  1  0  0  0
 63144  1  0  0  0
 63145  1  0  0  0
 64146  1  0  0  0
 65147  1  0  0  0
 68 76  1  0  0  0
 71 72  2  0  0  0
 71 74  1  0  0  0
 71 88  1  0  0  0
 72 79  1  0  0  0
 72 80  1  0  0  0
 73 79  2  0  0  0
 73 81  1  0  0  0
 73 88  1  0  0  0
 74 82  1  0  0  0
 74 83  2  0  0  0
 75 76  1  0  0  0
 75 77  1  0  0  0
 75 84  2  0  0  0
 76148  1  0  0  0
 76149  1  0  0  0
 77 78  1  0  0  0
 77 82  1  0  0  0
 77150  1  0  0  0
 78 85  1  0  0  0
 78 86  1  0  0  0
 78 87  1  0  0  0
 80151  1  0  0  0
 80152  1  0  0  0
 81153  1  0  0  0
 82154  1  0  0  0
M  ISO  4   1 100  68 101  76 101  81 100
M  END
> <chiral flag>
0

> <version>
0

> <s_m_source_file>
/data/baiqing/PycharmProjects/Reinvent-master-3.2/result/LINK_invent/BTK/process_docking_weight1_custom_product_contain_oxygen_bond_distance_aromatic_linkinvent_7_9_3/rearranged_h_0175.sdf

> <i_m_source_file_index>
80

> <r_mmod_Potential_Energy-OPLS-2005>
-176.446136474609

> <r_mmod_Stretch_Energy-OPLS-2005>
53.8226127624512

> <r_mmod_Bend_Energy-OPLS-2005>
127.393798828125

> <r_mmod_Torsional_Energy-OPLS-2005>
277.12109375

> <r_mmod_Improper_Torsional_Energy-OPLS-2005>
10.0776195526123

> <r_mmod_Van_der_Waal_Energy-OPLS-2005>
119.554473876953

> <r_mmod_Electrostatic_Energy-OPLS-2005>
-536.341125488281

> <r_mmod_Solvation_Energy-OPLS-2005>
-256.054595947266

> <b_mmod_Minimization_Converged-OPLS-2005>
0

> <r_mmod_RMS_Derivative-OPLS-2005>
2.93704843521118

$$$$
81
                    3D
 Structure written by MMmdl.
150158  0  0  1  0            999 V2000
  -30.7399  -14.4464   20.6420 C   0  0  0  0  0  0
  -30.4210  -12.3194   19.4094 C   0  0  0  0  0  0
  -29.4881  -12.5166   18.1991 C   0  0  0  0  0  0
  -28.0136  -12.3680   18.6198 C   0  0  0  0  0  0
  -27.6631  -13.2089   19.8762 C   0  0  2  0  0  0
  -28.7070  -12.9919   20.9956 C   0  0  0  0  0  0
  -25.2603  -13.8171   20.5693 C   0  0  0  0  0  0
  -24.1845  -13.0446   20.9164 C   0  0  0  0  0  0
  -24.6399  -11.6912   20.8726 C   0  0  0  0  0  0
  -23.9065  -10.4297   21.0401 C   0  0  0  0  0  0
  -24.3617   -9.4212   21.9180 C   0  0  0  0  0  0
  -23.6292   -8.2247   22.0753 C   0  0  0  0  0  0
  -22.4276   -8.0282   21.3544 C   0  0  0  0  0  0
  -21.9910   -9.0255   20.4646 C   0  0  0  0  0  0
  -22.7237  -10.2135   20.3052 C   0  0  0  0  0  0
  -21.6852   -6.0737   22.5278 C   0  0  0  0  0  0
  -21.4012   -6.5641   23.8211 C   0  0  0  0  0  0
  -21.3659   -5.6793   24.9173 C   0  0  0  0  0  0
  -21.6044   -4.3056   24.7224 C   0  0  0  0  0  0
  -21.8820   -3.8148   23.4345 C   0  0  0  0  0  0
  -21.9193   -4.6965   22.3402 C   0  0  0  0  0  0
  -22.7866  -13.5244   21.1833 C   0  0  0  0  0  0
  -22.1662   -4.2152   21.0979 F   0  0  0  0  0  0
  -21.5631   -3.4539   25.7736 F   0  0  0  0  0  0
  -30.0376  -13.2962   20.4421 N   0  0  0  0  0  0
  -26.3041  -12.9341   20.3385 N   0  0  0  0  0  0
  -25.9331  -11.6498   20.5770 N   0  0  0  0  0  0
  -22.0506  -12.8234   22.0388 N   0  0  0  0  0  0
  -25.4348  -15.1893   20.4156 N   0  0  0  0  0  0
  -31.8049  -14.6650   20.0569 O   0  0  0  0  0  0
  -21.6640   -6.8880   21.4240 O   0  0  0  0  0  0
  -22.3551  -14.5555   20.6692 O   0  0  0  0  0  0
  -24.6165  -31.8674   23.2111 C   0  0  0  0  0  0
  -25.9054  -32.4821   23.8403 C   0  0  1  0  0  0
  -27.2287  -27.4203   20.0982 C   0  0  0  0  0  0
  -25.5908  -33.8620   24.2334 N   0  0  0  0  0  0
  -23.4053  -30.4928   21.5513 C   0  0  2  0  0  0
  -24.8522  -28.9628   20.1103 C   0  0  0  0  0  0
  -22.7421  -29.4660   22.4981 C   0  0  0  0  0  0
  -18.0275  -28.1379   22.8491 C   0  0  0  0  0  0
  -24.1485  -36.7309   23.2638 C   0  0  0  0  0  0
  -25.9369  -30.8277   21.3692 C   0  0  0  0  0  0
  -26.0140  -29.4628   20.7135 C   0  0  0  0  0  0
  -27.2066  -28.6979   20.7079 C   0  0  0  0  0  0
  -26.0536  -26.9528   19.4662 C   0  0  0  0  0  0
  -24.8674  -27.7070   19.4823 C   0  0  0  0  0  0
  -23.6145  -29.8297   20.1643 C   0  0  0  0  0  0
  -25.4106  -36.3111   24.0341 C   0  0  1  0  0  0
  -20.5867  -28.3667   23.1311 C   0  0  2  0  0  0
  -20.6767  -26.9402   22.5413 C   0  0  0  0  0  0
  -19.5745  -26.6387   21.5211 C   0  0  0  0  0  0
  -18.1924  -26.7927   22.1622 C   0  0  0  0  0  0
  -19.1525  -28.8838   23.2901 C   0  0  0  0  0  0
  -18.9452  -30.1446   23.8911 C   0  0  0  0  0  0
  -17.6454  -30.6585   24.0565 C   0  0  0  0  0  0
  -25.9035  -34.9476   23.5133 C   0  0  0  0  0  0
  -16.5345  -29.9084   23.6331 C   0  0  0  0  0  0
  -16.7264  -28.6502   23.0349 C   0  0  0  0  0  0
  -26.4479  -31.6599   25.0731 C   0  0  0  0  0  0
  -25.3744  -31.3697   26.1477 C   0  0  0  0  0  0
  -27.0316  -30.3043   24.6113 C   0  0  0  0  0  0
  -27.6055  -32.4317   25.7490 C   0  0  0  0  0  0
  -27.5580  -37.1811   24.8469 C   0  0  0  0  0  0
  -21.4146  -29.3036   22.3715 N   0  0  0  0  0  0
  -26.4295  -37.3795   23.9410 N   0  0  0  0  0  0
  -24.6710  -31.0766   22.1021 N   0  0  0  0  0  0
  -23.4184  -28.8197   23.3026 O   0  0  0  0  0  0
  -28.3592  -26.6224   20.1283 O   0  0  0  0  0  0
  -26.5592  -34.8927   22.4691 O   0  0  0  0  0  0
  -23.5354  -32.1434   23.7494 O   0  0  0  0  0  0
  -28.6098  -19.7715   20.4869 C   0  0  0  0  0  0
  -28.9267  -18.4283   20.8661 C   0  0  0  0  0  0
  -29.6282  -20.6710   20.7332 C   0  0  0  0  0  0
  -30.1699  -18.2772   21.4161 C   0  0  0  0  0  0
  -28.1557  -25.2913   20.4579 C   0  0  0  0  0  0
  -29.0485  -24.2913   20.2750 C   0  0  0  0  0  0
  -28.6612  -22.9101   20.6125 C   0  0  0  0  0  0
  -29.6724  -22.0213   20.5126 N   0  0  0  0  0  0
  -30.1974  -15.3894   21.5224 N   0  0  0  0  0  0
  -27.5253  -22.5721   20.9584 O   0  0  0  0  0  0
  -32.3635  -16.8669   21.7946 O   0  0  0  0  0  0
  -30.5654  -16.8892   23.5850 O   0  0  0  0  0  0
  -30.2678  -24.5554   19.7794 O   0  0  0  0  0  0
  -28.0628  -17.4476   20.7199 F   0  0  0  0  0  0
  -31.0139  -19.8123   21.3924 S   0  0  0  0  0  0
  -30.9348  -16.8283   22.1584 S   0  0  0  0  0  0
  -31.4638  -12.4186   19.1022 H   0  0  0  0  0  0
  -30.3261  -11.3062   19.8034 H   0  0  0  0  0  0
  -29.7272  -11.7946   17.4170 H   0  0  0  0  0  0
  -29.6498  -13.5042   17.7643 H   0  0  0  0  0  0
  -27.8317  -11.3113   18.8198 H   0  0  0  0  0  0
  -27.3569  -12.6366   17.7916 H   0  0  0  0  0  0
  -27.7073  -14.2570   19.5787 H   0  0  0  0  0  0
  -28.6848  -11.9562   21.3379 H   0  0  0  0  0  0
  -28.4590  -13.5910   21.8716 H   0  0  0  0  0  0
  -25.2764   -9.5686   22.4753 H   0  0  0  0  0  0
  -24.0001   -7.4640   22.7473 H   0  0  0  0  0  0
  -21.0842   -8.8773   19.8951 H   0  0  0  0  0  0
  -22.3698  -10.9672   19.6159 H   0  0  0  0  0  0
  -21.2001   -7.6147   23.9714 H   0  0  0  0  0  0
  -21.1481   -6.0524   25.9076 H   0  0  0  0  0  0
  -22.0600   -2.7609   23.2843 H   0  0  0  0  0  0
  -22.4116  -11.9890   22.4768 H   0  0  0  0  0  0
  -21.1123  -13.1257   22.2591 H   0  0  0  0  0  0
  -24.6746  -15.8478   20.5430 H   0  0  0  0  0  0
  -26.3035  -15.6376   20.1505 H   0  0  0  0  0  0
  -26.7124  -32.5529   23.1165 H   0  0  0  0  0  0
  -25.0079  -33.9783   25.0494 H   0  0  0  0  0  0
  -22.6951  -31.3107   21.4139 H   0  0  0  0  0  0
  -23.3746  -35.9644   23.3315 H   0  0  0  0  0  0
  -24.3579  -36.8905   22.2048 H   0  0  0  0  0  0
  -23.7235  -37.6520   23.6638 H   0  0  0  0  0  0
  -26.0537  -31.5947   20.6022 H   0  0  0  0  0  0
  -26.8233  -30.8781   21.9898 H   0  0  0  0  0  0
  -28.1006  -29.0727   21.1864 H   0  0  0  0  0  0
  -26.0463  -25.9919   18.9712 H   0  0  0  0  0  0
  -23.9774  -27.3191   19.0057 H   0  0  0  0  0  0
  -23.7223  -30.6071   19.4070 H   0  0  0  0  0  0
  -22.7381  -29.2508   19.8673 H   0  0  0  0  0  0
  -25.1281  -36.1981   25.0835 H   0  0  0  0  0  0
  -20.9962  -28.3232   24.1430 H   0  0  0  0  0  0
  -20.5675  -26.2274   23.3599 H   0  0  0  0  0  0
  -21.6637  -26.7451   22.1199 H   0  0  0  0  0  0
  -19.6905  -25.6302   21.1229 H   0  0  0  0  0  0
  -19.6686  -27.3207   20.6750 H   0  0  0  0  0  0
  -17.4194  -26.6679   21.4022 H   0  0  0  0  0  0
  -18.0323  -26.0064   22.9014 H   0  0  0  0  0  0
  -19.7930  -30.7257   24.2285 H   0  0  0  0  0  0
  -17.5011  -31.6270   24.5157 H   0  0  0  0  0  0
  -15.5346  -30.2988   23.7656 H   0  0  0  0  0  0
  -15.8664  -28.0830   22.7053 H   0  0  0  0  0  0
  -24.5920  -30.7044   25.7807 H   0  0  0  0  0  0
  -24.8934  -32.2848   26.4941 H   0  0  0  0  0  0
  -25.8098  -30.8850   27.0225 H   0  0  0  0  0  0
  -26.2865  -29.6795   24.1173 H   0  0  0  0  0  0
  -27.4094  -29.7285   25.4573 H   0  0  0  0  0  0
  -27.8697  -30.4364   23.9266 H   0  0  0  0  0  0
  -27.2681  -33.3610   26.2092 H   0  0  0  0  0  0
  -28.3853  -32.6885   25.0307 H   0  0  0  0  0  0
  -28.0739  -31.8425   26.5385 H   0  0  0  0  0  0
  -28.2609  -38.0098   24.7511 H   0  0  0  0  0  0
  -28.1066  -36.2632   24.6303 H   0  0  0  0  0  0
  -27.2300  -37.1471   25.8874 H   0  0  0  0  0  0
  -20.9303  -29.8758   21.6940 H   0  0  0  0  0  0
  -26.0186  -38.2877   24.1402 H   0  0  0  0  0  0
  -27.6499  -20.0230   20.0599 H   0  0  0  0  0  0
  -27.1769  -25.1096   20.8863 H   0  0  0  0  0  0
  -30.5748  -22.4399   20.3237 H   0  0  0  0  0  0
  -29.2914  -15.2237   21.9488 H   0  0  0  0  0  0
  -30.3034  -25.4919   19.6283 H   0  0  0  0  0  0
  1 25  1  0  0  0
  1 30  2  0  0  0
  1 79  1  0  0  0
  2  3  1  0  0  0
  2 25  1  0  0  0
  2 87  1  0  0  0
  2 88  1  0  0  0
  3  4  1  0  0  0
  3 89  1  0  0  0
  3 90  1  0  0  0
  4  5  1  0  0  0
  4 91  1  0  0  0
  4 92  1  0  0  0
  5  6  1  0  0  0
  5 26  1  0  0  0
  5 93  1  0  0  0
  6 25  1  0  0  0
  6 94  1  0  0  0
  6 95  1  0  0  0
  7  8  2  0  0  0
  7 26  1  0  0  0
  7 29  1  0  0  0
  8  9  1  0  0  0
  8 22  1  0  0  0
  9 10  1  0  0  0
  9 27  2  0  0  0
 10 11  2  0  0  0
 10 15  1  0  0  0
 11 12  1  0  0  0
 11 96  1  0  0  0
 12 13  2  0  0  0
 12 97  1  0  0  0
 13 14  1  0  0  0
 13 31  1  0  0  0
 14 15  2  0  0  0
 14 98  1  0  0  0
 15 99  1  0  0  0
 16 17  2  0  0  0
 16 21  1  0  0  0
 16 31  1  0  0  0
 17 18  1  0  0  0
 17100  1  0  0  0
 18 19  2  0  0  0
 18101  1  0  0  0
 19 20  1  0  0  0
 19 24  1  0  0  0
 20 21  2  0  0  0
 20102  1  0  0  0
 21 23  1  0  0  0
 22 28  1  0  0  0
 22 32  2  0  0  0
 26 27  1  0  0  0
 28103  1  0  0  0
 28104  1  0  0  0
 29105  1  0  0  0
 29106  1  0  0  0
 33 34  1  0  0  0
 33 66  1  0  0  0
 33 70  2  0  0  0
 34 36  1  0  0  0
 34 59  1  0  0  0
 34107  1  0  0  0
 35 44  2  0  0  0
 35 45  1  0  0  0
 35 68  1  0  0  0
 36 56  1  0  0  0
 36108  1  0  0  0
 37 39  1  0  0  0
 37 47  1  0  0  0
 37 66  1  0  0  0
 37109  1  0  0  0
 38 43  2  0  0  0
 38 46  1  0  0  0
 38 47  1  0  0  0
 39 64  1  0  0  0
 39 67  2  0  0  0
 40 52  1  0  0  0
 40 53  2  0  0  0
 40 58  1  0  0  0
 41110  1  0  0  0
 41111  1  0  0  0
 41112  1  0  0  0
 41 48  1  0  0  0
 42 43  1  0  0  0
 42 66  1  0  0  0
 42113  1  0  0  0
 42114  1  0  0  0
 43 44  1  0  0  0
 44115  1  0  0  0
 45 46  2  0  0  0
 45116  1  0  0  0
 46117  1  0  0  0
 47118  1  0  0  0
 47119  1  0  0  0
 48 56  1  0  0  0
 48 65  1  0  0  0
 48120  1  0  0  0
 49 50  1  0  0  0
 49 53  1  0  0  0
 49 64  1  0  0  0
 49121  1  0  0  0
 50 51  1  0  0  0
 50122  1  0  0  0
 50123  1  0  0  0
 51 52  1  0  0  0
 51124  1  0  0  0
 51125  1  0  0  0
 52126  1  0  0  0
 52127  1  0  0  0
 53 54  1  0  0  0
 54 55  2  0  0  0
 54128  1  0  0  0
 55 57  1  0  0  0
 55129  1  0  0  0
 56 69  2  0  0  0
 57 58  2  0  0  0
 57130  1  0  0  0
 58131  1  0  0  0
 59 60  1  0  0  0
 59 61  1  0  0  0
 59 62  1  0  0  0
 60132  1  0  0  0
 60133  1  0  0  0
 60134  1  0  0  0
 61135  1  0  0  0
 61136  1  0  0  0
 61137  1  0  0  0
 62138  1  0  0  0
 62139  1  0  0  0
 62140  1  0  0  0
 63 65  1  0  0  0
 63141  1  0  0  0
 63142  1  0  0  0
 63143  1  0  0  0
 64144  1  0  0  0
 65145  1  0  0  0
 68 75  1  0  0  0
 71 72  1  0  0  0
 71 73  2  0  0  0
 71146  1  0  0  0
 72 74  2  0  0  0
 72 84  1  0  0  0
 73 78  1  0  0  0
 73 85  1  0  0  0
 74 85  1  0  0  0
 74 86  1  0  0  0
 75 76  2  0  0  0
 75147  1  0  0  0
 76 77  1  0  0  0
 76 83  1  0  0  0
 77 78  1  0  0  0
 77 80  2  0  0  0
 78148  1  0  0  0
 79149  1  0  0  0
 79 86  1  0  0  0
 81 86  2  0  0  0
 82 86  2  0  0  0
 83150  1  0  0  0
M  ISO  4   1 100  68 101  75 101  79 100
M  END
> <chiral flag>
0

> <version>
0

> <s_m_source_file>
/data/baiqing/PycharmProjects/Reinvent-master-3.2/result/LINK_invent/BTK/process_docking_weight1_custom_product_contain_oxygen_bond_distance_aromatic_linkinvent_7_9_3/rearranged_h_0175.sdf

> <i_m_source_file_index>
81

> <r_mmod_Potential_Energy-OPLS-2005>
-330.200317382812

> <r_mmod_Stretch_Energy-OPLS-2005>
37.0556373596191

> <r_mmod_Bend_Energy-OPLS-2005>
104.998107910156

> <r_mmod_Torsional_Energy-OPLS-2005>
173.186431884766

> <r_mmod_Improper_Torsional_Energy-OPLS-2005>
1.84404850006104

> <r_mmod_Van_der_Waal_Energy-OPLS-2005>
133.975601196289

> <r_mmod_Electrostatic_Energy-OPLS-2005>
-541.732299804688

> <r_mmod_Solvation_Energy-OPLS-2005>
-252.782012939453

> <b_mmod_Minimization_Converged-OPLS-2005>
0

> <r_mmod_RMS_Derivative-OPLS-2005>
0.379903197288513

$$$$
82
                    3D
 Structure written by MMmdl.
155163  0  0  1  0            999 V2000
  -30.7431  -14.3783   20.6494 C   0  0  0  0  0  0
  -30.4187  -12.2768   19.4005 C   0  0  0  0  0  0
  -29.4873  -12.5126   18.1954 C   0  0  0  0  0  0
  -28.0090  -12.3770   18.6093 C   0  0  0  0  0  0
  -27.6670  -13.1985   19.8805 C   0  0  2  0  0  0
  -28.7038  -12.9306   20.9939 C   0  0  0  0  0  0
  -25.2615  -13.8149   20.5670 C   0  0  0  0  0  0
  -24.1853  -13.0441   20.9163 C   0  0  0  0  0  0
  -24.6389  -11.6899   20.8723 C   0  0  0  0  0  0
  -23.9050  -10.4294   21.0399 C   0  0  0  0  0  0
  -24.3606   -9.4211   21.9179 C   0  0  0  0  0  0
  -23.6287   -8.2243   22.0752 C   0  0  0  0  0  0
  -22.4270   -8.0278   21.3541 C   0  0  0  0  0  0
  -21.9899   -9.0251   20.4645 C   0  0  0  0  0  0
  -22.7221  -10.2134   20.3052 C   0  0  0  0  0  0
  -21.6851   -6.0736   22.5280 C   0  0  0  0  0  0
  -21.4012   -6.5640   23.8213 C   0  0  0  0  0  0
  -21.3660   -5.6793   24.9176 C   0  0  0  0  0  0
  -21.6043   -4.3056   24.7226 C   0  0  0  0  0  0
  -21.8820   -3.8148   23.4348 C   0  0  0  0  0  0
  -21.9193   -4.6964   22.3403 C   0  0  0  0  0  0
  -22.7876  -13.5243   21.1835 C   0  0  0  0  0  0
  -22.1662   -4.2149   21.0980 F   0  0  0  0  0  0
  -21.5628   -3.4540   25.7738 F   0  0  0  0  0  0
  -30.0466  -13.2274   20.4581 N   0  0  0  0  0  0
  -26.3046  -12.9303   20.3374 N   0  0  0  0  0  0
  -25.9311  -11.6469   20.5748 N   0  0  0  0  0  0
  -22.0518  -12.8243   22.0397 N   0  0  0  0  0  0
  -25.4371  -15.1865   20.4085 N   0  0  0  0  0  0
  -31.8050  -14.6208   20.0649 O   0  0  0  0  0  0
  -21.6636   -6.8876   21.4239 O   0  0  0  0  0  0
  -22.3563  -14.5557   20.6693 O   0  0  0  0  0  0
  -24.6116  -31.8705   23.2124 C   0  0  0  0  0  0
  -25.9025  -32.4837   23.8406 C   0  0  1  0  0  0
  -27.2389  -27.4671   20.0860 C   0  0  0  0  0  0
  -25.5892  -33.8635   24.2334 N   0  0  0  0  0  0
  -23.3968  -30.4946   21.5539 C   0  0  2  0  0  0
  -24.8417  -28.9627   20.1197 C   0  0  0  0  0  0
  -22.7389  -29.4670   22.5015 C   0  0  0  0  0  0
  -18.0260  -28.1386   22.8503 C   0  0  0  0  0  0
  -24.1487  -36.7324   23.2637 C   0  0  0  0  0  0
  -25.9233  -30.8463   21.3598 C   0  0  0  0  0  0
  -26.0011  -29.4837   20.7062 C   0  0  0  0  0  0
  -27.2018  -28.7444   20.6825 C   0  0  0  0  0  0
  -26.0590  -26.9501   19.5010 C   0  0  0  0  0  0
  -24.8638  -27.6931   19.5173 C   0  0  0  0  0  0
  -23.6023  -29.8261   20.1693 C   0  0  0  0  0  0
  -25.4107  -36.3121   24.0336 C   0  0  1  0  0  0
  -20.5851  -28.3668   23.1334 C   0  0  2  0  0  0
  -20.6763  -26.9411   22.5425 C   0  0  0  0  0  0
  -19.5742  -26.6393   21.5225 C   0  0  0  0  0  0
  -18.1915  -26.7935   22.1633 C   0  0  0  0  0  0
  -19.1511  -28.8841   23.2918 C   0  0  0  0  0  0
  -18.9443  -30.1450   23.8926 C   0  0  0  0  0  0
  -17.6448  -30.6597   24.0573 C   0  0  0  0  0  0
  -25.9036  -34.9485   23.5132 C   0  0  0  0  0  0
  -16.5337  -29.9108   23.6326 C   0  0  0  0  0  0
  -16.7251  -28.6521   23.0352 C   0  0  0  0  0  0
  -26.4463  -31.6608   25.0723 C   0  0  0  0  0  0
  -25.3729  -31.3713   26.1468 C   0  0  0  0  0  0
  -27.0275  -30.3045   24.6079 C   0  0  0  0  0  0
  -27.6045  -32.4319   25.7482 C   0  0  0  0  0  0
  -27.5583  -37.1814   24.8464 C   0  0  0  0  0  0
  -21.4120  -29.3035   22.3746 N   0  0  0  0  0  0
  -26.4297  -37.3801   23.9406 N   0  0  0  0  0  0
  -24.6623  -31.0835   22.1008 N   0  0  0  0  0  0
  -23.4175  -28.8208   23.3041 O   0  0  0  0  0  0
  -28.4351  -26.7842   20.0889 O   0  0  0  0  0  0
  -26.5601  -34.8933   22.4693 O   0  0  0  0  0  0
  -23.5320  -32.1444   23.7540 O   0  0  0  0  0  0
  -31.5903  -18.5623   21.6703 C   0  0  0  0  0  0
  -30.3180  -19.0910   21.7267 C   0  0  0  0  0  0
  -30.4105  -16.6243   21.5951 C   0  0  0  0  0  0
  -29.0153  -22.5841   21.7755 C   0  0  0  0  0  0
  -28.8440  -21.0445   21.7447 C   0  0  0  0  0  0
  -32.8786  -19.3275   21.6596 C   0  0  0  0  0  0
  -27.7203  -23.4047   21.7442 C   0  0  0  0  0  0
  -27.9044  -24.9272   21.5900 C   0  0  0  0  0  0
  -28.4042  -25.3622   20.1967 C   0  0  0  0  0  0
  -31.6309  -17.1663   21.6042 N   0  0  0  0  0  0
  -30.0332  -20.4206   21.7676 N   0  0  0  0  0  0
  -30.1667  -15.2379   21.5001 N   0  0  0  0  0  0
  -30.1286  -23.1233   21.8348 O   0  0  0  0  0  0
  -27.7358  -20.4991   21.7011 O   0  0  0  0  0  0
  -29.1223  -17.7998   21.7435 S   0  0  0  0  0  0
  -31.4625  -12.3730   19.0964 H   0  0  0  0  0  0
  -30.3141  -11.2550   19.7683 H   0  0  0  0  0  0
  -29.7170  -11.8033   17.3990 H   0  0  0  0  0  0
  -29.6642  -13.5061   17.7809 H   0  0  0  0  0  0
  -27.8104  -11.3193   18.7879 H   0  0  0  0  0  0
  -27.3590  -12.6713   17.7846 H   0  0  0  0  0  0
  -27.7284  -14.2530   19.6100 H   0  0  0  0  0  0
  -28.6640  -11.8830   21.2959 H   0  0  0  0  0  0
  -28.4529  -13.4901   21.8952 H   0  0  0  0  0  0
  -25.2754   -9.5690   22.4750 H   0  0  0  0  0  0
  -24.0001   -7.4635   22.7469 H   0  0  0  0  0  0
  -21.0832   -8.8765   19.8952 H   0  0  0  0  0  0
  -22.3678  -10.9671   19.6161 H   0  0  0  0  0  0
  -21.2004   -7.6149   23.9715 H   0  0  0  0  0  0
  -21.1481   -6.0525   25.9078 H   0  0  0  0  0  0
  -22.0599   -2.7610   23.2847 H   0  0  0  0  0  0
  -22.4126  -11.9895   22.4780 H   0  0  0  0  0  0
  -21.1140  -13.1274   22.2611 H   0  0  0  0  0  0
  -24.6740  -15.8459   20.5155 H   0  0  0  0  0  0
  -26.2933  -15.6218   20.0889 H   0  0  0  0  0  0
  -26.7106  -32.5558   23.1183 H   0  0  0  0  0  0
  -25.0033  -33.9807   25.0470 H   0  0  0  0  0  0
  -22.6837  -31.3097   21.4168 H   0  0  0  0  0  0
  -23.3746  -35.9662   23.3312 H   0  0  0  0  0  0
  -24.3578  -36.8920   22.2049 H   0  0  0  0  0  0
  -23.7246  -37.6536   23.6640 H   0  0  0  0  0  0
  -26.0294  -31.6137   20.5922 H   0  0  0  0  0  0
  -26.8134  -30.8996   21.9755 H   0  0  0  0  0  0
  -28.1005  -29.1481   21.1283 H   0  0  0  0  0  0
  -26.0428  -25.9855   19.0173 H   0  0  0  0  0  0
  -23.9712  -27.2838   19.0643 H   0  0  0  0  0  0
  -23.7084  -30.5996   19.4079 H   0  0  0  0  0  0
  -22.7272  -29.2432   19.8762 H   0  0  0  0  0  0
  -25.1281  -36.1994   25.0829 H   0  0  0  0  0  0
  -20.9939  -28.3239   24.1459 H   0  0  0  0  0  0
  -20.5694  -26.2274   23.3607 H   0  0  0  0  0  0
  -21.6630  -26.7485   22.1198 H   0  0  0  0  0  0
  -19.6907  -25.6309   21.1247 H   0  0  0  0  0  0
  -19.6676  -27.3215   20.6763 H   0  0  0  0  0  0
  -17.4184  -26.6683   21.4035 H   0  0  0  0  0  0
  -18.0314  -26.0073   22.9025 H   0  0  0  0  0  0
  -19.7919  -30.7259   24.2310 H   0  0  0  0  0  0
  -17.5007  -31.6281   24.5176 H   0  0  0  0  0  0
  -15.5343  -30.3028   23.7632 H   0  0  0  0  0  0
  -15.8647  -28.0857   22.7053 H   0  0  0  0  0  0
  -24.5901  -30.7062   25.7803 H   0  0  0  0  0  0
  -24.8923  -32.2870   26.4922 H   0  0  0  0  0  0
  -25.8077  -30.8875   27.0223 H   0  0  0  0  0  0
  -26.2809  -29.6832   24.1116 H   0  0  0  0  0  0
  -27.4022  -29.7254   25.4535 H   0  0  0  0  0  0
  -27.8661  -30.4352   23.9230 H   0  0  0  0  0  0
  -27.2664  -33.3602   26.2098 H   0  0  0  0  0  0
  -28.3834  -32.6906   25.0297 H   0  0  0  0  0  0
  -28.0739  -31.8417   26.5363 H   0  0  0  0  0  0
  -28.2612  -38.0105   24.7508 H   0  0  0  0  0  0
  -28.1067  -36.2633   24.6292 H   0  0  0  0  0  0
  -27.2298  -37.1469   25.8869 H   0  0  0  0  0  0
  -20.9281  -29.8740   21.6957 H   0  0  0  0  0  0
  -26.0191  -38.2882   24.1404 H   0  0  0  0  0  0
  -32.9704  -19.9558   22.5455 H   0  0  0  0  0  0
  -32.9440  -19.9763   20.7862 H   0  0  0  0  0  0
  -33.7440  -18.6650   21.6393 H   0  0  0  0  0  0
  -27.1894  -23.2000   22.6737 H   0  0  0  0  0  0
  -27.0876  -23.0260   20.9415 H   0  0  0  0  0  0
  -28.5814  -25.3037   22.3579 H   0  0  0  0  0  0
  -26.9410  -25.3935   21.7953 H   0  0  0  0  0  0
  -29.4262  -25.0132   20.0515 H   0  0  0  0  0  0
  -27.8265  -24.9011   19.3971 H   0  0  0  0  0  0
  -30.8145  -21.0652   21.7954 H   0  0  0  0  0  0
  -29.2911  -14.9205   21.8840 H   0  0  0  0  0  0
  1 25  1  0  0  0
  1 30  2  0  0  0
  1 82  1  0  0  0
  2  3  1  0  0  0
  2 25  1  0  0  0
  2 86  1  0  0  0
  2 87  1  0  0  0
  3  4  1  0  0  0
  3 88  1  0  0  0
  3 89  1  0  0  0
  4  5  1  0  0  0
  4 90  1  0  0  0
  4 91  1  0  0  0
  5  6  1  0  0  0
  5 26  1  0  0  0
  5 92  1  0  0  0
  6 25  1  0  0  0
  6 93  1  0  0  0
  6 94  1  0  0  0
  7  8  2  0  0  0
  7 26  1  0  0  0
  7 29  1  0  0  0
  8  9  1  0  0  0
  8 22  1  0  0  0
  9 10  1  0  0  0
  9 27  2  0  0  0
 10 11  2  0  0  0
 10 15  1  0  0  0
 11 12  1  0  0  0
 11 95  1  0  0  0
 12 13  2  0  0  0
 12 96  1  0  0  0
 13 14  1  0  0  0
 13 31  1  0  0  0
 14 15  2  0  0  0
 14 97  1  0  0  0
 15 98  1  0  0  0
 16 17  2  0  0  0
 16 21  1  0  0  0
 16 31  1  0  0  0
 17 18  1  0  0  0
 17 99  1  0  0  0
 18 19  2  0  0  0
 18100  1  0  0  0
 19 20  1  0  0  0
 19 24  1  0  0  0
 20 21  2  0  0  0
 20101  1  0  0  0
 21 23  1  0  0  0
 22 28  1  0  0  0
 22 32  2  0  0  0
 26 27  1  0  0  0
 28102  1  0  0  0
 28103  1  0  0  0
 29104  1  0  0  0
 29105  1  0  0  0
 33 34  1  0  0  0
 33 66  1  0  0  0
 33 70  2  0  0  0
 34 36  1  0  0  0
 34 59  1  0  0  0
 34106  1  0  0  0
 35 44  2  0  0  0
 35 45  1  0  0  0
 35 68  1  0  0  0
 36 56  1  0  0  0
 36107  1  0  0  0
 37 39  1  0  0  0
 37 47  1  0  0  0
 37 66  1  0  0  0
 37108  1  0  0  0
 38 43  2  0  0  0
 38 46  1  0  0  0
 38 47  1  0  0  0
 39 64  1  0  0  0
 39 67  2  0  0  0
 40 52  1  0  0  0
 40 53  2  0  0  0
 40 58  1  0  0  0
 41109  1  0  0  0
 41110  1  0  0  0
 41111  1  0  0  0
 41 48  1  0  0  0
 42 43  1  0  0  0
 42 66  1  0  0  0
 42112  1  0  0  0
 42113  1  0  0  0
 43 44  1  0  0  0
 44114  1  0  0  0
 45 46  2  0  0  0
 45115  1  0  0  0
 46116  1  0  0  0
 47117  1  0  0  0
 47118  1  0  0  0
 48 56  1  0  0  0
 48 65  1  0  0  0
 48119  1  0  0  0
 49 50  1  0  0  0
 49 53  1  0  0  0
 49 64  1  0  0  0
 49120  1  0  0  0
 50 51  1  0  0  0
 50121  1  0  0  0
 50122  1  0  0  0
 51 52  1  0  0  0
 51123  1  0  0  0
 51124  1  0  0  0
 52125  1  0  0  0
 52126  1  0  0  0
 53 54  1  0  0  0
 54 55  2  0  0  0
 54127  1  0  0  0
 55 57  1  0  0  0
 55128  1  0  0  0
 56 69  2  0  0  0
 57 58  2  0  0  0
 57129  1  0  0  0
 58130  1  0  0  0
 59 60  1  0  0  0
 59 61  1  0  0  0
 59 62  1  0  0  0
 60131  1  0  0  0
 60132  1  0  0  0
 60133  1  0  0  0
 61134  1  0  0  0
 61135  1  0  0  0
 61136  1  0  0  0
 62137  1  0  0  0
 62138  1  0  0  0
 62139  1  0  0  0
 63 65  1  0  0  0
 63140  1  0  0  0
 63141  1  0  0  0
 63142  1  0  0  0
 64143  1  0  0  0
 65144  1  0  0  0
 68 79  1  0  0  0
 71 72  2  0  0  0
 71 76  1  0  0  0
 71 80  1  0  0  0
 72 81  1  0  0  0
 72 85  1  0  0  0
 73 80  2  0  0  0
 73 82  1  0  0  0
 73 85  1  0  0  0
 74 75  1  0  0  0
 74 77  1  0  0  0
 74 83  2  0  0  0
 75 81  1  0  0  0
 75 84  2  0  0  0
 76145  1  0  0  0
 76146  1  0  0  0
 76147  1  0  0  0
 77 78  1  0  0  0
 77148  1  0  0  0
 77149  1  0  0  0
 78 79  1  0  0  0
 78150  1  0  0  0
 78151  1  0  0  0
 79152  1  0  0  0
 79153  1  0  0  0
 81154  1  0  0  0
 82155  1  0  0  0
M  ISO  4   1 100  68 101  79 101  82 100
M  END
> <chiral flag>
0

> <version>
0

> <s_m_source_file>
/data/baiqing/PycharmProjects/Reinvent-master-3.2/result/LINK_invent/BTK/process_docking_weight1_custom_product_contain_oxygen_bond_distance_aromatic_linkinvent_7_9_3/rearranged_h_0175.sdf

> <i_m_source_file_index>
82

> <r_mmod_Potential_Energy-OPLS-2005>
-153.114166259766

> <r_mmod_Stretch_Energy-OPLS-2005>
32.1640243530273

> <r_mmod_Bend_Energy-OPLS-2005>
104.916526794434

> <r_mmod_Torsional_Energy-OPLS-2005>
196.519454956055

> <r_mmod_Improper_Torsional_Energy-OPLS-2005>
2.96947455406189

> <r_mmod_Van_der_Waal_Energy-OPLS-2005>
143.560043334961

> <r_mmod_Electrostatic_Energy-OPLS-2005>
-399.025299072266

> <r_mmod_Solvation_Energy-OPLS-2005>
-242.005584716797

> <b_mmod_Minimization_Converged-OPLS-2005>
0

> <r_mmod_RMS_Derivative-OPLS-2005>
0.892736434936523

$$$$
83
                    3D
 Structure written by MMmdl.
153161  0  0  1  0            999 V2000
  -30.6606  -14.5403   20.4748 C   0  0  0  0  0  0
  -30.4244  -12.3236   19.4423 C   0  0  0  0  0  0
  -29.4999  -12.4842   18.2161 C   0  0  0  0  0  0
  -28.0208  -12.3422   18.6270 C   0  0  0  0  0  0
  -27.6539  -13.2090   19.8616 C   0  0  2  0  0  0
  -28.6964  -13.0451   20.9910 C   0  0  0  0  0  0
  -25.2571  -13.8162   20.5671 C   0  0  0  0  0  0
  -24.1830  -13.0439   20.9180 C   0  0  0  0  0  0
  -24.6383  -11.6905   20.8736 C   0  0  0  0  0  0
  -23.9049  -10.4292   21.0408 C   0  0  0  0  0  0
  -24.3607   -9.4210   21.9185 C   0  0  0  0  0  0
  -23.6287   -8.2244   22.0754 C   0  0  0  0  0  0
  -22.4270   -8.0280   21.3543 C   0  0  0  0  0  0
  -21.9899   -9.0253   20.4647 C   0  0  0  0  0  0
  -22.7222  -10.2135   20.3058 C   0  0  0  0  0  0
  -21.6853   -6.0734   22.5277 C   0  0  0  0  0  0
  -21.4014   -6.5639   23.8210 C   0  0  0  0  0  0
  -21.3656   -5.6791   24.9174 C   0  0  0  0  0  0
  -21.6044   -4.3054   24.7223 C   0  0  0  0  0  0
  -21.8820   -3.8145   23.4344 C   0  0  0  0  0  0
  -21.9192   -4.6961   22.3400 C   0  0  0  0  0  0
  -22.7856  -13.5242   21.1847 C   0  0  0  0  0  0
  -22.1663   -4.2148   21.0978 F   0  0  0  0  0  0
  -21.5626   -3.4535   25.7734 F   0  0  0  0  0  0
  -30.0220  -13.3390   20.4286 N   0  0  0  0  0  0
  -26.2987  -12.9327   20.3304 N   0  0  0  0  0  0
  -25.9306  -11.6490   20.5752 N   0  0  0  0  0  0
  -22.0495  -12.8240   22.0406 N   0  0  0  0  0  0
  -25.4305  -15.1881   20.4082 N   0  0  0  0  0  0
  -31.8529  -14.6644   20.1840 O   0  0  0  0  0  0
  -21.6638   -6.8876   21.4239 O   0  0  0  0  0  0
  -22.3545  -14.5550   20.6697 O   0  0  0  0  0  0
  -24.6184  -31.8655   23.2074 C   0  0  0  0  0  0
  -25.9064  -32.4807   23.8377 C   0  0  1  0  0  0
  -27.2293  -27.3929   20.0978 C   0  0  0  0  0  0
  -25.5911  -33.8607   24.2311 N   0  0  0  0  0  0
  -23.4067  -30.4902   21.5495 C   0  0  2  0  0  0
  -24.8493  -28.9498   20.1168 C   0  0  0  0  0  0
  -22.7425  -29.4655   22.4979 C   0  0  0  0  0  0
  -18.0276  -28.1377   22.8490 C   0  0  0  0  0  0
  -24.1490  -36.7312   23.2639 C   0  0  0  0  0  0
  -25.9397  -30.8192   21.3648 C   0  0  0  0  0  0
  -26.0133  -29.4506   20.7108 C   0  0  0  0  0  0
  -27.2034  -28.6816   20.6933 C   0  0  0  0  0  0
  -26.0354  -26.9112   19.5104 C   0  0  0  0  0  0
  -24.8575  -27.6815   19.5148 C   0  0  0  0  0  0
  -23.6153  -29.8233   20.1644 C   0  0  0  0  0  0
  -25.4112  -36.3104   24.0335 C   0  0  1  0  0  0
  -20.5868  -28.3670   23.1309 C   0  0  2  0  0  0
  -20.6768  -26.9404   22.5416 C   0  0  0  0  0  0
  -19.5746  -26.6384   21.5213 C   0  0  0  0  0  0
  -18.1924  -26.7924   22.1623 C   0  0  0  0  0  0
  -19.1526  -28.8840   23.2897 C   0  0  0  0  0  0
  -18.9453  -30.1445   23.8910 C   0  0  0  0  0  0
  -17.6456  -30.6582   24.0565 C   0  0  0  0  0  0
  -25.9041  -34.9468   23.5121 C   0  0  0  0  0  0
  -16.5347  -29.9085   23.6325 C   0  0  0  0  0  0
  -16.7265  -28.6502   23.0346 C   0  0  0  0  0  0
  -26.4478  -31.6595   25.0718 C   0  0  0  0  0  0
  -25.3738  -31.3709   26.1464 C   0  0  0  0  0  0
  -27.0309  -30.3032   24.6112 C   0  0  0  0  0  0
  -27.6054  -32.4314   25.7480 C   0  0  0  0  0  0
  -27.5581  -37.1813   24.8466 C   0  0  0  0  0  0
  -21.4150  -29.3037   22.3715 N   0  0  0  0  0  0
  -26.4298  -37.3789   23.9404 N   0  0  0  0  0  0
  -24.6737  -31.0732   22.0987 N   0  0  0  0  0  0
  -23.4185  -28.8196   23.3030 O   0  0  0  0  0  0
  -28.4155  -26.6699   20.1059 O   0  0  0  0  0  0
  -26.5604  -34.8925   22.4684 O   0  0  0  0  0  0
  -23.5371  -32.1422   23.7456 O   0  0  0  0  0  0
  -29.3762  -18.0772   20.5504 C   0  0  0  0  0  0
  -30.5646  -18.2391   18.0158 C   0  0  0  0  0  0
  -29.4109  -19.3357   19.8726 C   0  0  0  0  0  0
  -29.9507  -16.8981   19.9796 C   0  0  0  0  0  0
  -30.0169  -19.3935   18.5945 C   0  0  0  0  0  0
  -30.5149  -17.0024   18.6791 C   0  0  0  0  0  0
  -27.9501  -22.8154   20.5212 C   0  0  0  0  0  0
  -29.1274  -21.7927   20.3292 C   0  0  0  0  0  0
  -28.2625  -24.2842   20.9066 C   0  0  0  0  0  0
  -28.4604  -25.2707   19.7198 C   0  0  0  0  0  0
  -28.7331  -20.4952   20.3936 N   0  0  0  0  0  0
  -29.8629  -15.6236   20.6619 N   0  0  0  0  0  0
  -26.7723  -22.4603   20.3885 O   0  0  0  0  0  0
  -30.2988  -22.1577   20.1814 O   0  0  0  0  0  0
  -30.0148  -20.5391   17.8699 F   0  0  0  0  0  0
  -30.9577  -15.9130   18.0064 F   0  0  0  0  0  0
  -31.4694  -12.4240   19.1433 H   0  0  0  0  0  0
  -30.3295  -11.3245   19.8703 H   0  0  0  0  0  0
  -29.7486  -11.7407   17.4578 H   0  0  0  0  0  0
  -29.6614  -13.4591   17.7528 H   0  0  0  0  0  0
  -27.8432  -11.2894   18.8504 H   0  0  0  0  0  0
  -27.3701  -12.5866   17.7867 H   0  0  0  0  0  0
  -27.6789  -14.2458   19.5264 H   0  0  0  0  0  0
  -28.6799  -12.0275   21.3842 H   0  0  0  0  0  0
  -28.4646  -13.6962   21.8355 H   0  0  0  0  0  0
  -25.2755   -9.5686   22.4754 H   0  0  0  0  0  0
  -23.9997   -7.4635   22.7471 H   0  0  0  0  0  0
  -21.0830   -8.8770   19.8955 H   0  0  0  0  0  0
  -22.3681  -10.9674   19.6166 H   0  0  0  0  0  0
  -21.2014   -7.6148   23.9714 H   0  0  0  0  0  0
  -21.1475   -6.0523   25.9076 H   0  0  0  0  0  0
  -22.0603   -2.7607   23.2846 H   0  0  0  0  0  0
  -22.4103  -11.9901   22.4800 H   0  0  0  0  0  0
  -21.1118  -13.1279   22.2612 H   0  0  0  0  0  0
  -24.6636  -15.8433   20.5145 H   0  0  0  0  0  0
  -26.2780  -15.6243   20.0685 H   0  0  0  0  0  0
  -26.7132  -32.5500   23.1134 H   0  0  0  0  0  0
  -25.0064  -33.9761   25.0459 H   0  0  0  0  0  0
  -22.6971  -31.3085   21.4104 H   0  0  0  0  0  0
  -23.3744  -35.9653   23.3316 H   0  0  0  0  0  0
  -24.3581  -36.8912   22.2050 H   0  0  0  0  0  0
  -23.7252  -37.6525   23.6645 H   0  0  0  0  0  0
  -26.0581  -31.5843   20.5963 H   0  0  0  0  0  0
  -26.8258  -30.8703   21.9860 H   0  0  0  0  0  0
  -28.1040  -29.0699   21.1484 H   0  0  0  0  0  0
  -25.9736  -25.9421   19.0421 H   0  0  0  0  0  0
  -23.9600  -27.2875   19.0579 H   0  0  0  0  0  0
  -23.7291  -30.5984   19.4057 H   0  0  0  0  0  0
  -22.7366  -29.2484   19.8662 H   0  0  0  0  0  0
  -25.1290  -36.1970   25.0828 H   0  0  0  0  0  0
  -20.9961  -28.3239   24.1430 H   0  0  0  0  0  0
  -20.5671  -26.2280   23.3605 H   0  0  0  0  0  0
  -21.6640  -26.7443   22.1211 H   0  0  0  0  0  0
  -19.6909  -25.6298   21.1235 H   0  0  0  0  0  0
  -19.6684  -27.3202   20.6749 H   0  0  0  0  0  0
  -17.4195  -26.6671   21.4024 H   0  0  0  0  0  0
  -18.0323  -26.0061   22.9014 H   0  0  0  0  0  0
  -19.7931  -30.7255   24.2285 H   0  0  0  0  0  0
  -17.5012  -31.6264   24.5165 H   0  0  0  0  0  0
  -15.5348  -30.2992   23.7640 H   0  0  0  0  0  0
  -15.8666  -28.0826   22.7052 H   0  0  0  0  0  0
  -24.5909  -30.7058   25.7802 H   0  0  0  0  0  0
  -24.8934  -32.2869   26.4914 H   0  0  0  0  0  0
  -25.8089  -30.8875   27.0221 H   0  0  0  0  0  0
  -26.2857  -29.6791   24.1164 H   0  0  0  0  0  0
  -27.4069  -29.7270   25.4577 H   0  0  0  0  0  0
  -27.8698  -30.4342   23.9272 H   0  0  0  0  0  0
  -27.2672  -33.3602   26.2087 H   0  0  0  0  0  0
  -28.3846  -32.6893   25.0296 H   0  0  0  0  0  0
  -28.0741  -31.8420   26.5371 H   0  0  0  0  0  0
  -28.2614  -38.0095   24.7496 H   0  0  0  0  0  0
  -28.1061  -36.2627   24.6313 H   0  0  0  0  0  0
  -27.2297  -37.1491   25.8869 H   0  0  0  0  0  0
  -20.9312  -29.8765   21.6941 H   0  0  0  0  0  0
  -26.0187  -38.2871   24.1389 H   0  0  0  0  0  0
  -28.8930  -18.0151   21.5146 H   0  0  0  0  0  0
  -30.9877  -18.2932   17.0248 H   0  0  0  0  0  0
  -29.1381  -24.3021   21.5550 H   0  0  0  0  0  0
  -27.4279  -24.6314   21.5145 H   0  0  0  0  0  0
  -27.8097  -25.0346   18.8801 H   0  0  0  0  0  0
  -29.4624  -25.1032   19.3236 H   0  0  0  0  0  0
  -27.7760  -20.3673   20.6952 H   0  0  0  0  0  0
  -28.9837  -15.4333   21.1161 H   0  0  0  0  0  0
  1 25  1  0  0  0
  1 30  2  0  0  0
  1 82  1  0  0  0
  2  3  1  0  0  0
  2 25  1  0  0  0
  2 87  1  0  0  0
  2 88  1  0  0  0
  3  4  1  0  0  0
  3 89  1  0  0  0
  3 90  1  0  0  0
  4  5  1  0  0  0
  4 91  1  0  0  0
  4 92  1  0  0  0
  5  6  1  0  0  0
  5 26  1  0  0  0
  5 93  1  0  0  0
  6 25  1  0  0  0
  6 94  1  0  0  0
  6 95  1  0  0  0
  7  8  2  0  0  0
  7 26  1  0  0  0
  7 29  1  0  0  0
  8  9  1  0  0  0
  8 22  1  0  0  0
  9 10  1  0  0  0
  9 27  2  0  0  0
 10 11  2  0  0  0
 10 15  1  0  0  0
 11 12  1  0  0  0
 11 96  1  0  0  0
 12 13  2  0  0  0
 12 97  1  0  0  0
 13 14  1  0  0  0
 13 31  1  0  0  0
 14 15  2  0  0  0
 14 98  1  0  0  0
 15 99  1  0  0  0
 16 17  2  0  0  0
 16 21  1  0  0  0
 16 31  1  0  0  0
 17 18  1  0  0  0
 17100  1  0  0  0
 18 19  2  0  0  0
 18101  1  0  0  0
 19 20  1  0  0  0
 19 24  1  0  0  0
 20 21  2  0  0  0
 20102  1  0  0  0
 21 23  1  0  0  0
 22 28  1  0  0  0
 22 32  2  0  0  0
 26 27  1  0  0  0
 28103  1  0  0  0
 28104  1  0  0  0
 29105  1  0  0  0
 29106  1  0  0  0
 33 34  1  0  0  0
 33 66  1  0  0  0
 33 70  2  0  0  0
 34 36  1  0  0  0
 34 59  1  0  0  0
 34107  1  0  0  0
 35 44  2  0  0  0
 35 45  1  0  0  0
 35 68  1  0  0  0
 36 56  1  0  0  0
 36108  1  0  0  0
 37 39  1  0  0  0
 37 47  1  0  0  0
 37 66  1  0  0  0
 37109  1  0  0  0
 38 43  2  0  0  0
 38 46  1  0  0  0
 38 47  1  0  0  0
 39 64  1  0  0  0
 39 67  2  0  0  0
 40 52  1  0  0  0
 40 53  2  0  0  0
 40 58  1  0  0  0
 41110  1  0  0  0
 41111  1  0  0  0
 41112  1  0  0  0
 41 48  1  0  0  0
 42 43  1  0  0  0
 42 66  1  0  0  0
 42113  1  0  0  0
 42114  1  0  0  0
 43 44  1  0  0  0
 44115  1  0  0  0
 45 46  2  0  0  0
 45116  1  0  0  0
 46117  1  0  0  0
 47118  1  0  0  0
 47119  1  0  0  0
 48 56  1  0  0  0
 48 65  1  0  0  0
 48120  1  0  0  0
 49 50  1  0  0  0
 49 53  1  0  0  0
 49 64  1  0  0  0
 49121  1  0  0  0
 50 51  1  0  0  0
 50122  1  0  0  0
 50123  1  0  0  0
 51 52  1  0  0  0
 51124  1  0  0  0
 51125  1  0  0  0
 52126  1  0  0  0
 52127  1  0  0  0
 53 54  1  0  0  0
 54 55  2  0  0  0
 54128  1  0  0  0
 55 57  1  0  0  0
 55129  1  0  0  0
 56 69  2  0  0  0
 57 58  2  0  0  0
 57130  1  0  0  0
 58131  1  0  0  0
 59 60  1  0  0  0
 59 61  1  0  0  0
 59 62  1  0  0  0
 60132  1  0  0  0
 60133  1  0  0  0
 60134  1  0  0  0
 61135  1  0  0  0
 61136  1  0  0  0
 61137  1  0  0  0
 62138  1  0  0  0
 62139  1  0  0  0
 62140  1  0  0  0
 63 65  1  0  0  0
 63141  1  0  0  0
 63142  1  0  0  0
 63143  1  0  0  0
 64144  1  0  0  0
 65145  1  0  0  0
 68 80  1  0  0  0
 71 73  2  0  0  0
 71 74  1  0  0  0
 71146  1  0  0  0
 72 75  2  0  0  0
 72 76  1  0  0  0
 72147  1  0  0  0
 73 75  1  0  0  0
 73 81  1  0  0  0
 74 76  2  0  0  0
 74 82  1  0  0  0
 75 85  1  0  0  0
 76 86  1  0  0  0
 77 78  1  0  0  0
 77 79  1  0  0  0
 77 83  2  0  0  0
 78 81  1  0  0  0
 78 84  2  0  0  0
 79 80  1  0  0  0
 79148  1  0  0  0
 79149  1  0  0  0
 80150  1  0  0  0
 80151  1  0  0  0
 81152  1  0  0  0
 82153  1  0  0  0
M  ISO  4   1 100  68 101  80 101  82 100
M  END
> <chiral flag>
0

> <version>
0

> <s_m_source_file>
/data/baiqing/PycharmProjects/Reinvent-master-3.2/result/LINK_invent/BTK/process_docking_weight1_custom_product_contain_oxygen_bond_distance_aromatic_linkinvent_7_9_3/rearranged_h_0175.sdf

> <i_m_source_file_index>
83

> <r_mmod_Potential_Energy-OPLS-2005>
-77.7408981323242

> <r_mmod_Stretch_Energy-OPLS-2005>
50.2679824829102

> <r_mmod_Bend_Energy-OPLS-2005>
111.250816345215

> <r_mmod_Torsional_Energy-OPLS-2005>
263.570770263672

> <r_mmod_Improper_Torsional_Energy-OPLS-2005>
6.91260242462158

> <r_mmod_Van_der_Waal_Energy-OPLS-2005>
155.918548583984

> <r_mmod_Electrostatic_Energy-OPLS-2005>
-447.126342773438

> <r_mmod_Solvation_Energy-OPLS-2005>
-243.547943115234

> <b_mmod_Minimization_Converged-OPLS-2005>
0

> <r_mmod_RMS_Derivative-OPLS-2005>
0.439579457044601

$$$$
84
                    3D
 Structure written by MMmdl.
153161  0  0  1  0            999 V2000
  -30.5981  -14.5999   20.6172 C   0  0  0  0  0  0
  -30.4493  -12.3979   19.4420 C   0  0  0  0  0  0
  -29.5081  -12.5390   18.2219 C   0  0  0  0  0  0
  -28.0277  -12.3778   18.6224 C   0  0  0  0  0  0
  -27.6625  -13.2080   19.8813 C   0  0  2  0  0  0
  -28.7008  -12.9763   20.9988 C   0  0  0  0  0  0
  -25.2598  -13.8175   20.5766 C   0  0  0  0  0  0
  -24.1818  -13.0436   20.9146 C   0  0  0  0  0  0
  -24.6369  -11.6895   20.8668 C   0  0  0  0  0  0
  -23.9034  -10.4285   21.0389 C   0  0  0  0  0  0
  -24.3579   -9.4219   21.9195 C   0  0  0  0  0  0
  -23.6261   -8.2254   22.0787 C   0  0  0  0  0  0
  -22.4242   -8.0266   21.3583 C   0  0  0  0  0  0
  -21.9861   -9.0233   20.4689 C   0  0  0  0  0  0
  -22.7183  -10.2106   20.3071 C   0  0  0  0  0  0
  -21.6828   -6.0689   22.5256 C   0  0  0  0  0  0
  -21.3989   -6.5616   23.8170 C   0  0  0  0  0  0
  -21.3672   -5.6792   24.9159 C   0  0  0  0  0  0
  -21.6025   -4.3043   24.7211 C   0  0  0  0  0  0
  -21.8820   -3.8112   23.4344 C   0  0  0  0  0  0
  -21.9202   -4.6921   22.3378 C   0  0  0  0  0  0
  -22.7821  -13.5217   21.1846 C   0  0  0  0  0  0
  -22.1711   -4.2101   21.0964 F   0  0  0  0  0  0
  -21.5616   -3.4550   25.7745 F   0  0  0  0  0  0
  -30.0215  -13.3641   20.4718 N   0  0  0  0  0  0
  -26.3015  -12.9327   20.3368 N   0  0  0  0  0  0
  -25.9306  -11.6480   20.5709 N   0  0  0  0  0  0
  -22.0455  -12.8218   22.0430 N   0  0  0  0  0  0
  -25.4380  -15.1920   20.4432 N   0  0  0  0  0  0
  -31.6875  -14.8799   20.1057 O   0  0  0  0  0  0
  -21.6619   -6.8850   21.4227 O   0  0  0  0  0  0
  -22.3510  -14.5540   20.6724 O   0  0  0  0  0  0
  -24.6238  -31.8667   23.2060 C   0  0  0  0  0  0
  -25.9120  -32.4798   23.8371 C   0  0  1  0  0  0
  -27.2337  -27.3462   20.0916 C   0  0  0  0  0  0
  -25.5959  -33.8595   24.2325 N   0  0  0  0  0  0
  -23.4140  -30.4916   21.5473 C   0  0  2  0  0  0
  -24.8616  -28.9508   20.1149 C   0  0  0  0  0  0
  -22.7450  -29.4671   22.4929 C   0  0  0  0  0  0
  -18.0274  -28.1369   22.8466 C   0  0  0  0  0  0
  -24.1506  -36.7282   23.2627 C   0  0  0  0  0  0
  -25.9543  -30.7982   21.3782 C   0  0  0  0  0  0
  -26.0274  -29.4268   20.7237 C   0  0  0  0  0  0
  -27.2097  -28.6310   20.7192 C   0  0  0  0  0  0
  -26.0403  -26.9312   19.4485 C   0  0  0  0  0  0
  -24.8681  -27.7038   19.4762 C   0  0  0  0  0  0
  -23.6310  -29.8307   20.1613 C   0  0  0  0  0  0
  -25.4121  -36.3071   24.0329 C   0  0  1  0  0  0
  -20.5879  -28.3694   23.1259 C   0  0  2  0  0  0
  -20.6773  -26.9420   22.5390 C   0  0  0  0  0  0
  -19.5751  -26.6390   21.5184 C   0  0  0  0  0  0
  -18.1928  -26.7917   22.1595 C   0  0  0  0  0  0
  -19.1531  -28.8836   23.2868 C   0  0  0  0  0  0
  -18.9472  -30.1439   23.8889 C   0  0  0  0  0  0
  -17.6479  -30.6578   24.0552 C   0  0  0  0  0  0
  -25.9065  -34.9444   23.5122 C   0  0  0  0  0  0
  -16.5369  -29.9093   23.6307 C   0  0  0  0  0  0
  -16.7270  -28.6502   23.0349 C   0  0  0  0  0  0
  -26.4528  -31.6564   25.0704 C   0  0  0  0  0  0
  -25.3814  -31.3681   26.1472 C   0  0  0  0  0  0
  -27.0335  -30.2980   24.6108 C   0  0  0  0  0  0
  -27.6086  -32.4292   25.7476 C   0  0  0  0  0  0
  -27.5582  -37.1788   24.8461 C   0  0  0  0  0  0
  -21.4166  -29.3066   22.3677 N   0  0  0  0  0  0
  -26.4284  -37.3772   23.9412 N   0  0  0  0  0  0
  -24.6818  -31.0693   22.1003 N   0  0  0  0  0  0
  -23.4202  -28.8191   23.2974 O   0  0  0  0  0  0
  -28.3882  -26.5429   20.1168 O   0  0  0  0  0  0
  -26.5613  -34.8911   22.4678 O   0  0  0  0  0  0
  -23.5411  -32.1456   23.7397 O   0  0  0  0  0  0
  -28.9535  -19.6233   22.0104 C   0  0  0  0  0  0
  -28.5077  -18.5921   22.8535 C   0  0  0  0  0  0
  -29.7593  -19.3296   20.8881 C   0  0  0  0  0  0
  -29.6791  -16.8940   21.5020 C   0  0  0  0  0  0
  -28.8640  -17.2539   22.6049 C   0  0  0  0  0  0
  -30.1224  -17.9532   20.6388 C   0  0  0  0  0  0
  -28.3296  -25.1571   19.8701 C   0  0  0  0  0  0
  -29.2163  -24.2021   20.2831 C   0  0  0  0  0  0
  -29.0070  -22.7711   19.9210 C   0  0  0  0  0  0
  -30.1866  -20.4848   19.9375 C   0  0  0  0  0  0
  -29.8587  -15.4569   21.3725 N   0  0  0  0  0  0
  -29.9657  -21.9117   20.3517 N   0  0  0  0  0  0
  -28.0566  -22.3636   19.2501 O   0  0  0  0  0  0
  -30.2889  -24.5457   21.0133 O   0  0  0  0  0  0
  -28.3964  -16.2932   23.4411 F   0  0  0  0  0  0
  -30.8616  -17.6596   19.5433 F   0  0  0  0  0  0
  -31.4845  -12.5620   19.1400 H   0  0  0  0  0  0
  -30.4147  -11.3842   19.8453 H   0  0  0  0  0  0
  -29.7699  -11.8118   17.4497 H   0  0  0  0  0  0
  -29.6401  -13.5239   17.7722 H   0  0  0  0  0  0
  -27.8395  -11.3195   18.8096 H   0  0  0  0  0  0
  -27.3859  -12.6625   17.7884 H   0  0  0  0  0  0
  -27.7116  -14.2582   19.5910 H   0  0  0  0  0  0
  -28.7181  -11.9229   21.2811 H   0  0  0  0  0  0
  -28.4254  -13.5051   21.9127 H   0  0  0  0  0  0
  -25.2722   -9.5691   22.4775 H   0  0  0  0  0  0
  -24.0008   -7.4625   22.7463 H   0  0  0  0  0  0
  -21.0839   -8.8688   19.8975 H   0  0  0  0  0  0
  -22.3638  -10.9627   19.6161 H   0  0  0  0  0  0
  -21.1974   -7.6115   23.9652 H   0  0  0  0  0  0
  -21.1550   -6.0561   25.9064 H   0  0  0  0  0  0
  -22.0631   -2.7574   23.2876 H   0  0  0  0  0  0
  -22.4024  -11.9841   22.4801 H   0  0  0  0  0  0
  -21.1081  -13.1250   22.2693 H   0  0  0  0  0  0
  -24.6925  -15.8528   20.6346 H   0  0  0  0  0  0
  -26.3102  -15.6399   20.1949 H   0  0  0  0  0  0
  -26.7167  -32.5493   23.1092 H   0  0  0  0  0  0
  -25.0140  -33.9783   25.0492 H   0  0  0  0  0  0
  -22.7036  -31.3084   21.4049 H   0  0  0  0  0  0
  -23.3767  -35.9614   23.3274 H   0  0  0  0  0  0
  -24.3588  -36.8928   22.2040 H   0  0  0  0  0  0
  -23.7280  -37.6486   23.6666 H   0  0  0  0  0  0
  -26.0905  -31.5602   20.6085 H   0  0  0  0  0  0
  -26.8339  -30.8426   22.0082 H   0  0  0  0  0  0
  -28.1027  -28.9946   21.2069 H   0  0  0  0  0  0
  -25.9580  -26.0093   18.8952 H   0  0  0  0  0  0
  -23.9785  -27.3369   18.9841 H   0  0  0  0  0  0
  -23.7542  -30.6095   19.4064 H   0  0  0  0  0  0
  -22.7463  -29.2686   19.8552 H   0  0  0  0  0  0
  -25.1294  -36.1887   25.0815 H   0  0  0  0  0  0
  -20.9978  -28.3282   24.1377 H   0  0  0  0  0  0
  -20.5626  -26.2332   23.3613 H   0  0  0  0  0  0
  -21.6660  -26.7430   22.1228 H   0  0  0  0  0  0
  -19.6941  -25.6306   21.1225 H   0  0  0  0  0  0
  -19.6678  -27.3180   20.6702 H   0  0  0  0  0  0
  -17.4205  -26.6637   21.4003 H   0  0  0  0  0  0
  -18.0335  -26.0061   22.8992 H   0  0  0  0  0  0
  -19.7964  -30.7227   24.2280 H   0  0  0  0  0  0
  -17.5056  -31.6250   24.5169 H   0  0  0  0  0  0
  -15.5375  -30.3004   23.7629 H   0  0  0  0  0  0
  -15.8668  -28.0821   22.7083 H   0  0  0  0  0  0
  -24.5972  -30.7027   25.7847 H   0  0  0  0  0  0
  -24.9035  -32.2843   26.4942 H   0  0  0  0  0  0
  -25.8217  -30.8854   27.0208 H   0  0  0  0  0  0
  -26.2865  -29.6736   24.1195 H   0  0  0  0  0  0
  -27.4105  -29.7199   25.4550 H   0  0  0  0  0  0
  -27.8713  -30.4232   23.9246 H   0  0  0  0  0  0
  -27.2687  -33.3570   26.2077 H   0  0  0  0  0  0
  -28.3889  -32.6905   25.0320 H   0  0  0  0  0  0
  -28.0767  -31.8420   26.5384 H   0  0  0  0  0  0
  -28.2578  -38.0111   24.7521 H   0  0  0  0  0  0
  -28.1102  -36.2630   24.6243 H   0  0  0  0  0  0
  -27.2305  -37.1395   25.8872 H   0  0  0  0  0  0
  -20.9334  -29.8826   21.6927 H   0  0  0  0  0  0
  -26.0149  -38.2834   24.1439 H   0  0  0  0  0  0
  -28.6459  -20.6375   22.2314 H   0  0  0  0  0  0
  -27.8742  -18.8177   23.7009 H   0  0  0  0  0  0
  -27.4942  -24.8545   19.2643 H   0  0  0  0  0  0
  -29.7200  -20.3125   18.9658 H   0  0  0  0  0  0
  -31.2575  -20.3745   19.7538 H   0  0  0  0  0  0
  -29.1503  -14.9576   21.8879 H   0  0  0  0  0  0
  -30.7128  -22.3510   20.8756 H   0  0  0  0  0  0
  -30.2535  -25.4865   21.1335 H   0  0  0  0  0  0
  1 25  1  0  0  0
  1 30  2  0  0  0
  1 81  1  0  0  0
  2  3  1  0  0  0
  2 25  1  0  0  0
  2 87  1  0  0  0
  2 88  1  0  0  0
  3  4  1  0  0  0
  3 89  1  0  0  0
  3 90  1  0  0  0
  4  5  1  0  0  0
  4 91  1  0  0  0
  4 92  1  0  0  0
  5  6  1  0  0  0
  5 26  1  0  0  0
  5 93  1  0  0  0
  6 25  1  0  0  0
  6 94  1  0  0  0
  6 95  1  0  0  0
  7  8  2  0  0  0
  7 26  1  0  0  0
  7 29  1  0  0  0
  8  9  1  0  0  0
  8 22  1  0  0  0
  9 10  1  0  0  0
  9 27  2  0  0  0
 10 11  2  0  0  0
 10 15  1  0  0  0
 11 12  1  0  0  0
 11 96  1  0  0  0
 12 13  2  0  0  0
 12 97  1  0  0  0
 13 14  1  0  0  0
 13 31  1  0  0  0
 14 15  2  0  0  0
 14 98  1  0  0  0
 15 99  1  0  0  0
 16 17  2  0  0  0
 16 21  1  0  0  0
 16 31  1  0  0  0
 17 18  1  0  0  0
 17100  1  0  0  0
 18 19  2  0  0  0
 18101  1  0  0  0
 19 20  1  0  0  0
 19 24  1  0  0  0
 20 21  2  0  0  0
 20102  1  0  0  0
 21 23  1  0  0  0
 22 28  1  0  0  0
 22 32  2  0  0  0
 26 27  1  0  0  0
 28103  1  0  0  0
 28104  1  0  0  0
 29105  1  0  0  0
 29106  1  0  0  0
 33 34  1  0  0  0
 33 66  1  0  0  0
 33 70  2  0  0  0
 34 36  1  0  0  0
 34 59  1  0  0  0
 34107  1  0  0  0
 35 44  2  0  0  0
 35 45  1  0  0  0
 35 68  1  0  0  0
 36 56  1  0  0  0
 36108  1  0  0  0
 37 39  1  0  0  0
 37 47  1  0  0  0
 37 66  1  0  0  0
 37109  1  0  0  0
 38 43  2  0  0  0
 38 46  1  0  0  0
 38 47  1  0  0  0
 39 64  1  0  0  0
 39 67  2  0  0  0
 40 52  1  0  0  0
 40 53  2  0  0  0
 40 58  1  0  0  0
 41110  1  0  0  0
 41111  1  0  0  0
 41112  1  0  0  0
 41 48  1  0  0  0
 42 43  1  0  0  0
 42 66  1  0  0  0
 42113  1  0  0  0
 42114  1  0  0  0
 43 44  1  0  0  0
 44115  1  0  0  0
 45 46  2  0  0  0
 45116  1  0  0  0
 46117  1  0  0  0
 47118  1  0  0  0
 47119  1  0  0  0
 48 56  1  0  0  0
 48 65  1  0  0  0
 48120  1  0  0  0
 49 50  1  0  0  0
 49 53  1  0  0  0
 49 64  1  0  0  0
 49121  1  0  0  0
 50 51  1  0  0  0
 50122  1  0  0  0
 50123  1  0  0  0
 51 52  1  0  0  0
 51124  1  0  0  0
 51125  1  0  0  0
 52126  1  0  0  0
 52127  1  0  0  0
 53 54  1  0  0  0
 54 55  2  0  0  0
 54128  1  0  0  0
 55 57  1  0  0  0
 55129  1  0  0  0
 56 69  2  0  0  0
 57 58  2  0  0  0
 57130  1  0  0  0
 58131  1  0  0  0
 59 60  1  0  0  0
 59 61  1  0  0  0
 59 62  1  0  0  0
 60132  1  0  0  0
 60133  1  0  0  0
 60134  1  0  0  0
 61135  1  0  0  0
 61136  1  0  0  0
 61137  1  0  0  0
 62138  1  0  0  0
 62139  1  0  0  0
 62140  1  0  0  0
 63 65  1  0  0  0
 63141  1  0  0  0
 63142  1  0  0  0
 63143  1  0  0  0
 64144  1  0  0  0
 65145  1  0  0  0
 68 77  1  0  0  0
 71 72  2  0  0  0
 71 73  1  0  0  0
 71146  1  0  0  0
 72 75  1  0  0  0
 72147  1  0  0  0
 73 76  2  0  0  0
 73 80  1  0  0  0
 74 75  2  0  0  0
 74 76  1  0  0  0
 74 81  1  0  0  0
 75 85  1  0  0  0
 76 86  1  0  0  0
 77 78  2  0  0  0
 77148  1  0  0  0
 78 79  1  0  0  0
 78 84  1  0  0  0
 79 82  1  0  0  0
 79 83  2  0  0  0
 80 82  1  0  0  0
 80149  1  0  0  0
 80150  1  0  0  0
 81151  1  0  0  0
 82152  1  0  0  0
 84153  1  0  0  0
M  ISO  4   1 100  68 101  77 101  81 100
M  END
> <chiral flag>
0

> <version>
0

> <s_m_source_file>
/data/baiqing/PycharmProjects/Reinvent-master-3.2/result/LINK_invent/BTK/process_docking_weight1_custom_product_contain_oxygen_bond_distance_aromatic_linkinvent_7_9_3/rearranged_h_0175.sdf

> <i_m_source_file_index>
84

> <r_mmod_Potential_Energy-OPLS-2005>
-148.328414916992

> <r_mmod_Stretch_Energy-OPLS-2005>
68.4858322143555

> <r_mmod_Bend_Energy-OPLS-2005>
149.651748657227

> <r_mmod_Torsional_Energy-OPLS-2005>
191.571319580078

> <r_mmod_Improper_Torsional_Energy-OPLS-2005>
3.10739231109619

> <r_mmod_Van_der_Waal_Energy-OPLS-2005>
155.559844970703

> <r_mmod_Electrostatic_Energy-OPLS-2005>
-528.62841796875

> <r_mmod_Solvation_Energy-OPLS-2005>
-226.158218383789

> <b_mmod_Minimization_Converged-OPLS-2005>
0

> <r_mmod_RMS_Derivative-OPLS-2005>
4.73973655700684

$$$$
85
                    3D
 Structure written by MMmdl.
152160  0  0  1  0            999 V2000
  -30.6859  -14.5073   20.5018 C   0  0  0  0  0  0
  -30.4188  -12.3057   19.4449 C   0  0  0  0  0  0
  -29.5004  -12.4912   18.2179 C   0  0  0  0  0  0
  -28.0193  -12.3592   18.6238 C   0  0  0  0  0  0
  -27.6577  -13.2133   19.8687 C   0  0  2  0  0  0
  -28.6988  -13.0310   20.9981 C   0  0  0  0  0  0
  -25.2575  -13.8178   20.5678 C   0  0  0  0  0  0
  -24.1835  -13.0447   20.9180 C   0  0  0  0  0  0
  -24.6395  -11.6915   20.8734 C   0  0  0  0  0  0
  -23.9062  -10.4299   21.0398 C   0  0  0  0  0  0
  -24.3618   -9.4215   21.9177 C   0  0  0  0  0  0
  -23.6296   -8.2249   22.0750 C   0  0  0  0  0  0
  -22.4276   -8.0285   21.3543 C   0  0  0  0  0  0
  -21.9910   -9.0258   20.4644 C   0  0  0  0  0  0
  -22.7236  -10.2137   20.3051 C   0  0  0  0  0  0
  -21.6856   -6.0735   22.5278 C   0  0  0  0  0  0
  -21.4016   -6.5639   23.8210 C   0  0  0  0  0  0
  -21.3660   -5.6789   24.9174 C   0  0  0  0  0  0
  -21.6046   -4.3052   24.7224 C   0  0  0  0  0  0
  -21.8819   -3.8146   23.4344 C   0  0  0  0  0  0
  -21.9195   -4.6964   22.3401 C   0  0  0  0  0  0
  -22.7855  -13.5239   21.1838 C   0  0  0  0  0  0
  -22.1661   -4.2149   21.0981 F   0  0  0  0  0  0
  -21.5631   -3.4534   25.7738 F   0  0  0  0  0  0
  -30.0305  -13.3149   20.4439 N   0  0  0  0  0  0
  -26.3008  -12.9357   20.3337 N   0  0  0  0  0  0
  -25.9326  -11.6513   20.5765 N   0  0  0  0  0  0
  -22.0493  -12.8238   22.0401 N   0  0  0  0  0  0
  -25.4290  -15.1897   20.4077 N   0  0  0  0  0  0
  -31.8536  -14.6364   20.1214 O   0  0  0  0  0  0
  -21.6648   -6.8878   21.4238 O   0  0  0  0  0  0
  -22.3536  -14.5539   20.6674 O   0  0  0  0  0  0
  -24.6161  -31.8664   23.2090 C   0  0  0  0  0  0
  -25.9045  -32.4816   23.8393 C   0  0  1  0  0  0
  -27.2302  -27.4208   20.1098 C   0  0  0  0  0  0
  -25.5891  -33.8615   24.2321 N   0  0  0  0  0  0
  -23.4055  -30.4899   21.5485 C   0  0  2  0  0  0
  -24.8537  -28.9553   20.1128 C   0  0  0  0  0  0
  -22.7424  -29.4649   22.4970 C   0  0  0  0  0  0
  -18.0269  -28.1382   22.8486 C   0  0  0  0  0  0
  -24.1484  -36.7324   23.2639 C   0  0  0  0  0  0
  -25.9356  -30.8300   21.3634 C   0  0  0  0  0  0
  -26.0148  -29.4637   20.7101 C   0  0  0  0  0  0
  -27.2101  -28.7058   20.7017 C   0  0  0  0  0  0
  -26.0564  -26.9321   19.4979 C   0  0  0  0  0  0
  -24.8705  -27.6897   19.5005 C   0  0  0  0  0  0
  -23.6159  -29.8234   20.1626 C   0  0  0  0  0  0
  -25.4104  -36.3112   24.0337 C   0  0  1  0  0  0
  -20.5863  -28.3670   23.1309 C   0  0  2  0  0  0
  -20.6760  -26.9403   22.5417 C   0  0  0  0  0  0
  -19.5737  -26.6386   21.5212 C   0  0  0  0  0  0
  -18.1917  -26.7926   22.1624 C   0  0  0  0  0  0
  -19.1520  -28.8842   23.2895 C   0  0  0  0  0  0
  -18.9450  -30.1450   23.8904 C   0  0  0  0  0  0
  -17.6452  -30.6585   24.0571 C   0  0  0  0  0  0
  -25.9032  -34.9474   23.5128 C   0  0  0  0  0  0
  -16.5342  -29.9090   23.6325 C   0  0  0  0  0  0
  -16.7260  -28.6511   23.0337 C   0  0  0  0  0  0
  -26.4465  -31.6597   25.0728 C   0  0  0  0  0  0
  -25.3732  -31.3708   26.1481 C   0  0  0  0  0  0
  -27.0295  -30.3035   24.6111 C   0  0  0  0  0  0
  -27.6039  -32.4315   25.7490 C   0  0  0  0  0  0
  -27.5579  -37.1816   24.8462 C   0  0  0  0  0  0
  -21.4148  -29.3039   22.3721 N   0  0  0  0  0  0
  -26.4292  -37.3798   23.9406 N   0  0  0  0  0  0
  -24.6706  -31.0762   22.0989 N   0  0  0  0  0  0
  -23.4194  -28.8188   23.3013 O   0  0  0  0  0  0
  -28.3629  -26.6357   20.1312 O   0  0  0  0  0  0
  -26.5604  -34.8927   22.4695 O   0  0  0  0  0  0
  -23.5351  -32.1412   23.7481 O   0  0  0  0  0  0
  -29.8455  -19.1821   18.5863 C   0  0  0  0  0  0
  -30.1264  -16.7904   18.6782 C   0  0  0  0  0  0
  -30.0947  -17.9727   17.9333 C   0  0  0  0  0  0
  -29.6043  -19.1924   19.9752 C   0  0  0  0  0  0
  -29.9260  -16.8314   20.0752 C   0  0  0  0  0  0
  -28.9008  -24.1905   20.2521 C   0  0  0  0  0  0
  -28.7844  -21.5724   20.1463 C   0  0  0  0  0  0
  -28.1969  -25.4117   20.8874 C   0  0  0  0  0  0
  -28.8217  -22.8456   21.0414 C   0  0  0  0  0  0
  -29.6557  -18.0248   20.6871 N   0  0  0  0  0  0
  -29.3827  -20.4499   20.6263 N   0  0  0  0  0  0
  -29.9275  -15.5895   20.7978 N   0  0  0  0  0  0
  -29.5588  -24.3159   19.2095 O   0  0  0  0  0  0
  -28.1422  -21.5809   19.0883 O   0  0  0  0  0  0
  -30.3036  -17.9458   16.5948 F   0  0  0  0  0  0
  -29.8724  -22.7641   21.8629 F   0  0  0  0  0  0
  -27.7163  -22.8339   21.7896 F   0  0  0  0  0  0
  -31.4665  -12.3872   19.1488 H   0  0  0  0  0  0
  -30.3053  -11.3038   19.8613 H   0  0  0  0  0  0
  -29.7427  -11.7554   17.4498 H   0  0  0  0  0  0
  -29.6744  -13.4695   17.7680 H   0  0  0  0  0  0
  -27.8270  -11.3055   18.8284 H   0  0  0  0  0  0
  -27.3744  -12.6259   17.7860 H   0  0  0  0  0  0
  -27.6886  -14.2551   19.5488 H   0  0  0  0  0  0
  -28.6721  -12.0098   21.3806 H   0  0  0  0  0  0
  -28.4686  -13.6731   21.8497 H   0  0  0  0  0  0
  -25.2766   -9.5695   22.4750 H   0  0  0  0  0  0
  -24.0008   -7.4644   22.7470 H   0  0  0  0  0  0
  -21.0841   -8.8773   19.8953 H   0  0  0  0  0  0
  -22.3691  -10.9675   19.6162 H   0  0  0  0  0  0
  -21.2007   -7.6146   23.9715 H   0  0  0  0  0  0
  -21.1481   -6.0521   25.9076 H   0  0  0  0  0  0
  -22.0598   -2.7609   23.2847 H   0  0  0  0  0  0
  -22.4101  -11.9909   22.4810 H   0  0  0  0  0  0
  -21.1106  -13.1262   22.2580 H   0  0  0  0  0  0
  -24.6616  -15.8445   20.5132 H   0  0  0  0  0  0
  -26.2783  -15.6289   20.0766 H   0  0  0  0  0  0
  -26.7124  -32.5526   23.1165 H   0  0  0  0  0  0
  -25.0021  -33.9774   25.0451 H   0  0  0  0  0  0
  -22.6946  -31.3067   21.4089 H   0  0  0  0  0  0
  -23.3736  -35.9669   23.3312 H   0  0  0  0  0  0
  -24.3578  -36.8931   22.2052 H   0  0  0  0  0  0
  -23.7249  -37.6537   23.6647 H   0  0  0  0  0  0
  -26.0486  -31.5956   20.5946 H   0  0  0  0  0  0
  -26.8233  -30.8844   21.9820 H   0  0  0  0  0  0
  -28.1055  -29.0914   21.1692 H   0  0  0  0  0  0
  -26.0560  -25.9592   19.0259 H   0  0  0  0  0  0
  -23.9798  -27.2931   19.0332 H   0  0  0  0  0  0
  -23.7280  -30.5993   19.4045 H   0  0  0  0  0  0
  -22.7393  -29.2452   19.8644 H   0  0  0  0  0  0
  -25.1280  -36.1978   25.0831 H   0  0  0  0  0  0
  -20.9952  -28.3236   24.1432 H   0  0  0  0  0  0
  -20.5654  -26.2280   23.3607 H   0  0  0  0  0  0
  -21.6631  -26.7440   22.1213 H   0  0  0  0  0  0
  -19.6900  -25.6301   21.1232 H   0  0  0  0  0  0
  -19.6677  -27.3205   20.6749 H   0  0  0  0  0  0
  -17.4187  -26.6669   21.4029 H   0  0  0  0  0  0
  -18.0321  -26.0069   22.9022 H   0  0  0  0  0  0
  -19.7929  -30.7265   24.2271 H   0  0  0  0  0  0
  -17.5008  -31.6262   24.5176 H   0  0  0  0  0  0
  -15.5344  -30.2999   23.7643 H   0  0  0  0  0  0
  -15.8659  -28.0847   22.7028 H   0  0  0  0  0  0
  -24.5892  -30.7067   25.7820 H   0  0  0  0  0  0
  -24.8941  -32.2869   26.4947 H   0  0  0  0  0  0
  -25.8087  -30.8861   27.0228 H   0  0  0  0  0  0
  -26.2849  -29.6803   24.1145 H   0  0  0  0  0  0
  -27.4035  -29.7262   25.4577 H   0  0  0  0  0  0
  -27.8695  -30.4346   23.9286 H   0  0  0  0  0  0
  -27.2652  -33.3594   26.2108 H   0  0  0  0  0  0
  -28.3830  -32.6907   25.0310 H   0  0  0  0  0  0
  -28.0729  -31.8417   26.5374 H   0  0  0  0  0  0
  -28.2603  -38.0107   24.7505 H   0  0  0  0  0  0
  -28.1069  -36.2640   24.6289 H   0  0  0  0  0  0
  -27.2303  -37.1474   25.8867 H   0  0  0  0  0  0
  -20.9306  -29.8781   21.6963 H   0  0  0  0  0  0
  -26.0181  -38.2878   24.1402 H   0  0  0  0  0  0
  -29.8450  -20.0889   18.0001 H   0  0  0  0  0  0
  -30.3128  -15.8652   18.1535 H   0  0  0  0  0  0
  -28.6047  -25.5632   21.8868 H   0  0  0  0  0  0
  -27.1442  -25.1613   21.0190 H   0  0  0  0  0  0
  -29.7183  -20.5172   21.5763 H   0  0  0  0  0  0
  -29.1009  -15.4093   21.3444 H   0  0  0  0  0  0
  1 25  1  0  0  0
  1 30  2  0  0  0
  1 82  1  0  0  0
  2  3  1  0  0  0
  2 25  1  0  0  0
  2 88  1  0  0  0
  2 89  1  0  0  0
  3  4  1  0  0  0
  3 90  1  0  0  0
  3 91  1  0  0  0
  4  5  1  0  0  0
  4 92  1  0  0  0
  4 93  1  0  0  0
  5  6  1  0  0  0
  5 26  1  0  0  0
  5 94  1  0  0  0
  6 25  1  0  0  0
  6 95  1  0  0  0
  6 96  1  0  0  0
  7  8  2  0  0  0
  7 26  1  0  0  0
  7 29  1  0  0  0
  8  9  1  0  0  0
  8 22  1  0  0  0
  9 10  1  0  0  0
  9 27  2  0  0  0
 10 11  2  0  0  0
 10 15  1  0  0  0
 11 12  1  0  0  0
 11 97  1  0  0  0
 12 13  2  0  0  0
 12 98  1  0  0  0
 13 14  1  0  0  0
 13 31  1  0  0  0
 14 15  2  0  0  0
 14 99  1  0  0  0
 15100  1  0  0  0
 16 17  2  0  0  0
 16 21  1  0  0  0
 16 31  1  0  0  0
 17 18  1  0  0  0
 17101  1  0  0  0
 18 19  2  0  0  0
 18102  1  0  0  0
 19 20  1  0  0  0
 19 24  1  0  0  0
 20 21  2  0  0  0
 20103  1  0  0  0
 21 23  1  0  0  0
 22 28  1  0  0  0
 22 32  2  0  0  0
 26 27  1  0  0  0
 28104  1  0  0  0
 28105  1  0  0  0
 29106  1  0  0  0
 29107  1  0  0  0
 33 34  1  0  0  0
 33 66  1  0  0  0
 33 70  2  0  0  0
 34 36  1  0  0  0
 34 59  1  0  0  0
 34108  1  0  0  0
 35 44  2  0  0  0
 35 45  1  0  0  0
 35 68  1  0  0  0
 36 56  1  0  0  0
 36109  1  0  0  0
 37 39  1  0  0  0
 37 47  1  0  0  0
 37 66  1  0  0  0
 37110  1  0  0  0
 38 43  2  0  0  0
 38 46  1  0  0  0
 38 47  1  0  0  0
 39 64  1  0  0  0
 39 67  2  0  0  0
 40 52  1  0  0  0
 40 53  2  0  0  0
 40 58  1  0  0  0
 41111  1  0  0  0
 41112  1  0  0  0
 41113  1  0  0  0
 41 48  1  0  0  0
 42 43  1  0  0  0
 42 66  1  0  0  0
 42114  1  0  0  0
 42115  1  0  0  0
 43 44  1  0  0  0
 44116  1  0  0  0
 45 46  2  0  0  0
 45117  1  0  0  0
 46118  1  0  0  0
 47119  1  0  0  0
 47120  1  0  0  0
 48 56  1  0  0  0
 48 65  1  0  0  0
 48121  1  0  0  0
 49 50  1  0  0  0
 49 53  1  0  0  0
 49 64  1  0  0  0
 49122  1  0  0  0
 50 51  1  0  0  0
 50123  1  0  0  0
 50124  1  0  0  0
 51 52  1  0  0  0
 51125  1  0  0  0
 51126  1  0  0  0
 52127  1  0  0  0
 52128  1  0  0  0
 53 54  1  0  0  0
 54 55  2  0  0  0
 54129  1  0  0  0
 55 57  1  0  0  0
 55130  1  0  0  0
 56 69  2  0  0  0
 57 58  2  0  0  0
 57131  1  0  0  0
 58132  1  0  0  0
 59 60  1  0  0  0
 59 61  1  0  0  0
 59 62  1  0  0  0
 60133  1  0  0  0
 60134  1  0  0  0
 60135  1  0  0  0
 61136  1  0  0  0
 61137  1  0  0  0
 61138  1  0  0  0
 62139  1  0  0  0
 62140  1  0  0  0
 62141  1  0  0  0
 63 65  1  0  0  0
 63142  1  0  0  0
 63143  1  0  0  0
 63144  1  0  0  0
 64145  1  0  0  0
 65146  1  0  0  0
 68 78  1  0  0  0
 71 73  2  0  0  0
 71 74  1  0  0  0
 71147  1  0  0  0
 72 73  1  0  0  0
 72 75  2  0  0  0
 72148  1  0  0  0
 73 85  1  0  0  0
 74 80  2  0  0  0
 74 81  1  0  0  0
 75 80  1  0  0  0
 75 82  1  0  0  0
 76 78  1  0  0  0
 76 79  1  0  0  0
 76 83  2  0  0  0
 77 79  1  0  0  0
 77 81  1  0  0  0
 77 84  2  0  0  0
 78149  1  0  0  0
 78150  1  0  0  0
 79 86  1  0  0  0
 79 87  1  0  0  0
 81151  1  0  0  0
 82152  1  0  0  0
M  ISO  4   1 100  68 101  78 101  82 100
M  END
> <chiral flag>
0

> <version>
0

> <s_m_source_file>
/data/baiqing/PycharmProjects/Reinvent-master-3.2/result/LINK_invent/BTK/process_docking_weight1_custom_product_contain_oxygen_bond_distance_aromatic_linkinvent_7_9_3/rearranged_h_0175.sdf

> <i_m_source_file_index>
85

> <r_mmod_Potential_Energy-OPLS-2005>
-130.460113525391

> <r_mmod_Stretch_Energy-OPLS-2005>
45.7039337158203

> <r_mmod_Bend_Energy-OPLS-2005>
99.6274795532227

> <r_mmod_Torsional_Energy-OPLS-2005>
294.318359375

> <r_mmod_Improper_Torsional_Energy-OPLS-2005>
7.58517742156982

> <r_mmod_Van_der_Waal_Energy-OPLS-2005>
159.752243041992

> <r_mmod_Electrostatic_Energy-OPLS-2005>
-514.324096679688

> <r_mmod_Solvation_Energy-OPLS-2005>
-242.536819458008

> <b_mmod_Minimization_Converged-OPLS-2005>
0

> <r_mmod_RMS_Derivative-OPLS-2005>
0.777321875095367

$$$$
86
                    3D
 Structure written by MMmdl.
151159  0  0  1  0            999 V2000
  -30.6936  -14.4797   20.5820 C   0  0  0  0  0  0
  -30.4281  -12.3145   19.4210 C   0  0  0  0  0  0
  -29.4960  -12.5076   18.2064 C   0  0  0  0  0  0
  -28.0175  -12.3630   18.6192 C   0  0  0  0  0  0
  -27.6624  -13.2035   19.8746 C   0  0  2  0  0  0
  -28.7039  -12.9806   20.9948 C   0  0  0  0  0  0
  -25.2593  -13.8153   20.5667 C   0  0  0  0  0  0
  -24.1843  -13.0437   20.9175 C   0  0  0  0  0  0
  -24.6391  -11.6902   20.8732 C   0  0  0  0  0  0
  -23.9056  -10.4291   21.0402 C   0  0  0  0  0  0
  -24.3611   -9.4207   21.9180 C   0  0  0  0  0  0
  -23.6289   -8.2242   22.0752 C   0  0  0  0  0  0
  -22.4270   -8.0279   21.3544 C   0  0  0  0  0  0
  -21.9901   -9.0251   20.4647 C   0  0  0  0  0  0
  -22.7226  -10.2132   20.3054 C   0  0  0  0  0  0
  -21.6852   -6.0734   22.5278 C   0  0  0  0  0  0
  -21.4013   -6.5638   23.8212 C   0  0  0  0  0  0
  -21.3660   -5.6790   24.9174 C   0  0  0  0  0  0
  -21.6045   -4.3054   24.7224 C   0  0  0  0  0  0
  -21.8819   -3.8145   23.4346 C   0  0  0  0  0  0
  -21.9191   -4.6961   22.3401 C   0  0  0  0  0  0
  -22.7866  -13.5240   21.1841 C   0  0  0  0  0  0
  -22.1661   -4.2146   21.0979 F   0  0  0  0  0  0
  -21.5630   -3.4540   25.7739 F   0  0  0  0  0  0
  -30.0358  -13.2940   20.4467 N   0  0  0  0  0  0
  -26.3025  -12.9315   20.3353 N   0  0  0  0  0  0
  -25.9317  -11.6479   20.5760 N   0  0  0  0  0  0
  -22.0507  -12.8240   22.0403 N   0  0  0  0  0  0
  -25.4320  -15.1871   20.4065 N   0  0  0  0  0  0
  -31.8162  -14.6767   20.1048 O   0  0  0  0  0  0
  -21.6635   -6.8875   21.4239 O   0  0  0  0  0  0
  -22.3556  -14.5546   20.6687 O   0  0  0  0  0  0
  -24.6168  -31.8676   23.2105 C   0  0  0  0  0  0
  -25.9057  -32.4822   23.8398 C   0  0  1  0  0  0
  -27.2297  -27.4154   20.0905 C   0  0  0  0  0  0
  -25.5909  -33.8620   24.2328 N   0  0  0  0  0  0
  -23.4046  -30.4937   21.5521 C   0  0  2  0  0  0
  -24.8485  -28.9619   20.1141 C   0  0  0  0  0  0
  -22.7420  -29.4663   22.4984 C   0  0  0  0  0  0
  -18.0274  -28.1376   22.8493 C   0  0  0  0  0  0
  -24.1488  -36.7315   23.2638 C   0  0  0  0  0  0
  -25.9372  -30.8269   21.3674 C   0  0  0  0  0  0
  -26.0124  -29.4617   20.7110 C   0  0  0  0  0  0
  -27.2047  -28.6969   20.6957 C   0  0  0  0  0  0
  -26.0403  -26.9415   19.4830 C   0  0  0  0  0  0
  -24.8587  -27.7017   19.4979 C   0  0  0  0  0  0
  -23.6126  -29.8311   20.1655 C   0  0  0  0  0  0
  -25.4109  -36.3112   24.0337 C   0  0  1  0  0  0
  -20.5867  -28.3667   23.1311 C   0  0  2  0  0  0
  -20.6766  -26.9403   22.5412 C   0  0  0  0  0  0
  -19.5743  -26.6384   21.5211 C   0  0  0  0  0  0
  -18.1923  -26.7921   22.1625 C   0  0  0  0  0  0
  -19.1524  -28.8836   23.2899 C   0  0  0  0  0  0
  -18.9452  -30.1442   23.8910 C   0  0  0  0  0  0
  -17.6455  -30.6583   24.0564 C   0  0  0  0  0  0
  -25.9037  -34.9477   23.5128 C   0  0  0  0  0  0
  -16.5345  -29.9085   23.6325 C   0  0  0  0  0  0
  -16.7263  -28.6501   23.0350 C   0  0  0  0  0  0
  -26.4479  -31.6604   25.0730 C   0  0  0  0  0  0
  -25.3746  -31.3712   26.1480 C   0  0  0  0  0  0
  -27.0309  -30.3045   24.6114 C   0  0  0  0  0  0
  -27.6055  -32.4325   25.7488 C   0  0  0  0  0  0
  -27.5582  -37.1813   24.8466 C   0  0  0  0  0  0
  -21.4146  -29.3037   22.3721 N   0  0  0  0  0  0
  -26.4296  -37.3795   23.9407 N   0  0  0  0  0  0
  -24.6714  -31.0768   22.1014 N   0  0  0  0  0  0
  -23.4188  -28.8196   23.3022 O   0  0  0  0  0  0
  -28.3921  -26.6590   20.1154 O   0  0  0  0  0  0
  -26.5596  -34.8929   22.4688 O   0  0  0  0  0  0
  -23.5357  -32.1434   23.7492 O   0  0  0  0  0  0
  -31.0965  -18.9027   21.4880 C   0  0  0  0  0  0
  -30.1171  -19.3092   20.5944 C   0  0  0  0  0  0
  -30.1963  -16.8548   21.0299 C   0  0  0  0  0  0
  -29.4587  -22.9140   19.7075 C   0  0  0  0  0  0
  -29.4835  -24.4070   20.1713 C   0  0  0  0  0  0
  -29.7973  -21.7503   20.7060 C   0  0  0  0  0  0
  -32.1333  -19.7476   22.1659 C   0  0  0  0  0  0
  -28.2498  -25.2535   19.8017 C   0  0  0  0  0  0
  -31.1151  -17.5182   21.7365 N   0  0  0  0  0  0
  -29.8429  -20.5490   20.0852 N   0  0  0  0  0  0
  -29.9831  -15.4578   21.1737 N   0  0  0  0  0  0
  -29.1621  -22.6589   18.5295 O   0  0  0  0  0  0
  -30.4582  -24.8997   20.7586 O   0  0  0  0  0  0
  -29.9650  -21.9128   21.9199 O   0  0  0  0  0  0
  -29.2097  -17.9124   20.0271 S   0  0  0  0  0  0
  -31.4712  -12.4218   19.1183 H   0  0  0  0  0  0
  -30.3381  -11.3018   19.8172 H   0  0  0  0  0  0
  -29.7382  -11.7831   17.4277 H   0  0  0  0  0  0
  -29.6596  -13.4934   17.7679 H   0  0  0  0  0  0
  -27.8319  -11.3066   18.8180 H   0  0  0  0  0  0
  -27.3653  -12.6330   17.7878 H   0  0  0  0  0  0
  -27.7069  -14.2514   19.5771 H   0  0  0  0  0  0
  -28.6833  -11.9415   21.3272 H   0  0  0  0  0  0
  -28.4592  -13.5687   21.8802 H   0  0  0  0  0  0
  -25.2759   -9.5685   22.4751 H   0  0  0  0  0  0
  -24.0001   -7.4632   22.7470 H   0  0  0  0  0  0
  -21.0831   -8.8768   19.8955 H   0  0  0  0  0  0
  -22.3682  -10.9671   19.6164 H   0  0  0  0  0  0
  -21.2006   -7.6146   23.9714 H   0  0  0  0  0  0
  -21.1483   -6.0521   25.9076 H   0  0  0  0  0  0
  -22.0599   -2.7607   23.2846 H   0  0  0  0  0  0
  -22.4116  -11.9903   22.4798 H   0  0  0  0  0  0
  -21.1126  -13.1273   22.2608 H   0  0  0  0  0  0
  -24.6624  -15.8402   20.5068 H   0  0  0  0  0  0
  -26.2776  -15.6243   20.0631 H   0  0  0  0  0  0
  -26.7126  -32.5525   23.1158 H   0  0  0  0  0  0
  -25.0074  -33.9782   25.0483 H   0  0  0  0  0  0
  -22.6941  -31.3115   21.4153 H   0  0  0  0  0  0
  -23.3746  -35.9652   23.3313 H   0  0  0  0  0  0
  -24.3581  -36.8916   22.2050 H   0  0  0  0  0  0
  -23.7245  -37.6526   23.6643 H   0  0  0  0  0  0
  -26.0549  -31.5941   20.6009 H   0  0  0  0  0  0
  -26.8235  -30.8761   21.9883 H   0  0  0  0  0  0
  -28.1016  -29.0798   21.1626 H   0  0  0  0  0  0
  -25.9926  -25.9835   18.9871 H   0  0  0  0  0  0
  -23.9644  -27.3122   19.0306 H   0  0  0  0  0  0
  -23.7234  -30.6083   19.4084 H   0  0  0  0  0  0
  -22.7353  -29.2540   19.8674 H   0  0  0  0  0  0
  -25.1287  -36.1979   25.0830 H   0  0  0  0  0  0
  -20.9959  -28.3230   24.1432 H   0  0  0  0  0  0
  -20.5673  -26.2274   23.3599 H   0  0  0  0  0  0
  -21.6636  -26.7448   22.1201 H   0  0  0  0  0  0
  -19.6906  -25.6299   21.1231 H   0  0  0  0  0  0
  -19.6679  -27.3203   20.6747 H   0  0  0  0  0  0
  -17.4192  -26.6669   21.4027 H   0  0  0  0  0  0
  -18.0326  -26.0058   22.9017 H   0  0  0  0  0  0
  -19.7929  -30.7252   24.2287 H   0  0  0  0  0  0
  -17.5012  -31.6266   24.5162 H   0  0  0  0  0  0
  -15.5346  -30.2993   23.7640 H   0  0  0  0  0  0
  -15.8663  -28.0823   22.7061 H   0  0  0  0  0  0
  -24.5905  -30.7077   25.7816 H   0  0  0  0  0  0
  -24.8957  -32.2872   26.4953 H   0  0  0  0  0  0
  -25.8100  -30.8858   27.0224 H   0  0  0  0  0  0
  -26.2853  -29.6805   24.1171 H   0  0  0  0  0  0
  -27.4078  -29.7283   25.4575 H   0  0  0  0  0  0
  -27.8692  -30.4359   23.9268 H   0  0  0  0  0  0
  -27.2670  -33.3609   26.2103 H   0  0  0  0  0  0
  -28.3842  -32.6915   25.0302 H   0  0  0  0  0  0
  -28.0751  -31.8431   26.5374 H   0  0  0  0  0  0
  -28.2611  -38.0100   24.7507 H   0  0  0  0  0  0
  -28.1066  -36.2632   24.6299 H   0  0  0  0  0  0
  -27.2299  -37.1474   25.8869 H   0  0  0  0  0  0
  -20.9305  -29.8770   21.6953 H   0  0  0  0  0  0
  -26.0187  -38.2876   24.1401 H   0  0  0  0  0  0
  -32.4889  -20.5434   21.5116 H   0  0  0  0  0  0
  -33.0040  -19.1606   22.4589 H   0  0  0  0  0  0
  -31.7347  -20.2116   23.0678 H   0  0  0  0  0  0
  -27.3990  -24.8354   20.3410 H   0  0  0  0  0  0
  -28.0576  -25.1389   18.7343 H   0  0  0  0  0  0
  -29.5488  -20.5950   19.1164 H   0  0  0  0  0  0
  -29.0551  -15.1833   21.4524 H   0  0  0  0  0  0
  1 25  1  0  0  0
  1 30  2  0  0  0
  1 81  1  0  0  0
  2  3  1  0  0  0
  2 25  1  0  0  0
  2 86  1  0  0  0
  2 87  1  0  0  0
  3  4  1  0  0  0
  3 88  1  0  0  0
  3 89  1  0  0  0
  4  5  1  0  0  0
  4 90  1  0  0  0
  4 91  1  0  0  0
  5  6  1  0  0  0
  5 26  1  0  0  0
  5 92  1  0  0  0
  6 25  1  0  0  0
  6 93  1  0  0  0
  6 94  1  0  0  0
  7  8  2  0  0  0
  7 26  1  0  0  0
  7 29  1  0  0  0
  8  9  1  0  0  0
  8 22  1  0  0  0
  9 10  1  0  0  0
  9 27  2  0  0  0
 10 11  2  0  0  0
 10 15  1  0  0  0
 11 12  1  0  0  0
 11 95  1  0  0  0
 12 13  2  0  0  0
 12 96  1  0  0  0
 13 14  1  0  0  0
 13 31  1  0  0  0
 14 15  2  0  0  0
 14 97  1  0  0  0
 15 98  1  0  0  0
 16 17  2  0  0  0
 16 21  1  0  0  0
 16 31  1  0  0  0
 17 18  1  0  0  0
 17 99  1  0  0  0
 18 19  2  0  0  0
 18100  1  0  0  0
 19 20  1  0  0  0
 19 24  1  0  0  0
 20 21  2  0  0  0
 20101  1  0  0  0
 21 23  1  0  0  0
 22 28  1  0  0  0
 22 32  2  0  0  0
 26 27  1  0  0  0
 28102  1  0  0  0
 28103  1  0  0  0
 29104  1  0  0  0
 29105  1  0  0  0
 33 34  1  0  0  0
 33 66  1  0  0  0
 33 70  2  0  0  0
 34 36  1  0  0  0
 34 59  1  0  0  0
 34106  1  0  0  0
 35 44  2  0  0  0
 35 45  1  0  0  0
 35 68  1  0  0  0
 36 56  1  0  0  0
 36107  1  0  0  0
 37 39  1  0  0  0
 37 47  1  0  0  0
 37 66  1  0  0  0
 37108  1  0  0  0
 38 43  2  0  0  0
 38 46  1  0  0  0
 38 47  1  0  0  0
 39 64  1  0  0  0
 39 67  2  0  0  0
 40 52  1  0  0  0
 40 53  2  0  0  0
 40 58  1  0  0  0
 41109  1  0  0  0
 41110  1  0  0  0
 41111  1  0  0  0
 41 48  1  0  0  0
 42 43  1  0  0  0
 42 66  1  0  0  0
 42112  1  0  0  0
 42113  1  0  0  0
 43 44  1  0  0  0
 44114  1  0  0  0
 45 46  2  0  0  0
 45115  1  0  0  0
 46116  1  0  0  0
 47117  1  0  0  0
 47118  1  0  0  0
 48 56  1  0  0  0
 48 65  1  0  0  0
 48119  1  0  0  0
 49 50  1  0  0  0
 49 53  1  0  0  0
 49 64  1  0  0  0
 49120  1  0  0  0
 50 51  1  0  0  0
 50121  1  0  0  0
 50122  1  0  0  0
 51 52  1  0  0  0
 51123  1  0  0  0
 51124  1  0  0  0
 52125  1  0  0  0
 52126  1  0  0  0
 53 54  1  0  0  0
 54 55  2  0  0  0
 54127  1  0  0  0
 55 57  1  0  0  0
 55128  1  0  0  0
 56 69  2  0  0  0
 57 58  2  0  0  0
 57129  1  0  0  0
 58130  1  0  0  0
 59 60  1  0  0  0
 59 61  1  0  0  0
 59 62  1  0  0  0
 60131  1  0  0  0
 60132  1  0  0  0
 60133  1  0  0  0
 61134  1  0  0  0
 61135  1  0  0  0
 61136  1  0  0  0
 62137  1  0  0  0
 62138  1  0  0  0
 62139  1  0  0  0
 63 65  1  0  0  0
 63140  1  0  0  0
 63141  1  0  0  0
 63142  1  0  0  0
 64143  1  0  0  0
 65144  1  0  0  0
 68 78  1  0  0  0
 71 72  2  0  0  0
 71 77  1  0  0  0
 71 79  1  0  0  0
 72 80  1  0  0  0
 72 85  1  0  0  0
 73 79  2  0  0  0
 73 81  1  0  0  0
 73 85  1  0  0  0
 74 75  1  0  0  0
 74 76  1  0  0  0
 74 82  2  0  0  0
 75 78  1  0  0  0
 75 83  2  0  0  0
 76 80  1  0  0  0
 76 84  2  0  0  0
 77145  1  0  0  0
 77146  1  0  0  0
 77147  1  0  0  0
 78148  1  0  0  0
 78149  1  0  0  0
 80150  1  0  0  0
 81151  1  0  0  0
M  ISO  4   1 100  68 101  78 101  81 100
M  END
> <chiral flag>
0

> <version>
0

> <s_m_source_file>
/data/baiqing/PycharmProjects/Reinvent-master-3.2/result/LINK_invent/BTK/process_docking_weight1_custom_product_contain_oxygen_bond_distance_aromatic_linkinvent_7_9_3/rearranged_h_0175.sdf

> <i_m_source_file_index>
86

> <r_mmod_Potential_Energy-OPLS-2005>
-33.1945266723633

> <r_mmod_Stretch_Energy-OPLS-2005>
41.6885566711426

> <r_mmod_Bend_Energy-OPLS-2005>
104.243881225586

> <r_mmod_Torsional_Energy-OPLS-2005>
245.533081054688

> <r_mmod_Improper_Torsional_Energy-OPLS-2005>
4.85218286514282

> <r_mmod_Van_der_Waal_Energy-OPLS-2005>
131.526382446289

> <r_mmod_Electrostatic_Energy-OPLS-2005>
-310.577575683594

> <r_mmod_Solvation_Energy-OPLS-2005>
-264.877014160156

> <b_mmod_Minimization_Converged-OPLS-2005>
0

> <r_mmod_RMS_Derivative-OPLS-2005>
0.367075324058533

$$$$
87
                    3D
 Structure written by MMmdl.
161169  0  0  1  0            999 V2000
  -30.7443  -14.4122   20.6292 C   0  0  0  0  0  0
  -30.4163  -12.2942   19.4088 C   0  0  0  0  0  0
  -29.4881  -12.5175   18.1994 C   0  0  0  0  0  0
  -28.0111  -12.3751   18.6150 C   0  0  0  0  0  0
  -27.6645  -13.2055   19.8794 C   0  0  2  0  0  0
  -28.7042  -12.9667   20.9977 C   0  0  0  0  0  0
  -25.2597  -13.8159   20.5688 C   0  0  0  0  0  0
  -24.1842  -13.0436   20.9174 C   0  0  0  0  0  0
  -24.6389  -11.6903   20.8728 C   0  0  0  0  0  0
  -23.9055  -10.4290   21.0399 C   0  0  0  0  0  0
  -24.3610   -9.4208   21.9177 C   0  0  0  0  0  0
  -23.6291   -8.2241   22.0747 C   0  0  0  0  0  0
  -22.4271   -8.0275   21.3542 C   0  0  0  0  0  0
  -21.9902   -9.0250   20.4647 C   0  0  0  0  0  0
  -22.7229  -10.2131   20.3050 C   0  0  0  0  0  0
  -21.6852   -6.0727   22.5279 C   0  0  0  0  0  0
  -21.4012   -6.5630   23.8213 C   0  0  0  0  0  0
  -21.3659   -5.6787   24.9177 C   0  0  0  0  0  0
  -21.6047   -4.3049   24.7229 C   0  0  0  0  0  0
  -21.8821   -3.8141   23.4349 C   0  0  0  0  0  0
  -21.9194   -4.6956   22.3403 C   0  0  0  0  0  0
  -22.7867  -13.5238   21.1838 C   0  0  0  0  0  0
  -22.1664   -4.2140   21.0981 F   0  0  0  0  0  0
  -21.5629   -3.4532   25.7741 F   0  0  0  0  0  0
  -30.0415  -13.2619   20.4521 N   0  0  0  0  0  0
  -26.3034  -12.9332   20.3384 N   0  0  0  0  0  0
  -25.9318  -11.6487   20.5761 N   0  0  0  0  0  0
  -22.0505  -12.8232   22.0398 N   0  0  0  0  0  0
  -25.4334  -15.1878   20.4099 N   0  0  0  0  0  0
  -31.8171  -14.6296   20.0600 O   0  0  0  0  0  0
  -21.6638   -6.8871   21.4239 O   0  0  0  0  0  0
  -22.3556  -14.5548   20.6690 O   0  0  0  0  0  0
  -24.6119  -31.8693   23.2117 C   0  0  0  0  0  0
  -25.9024  -32.4831   23.8406 C   0  0  1  0  0  0
  -27.2372  -27.4618   20.0939 C   0  0  0  0  0  0
  -25.5891  -33.8627   24.2344 N   0  0  0  0  0  0
  -23.4000  -30.4916   21.5506 C   0  0  2  0  0  0
  -24.8497  -28.9611   20.1131 C   0  0  0  0  0  0
  -22.7403  -29.4652   22.4991 C   0  0  0  0  0  0
  -18.0271  -28.1373   22.8487 C   0  0  0  0  0  0
  -24.1485  -36.7313   23.2637 C   0  0  0  0  0  0
  -25.9253  -30.8434   21.3612 C   0  0  0  0  0  0
  -26.0065  -29.4786   20.7113 C   0  0  0  0  0  0
  -27.2059  -28.7338   20.7040 C   0  0  0  0  0  0
  -26.0716  -26.9516   19.4896 C   0  0  0  0  0  0
  -24.8755  -27.6950   19.4997 C   0  0  0  0  0  0
  -23.6087  -29.8236   20.1648 C   0  0  0  0  0  0
  -25.4102  -36.3116   24.0344 C   0  0  1  0  0  0
  -20.5859  -28.3651   23.1329 C   0  0  2  0  0  0
  -20.6756  -26.9387   22.5428 C   0  0  0  0  0  0
  -19.5744  -26.6386   21.5208 C   0  0  0  0  0  0
  -18.1919  -26.7924   22.1612 C   0  0  0  0  0  0
  -19.1520  -28.8829   23.2906 C   0  0  0  0  0  0
  -18.9447  -30.1436   23.8916 C   0  0  0  0  0  0
  -17.6450  -30.6580   24.0565 C   0  0  0  0  0  0
  -25.9028  -34.9479   23.5140 C   0  0  0  0  0  0
  -16.5341  -29.9085   23.6324 C   0  0  0  0  0  0
  -16.7260  -28.6502   23.0342 C   0  0  0  0  0  0
  -26.4466  -31.6598   25.0719 C   0  0  0  0  0  0
  -25.3747  -31.3714   26.1485 C   0  0  0  0  0  0
  -27.0262  -30.3036   24.6063 C   0  0  0  0  0  0
  -27.6072  -32.4291   25.7461 C   0  0  0  0  0  0
  -27.5584  -37.1805   24.8461 C   0  0  0  0  0  0
  -21.4132  -29.3019   22.3733 N   0  0  0  0  0  0
  -26.4291  -37.3798   23.9415 N   0  0  0  0  0  0
  -24.6637  -31.0814   22.1004 N   0  0  0  0  0  0
  -23.4185  -28.8191   23.3023 O   0  0  0  0  0  0
  -28.3776  -26.6996   20.0941 O   0  0  0  0  0  0
  -26.5589  -34.8927   22.4701 O   0  0  0  0  0  0
  -23.5319  -32.1428   23.7529 O   0  0  0  0  0  0
  -31.9969  -17.0105   21.7365 C   0  0  0  0  0  0
  -29.6910  -17.6818   21.9675 C   0  0  0  0  0  0
  -30.6261  -16.6623   21.6897 C   0  0  0  0  0  0
  -32.3569  -18.3349   22.0434 C   0  0  0  0  0  0
  -31.3439  -19.2747   22.3117 C   0  0  0  0  0  0
  -29.6322  -23.7104   21.9623 C   0  0  0  0  0  0
  -29.1986  -24.5293   20.9767 C   0  0  0  0  0  0
  -30.3737  -22.4379   21.7721 C   0  0  0  0  0  0
  -29.8596  -21.4166   24.0628 C   0  0  0  0  0  0
  -31.9541  -22.7297   23.7018 C   0  0  0  0  0  0
  -28.4554  -25.8379   21.2344 C   0  0  0  0  0  0
  -30.9686  -21.7441   23.0328 C   0  0  0  0  0  0
  -30.0321  -18.9576   22.2688 N   0  0  0  0  0  0
  -30.1596  -15.3381   21.4101 N   0  0  0  0  0  0
  -31.7681  -20.5551   22.6950 N   0  0  0  0  0  0
  -30.5649  -21.9511   20.6509 O   0  0  0  0  0  0
  -29.3666  -24.3020   19.6621 O   0  0  0  0  0  0
  -33.6628  -18.6966   22.1085 F   0  0  0  0  0  0
  -31.4607  -12.3842   19.1045 H   0  0  0  0  0  0
  -30.3083  -11.2773   19.7894 H   0  0  0  0  0  0
  -29.7233  -11.8068   17.4061 H   0  0  0  0  0  0
  -29.6603  -13.5104   17.7810 H   0  0  0  0  0  0
  -27.8201  -11.3180   18.8038 H   0  0  0  0  0  0
  -27.3579  -12.6576   17.7886 H   0  0  0  0  0  0
  -27.7167  -14.2572   19.5959 H   0  0  0  0  0  0
  -28.6710  -11.9264   21.3259 H   0  0  0  0  0  0
  -28.4599  -13.5535   21.8837 H   0  0  0  0  0  0
  -25.2760   -9.5682   22.4742 H   0  0  0  0  0  0
  -24.0004   -7.4629   22.7461 H   0  0  0  0  0  0
  -21.0831   -8.8770   19.8960 H   0  0  0  0  0  0
  -22.3689  -10.9663   19.6150 H   0  0  0  0  0  0
  -21.2003   -7.6136   23.9712 H   0  0  0  0  0  0
  -21.1479   -6.0516   25.9080 H   0  0  0  0  0  0
  -22.0599   -2.7602   23.2854 H   0  0  0  0  0  0
  -22.4107  -11.9881   22.4780 H   0  0  0  0  0  0
  -21.1129  -13.1275   22.2610 H   0  0  0  0  0  0
  -24.6684  -15.8459   20.5137 H   0  0  0  0  0  0
  -26.2879  -15.6228   20.0849 H   0  0  0  0  0  0
  -26.7094  -32.5562   23.1174 H   0  0  0  0  0  0
  -25.0064  -33.9792   25.0503 H   0  0  0  0  0  0
  -22.6870  -31.3073   21.4129 H   0  0  0  0  0  0
  -23.3749  -35.9645   23.3308 H   0  0  0  0  0  0
  -24.3583  -36.8912   22.2051 H   0  0  0  0  0  0
  -23.7233  -37.6521   23.6636 H   0  0  0  0  0  0
  -26.0313  -31.6096   20.5921 H   0  0  0  0  0  0
  -26.8155  -30.9005   21.9758 H   0  0  0  0  0  0
  -28.0995  -29.1265   21.1683 H   0  0  0  0  0  0
  -26.0913  -25.9772   19.0219 H   0  0  0  0  0  0
  -23.9869  -27.2909   19.0349 H   0  0  0  0  0  0
  -23.7128  -30.5984   19.4042 H   0  0  0  0  0  0
  -22.7347  -29.2396   19.8706 H   0  0  0  0  0  0
  -25.1274  -36.1986   25.0837 H   0  0  0  0  0  0
  -20.9956  -28.3216   24.1447 H   0  0  0  0  0  0
  -20.5645  -26.2254   23.3609 H   0  0  0  0  0  0
  -21.6630  -26.7424   22.1236 H   0  0  0  0  0  0
  -19.6906  -25.6302   21.1223 H   0  0  0  0  0  0
  -19.6701  -27.3208   20.6747 H   0  0  0  0  0  0
  -17.4198  -26.6688   21.4000 H   0  0  0  0  0  0
  -18.0308  -26.0057   22.8999 H   0  0  0  0  0  0
  -19.7925  -30.7240   24.2303 H   0  0  0  0  0  0
  -17.5008  -31.6262   24.5166 H   0  0  0  0  0  0
  -15.5339  -30.2990   23.7639 H   0  0  0  0  0  0
  -15.8662  -28.0825   22.7044 H   0  0  0  0  0  0
  -24.5914  -30.7057   25.7841 H   0  0  0  0  0  0
  -24.8942  -32.2873   26.4935 H   0  0  0  0  0  0
  -25.8119  -30.8894   27.0239 H   0  0  0  0  0  0
  -26.2773  -29.6825   24.1136 H   0  0  0  0  0  0
  -27.4048  -29.7248   25.4498 H   0  0  0  0  0  0
  -27.8611  -30.4347   23.9176 H   0  0  0  0  0  0
  -27.2728  -33.3592   26.2067 H   0  0  0  0  0  0
  -28.3863  -32.6842   25.0264 H   0  0  0  0  0  0
  -28.0756  -31.8386   26.5345 H   0  0  0  0  0  0
  -28.2613  -38.0092   24.7502 H   0  0  0  0  0  0
  -28.1063  -36.2625   24.6279 H   0  0  0  0  0  0
  -27.2310  -37.1461   25.8867 H   0  0  0  0  0  0
  -20.9285  -29.8740   21.6962 H   0  0  0  0  0  0
  -26.0184  -38.2877   24.1423 H   0  0  0  0  0  0
  -32.7807  -16.2883   21.5686 H   0  0  0  0  0  0
  -28.6317  -17.4699   21.9505 H   0  0  0  0  0  0
  -29.4325  -24.0036   22.9820 H   0  0  0  0  0  0
  -29.4727  -22.3147   24.5448 H   0  0  0  0  0  0
  -30.2345  -20.7704   24.8572 H   0  0  0  0  0  0
  -29.0038  -20.9199   23.6062 H   0  0  0  0  0  0
  -31.4638  -23.6364   24.0579 H   0  0  0  0  0  0
  -32.7431  -23.0418   23.0155 H   0  0  0  0  0  0
  -32.4367  -22.2791   24.5706 H   0  0  0  0  0  0
  -28.9602  -26.3772   22.0371 H   0  0  0  0  0  0
  -27.4634  -25.5777   21.6108 H   0  0  0  0  0  0
  -29.2362  -15.0987   21.7414 H   0  0  0  0  0  0
  -32.7568  -20.7115   22.5393 H   0  0  0  0  0  0
  -29.8174  -23.4672   19.5748 H   0  0  0  0  0  0
  1 25  1  0  0  0
  1 30  2  0  0  0
  1 84  1  0  0  0
  2  3  1  0  0  0
  2 25  1  0  0  0
  2 89  1  0  0  0
  2 90  1  0  0  0
  3  4  1  0  0  0
  3 91  1  0  0  0
  3 92  1  0  0  0
  4  5  1  0  0  0
  4 93  1  0  0  0
  4 94  1  0  0  0
  5  6  1  0  0  0
  5 26  1  0  0  0
  5 95  1  0  0  0
  6 25  1  0  0  0
  6 96  1  0  0  0
  6 97  1  0  0  0
  7  8  2  0  0  0
  7 26  1  0  0  0
  7 29  1  0  0  0
  8  9  1  0  0  0
  8 22  1  0  0  0
  9 10  1  0  0  0
  9 27  2  0  0  0
 10 11  2  0  0  0
 10 15  1  0  0  0
 11 12  1  0  0  0
 11 98  1  0  0  0
 12 13  2  0  0  0
 12 99  1  0  0  0
 13 14  1  0  0  0
 13 31  1  0  0  0
 14 15  2  0  0  0
 14100  1  0  0  0
 15101  1  0  0  0
 16 17  2  0  0  0
 16 21  1  0  0  0
 16 31  1  0  0  0
 17 18  1  0  0  0
 17102  1  0  0  0
 18 19  2  0  0  0
 18103  1  0  0  0
 19 20  1  0  0  0
 19 24  1  0  0  0
 20 21  2  0  0  0
 20104  1  0  0  0
 21 23  1  0  0  0
 22 28  1  0  0  0
 22 32  2  0  0  0
 26 27  1  0  0  0
 28105  1  0  0  0
 28106  1  0  0  0
 29107  1  0  0  0
 29108  1  0  0  0
 33 34  1  0  0  0
 33 66  1  0  0  0
 33 70  2  0  0  0
 34 36  1  0  0  0
 34 59  1  0  0  0
 34109  1  0  0  0
 35 44  2  0  0  0
 35 45  1  0  0  0
 35 68  1  0  0  0
 36 56  1  0  0  0
 36110  1  0  0  0
 37 39  1  0  0  0
 37 47  1  0  0  0
 37 66  1  0  0  0
 37111  1  0  0  0
 38 43  2  0  0  0
 38 46  1  0  0  0
 38 47  1  0  0  0
 39 64  1  0  0  0
 39 67  2  0  0  0
 40 52  1  0  0  0
 40 53  2  0  0  0
 40 58  1  0  0  0
 41112  1  0  0  0
 41113  1  0  0  0
 41114  1  0  0  0
 41 48  1  0  0  0
 42 43  1  0  0  0
 42 66  1  0  0  0
 42115  1  0  0  0
 42116  1  0  0  0
 43 44  1  0  0  0
 44117  1  0  0  0
 45 46  2  0  0  0
 45118  1  0  0  0
 46119  1  0  0  0
 47120  1  0  0  0
 47121  1  0  0  0
 48 56  1  0  0  0
 48 65  1  0  0  0
 48122  1  0  0  0
 49 50  1  0  0  0
 49 53  1  0  0  0
 49 64  1  0  0  0
 49123  1  0  0  0
 50 51  1  0  0  0
 50124  1  0  0  0
 50125  1  0  0  0
 51 52  1  0  0  0
 51126  1  0  0  0
 51127  1  0  0  0
 52128  1  0  0  0
 52129  1  0  0  0
 53 54  1  0  0  0
 54 55  2  0  0  0
 54130  1  0  0  0
 55 57  1  0  0  0
 55131  1  0  0  0
 56 69  2  0  0  0
 57 58  2  0  0  0
 57132  1  0  0  0
 58133  1  0  0  0
 59 60  1  0  0  0
 59 61  1  0  0  0
 59 62  1  0  0  0
 60134  1  0  0  0
 60135  1  0  0  0
 60136  1  0  0  0
 61137  1  0  0  0
 61138  1  0  0  0
 61139  1  0  0  0
 62140  1  0  0  0
 62141  1  0  0  0
 62142  1  0  0  0
 63 65  1  0  0  0
 63143  1  0  0  0
 63144  1  0  0  0
 63145  1  0  0  0
 64146  1  0  0  0
 65147  1  0  0  0
 68 81  1  0  0  0
 71 73  2  0  0  0
 71 74  1  0  0  0
 71148  1  0  0  0
 72 73  1  0  0  0
 72 83  2  0  0  0
 72149  1  0  0  0
 73 84  1  0  0  0
 74 75  2  0  0  0
 74 88  1  0  0  0
 75 83  1  0  0  0
 75 85  1  0  0  0
 76 77  2  0  0  0
 76 78  1  0  0  0
 76150  1  0  0  0
 77 81  1  0  0  0
 77 87  1  0  0  0
 78 82  1  0  0  0
 78 86  2  0  0  0
 79151  1  0  0  0
 79152  1  0  0  0
 79153  1  0  0  0
 79 82  1  0  0  0
 80 82  1  0  0  0
 80154  1  0  0  0
 80155  1  0  0  0
 80156  1  0  0  0
 81157  1  0  0  0
 81158  1  0  0  0
 82 85  1  0  0  0
 84159  1  0  0  0
 85160  1  0  0  0
 87161  1  0  0  0
M  ISO  4   1 100  68 101  81 101  84 100
M  END
> <chiral flag>
0

> <version>
0

> <s_m_source_file>
/data/baiqing/PycharmProjects/Reinvent-master-3.2/result/LINK_invent/BTK/process_docking_weight1_custom_product_contain_oxygen_bond_distance_aromatic_linkinvent_7_9_3/rearranged_h_0175.sdf

> <i_m_source_file_index>
87

> <r_mmod_Potential_Energy-OPLS-2005>
-212.403594970703

> <r_mmod_Stretch_Energy-OPLS-2005>
37.6416664123535

> <r_mmod_Bend_Energy-OPLS-2005>
125.925071716309

> <r_mmod_Torsional_Energy-OPLS-2005>
220.850433349609

> <r_mmod_Improper_Torsional_Energy-OPLS-2005>
3.00068402290344

> <r_mmod_Van_der_Waal_Energy-OPLS-2005>
174.468322753906

> <r_mmod_Electrostatic_Energy-OPLS-2005>
-548.162536621094

> <r_mmod_Solvation_Energy-OPLS-2005>
-234.369369506836

> <b_mmod_Minimization_Converged-OPLS-2005>
0

> <r_mmod_RMS_Derivative-OPLS-2005>
0.810108125209808

$$$$
88
                    3D
 Structure written by MMmdl.
154162  0  0  1  0            999 V2000
  -30.6268  -14.6432   20.4710 C   0  0  0  0  0  0
  -30.4378  -12.3843   19.4665 C   0  0  0  0  0  0
  -29.5137  -12.4871   18.2310 C   0  0  0  0  0  0
  -28.0357  -12.3123   18.6358 C   0  0  0  0  0  0
  -27.6461  -13.2036   19.8422 C   0  0  2  0  0  0
  -28.6868  -13.0898   20.9800 C   0  0  0  0  0  0
  -25.2573  -13.8138   20.5620 C   0  0  0  0  0  0
  -24.1842  -13.0432   20.9182 C   0  0  0  0  0  0
  -24.6382  -11.6888   20.8737 C   0  0  0  0  0  0
  -23.9041  -10.4280   21.0412 C   0  0  0  0  0  0
  -24.3594   -9.4198   21.9191 C   0  0  0  0  0  0
  -23.6272   -8.2235   22.0760 C   0  0  0  0  0  0
  -22.4255   -8.0272   21.3547 C   0  0  0  0  0  0
  -21.9886   -9.0248   20.4652 C   0  0  0  0  0  0
  -22.7214  -10.2129   20.3058 C   0  0  0  0  0  0
  -21.6840   -6.0722   22.5283 C   0  0  0  0  0  0
  -21.4011   -6.5633   23.8213 C   0  0  0  0  0  0
  -21.3666   -5.6793   24.9186 C   0  0  0  0  0  0
  -21.6043   -4.3053   24.7238 C   0  0  0  0  0  0
  -21.8823   -3.8140   23.4360 C   0  0  0  0  0  0
  -21.9192   -4.6950   22.3412 C   0  0  0  0  0  0
  -22.7870  -13.5252   21.1851 C   0  0  0  0  0  0
  -22.1659   -4.2133   21.0992 F   0  0  0  0  0  0
  -21.5622   -3.4542   25.7752 F   0  0  0  0  0  0
  -30.0094  -13.4186   20.4289 N   0  0  0  0  0  0
  -26.2952  -12.9278   20.3182 N   0  0  0  0  0  0
  -25.9293  -11.6453   20.5710 N   0  0  0  0  0  0
  -22.0499  -12.8255   22.0405 N   0  0  0  0  0  0
  -25.4324  -15.1848   20.3978 N   0  0  0  0  0  0
  -31.8234  -14.7487   20.1877 O   0  0  0  0  0  0
  -21.6633   -6.8859   21.4236 O   0  0  0  0  0  0
  -22.3554  -14.5556   20.6696 O   0  0  0  0  0  0
  -24.6225  -31.8621   23.2048 C   0  0  0  0  0  0
  -25.9082  -32.4793   23.8375 C   0  0  1  0  0  0
  -27.2315  -27.3563   20.1220 C   0  0  0  0  0  0
  -25.5915  -33.8596   24.2303 N   0  0  0  0  0  0
  -23.4176  -30.4843   21.5449 C   0  0  2  0  0  0
  -24.8689  -28.9398   20.1177 C   0  0  0  0  0  0
  -22.7469  -29.4631   22.4936 C   0  0  0  0  0  0
  -18.0307  -28.1391   22.8483 C   0  0  0  0  0  0
  -24.1493  -36.7303   23.2639 C   0  0  0  0  0  0
  -25.9544  -30.8033   21.3738 C   0  0  0  0  0  0
  -26.0333  -29.4296   20.7257 C   0  0  0  0  0  0
  -27.2216  -28.6450   20.7281 C   0  0  0  0  0  0
  -26.0531  -26.9054   19.4977 C   0  0  0  0  0  0
  -24.8766  -27.6788   19.4985 C   0  0  0  0  0  0
  -23.6345  -29.8159   20.1616 C   0  0  0  0  0  0
  -25.4113  -36.3091   24.0332 C   0  0  1  0  0  0
  -20.5905  -28.3692   23.1300 C   0  0  2  0  0  0
  -20.6799  -26.9417   22.5423 C   0  0  0  0  0  0
  -19.5788  -26.6399   21.5210 C   0  0  0  0  0  0
  -18.1962  -26.7940   22.1609 C   0  0  0  0  0  0
  -19.1555  -28.8856   23.2892 C   0  0  0  0  0  0
  -18.9465  -30.1456   23.8911 C   0  0  0  0  0  0
  -17.6466  -30.6591   24.0561 C   0  0  0  0  0  0
  -25.9041  -34.9461   23.5113 C   0  0  0  0  0  0
  -16.5361  -29.9084   23.6325 C   0  0  0  0  0  0
  -16.7292  -28.6503   23.0345 C   0  0  0  0  0  0
  -26.4492  -31.6586   25.0726 C   0  0  0  0  0  0
  -25.3732  -31.3712   26.1456 C   0  0  0  0  0  0
  -27.0336  -30.3016   24.6151 C   0  0  0  0  0  0
  -27.6058  -32.4312   25.7493 C   0  0  0  0  0  0
  -27.5581  -37.1808   24.8465 C   0  0  0  0  0  0
  -21.4186  -29.3048   22.3684 N   0  0  0  0  0  0
  -26.4297  -37.3778   23.9402 N   0  0  0  0  0  0
  -24.6828  -31.0665   22.0984 N   0  0  0  0  0  0
  -23.4203  -28.8174   23.3009 O   0  0  0  0  0  0
  -28.3272  -26.5023   20.0645 O   0  0  0  0  0  0
  -26.5607  -34.8917   22.4679 O   0  0  0  0  0  0
  -23.5391  -32.1406   23.7382 O   0  0  0  0  0  0
  -27.6019  -20.5707   19.5289 C   0  0  0  0  0  0
  -27.2104  -19.2846   19.1194 C   0  0  0  0  0  0
  -28.0079  -18.1691   19.4445 C   0  0  0  0  0  0
  -29.2229  -18.3397   20.1580 C   0  0  0  0  0  0
  -28.7916  -20.7683   20.2718 C   0  0  0  0  0  0
  -30.1223  -17.1365   20.3955 C   0  0  0  0  0  0
  -29.7280  -15.8299   20.5507 C   0  0  0  0  0  0
  -28.6521  -25.7672   21.1958 C   0  0  0  0  0  0
  -28.8703  -24.4176   21.3571 C   0  0  0  0  0  0
  -28.7173  -23.3509   20.3317 C   0  0  0  0  0  0
  -29.5437  -19.6279   20.5514 N   0  3  0  0  0  0
  -26.0387  -19.1054   18.3751 N   0  0  0  0  0  0
  -29.1140  -22.1069   20.7704 N   0  0  0  0  0  0
  -28.2785  -23.5581   19.1924 O   0  0  0  0  0  0
  -29.2403  -24.0158   22.5867 O   0  0  0  0  0  0
  -27.6078  -16.9424   19.0210 F   0  0  0  0  0  0
  -31.4806  -12.5032   19.1680 H   0  0  0  0  0  0
  -30.3696  -11.3947   19.9205 H   0  0  0  0  0  0
  -29.7897  -11.7356   17.4905 H   0  0  0  0  0  0
  -29.6513  -13.4556   17.7485 H   0  0  0  0  0  0
  -27.8858  -11.2625   18.8916 H   0  0  0  0  0  0
  -27.3813  -12.5144   17.7864 H   0  0  0  0  0  0
  -27.6455  -14.2212   19.4575 H   0  0  0  0  0  0
  -28.6943  -12.0778   21.3881 H   0  0  0  0  0  0
  -28.4295  -13.7422   21.8146 H   0  0  0  0  0  0
  -25.2733   -9.5676   22.4775 H   0  0  0  0  0  0
  -23.9974   -7.4629   22.7483 H   0  0  0  0  0  0
  -21.0813   -8.8767   19.8964 H   0  0  0  0  0  0
  -22.3664  -10.9669   19.6171 H   0  0  0  0  0  0
  -21.1996   -7.6140   23.9707 H   0  0  0  0  0  0
  -21.1478   -6.0530   25.9086 H   0  0  0  0  0  0
  -22.0590   -2.7595   23.2876 H   0  0  0  0  0  0
  -22.4077  -11.9900   22.4789 H   0  0  0  0  0  0
  -21.1133  -13.1320   22.2607 H   0  0  0  0  0  0
  -24.6605  -15.8354   20.4874 H   0  0  0  0  0  0
  -26.2581  -15.6056   19.9890 H   0  0  0  0  0  0
  -26.7153  -32.5488   23.1131 H   0  0  0  0  0  0
  -25.0073  -33.9755   25.0453 H   0  0  0  0  0  0
  -22.7090  -31.3023   21.3989 H   0  0  0  0  0  0
  -23.3750  -35.9646   23.3310 H   0  0  0  0  0  0
  -24.3584  -36.8910   22.2052 H   0  0  0  0  0  0
  -23.7259  -37.6515   23.6651 H   0  0  0  0  0  0
  -26.0800  -31.5636   20.6015 H   0  0  0  0  0  0
  -26.8367  -30.8576   21.9992 H   0  0  0  0  0  0
  -28.1198  -29.0193   21.1989 H   0  0  0  0  0  0
  -26.0473  -25.9356   19.0191 H   0  0  0  0  0  0
  -23.9847  -27.2958   19.0219 H   0  0  0  0  0  0
  -23.7521  -30.5905   19.4031 H   0  0  0  0  0  0
  -22.7571  -29.2408   19.8604 H   0  0  0  0  0  0
  -25.1294  -36.1952   25.0827 H   0  0  0  0  0  0
  -21.0008  -28.3278   24.1418 H   0  0  0  0  0  0
  -20.5708  -26.2300   23.3619 H   0  0  0  0  0  0
  -21.6663  -26.7471   22.1203 H   0  0  0  0  0  0
  -19.6954  -25.6316   21.1240 H   0  0  0  0  0  0
  -19.6751  -27.3212   20.6745 H   0  0  0  0  0  0
  -17.4234  -26.6675   21.4011 H   0  0  0  0  0  0
  -18.0367  -26.0078   22.9007 H   0  0  0  0  0  0
  -19.7933  -30.7273   24.2294 H   0  0  0  0  0  0
  -17.5019  -31.6271   24.5158 H   0  0  0  0  0  0
  -15.5357  -30.2985   23.7638 H   0  0  0  0  0  0
  -15.8701  -28.0816   22.7058 H   0  0  0  0  0  0
  -24.5907  -30.7066   25.7781 H   0  0  0  0  0  0
  -24.8931  -32.2877   26.4891 H   0  0  0  0  0  0
  -25.8062  -30.8879   27.0221 H   0  0  0  0  0  0
  -26.2906  -29.6762   24.1189 H   0  0  0  0  0  0
  -27.4066  -29.7269   25.4641 H   0  0  0  0  0  0
  -27.8758  -30.4320   23.9355 H   0  0  0  0  0  0
  -27.2676  -33.3604   26.2093 H   0  0  0  0  0  0
  -28.3860  -32.6881   25.0316 H   0  0  0  0  0  0
  -28.0741  -31.8424   26.5389 H   0  0  0  0  0  0
  -28.2601  -38.0101   24.7492 H   0  0  0  0  0  0
  -28.1073  -36.2626   24.6311 H   0  0  0  0  0  0
  -27.2294  -37.1481   25.8869 H   0  0  0  0  0  0
  -20.9346  -29.8757   21.6899 H   0  0  0  0  0  0
  -26.0180  -38.2859   24.1386 H   0  0  0  0  0  0
  -26.9666  -21.4066   19.2791 H   0  0  0  0  0  0
  -31.1819  -17.3383   20.3311 H   0  0  0  0  0  0
  -28.6721  -15.6653   20.6727 H   0  0  0  0  0  0
  -28.7574  -26.4419   22.0353 H   0  0  0  0  0  0
  -30.4127  -19.7451   21.0803 H   0  0  0  0  0  0
  -25.2805  -19.7539   18.5434 H   0  0  0  0  0  0
  -25.7266  -18.1430   18.3202 H   0  0  0  0  0  0
  -29.5804  -22.1549   21.6615 H   0  0  0  0  0  0
  -29.2867  -24.7849   23.1411 H   0  0  0  0  0  0
  1 25  1  0  0  0
  1 30  2  0  0  0
  1 77  1  0  0  0
  2  3  1  0  0  0
  2 25  1  0  0  0
  2 87  1  0  0  0
  2 88  1  0  0  0
  3  4  1  0  0  0
  3 89  1  0  0  0
  3 90  1  0  0  0
  4  5  1  0  0  0
  4 91  1  0  0  0
  4 92  1  0  0  0
  5  6  1  0  0  0
  5 26  1  0  0  0
  5 93  1  0  0  0
  6 25  1  0  0  0
  6 94  1  0  0  0
  6 95  1  0  0  0
  7  8  2  0  0  0
  7 26  1  0  0  0
  7 29  1  0  0  0
  8  9  1  0  0  0
  8 22  1  0  0  0
  9 10  1  0  0  0
  9 27  2  0  0  0
 10 11  2  0  0  0
 10 15  1  0  0  0
 11 12  1  0  0  0
 11 96  1  0  0  0
 12 13  2  0  0  0
 12 97  1  0  0  0
 13 14  1  0  0  0
 13 31  1  0  0  0
 14 15  2  0  0  0
 14 98  1  0  0  0
 15 99  1  0  0  0
 16 17  2  0  0  0
 16 21  1  0  0  0
 16 31  1  0  0  0
 17 18  1  0  0  0
 17100  1  0  0  0
 18 19  2  0  0  0
 18101  1  0  0  0
 19 20  1  0  0  0
 19 24  1  0  0  0
 20 21  2  0  0  0
 20102  1  0  0  0
 21 23  1  0  0  0
 22 28  1  0  0  0
 22 32  2  0  0  0
 26 27  1  0  0  0
 28103  1  0  0  0
 28104  1  0  0  0
 29105  1  0  0  0
 29106  1  0  0  0
 33 34  1  0  0  0
 33 66  1  0  0  0
 33 70  2  0  0  0
 34 36  1  0  0  0
 34 59  1  0  0  0
 34107  1  0  0  0
 35 44  2  0  0  0
 35 45  1  0  0  0
 35 68  1  0  0  0
 36 56  1  0  0  0
 36108  1  0  0  0
 37 39  1  0  0  0
 37 47  1  0  0  0
 37 66  1  0  0  0
 37109  1  0  0  0
 38 43  2  0  0  0
 38 46  1  0  0  0
 38 47  1  0  0  0
 39 64  1  0  0  0
 39 67  2  0  0  0
 40 52  1  0  0  0
 40 53  2  0  0  0
 40 58  1  0  0  0
 41110  1  0  0  0
 41111  1  0  0  0
 41112  1  0  0  0
 41 48  1  0  0  0
 42 43  1  0  0  0
 42 66  1  0  0  0
 42113  1  0  0  0
 42114  1  0  0  0
 43 44  1  0  0  0
 44115  1  0  0  0
 45 46  2  0  0  0
 45116  1  0  0  0
 46117  1  0  0  0
 47118  1  0  0  0
 47119  1  0  0  0
 48 56  1  0  0  0
 48 65  1  0  0  0
 48120  1  0  0  0
 49 50  1  0  0  0
 49 53  1  0  0  0
 49 64  1  0  0  0
 49121  1  0  0  0
 50 51  1  0  0  0
 50122  1  0  0  0
 50123  1  0  0  0
 51 52  1  0  0  0
 51124  1  0  0  0
 51125  1  0  0  0
 52126  1  0  0  0
 52127  1  0  0  0
 53 54  1  0  0  0
 54 55  2  0  0  0
 54128  1  0  0  0
 55 57  1  0  0  0
 55129  1  0  0  0
 56 69  2  0  0  0
 57 58  2  0  0  0
 57130  1  0  0  0
 58131  1  0  0  0
 59 60  1  0  0  0
 59 61  1  0  0  0
 59 62  1  0  0  0
 60132  1  0  0  0
 60133  1  0  0  0
 60134  1  0  0  0
 61135  1  0  0  0
 61136  1  0  0  0
 61137  1  0  0  0
 62138  1  0  0  0
 62139  1  0  0  0
 62140  1  0  0  0
 63 65  1  0  0  0
 63141  1  0  0  0
 63142  1  0  0  0
 63143  1  0  0  0
 64144  1  0  0  0
 65145  1  0  0  0
 68 78  1  0  0  0
 71 72  2  0  0  0
 71 75  1  0  0  0
 71146  1  0  0  0
 72 73  1  0  0  0
 72 82  1  0  0  0
 73 74  2  0  0  0
 73 86  1  0  0  0
 74 76  1  0  0  0
 74 81  1  0  0  0
 75 81  2  0  0  0
 75 83  1  0  0  0
 76 77  2  0  0  0
 76147  1  0  0  0
 77148  1  0  0  0
 78 79  2  0  0  0
 78149  1  0  0  0
 79 80  1  0  0  0
 79 85  1  0  0  0
 80 83  1  0  0  0
 80 84  2  0  0  0
 81150  1  0  0  0
 82151  1  0  0  0
 82152  1  0  0  0
 83153  1  0  0  0
 85154  1  0  0  0
M  CHG  1  81   1
M  ISO  4   1 100  68 101  77 100  78 101
M  END
> <chiral flag>
0

> <version>
0

> <s_m_source_file>
/data/baiqing/PycharmProjects/Reinvent-master-3.2/result/LINK_invent/BTK/process_docking_weight1_custom_product_contain_oxygen_bond_distance_aromatic_linkinvent_7_9_3/rearranged_h_0175.sdf

> <i_m_source_file_index>
88

> <r_mmod_Potential_Energy-OPLS-2005>
6.0946798324585

> <r_mmod_Stretch_Energy-OPLS-2005>
73.7027206420898

> <r_mmod_Bend_Energy-OPLS-2005>
132.12158203125

> <r_mmod_Torsional_Energy-OPLS-2005>
231.570846557617

> <r_mmod_Improper_Torsional_Energy-OPLS-2005>
14.7020444869995

> <r_mmod_Van_der_Waal_Energy-OPLS-2005>
151.261917114258

> <r_mmod_Electrostatic_Energy-OPLS-2005>
-192.620590209961

> <r_mmod_Solvation_Energy-OPLS-2005>
-449.768493652344

> <b_mmod_Minimization_Converged-OPLS-2005>
0

> <r_mmod_RMS_Derivative-OPLS-2005>
1.49920356273651

$$$$
89
                    3D
 Structure written by MMmdl.
161169  0  0  1  0            999 V2000
  -30.6941  -14.4301   20.5912 C   0  0  0  0  0  0
  -30.4364  -12.2798   19.4335 C   0  0  0  0  0  0
  -29.5069  -12.4889   18.2193 C   0  0  0  0  0  0
  -28.0280  -12.3508   18.6331 C   0  0  0  0  0  0
  -27.6728  -13.1883   19.8888 C   0  0  2  0  0  0
  -28.7083  -12.9454   21.0108 C   0  0  0  0  0  0
  -25.2684  -13.8111   20.5717 C   0  0  0  0  0  0
  -24.1891  -13.0416   20.9152 C   0  0  0  0  0  0
  -24.6408  -11.6879   20.8720 C   0  0  0  0  0  0
  -23.9078  -10.4283   21.0412 C   0  0  0  0  0  0
  -24.3623   -9.4198   21.9191 C   0  0  0  0  0  0
  -23.6293   -8.2241   22.0754 C   0  0  0  0  0  0
  -22.4289   -8.0276   21.3535 C   0  0  0  0  0  0
  -21.9931   -9.0263   20.4659 C   0  0  0  0  0  0
  -22.7260  -10.2135   20.3069 C   0  0  0  0  0  0
  -21.6833   -6.0736   22.5277 C   0  0  0  0  0  0
  -21.4009   -6.5645   23.8212 C   0  0  0  0  0  0
  -21.3666   -5.6804   24.9174 C   0  0  0  0  0  0
  -21.6048   -4.3065   24.7238 C   0  0  0  0  0  0
  -21.8821   -3.8156   23.4359 C   0  0  0  0  0  0
  -21.9186   -4.6961   22.3404 C   0  0  0  0  0  0
  -22.7932  -13.5241   21.1850 C   0  0  0  0  0  0
  -22.1654   -4.2139   21.0980 F   0  0  0  0  0  0
  -21.5638   -3.4559   25.7758 F   0  0  0  0  0  0
  -30.0519  -13.2423   20.4727 N   0  0  0  0  0  0
  -26.3095  -12.9234   20.3421 N   0  0  0  0  0  0
  -25.9330  -11.6418   20.5785 N   0  0  0  0  0  0
  -22.0590  -12.8215   22.0394 N   0  0  0  0  0  0
  -25.4512  -15.1837   20.4205 N   0  0  0  0  0  0
  -31.7877  -14.6717   20.0623 O   0  0  0  0  0  0
  -21.6630   -6.8887   21.4247 O   0  0  0  0  0  0
  -22.3604  -14.5544   20.6710 O   0  0  0  0  0  0
  -24.6076  -31.8746   23.2124 C   0  0  0  0  0  0
  -25.8980  -32.4870   23.8433 C   0  0  1  0  0  0
  -27.2410  -27.4718   20.0837 C   0  0  0  0  0  0
  -25.5853  -33.8653   24.2352 N   0  0  0  0  0  0
  -23.3971  -30.4953   21.5523 C   0  0  2  0  0  0
  -24.8394  -28.9593   20.1202 C   0  0  0  0  0  0
  -22.7391  -29.4685   22.5028 C   0  0  0  0  0  0
  -18.0263  -28.1307   22.8438 C   0  0  0  0  0  0
  -24.1494  -36.7323   23.2644 C   0  0  0  0  0  0
  -25.9198  -30.8510   21.3574 C   0  0  0  0  0  0
  -25.9962  -29.4863   20.7070 C   0  0  0  0  0  0
  -27.1964  -28.7482   20.6856 C   0  0  0  0  0  0
  -26.0619  -26.9470   19.5019 C   0  0  0  0  0  0
  -24.8650  -27.6889   19.5185 C   0  0  0  0  0  0
  -23.6001  -29.8203   20.1695 C   0  0  0  0  0  0
  -25.4118  -36.3133   24.0359 C   0  0  1  0  0  0
  -20.5848  -28.3626   23.1303 C   0  0  2  0  0  0
  -20.6777  -26.9385   22.5357 C   0  0  0  0  0  0
  -19.5749  -26.6401   21.5160 C   0  0  0  0  0  0
  -18.1945  -26.7864   22.1568 C   0  0  0  0  0  0
  -19.1499  -28.8778   23.2883 C   0  0  0  0  0  0
  -18.9369  -30.1376   23.8879 C   0  0  0  0  0  0
  -17.6347  -30.6478   24.0513 C   0  0  0  0  0  0
  -25.9033  -34.9492   23.5153 C   0  0  0  0  0  0
  -16.5266  -29.8964   23.6217 C   0  0  0  0  0  0
  -16.7248  -28.6386   23.0250 C   0  0  0  0  0  0
  -26.4412  -31.6639   25.0738 C   0  0  0  0  0  0
  -25.3694  -31.3716   26.1506 C   0  0  0  0  0  0
  -27.0225  -30.3103   24.6054 C   0  0  0  0  0  0
  -27.6036  -32.4331   25.7462 C   0  0  0  0  0  0
  -27.5598  -37.1810   24.8460 C   0  0  0  0  0  0
  -21.4132  -29.3019   22.3745 N   0  0  0  0  0  0
  -26.4312  -37.3799   23.9404 N   0  0  0  0  0  0
  -24.6612  -31.0859   22.1016 N   0  0  0  0  0  0
  -23.4200  -28.8259   23.3072 O   0  0  0  0  0  0
  -28.4542  -26.8141   20.0941 O   0  0  0  0  0  0
  -26.5590  -34.8927   22.4707 O   0  0  0  0  0  0
  -23.5283  -32.1475   23.7538 O   0  0  0  0  0  0
  -29.2239  -16.7158   19.3795 C   0  0  0  0  0  0
  -28.7208  -17.9321   18.8813 C   0  0  0  0  0  0
  -28.5889  -19.0169   19.7662 C   0  0  0  0  0  0
  -29.5756  -16.6068   20.7447 C   0  0  0  0  0  0
  -28.9405  -18.8325   21.1285 C   0  0  0  0  0  0
  -27.9874  -24.5366   20.8623 C   0  0  0  0  0  0
  -28.6451  -22.1368   21.1579 C   0  0  0  0  0  0
  -26.8572  -18.4562   17.2016 C   0  0  0  0  0  0
  -28.3310  -18.0649   17.4164 C   0  0  0  0  0  0
  -27.6722  -23.1004   20.4783 C   0  0  0  0  0  0
  -28.5208  -25.4331   19.7353 C   0  0  0  0  0  0
  -28.0325  -21.0175   22.0223 C   0  0  2  0  0  0
  -29.4102  -17.6507   21.5893 N   0  0  0  0  0  0
  -30.0084  -15.3629   21.2639 N   0  0  0  0  0  0
  -28.8542  -19.8110   22.1271 N   0  0  0  0  0  0
  -27.8091  -24.9560   22.0150 O   0  0  0  0  0  0
  -29.8695  -22.2314   20.9948 O   0  0  0  0  0  0
  -28.1327  -20.1963   19.2862 F   0  0  0  0  0  0
  -26.7997  -20.6910   21.6208 F   0  0  0  0  0  0
  -31.4833  -12.3798   19.1374 H   0  0  0  0  0  0
  -30.3390  -11.2700   19.8316 H   0  0  0  0  0  0
  -29.7448  -11.7675   17.4361 H   0  0  0  0  0  0
  -29.6802  -13.4761   17.7874 H   0  0  0  0  0  0
  -27.8408  -11.2945   18.8304 H   0  0  0  0  0  0
  -27.3764  -12.6231   17.8043 H   0  0  0  0  0  0
  -27.7276  -14.2361   19.5980 H   0  0  0  0  0  0
  -28.6802  -11.9097   21.3479 H   0  0  0  0  0  0
  -28.4571  -13.5310   21.8965 H   0  0  0  0  0  0
  -25.2756   -9.5649   22.4781 H   0  0  0  0  0  0
  -23.9980   -7.4622   22.7459 H   0  0  0  0  0  0
  -21.0871   -8.8814   19.8949 H   0  0  0  0  0  0
  -22.3743  -10.9687   19.6189 H   0  0  0  0  0  0
  -21.2007   -7.6154   23.9705 H   0  0  0  0  0  0
  -21.1472   -6.0541   25.9067 H   0  0  0  0  0  0
  -22.0591   -2.7615   23.2872 H   0  0  0  0  0  0
  -22.4201  -11.9845   22.4709 H   0  0  0  0  0  0
  -21.1222  -13.1254   22.2612 H   0  0  0  0  0  0
  -24.7053  -15.8524   20.5776 H   0  0  0  0  0  0
  -26.3190  -15.6172   20.1325 H   0  0  0  0  0  0
  -26.7058  -32.5608   23.1236 H   0  0  0  0  0  0
  -24.9999  -33.9843   25.0491 H   0  0  0  0  0  0
  -22.6882  -31.3139   21.4156 H   0  0  0  0  0  0
  -23.3772  -35.9632   23.3306 H   0  0  0  0  0  0
  -24.3544  -36.8900   22.2040 H   0  0  0  0  0  0
  -23.7223  -37.6544   23.6622 H   0  0  0  0  0  0
  -26.0184  -31.6207   20.5915 H   0  0  0  0  0  0
  -26.8125  -30.9116   21.9688 H   0  0  0  0  0  0
  -28.0952  -29.1527   21.1326 H   0  0  0  0  0  0
  -26.0420  -25.9791   19.0247 H   0  0  0  0  0  0
  -23.9711  -27.2780   19.0683 H   0  0  0  0  0  0
  -23.7002  -30.5857   19.4012 H   0  0  0  0  0  0
  -22.7261  -29.2321   19.8826 H   0  0  0  0  0  0
  -25.1285  -36.2048   25.0851 H   0  0  0  0  0  0
  -20.9995  -28.3133   24.1408 H   0  0  0  0  0  0
  -21.6634  -26.7453   22.1116 H   0  0  0  0  0  0
  -20.5674  -26.2235   23.3511 H   0  0  0  0  0  0
  -19.6915  -25.6368   21.1085 H   0  0  0  0  0  0
  -19.6648  -27.3272   20.6751 H   0  0  0  0  0  0
  -17.4266  -26.6603   21.3937 H   0  0  0  0  0  0
  -18.0310  -25.9975   22.8911 H   0  0  0  0  0  0
  -19.7830  -30.7219   24.2257 H   0  0  0  0  0  0
  -17.4834  -31.6163   24.5108 H   0  0  0  0  0  0
  -15.5225  -30.2806   23.7435 H   0  0  0  0  0  0
  -15.8726  -28.0644   22.6876 H   0  0  0  0  0  0
  -24.5845  -30.7097   25.7805 H   0  0  0  0  0  0
  -24.8910  -32.2881   26.5000 H   0  0  0  0  0  0
  -25.8047  -30.8830   27.0246 H   0  0  0  0  0  0
  -26.2755  -29.6919   24.1094 H   0  0  0  0  0  0
  -27.4031  -29.7270   25.4444 H   0  0  0  0  0  0
  -27.8570  -30.4451   23.9166 H   0  0  0  0  0  0
  -27.2701  -33.3624   26.2091 H   0  0  0  0  0  0
  -28.3796  -32.6903   25.0239 H   0  0  0  0  0  0
  -28.0791  -31.8451   26.5326 H   0  0  0  0  0  0
  -28.2635  -38.0099   24.7504 H   0  0  0  0  0  0
  -28.1095  -36.2626   24.6322 H   0  0  0  0  0  0
  -27.2280  -37.1478   25.8854 H   0  0  0  0  0  0
  -20.9336  -29.8626   21.6844 H   0  0  0  0  0  0
  -26.0246  -38.2894   24.1419 H   0  0  0  0  0  0
  -29.3222  -15.8797   18.7013 H   0  0  0  0  0  0
  -26.6049  -18.4039   16.1422 H   0  0  0  0  0  0
  -26.6501  -19.4742   17.5356 H   0  0  0  0  0  0
  -26.1884  -17.7820   17.7396 H   0  0  0  0  0  0
  -28.5224  -17.1209   16.9038 H   0  0  0  0  0  0
  -28.9842  -18.8019   16.9476 H   0  0  0  0  0  0
  -27.7571  -22.9797   19.3975 H   0  0  0  0  0  0
  -26.6422  -22.8796   20.7501 H   0  0  0  0  0  0
  -28.0173  -25.2352   18.7885 H   0  0  0  0  0  0
  -29.5681  -25.1759   19.5793 H   0  0  0  0  0  0
  -27.9081  -21.4348   23.0220 H   0  0  0  0  0  0
  -29.3746  -14.9714   21.9428 H   0  0  0  0  0  0
  -29.1107  -19.5261   23.0617 H   0  0  0  0  0  0
  1 25  1  0  0  0
  1 30  2  0  0  0
  1 84  1  0  0  0
  2  3  1  0  0  0
  2 25  1  0  0  0
  2 90  1  0  0  0
  2 91  1  0  0  0
  3  4  1  0  0  0
  3 92  1  0  0  0
  3 93  1  0  0  0
  4  5  1  0  0  0
  4 94  1  0  0  0
  4 95  1  0  0  0
  5  6  1  0  0  0
  5 26  1  0  0  0
  5 96  1  0  0  0
  6 25  1  0  0  0
  6 97  1  0  0  0
  6 98  1  0  0  0
  7  8  2  0  0  0
  7 26  1  0  0  0
  7 29  1  0  0  0
  8  9  1  0  0  0
  8 22  1  0  0  0
  9 10  1  0  0  0
  9 27  2  0  0  0
 10 11  2  0  0  0
 10 15  1  0  0  0
 11 12  1  0  0  0
 11 99  1  0  0  0
 12 13  2  0  0  0
 12100  1  0  0  0
 13 14  1  0  0  0
 13 31  1  0  0  0
 14 15  2  0  0  0
 14101  1  0  0  0
 15102  1  0  0  0
 16 17  2  0  0  0
 16 21  1  0  0  0
 16 31  1  0  0  0
 17 18  1  0  0  0
 17103  1  0  0  0
 18 19  2  0  0  0
 18104  1  0  0  0
 19 20  1  0  0  0
 19 24  1  0  0  0
 20 21  2  0  0  0
 20105  1  0  0  0
 21 23  1  0  0  0
 22 28  1  0  0  0
 22 32  2  0  0  0
 26 27  1  0  0  0
 28106  1  0  0  0
 28107  1  0  0  0
 29108  1  0  0  0
 29109  1  0  0  0
 33 34  1  0  0  0
 33 66  1  0  0  0
 33 70  2  0  0  0
 34 36  1  0  0  0
 34 59  1  0  0  0
 34110  1  0  0  0
 35 44  2  0  0  0
 35 45  1  0  0  0
 35 68  1  0  0  0
 36 56  1  0  0  0
 36111  1  0  0  0
 37 39  1  0  0  0
 37 47  1  0  0  0
 37 66  1  0  0  0
 37112  1  0  0  0
 38 43  2  0  0  0
 38 46  1  0  0  0
 38 47  1  0  0  0
 39 64  1  0  0  0
 39 67  2  0  0  0
 40 52  1  0  0  0
 40 53  2  0  0  0
 40 58  1  0  0  0
 41113  1  0  0  0
 41114  1  0  0  0
 41115  1  0  0  0
 41 48  1  0  0  0
 42 43  1  0  0  0
 42 66  1  0  0  0
 42116  1  0  0  0
 42117  1  0  0  0
 43 44  1  0  0  0
 44118  1  0  0  0
 45 46  2  0  0  0
 45119  1  0  0  0
 46120  1  0  0  0
 47121  1  0  0  0
 47122  1  0  0  0
 48 56  1  0  0  0
 48 65  1  0  0  0
 48123  1  0  0  0
 49 50  1  0  0  0
 49 53  1  0  0  0
 49 64  1  0  0  0
 49124  1  0  0  0
 50 51  1  0  0  0
 50125  1  0  0  0
 50126  1  0  0  0
 51 52  1  0  0  0
 51127  1  0  0  0
 51128  1  0  0  0
 52129  1  0  0  0
 52130  1  0  0  0
 53 54  1  0  0  0
 54 55  2  0  0  0
 54131  1  0  0  0
 55 57  1  0  0  0
 55132  1  0  0  0
 56 69  2  0  0  0
 57 58  2  0  0  0
 57133  1  0  0  0
 58134  1  0  0  0
 59 60  1  0  0  0
 59 61  1  0  0  0
 59 62  1  0  0  0
 60135  1  0  0  0
 60136  1  0  0  0
 60137  1  0  0  0
 61138  1  0  0  0
 61139  1  0  0  0
 61140  1  0  0  0
 62141  1  0  0  0
 62142  1  0  0  0
 62143  1  0  0  0
 63 65  1  0  0  0
 63144  1  0  0  0
 63145  1  0  0  0
 63146  1  0  0  0
 64147  1  0  0  0
 65148  1  0  0  0
 68 81  1  0  0  0
 71 72  2  0  0  0
 71 74  1  0  0  0
 71149  1  0  0  0
 72 73  1  0  0  0
 72 79  1  0  0  0
 73 75  2  0  0  0
 73 88  1  0  0  0
 74 83  2  0  0  0
 74 84  1  0  0  0
 75 83  1  0  0  0
 75 85  1  0  0  0
 76 80  1  0  0  0
 76 81  1  0  0  0
 76 86  2  0  0  0
 77 80  1  0  0  0
 77 82  1  0  0  0
 77 87  2  0  0  0
 78 79  1  0  0  0
 78150  1  0  0  0
 78151  1  0  0  0
 78152  1  0  0  0
 79153  1  0  0  0
 79154  1  0  0  0
 80155  1  0  0  0
 80156  1  0  0  0
 81157  1  0  0  0
 81158  1  0  0  0
 82 85  1  0  0  0
 82 89  1  0  0  0
 82159  1  0  0  0
 84160  1  0  0  0
 85161  1  0  0  0
M  ISO  4   1 100  68 101  81 101  84 100
M  END
> <chiral flag>
0

> <version>
0

> <s_m_source_file>
/data/baiqing/PycharmProjects/Reinvent-master-3.2/result/LINK_invent/BTK/process_docking_weight1_custom_product_contain_oxygen_bond_distance_aromatic_linkinvent_7_9_3/rearranged_h_0175.sdf

> <i_m_source_file_index>
89

> <r_mmod_Potential_Energy-OPLS-2005>
-265.221557617188

> <r_mmod_Stretch_Energy-OPLS-2005>
33.6710891723633

> <r_mmod_Bend_Energy-OPLS-2005>
119.489364624023

> <r_mmod_Torsional_Energy-OPLS-2005>
243.491287231445

> <r_mmod_Improper_Torsional_Energy-OPLS-2005>
6.31846189498901

> <r_mmod_Van_der_Waal_Energy-OPLS-2005>
164.928649902344

> <r_mmod_Electrostatic_Energy-OPLS-2005>
-586.679504394531

> <r_mmod_Solvation_Energy-OPLS-2005>
-256.936889648438

> <b_mmod_Minimization_Converged-OPLS-2005>
0

> <r_mmod_RMS_Derivative-OPLS-2005>
4.83439159393311

$$$$
90
                    3D
 Structure written by MMmdl.
153161  0  0  1  0            999 V2000
  -30.6695  -14.4875   20.5639 C   0  0  0  0  0  0
  -30.4301  -12.3114   19.4241 C   0  0  0  0  0  0
  -29.5006  -12.5122   18.2079 C   0  0  0  0  0  0
  -28.0189  -12.3740   18.6146 C   0  0  0  0  0  0
  -27.6643  -13.2033   19.8777 C   0  0  2  0  0  0
  -28.7043  -12.9663   20.9959 C   0  0  0  0  0  0
  -25.2604  -13.8152   20.5670 C   0  0  0  0  0  0
  -24.1845  -13.0437   20.9163 C   0  0  0  0  0  0
  -24.6395  -11.6899   20.8720 C   0  0  0  0  0  0
  -23.9060  -10.4292   21.0397 C   0  0  0  0  0  0
  -24.3613   -9.4208   21.9175 C   0  0  0  0  0  0
  -23.6288   -8.2246   22.0752 C   0  0  0  0  0  0
  -22.4266   -8.0286   21.3549 C   0  0  0  0  0  0
  -21.9900   -9.0257   20.4650 C   0  0  0  0  0  0
  -22.7232  -10.2135   20.3050 C   0  0  0  0  0  0
  -21.6855   -6.0736   22.5281 C   0  0  0  0  0  0
  -21.4021   -6.5640   23.8217 C   0  0  0  0  0  0
  -21.3654   -5.6790   24.9176 C   0  0  0  0  0  0
  -21.6039   -4.3052   24.7226 C   0  0  0  0  0  0
  -21.8818   -3.8148   23.4346 C   0  0  0  0  0  0
  -21.9194   -4.6965   22.3403 C   0  0  0  0  0  0
  -22.7872  -13.5243   21.1830 C   0  0  0  0  0  0
  -22.1660   -4.2151   21.0982 F   0  0  0  0  0  0
  -21.5621   -3.4536   25.7738 F   0  0  0  0  0  0
  -30.0360  -13.2871   20.4516 N   0  0  0  0  0  0
  -26.3036  -12.9314   20.3363 N   0  0  0  0  0  0
  -25.9319  -11.6476   20.5749 N   0  0  0  0  0  0
  -22.0502  -12.8246   22.0384 N   0  0  0  0  0  0
  -25.4346  -15.1869   20.4085 N   0  0  0  0  0  0
  -31.7979  -14.6885   20.1082 O   0  0  0  0  0  0
  -21.6637   -6.8879   21.4244 O   0  0  0  0  0  0
  -22.3564  -14.5554   20.6687 O   0  0  0  0  0  0
  -24.6149  -31.8668   23.2094 C   0  0  0  0  0  0
  -25.9039  -32.4816   23.8392 C   0  0  1  0  0  0
  -27.2327  -27.4317   20.0979 C   0  0  0  0  0  0
  -25.5894  -33.8613   24.2326 N   0  0  0  0  0  0
  -23.4044  -30.4893   21.5499 C   0  0  2  0  0  0
  -24.8533  -28.9564   20.1121 C   0  0  0  0  0  0
  -22.7418  -29.4644   22.4986 C   0  0  0  0  0  0
  -18.0276  -28.1372   22.8492 C   0  0  0  0  0  0
  -24.1488  -36.7315   23.2635 C   0  0  0  0  0  0
  -25.9335  -30.8323   21.3633 C   0  0  0  0  0  0
  -26.0139  -29.4671   20.7090 C   0  0  0  0  0  0
  -27.2111  -28.7121   20.6984 C   0  0  0  0  0  0
  -26.0601  -26.9374   19.4913 C   0  0  0  0  0  0
  -24.8714  -27.6910   19.4993 C   0  0  0  0  0  0
  -23.6137  -29.8216   20.1645 C   0  0  0  0  0  0
  -25.4104  -36.3106   24.0337 C   0  0  1  0  0  0
  -20.5866  -28.3660   23.1318 C   0  0  2  0  0  0
  -20.6766  -26.9394   22.5423 C   0  0  0  0  0  0
  -19.5747  -26.6381   21.5214 C   0  0  0  0  0  0
  -18.1922  -26.7923   22.1615 C   0  0  0  0  0  0
  -19.1525  -28.8834   23.2902 C   0  0  0  0  0  0
  -18.9451  -30.1441   23.8910 C   0  0  0  0  0  0
  -17.6453  -30.6578   24.0566 C   0  0  0  0  0  0
  -25.9031  -34.9470   23.5130 C   0  0  0  0  0  0
  -16.5345  -29.9079   23.6323 C   0  0  0  0  0  0
  -16.7264  -28.6496   23.0346 C   0  0  0  0  0  0
  -26.4468  -31.6590   25.0718 C   0  0  0  0  0  0
  -25.3735  -31.3709   26.1472 C   0  0  0  0  0  0
  -27.0288  -30.3029   24.6088 C   0  0  0  0  0  0
  -27.6051  -32.4299   25.7471 C   0  0  0  0  0  0
  -27.5581  -37.1808   24.8453 C   0  0  0  0  0  0
  -21.4143  -29.3025   22.3726 N   0  0  0  0  0  0
  -26.4290  -37.3787   23.9401 N   0  0  0  0  0  0
  -24.6691  -31.0765   22.0997 N   0  0  0  0  0  0
  -23.4186  -28.8183   23.3029 O   0  0  0  0  0  0
  -28.3589  -26.6407   20.1147 O   0  0  0  0  0  0
  -26.5592  -34.8921   22.4691 O   0  0  0  0  0  0
  -23.5340  -32.1423   23.7484 O   0  0  0  0  0  0
  -30.3028  -19.0010   20.1113 C   0  0  0  0  0  0
  -30.5914  -17.6028   20.0154 C   0  0  0  0  0  0
  -29.4182  -19.3257   21.1054 C   0  0  0  0  0  0
  -29.9453  -16.8115   20.9435 C   0  0  0  0  0  0
  -28.8085  -20.6048   21.5735 C   0  0  0  0  0  0
  -28.9527  -24.2608   20.6466 C   0  0  0  0  0  0
  -28.2557  -25.5758   21.0815 C   0  0  0  0  0  0
  -28.9846  -23.1025   21.6887 C   0  0  2  0  0  0
  -29.9272  -23.3788   22.8896 C   0  0  0  0  0  0
  -29.9302  -15.4563   21.1436 N   0  0  0  0  0  0
  -29.2887  -21.7717   21.0991 N   0  0  0  0  0  0
  -27.9091  -20.5872   22.4163 O   0  0  0  0  0  0
  -29.4302  -24.1509   19.5097 O   0  0  0  0  0  0
  -30.8403  -19.8865   19.3002 F   0  0  0  0  0  0
  -31.3875  -17.1422   19.0777 F   0  0  0  0  0  0
  -29.8930  -22.3869   23.7809 F   0  0  0  0  0  0
  -29.5891  -24.4982   23.5287 F   0  0  0  0  0  0
  -31.1828  -23.5116   22.4591 F   0  0  0  0  0  0
  -28.9271  -17.8507   21.9325 S   0  0  0  0  0  0
  -31.4746  -12.4189   19.1264 H   0  0  0  0  0  0
  -30.3362  -11.2977   19.8160 H   0  0  0  0  0  0
  -29.7416  -11.7909   17.4261 H   0  0  0  0  0  0
  -29.6715  -13.4990   17.7743 H   0  0  0  0  0  0
  -27.8219  -11.3175   18.7986 H   0  0  0  0  0  0
  -27.3742  -12.6629   17.7836 H   0  0  0  0  0  0
  -27.7129  -14.2539   19.5907 H   0  0  0  0  0  0
  -28.6837  -11.9233   21.3150 H   0  0  0  0  0  0
  -28.4596  -13.5417   21.8895 H   0  0  0  0  0  0
  -25.2761   -9.5684   22.4745 H   0  0  0  0  0  0
  -24.0003   -7.4636   22.7468 H   0  0  0  0  0  0
  -21.0833   -8.8776   19.8956 H   0  0  0  0  0  0
  -22.3691  -10.9671   19.6157 H   0  0  0  0  0  0
  -21.2021   -7.6147   23.9726 H   0  0  0  0  0  0
  -21.1468   -6.0515   25.9080 H   0  0  0  0  0  0
  -22.0600   -2.7610   23.2851 H   0  0  0  0  0  0
  -22.4104  -11.9901   22.4772 H   0  0  0  0  0  0
  -21.1127  -13.1290   22.2589 H   0  0  0  0  0  0
  -24.6700  -15.8444   20.5150 H   0  0  0  0  0  0
  -26.2878  -15.6234   20.0828 H   0  0  0  0  0  0
  -26.7113  -32.5529   23.1158 H   0  0  0  0  0  0
  -25.0056  -33.9776   25.0481 H   0  0  0  0  0  0
  -22.6930  -31.3058   21.4104 H   0  0  0  0  0  0
  -23.3739  -35.9659   23.3309 H   0  0  0  0  0  0
  -24.3593  -36.8917   22.2049 H   0  0  0  0  0  0
  -23.7257  -37.6531   23.6644 H   0  0  0  0  0  0
  -26.0455  -31.5997   20.5960 H   0  0  0  0  0  0
  -26.8208  -30.8861   21.9823 H   0  0  0  0  0  0
  -28.1068  -29.0983   21.1648 H   0  0  0  0  0  0
  -26.0646  -25.9635   19.0222 H   0  0  0  0  0  0
  -23.9794  -27.2924   19.0356 H   0  0  0  0  0  0
  -23.7200  -30.5963   19.4044 H   0  0  0  0  0  0
  -22.7380  -29.2402   19.8701 H   0  0  0  0  0  0
  -25.1281  -36.1973   25.0831 H   0  0  0  0  0  0
  -20.9956  -28.3229   24.1438 H   0  0  0  0  0  0
  -20.5660  -26.2265   23.3609 H   0  0  0  0  0  0
  -21.6639  -26.7434   22.1222 H   0  0  0  0  0  0
  -19.6908  -25.6295   21.1235 H   0  0  0  0  0  0
  -19.6690  -27.3200   20.6752 H   0  0  0  0  0  0
  -17.4197  -26.6686   21.4009 H   0  0  0  0  0  0
  -18.0309  -26.0056   22.8998 H   0  0  0  0  0  0
  -19.7927  -30.7259   24.2279 H   0  0  0  0  0  0
  -17.5006  -31.6259   24.5164 H   0  0  0  0  0  0
  -15.5345  -30.2985   23.7634 H   0  0  0  0  0  0
  -15.8664  -28.0818   22.7052 H   0  0  0  0  0  0
  -24.5899  -30.7061   25.7823 H   0  0  0  0  0  0
  -24.8936  -32.2871   26.4923 H   0  0  0  0  0  0
  -25.8089  -30.8880   27.0229 H   0  0  0  0  0  0
  -26.2832  -29.6803   24.1129 H   0  0  0  0  0  0
  -27.4048  -29.7252   25.4545 H   0  0  0  0  0  0
  -27.8674  -30.4351   23.9245 H   0  0  0  0  0  0
  -27.2683  -33.3588   26.2086 H   0  0  0  0  0  0
  -28.3836  -32.6872   25.0275 H   0  0  0  0  0  0
  -28.0745  -31.8396   26.5352 H   0  0  0  0  0  0
  -28.2596  -38.0108   24.7500 H   0  0  0  0  0  0
  -28.1080  -36.2641   24.6267 H   0  0  0  0  0  0
  -27.2308  -37.1449   25.8859 H   0  0  0  0  0  0
  -20.9300  -29.8755   21.6958 H   0  0  0  0  0  0
  -26.0181  -38.2866   24.1403 H   0  0  0  0  0  0
  -28.6884  -25.9404   22.0103 H   0  0  0  0  0  0
  -27.2126  -25.3386   21.2963 H   0  0  0  0  0  0
  -27.9745  -23.0594   22.0989 H   0  0  0  0  0  0
  -29.1248  -15.1082   21.6416 H   0  0  0  0  0  0
  -30.0072  -21.7500   20.3872 H   0  0  0  0  0  0
  1 25  1  0  0  0
  1 30  2  0  0  0
  1 80  1  0  0  0
  2  3  1  0  0  0
  2 25  1  0  0  0
  2 90  1  0  0  0
  2 91  1  0  0  0
  3  4  1  0  0  0
  3 92  1  0  0  0
  3 93  1  0  0  0
  4  5  1  0  0  0
  4 94  1  0  0  0
  4 95  1  0  0  0
  5  6  1  0  0  0
  5 26  1  0  0  0
  5 96  1  0  0  0
  6 25  1  0  0  0
  6 97  1  0  0  0
  6 98  1  0  0  0
  7  8  2  0  0  0
  7 26  1  0  0  0
  7 29  1  0  0  0
  8  9  1  0  0  0
  8 22  1  0  0  0
  9 10  1  0  0  0
  9 27  2  0  0  0
 10 11  2  0  0  0
 10 15  1  0  0  0
 11 12  1  0  0  0
 11 99  1  0  0  0
 12 13  2  0  0  0
 12100  1  0  0  0
 13 14  1  0  0  0
 13 31  1  0  0  0
 14 15  2  0  0  0
 14101  1  0  0  0
 15102  1  0  0  0
 16 17  2  0  0  0
 16 21  1  0  0  0
 16 31  1  0  0  0
 17 18  1  0  0  0
 17103  1  0  0  0
 18 19  2  0  0  0
 18104  1  0  0  0
 19 20  1  0  0  0
 19 24  1  0  0  0
 20 21  2  0  0  0
 20105  1  0  0  0
 21 23  1  0  0  0
 22 28  1  0  0  0
 22 32  2  0  0  0
 26 27  1  0  0  0
 28106  1  0  0  0
 28107  1  0  0  0
 29108  1  0  0  0
 29109  1  0  0  0
 33 34  1  0  0  0
 33 66  1  0  0  0
 33 70  2  0  0  0
 34 36  1  0  0  0
 34 59  1  0  0  0
 34110  1  0  0  0
 35 44  2  0  0  0
 35 45  1  0  0  0
 35 68  1  0  0  0
 36 56  1  0  0  0
 36111  1  0  0  0
 37 39  1  0  0  0
 37 47  1  0  0  0
 37 66  1  0  0  0
 37112  1  0  0  0
 38 43  2  0  0  0
 38 46  1  0  0  0
 38 47  1  0  0  0
 39 64  1  0  0  0
 39 67  2  0  0  0
 40 52  1  0  0  0
 40 53  2  0  0  0
 40 58  1  0  0  0
 41113  1  0  0  0
 41114  1  0  0  0
 41115  1  0  0  0
 41 48  1  0  0  0
 42 43  1  0  0  0
 42 66  1  0  0  0
 42116  1  0  0  0
 42117  1  0  0  0
 43 44  1  0  0  0
 44118  1  0  0  0
 45 46  2  0  0  0
 45119  1  0  0  0
 46120  1  0  0  0
 47121  1  0  0  0
 47122  1  0  0  0
 48 56  1  0  0  0
 48 65  1  0  0  0
 48123  1  0  0  0
 49 50  1  0  0  0
 49 53  1  0  0  0
 49 64  1  0  0  0
 49124  1  0  0  0
 50 51  1  0  0  0
 50125  1  0  0  0
 50126  1  0  0  0
 51 52  1  0  0  0
 51127  1  0  0  0
 51128  1  0  0  0
 52129  1  0  0  0
 52130  1  0  0  0
 53 54  1  0  0  0
 54 55  2  0  0  0
 54131  1  0  0  0
 55 57  1  0  0  0
 55132  1  0  0  0
 56 69  2  0  0  0
 57 58  2  0  0  0
 57133  1  0  0  0
 58134  1  0  0  0
 59 60  1  0  0  0
 59 61  1  0  0  0
 59 62  1  0  0  0
 60135  1  0  0  0
 60136  1  0  0  0
 60137  1  0  0  0
 61138  1  0  0  0
 61139  1  0  0  0
 61140  1  0  0  0
 62141  1  0  0  0
 62142  1  0  0  0
 62143  1  0  0  0
 63 65  1  0  0  0
 63144  1  0  0  0
 63145  1  0  0  0
 63146  1  0  0  0
 64147  1  0  0  0
 65148  1  0  0  0
 68 77  1  0  0  0
 71 72  1  0  0  0
 71 73  2  0  0  0
 71 84  1  0  0  0
 72 74  2  0  0  0
 72 85  1  0  0  0
 73 75  1  0  0  0
 73 89  1  0  0  0
 74 80  1  0  0  0
 74 89  1  0  0  0
 75 81  1  0  0  0
 75 82  2  0  0  0
 76 77  1  0  0  0
 76 78  1  0  0  0
 76 83  2  0  0  0
 77149  1  0  0  0
 77150  1  0  0  0
 78 79  1  0  0  0
 78 81  1  0  0  0
 78151  1  0  0  0
 79 86  1  0  0  0
 79 87  1  0  0  0
 79 88  1  0  0  0
 80152  1  0  0  0
 81153  1  0  0  0
M  ISO  4   1 100  68 101  77 101  80 100
M  END
> <chiral flag>
0

> <version>
0

> <s_m_source_file>
/data/baiqing/PycharmProjects/Reinvent-master-3.2/result/LINK_invent/BTK/process_docking_weight1_custom_product_contain_oxygen_bond_distance_aromatic_linkinvent_7_9_3/rearranged_h_0175.sdf

> <i_m_source_file_index>
90

> <r_mmod_Potential_Energy-OPLS-2005>
-205.459732055664

> <r_mmod_Stretch_Energy-OPLS-2005>
40.0833511352539

> <r_mmod_Bend_Energy-OPLS-2005>
103.902816772461

> <r_mmod_Torsional_Energy-OPLS-2005>
237.773132324219

> <r_mmod_Improper_Torsional_Energy-OPLS-2005>
3.62814354896545

> <r_mmod_Van_der_Waal_Energy-OPLS-2005>
135.756729125977

> <r_mmod_Electrostatic_Energy-OPLS-2005>
-504.917236328125

> <r_mmod_Solvation_Energy-OPLS-2005>
-236.190673828125

> <b_mmod_Minimization_Converged-OPLS-2005>
0

> <r_mmod_RMS_Derivative-OPLS-2005>
0.820699512958527

$$$$
91
                    3D
 Structure written by MMmdl.
156164  0  0  1  0            999 V2000
  -30.6608  -14.4286   20.6648 C   0  0  0  0  0  0
  -30.4385  -12.3290   19.3724 C   0  0  0  0  0  0
  -29.4905  -12.5706   18.1790 C   0  0  0  0  0  0
  -28.0086  -12.4184   18.5892 C   0  0  0  0  0  0
  -27.6666  -13.1979   19.8866 C   0  0  2  0  0  0
  -28.7069  -12.8680   20.9767 C   0  0  0  0  0  0
  -25.2586  -13.8145   20.5617 C   0  0  0  0  0  0
  -24.1859  -13.0443   20.9178 C   0  0  0  0  0  0
  -24.6406  -11.6897   20.8770 C   0  0  0  0  0  0
  -23.9072  -10.4299   21.0438 C   0  0  0  0  0  0
  -24.3637   -9.4197   21.9184 C   0  0  0  0  0  0
  -23.6306   -8.2241   22.0751 C   0  0  0  0  0  0
  -22.4265   -8.0314   21.3573 C   0  0  0  0  0  0
  -21.9925   -9.0276   20.4647 C   0  0  0  0  0  0
  -22.7269  -10.2143   20.3054 C   0  0  0  0  0  0
  -21.6838   -6.0772   22.5302 C   0  0  0  0  0  0
  -21.3996   -6.5663   23.8243 C   0  0  0  0  0  0
  -21.3656   -5.6801   24.9197 C   0  0  0  0  0  0
  -21.6045   -4.3067   24.7216 C   0  0  0  0  0  0
  -21.8823   -3.8170   23.4335 C   0  0  0  0  0  0
  -21.9177   -4.7004   22.3406 C   0  0  0  0  0  0
  -22.7889  -13.5255   21.1867 C   0  0  0  0  0  0
  -22.1652   -4.2207   21.0980 F   0  0  0  0  0  0
  -21.5639   -3.4542   25.7722 F   0  0  0  0  0  0
  -30.0378  -13.2368   20.4557 N   0  0  0  0  0  0
  -26.3033  -12.9291   20.3365 N   0  0  0  0  0  0
  -25.9307  -11.6469   20.5745 N   0  0  0  0  0  0
  -22.0502  -12.8268   22.0415 N   0  0  0  0  0  0
  -25.4256  -15.1868   20.4002 N   0  0  0  0  0  0
  -31.7346  -14.7279   20.1261 O   0  0  0  0  0  0
  -21.6623   -6.8917   21.4270 O   0  0  0  0  0  0
  -22.3613  -14.5576   20.6701 O   0  0  0  0  0  0
  -24.6118  -31.8704   23.2100 C   0  0  0  0  0  0
  -25.9026  -32.4837   23.8371 C   0  0  1  0  0  0
  -27.2321  -27.4593   20.1109 C   0  0  0  0  0  0
  -25.5896  -33.8643   24.2313 N   0  0  0  0  0  0
  -23.3950  -30.4985   21.5441 C   0  0  2  0  0  0
  -24.8449  -28.9624   20.1120 C   0  0  0  0  0  0
  -22.7383  -29.4735   22.4948 C   0  0  0  0  0  0
  -18.0274  -28.1372   22.8512 C   0  0  0  0  0  0
  -24.1476  -36.7324   23.2624 C   0  0  0  0  0  0
  -25.9189  -30.8466   21.3537 C   0  0  0  0  0  0
  -25.9984  -29.4783   20.7143 C   0  0  0  0  0  0
  -27.1962  -28.7317   20.7174 C   0  0  0  0  0  0
  -26.0720  -26.9537   19.4918 C   0  0  0  0  0  0
  -24.8752  -27.6964   19.4967 C   0  0  0  0  0  0
  -23.6040  -29.8260   20.1601 C   0  0  0  0  0  0
  -25.4099  -36.3142   24.0326 C   0  0  1  0  0  0
  -20.5868  -28.3675   23.1290 C   0  0  2  0  0  0
  -20.6769  -26.9397   22.5416 C   0  0  0  0  0  0
  -19.5743  -26.6373   21.5210 C   0  0  0  0  0  0
  -18.1913  -26.7917   22.1631 C   0  0  0  0  0  0
  -19.1534  -28.8830   23.2909 C   0  0  0  0  0  0
  -18.9469  -30.1440   23.8914 C   0  0  0  0  0  0
  -17.6477  -30.6577   24.0577 C   0  0  0  0  0  0
  -25.9021  -34.9511   23.5106 C   0  0  0  0  0  0
  -16.5366  -29.9090   23.6313 C   0  0  0  0  0  0
  -16.7269  -28.6505   23.0333 C   0  0  0  0  0  0
  -26.4481  -31.6625   25.0710 C   0  0  0  0  0  0
  -25.3757  -31.3776   26.1467 C   0  0  0  0  0  0
  -27.0274  -30.3048   24.6085 C   0  0  0  0  0  0
  -27.6031  -32.4351   25.7503 C   0  0  0  0  0  0
  -27.5570  -37.1820   24.8456 C   0  0  0  0  0  0
  -21.4111  -29.3069   22.3692 N   0  0  0  0  0  0
  -26.4272  -37.3825   23.9430 N   0  0  0  0  0  0
  -24.6597  -31.0899   22.0934 N   0  0  0  0  0  0
  -23.4191  -28.8246   23.2919 O   0  0  0  0  0  0
  -28.3793  -26.7077   20.0711 O   0  0  0  0  0  0
  -26.5594  -34.8966   22.4668 O   0  0  0  0  0  0
  -23.5342  -32.1405   23.7551 O   0  0  0  0  0  0
  -30.3784  -18.1332   23.6084 C   0  0  0  0  0  0
  -30.5641  -19.2177   22.7336 C   0  0  0  0  0  0
  -30.5483  -18.9362   21.3487 C   0  0  0  0  0  0
  -30.3675  -17.6009   20.9146 C   0  0  0  0  0  0
  -30.2324  -16.5746   21.8844 C   0  0  0  0  0  0
  -29.4515  -22.4990   22.5657 C   0  0  0  0  0  0
  -30.8264  -20.5877   23.3679 C   0  0  0  0  0  0
  -29.5387  -24.0316   22.4974 C   0  0  0  0  0  0
  -28.6991  -24.6693   21.3697 C   0  0  0  0  0  0
  -28.8333  -26.2067   21.3296 C   0  0  0  0  0  0
  -30.2108  -16.8582   23.2073 N   0  0  0  0  0  0
  -29.9809  -15.2367   21.4969 N   0  0  0  0  0  0
  -30.6105  -21.8242   22.6115 N   0  0  0  0  0  0
  -28.3557  -21.9450   22.6671 O   0  0  0  0  0  0
  -30.7064  -19.9270   20.4335 F   0  0  0  0  0  0
  -30.2979  -17.3213   19.5887 F   0  0  0  0  0  0
  -31.4738  -12.4815   19.0618 H   0  0  0  0  0  0
  -30.3827  -11.2907   19.7018 H   0  0  0  0  0  0
  -29.7306  -11.8888   17.3614 H   0  0  0  0  0  0
  -29.6561  -13.5757   17.7851 H   0  0  0  0  0  0
  -27.7985  -11.3574   18.7228 H   0  0  0  0  0  0
  -27.3631  -12.7535   17.7755 H   0  0  0  0  0  0
  -27.7343  -14.2640   19.6687 H   0  0  0  0  0  0
  -28.6886  -11.7953   21.1803 H   0  0  0  0  0  0
  -28.4507  -13.3344   21.9282 H   0  0  0  0  0  0
  -25.2787   -9.5672   22.4756 H   0  0  0  0  0  0
  -24.0021   -7.4627   22.7457 H   0  0  0  0  0  0
  -21.0856   -8.8809   19.8941 H   0  0  0  0  0  0
  -22.3743  -10.9692   19.6170 H   0  0  0  0  0  0
  -21.1966   -7.6168   23.9769 H   0  0  0  0  0  0
  -21.1489   -6.0515   25.9113 H   0  0  0  0  0  0
  -22.0588   -2.7632   23.2811 H   0  0  0  0  0  0
  -22.4055  -11.9913   22.4833 H   0  0  0  0  0  0
  -21.1125  -13.1345   22.2587 H   0  0  0  0  0  0
  -24.6478  -15.8321   20.4869 H   0  0  0  0  0  0
  -26.2744  -15.6298   20.0731 H   0  0  0  0  0  0
  -26.7107  -32.5555   23.1158 H   0  0  0  0  0  0
  -25.0164  -33.9816   25.0539 H   0  0  0  0  0  0
  -22.6822  -31.3155   21.4046 H   0  0  0  0  0  0
  -23.3740  -35.9652   23.3323 H   0  0  0  0  0  0
  -24.3562  -36.8912   22.2025 H   0  0  0  0  0  0
  -23.7245  -37.6549   23.6619 H   0  0  0  0  0  0
  -26.0237  -31.6081   20.5774 H   0  0  0  0  0  0
  -26.8061  -30.9013   21.9720 H   0  0  0  0  0  0
  -28.0927  -29.1368   21.1682 H   0  0  0  0  0  0
  -26.0995  -25.9856   19.0104 H   0  0  0  0  0  0
  -23.9868  -27.2989   19.0240 H   0  0  0  0  0  0
  -23.7124  -30.6002   19.3992 H   0  0  0  0  0  0
  -22.7274  -29.2434   19.8664 H   0  0  0  0  0  0
  -25.1279  -36.1956   25.0817 H   0  0  0  0  0  0
  -20.9985  -28.3259   24.1407 H   0  0  0  0  0  0
  -20.5615  -26.2299   23.3625 H   0  0  0  0  0  0
  -21.6627  -26.7389   22.1230 H   0  0  0  0  0  0
  -19.6886  -25.6274   21.1234 H   0  0  0  0  0  0
  -19.6676  -27.3188   20.6742 H   0  0  0  0  0  0
  -17.4188  -26.6693   21.4026 H   0  0  0  0  0  0
  -18.0296  -26.0041   22.9005 H   0  0  0  0  0  0
  -19.7952  -30.7248   24.2274 H   0  0  0  0  0  0
  -17.5040  -31.6256   24.5177 H   0  0  0  0  0  0
  -15.5372  -30.3010   23.7602 H   0  0  0  0  0  0
  -15.8682  -28.0845   22.7014 H   0  0  0  0  0  0
  -24.5942  -30.7075   25.7887 H   0  0  0  0  0  0
  -24.8933  -32.2956   26.4836 H   0  0  0  0  0  0
  -25.8131  -30.9054   27.0273 H   0  0  0  0  0  0
  -26.2790  -29.6896   24.1072 H   0  0  0  0  0  0
  -27.3962  -29.7215   25.4545 H   0  0  0  0  0  0
  -27.8700  -30.4343   23.9279 H   0  0  0  0  0  0
  -27.2583  -33.3633   26.2087 H   0  0  0  0  0  0
  -28.3879  -32.6946   25.0378 H   0  0  0  0  0  0
  -28.0672  -31.8467   26.5443 H   0  0  0  0  0  0
  -28.2595  -38.0116   24.7528 H   0  0  0  0  0  0
  -28.1053  -36.2651   24.6217 H   0  0  0  0  0  0
  -27.2298  -37.1385   25.8863 H   0  0  0  0  0  0
  -20.9218  -29.8845   21.6998 H   0  0  0  0  0  0
  -26.0163  -38.2907   24.1463 H   0  0  0  0  0  0
  -30.3778  -18.2913   24.6787 H   0  0  0  0  0  0
  -31.8684  -20.5926   23.6955 H   0  0  0  0  0  0
  -30.2456  -20.6507   24.2910 H   0  0  0  0  0  0
  -30.5828  -24.3361   22.4006 H   0  0  0  0  0  0
  -29.2063  -24.4230   23.4607 H   0  0  0  0  0  0
  -27.6486  -24.4035   21.4848 H   0  0  0  0  0  0
  -29.0196  -24.2454   20.4178 H   0  0  0  0  0  0
  -29.8809  -26.4909   21.4384 H   0  0  0  0  0  0
  -28.3020  -26.6451   22.1785 H   0  0  0  0  0  0
  -29.1987  -14.7968   21.9555 H   0  0  0  0  0  0
  -31.4472  -22.3707   22.4442 H   0  0  0  0  0  0
  1 25  1  0  0  0
  1 30  2  0  0  0
  1 82  1  0  0  0
  2  3  1  0  0  0
  2 25  1  0  0  0
  2 87  1  0  0  0
  2 88  1  0  0  0
  3  4  1  0  0  0
  3 89  1  0  0  0
  3 90  1  0  0  0
  4  5  1  0  0  0
  4 91  1  0  0  0
  4 92  1  0  0  0
  5  6  1  0  0  0
  5 26  1  0  0  0
  5 93  1  0  0  0
  6 25  1  0  0  0
  6 94  1  0  0  0
  6 95  1  0  0  0
  7  8  2  0  0  0
  7 26  1  0  0  0
  7 29  1  0  0  0
  8  9  1  0  0  0
  8 22  1  0  0  0
  9 10  1  0  0  0
  9 27  2  0  0  0
 10 11  2  0  0  0
 10 15  1  0  0  0
 11 12  1  0  0  0
 11 96  1  0  0  0
 12 13  2  0  0  0
 12 97  1  0  0  0
 13 14  1  0  0  0
 13 31  1  0  0  0
 14 15  2  0  0  0
 14 98  1  0  0  0
 15 99  1  0  0  0
 16 17  2  0  0  0
 16 21  1  0  0  0
 16 31  1  0  0  0
 17 18  1  0  0  0
 17100  1  0  0  0
 18 19  2  0  0  0
 18101  1  0  0  0
 19 20  1  0  0  0
 19 24  1  0  0  0
 20 21  2  0  0  0
 20102  1  0  0  0
 21 23  1  0  0  0
 22 28  1  0  0  0
 22 32  2  0  0  0
 26 27  1  0  0  0
 28103  1  0  0  0
 28104  1  0  0  0
 29105  1  0  0  0
 29106  1  0  0  0
 33 34  1  0  0  0
 33 66  1  0  0  0
 33 70  2  0  0  0
 34 36  1  0  0  0
 34 59  1  0  0  0
 34107  1  0  0  0
 35 44  2  0  0  0
 35 45  1  0  0  0
 35 68  1  0  0  0
 36 56  1  0  0  0
 36108  1  0  0  0
 37 39  1  0  0  0
 37 47  1  0  0  0
 37 66  1  0  0  0
 37109  1  0  0  0
 38 43  2  0  0  0
 38 46  1  0  0  0
 38 47  1  0  0  0
 39 64  1  0  0  0
 39 67  2  0  0  0
 40 52  1  0  0  0
 40 53  2  0  0  0
 40 58  1  0  0  0
 41110  1  0  0  0
 41111  1  0  0  0
 41112  1  0  0  0
 41 48  1  0  0  0
 42 43  1  0  0  0
 42 66  1  0  0  0
 42113  1  0  0  0
 42114  1  0  0  0
 43 44  1  0  0  0
 44115  1  0  0  0
 45 46  2  0  0  0
 45116  1  0  0  0
 46117  1  0  0  0
 47118  1  0  0  0
 47119  1  0  0  0
 48 56  1  0  0  0
 48 65  1  0  0  0
 48120  1  0  0  0
 49 50  1  0  0  0
 49 53  1  0  0  0
 49 64  1  0  0  0
 49121  1  0  0  0
 50 51  1  0  0  0
 50122  1  0  0  0
 50123  1  0  0  0
 51 52  1  0  0  0
 51124  1  0  0  0
 51125  1  0  0  0
 52126  1  0  0  0
 52127  1  0  0  0
 53 54  1  0  0  0
 54 55  2  0  0  0
 54128  1  0  0  0
 55 57  1  0  0  0
 55129  1  0  0  0
 56 69  2  0  0  0
 57 58  2  0  0  0
 57130  1  0  0  0
 58131  1  0  0  0
 59 60  1  0  0  0
 59 61  1  0  0  0
 59 62  1  0  0  0
 60132  1  0  0  0
 60133  1  0  0  0
 60134  1  0  0  0
 61135  1  0  0  0
 61136  1  0  0  0
 61137  1  0  0  0
 62138  1  0  0  0
 62139  1  0  0  0
 62140  1  0  0  0
 63 65  1  0  0  0
 63141  1  0  0  0
 63142  1  0  0  0
 63143  1  0  0  0
 64144  1  0  0  0
 65145  1  0  0  0
 68 80  1  0  0  0
 71 72  2  0  0  0
 71 81  1  0  0  0
 71146  1  0  0  0
 72 73  1  0  0  0
 72 77  1  0  0  0
 73 74  2  0  0  0
 73 85  1  0  0  0
 74 75  1  0  0  0
 74 86  1  0  0  0
 75 81  2  0  0  0
 75 82  1  0  0  0
 76 78  1  0  0  0
 76 83  1  0  0  0
 76 84  2  0  0  0
 77 83  1  0  0  0
 77147  1  0  0  0
 77148  1  0  0  0
 78 79  1  0  0  0
 78149  1  0  0  0
 78150  1  0  0  0
 79 80  1  0  0  0
 79151  1  0  0  0
 79152  1  0  0  0
 80153  1  0  0  0
 80154  1  0  0  0
 82155  1  0  0  0
 83156  1  0  0  0
M  ISO  4   1 100  68 101  80 101  82 100
M  END
> <chiral flag>
0

> <version>
0

> <s_m_source_file>
/data/baiqing/PycharmProjects/Reinvent-master-3.2/result/LINK_invent/BTK/process_docking_weight1_custom_product_contain_oxygen_bond_distance_aromatic_linkinvent_7_9_3/rearranged_h_0175.sdf

> <i_m_source_file_index>
91

> <r_mmod_Potential_Energy-OPLS-2005>
-238.498428344727

> <r_mmod_Stretch_Energy-OPLS-2005>
33.9530982971191

> <r_mmod_Bend_Energy-OPLS-2005>
108.613594055176

> <r_mmod_Torsional_Energy-OPLS-2005>
248.981796264648

> <r_mmod_Improper_Torsional_Energy-OPLS-2005>
4.96541166305542

> <r_mmod_Van_der_Waal_Energy-OPLS-2005>
151.667510986328

> <r_mmod_Electrostatic_Energy-OPLS-2005>
-550.351440429688

> <r_mmod_Solvation_Energy-OPLS-2005>
-247.19743347168

> <b_mmod_Minimization_Converged-OPLS-2005>
0

> <r_mmod_RMS_Derivative-OPLS-2005>
4.19522523880005

$$$$
92
                    3D
 Structure written by MMmdl.
156164  0  0  1  0            999 V2000
  -30.6843  -14.4909   20.5049 C   0  0  0  0  0  0
  -30.4224  -12.2974   19.4373 C   0  0  0  0  0  0
  -29.4986  -12.4844   18.2145 C   0  0  0  0  0  0
  -28.0183  -12.3525   18.6239 C   0  0  0  0  0  0
  -27.6594  -13.2070   19.8694 C   0  0  2  0  0  0
  -28.7008  -13.0147   20.9965 C   0  0  0  0  0  0
  -25.2585  -13.8162   20.5677 C   0  0  0  0  0  0
  -24.1837  -13.0440   20.9177 C   0  0  0  0  0  0
  -24.6389  -11.6907   20.8734 C   0  0  0  0  0  0
  -23.9054  -10.4293   21.0404 C   0  0  0  0  0  0
  -24.3609   -9.4209   21.9181 C   0  0  0  0  0  0
  -23.6288   -8.2243   22.0752 C   0  0  0  0  0  0
  -22.4270   -8.0279   21.3544 C   0  0  0  0  0  0
  -21.9902   -9.0253   20.4648 C   0  0  0  0  0  0
  -22.7226  -10.2134   20.3056 C   0  0  0  0  0  0
  -21.6853   -6.0732   22.5278 C   0  0  0  0  0  0
  -21.4014   -6.5637   23.8211 C   0  0  0  0  0  0
  -21.3660   -5.6791   24.9175 C   0  0  0  0  0  0
  -21.6045   -4.3054   24.7226 C   0  0  0  0  0  0
  -21.8819   -3.8145   23.4347 C   0  0  0  0  0  0
  -21.9192   -4.6960   22.3402 C   0  0  0  0  0  0
  -22.7861  -13.5240   21.1843 C   0  0  0  0  0  0
  -22.1661   -4.2145   21.0980 F   0  0  0  0  0  0
  -21.5629   -3.4538   25.7739 F   0  0  0  0  0  0
  -30.0328  -13.2994   20.4409 N   0  0  0  0  0  0
  -26.3014  -12.9330   20.3339 N   0  0  0  0  0  0
  -25.9315  -11.6492   20.5763 N   0  0  0  0  0  0
  -22.0501  -12.8238   22.0404 N   0  0  0  0  0  0
  -25.4316  -15.1880   20.4092 N   0  0  0  0  0  0
  -31.8592  -14.6326   20.1559 O   0  0  0  0  0  0
  -21.6639   -6.8874   21.4240 O   0  0  0  0  0  0
  -22.3547  -14.5546   20.6690 O   0  0  0  0  0  0
  -24.6129  -31.8694   23.2117 C   0  0  0  0  0  0
  -25.9026  -32.4832   23.8413 C   0  0  1  0  0  0
  -27.2378  -27.4395   20.1059 C   0  0  0  0  0  0
  -25.5889  -33.8630   24.2344 N   0  0  0  0  0  0
  -23.4025  -30.4917   21.5507 C   0  0  2  0  0  0
  -24.8534  -28.9569   20.1190 C   0  0  0  0  0  0
  -22.7406  -29.4661   22.4990 C   0  0  0  0  0  0
  -18.0270  -28.1380   22.8496 C   0  0  0  0  0  0
  -24.1487  -36.7324   23.2639 C   0  0  0  0  0  0
  -25.9302  -30.8340   21.3682 C   0  0  0  0  0  0
  -26.0099  -29.4647   20.7262 C   0  0  0  0  0  0
  -27.2056  -28.7093   20.7308 C   0  0  0  0  0  0
  -26.0723  -26.9522   19.4838 C   0  0  0  0  0  0
  -24.8775  -27.6961   19.4981 C   0  0  0  0  0  0
  -23.6142  -29.8230   20.1658 C   0  0  0  0  0  0
  -25.4106  -36.3121   24.0342 C   0  0  1  0  0  0
  -20.5861  -28.3665   23.1320 C   0  0  2  0  0  0
  -20.6761  -26.9403   22.5419 C   0  0  0  0  0  0
  -19.5739  -26.6389   21.5216 C   0  0  0  0  0  0
  -18.1918  -26.7926   22.1629 C   0  0  0  0  0  0
  -19.1520  -28.8839   23.2906 C   0  0  0  0  0  0
  -18.9450  -30.1445   23.8914 C   0  0  0  0  0  0
  -17.6453  -30.6587   24.0566 C   0  0  0  0  0  0
  -25.9028  -34.9482   23.5140 C   0  0  0  0  0  0
  -16.5343  -29.9091   23.6326 C   0  0  0  0  0  0
  -16.7261  -28.6507   23.0348 C   0  0  0  0  0  0
  -26.4465  -31.6601   25.0729 C   0  0  0  0  0  0
  -25.3742  -31.3710   26.1490 C   0  0  0  0  0  0
  -27.0285  -30.3041   24.6093 C   0  0  0  0  0  0
  -27.6052  -32.4313   25.7478 C   0  0  0  0  0  0
  -27.5580  -37.1819   24.8469 C   0  0  0  0  0  0
  -21.4135  -29.3034   22.3727 N   0  0  0  0  0  0
  -26.4301  -37.3795   23.9402 N   0  0  0  0  0  0
  -24.6663  -31.0797   22.1020 N   0  0  0  0  0  0
  -23.4177  -28.8207   23.3036 O   0  0  0  0  0  0
  -28.3584  -26.6429   20.0389 O   0  0  0  0  0  0
  -26.5589  -34.8928   22.4700 O   0  0  0  0  0  0
  -23.5321  -32.1446   23.7507 O   0  0  0  0  0  0
  -29.8939  -19.3351   18.7998 C   0  0  0  0  0  0
  -30.3302  -18.1880   18.1180 C   0  0  0  0  0  0
  -29.4645  -19.2619   20.1462 C   0  0  0  0  0  0
  -29.9551  -16.8281   20.1210 C   0  0  0  0  0  0
  -30.3422  -16.9398   18.7587 C   0  0  0  0  0  0
  -29.5022  -17.9925   20.8007 C   0  0  0  0  0  0
  -28.8800  -20.5021   20.7946 C   0  0  0  0  0  0
  -29.4333  -23.8718   21.5539 C   0  0  0  0  0  0
  -30.0270  -25.2205   21.1117 C   0  0  0  0  0  0
  -28.7098  -23.0018   20.5171 C   0  0  0  0  0  0
  -29.0883  -26.4451   21.2473 C   0  0  0  0  0  0
  -29.9127  -15.5576   20.7912 N   0  0  0  0  0  0
  -29.3452  -21.6830   20.3450 N   0  0  0  0  0  0
  -27.9892  -20.4273   21.6425 O   0  0  0  0  0  0
  -29.5696  -23.4788   22.7162 O   0  0  0  0  0  0
  -30.6750  -15.8537   18.0200 F   0  0  0  0  0  0
  -29.0904  -17.8649   22.0871 F   0  0  0  0  0  0
  -31.4685  -12.3890   19.1386 H   0  0  0  0  0  0
  -30.3164  -11.2930   19.8498 H   0  0  0  0  0  0
  -29.7392  -11.7492   17.4455 H   0  0  0  0  0  0
  -29.6699  -13.4629   17.7639 H   0  0  0  0  0  0
  -27.8283  -11.2991   18.8322 H   0  0  0  0  0  0
  -27.3707  -12.6168   17.7872 H   0  0  0  0  0  0
  -27.6953  -14.2491   19.5519 H   0  0  0  0  0  0
  -28.6724  -11.9908   21.3723 H   0  0  0  0  0  0
  -28.4725  -13.6514   21.8526 H   0  0  0  0  0  0
  -25.2756   -9.5686   22.4750 H   0  0  0  0  0  0
  -24.0001   -7.4634   22.7470 H   0  0  0  0  0  0
  -21.0831   -8.8770   19.8956 H   0  0  0  0  0  0
  -22.3682  -10.9671   19.6164 H   0  0  0  0  0  0
  -21.2008   -7.6145   23.9712 H   0  0  0  0  0  0
  -21.1481   -6.0523   25.9077 H   0  0  0  0  0  0
  -22.0599   -2.7607   23.2848 H   0  0  0  0  0  0
  -22.4114  -11.9902   22.4798 H   0  0  0  0  0  0
  -21.1122  -13.1272   22.2611 H   0  0  0  0  0  0
  -24.6668  -15.8445   20.5210 H   0  0  0  0  0  0
  -26.2848  -15.6265   20.0876 H   0  0  0  0  0  0
  -26.7099  -32.5560   23.1184 H   0  0  0  0  0  0
  -25.0043  -33.9798   25.0491 H   0  0  0  0  0  0
  -22.6910  -31.3081   21.4104 H   0  0  0  0  0  0
  -23.3733  -35.9675   23.3338 H   0  0  0  0  0  0
  -24.3577  -36.8896   22.2047 H   0  0  0  0  0  0
  -23.7261  -37.6552   23.6624 H   0  0  0  0  0  0
  -26.0398  -31.5946   20.5938 H   0  0  0  0  0  0
  -26.8191  -30.8938   21.9842 H   0  0  0  0  0  0
  -28.0959  -29.1067   21.1976 H   0  0  0  0  0  0
  -26.0894  -25.9871   18.9968 H   0  0  0  0  0  0
  -23.9906  -27.2993   19.0235 H   0  0  0  0  0  0
  -23.7232  -30.5974   19.4056 H   0  0  0  0  0  0
  -22.7393  -29.2418   19.8692 H   0  0  0  0  0  0
  -25.1283  -36.1997   25.0837 H   0  0  0  0  0  0
  -20.9955  -28.3231   24.1440 H   0  0  0  0  0  0
  -20.5671  -26.2272   23.3606 H   0  0  0  0  0  0
  -21.6632  -26.7452   22.1209 H   0  0  0  0  0  0
  -19.6901  -25.6305   21.1234 H   0  0  0  0  0  0
  -19.6678  -27.3209   20.6755 H   0  0  0  0  0  0
  -17.4190  -26.6675   21.4030 H   0  0  0  0  0  0
  -18.0320  -26.0067   22.9024 H   0  0  0  0  0  0
  -19.7927  -30.7254   24.2292 H   0  0  0  0  0  0
  -17.5011  -31.6269   24.5166 H   0  0  0  0  0  0
  -15.5345  -30.2999   23.7642 H   0  0  0  0  0  0
  -15.8661  -28.0834   22.7051 H   0  0  0  0  0  0
  -24.5892  -30.7082   25.7832 H   0  0  0  0  0  0
  -24.8962  -32.2871   26.4973 H   0  0  0  0  0  0
  -25.8104  -30.8851   27.0226 H   0  0  0  0  0  0
  -26.2820  -29.6810   24.1153 H   0  0  0  0  0  0
  -27.4060  -29.7269   25.4544 H   0  0  0  0  0  0
  -27.8659  -30.4359   23.9236 H   0  0  0  0  0  0
  -27.2684  -33.3604   26.2087 H   0  0  0  0  0  0
  -28.3839  -32.6884   25.0286 H   0  0  0  0  0  0
  -28.0744  -31.8416   26.5364 H   0  0  0  0  0  0
  -28.2629  -38.0085   24.7477 H   0  0  0  0  0  0
  -28.1043  -36.2616   24.6345 H   0  0  0  0  0  0
  -27.2295  -37.1534   25.8874 H   0  0  0  0  0  0
  -20.9293  -29.8759   21.6955 H   0  0  0  0  0  0
  -26.0198  -38.2885   24.1372 H   0  0  0  0  0  0
  -29.8538  -20.2660   18.2523 H   0  0  0  0  0  0
  -30.6232  -18.2568   17.0802 H   0  0  0  0  0  0
  -30.4040  -25.1405   20.0924 H   0  0  0  0  0  0
  -30.9018  -25.3887   21.7396 H   0  0  0  0  0  0
  -28.7061  -23.5177   19.5566 H   0  0  0  0  0  0
  -27.6647  -22.9017   20.8134 H   0  0  0  0  0  0
  -29.6861  -27.3351   21.4472 H   0  0  0  0  0  0
  -28.4116  -26.3200   22.0953 H   0  0  0  0  0  0
  -29.0726  -15.3778   21.3175 H   0  0  0  0  0  0
  -30.1249  -21.6460   19.7043 H   0  0  0  0  0  0
  1 25  1  0  0  0
  1 30  2  0  0  0
  1 82  1  0  0  0
  2  3  1  0  0  0
  2 25  1  0  0  0
  2 88  1  0  0  0
  2 89  1  0  0  0
  3  4  1  0  0  0
  3 90  1  0  0  0
  3 91  1  0  0  0
  4  5  1  0  0  0
  4 92  1  0  0  0
  4 93  1  0  0  0
  5  6  1  0  0  0
  5 26  1  0  0  0
  5 94  1  0  0  0
  6 25  1  0  0  0
  6 95  1  0  0  0
  6 96  1  0  0  0
  7  8  2  0  0  0
  7 26  1  0  0  0
  7 29  1  0  0  0
  8  9  1  0  0  0
  8 22  1  0  0  0
  9 10  1  0  0  0
  9 27  2  0  0  0
 10 11  2  0  0  0
 10 15  1  0  0  0
 11 12  1  0  0  0
 11 97  1  0  0  0
 12 13  2  0  0  0
 12 98  1  0  0  0
 13 14  1  0  0  0
 13 31  1  0  0  0
 14 15  2  0  0  0
 14 99  1  0  0  0
 15100  1  0  0  0
 16 17  2  0  0  0
 16 21  1  0  0  0
 16 31  1  0  0  0
 17 18  1  0  0  0
 17101  1  0  0  0
 18 19  2  0  0  0
 18102  1  0  0  0
 19 20  1  0  0  0
 19 24  1  0  0  0
 20 21  2  0  0  0
 20103  1  0  0  0
 21 23  1  0  0  0
 22 28  1  0  0  0
 22 32  2  0  0  0
 26 27  1  0  0  0
 28104  1  0  0  0
 28105  1  0  0  0
 29106  1  0  0  0
 29107  1  0  0  0
 33 34  1  0  0  0
 33 66  1  0  0  0
 33 70  2  0  0  0
 34 36  1  0  0  0
 34 59  1  0  0  0
 34108  1  0  0  0
 35 44  2  0  0  0
 35 45  1  0  0  0
 35 68  1  0  0  0
 36 56  1  0  0  0
 36109  1  0  0  0
 37 39  1  0  0  0
 37 47  1  0  0  0
 37 66  1  0  0  0
 37110  1  0  0  0
 38 43  2  0  0  0
 38 46  1  0  0  0
 38 47  1  0  0  0
 39 64  1  0  0  0
 39 67  2  0  0  0
 40 52  1  0  0  0
 40 53  2  0  0  0
 40 58  1  0  0  0
 41111  1  0  0  0
 41112  1  0  0  0
 41113  1  0  0  0
 41 48  1  0  0  0
 42 43  1  0  0  0
 42 66  1  0  0  0
 42114  1  0  0  0
 42115  1  0  0  0
 43 44  1  0  0  0
 44116  1  0  0  0
 45 46  2  0  0  0
 45117  1  0  0  0
 46118  1  0  0  0
 47119  1  0  0  0
 47120  1  0  0  0
 48 56  1  0  0  0
 48 65  1  0  0  0
 48121  1  0  0  0
 49 50  1  0  0  0
 49 53  1  0  0  0
 49 64  1  0  0  0
 49122  1  0  0  0
 50 51  1  0  0  0
 50123  1  0  0  0
 50124  1  0  0  0
 51 52  1  0  0  0
 51125  1  0  0  0
 51126  1  0  0  0
 52127  1  0  0  0
 52128  1  0  0  0
 53 54  1  0  0  0
 54 55  2  0  0  0
 54129  1  0  0  0
 55 57  1  0  0  0
 55130  1  0  0  0
 56 69  2  0  0  0
 57 58  2  0  0  0
 57131  1  0  0  0
 58132  1  0  0  0
 59 60  1  0  0  0
 59 61  1  0  0  0
 59 62  1  0  0  0
 60133  1  0  0  0
 60134  1  0  0  0
 60135  1  0  0  0
 61136  1  0  0  0
 61137  1  0  0  0
 61138  1  0  0  0
 62139  1  0  0  0
 62140  1  0  0  0
 62141  1  0  0  0
 63 65  1  0  0  0
 63142  1  0  0  0
 63143  1  0  0  0
 63144  1  0  0  0
 64145  1  0  0  0
 65146  1  0  0  0
 68 81  1  0  0  0
 71 72  2  0  0  0
 71 73  1  0  0  0
 71147  1  0  0  0
 72 75  1  0  0  0
 72148  1  0  0  0
 73 76  2  0  0  0
 73 77  1  0  0  0
 74 75  2  0  0  0
 74 76  1  0  0  0
 74 82  1  0  0  0
 75 86  1  0  0  0
 76 87  1  0  0  0
 77 83  1  0  0  0
 77 84  2  0  0  0
 78 79  1  0  0  0
 78 80  1  0  0  0
 78 85  2  0  0  0
 79 81  1  0  0  0
 79149  1  0  0  0
 79150  1  0  0  0
 80 83  1  0  0  0
 80151  1  0  0  0
 80152  1  0  0  0
 81153  1  0  0  0
 81154  1  0  0  0
 82155  1  0  0  0
 83156  1  0  0  0
M  ISO  4   1 100  68 101  81 101  82 100
M  END
> <chiral flag>
0

> <version>
0

> <s_m_source_file>
/data/baiqing/PycharmProjects/Reinvent-master-3.2/result/LINK_invent/BTK/process_docking_weight1_custom_product_contain_oxygen_bond_distance_aromatic_linkinvent_7_9_3/rearranged_h_0175.sdf

> <i_m_source_file_index>
92

> <r_mmod_Potential_Energy-OPLS-2005>
-214.088806152344

> <r_mmod_Stretch_Energy-OPLS-2005>
38.682975769043

> <r_mmod_Bend_Energy-OPLS-2005>
95.1065979003906

> <r_mmod_Torsional_Energy-OPLS-2005>
265.957977294922

> <r_mmod_Improper_Torsional_Energy-OPLS-2005>
6.48158836364746

> <r_mmod_Van_der_Waal_Energy-OPLS-2005>
152.653182983398

> <r_mmod_Electrostatic_Energy-OPLS-2005>
-530.604614257812

> <r_mmod_Solvation_Energy-OPLS-2005>
-258.953186035156

> <b_mmod_Minimization_Converged-OPLS-2005>
0

> <r_mmod_RMS_Derivative-OPLS-2005>
0.2850681245327

$$$$
93
                    3D
 Structure written by MMmdl.
154162  0  0  1  0            999 V2000
  -30.6419  -14.5504   20.5459 C   0  0  0  0  0  0
  -30.4314  -12.3491   19.4296 C   0  0  0  0  0  0
  -29.5025  -12.5320   18.2094 C   0  0  0  0  0  0
  -28.0221  -12.3770   18.6178 C   0  0  0  0  0  0
  -27.6579  -13.2104   19.8756 C   0  0  2  0  0  0
  -28.7008  -13.0018   20.9965 C   0  0  0  0  0  0
  -25.2558  -13.8140   20.5673 C   0  0  0  0  0  0
  -24.1813  -13.0418   20.9185 C   0  0  0  0  0  0
  -24.6378  -11.6891   20.8751 C   0  0  0  0  0  0
  -23.9035  -10.4286   21.0397 C   0  0  0  0  0  0
  -24.3592   -9.4213   21.9174 C   0  0  0  0  0  0
  -23.6288   -8.2238   22.0744 C   0  0  0  0  0  0
  -22.4278   -8.0264   21.3526 C   0  0  0  0  0  0
  -21.9897   -9.0233   20.4635 C   0  0  0  0  0  0
  -22.7205  -10.2122   20.3044 C   0  0  0  0  0  0
  -21.6844   -6.0721   22.5279 C   0  0  0  0  0  0
  -21.4012   -6.5628   23.8214 C   0  0  0  0  0  0
  -21.3664   -5.6783   24.9176 C   0  0  0  0  0  0
  -21.6066   -4.3052   24.7223 C   0  0  0  0  0  0
  -21.8813   -3.8133   23.4345 C   0  0  0  0  0  0
  -21.9187   -4.6946   22.3398 C   0  0  0  0  0  0
  -22.7842  -13.5248   21.1838 C   0  0  0  0  0  0
  -22.1658   -4.2137   21.0975 F   0  0  0  0  0  0
  -21.5629   -3.4538   25.7730 F   0  0  0  0  0  0
  -30.0235  -13.3365   20.4439 N   0  0  0  0  0  0
  -26.3001  -12.9317   20.3353 N   0  0  0  0  0  0
  -25.9313  -11.6476   20.5763 N   0  0  0  0  0  0
  -22.0451  -12.8277   22.0399 N   0  0  0  0  0  0
  -25.4255  -15.1866   20.4018 N   0  0  0  0  0  0
  -31.7920  -14.7430   20.1385 O   0  0  0  0  0  0
  -21.6637   -6.8863   21.4237 O   0  0  0  0  0  0
  -22.3563  -14.5547   20.6639 O   0  0  0  0  0  0
  -24.6212  -31.8650   23.2041 C   0  0  0  0  0  0
  -25.9087  -32.4801   23.8375 C   0  0  1  0  0  0
  -27.2472  -27.3889   20.0973 C   0  0  0  0  0  0
  -25.5950  -33.8601   24.2317 N   0  0  0  0  0  0
  -23.4120  -30.4860   21.5436 C   0  0  2  0  0  0
  -24.8606  -28.9436   20.1114 C   0  0  0  0  0  0
  -22.7442  -29.4665   22.4954 C   0  0  0  0  0  0
  -18.0296  -28.1368   22.8475 C   0  0  0  0  0  0
  -24.1500  -36.7304   23.2636 C   0  0  0  0  0  0
  -25.9456  -30.8135   21.3664 C   0  0  0  0  0  0
  -26.0212  -29.4453   20.7115 C   0  0  0  0  0  0
  -27.2112  -28.6744   20.7002 C   0  0  0  0  0  0
  -26.0562  -26.9077   19.5024 C   0  0  0  0  0  0
  -24.8755  -27.6764   19.5046 C   0  0  0  0  0  0
  -23.6219  -29.8110   20.1612 C   0  0  0  0  0  0
  -25.4117  -36.3090   24.0332 C   0  0  1  0  0  0
  -20.5886  -28.3680   23.1280 C   0  0  2  0  0  0
  -20.6802  -26.9415   22.5397 C   0  0  0  0  0  0
  -19.5793  -26.6365   21.5198 C   0  0  0  0  0  0
  -18.1957  -26.7925   22.1585 C   0  0  0  0  0  0
  -19.1544  -28.8843   23.2873 C   0  0  0  0  0  0
  -18.9466  -30.1436   23.8894 C   0  0  0  0  0  0
  -17.6470  -30.6579   24.0538 C   0  0  0  0  0  0
  -25.9050  -34.9459   23.5112 C   0  0  0  0  0  0
  -16.5357  -29.9058   23.6331 C   0  0  0  0  0  0
  -16.7284  -28.6469   23.0367 C   0  0  0  0  0  0
  -26.4484  -31.6601   25.0731 C   0  0  0  0  0  0
  -25.3736  -31.3712   26.1462 C   0  0  0  0  0  0
  -27.0344  -30.3046   24.6162 C   0  0  0  0  0  0
  -27.6062  -32.4319   25.7505 C   0  0  0  0  0  0
  -27.5585  -37.1813   24.8455 C   0  0  0  0  0  0
  -21.4177  -29.3029   22.3665 N   0  0  0  0  0  0
  -26.4301  -37.3776   23.9388 N   0  0  0  0  0  0
  -24.6777  -31.0714   22.0945 N   0  0  0  0  0  0
  -23.4188  -28.8247   23.3053 O   0  0  0  0  0  0
  -28.4282  -26.6536   20.1438 O   0  0  0  0  0  0
  -26.5570  -34.8913   22.4649 O   0  0  0  0  0  0
  -23.5396  -32.1410   23.7402 O   0  0  0  0  0  0
  -29.9076  -19.2287   20.6284 C   0  0  0  0  0  0
  -30.2990  -19.2752   21.9612 C   0  0  0  0  0  0
  -30.1009  -16.9550   21.0972 C   0  0  0  0  0  0
  -29.6723  -20.4145   19.6895 C   0  0  0  0  0  0
  -28.7155  -24.1223   20.1949 C   0  0  0  0  0  0
  -27.4045  -22.4918   18.7098 C   0  0  0  0  0  0
  -28.6074  -25.4404   19.3599 C   0  0  0  0  0  0
  -28.7524  -22.7664   19.4052 C   0  0  2  0  0  0
  -29.7941  -17.8853   20.1694 N   0  0  0  0  0  0
  -30.5300  -20.3620   22.8052 N   0  0  0  0  0  0
  -29.8271  -15.5608   20.9354 N   0  0  0  0  0  0
  -29.1628  -21.5681   20.1985 N   0  0  0  0  0  0
  -29.8782  -20.2992   18.4763 O   0  0  0  0  0  0
  -28.7644  -24.1619   21.4289 O   0  0  0  0  0  0
  -30.5387  -17.6719   22.6370 S   0  0  0  0  0  0
  -31.4760  -12.4654   19.1348 H   0  0  0  0  0  0
  -30.3404  -11.3366   19.8262 H   0  0  0  0  0  0
  -29.7572  -11.8151   17.4278 H   0  0  0  0  0  0
  -29.6590  -13.5215   17.7754 H   0  0  0  0  0  0
  -27.8420  -11.3202   18.8122 H   0  0  0  0  0  0
  -27.3699  -12.6506   17.7866 H   0  0  0  0  0  0
  -27.6921  -14.2576   19.5771 H   0  0  0  0  0  0
  -28.6936  -11.9650   21.3372 H   0  0  0  0  0  0
  -28.4570  -13.5974   21.8771 H   0  0  0  0  0  0
  -25.2712   -9.5712   22.4776 H   0  0  0  0  0  0
  -23.9994   -7.4635   22.7467 H   0  0  0  0  0  0
  -21.0822   -8.8742   19.8958 H   0  0  0  0  0  0
  -22.3634  -10.9661   19.6176 H   0  0  0  0  0  0
  -21.2004   -7.6141   23.9716 H   0  0  0  0  0  0
  -21.1508   -6.0512   25.9087 H   0  0  0  0  0  0
  -22.0589   -2.7596   23.2836 H   0  0  0  0  0  0
  -22.4009  -11.9976   22.4912 H   0  0  0  0  0  0
  -21.1055  -13.1326   22.2490 H   0  0  0  0  0  0
  -24.6428  -15.8283   20.4739 H   0  0  0  0  0  0
  -26.2634  -15.6266   20.0414 H   0  0  0  0  0  0
  -26.7172  -32.5485   23.1149 H   0  0  0  0  0  0
  -25.0211  -33.9764   25.0539 H   0  0  0  0  0  0
  -22.7043  -31.3042   21.3974 H   0  0  0  0  0  0
  -23.3767  -35.9637   23.3297 H   0  0  0  0  0  0
  -24.3612  -36.8917   22.2055 H   0  0  0  0  0  0
  -23.7257  -37.6512   23.6651 H   0  0  0  0  0  0
  -26.0761  -31.5818   20.6015 H   0  0  0  0  0  0
  -26.8267  -30.8581   21.9956 H   0  0  0  0  0  0
  -28.1078  -29.0610   21.1635 H   0  0  0  0  0  0
  -25.9985  -25.9310   19.0479 H   0  0  0  0  0  0
  -23.9792  -27.2823   19.0453 H   0  0  0  0  0  0
  -23.7214  -30.5768   19.3910 H   0  0  0  0  0  0
  -22.7477  -29.2223   19.8761 H   0  0  0  0  0  0
  -25.1307  -36.1955   25.0833 H   0  0  0  0  0  0
  -20.9992  -28.3259   24.1396 H   0  0  0  0  0  0
  -20.5736  -26.2293   23.3590 H   0  0  0  0  0  0
  -21.6673  -26.7470   22.1187 H   0  0  0  0  0  0
  -19.6962  -25.6263   21.1261 H   0  0  0  0  0  0
  -19.6757  -27.3139   20.6703 H   0  0  0  0  0  0
  -17.4256  -26.6697   21.3947 H   0  0  0  0  0  0
  -18.0325  -26.0040   22.8952 H   0  0  0  0  0  0
  -19.7940  -30.7241   24.2282 H   0  0  0  0  0  0
  -17.5021  -31.6280   24.5104 H   0  0  0  0  0  0
  -15.5352  -30.2955   23.7664 H   0  0  0  0  0  0
  -15.8683  -28.0764   22.7118 H   0  0  0  0  0  0
  -24.5915  -30.7060   25.7776 H   0  0  0  0  0  0
  -24.8922  -32.2868   26.4912 H   0  0  0  0  0  0
  -25.8067  -30.8872   27.0224 H   0  0  0  0  0  0
  -26.2911  -29.6785   24.1206 H   0  0  0  0  0  0
  -27.4093  -29.7306   25.4648 H   0  0  0  0  0  0
  -27.8754  -30.4368   23.9348 H   0  0  0  0  0  0
  -27.2695  -33.3608   26.2117 H   0  0  0  0  0  0
  -28.3859  -32.6893   25.0325 H   0  0  0  0  0  0
  -28.0751  -31.8429   26.5397 H   0  0  0  0  0  0
  -28.2594  -38.0119   24.7503 H   0  0  0  0  0  0
  -28.1095  -36.2649   24.6282 H   0  0  0  0  0  0
  -27.2307  -37.1457   25.8861 H   0  0  0  0  0  0
  -20.9364  -29.8683   21.6812 H   0  0  0  0  0  0
  -26.0193  -38.2862   24.1371 H   0  0  0  0  0  0
  -27.1020  -23.3168   18.0645 H   0  0  0  0  0  0
  -26.6095  -22.3431   19.4415 H   0  0  0  0  0  0
  -27.4554  -21.6013   18.0820 H   0  0  0  0  0  0
  -27.8646  -25.3346   18.5746 H   0  0  0  0  0  0
  -29.5549  -25.5485   18.8325 H   0  0  0  0  0  0
  -29.5004  -22.8979   18.6213 H   0  0  0  0  0  0
  -30.6418  -21.3266   22.5069 H   0  0  0  0  0  0
  -30.7758  -20.2412   23.7853 H   0  0  0  0  0  0
  -28.9069  -15.2699   21.2188 H   0  0  0  0  0  0
  -29.0088  -21.6001   21.1972 H   0  0  0  0  0  0
  1 25  1  0  0  0
  1 30  2  0  0  0
  1 81  1  0  0  0
  2  3  1  0  0  0
  2 25  1  0  0  0
  2 86  1  0  0  0
  2 87  1  0  0  0
  3  4  1  0  0  0
  3 88  1  0  0  0
  3 89  1  0  0  0
  4  5  1  0  0  0
  4 90  1  0  0  0
  4 91  1  0  0  0
  5  6  1  0  0  0
  5 26  1  0  0  0
  5 92  1  0  0  0
  6 25  1  0  0  0
  6 93  1  0  0  0
  6 94  1  0  0  0
  7  8  2  0  0  0
  7 26  1  0  0  0
  7 29  1  0  0  0
  8  9  1  0  0  0
  8 22  1  0  0  0
  9 10  1  0  0  0
  9 27  2  0  0  0
 10 11  2  0  0  0
 10 15  1  0  0  0
 11 12  1  0  0  0
 11 95  1  0  0  0
 12 13  2  0  0  0
 12 96  1  0  0  0
 13 14  1  0  0  0
 13 31  1  0  0  0
 14 15  2  0  0  0
 14 97  1  0  0  0
 15 98  1  0  0  0
 16 17  2  0  0  0
 16 21  1  0  0  0
 16 31  1  0  0  0
 17 18  1  0  0  0
 17 99  1  0  0  0
 18 19  2  0  0  0
 18100  1  0  0  0
 19 20  1  0  0  0
 19 24  1  0  0  0
 20 21  2  0  0  0
 20101  1  0  0  0
 21 23  1  0  0  0
 22 28  1  0  0  0
 22 32  2  0  0  0
 26 27  1  0  0  0
 28102  1  0  0  0
 28103  1  0  0  0
 29104  1  0  0  0
 29105  1  0  0  0
 33 34  1  0  0  0
 33 66  1  0  0  0
 33 70  2  0  0  0
 34 36  1  0  0  0
 34 59  1  0  0  0
 34106  1  0  0  0
 35 44  2  0  0  0
 35 45  1  0  0  0
 35 68  1  0  0  0
 36 56  1  0  0  0
 36107  1  0  0  0
 37 39  1  0  0  0
 37 47  1  0  0  0
 37 66  1  0  0  0
 37108  1  0  0  0
 38 43  2  0  0  0
 38 46  1  0  0  0
 38 47  1  0  0  0
 39 64  1  0  0  0
 39 67  2  0  0  0
 40 52  1  0  0  0
 40 53  2  0  0  0
 40 58  1  0  0  0
 41109  1  0  0  0
 41110  1  0  0  0
 41111  1  0  0  0
 41 48  1  0  0  0
 42 43  1  0  0  0
 42 66  1  0  0  0
 42112  1  0  0  0
 42113  1  0  0  0
 43 44  1  0  0  0
 44114  1  0  0  0
 45 46  2  0  0  0
 45115  1  0  0  0
 46116  1  0  0  0
 47117  1  0  0  0
 47118  1  0  0  0
 48 56  1  0  0  0
 48 65  1  0  0  0
 48119  1  0  0  0
 49 50  1  0  0  0
 49 53  1  0  0  0
 49 64  1  0  0  0
 49120  1  0  0  0
 50 51  1  0  0  0
 50121  1  0  0  0
 50122  1  0  0  0
 51 52  1  0  0  0
 51123  1  0  0  0
 51124  1  0  0  0
 52125  1  0  0  0
 52126  1  0  0  0
 53 54  1  0  0  0
 54 55  2  0  0  0
 54127  1  0  0  0
 55 57  1  0  0  0
 55128  1  0  0  0
 56 69  2  0  0  0
 57 58  2  0  0  0
 57129  1  0  0  0
 58130  1  0  0  0
 59 60  1  0  0  0
 59 61  1  0  0  0
 59 62  1  0  0  0
 60131  1  0  0  0
 60132  1  0  0  0
 60133  1  0  0  0
 61134  1  0  0  0
 61135  1  0  0  0
 61136  1  0  0  0
 62137  1  0  0  0
 62138  1  0  0  0
 62139  1  0  0  0
 63 65  1  0  0  0
 63140  1  0  0  0
 63141  1  0  0  0
 63142  1  0  0  0
 64143  1  0  0  0
 65144  1  0  0  0
 68 77  1  0  0  0
 71 72  2  0  0  0
 71 74  1  0  0  0
 71 79  1  0  0  0
 72 80  1  0  0  0
 72 85  1  0  0  0
 73 79  2  0  0  0
 73 81  1  0  0  0
 73 85  1  0  0  0
 74 82  1  0  0  0
 74 83  2  0  0  0
 75 77  1  0  0  0
 75 78  1  0  0  0
 75 84  2  0  0  0
 76145  1  0  0  0
 76146  1  0  0  0
 76147  1  0  0  0
 76 78  1  0  0  0
 77148  1  0  0  0
 77149  1  0  0  0
 78 82  1  0  0  0
 78150  1  0  0  0
 80151  1  0  0  0
 80152  1  0  0  0
 81153  1  0  0  0
 82154  1  0  0  0
M  ISO  4   1 100  68 101  77 101  81 100
M  END
> <chiral flag>
0

> <version>
0

> <s_m_source_file>
/data/baiqing/PycharmProjects/Reinvent-master-3.2/result/LINK_invent/BTK/process_docking_weight1_custom_product_contain_oxygen_bond_distance_aromatic_linkinvent_7_9_3/rearranged_h_0175.sdf

> <i_m_source_file_index>
93

> <r_mmod_Potential_Energy-OPLS-2005>
22.1918067932129

> <r_mmod_Stretch_Energy-OPLS-2005>
54.1088943481445

> <r_mmod_Bend_Energy-OPLS-2005>
124.514755249023

> <r_mmod_Torsional_Energy-OPLS-2005>
243.225250244141

> <r_mmod_Improper_Torsional_Energy-OPLS-2005>
7.15440702438354

> <r_mmod_Van_der_Waal_Energy-OPLS-2005>
123.991973876953

> <r_mmod_Electrostatic_Energy-OPLS-2005>
-286.784454345703

> <r_mmod_Solvation_Energy-OPLS-2005>
-267.322509765625

> <b_mmod_Minimization_Converged-OPLS-2005>
0

> <r_mmod_RMS_Derivative-OPLS-2005>
2.83864498138428

$$$$
94
                    3D
 Structure written by MMmdl.
152160  0  0  1  0            999 V2000
  -30.7075  -14.6191   20.5004 C   0  0  0  0  0  0
  -30.4174  -12.3958   19.4338 C   0  0  0  0  0  0
  -29.4846  -12.4688   18.2100 C   0  0  0  0  0  0
  -28.0176  -12.3150   18.6426 C   0  0  0  0  0  0
  -27.6437  -13.2193   19.8460 C   0  0  2  0  0  0
  -28.7017  -13.1416   20.9702 C   0  0  0  0  0  0
  -25.2542  -13.8205   20.5715 C   0  0  0  0  0  0
  -24.1821  -13.0476   20.9216 C   0  0  0  0  0  0
  -24.6388  -11.6937   20.8793 C   0  0  0  0  0  0
  -23.9067  -10.4307   21.0431 C   0  0  0  0  0  0
  -24.3617   -9.4215   21.9203 C   0  0  0  0  0  0
  -23.6303   -8.2259   22.0765 C   0  0  0  0  0  0
  -22.4285   -8.0294   21.3551 C   0  0  0  0  0  0
  -21.9916   -9.0270   20.4655 C   0  0  0  0  0  0
  -22.7248  -10.2147   20.3072 C   0  0  0  0  0  0
  -21.6856   -6.0741   22.5280 C   0  0  0  0  0  0
  -21.4012   -6.5646   23.8218 C   0  0  0  0  0  0
  -21.3648   -5.6793   24.9178 C   0  0  0  0  0  0
  -21.6050   -4.3064   24.7229 C   0  0  0  0  0  0
  -21.8821   -3.8149   23.4358 C   0  0  0  0  0  0
  -21.9202   -4.6962   22.3406 C   0  0  0  0  0  0
  -22.7846  -13.5245   21.1893 C   0  0  0  0  0  0
  -22.1662   -4.2147   21.0991 F   0  0  0  0  0  0
  -21.5624   -3.4548   25.7751 F   0  0  0  0  0  0
  -30.0015  -13.4546   20.3693 N   0  0  0  0  0  0
  -26.2950  -12.9384   20.3323 N   0  0  0  0  0  0
  -25.9319  -11.6526   20.5829 N   0  0  0  0  0  0
  -22.0471  -12.8217   22.0417 N   0  0  0  0  0  0
  -25.4260  -15.1941   20.4072 N   0  0  0  0  0  0
  -31.8925  -14.6844   20.1598 O   0  0  0  0  0  0
  -21.6659   -6.8882   21.4251 O   0  0  0  0  0  0
  -22.3538  -14.5554   20.6747 O   0  0  0  0  0  0
  -24.6269  -31.8573   23.2084 C   0  0  0  0  0  0
  -25.9137  -32.4717   23.8365 C   0  0  1  0  0  0
  -27.2255  -27.3413   20.0633 C   0  0  0  0  0  0
  -25.5988  -33.8521   24.2295 N   0  0  0  0  0  0
  -23.4161  -30.4925   21.5460 C   0  0  2  0  0  0
  -24.8550  -28.9518   20.1018 C   0  0  0  0  0  0
  -22.7436  -29.4633   22.4879 C   0  0  0  0  0  0
  -18.0250  -28.1331   22.8466 C   0  0  0  0  0  0
  -24.1500  -36.7308   23.2627 C   0  0  0  0  0  0
  -25.9580  -30.7913   21.3753 C   0  0  0  0  0  0
  -26.0241  -29.4235   20.7080 C   0  0  0  0  0  0
  -27.2047  -28.6260   20.6876 C   0  0  0  0  0  0
  -26.0281  -26.9239   19.4342 C   0  0  0  0  0  0
  -24.8582  -27.7038   19.4619 C   0  0  0  0  0  0
  -23.6270  -29.8402   20.1551 C   0  0  0  0  0  0
  -25.4082  -36.3036   24.0347 C   0  0  1  0  0  0
  -20.5856  -28.3642   23.1275 C   0  0  2  0  0  0
  -20.6748  -26.9362   22.5392 C   0  0  0  0  0  0
  -19.5732  -26.6346   21.5193 C   0  0  0  0  0  0
  -18.1898  -26.7885   22.1583 C   0  0  0  0  0  0
  -19.1504  -28.8790   23.2877 C   0  0  0  0  0  0
  -18.9458  -30.1403   23.8894 C   0  0  0  0  0  0
  -17.6465  -30.6551   24.0545 C   0  0  0  0  0  0
  -25.9066  -34.9406   23.5111 C   0  0  0  0  0  0
  -16.5345  -29.9054   23.6328 C   0  0  0  0  0  0
  -16.7253  -28.6462   23.0367 C   0  0  0  0  0  0
  -26.4558  -31.6531   25.0739 C   0  0  0  0  0  0
  -25.3839  -31.3647   26.1523 C   0  0  0  0  0  0
  -27.0439  -30.2961   24.6182 C   0  0  0  0  0  0
  -27.6120  -32.4279   25.7467 C   0  0  0  0  0  0
  -27.5595  -37.1725   24.8413 C   0  0  0  0  0  0
  -21.4151  -29.3043   22.3676 N   0  0  0  0  0  0
  -26.4217  -37.3781   23.9507 N   0  0  0  0  0  0
  -24.6861  -31.0584   22.1029 N   0  0  0  0  0  0
  -23.4175  -28.8101   23.2886 O   0  0  0  0  0  0
  -28.3824  -26.5454   20.1044 O   0  0  0  0  0  0
  -26.5565  -34.8876   22.4630 O   0  0  0  0  0  0
  -23.5449  -32.1411   23.7410 O   0  0  0  0  0  0
  -30.5116  -16.7752   21.6967 C   0  0  0  0  0  0
  -30.3894  -18.1912   21.6619 C   0  0  0  0  0  0
  -31.5409  -17.2324   23.6676 C   0  0  0  0  0  0
  -28.9803  -24.0643   20.4231 C   0  0  0  0  0  0
  -29.4962  -20.4084   20.9691 C   0  0  0  0  0  0
  -28.4512  -25.2065   19.4777 C   0  0  0  0  0  0
  -29.8246  -22.8594   19.8446 C   0  0  0  0  0  0
  -29.1678  -21.3972   19.7886 C   0  0  0  0  0  0
  -31.1214  -16.2749   22.8586 N   0  0  0  0  0  0
  -30.0263  -15.7740   20.7783 N   0  0  0  0  0  0
  -29.8416  -19.0871   20.7470 N   0  0  0  0  0  0
  -28.7443  -24.1284   21.6342 O   0  0  0  0  0  0
  -29.3362  -20.8525   22.1088 O   0  0  0  0  0  0
  -32.1495  -17.0436   24.8161 F   0  0  0  0  0  0
  -30.9650  -22.7791   20.5367 F   0  0  0  0  0  0
  -30.1739  -23.1834   18.5955 F   0  0  0  0  0  0
  -27.8417  -21.5270   19.7107 F   0  0  0  0  0  0
  -29.5796  -20.7966   18.6652 F   0  0  0  0  0  0
  -31.2346  -18.8382   23.0848 S   0  0  0  0  0  0
  -31.4578  -12.4918   19.1198 H   0  0  0  0  0  0
  -30.3461  -11.4230   19.9218 H   0  0  0  0  0  0
  -29.7478  -11.6834   17.5004 H   0  0  0  0  0  0
  -29.6216  -13.4154   17.6860 H   0  0  0  0  0  0
  -27.8687  -11.2664   18.9098 H   0  0  0  0  0  0
  -27.3513  -12.5110   17.8023 H   0  0  0  0  0  0
  -27.6413  -14.2392   19.4601 H   0  0  0  0  0  0
  -28.7297  -12.1472   21.4190 H   0  0  0  0  0  0
  -28.4615  -13.8376   21.7749 H   0  0  0  0  0  0
  -25.2751   -9.5710   22.4773 H   0  0  0  0  0  0
  -24.0020   -7.4648   22.7464 H   0  0  0  0  0  0
  -21.0855   -8.8778   19.8953 H   0  0  0  0  0  0
  -22.3699  -10.9689   19.6175 H   0  0  0  0  0  0
  -21.1996   -7.6147   23.9714 H   0  0  0  0  0  0
  -21.1458   -6.0530   25.9078 H   0  0  0  0  0  0
  -22.0608   -2.7617   23.2867 H   0  0  0  0  0  0
  -22.4090  -11.9875   22.4791 H   0  0  0  0  0  0
  -21.1080  -13.1234   22.2625 H   0  0  0  0  0  0
  -24.6582  -15.8461   20.5188 H   0  0  0  0  0  0
  -26.2648  -15.6331   20.0539 H   0  0  0  0  0  0
  -26.7142  -32.5377   23.1047 H   0  0  0  0  0  0
  -25.0339  -33.9692   25.0568 H   0  0  0  0  0  0
  -22.7124  -31.3183   21.4054 H   0  0  0  0  0  0
  -23.3773  -35.9635   23.3159 H   0  0  0  0  0  0
  -24.3703  -36.9068   22.2090 H   0  0  0  0  0  0
  -23.7223  -37.6464   23.6731 H   0  0  0  0  0  0
  -26.0918  -31.5575   20.6137 H   0  0  0  0  0  0
  -26.8422  -30.8298   22.0014 H   0  0  0  0  0  0
  -28.1018  -28.9860   21.1670 H   0  0  0  0  0  0
  -25.9474  -25.9947   18.8955 H   0  0  0  0  0  0
  -23.9631  -27.3424   18.9704 H   0  0  0  0  0  0
  -23.7524  -30.6340   19.4169 H   0  0  0  0  0  0
  -22.7429  -29.2871   19.8344 H   0  0  0  0  0  0
  -25.1195  -36.1877   25.0828 H   0  0  0  0  0  0
  -20.9950  -28.3170   24.1395 H   0  0  0  0  0  0
  -20.5613  -26.2226   23.3586 H   0  0  0  0  0  0
  -21.6608  -26.7364   22.1183 H   0  0  0  0  0  0
  -19.6903  -25.6267   21.1210 H   0  0  0  0  0  0
  -19.6696  -27.3171   20.6743 H   0  0  0  0  0  0
  -17.4186  -26.6669   21.3976 H   0  0  0  0  0  0
  -18.0258  -26.0008   22.8953 H   0  0  0  0  0  0
  -19.7956  -30.7196   24.2275 H   0  0  0  0  0  0
  -17.5042  -31.6255   24.5120 H   0  0  0  0  0  0
  -15.5358  -30.2960   23.7674 H   0  0  0  0  0  0
  -15.8646  -28.0789   22.7099 H   0  0  0  0  0  0
  -24.6000  -30.6957   25.7933 H   0  0  0  0  0  0
  -24.9041  -32.2803   26.4998 H   0  0  0  0  0  0
  -25.8234  -30.8848   27.0276 H   0  0  0  0  0  0
  -26.3013  -29.6622   24.1331 H   0  0  0  0  0  0
  -27.4318  -29.7295   25.4666 H   0  0  0  0  0  0
  -27.8773  -30.4288   23.9277 H   0  0  0  0  0  0
  -27.2740  -33.3576   26.2052 H   0  0  0  0  0  0
  -28.3911  -32.6864   25.0274 H   0  0  0  0  0  0
  -28.0821  -31.8412   26.5390 H   0  0  0  0  0  0
  -28.2360  -38.0255   24.7781 H   0  0  0  0  0  0
  -28.1301  -36.2825   24.5743 H   0  0  0  0  0  0
  -27.2412  -37.0767   25.8805 H   0  0  0  0  0  0
  -20.9246  -29.8881   21.7062 H   0  0  0  0  0  0
  -26.0072  -38.2793   24.1720 H   0  0  0  0  0  0
  -27.4965  -24.8529   19.1020 H   0  0  0  0  0  0
  -29.1021  -25.2842   18.6054 H   0  0  0  0  0  0
  -29.0271  -15.7544   20.6413 H   0  0  0  0  0  0
  -29.7646  -18.7757   19.7872 H   0  0  0  0  0  0
  1 25  1  0  0  0
  1 30  2  0  0  0
  1 80  1  0  0  0
  2  3  1  0  0  0
  2 25  1  0  0  0
  2 90  1  0  0  0
  2 91  1  0  0  0
  3  4  1  0  0  0
  3 92  1  0  0  0
  3 93  1  0  0  0
  4  5  1  0  0  0
  4 94  1  0  0  0
  4 95  1  0  0  0
  5  6  1  0  0  0
  5 26  1  0  0  0
  5 96  1  0  0  0
  6 25  1  0  0  0
  6 97  1  0  0  0
  6 98  1  0  0  0
  7  8  2  0  0  0
  7 26  1  0  0  0
  7 29  1  0  0  0
  8  9  1  0  0  0
  8 22  1  0  0  0
  9 10  1  0  0  0
  9 27  2  0  0  0
 10 11  2  0  0  0
 10 15  1  0  0  0
 11 12  1  0  0  0
 11 99  1  0  0  0
 12 13  2  0  0  0
 12100  1  0  0  0
 13 14  1  0  0  0
 13 31  1  0  0  0
 14 15  2  0  0  0
 14101  1  0  0  0
 15102  1  0  0  0
 16 17  2  0  0  0
 16 21  1  0  0  0
 16 31  1  0  0  0
 17 18  1  0  0  0
 17103  1  0  0  0
 18 19  2  0  0  0
 18104  1  0  0  0
 19 20  1  0  0  0
 19 24  1  0  0  0
 20 21  2  0  0  0
 20105  1  0  0  0
 21 23  1  0  0  0
 22 28  1  0  0  0
 22 32  2  0  0  0
 26 27  1  0  0  0
 28106  1  0  0  0
 28107  1  0  0  0
 29108  1  0  0  0
 29109  1  0  0  0
 33 34  1  0  0  0
 33 66  1  0  0  0
 33 70  2  0  0  0
 34 36  1  0  0  0
 34 59  1  0  0  0
 34110  1  0  0  0
 35 44  2  0  0  0
 35 45  1  0  0  0
 35 68  1  0  0  0
 36 56  1  0  0  0
 36111  1  0  0  0
 37 39  1  0  0  0
 37 47  1  0  0  0
 37 66  1  0  0  0
 37112  1  0  0  0
 38 43  2  0  0  0
 38 46  1  0  0  0
 38 47  1  0  0  0
 39 64  1  0  0  0
 39 67  2  0  0  0
 40 52  1  0  0  0
 40 53  2  0  0  0
 40 58  1  0  0  0
 41113  1  0  0  0
 41114  1  0  0  0
 41115  1  0  0  0
 41 48  1  0  0  0
 42 43  1  0  0  0
 42 66  1  0  0  0
 42116  1  0  0  0
 42117  1  0  0  0
 43 44  1  0  0  0
 44118  1  0  0  0
 45 46  2  0  0  0
 45119  1  0  0  0
 46120  1  0  0  0
 47121  1  0  0  0
 47122  1  0  0  0
 48 56  1  0  0  0
 48 65  1  0  0  0
 48123  1  0  0  0
 49 50  1  0  0  0
 49 53  1  0  0  0
 49 64  1  0  0  0
 49124  1  0  0  0
 50 51  1  0  0  0
 50125  1  0  0  0
 50126  1  0  0  0
 51 52  1  0  0  0
 51127  1  0  0  0
 51128  1  0  0  0
 52129  1  0  0  0
 52130  1  0  0  0
 53 54  1  0  0  0
 54 55  2  0  0  0
 54131  1  0  0  0
 55 57  1  0  0  0
 55132  1  0  0  0
 56 69  2  0  0  0
 57 58  2  0  0  0
 57133  1  0  0  0
 58134  1  0  0  0
 59 60  1  0  0  0
 59 61  1  0  0  0
 59 62  1  0  0  0
 60135  1  0  0  0
 60136  1  0  0  0
 60137  1  0  0  0
 61138  1  0  0  0
 61139  1  0  0  0
 61140  1  0  0  0
 62141  1  0  0  0
 62142  1  0  0  0
 62143  1  0  0  0
 63 65  1  0  0  0
 63144  1  0  0  0
 63145  1  0  0  0
 63146  1  0  0  0
 64147  1  0  0  0
 65148  1  0  0  0
 68 76  1  0  0  0
 71 72  2  0  0  0
 71 79  1  0  0  0
 71 80  1  0  0  0
 72 81  1  0  0  0
 72 89  1  0  0  0
 73 79  2  0  0  0
 73 84  1  0  0  0
 73 89  1  0  0  0
 74 76  1  0  0  0
 74 77  1  0  0  0
 74 82  2  0  0  0
 75 78  1  0  0  0
 75 81  1  0  0  0
 75 83  2  0  0  0
 76149  1  0  0  0
 76150  1  0  0  0
 77 78  1  0  0  0
 77 85  1  0  0  0
 77 86  1  0  0  0
 78 87  1  0  0  0
 78 88  1  0  0  0
 80151  1  0  0  0
 81152  1  0  0  0
M  ISO  4   1 100  68 101  76 101  80 100
M  END
> <chiral flag>
0

> <version>
0

> <s_m_source_file>
/data/baiqing/PycharmProjects/Reinvent-master-3.2/result/LINK_invent/BTK/process_docking_weight1_custom_product_contain_oxygen_bond_distance_aromatic_linkinvent_7_9_3/rearranged_h_0175.sdf

> <i_m_source_file_index>
94

> <r_mmod_Potential_Energy-OPLS-2005>
34.579719543457

> <r_mmod_Stretch_Energy-OPLS-2005>
83.785400390625

> <r_mmod_Bend_Energy-OPLS-2005>
151.854431152344

> <r_mmod_Torsional_Energy-OPLS-2005>
217.684341430664

> <r_mmod_Improper_Torsional_Energy-OPLS-2005>
7.79829263687134

> <r_mmod_Van_der_Waal_Energy-OPLS-2005>
143.064086914062

> <r_mmod_Electrostatic_Energy-OPLS-2005>
-366.250732421875

> <r_mmod_Solvation_Energy-OPLS-2005>
-249.641479492188

> <b_mmod_Minimization_Converged-OPLS-2005>
0

> <r_mmod_RMS_Derivative-OPLS-2005>
5.89405345916748

$$$$
95
                    3D
 Structure written by MMmdl.
156164  0  0  1  0            999 V2000
  -30.6053  -14.8018   20.4359 C   0  0  0  0  0  0
  -30.4283  -12.4886   19.4857 C   0  0  0  0  0  0
  -29.5126  -12.5124   18.2427 C   0  0  0  0  0  0
  -28.0406  -12.3263   18.6562 C   0  0  0  0  0  0
  -27.6361  -13.2398   19.8446 C   0  0  2  0  0  0
  -28.6796  -13.2130   20.9827 C   0  0  0  0  0  0
  -25.2484  -13.8212   20.5705 C   0  0  0  0  0  0
  -24.1786  -13.0444   20.9210 C   0  0  0  0  0  0
  -24.6393  -11.6926   20.8746 C   0  0  0  0  0  0
  -23.9074  -10.4297   21.0406 C   0  0  0  0  0  0
  -24.3622   -9.4212   21.9185 C   0  0  0  0  0  0
  -23.6298   -8.2245   22.0751 C   0  0  0  0  0  0
  -22.4279   -8.0281   21.3545 C   0  0  0  0  0  0
  -21.9919   -9.0255   20.4647 C   0  0  0  0  0  0
  -22.7246  -10.2135   20.3059 C   0  0  0  0  0  0
  -21.6857   -6.0734   22.5275 C   0  0  0  0  0  0
  -21.4017   -6.5637   23.8208 C   0  0  0  0  0  0
  -21.3661   -5.6790   24.9170 C   0  0  0  0  0  0
  -21.6044   -4.3052   24.7224 C   0  0  0  0  0  0
  -21.8817   -3.8144   23.4344 C   0  0  0  0  0  0
  -21.9192   -4.6962   22.3401 C   0  0  0  0  0  0
  -22.7806  -13.5220   21.1866 C   0  0  0  0  0  0
  -22.1662   -4.2148   21.0977 F   0  0  0  0  0  0
  -21.5634   -3.4532   25.7737 F   0  0  0  0  0  0
  -29.9726  -13.5737   20.3913 N   0  0  0  0  0  0
  -26.2911  -12.9434   20.3263 N   0  0  0  0  0  0
  -25.9324  -11.6565   20.5742 N   0  0  0  0  0  0
  -22.0447  -12.8219   22.0425 N   0  0  0  0  0  0
  -25.4148  -15.1942   20.4143 N   0  0  0  0  0  0
  -31.8045  -14.8359   20.1506 O   0  0  0  0  0  0
  -21.6641   -6.8879   21.4241 O   0  0  0  0  0  0
  -22.3491  -14.5518   20.6698 O   0  0  0  0  0  0
  -24.6337  -31.8515   23.1943 C   0  0  0  0  0  0
  -25.9143  -32.4735   23.8308 C   0  0  1  0  0  0
  -27.2186  -27.2244   20.1308 C   0  0  0  0  0  0
  -25.5924  -33.8538   24.2229 N   0  0  0  0  0  0
  -23.4328  -30.4723   21.5379 C   0  0  2  0  0  0
  -24.8798  -28.9127   20.1059 C   0  0  0  0  0  0
  -22.7520  -29.4573   22.4889 C   0  0  0  0  0  0
  -18.0296  -28.1388   22.8486 C   0  0  0  0  0  0
  -24.1486  -36.7281   23.2642 C   0  0  0  0  0  0
  -25.9804  -30.7527   21.3782 C   0  0  0  0  0  0
  -26.0512  -29.3712   20.7208 C   0  0  0  0  0  0
  -27.2191  -28.5379   20.7244 C   0  0  0  0  0  0
  -26.0215  -26.8405   19.4861 C   0  0  0  0  0  0
  -24.8721  -27.6574   19.4779 C   0  0  0  0  0  0
  -23.6530  -29.8050   20.1540 C   0  0  0  0  0  0
  -25.4114  -36.3059   24.0322 C   0  0  1  0  0  0
  -20.5903  -28.3698   23.1262 C   0  0  2  0  0  0
  -20.6773  -26.9408   22.5410 C   0  0  0  0  0  0
  -19.5746  -26.6379   21.5214 C   0  0  0  0  0  0
  -18.1930  -26.7928   22.1628 C   0  0  0  0  0  0
  -19.1551  -28.8863   23.2869 C   0  0  0  0  0  0
  -18.9470  -30.1464   23.8884 C   0  0  0  0  0  0
  -17.6466  -30.6585   24.0566 C   0  0  0  0  0  0
  -25.9059  -34.9429   23.5086 C   0  0  0  0  0  0
  -16.5357  -29.9084   23.6331 C   0  0  0  0  0  0
  -16.7282  -28.6505   23.0347 C   0  0  0  0  0  0
  -26.4495  -31.6577   25.0715 C   0  0  0  0  0  0
  -25.3706  -31.3748   26.1435 C   0  0  0  0  0  0
  -27.0352  -30.2986   24.6226 C   0  0  0  0  0  0
  -27.6038  -32.4328   25.7497 C   0  0  0  0  0  0
  -27.5575  -37.1799   24.8463 C   0  0  0  0  0  0
  -21.4220  -29.3040   22.3644 N   0  0  0  0  0  0
  -26.4286  -37.3760   23.9407 N   0  0  0  0  0  0
  -24.7017  -31.0449   22.0930 N   0  0  0  0  0  0
  -23.4205  -28.8114   23.2997 O   0  0  0  0  0  0
  -28.3083  -26.3168   20.2266 O   0  0  0  0  0  0
  -26.5640  -34.8908   22.4659 O   0  0  0  0  0  0
  -23.5475  -32.1354   23.7213 O   0  0  0  0  0  0
  -31.9202  -19.1810   20.1484 C   0  0  0  0  0  0
  -31.5462  -17.8298   20.2711 C   0  0  0  0  0  0
  -30.9848  -20.2255   20.2598 C   0  0  0  0  0  0
  -30.2007  -17.4397   20.4730 C   0  0  0  0  0  0
  -29.6126  -19.9833   20.4933 C   0  0  0  0  0  0
  -29.2425  -18.5523   20.5584 C   0  0  0  0  0  0
  -28.2584  -24.9327   19.8282 C   0  0  0  0  0  0
  -28.7277  -23.8094   20.5145 C   0  0  0  0  0  0
  -28.7850  -22.3838   19.9340 C   0  0  0  0  0  0
  -26.9250  -20.2609   22.2224 C   0  0  0  0  0  0
  -28.0442  -21.2949   22.0361 C   0  0  0  0  0  0
  -29.8488  -15.9755   20.5870 N   0  0  0  0  0  0
  -28.7867  -21.2285   20.7535 N   0  0  0  0  0  0
  -28.8645  -22.2259   18.7123 O   0  0  0  0  0  0
  -29.2406  -24.0177   21.7388 O   0  0  0  0  0  0
  -27.9405  -18.2044   20.6637 F   0  0  0  0  0  0
  -31.4703  -12.6064   19.1830 H   0  0  0  0  0  0
  -30.3752  -11.5223   19.9895 H   0  0  0  0  0  0
  -29.8069  -11.7334   17.5383 H   0  0  0  0  0  0
  -29.6322  -13.4618   17.7181 H   0  0  0  0  0  0
  -27.9114  -11.2805   18.9364 H   0  0  0  0  0  0
  -27.3825  -12.4962   17.8031 H   0  0  0  0  0  0
  -27.6172  -14.2542   19.4451 H   0  0  0  0  0  0
  -28.7295  -12.2275   21.4482 H   0  0  0  0  0  0
  -28.4064  -13.9139   21.7729 H   0  0  0  0  0  0
  -25.2763   -9.5689   22.4765 H   0  0  0  0  0  0
  -24.0004   -7.4637   22.7472 H   0  0  0  0  0  0
  -21.0847   -8.8774   19.8957 H   0  0  0  0  0  0
  -22.3698  -10.9674   19.6170 H   0  0  0  0  0  0
  -21.2011   -7.6142   23.9716 H   0  0  0  0  0  0
  -21.1488   -6.0515   25.9075 H   0  0  0  0  0  0
  -22.0596   -2.7606   23.2838 H   0  0  0  0  0  0
  -22.4059  -11.9896   22.4842 H   0  0  0  0  0  0
  -21.1061  -13.1249   22.2601 H   0  0  0  0  0  0
  -24.6450  -15.8434   20.5340 H   0  0  0  0  0  0
  -26.2609  -15.6471   20.0946 H   0  0  0  0  0  0
  -26.7210  -32.5369   23.1049 H   0  0  0  0  0  0
  -25.0049  -33.9669   25.0361 H   0  0  0  0  0  0
  -22.7307  -31.2954   21.3899 H   0  0  0  0  0  0
  -23.3742  -35.9619   23.3299 H   0  0  0  0  0  0
  -24.3579  -36.8911   22.2059 H   0  0  0  0  0  0
  -23.7245  -37.6480   23.6678 H   0  0  0  0  0  0
  -26.1218  -31.5097   20.6054 H   0  0  0  0  0  0
  -26.8573  -30.8047   22.0126 H   0  0  0  0  0  0
  -28.1135  -28.8787   21.2269 H   0  0  0  0  0  0
  -25.9389  -25.8747   19.0114 H   0  0  0  0  0  0
  -23.9737  -27.2993   18.9932 H   0  0  0  0  0  0
  -23.7818  -30.5812   19.3986 H   0  0  0  0  0  0
  -22.7697  -29.2420   19.8474 H   0  0  0  0  0  0
  -25.1299  -36.1902   25.0815 H   0  0  0  0  0  0
  -21.0008  -28.3275   24.1380 H   0  0  0  0  0  0
  -20.5660  -26.2306   23.3620 H   0  0  0  0  0  0
  -21.6640  -26.7413   22.1214 H   0  0  0  0  0  0
  -19.6897  -25.6289   21.1247 H   0  0  0  0  0  0
  -19.6681  -27.3189   20.6745 H   0  0  0  0  0  0
  -17.4199  -26.6680   21.4032 H   0  0  0  0  0  0
  -18.0324  -26.0077   22.9031 H   0  0  0  0  0  0
  -19.7944  -30.7288   24.2239 H   0  0  0  0  0  0
  -17.5017  -31.6261   24.5173 H   0  0  0  0  0  0
  -15.5355  -30.2977   23.7660 H   0  0  0  0  0  0
  -15.8683  -28.0823   22.7052 H   0  0  0  0  0  0
  -24.5876  -30.7097   25.7771 H   0  0  0  0  0  0
  -24.8902  -32.2928   26.4832 H   0  0  0  0  0  0
  -25.8012  -30.8948   27.0233 H   0  0  0  0  0  0
  -26.2952  -29.6724   24.1225 H   0  0  0  0  0  0
  -27.3999  -29.7257   25.4763 H   0  0  0  0  0  0
  -27.8841  -30.4254   23.9501 H   0  0  0  0  0  0
  -27.2635  -33.3631   26.2058 H   0  0  0  0  0  0
  -28.3861  -32.6883   25.0338 H   0  0  0  0  0  0
  -28.0693  -31.8466   26.5432 H   0  0  0  0  0  0
  -28.2591  -38.0095   24.7501 H   0  0  0  0  0  0
  -28.1071  -36.2625   24.6300 H   0  0  0  0  0  0
  -27.2297  -37.1459   25.8867 H   0  0  0  0  0  0
  -20.9402  -29.8788   21.6875 H   0  0  0  0  0  0
  -26.0158  -38.2831   24.1403 H   0  0  0  0  0  0
  -32.9613  -19.4251   19.9882 H   0  0  0  0  0  0
  -32.3422  -17.1072   20.2005 H   0  0  0  0  0  0
  -31.3546  -21.2397   20.2036 H   0  0  0  0  0  0
  -27.8408  -24.8297   18.8362 H   0  0  0  0  0  0
  -26.2224  -20.5991   22.9845 H   0  0  0  0  0  0
  -27.3127  -19.3072   22.5775 H   0  0  0  0  0  0
  -26.3550  -20.1042   21.3055 H   0  0  0  0  0  0
  -28.7526  -21.2251   22.8624 H   0  0  0  0  0  0
  -27.5382  -22.2516   22.1597 H   0  0  0  0  0  0
  -28.8699  -15.8076   20.7626 H   0  0  0  0  0  0
  -29.6219  -23.1998   22.0320 H   0  0  0  0  0  0
  1 25  1  0  0  0
  1 30  2  0  0  0
  1 82  1  0  0  0
  2  3  1  0  0  0
  2 25  1  0  0  0
  2 87  1  0  0  0
  2 88  1  0  0  0
  3  4  1  0  0  0
  3 89  1  0  0  0
  3 90  1  0  0  0
  4  5  1  0  0  0
  4 91  1  0  0  0
  4 92  1  0  0  0
  5  6  1  0  0  0
  5 26  1  0  0  0
  5 93  1  0  0  0
  6 25  1  0  0  0
  6 94  1  0  0  0
  6 95  1  0  0  0
  7  8  2  0  0  0
  7 26  1  0  0  0
  7 29  1  0  0  0
  8  9  1  0  0  0
  8 22  1  0  0  0
  9 10  1  0  0  0
  9 27  2  0  0  0
 10 11  2  0  0  0
 10 15  1  0  0  0
 11 12  1  0  0  0
 11 96  1  0  0  0
 12 13  2  0  0  0
 12 97  1  0  0  0
 13 14  1  0  0  0
 13 31  1  0  0  0
 14 15  2  0  0  0
 14 98  1  0  0  0
 15 99  1  0  0  0
 16 17  2  0  0  0
 16 21  1  0  0  0
 16 31  1  0  0  0
 17 18  1  0  0  0
 17100  1  0  0  0
 18 19  2  0  0  0
 18101  1  0  0  0
 19 20  1  0  0  0
 19 24  1  0  0  0
 20 21  2  0  0  0
 20102  1  0  0  0
 21 23  1  0  0  0
 22 28  1  0  0  0
 22 32  2  0  0  0
 26 27  1  0  0  0
 28103  1  0  0  0
 28104  1  0  0  0
 29105  1  0  0  0
 29106  1  0  0  0
 33 34  1  0  0  0
 33 66  1  0  0  0
 33 70  2  0  0  0
 34 36  1  0  0  0
 34 59  1  0  0  0
 34107  1  0  0  0
 35 44  2  0  0  0
 35 45  1  0  0  0
 35 68  1  0  0  0
 36 56  1  0  0  0
 36108  1  0  0  0
 37 39  1  0  0  0
 37 47  1  0  0  0
 37 66  1  0  0  0
 37109  1  0  0  0
 38 43  2  0  0  0
 38 46  1  0  0  0
 38 47  1  0  0  0
 39 64  1  0  0  0
 39 67  2  0  0  0
 40 52  1  0  0  0
 40 53  2  0  0  0
 40 58  1  0  0  0
 41110  1  0  0  0
 41111  1  0  0  0
 41112  1  0  0  0
 41 48  1  0  0  0
 42 43  1  0  0  0
 42 66  1  0  0  0
 42113  1  0  0  0
 42114  1  0  0  0
 43 44  1  0  0  0
 44115  1  0  0  0
 45 46  2  0  0  0
 45116  1  0  0  0
 46117  1  0  0  0
 47118  1  0  0  0
 47119  1  0  0  0
 48 56  1  0  0  0
 48 65  1  0  0  0
 48120  1  0  0  0
 49 50  1  0  0  0
 49 53  1  0  0  0
 49 64  1  0  0  0
 49121  1  0  0  0
 50 51  1  0  0  0
 50122  1  0  0  0
 50123  1  0  0  0
 51 52  1  0  0  0
 51124  1  0  0  0
 51125  1  0  0  0
 52126  1  0  0  0
 52127  1  0  0  0
 53 54  1  0  0  0
 54 55  2  0  0  0
 54128  1  0  0  0
 55 57  1  0  0  0
 55129  1  0  0  0
 56 69  2  0  0  0
 57 58  2  0  0  0
 57130  1  0  0  0
 58131  1  0  0  0
 59 60  1  0  0  0
 59 61  1  0  0  0
 59 62  1  0  0  0
 60132  1  0  0  0
 60133  1  0  0  0
 60134  1  0  0  0
 61135  1  0  0  0
 61136  1  0  0  0
 61137  1  0  0  0
 62138  1  0  0  0
 62139  1  0  0  0
 62140  1  0  0  0
 63 65  1  0  0  0
 63141  1  0  0  0
 63142  1  0  0  0
 63143  1  0  0  0
 64144  1  0  0  0
 65145  1  0  0  0
 68 77  1  0  0  0
 71 72  2  0  0  0
 71 73  1  0  0  0
 71146  1  0  0  0
 72 74  1  0  0  0
 72147  1  0  0  0
 73 75  2  0  0  0
 73148  1  0  0  0
 74 76  2  0  0  0
 74 82  1  0  0  0
 75 76  1  0  0  0
 75 83  1  0  0  0
 76 86  1  0  0  0
 77 78  2  0  0  0
 77149  1  0  0  0
 78 79  1  0  0  0
 78 85  1  0  0  0
 79 83  1  0  0  0
 79 84  2  0  0  0
 80 81  1  0  0  0
 80150  1  0  0  0
 80151  1  0  0  0
 80152  1  0  0  0
 81 83  1  0  0  0
 81153  1  0  0  0
 81154  1  0  0  0
 82155  1  0  0  0
 85156  1  0  0  0
M  ISO  4   1 100  68 101  77 101  82 100
M  END
> <chiral flag>
0

> <version>
0

> <s_m_source_file>
/data/baiqing/PycharmProjects/Reinvent-master-3.2/result/LINK_invent/BTK/process_docking_weight1_custom_product_contain_oxygen_bond_distance_aromatic_linkinvent_7_9_3/rearranged_h_0175.sdf

> <i_m_source_file_index>
95

> <r_mmod_Potential_Energy-OPLS-2005>
372.212738037109

> <r_mmod_Stretch_Energy-OPLS-2005>
167.406600952148

> <r_mmod_Bend_Energy-OPLS-2005>
184.58772277832

> <r_mmod_Torsional_Energy-OPLS-2005>
302.697998046875

> <r_mmod_Improper_Torsional_Energy-OPLS-2005>
6.3182053565979

> <r_mmod_Van_der_Waal_Energy-OPLS-2005>
154.808563232422

> <r_mmod_Electrostatic_Energy-OPLS-2005>
-335.685272216797

> <r_mmod_Solvation_Energy-OPLS-2005>
-219.116088867188

> <b_mmod_Minimization_Converged-OPLS-2005>
0

> <r_mmod_RMS_Derivative-OPLS-2005>
1.0192848443985

$$$$
96
                    3D
 Structure written by MMmdl.
154162  0  0  1  0            999 V2000
  -30.6467  -14.5550   20.6103 C   0  0  0  0  0  0
  -30.4439  -12.3719   19.4275 C   0  0  0  0  0  0
  -29.5042  -12.5357   18.2122 C   0  0  0  0  0  0
  -28.0249  -12.3756   18.6197 C   0  0  0  0  0  0
  -27.6624  -13.2074   19.8780 C   0  0  2  0  0  0
  -28.7047  -12.9786   20.9968 C   0  0  0  0  0  0
  -25.2534  -13.8090   20.5544 C   0  0  0  0  0  0
  -24.1818  -13.0397   20.9166 C   0  0  0  0  0  0
  -24.6389  -11.6879   20.8751 C   0  0  0  0  0  0
  -23.9047  -10.4272   21.0420 C   0  0  0  0  0  0
  -24.3600   -9.4191   21.9192 C   0  0  0  0  0  0
  -23.6273   -8.2234   22.0764 C   0  0  0  0  0  0
  -22.4261   -8.0269   21.3546 C   0  0  0  0  0  0
  -21.9888   -9.0247   20.4657 C   0  0  0  0  0  0
  -22.7223  -10.2127   20.3059 C   0  0  0  0  0  0
  -21.6844   -6.0724   22.5279 C   0  0  0  0  0  0
  -21.4006   -6.5629   23.8219 C   0  0  0  0  0  0
  -21.3655   -5.6781   24.9174 C   0  0  0  0  0  0
  -21.6044   -4.3043   24.7224 C   0  0  0  0  0  0
  -21.8818   -3.8136   23.4345 C   0  0  0  0  0  0
  -21.9195   -4.6949   22.3401 C   0  0  0  0  0  0
  -22.7847  -13.5235   21.1822 C   0  0  0  0  0  0
  -22.1663   -4.2138   21.0978 F   0  0  0  0  0  0
  -21.5637   -3.4530   25.7734 F   0  0  0  0  0  0
  -30.0343  -13.3372   20.4652 N   0  0  0  0  0  0
  -26.3012  -12.9302   20.3345 N   0  0  0  0  0  0
  -25.9324  -11.6459   20.5779 N   0  0  0  0  0  0
  -22.0461  -12.8278   22.0391 N   0  0  0  0  0  0
  -25.4120  -15.1761   20.3656 N   0  0  0  0  0  0
  -31.7068  -14.8258   20.0332 O   0  0  0  0  0  0
  -21.6632   -6.8863   21.4240 O   0  0  0  0  0  0
  -22.3564  -14.5538   20.6647 O   0  0  0  0  0  0
  -24.6211  -31.8607   23.2026 C   0  0  0  0  0  0
  -25.9087  -32.4765   23.8344 C   0  0  1  0  0  0
  -27.2499  -27.3770   20.1089 C   0  0  0  0  0  0
  -25.5932  -33.8563   24.2286 N   0  0  0  0  0  0
  -23.4139  -30.4823   21.5379 C   0  0  2  0  0  0
  -24.8675  -28.9346   20.1152 C   0  0  0  0  0  0
  -22.7431  -29.4641   22.4894 C   0  0  0  0  0  0
  -18.0278  -28.1381   22.8483 C   0  0  0  0  0  0
  -24.1502  -36.7291   23.2631 C   0  0  0  0  0  0
  -25.9490  -30.8110   21.3663 C   0  0  0  0  0  0
  -26.0277  -29.4402   20.7133 C   0  0  0  0  0  0
  -27.2167  -28.6673   20.7066 C   0  0  0  0  0  0
  -26.0642  -26.8969   19.5087 C   0  0  0  0  0  0
  -24.8805  -27.6637   19.5158 C   0  0  0  0  0  0
  -23.6327  -29.8064   20.1567 C   0  0  0  0  0  0
  -25.4114  -36.3059   24.0327 C   0  0  1  0  0  0
  -20.5880  -28.3698   23.1275 C   0  0  2  0  0  0
  -20.6776  -26.9423   22.5401 C   0  0  0  0  0  0
  -19.5752  -26.6389   21.5202 C   0  0  0  0  0  0
  -18.1930  -26.7931   22.1615 C   0  0  0  0  0  0
  -19.1532  -28.8849   23.2889 C   0  0  0  0  0  0
  -18.9455  -30.1446   23.8914 C   0  0  0  0  0  0
  -17.6460  -30.6594   24.0557 C   0  0  0  0  0  0
  -25.9048  -34.9436   23.5099 C   0  0  0  0  0  0
  -16.5349  -29.9100   23.6315 C   0  0  0  0  0  0
  -16.7265  -28.6508   23.0352 C   0  0  0  0  0  0
  -26.4505  -31.6558   25.0689 C   0  0  0  0  0  0
  -25.3761  -31.3690   26.1426 C   0  0  0  0  0  0
  -27.0350  -30.2974   24.6148 C   0  0  0  0  0  0
  -27.6066  -32.4284   25.7466 C   0  0  0  0  0  0
  -27.5582  -37.1785   24.8452 C   0  0  0  0  0  0
  -21.4155  -29.3062   22.3655 N   0  0  0  0  0  0
  -26.4284  -37.3759   23.9414 N   0  0  0  0  0  0
  -24.6783  -31.0684   22.0934 N   0  0  0  0  0  0
  -23.4171  -28.8184   23.2967 O   0  0  0  0  0  0
  -28.4263  -26.6343   20.1607 O   0  0  0  0  0  0
  -26.5597  -34.8904   22.4651 O   0  0  0  0  0  0
  -23.5386  -32.1376   23.7383 O   0  0  0  0  0  0
  -28.0447  -16.6273   21.7691 C   0  0  0  0  0  0
  -27.2958  -17.8092   21.7569 C   0  0  0  0  0  0
  -29.3676  -16.6544   21.3046 C   0  0  0  0  0  0
  -29.0846  -18.9487   20.9188 C   0  0  0  0  0  0
  -25.8829  -17.8453   22.1997 C   0  0  0  0  0  0
  -29.0692  -22.7106   19.9923 C   0  0  0  0  0  0
  -28.3892  -24.0923   20.4021 C   0  0  0  0  0  0
  -29.0032  -21.4965   20.9715 C   0  0  0  0  0  0
  -28.5775  -25.3454   19.4859 C   0  0  0  0  0  0
  -27.8341  -18.9663   21.3303 N   0  0  0  0  0  0
  -29.8763  -17.8584   20.8754 N   0  0  0  0  0  0
  -25.1527  -18.8745   22.0865 N   0  0  0  0  0  0
  -30.0470  -15.3954   21.4932 N   0  0  0  0  0  0
  -29.5777  -20.1909   20.5161 N   0  0  0  0  0  0
  -29.6366  -22.5858   18.8986 O   0  0  0  0  0  0
  -27.6921  -24.1662   21.4231 O   0  0  0  0  0  0
  -31.4816  -12.5134   19.1221 H   0  0  0  0  0  0
  -30.3877  -11.3564   19.8207 H   0  0  0  0  0  0
  -29.7578  -11.8070   17.4415 H   0  0  0  0  0  0
  -29.6527  -13.5186   17.7614 H   0  0  0  0  0  0
  -27.8455  -11.3174   18.8121 H   0  0  0  0  0  0
  -27.3737  -12.6488   17.7871 H   0  0  0  0  0  0
  -27.7065  -14.2582   19.5881 H   0  0  0  0  0  0
  -28.7051  -11.9303   21.3001 H   0  0  0  0  0  0
  -28.4320  -13.5294   21.8970 H   0  0  0  0  0  0
  -25.2742   -9.5679   22.4771 H   0  0  0  0  0  0
  -23.9984   -7.4623   22.7476 H   0  0  0  0  0  0
  -21.0824   -8.8768   19.8960 H   0  0  0  0  0  0
  -22.3679  -10.9670   19.6170 H   0  0  0  0  0  0
  -21.1994   -7.6134   23.9714 H   0  0  0  0  0  0
  -21.1478   -6.0508   25.9083 H   0  0  0  0  0  0
  -22.0601   -2.7592   23.2841 H   0  0  0  0  0  0
  -22.4027  -11.9958   22.4849 H   0  0  0  0  0  0
  -21.1070  -13.1357   22.2532 H   0  0  0  0  0  0
  -24.5880  -15.7648   20.3160 H   0  0  0  0  0  0
  -26.2046  -15.5615   19.8711 H   0  0  0  0  0  0
  -26.7158  -32.5476   23.1103 H   0  0  0  0  0  0
  -25.0105  -33.9711   25.0447 H   0  0  0  0  0  0
  -22.7068  -31.2999   21.3822 H   0  0  0  0  0  0
  -23.3745  -35.9643   23.3286 H   0  0  0  0  0  0
  -24.3597  -36.8913   22.2047 H   0  0  0  0  0  0
  -23.7289  -37.6507   23.6652 H   0  0  0  0  0  0
  -26.0775  -31.5779   20.6001 H   0  0  0  0  0  0
  -26.8304  -30.8596   21.9953 H   0  0  0  0  0  0
  -28.1120  -29.0530   21.1749 H   0  0  0  0  0  0
  -26.0233  -25.9182   19.0560 H   0  0  0  0  0  0
  -23.9820  -27.2590   19.0710 H   0  0  0  0  0  0
  -23.7593  -30.5732   19.3917 H   0  0  0  0  0  0
  -22.7599  -29.2261   19.8517 H   0  0  0  0  0  0
  -25.1294  -36.1885   25.0816 H   0  0  0  0  0  0
  -20.9994  -28.3292   24.1386 H   0  0  0  0  0  0
  -20.5685  -26.2310   23.3600 H   0  0  0  0  0  0
  -21.6644  -26.7457   22.1188 H   0  0  0  0  0  0
  -19.6922  -25.6298   21.1241 H   0  0  0  0  0  0
  -19.6702  -27.3195   20.6728 H   0  0  0  0  0  0
  -17.4203  -26.6673   21.4017 H   0  0  0  0  0  0
  -18.0338  -26.0070   22.9009 H   0  0  0  0  0  0
  -19.7931  -30.7242   24.2320 H   0  0  0  0  0  0
  -17.5018  -31.6271   24.5154 H   0  0  0  0  0  0
  -15.5355  -30.3012   23.7624 H   0  0  0  0  0  0
  -15.8664  -28.0826   22.7080 H   0  0  0  0  0  0
  -24.5935  -30.7037   25.7760 H   0  0  0  0  0  0
  -24.8957  -32.2861   26.4844 H   0  0  0  0  0  0
  -25.8102  -30.8868   27.0194 H   0  0  0  0  0  0
  -26.2923  -29.6693   24.1213 H   0  0  0  0  0  0
  -27.4086  -29.7252   25.4654 H   0  0  0  0  0  0
  -27.8776  -30.4233   23.9341 H   0  0  0  0  0  0
  -27.2669  -33.3564   26.2071 H   0  0  0  0  0  0
  -28.3871  -32.6870   25.0299 H   0  0  0  0  0  0
  -28.0747  -31.8391   26.5360 H   0  0  0  0  0  0
  -28.2554  -38.0123   24.7517 H   0  0  0  0  0  0
  -28.1118  -36.2646   24.6237 H   0  0  0  0  0  0
  -27.2299  -37.1383   25.8853 H   0  0  0  0  0  0
  -20.9316  -29.8775   21.6869 H   0  0  0  0  0  0
  -26.0150  -38.2820   24.1435 H   0  0  0  0  0  0
  -27.5795  -15.7216   22.1332 H   0  0  0  0  0  0
  -25.4754  -16.9264   22.6318 H   0  0  0  0  0  0
  -27.9533  -21.3774   21.2366 H   0  0  0  0  0  0
  -29.5144  -21.7800   21.8922 H   0  0  0  0  0  0
  -27.9473  -25.2714   18.6006 H   0  0  0  0  0  0
  -29.6046  -25.3115   19.1212 H   0  0  0  0  0  0
  -25.7466  -19.5779   21.6525 H   0  0  0  0  0  0
  -29.5289  -14.8240   22.1377 H   0  0  0  0  0  0
  -30.5441  -20.2006   20.2155 H   0  0  0  0  0  0
  1 25  1  0  0  0
  1 30  2  0  0  0
  1 83  1  0  0  0
  2  3  1  0  0  0
  2 25  1  0  0  0
  2 87  1  0  0  0
  2 88  1  0  0  0
  3  4  1  0  0  0
  3 89  1  0  0  0
  3 90  1  0  0  0
  4  5  1  0  0  0
  4 91  1  0  0  0
  4 92  1  0  0  0
  5  6  1  0  0  0
  5 26  1  0  0  0
  5 93  1  0  0  0
  6 25  1  0  0  0
  6 94  1  0  0  0
  6 95  1  0  0  0
  7  8  2  0  0  0
  7 26  1  0  0  0
  7 29  1  0  0  0
  8  9  1  0  0  0
  8 22  1  0  0  0
  9 10  1  0  0  0
  9 27  2  0  0  0
 10 11  2  0  0  0
 10 15  1  0  0  0
 11 12  1  0  0  0
 11 96  1  0  0  0
 12 13  2  0  0  0
 12 97  1  0  0  0
 13 14  1  0  0  0
 13 31  1  0  0  0
 14 15  2  0  0  0
 14 98  1  0  0  0
 15 99  1  0  0  0
 16 17  2  0  0  0
 16 21  1  0  0  0
 16 31  1  0  0  0
 17 18  1  0  0  0
 17100  1  0  0  0
 18 19  2  0  0  0
 18101  1  0  0  0
 19 20  1  0  0  0
 19 24  1  0  0  0
 20 21  2  0  0  0
 20102  1  0  0  0
 21 23  1  0  0  0
 22 28  1  0  0  0
 22 32  2  0  0  0
 26 27  1  0  0  0
 28103  1  0  0  0
 28104  1  0  0  0
 29105  1  0  0  0
 29106  1  0  0  0
 33 34  1  0  0  0
 33 66  1  0  0  0
 33 70  2  0  0  0
 34 36  1  0  0  0
 34 59  1  0  0  0
 34107  1  0  0  0
 35 44  2  0  0  0
 35 45  1  0  0  0
 35 68  1  0  0  0
 36 56  1  0  0  0
 36108  1  0  0  0
 37 39  1  0  0  0
 37 47  1  0  0  0
 37 66  1  0  0  0
 37109  1  0  0  0
 38 43  2  0  0  0
 38 46  1  0  0  0
 38 47  1  0  0  0
 39 64  1  0  0  0
 39 67  2  0  0  0
 40 52  1  0  0  0
 40 53  2  0  0  0
 40 58  1  0  0  0
 41110  1  0  0  0
 41111  1  0  0  0
 41112  1  0  0  0
 41 48  1  0  0  0
 42 43  1  0  0  0
 42 66  1  0  0  0
 42113  1  0  0  0
 42114  1  0  0  0
 43 44  1  0  0  0
 44115  1  0  0  0
 45 46  2  0  0  0
 45116  1  0  0  0
 46117  1  0  0  0
 47118  1  0  0  0
 47119  1  0  0  0
 48 56  1  0  0  0
 48 65  1  0  0  0
 48120  1  0  0  0
 49 50  1  0  0  0
 49 53  1  0  0  0
 49 64  1  0  0  0
 49121  1  0  0  0
 50 51  1  0  0  0
 50122  1  0  0  0
 50123  1  0  0  0
 51 52  1  0  0  0
 51124  1  0  0  0
 51125  1  0  0  0
 52126  1  0  0  0
 52127  1  0  0  0
 53 54  1  0  0  0
 54 55  2  0  0  0
 54128  1  0  0  0
 55 57  1  0  0  0
 55129  1  0  0  0
 56 69  2  0  0  0
 57 58  2  0  0  0
 57130  1  0  0  0
 58131  1  0  0  0
 59 60  1  0  0  0
 59 61  1  0  0  0
 59 62  1  0  0  0
 60132  1  0  0  0
 60133  1  0  0  0
 60134  1  0  0  0
 61135  1  0  0  0
 61136  1  0  0  0
 61137  1  0  0  0
 62138  1  0  0  0
 62139  1  0  0  0
 62140  1  0  0  0
 63 65  1  0  0  0
 63141  1  0  0  0
 63142  1  0  0  0
 63143  1  0  0  0
 64144  1  0  0  0
 65145  1  0  0  0
 68 79  1  0  0  0
 71 72  2  0  0  0
 71 73  1  0  0  0
 71146  1  0  0  0
 72 75  1  0  0  0
 72 80  1  0  0  0
 73 81  2  0  0  0
 73 83  1  0  0  0
 74 80  2  0  0  0
 74 81  1  0  0  0
 74 84  1  0  0  0
 75 82  2  0  0  0
 75147  1  0  0  0
 76 77  1  0  0  0
 76 78  1  0  0  0
 76 85  2  0  0  0
 77 79  1  0  0  0
 77 86  2  0  0  0
 78 84  1  0  0  0
 78148  1  0  0  0
 78149  1  0  0  0
 79150  1  0  0  0
 79151  1  0  0  0
 82152  1  0  0  0
 83153  1  0  0  0
 84154  1  0  0  0
M  ISO  4   1 100  68 101  79 101  83 100
M  END
> <chiral flag>
0

> <version>
0

> <s_m_source_file>
/data/baiqing/PycharmProjects/Reinvent-master-3.2/result/LINK_invent/BTK/process_docking_weight1_custom_product_contain_oxygen_bond_distance_aromatic_linkinvent_7_9_3/rearranged_h_0175.sdf

> <i_m_source_file_index>
96

> <r_mmod_Potential_Energy-OPLS-2005>
-562.079345703125

> <r_mmod_Stretch_Energy-OPLS-2005>
61.0074005126953

> <r_mmod_Bend_Energy-OPLS-2005>
145.432525634766

> <r_mmod_Torsional_Energy-OPLS-2005>
219.483413696289

> <r_mmod_Improper_Torsional_Energy-OPLS-2005>
10.2022886276245

> <r_mmod_Van_der_Waal_Energy-OPLS-2005>
152.619491577148

> <r_mmod_Electrostatic_Energy-OPLS-2005>
-888.642639160156

> <r_mmod_Solvation_Energy-OPLS-2005>
-288.480560302734

> <b_mmod_Minimization_Converged-OPLS-2005>
0

> <r_mmod_RMS_Derivative-OPLS-2005>
2.92954850196838

$$$$
97
                    3D
 Structure written by MMmdl.
153161  0  0  1  0            999 V2000
  -30.6931  -14.6369   20.4886 C   0  0  0  0  0  0
  -30.4018  -12.3891   19.4605 C   0  0  0  0  0  0
  -29.4889  -12.4880   18.2213 C   0  0  0  0  0  0
  -28.0170  -12.3271   18.6421 C   0  0  0  0  0  0
  -27.6366  -13.2275   19.8501 C   0  0  2  0  0  0
  -28.6847  -13.1430   20.9825 C   0  0  0  0  0  0
  -25.2485  -13.8184   20.5695 C   0  0  0  0  0  0
  -24.1775  -13.0428   20.9203 C   0  0  0  0  0  0
  -24.6365  -11.6907   20.8745 C   0  0  0  0  0  0
  -23.9037  -10.4288   21.0409 C   0  0  0  0  0  0
  -24.3599   -9.4197   21.9182 C   0  0  0  0  0  0
  -23.6280   -8.2226   22.0741 C   0  0  0  0  0  0
  -22.4258   -8.0263   21.3542 C   0  0  0  0  0  0
  -21.9894   -9.0220   20.4636 C   0  0  0  0  0  0
  -22.7209  -10.2107   20.3055 C   0  0  0  0  0  0
  -21.6851   -6.0723   22.5271 C   0  0  0  0  0  0
  -21.4013   -6.5630   23.8200 C   0  0  0  0  0  0
  -21.3665   -5.6787   24.9173 C   0  0  0  0  0  0
  -21.6046   -4.3047   24.7227 C   0  0  0  0  0  0
  -21.8826   -3.8134   23.4349 C   0  0  0  0  0  0
  -21.9187   -4.6950   22.3405 C   0  0  0  0  0  0
  -22.7806  -13.5211   21.1867 C   0  0  0  0  0  0
  -22.1659   -4.2137   21.0985 F   0  0  0  0  0  0
  -21.5632   -3.4538   25.7742 F   0  0  0  0  0  0
  -29.9886  -13.4619   20.3935 N   0  0  0  0  0  0
  -26.2901  -12.9387   20.3287 N   0  0  0  0  0  0
  -25.9286  -11.6535   20.5756 N   0  0  0  0  0  0
  -22.0468  -12.8188   22.0429 N   0  0  0  0  0  0
  -25.4175  -15.1903   20.4142 N   0  0  0  0  0  0
  -31.8812  -14.6286   20.1598 O   0  0  0  0  0  0
  -21.6632   -6.8853   21.4229 O   0  0  0  0  0  0
  -22.3482  -14.5531   20.6721 O   0  0  0  0  0  0
  -24.6273  -31.8580   23.2028 C   0  0  0  0  0  0
  -25.9121  -32.4765   23.8359 C   0  0  1  0  0  0
  -27.2101  -27.3085   20.1015 C   0  0  0  0  0  0
  -25.5940  -33.8577   24.2285 N   0  0  0  0  0  0
  -23.4235  -30.4824   21.5477 C   0  0  2  0  0  0
  -24.8693  -28.9465   20.1001 C   0  0  0  0  0  0
  -22.7485  -29.4592   22.4925 C   0  0  0  0  0  0
  -18.0287  -28.1417   22.8449 C   0  0  0  0  0  0
  -24.1499  -36.7283   23.2633 C   0  0  0  0  0  0
  -25.9680  -30.7792   21.3820 C   0  0  0  0  0  0
  -26.0391  -29.4094   20.7184 C   0  0  0  0  0  0
  -27.2138  -28.5987   20.7206 C   0  0  0  0  0  0
  -26.0405  -26.9336   19.4091 C   0  0  0  0  0  0
  -24.8715  -27.7122   19.4379 C   0  0  0  0  0  0
  -23.6381  -29.8247   20.1604 C   0  0  0  0  0  0
  -25.4128  -36.3089   24.0326 C   0  0  1  0  0  0
  -20.5880  -28.3710   23.1280 C   0  0  2  0  0  0
  -20.6786  -26.9436   22.5410 C   0  0  0  0  0  0
  -19.5769  -26.6399   21.5213 C   0  0  0  0  0  0
  -18.1939  -26.7941   22.1612 C   0  0  0  0  0  0
  -19.1540  -28.8880   23.2851 C   0  0  0  0  0  0
  -18.9458  -30.1467   23.8888 C   0  0  0  0  0  0
  -17.6460  -30.6601   24.0567 C   0  0  0  0  0  0
  -25.9059  -34.9447   23.5112 C   0  0  0  0  0  0
  -16.5348  -29.9100   23.6352 C   0  0  0  0  0  0
  -16.7268  -28.6529   23.0341 C   0  0  0  0  0  0
  -26.4495  -31.6587   25.0737 C   0  0  0  0  0  0
  -25.3720  -31.3754   26.1455 C   0  0  0  0  0  0
  -27.0338  -30.3002   24.6230 C   0  0  0  0  0  0
  -27.6061  -32.4322   25.7491 C   0  0  0  0  0  0
  -27.5581  -37.1784   24.8461 C   0  0  0  0  0  0
  -21.4197  -29.3043   22.3669 N   0  0  0  0  0  0
  -26.4294  -37.3785   23.9400 N   0  0  0  0  0  0
  -24.6920  -31.0559   22.1000 N   0  0  0  0  0  0
  -23.4185  -28.8122   23.3017 O   0  0  0  0  0  0
  -28.2775  -26.3950   20.1259 O   0  0  0  0  0  0
  -26.5618  -34.8914   22.4682 O   0  0  0  0  0  0
  -23.5433  -32.1403   23.7335 O   0  0  0  0  0  0
  -30.6481  -19.4875   20.0175 C   0  0  0  0  0  0
  -30.1998  -20.8388   19.9846 C   0  0  0  0  0  0
  -29.9201  -18.4298   20.6440 C   0  0  0  0  0  0
  -28.9742  -21.2168   20.5824 C   0  0  0  0  0  0
  -28.6725  -18.8013   21.2090 C   0  0  0  0  0  0
  -28.2186  -20.1616   21.1740 C   0  0  0  0  0  0
  -30.6245  -17.0672   20.8417 C   0  0  0  0  0  0
  -28.8933  -23.8319   20.2948 C   0  0  0  0  0  0
  -26.6307  -24.6605   21.1715 C   0  0  0  0  0  0
  -28.0903  -25.0921   20.8509 C   0  0  2  0  0  0
  -28.4614  -22.5856   20.6841 N   0  0  0  0  0  0
  -30.0229  -15.8273   20.7148 N   0  0  0  0  0  0
  -31.8282  -17.1709   21.1040 O   0  0  0  0  0  0
  -29.8660  -23.9966   19.5534 O   0  0  0  0  0  0
  -27.9203  -17.8705   21.8443 F   0  0  0  0  0  0
  -27.0361  -20.4721   21.7616 F   0  0  0  0  0  0
  -31.4505  -12.4521   19.1675 H   0  0  0  0  0  0
  -30.2898  -11.4139   19.9365 H   0  0  0  0  0  0
  -29.7536  -11.7232   17.4899 H   0  0  0  0  0  0
  -29.6291  -13.4490   17.7263 H   0  0  0  0  0  0
  -27.8666  -11.2783   18.9024 H   0  0  0  0  0  0
  -27.3530  -12.5224   17.7980 H   0  0  0  0  0  0
  -27.6354  -14.2499   19.4723 H   0  0  0  0  0  0
  -28.7001  -12.1394   21.4107 H   0  0  0  0  0  0
  -28.4399  -13.8220   21.8004 H   0  0  0  0  0  0
  -25.2745   -9.5681   22.4748 H   0  0  0  0  0  0
  -23.9990   -7.4629   22.7461 H   0  0  0  0  0  0
  -21.0818   -8.8730   19.8942 H   0  0  0  0  0  0
  -22.3655  -10.9643   19.6159 H   0  0  0  0  0  0
  -21.2006   -7.6141   23.9706 H   0  0  0  0  0  0
  -21.1484   -6.0522   25.9074 H   0  0  0  0  0  0
  -22.0600   -2.7599   23.2857 H   0  0  0  0  0  0
  -22.4100  -11.9848   22.4812 H   0  0  0  0  0  0
  -21.1084  -13.1194   22.2667 H   0  0  0  0  0  0
  -24.6522  -15.8436   20.5384 H   0  0  0  0  0  0
  -26.2656  -15.6361   20.0900 H   0  0  0  0  0  0
  -26.7166  -32.5427   23.1079 H   0  0  0  0  0  0
  -25.0074  -33.9743   25.0415 H   0  0  0  0  0  0
  -22.7184  -31.3045   21.4052 H   0  0  0  0  0  0
  -23.3764  -35.9617   23.3318 H   0  0  0  0  0  0
  -24.3570  -36.8906   22.2040 H   0  0  0  0  0  0
  -23.7249  -37.6489   23.6645 H   0  0  0  0  0  0
  -26.1141  -31.5441   20.6196 H   0  0  0  0  0  0
  -26.8419  -30.8165   22.0199 H   0  0  0  0  0  0
  -28.1040  -28.9420   21.2277 H   0  0  0  0  0  0
  -26.0147  -25.9987   18.8702 H   0  0  0  0  0  0
  -23.9802  -27.3613   18.9361 H   0  0  0  0  0  0
  -23.7554  -30.6054   19.4076 H   0  0  0  0  0  0
  -22.7588  -29.2530   19.8568 H   0  0  0  0  0  0
  -25.1310  -36.1928   25.0812 H   0  0  0  0  0  0
  -20.9948  -28.3283   24.1412 H   0  0  0  0  0  0
  -20.5751  -26.2299   23.3613 H   0  0  0  0  0  0
  -21.6647  -26.7508   22.1166 H   0  0  0  0  0  0
  -19.6958  -25.6319   21.1246 H   0  0  0  0  0  0
  -19.6735  -27.3223   20.6763 H   0  0  0  0  0  0
  -17.4219  -26.6677   21.4005 H   0  0  0  0  0  0
  -18.0320  -26.0114   22.9043 H   0  0  0  0  0  0
  -19.7935  -30.7271   24.2257 H   0  0  0  0  0  0
  -17.5025  -31.6288   24.5170 H   0  0  0  0  0  0
  -15.5357  -30.3006   23.7700 H   0  0  0  0  0  0
  -15.8650  -28.0860   22.7070 H   0  0  0  0  0  0
  -24.5898  -30.7109   25.7766 H   0  0  0  0  0  0
  -24.8906  -32.2937   26.4819 H   0  0  0  0  0  0
  -25.8015  -30.8950   27.0255 H   0  0  0  0  0  0
  -26.2922  -29.6736   24.1260 H   0  0  0  0  0  0
  -27.4016  -29.7269   25.4751 H   0  0  0  0  0  0
  -27.8810  -30.4271   23.9492 H   0  0  0  0  0  0
  -27.2709  -33.3661   26.2006 H   0  0  0  0  0  0
  -28.3893  -32.6821   25.0323 H   0  0  0  0  0  0
  -28.0705  -31.8490   26.5452 H   0  0  0  0  0  0
  -28.2594  -38.0079   24.7512 H   0  0  0  0  0  0
  -28.1088  -36.2607   24.6302 H   0  0  0  0  0  0
  -27.2286  -37.1457   25.8862 H   0  0  0  0  0  0
  -20.9388  -29.8710   21.6833 H   0  0  0  0  0  0
  -26.0183  -38.2866   24.1406 H   0  0  0  0  0  0
  -31.6160  -19.2731   19.5856 H   0  0  0  0  0  0
  -30.8343  -21.5814   19.5213 H   0  0  0  0  0  0
  -26.0462  -25.4639   21.6183 H   0  0  0  0  0  0
  -26.5973  -23.8497   21.8992 H   0  0  0  0  0  0
  -26.1139  -24.3065   20.2772 H   0  0  0  0  0  0
  -28.5541  -25.2874   21.8185 H   0  0  0  0  0  0
  -27.5967  -22.6410   21.2054 H   0  0  0  0  0  0
  -29.0182  -15.7973   20.7301 H   0  0  0  0  0  0
  1 25  1  0  0  0
  1 30  2  0  0  0
  1 82  1  0  0  0
  2  3  1  0  0  0
  2 25  1  0  0  0
  2 87  1  0  0  0
  2 88  1  0  0  0
  3  4  1  0  0  0
  3 89  1  0  0  0
  3 90  1  0  0  0
  4  5  1  0  0  0
  4 91  1  0  0  0
  4 92  1  0  0  0
  5  6  1  0  0  0
  5 26  1  0  0  0
  5 93  1  0  0  0
  6 25  1  0  0  0
  6 94  1  0  0  0
  6 95  1  0  0  0
  7  8  2  0  0  0
  7 26  1  0  0  0
  7 29  1  0  0  0
  8  9  1  0  0  0
  8 22  1  0  0  0
  9 10  1  0  0  0
  9 27  2  0  0  0
 10 11  2  0  0  0
 10 15  1  0  0  0
 11 12  1  0  0  0
 11 96  1  0  0  0
 12 13  2  0  0  0
 12 97  1  0  0  0
 13 14  1  0  0  0
 13 31  1  0  0  0
 14 15  2  0  0  0
 14 98  1  0  0  0
 15 99  1  0  0  0
 16 17  2  0  0  0
 16 21  1  0  0  0
 16 31  1  0  0  0
 17 18  1  0  0  0
 17100  1  0  0  0
 18 19  2  0  0  0
 18101  1  0  0  0
 19 20  1  0  0  0
 19 24  1  0  0  0
 20 21  2  0  0  0
 20102  1  0  0  0
 21 23  1  0  0  0
 22 28  1  0  0  0
 22 32  2  0  0  0
 26 27  1  0  0  0
 28103  1  0  0  0
 28104  1  0  0  0
 29105  1  0  0  0
 29106  1  0  0  0
 33 34  1  0  0  0
 33 66  1  0  0  0
 33 70  2  0  0  0
 34 36  1  0  0  0
 34 59  1  0  0  0
 34107  1  0  0  0
 35 44  2  0  0  0
 35 45  1  0  0  0
 35 68  1  0  0  0
 36 56  1  0  0  0
 36108  1  0  0  0
 37 39  1  0  0  0
 37 47  1  0  0  0
 37 66  1  0  0  0
 37109  1  0  0  0
 38 43  2  0  0  0
 38 46  1  0  0  0
 38 47  1  0  0  0
 39 64  1  0  0  0
 39 67  2  0  0  0
 40 52  1  0  0  0
 40 53  2  0  0  0
 40 58  1  0  0  0
 41110  1  0  0  0
 41111  1  0  0  0
 41112  1  0  0  0
 41 48  1  0  0  0
 42 43  1  0  0  0
 42 66  1  0  0  0
 42113  1  0  0  0
 42114  1  0  0  0
 43 44  1  0  0  0
 44115  1  0  0  0
 45 46  2  0  0  0
 45116  1  0  0  0
 46117  1  0  0  0
 47118  1  0  0  0
 47119  1  0  0  0
 48 56  1  0  0  0
 48 65  1  0  0  0
 48120  1  0  0  0
 49 50  1  0  0  0
 49 53  1  0  0  0
 49 64  1  0  0  0
 49121  1  0  0  0
 50 51  1  0  0  0
 50122  1  0  0  0
 50123  1  0  0  0
 51 52  1  0  0  0
 51124  1  0  0  0
 51125  1  0  0  0
 52126  1  0  0  0
 52127  1  0  0  0
 53 54  1  0  0  0
 54 55  2  0  0  0
 54128  1  0  0  0
 55 57  1  0  0  0
 55129  1  0  0  0
 56 69  2  0  0  0
 57 58  2  0  0  0
 57130  1  0  0  0
 58131  1  0  0  0
 59 60  1  0  0  0
 59 61  1  0  0  0
 59 62  1  0  0  0
 60132  1  0  0  0
 60133  1  0  0  0
 60134  1  0  0  0
 61135  1  0  0  0
 61136  1  0  0  0
 61137  1  0  0  0
 62138  1  0  0  0
 62139  1  0  0  0
 62140  1  0  0  0
 63 65  1  0  0  0
 63141  1  0  0  0
 63142  1  0  0  0
 63143  1  0  0  0
 64144  1  0  0  0
 65145  1  0  0  0
 68 80  1  0  0  0
 71 72  2  0  0  0
 71 73  1  0  0  0
 71146  1  0  0  0
 72 74  1  0  0  0
 72147  1  0  0  0
 73 75  2  0  0  0
 73 77  1  0  0  0
 74 76  2  0  0  0
 74 81  1  0  0  0
 75 76  1  0  0  0
 75 85  1  0  0  0
 76 86  1  0  0  0
 77 82  1  0  0  0
 77 83  2  0  0  0
 78 80  1  0  0  0
 78 81  1  0  0  0
 78 84  2  0  0  0
 79148  1  0  0  0
 79149  1  0  0  0
 79150  1  0  0  0
 79 80  1  0  0  0
 80151  1  0  0  0
 81152  1  0  0  0
 82153  1  0  0  0
M  ISO  4   1 100  68 101  80 101  82 100
M  END
> <chiral flag>
0

> <version>
0

> <s_m_source_file>
/data/baiqing/PycharmProjects/Reinvent-master-3.2/result/LINK_invent/BTK/process_docking_weight1_custom_product_contain_oxygen_bond_distance_aromatic_linkinvent_7_9_3/rearranged_h_0175.sdf

> <i_m_source_file_index>
97

> <r_mmod_Potential_Energy-OPLS-2005>
70.256477355957

> <r_mmod_Stretch_Energy-OPLS-2005>
88.9545364379883

> <r_mmod_Bend_Energy-OPLS-2005>
168.670455932617

> <r_mmod_Torsional_Energy-OPLS-2005>
268.564636230469

> <r_mmod_Improper_Torsional_Energy-OPLS-2005>
6.45261526107788

> <r_mmod_Van_der_Waal_Energy-OPLS-2005>
166.942474365234

> <r_mmod_Electrostatic_Energy-OPLS-2005>
-450.823822021484

> <r_mmod_Solvation_Energy-OPLS-2005>
-239.241485595703

> <b_mmod_Minimization_Converged-OPLS-2005>
0

> <r_mmod_RMS_Derivative-OPLS-2005>
3.35128974914551

$$$$
