0
                    3D
 Structure written by MMmdl.
153161  0  0  1  0            999 V2000
  -30.6258  -14.7240   20.4526 C   0  0  0  0  0  0
  -30.4230  -12.4399   19.4734 C   0  0  0  0  0  0
  -29.5048  -12.4994   18.2337 C   0  0  0  0  0  0
  -28.0303  -12.3310   18.6467 C   0  0  0  0  0  0
  -27.6381  -13.2325   19.8480 C   0  0  2  0  0  0
  -28.6819  -13.1710   20.9837 C   0  0  0  0  0  0
  -25.2492  -13.8198   20.5689 C   0  0  0  0  0  0
  -24.1792  -13.0444   20.9224 C   0  0  0  0  0  0
  -24.6385  -11.6924   20.8761 C   0  0  0  0  0  0
  -23.9064  -10.4295   21.0414 C   0  0  0  0  0  0
  -24.3619   -9.4210   21.9187 C   0  0  0  0  0  0
  -23.6297   -8.2245   22.0755 C   0  0  0  0  0  0
  -22.4278   -8.0280   21.3549 C   0  0  0  0  0  0
  -21.9913   -9.0251   20.4648 C   0  0  0  0  0  0
  -22.7240  -10.2133   20.3059 C   0  0  0  0  0  0
  -21.6853   -6.0734   22.5281 C   0  0  0  0  0  0
  -21.4010   -6.5640   23.8214 C   0  0  0  0  0  0
  -21.3661   -5.6794   24.9177 C   0  0  0  0  0  0
  -21.6046   -4.3057   24.7227 C   0  0  0  0  0  0
  -21.8819   -3.8148   23.4349 C   0  0  0  0  0  0
  -21.9192   -4.6962   22.3403 C   0  0  0  0  0  0
  -22.7815  -13.5225   21.1877 C   0  0  0  0  0  0
  -22.1663   -4.2149   21.0980 F   0  0  0  0  0  0
  -21.5629   -3.4541   25.7738 F   0  0  0  0  0  0
  -29.9820  -13.5100   20.3969 N   0  0  0  0  0  0
  -26.2913  -12.9411   20.3274 N   0  0  0  0  0  0
  -25.9312  -11.6552   20.5758 N   0  0  0  0  0  0
  -22.0462  -12.8210   22.0429 N   0  0  0  0  0  0
  -25.4173  -15.1917   20.4062 N   0  0  0  0  0  0
  -31.8207  -14.7930   20.1537 O   0  0  0  0  0  0
  -21.6643   -6.8877   21.4242 O   0  0  0  0  0  0
  -22.3499  -14.5531   20.6722 O   0  0  0  0  0  0
  -24.6295  -31.8546   23.1957 C   0  0  0  0  0  0
  -25.9122  -32.4746   23.8305 C   0  0  1  0  0  0
  -27.2266  -27.2727   20.1168 C   0  0  0  0  0  0
  -25.5926  -33.8549   24.2234 N   0  0  0  0  0  0
  -23.4247  -30.4754   21.5389 C   0  0  2  0  0  0
  -24.8706  -28.9183   20.1066 C   0  0  0  0  0  0
  -22.7487  -29.4595   22.4906 C   0  0  0  0  0  0
  -18.0290  -28.1387   22.8489 C   0  0  0  0  0  0
  -24.1491  -36.7271   23.2638 C   0  0  0  0  0  0
  -25.9677  -30.7714   21.3701 C   0  0  0  0  0  0
  -26.0398  -29.3945   20.7107 C   0  0  0  0  0  0
  -27.2151  -28.5827   20.7037 C   0  0  0  0  0  0
  -26.0245  -26.8432   19.5166 C   0  0  0  0  0  0
  -24.8671  -27.6502   19.5015 C   0  0  0  0  0  0
  -23.6406  -29.8047   20.1558 C   0  0  0  0  0  0
  -25.4118  -36.3057   24.0323 C   0  0  1  0  0  0
  -20.5891  -28.3690   23.1274 C   0  0  2  0  0  0
  -20.6772  -26.9409   22.5406 C   0  0  0  0  0  0
  -19.5750  -26.6381   21.5208 C   0  0  0  0  0  0
  -18.1932  -26.7930   22.1625 C   0  0  0  0  0  0
  -19.1543  -28.8857   23.2877 C   0  0  0  0  0  0
  -18.9469  -30.1460   23.8893 C   0  0  0  0  0  0
  -17.6469  -30.6589   24.0566 C   0  0  0  0  0  0
  -25.9060  -34.9434   23.5080 C   0  0  0  0  0  0
  -16.5359  -29.9090   23.6331 C   0  0  0  0  0  0
  -16.7277  -28.6506   23.0353 C   0  0  0  0  0  0
  -26.4497  -31.6578   25.0701 C   0  0  0  0  0  0
  -25.3718  -31.3736   26.1422 C   0  0  0  0  0  0
  -27.0335  -30.2996   24.6173 C   0  0  0  0  0  0
  -27.6052  -32.4317   25.7479 C   0  0  0  0  0  0
  -27.5577  -37.1786   24.8466 C   0  0  0  0  0  0
  -21.4194  -29.3038   22.3662 N   0  0  0  0  0  0
  -26.4284  -37.3762   23.9417 N   0  0  0  0  0  0
  -24.6932  -31.0520   22.0920 N   0  0  0  0  0  0
  -23.4198  -28.8140   23.3000 O   0  0  0  0  0  0
  -28.3652  -26.4445   20.2074 O   0  0  0  0  0  0
  -26.5635  -34.8917   22.4652 O   0  0  0  0  0  0
  -23.5446  -32.1358   23.7263 O   0  0  0  0  0  0
  -28.4989  -19.1041   21.0695 C   0  0  0  0  0  0
  -29.6630  -18.6608   20.4525 C   0  0  0  0  0  0
  -29.0984  -21.1977   20.1990 C   0  0  0  0  0  0
  -28.2991  -23.7370   20.1996 C   0  0  0  0  0  0
  -27.5748  -18.2601   21.8922 C   0  0  0  0  0  0
  -28.3016  -25.1640   17.9982 C   0  0  0  0  0  0
  -30.4636  -17.2941   20.4502 C   0  0  0  0  0  0
  -28.6351  -25.1453   19.5017 C   0  0  1  0  0  0
  -28.1981  -20.4994   20.9178 N   0  0  0  0  0  0
  -29.0782  -22.6402   19.8683 N   0  0  0  0  0  0
  -29.8908  -15.8899   20.6180 N   0  0  0  0  0  0
  -27.3655  -23.6686   21.0030 O   0  0  0  0  0  0
  -30.3805  -20.0785   19.6382 S   0  0  0  0  0  0
  -31.4665  -12.5509   19.1726 H   0  0  0  0  0  0
  -30.3553  -11.4650   19.9592 H   0  0  0  0  0  0
  -29.7838  -11.7249   17.5178 H   0  0  0  0  0  0
  -29.6373  -13.4532   17.7202 H   0  0  0  0  0  0
  -27.8820  -11.2826   18.9090 H   0  0  0  0  0  0
  -27.3741  -12.5258   17.7976 H   0  0  0  0  0  0
  -27.6322  -14.2533   19.4657 H   0  0  0  0  0  0
  -28.7118  -12.1771   21.4327 H   0  0  0  0  0  0
  -28.4233  -13.8635   21.7865 H   0  0  0  0  0  0
  -25.2757   -9.5687   22.4768 H   0  0  0  0  0  0
  -24.0005   -7.4632   22.7469 H   0  0  0  0  0  0
  -21.0849   -8.8767   19.8948 H   0  0  0  0  0  0
  -22.3694  -10.9674   19.6171 H   0  0  0  0  0  0
  -21.2001   -7.6148   23.9715 H   0  0  0  0  0  0
  -21.1485   -6.0525   25.9079 H   0  0  0  0  0  0
  -22.0597   -2.7609   23.2847 H   0  0  0  0  0  0
  -22.4083  -11.9868   22.4810 H   0  0  0  0  0  0
  -21.1077  -13.1227   22.2637 H   0  0  0  0  0  0
  -24.6402  -15.8373   20.4927 H   0  0  0  0  0  0
  -26.2446  -15.6197   20.0130 H   0  0  0  0  0  0
  -26.7185  -32.5393   23.1041 H   0  0  0  0  0  0
  -25.0084  -33.9692   25.0385 H   0  0  0  0  0  0
  -22.7203  -31.2964   21.3904 H   0  0  0  0  0  0
  -23.3757  -35.9599   23.3300 H   0  0  0  0  0  0
  -24.3581  -36.8892   22.2053 H   0  0  0  0  0  0
  -23.7242  -37.6470   23.6666 H   0  0  0  0  0  0
  -26.1029  -31.5323   20.6009 H   0  0  0  0  0  0
  -26.8469  -30.8201   22.0008 H   0  0  0  0  0  0
  -28.1131  -28.9437   21.1855 H   0  0  0  0  0  0
  -25.9386  -25.8528   19.1028 H   0  0  0  0  0  0
  -23.9636  -27.2691   19.0455 H   0  0  0  0  0  0
  -23.7634  -30.5789   19.3979 H   0  0  0  0  0  0
  -22.7593  -29.2361   19.8532 H   0  0  0  0  0  0
  -25.1299  -36.1889   25.0813 H   0  0  0  0  0  0
  -20.9993  -28.3261   24.1391 H   0  0  0  0  0  0
  -20.5664  -26.2298   23.3607 H   0  0  0  0  0  0
  -21.6640  -26.7424   22.1206 H   0  0  0  0  0  0
  -19.6919  -25.6292   21.1239 H   0  0  0  0  0  0
  -19.6698  -27.3192   20.6741 H   0  0  0  0  0  0
  -17.4198  -26.6672   21.4033 H   0  0  0  0  0  0
  -18.0343  -26.0070   22.9024 H   0  0  0  0  0  0
  -19.7946  -30.7274   24.2261 H   0  0  0  0  0  0
  -17.5026  -31.6273   24.5163 H   0  0  0  0  0  0
  -15.5360  -30.2996   23.7660 H   0  0  0  0  0  0
  -15.8671  -28.0827   22.7074 H   0  0  0  0  0  0
  -24.5915  -30.7058   25.7754 H   0  0  0  0  0  0
  -24.8886  -32.2905   26.4804 H   0  0  0  0  0  0
  -25.8034  -30.8953   27.0221 H   0  0  0  0  0  0
  -26.2909  -29.6752   24.1194 H   0  0  0  0  0  0
  -27.4020  -29.7253   25.4681 H   0  0  0  0  0  0
  -27.8782  -30.4274   23.9401 H   0  0  0  0  0  0
  -27.2672  -33.3639   26.2015 H   0  0  0  0  0  0
  -28.3887  -32.6833   25.0319 H   0  0  0  0  0  0
  -28.0686  -31.8459   26.5429 H   0  0  0  0  0  0
  -28.2576  -38.0101   24.7521 H   0  0  0  0  0  0
  -28.1087  -36.2629   24.6269 H   0  0  0  0  0  0
  -27.2298  -37.1396   25.8868 H   0  0  0  0  0  0
  -20.9370  -29.8760   21.6874 H   0  0  0  0  0  0
  -26.0155  -38.2827   24.1441 H   0  0  0  0  0  0
  -28.1277  -17.5665   22.5255 H   0  0  0  0  0  0
  -26.9126  -17.6715   21.2579 H   0  0  0  0  0  0
  -26.9471  -18.8654   22.5468 H   0  0  0  0  0  0
  -28.9141  -24.4404   17.4601 H   0  0  0  0  0  0
  -28.5051  -26.1432   17.5651 H   0  0  0  0  0  0
  -27.2673  -24.9023   17.7881 H   0  0  0  0  0  0
  -31.2342  -17.3834   21.2175 H   0  0  0  0  0  0
  -31.0242  -17.2688   19.5141 H   0  0  0  0  0  0
  -29.7257  -25.1511   19.5234 H   0  0  0  0  0  0
  -29.8221  -22.8931   19.2347 H   0  0  0  0  0  0
  -28.9045  -15.7956   20.8023 H   0  0  0  0  0  0
  1 25  1  0  0  0
  1 30  2  0  0  0
  1 81  1  0  0  0
  2  3  1  0  0  0
  2 25  1  0  0  0
  2 84  1  0  0  0
  2 85  1  0  0  0
  3  4  1  0  0  0
  3 86  1  0  0  0
  3 87  1  0  0  0
  4  5  1  0  0  0
  4 88  1  0  0  0
  4 89  1  0  0  0
  5  6  1  0  0  0
  5 26  1  0  0  0
  5 90  1  0  0  0
  6 25  1  0  0  0
  6 91  1  0  0  0
  6 92  1  0  0  0
  7  8  2  0  0  0
  7 26  1  0  0  0
  7 29  1  0  0  0
  8  9  1  0  0  0
  8 22  1  0  0  0
  9 10  1  0  0  0
  9 27  2  0  0  0
 10 11  2  0  0  0
 10 15  1  0  0  0
 11 12  1  0  0  0
 11 93  1  0  0  0
 12 13  2  0  0  0
 12 94  1  0  0  0
 13 14  1  0  0  0
 13 31  1  0  0  0
 14 15  2  0  0  0
 14 95  1  0  0  0
 15 96  1  0  0  0
 16 17  2  0  0  0
 16 21  1  0  0  0
 16 31  1  0  0  0
 17 18  1  0  0  0
 17 97  1  0  0  0
 18 19  2  0  0  0
 18 98  1  0  0  0
 19 20  1  0  0  0
 19 24  1  0  0  0
 20 21  2  0  0  0
 20 99  1  0  0  0
 21 23  1  0  0  0
 22 28  1  0  0  0
 22 32  2  0  0  0
 26 27  1  0  0  0
 28100  1  0  0  0
 28101  1  0  0  0
 29102  1  0  0  0
 29103  1  0  0  0
 33 34  1  0  0  0
 33 66  1  0  0  0
 33 70  2  0  0  0
 34 36  1  0  0  0
 34 59  1  0  0  0
 34104  1  0  0  0
 35 44  2  0  0  0
 35 45  1  0  0  0
 35 68  1  0  0  0
 36 56  1  0  0  0
 36105  1  0  0  0
 37 39  1  0  0  0
 37 47  1  0  0  0
 37 66  1  0  0  0
 37106  1  0  0  0
 38 43  2  0  0  0
 38 46  1  0  0  0
 38 47  1  0  0  0
 39 64  1  0  0  0
 39 67  2  0  0  0
 40 52  1  0  0  0
 40 53  2  0  0  0
 40 58  1  0  0  0
 41107  1  0  0  0
 41108  1  0  0  0
 41109  1  0  0  0
 41 48  1  0  0  0
 42 43  1  0  0  0
 42 66  1  0  0  0
 42110  1  0  0  0
 42111  1  0  0  0
 43 44  1  0  0  0
 44112  1  0  0  0
 45 46  2  0  0  0
 45113  1  0  0  0
 46114  1  0  0  0
 47115  1  0  0  0
 47116  1  0  0  0
 48 56  1  0  0  0
 48 65  1  0  0  0
 48117  1  0  0  0
 49 50  1  0  0  0
 49 53  1  0  0  0
 49 64  1  0  0  0
 49118  1  0  0  0
 50 51  1  0  0  0
 50119  1  0  0  0
 50120  1  0  0  0
 51 52  1  0  0  0
 51121  1  0  0  0
 51122  1  0  0  0
 52123  1  0  0  0
 52124  1  0  0  0
 53 54  1  0  0  0
 54 55  2  0  0  0
 54125  1  0  0  0
 55 57  1  0  0  0
 55126  1  0  0  0
 56 69  2  0  0  0
 57 58  2  0  0  0
 57127  1  0  0  0
 58128  1  0  0  0
 59 60  1  0  0  0
 59 61  1  0  0  0
 59 62  1  0  0  0
 60129  1  0  0  0
 60130  1  0  0  0
 60131  1  0  0  0
 61132  1  0  0  0
 61133  1  0  0  0
 61134  1  0  0  0
 62135  1  0  0  0
 62136  1  0  0  0
 62137  1  0  0  0
 63 65  1  0  0  0
 63138  1  0  0  0
 63139  1  0  0  0
 63140  1  0  0  0
 64141  1  0  0  0
 65142  1  0  0  0
 68 78  1  0  0  0
 71 72  2  0  0  0
 71 75  1  0  0  0
 71 79  1  0  0  0
 72 77  1  0  0  0
 72 83  1  0  0  0
 73 79  2  0  0  0
 73 80  1  0  0  0
 73 83  1  0  0  0
 74 78  1  0  0  0
 74 80  1  0  0  0
 74 82  2  0  0  0
 75143  1  0  0  0
 75144  1  0  0  0
 75145  1  0  0  0
 76146  1  0  0  0
 76147  1  0  0  0
 76148  1  0  0  0
 76 78  1  0  0  0
 77 81  1  0  0  0
 77149  1  0  0  0
 77150  1  0  0  0
 78151  1  0  0  0
 80152  1  0  0  0
 81153  1  0  0  0
M  ISO  4   1 100  68 101  78 101  81 100
M  END
> <chiral flag>
0

> <version>
0

> <s_m_source_file>
/data/baiqing/PycharmProjects/Reinvent-master-3.2/result/LINK_invent/BTK/process_docking_weight1_custom_product_contain_oxygen_bond_distance_aromatic_linkinvent_7_9_3/rearranged_h_0186.sdf

> <i_m_source_file_index>
1

> <r_mmod_Potential_Energy-OPLS-2005>
28.953727722168

> <r_mmod_Stretch_Energy-OPLS-2005>
108.086158752441

> <r_mmod_Bend_Energy-OPLS-2005>
221.51985168457

> <r_mmod_Torsional_Energy-OPLS-2005>
202.276611328125

> <r_mmod_Improper_Torsional_Energy-OPLS-2005>
5.7061824798584

> <r_mmod_Van_der_Waal_Energy-OPLS-2005>
109.752449035645

> <r_mmod_Electrostatic_Energy-OPLS-2005>
-437.361358642578

> <r_mmod_Solvation_Energy-OPLS-2005>
-257.200775146484

> <b_mmod_Minimization_Converged-OPLS-2005>
0

> <r_mmod_RMS_Derivative-OPLS-2005>
0.888943493366241

$$$$
2
                    3D
 Structure written by MMmdl.
158166  0  0  1  0            999 V2000
  -30.6094  -14.6755   20.4735 C   0  0  0  0  0  0
  -30.4352  -12.4069   19.4616 C   0  0  0  0  0  0
  -29.5110  -12.5091   18.2276 C   0  0  0  0  0  0
  -28.0324  -12.3449   18.6351 C   0  0  0  0  0  0
  -27.6493  -13.2208   19.8579 C   0  0  2  0  0  0
  -28.6936  -13.0969   20.9908 C   0  0  0  0  0  0
  -25.2540  -13.8176   20.5679 C   0  0  0  0  0  0
  -24.1816  -13.0436   20.9200 C   0  0  0  0  0  0
  -24.6394  -11.6909   20.8745 C   0  0  0  0  0  0
  -23.9064  -10.4296   21.0415 C   0  0  0  0  0  0
  -24.3620   -9.4207   21.9188 C   0  0  0  0  0  0
  -23.6301   -8.2239   22.0753 C   0  0  0  0  0  0
  -22.4278   -8.0281   21.3547 C   0  0  0  0  0  0
  -21.9916   -9.0252   20.4649 C   0  0  0  0  0  0
  -22.7241  -10.2135   20.3058 C   0  0  0  0  0  0
  -21.6847   -6.0743   22.5288 C   0  0  0  0  0  0
  -21.4012   -6.5645   23.8224 C   0  0  0  0  0  0
  -21.3657   -5.6797   24.9183 C   0  0  0  0  0  0
  -21.6042   -4.3059   24.7232 C   0  0  0  0  0  0
  -21.8816   -3.8150   23.4349 C   0  0  0  0  0  0
  -21.9191   -4.6969   22.3408 C   0  0  0  0  0  0
  -22.7841  -13.5232   21.1869 C   0  0  0  0  0  0
  -22.1659   -4.2163   21.0984 F   0  0  0  0  0  0
  -21.5630   -3.4540   25.7737 F   0  0  0  0  0  0
  -30.0056  -13.4426   20.4241 N   0  0  0  0  0  0
  -26.2967  -12.9364   20.3284 N   0  0  0  0  0  0
  -25.9319  -11.6518   20.5733 N   0  0  0  0  0  0
  -22.0472  -12.8226   22.0416 N   0  0  0  0  0  0
  -25.4238  -15.1903   20.4083 N   0  0  0  0  0  0
  -31.7867  -14.8067   20.1213 O   0  0  0  0  0  0
  -21.6634   -6.8883   21.4249 O   0  0  0  0  0  0
  -22.3533  -14.5541   20.6714 O   0  0  0  0  0  0
  -24.6272  -31.8574   23.2013 C   0  0  0  0  0  0
  -25.9114  -32.4771   23.8340 C   0  0  1  0  0  0
  -27.2237  -27.3092   20.1306 C   0  0  0  0  0  0
  -25.5925  -33.8570   24.2266 N   0  0  0  0  0  0
  -23.4215  -30.4799   21.5444 C   0  0  2  0  0  0
  -24.8689  -28.9280   20.1142 C   0  0  0  0  0  0
  -22.7478  -29.4604   22.4936 C   0  0  0  0  0  0
  -18.0289  -28.1387   22.8489 C   0  0  0  0  0  0
  -24.1487  -36.7285   23.2641 C   0  0  0  0  0  0
  -25.9630  -30.7863   21.3718 C   0  0  0  0  0  0
  -26.0380  -29.4110   20.7178 C   0  0  0  0  0  0
  -27.2217  -28.6151   20.7114 C   0  0  0  0  0  0
  -26.0358  -26.8730   19.5083 C   0  0  0  0  0  0
  -24.8707  -27.6648   19.4980 C   0  0  0  0  0  0
  -23.6376  -29.8111   20.1603 C   0  0  0  0  0  0
  -25.4112  -36.3074   24.0329 C   0  0  1  0  0  0
  -20.5889  -28.3675   23.1296 C   0  0  2  0  0  0
  -20.6778  -26.9397   22.5423 C   0  0  0  0  0  0
  -19.5753  -26.6381   21.5224 C   0  0  0  0  0  0
  -18.1930  -26.7933   22.1630 C   0  0  0  0  0  0
  -19.1543  -28.8851   23.2888 C   0  0  0  0  0  0
  -18.9462  -30.1458   23.8890 C   0  0  0  0  0  0
  -17.6460  -30.6586   24.0563 C   0  0  0  0  0  0
  -25.9048  -34.9445   23.5095 C   0  0  0  0  0  0
  -16.5351  -29.9078   23.6340 C   0  0  0  0  0  0
  -16.7276  -28.6507   23.0347 C   0  0  0  0  0  0
  -26.4491  -31.6589   25.0715 C   0  0  0  0  0  0
  -25.3726  -31.3735   26.1445 C   0  0  0  0  0  0
  -27.0334  -30.3012   24.6170 C   0  0  0  0  0  0
  -27.6052  -32.4319   25.7490 C   0  0  0  0  0  0
  -27.5578  -37.1796   24.8465 C   0  0  0  0  0  0
  -21.4192  -29.3027   22.3689 N   0  0  0  0  0  0
  -26.4286  -37.3771   23.9415 N   0  0  0  0  0  0
  -24.6898  -31.0583   22.0962 N   0  0  0  0  0  0
  -23.4202  -28.8144   23.3019 O   0  0  0  0  0  0
  -28.3382  -26.4598   20.1340 O   0  0  0  0  0  0
  -26.5617  -34.8915   22.4662 O   0  0  0  0  0  0
  -23.5436  -32.1381   23.7334 O   0  0  0  0  0  0
  -30.8123  -19.1985   19.7937 C   0  0  0  0  0  0
  -29.5360  -19.6997   20.0131 C   0  0  0  0  0  0
  -29.8952  -17.1843   20.5030 C   0  0  0  0  0  0
  -31.9750  -19.9538   19.2229 C   0  0  0  0  0  0
  -29.9259  -22.3419   21.6179 C   0  0  0  0  0  0
  -28.7488  -23.8261   19.8504 C   0  0  0  0  0  0
  -28.1748  -25.0807   20.6631 C   0  0  0  0  0  0
  -28.9664  -21.1009   19.5630 C   0  0  2  0  0  0
  -28.8227  -22.3670   20.5464 C   0  0  1  0  0  0
  -30.9941  -17.8157   20.0660 N   0  0  0  0  0  0
  -29.7905  -15.7435   20.7629 N   0  0  0  0  0  0
  -27.7040  -20.9054   18.8331 N   0  3  0  0  0  0
  -28.5521  -18.3653   20.6731 S   0  0  0  0  0  0
  -31.4791  -12.5258   19.1650 H   0  0  0  0  0  0
  -30.3654  -11.4165   19.9144 H   0  0  0  0  0  0
  -29.7829  -11.7555   17.4876 H   0  0  0  0  0  0
  -29.6519  -13.4760   17.7406 H   0  0  0  0  0  0
  -27.8681  -11.2923   18.8685 H   0  0  0  0  0  0
  -27.3818  -12.5721   17.7899 H   0  0  0  0  0  0
  -27.6606  -14.2521   19.5044 H   0  0  0  0  0  0
  -28.7118  -12.0819   21.3910 H   0  0  0  0  0  0
  -28.4368  -13.7443   21.8309 H   0  0  0  0  0  0
  -25.2769   -9.5686   22.4755 H   0  0  0  0  0  0
  -24.0021   -7.4627   22.7463 H   0  0  0  0  0  0
  -21.0852   -8.8766   19.8954 H   0  0  0  0  0  0
  -22.3703  -10.9667   19.6161 H   0  0  0  0  0  0
  -21.2003   -7.6154   23.9733 H   0  0  0  0  0  0
  -21.1482   -6.0524   25.9092 H   0  0  0  0  0  0
  -22.0596   -2.7613   23.2838 H   0  0  0  0  0  0
  -22.4083  -11.9886   22.4804 H   0  0  0  0  0  0
  -21.1083  -13.1246   22.2611 H   0  0  0  0  0  0
  -24.6488  -15.8365   20.5094 H   0  0  0  0  0  0
  -26.2579  -15.6288   20.0410 H   0  0  0  0  0  0
  -26.7187  -32.5429   23.1093 H   0  0  0  0  0  0
  -25.0084  -33.9712   25.0419 H   0  0  0  0  0  0
  -22.7159  -31.3009   21.4007 H   0  0  0  0  0  0
  -23.3751  -35.9615   23.3299 H   0  0  0  0  0  0
  -24.3589  -36.8910   22.2058 H   0  0  0  0  0  0
  -23.7233  -37.6483   23.6665 H   0  0  0  0  0  0
  -26.0943  -31.5456   20.5995 H   0  0  0  0  0  0
  -26.8438  -30.8377   22.0005 H   0  0  0  0  0  0
  -28.1219  -28.9827   21.1852 H   0  0  0  0  0  0
  -26.0064  -25.9024   19.0334 H   0  0  0  0  0  0
  -23.9767  -27.2902   19.0185 H   0  0  0  0  0  0
  -23.7577  -30.5869   19.4033 H   0  0  0  0  0  0
  -22.7571  -29.2417   19.8580 H   0  0  0  0  0  0
  -25.1294  -36.1924   25.0822 H   0  0  0  0  0  0
  -20.9991  -28.3248   24.1411 H   0  0  0  0  0  0
  -20.5689  -26.2268   23.3614 H   0  0  0  0  0  0
  -21.6642  -26.7430   22.1204 H   0  0  0  0  0  0
  -19.6898  -25.6292   21.1246 H   0  0  0  0  0  0
  -19.6705  -27.3201   20.6763 H   0  0  0  0  0  0
  -17.4207  -26.6698   21.4027 H   0  0  0  0  0  0
  -18.0314  -26.0079   22.9027 H   0  0  0  0  0  0
  -19.7932  -30.7291   24.2248 H   0  0  0  0  0  0
  -17.5007  -31.6265   24.5163 H   0  0  0  0  0  0
  -15.5346  -30.2970   23.7676 H   0  0  0  0  0  0
  -15.8680  -28.0831   22.7040 H   0  0  0  0  0  0
  -24.5896  -30.7085   25.7785 H   0  0  0  0  0  0
  -24.8917  -32.2903   26.4864 H   0  0  0  0  0  0
  -25.8045  -30.8923   27.0228 H   0  0  0  0  0  0
  -26.2907  -29.6768   24.1186 H   0  0  0  0  0  0
  -27.4038  -29.7261   25.4669 H   0  0  0  0  0  0
  -27.8775  -30.4315   23.9390 H   0  0  0  0  0  0
  -27.2669  -33.3623   26.2065 H   0  0  0  0  0  0
  -28.3861  -32.6872   25.0315 H   0  0  0  0  0  0
  -28.0719  -31.8443   26.5409 H   0  0  0  0  0  0
  -28.2588  -38.0100   24.7514 H   0  0  0  0  0  0
  -28.1076  -36.2629   24.6276 H   0  0  0  0  0  0
  -27.2303  -37.1431   25.8870 H   0  0  0  0  0  0
  -20.9362  -29.8742   21.6897 H   0  0  0  0  0  0
  -26.0163  -38.2845   24.1418 H   0  0  0  0  0  0
  -32.0842  -20.9341   19.6860 H   0  0  0  0  0  0
  -31.8581  -20.1068   18.1499 H   0  0  0  0  0  0
  -32.9143  -19.4211   19.3729 H   0  0  0  0  0  0
  -29.7830  -23.1304   22.3566 H   0  0  0  0  0  0
  -30.9143  -22.4772   21.1778 H   0  0  0  0  0  0
  -29.9307  -21.3970   22.1627 H   0  0  0  0  0  0
  -29.7497  -24.0820   19.5014 H   0  0  0  0  0  0
  -28.1501  -23.7503   18.9431 H   0  0  0  0  0  0
  -28.6672  -25.0935   21.6349 H   0  0  0  0  0  0
  -27.1278  -24.8836   20.8964 H   0  0  0  0  0  0
  -29.6566  -21.4469   18.7924 H   0  0  0  0  0  0
  -27.8894  -22.2253   21.0928 H   0  0  0  0  0  0
  -28.8790  -15.4568   21.0814 H   0  0  0  0  0  0
  -26.9615  -20.6561   19.4618 H   0  0  0  0  0  0
  -27.8086  -20.1763   18.1511 H   0  0  0  0  0  0
  -27.4433  -21.7440   18.3471 H   0  0  0  0  0  0
  1 25  1  0  0  0
  1 30  2  0  0  0
  1 81  1  0  0  0
  2  3  1  0  0  0
  2 25  1  0  0  0
  2 84  1  0  0  0
  2 85  1  0  0  0
  3  4  1  0  0  0
  3 86  1  0  0  0
  3 87  1  0  0  0
  4  5  1  0  0  0
  4 88  1  0  0  0
  4 89  1  0  0  0
  5  6  1  0  0  0
  5 26  1  0  0  0
  5 90  1  0  0  0
  6 25  1  0  0  0
  6 91  1  0  0  0
  6 92  1  0  0  0
  7  8  2  0  0  0
  7 26  1  0  0  0
  7 29  1  0  0  0
  8  9  1  0  0  0
  8 22  1  0  0  0
  9 10  1  0  0  0
  9 27  2  0  0  0
 10 11  2  0  0  0
 10 15  1  0  0  0
 11 12  1  0  0  0
 11 93  1  0  0  0
 12 13  2  0  0  0
 12 94  1  0  0  0
 13 14  1  0  0  0
 13 31  1  0  0  0
 14 15  2  0  0  0
 14 95  1  0  0  0
 15 96  1  0  0  0
 16 17  2  0  0  0
 16 21  1  0  0  0
 16 31  1  0  0  0
 17 18  1  0  0  0
 17 97  1  0  0  0
 18 19  2  0  0  0
 18 98  1  0  0  0
 19 20  1  0  0  0
 19 24  1  0  0  0
 20 21  2  0  0  0
 20 99  1  0  0  0
 21 23  1  0  0  0
 22 28  1  0  0  0
 22 32  2  0  0  0
 26 27  1  0  0  0
 28100  1  0  0  0
 28101  1  0  0  0
 29102  1  0  0  0
 29103  1  0  0  0
 33 34  1  0  0  0
 33 66  1  0  0  0
 33 70  2  0  0  0
 34 36  1  0  0  0
 34 59  1  0  0  0
 34104  1  0  0  0
 35 44  2  0  0  0
 35 45  1  0  0  0
 35 68  1  0  0  0
 36 56  1  0  0  0
 36105  1  0  0  0
 37 39  1  0  0  0
 37 47  1  0  0  0
 37 66  1  0  0  0
 37106  1  0  0  0
 38 43  2  0  0  0
 38 46  1  0  0  0
 38 47  1  0  0  0
 39 64  1  0  0  0
 39 67  2  0  0  0
 40 52  1  0  0  0
 40 53  2  0  0  0
 40 58  1  0  0  0
 41107  1  0  0  0
 41108  1  0  0  0
 41109  1  0  0  0
 41 48  1  0  0  0
 42 43  1  0  0  0
 42 66  1  0  0  0
 42110  1  0  0  0
 42111  1  0  0  0
 43 44  1  0  0  0
 44112  1  0  0  0
 45 46  2  0  0  0
 45113  1  0  0  0
 46114  1  0  0  0
 47115  1  0  0  0
 47116  1  0  0  0
 48 56  1  0  0  0
 48 65  1  0  0  0
 48117  1  0  0  0
 49 50  1  0  0  0
 49 53  1  0  0  0
 49 64  1  0  0  0
 49118  1  0  0  0
 50 51  1  0  0  0
 50119  1  0  0  0
 50120  1  0  0  0
 51 52  1  0  0  0
 51121  1  0  0  0
 51122  1  0  0  0
 52123  1  0  0  0
 52124  1  0  0  0
 53 54  1  0  0  0
 54 55  2  0  0  0
 54125  1  0  0  0
 55 57  1  0  0  0
 55126  1  0  0  0
 56 69  2  0  0  0
 57 58  2  0  0  0
 57127  1  0  0  0
 58128  1  0  0  0
 59 60  1  0  0  0
 59 61  1  0  0  0
 59 62  1  0  0  0
 60129  1  0  0  0
 60130  1  0  0  0
 60131  1  0  0  0
 61132  1  0  0  0
 61133  1  0  0  0
 61134  1  0  0  0
 62135  1  0  0  0
 62136  1  0  0  0
 62137  1  0  0  0
 63 65  1  0  0  0
 63138  1  0  0  0
 63139  1  0  0  0
 63140  1  0  0  0
 64141  1  0  0  0
 65142  1  0  0  0
 68 77  1  0  0  0
 71 72  2  0  0  0
 71 74  1  0  0  0
 71 80  1  0  0  0
 72 78  1  0  0  0
 72 83  1  0  0  0
 73 80  2  0  0  0
 73 81  1  0  0  0
 73 83  1  0  0  0
 74143  1  0  0  0
 74144  1  0  0  0
 74145  1  0  0  0
 75146  1  0  0  0
 75147  1  0  0  0
 75148  1  0  0  0
 75 79  1  0  0  0
 76 77  1  0  0  0
 76 79  1  0  0  0
 76149  1  0  0  0
 76150  1  0  0  0
 77151  1  0  0  0
 77152  1  0  0  0
 78 79  1  0  0  0
 78 82  1  0  0  0
 78153  1  0  0  0
 79154  1  0  0  0
 81155  1  0  0  0
 82156  1  0  0  0
 82157  1  0  0  0
 82158  1  0  0  0
M  CHG  1  82   1
M  ISO  4   1 100  68 101  77 101  81 100
M  END
> <chiral flag>
0

> <version>
0

> <s_m_source_file>
/data/baiqing/PycharmProjects/Reinvent-master-3.2/result/LINK_invent/BTK/process_docking_weight1_custom_product_contain_oxygen_bond_distance_aromatic_linkinvent_7_9_3/rearranged_h_0186.sdf

> <i_m_source_file_index>
2

> <r_mmod_Potential_Energy-OPLS-2005>
-254.279815673828

> <r_mmod_Stretch_Energy-OPLS-2005>
92.1427536010742

> <r_mmod_Bend_Energy-OPLS-2005>
152.463760375977

> <r_mmod_Torsional_Energy-OPLS-2005>
222.023452758789

> <r_mmod_Improper_Torsional_Energy-OPLS-2005>
5.24438238143921

> <r_mmod_Van_der_Waal_Energy-OPLS-2005>
112.109985351562

> <r_mmod_Electrostatic_Energy-OPLS-2005>
-366.747619628906

> <r_mmod_Solvation_Energy-OPLS-2005>
-527.423156738281

> <b_mmod_Minimization_Converged-OPLS-2005>
0

> <r_mmod_RMS_Derivative-OPLS-2005>
1.25361311435699

$$$$
3
                    3D
 Structure written by MMmdl.
155163  0  0  1  0            999 V2000
  -30.5704  -14.7412   20.4676 C   0  0  0  0  0  0
  -30.4486  -12.4544   19.4673 C   0  0  0  0  0  0
  -29.5175  -12.5169   18.2349 C   0  0  0  0  0  0
  -28.0400  -12.3407   18.6421 C   0  0  0  0  0  0
  -27.6470  -13.2216   19.8569 C   0  0  2  0  0  0
  -28.6921  -13.1219   20.9906 C   0  0  0  0  0  0
  -25.2532  -13.8171   20.5674 C   0  0  0  0  0  0
  -24.1810  -13.0436   20.9189 C   0  0  0  0  0  0
  -24.6383  -11.6907   20.8732 C   0  0  0  0  0  0
  -23.9045  -10.4297   21.0393 C   0  0  0  0  0  0
  -24.3596   -9.4216   21.9168 C   0  0  0  0  0  0
  -23.6281   -8.2248   22.0739 C   0  0  0  0  0  0
  -22.4271   -8.0279   21.3530 C   0  0  0  0  0  0
  -21.9900   -9.0248   20.4633 C   0  0  0  0  0  0
  -22.7217  -10.2133   20.3045 C   0  0  0  0  0  0
  -21.6862   -6.0726   22.5267 C   0  0  0  0  0  0
  -21.4016   -6.5624   23.8199 C   0  0  0  0  0  0
  -21.3661   -5.6773   24.9157 C   0  0  0  0  0  0
  -21.6053   -4.3038   24.7210 C   0  0  0  0  0  0
  -21.8823   -3.8132   23.4330 C   0  0  0  0  0  0
  -21.9193   -4.6951   22.3388 C   0  0  0  0  0  0
  -22.7837  -13.5237   21.1845 C   0  0  0  0  0  0
  -22.1663   -4.2137   21.0966 F   0  0  0  0  0  0
  -21.5632   -3.4529   25.7726 F   0  0  0  0  0  0
  -29.9951  -13.4912   20.4191 N   0  0  0  0  0  0
  -26.2956  -12.9353   20.3283 N   0  0  0  0  0  0
  -25.9316  -11.6506   20.5744 N   0  0  0  0  0  0
  -22.0466  -12.8248   22.0408 N   0  0  0  0  0  0
  -25.4226  -15.1891   20.4062 N   0  0  0  0  0  0
  -31.7572  -14.8869   20.1500 O   0  0  0  0  0  0
  -21.6639   -6.8876   21.4235 O   0  0  0  0  0  0
  -22.3546  -14.5556   20.6698 O   0  0  0  0  0  0
  -24.6290  -31.8559   23.1967 C   0  0  0  0  0  0
  -25.9120  -32.4757   23.8316 C   0  0  1  0  0  0
  -27.2213  -27.2705   20.1439 C   0  0  0  0  0  0
  -25.5918  -33.8555   24.2249 N   0  0  0  0  0  0
  -23.4252  -30.4769   21.5377 C   0  0  2  0  0  0
  -24.8718  -28.9113   20.1188 C   0  0  0  0  0  0
  -22.7482  -29.4627   22.4904 C   0  0  0  0  0  0
  -18.0294  -28.1397   22.8491 C   0  0  0  0  0  0
  -24.1485  -36.7287   23.2642 C   0  0  0  0  0  0
  -25.9687  -30.7696   21.3738 C   0  0  0  0  0  0
  -26.0399  -29.3881   20.7273 C   0  0  0  0  0  0
  -27.2202  -28.5813   20.7243 C   0  0  0  0  0  0
  -26.0344  -26.8492   19.5163 C   0  0  0  0  0  0
  -24.8717  -27.6487   19.5023 C   0  0  0  0  0  0
  -23.6432  -29.8015   20.1567 C   0  0  0  0  0  0
  -25.4106  -36.3073   24.0337 C   0  0  1  0  0  0
  -20.5895  -28.3715   23.1271 C   0  0  2  0  0  0
  -20.6786  -26.9436   22.5403 C   0  0  0  0  0  0
  -19.5753  -26.6395   21.5213 C   0  0  0  0  0  0
  -18.1934  -26.7936   22.1625 C   0  0  0  0  0  0
  -19.1548  -28.8875   23.2876 C   0  0  0  0  0  0
  -18.9464  -30.1473   23.8899 C   0  0  0  0  0  0
  -17.6465  -30.6597   24.0576 C   0  0  0  0  0  0
  -25.9048  -34.9445   23.5101 C   0  0  0  0  0  0
  -16.5358  -29.9097   23.6340 C   0  0  0  0  0  0
  -16.7281  -28.6514   23.0364 C   0  0  0  0  0  0
  -26.4477  -31.6582   25.0711 C   0  0  0  0  0  0
  -25.3706  -31.3732   26.1444 C   0  0  0  0  0  0
  -27.0326  -30.3003   24.6198 C   0  0  0  0  0  0
  -27.6030  -32.4316   25.7479 C   0  0  0  0  0  0
  -27.5573  -37.1803   24.8466 C   0  0  0  0  0  0
  -21.4193  -29.3059   22.3649 N   0  0  0  0  0  0
  -26.4275  -37.3779   23.9421 N   0  0  0  0  0  0
  -24.6935  -31.0542   22.0924 N   0  0  0  0  0  0
  -23.4196  -28.8185   23.3009 O   0  0  0  0  0  0
  -28.3441  -26.4241   20.1031 O   0  0  0  0  0  0
  -26.5617  -34.8922   22.4665 O   0  0  0  0  0  0
  -23.5447  -32.1370   23.7283 O   0  0  0  0  0  0
  -30.7018  -19.4325   20.5528 C   0  0  0  0  0  0
  -29.3690  -19.8724   20.4652 C   0  0  0  0  0  0
  -29.7813  -17.2731   20.5563 C   0  0  0  0  0  0
  -31.8901  -20.2680   20.7368 C   0  0  0  0  0  0
  -29.1170  -22.4415   20.1386 C   0  0  0  0  0  0
  -33.0890  -19.8761   19.8818 C   0  0  0  0  0  0
  -26.6321  -23.1612   20.3137 C   0  0  0  0  0  0
  -28.3372  -25.0763   20.7621 C   0  0  0  0  0  0
  -28.0636  -23.6565   20.0191 C   0  0  1  0  0  0
  -30.8974  -18.0103   20.5623 N   0  0  0  0  0  0
  -28.7244  -21.1334   20.4074 N   0  0  0  0  0  0
  -29.7022  -15.7989   20.6775 N   0  0  0  0  0  0
  -32.0192  -21.1779   21.5613 O   0  0  0  0  0  0
  -30.2914  -22.7093   19.8936 O   0  0  0  0  0  0
  -28.3716  -18.3804   20.4714 S   0  0  0  0  0  0
  -31.4859  -12.6059   19.1614 H   0  0  0  0  0  0
  -30.4144  -11.4689   19.9348 H   0  0  0  0  0  0
  -29.7990  -11.7521   17.5115 H   0  0  0  0  0  0
  -29.6445  -13.4765   17.7301 H   0  0  0  0  0  0
  -27.8863  -11.2894   18.8853 H   0  0  0  0  0  0
  -27.3874  -12.5524   17.7944 H   0  0  0  0  0  0
  -27.6463  -14.2480   19.4927 H   0  0  0  0  0  0
  -28.7307  -12.1108   21.3986 H   0  0  0  0  0  0
  -28.4256  -13.7716   21.8257 H   0  0  0  0  0  0
  -25.2733   -9.5708   22.4746 H   0  0  0  0  0  0
  -23.9982   -7.4656   22.7473 H   0  0  0  0  0  0
  -21.0818   -8.8765   19.8961 H   0  0  0  0  0  0
  -22.3650  -10.9664   19.6163 H   0  0  0  0  0  0
  -21.2012   -7.6134   23.9699 H   0  0  0  0  0  0
  -21.1484   -6.0498   25.9058 H   0  0  0  0  0  0
  -22.0607   -2.7596   23.2822 H   0  0  0  0  0  0
  -22.4044  -11.9905   22.4812 H   0  0  0  0  0  0
  -21.1097  -13.1309   22.2604 H   0  0  0  0  0  0
  -24.6446  -15.8339   20.4978 H   0  0  0  0  0  0
  -26.2502  -15.6259   20.0228 H   0  0  0  0  0  0
  -26.7198  -32.5412   23.1068 H   0  0  0  0  0  0
  -25.0098  -33.9683   25.0422 H   0  0  0  0  0  0
  -22.7218  -31.2989   21.3877 H   0  0  0  0  0  0
  -23.3743  -35.9624   23.3298 H   0  0  0  0  0  0
  -24.3587  -36.8909   22.2059 H   0  0  0  0  0  0
  -23.7237  -37.6489   23.6664 H   0  0  0  0  0  0
  -26.1038  -31.5232   20.5965 H   0  0  0  0  0  0
  -26.8492  -30.8245   22.0024 H   0  0  0  0  0  0
  -28.1225  -28.9497   21.1917 H   0  0  0  0  0  0
  -26.0088  -25.8896   19.0225 H   0  0  0  0  0  0
  -23.9796  -27.2811   19.0136 H   0  0  0  0  0  0
  -23.7705  -30.5722   19.3948 H   0  0  0  0  0  0
  -22.7606  -29.2342   19.8544 H   0  0  0  0  0  0
  -25.1286  -36.1911   25.0830 H   0  0  0  0  0  0
  -21.0005  -28.3296   24.1382 H   0  0  0  0  0  0
  -20.5699  -26.2330   23.3615 H   0  0  0  0  0  0
  -21.6655  -26.7459   22.1191 H   0  0  0  0  0  0
  -19.6916  -25.6300   21.1256 H   0  0  0  0  0  0
  -19.6689  -27.3200   20.6739 H   0  0  0  0  0  0
  -17.4208  -26.6704   21.4020 H   0  0  0  0  0  0
  -18.0327  -26.0073   22.9017 H   0  0  0  0  0  0
  -19.7938  -30.7299   24.2262 H   0  0  0  0  0  0
  -17.5018  -31.6273   24.5176 H   0  0  0  0  0  0
  -15.5363  -30.3010   23.7652 H   0  0  0  0  0  0
  -15.8674  -28.0836   22.7082 H   0  0  0  0  0  0
  -24.5891  -30.7057   25.7790 H   0  0  0  0  0  0
  -24.8881  -32.2907   26.4831 H   0  0  0  0  0  0
  -25.8039  -30.8951   27.0244 H   0  0  0  0  0  0
  -26.2910  -29.6747   24.1222 H   0  0  0  0  0  0
  -27.4008  -29.7260   25.4708 H   0  0  0  0  0  0
  -27.8788  -30.4274   23.9444 H   0  0  0  0  0  0
  -27.2642  -33.3631   26.2024 H   0  0  0  0  0  0
  -28.3862  -32.6850   25.0320 H   0  0  0  0  0  0
  -28.0685  -31.8463   26.5423 H   0  0  0  0  0  0
  -28.2593  -38.0099   24.7518 H   0  0  0  0  0  0
  -28.1070  -36.2635   24.6280 H   0  0  0  0  0  0
  -27.2309  -37.1438   25.8875 H   0  0  0  0  0  0
  -20.9373  -29.8773   21.6850 H   0  0  0  0  0  0
  -26.0151  -38.2854   24.1416 H   0  0  0  0  0  0
  -33.7729  -20.7160   19.7697 H   0  0  0  0  0  0
  -32.7536  -19.5673   18.8921 H   0  0  0  0  0  0
  -33.6227  -19.0454   20.3424 H   0  0  0  0  0  0
  -26.5130  -22.8817   21.3606 H   0  0  0  0  0  0
  -26.3693  -22.2981   19.7009 H   0  0  0  0  0  0
  -25.8918  -23.9330   20.1094 H   0  0  0  0  0  0
  -29.3254  -24.9964   21.2152 H   0  0  0  0  0  0
  -27.6722  -25.1456   21.6254 H   0  0  0  0  0  0
  -28.0857  -23.8931   18.9556 H   0  0  0  0  0  0
  -27.7210  -21.0675   20.5179 H   0  0  0  0  0  0
  -28.7717  -15.4727   20.8819 H   0  0  0  0  0  0
  1 25  1  0  0  0
  1 30  2  0  0  0
  1 82  1  0  0  0
  2  3  1  0  0  0
  2 25  1  0  0  0
  2 86  1  0  0  0
  2 87  1  0  0  0
  3  4  1  0  0  0
  3 88  1  0  0  0
  3 89  1  0  0  0
  4  5  1  0  0  0
  4 90  1  0  0  0
  4 91  1  0  0  0
  5  6  1  0  0  0
  5 26  1  0  0  0
  5 92  1  0  0  0
  6 25  1  0  0  0
  6 93  1  0  0  0
  6 94  1  0  0  0
  7  8  2  0  0  0
  7 26  1  0  0  0
  7 29  1  0  0  0
  8  9  1  0  0  0
  8 22  1  0  0  0
  9 10  1  0  0  0
  9 27  2  0  0  0
 10 11  2  0  0  0
 10 15  1  0  0  0
 11 12  1  0  0  0
 11 95  1  0  0  0
 12 13  2  0  0  0
 12 96  1  0  0  0
 13 14  1  0  0  0
 13 31  1  0  0  0
 14 15  2  0  0  0
 14 97  1  0  0  0
 15 98  1  0  0  0
 16 17  2  0  0  0
 16 21  1  0  0  0
 16 31  1  0  0  0
 17 18  1  0  0  0
 17 99  1  0  0  0
 18 19  2  0  0  0
 18100  1  0  0  0
 19 20  1  0  0  0
 19 24  1  0  0  0
 20 21  2  0  0  0
 20101  1  0  0  0
 21 23  1  0  0  0
 22 28  1  0  0  0
 22 32  2  0  0  0
 26 27  1  0  0  0
 28102  1  0  0  0
 28103  1  0  0  0
 29104  1  0  0  0
 29105  1  0  0  0
 33 34  1  0  0  0
 33 66  1  0  0  0
 33 70  2  0  0  0
 34 36  1  0  0  0
 34 59  1  0  0  0
 34106  1  0  0  0
 35 44  2  0  0  0
 35 45  1  0  0  0
 35 68  1  0  0  0
 36 56  1  0  0  0
 36107  1  0  0  0
 37 39  1  0  0  0
 37 47  1  0  0  0
 37 66  1  0  0  0
 37108  1  0  0  0
 38 43  2  0  0  0
 38 46  1  0  0  0
 38 47  1  0  0  0
 39 64  1  0  0  0
 39 67  2  0  0  0
 40 52  1  0  0  0
 40 53  2  0  0  0
 40 58  1  0  0  0
 41109  1  0  0  0
 41110  1  0  0  0
 41111  1  0  0  0
 41 48  1  0  0  0
 42 43  1  0  0  0
 42 66  1  0  0  0
 42112  1  0  0  0
 42113  1  0  0  0
 43 44  1  0  0  0
 44114  1  0  0  0
 45 46  2  0  0  0
 45115  1  0  0  0
 46116  1  0  0  0
 47117  1  0  0  0
 47118  1  0  0  0
 48 56  1  0  0  0
 48 65  1  0  0  0
 48119  1  0  0  0
 49 50  1  0  0  0
 49 53  1  0  0  0
 49 64  1  0  0  0
 49120  1  0  0  0
 50 51  1  0  0  0
 50121  1  0  0  0
 50122  1  0  0  0
 51 52  1  0  0  0
 51123  1  0  0  0
 51124  1  0  0  0
 52125  1  0  0  0
 52126  1  0  0  0
 53 54  1  0  0  0
 54 55  2  0  0  0
 54127  1  0  0  0
 55 57  1  0  0  0
 55128  1  0  0  0
 56 69  2  0  0  0
 57 58  2  0  0  0
 57129  1  0  0  0
 58130  1  0  0  0
 59 60  1  0  0  0
 59 61  1  0  0  0
 59 62  1  0  0  0
 60131  1  0  0  0
 60132  1  0  0  0
 60133  1  0  0  0
 61134  1  0  0  0
 61135  1  0  0  0
 61136  1  0  0  0
 62137  1  0  0  0
 62138  1  0  0  0
 62139  1  0  0  0
 63 65  1  0  0  0
 63140  1  0  0  0
 63141  1  0  0  0
 63142  1  0  0  0
 64143  1  0  0  0
 65144  1  0  0  0
 68 78  1  0  0  0
 71 72  2  0  0  0
 71 74  1  0  0  0
 71 80  1  0  0  0
 72 81  1  0  0  0
 72 85  1  0  0  0
 73 80  2  0  0  0
 73 82  1  0  0  0
 73 85  1  0  0  0
 74 76  1  0  0  0
 74 83  2  0  0  0
 75 79  1  0  0  0
 75 81  1  0  0  0
 75 84  2  0  0  0
 76145  1  0  0  0
 76146  1  0  0  0
 76147  1  0  0  0
 77148  1  0  0  0
 77149  1  0  0  0
 77150  1  0  0  0
 77 79  1  0  0  0
 78 79  1  0  0  0
 78151  1  0  0  0
 78152  1  0  0  0
 79153  1  0  0  0
 81154  1  0  0  0
 82155  1  0  0  0
M  ISO  4   1 100  68 101  78 101  82 100
M  END
> <chiral flag>
0

> <version>
0

> <s_m_source_file>
/data/baiqing/PycharmProjects/Reinvent-master-3.2/result/LINK_invent/BTK/process_docking_weight1_custom_product_contain_oxygen_bond_distance_aromatic_linkinvent_7_9_3/rearranged_h_0186.sdf

> <i_m_source_file_index>
3

> <r_mmod_Potential_Energy-OPLS-2005>
145.165191650391

> <r_mmod_Stretch_Energy-OPLS-2005>
114.065055847168

> <r_mmod_Bend_Energy-OPLS-2005>
201.964279174805

> <r_mmod_Torsional_Energy-OPLS-2005>
266.697143554688

> <r_mmod_Improper_Torsional_Energy-OPLS-2005>
6.70578479766846

> <r_mmod_Van_der_Waal_Energy-OPLS-2005>
113.073974609375

> <r_mmod_Electrostatic_Energy-OPLS-2005>
-374.187042236328

> <r_mmod_Solvation_Energy-OPLS-2005>
-260.301513671875

> <b_mmod_Minimization_Converged-OPLS-2005>
0

> <r_mmod_RMS_Derivative-OPLS-2005>
1.95913827419281

$$$$
4
                    3D
 Structure written by MMmdl.
158166  0  0  1  0            999 V2000
  -30.7484  -14.4306   20.5973 C   0  0  0  0  0  0
  -30.4087  -12.2915   19.4249 C   0  0  0  0  0  0
  -29.4906  -12.5000   18.2052 C   0  0  0  0  0  0
  -28.0107  -12.3685   18.6153 C   0  0  0  0  0  0
  -27.6568  -13.2117   19.8706 C   0  0  2  0  0  0
  -28.6974  -13.0061   20.9949 C   0  0  0  0  0  0
  -25.2564  -13.8169   20.5666 C   0  0  0  0  0  0
  -24.1825  -13.0436   20.9172 C   0  0  0  0  0  0
  -24.6387  -11.6904   20.8728 C   0  0  0  0  0  0
  -23.9053  -10.4286   21.0395 C   0  0  0  0  0  0
  -24.3607   -9.4203   21.9174 C   0  0  0  0  0  0
  -23.6287   -8.2236   22.0744 C   0  0  0  0  0  0
  -22.4266   -8.0274   21.3537 C   0  0  0  0  0  0
  -21.9899   -9.0246   20.4640 C   0  0  0  0  0  0
  -22.7221  -10.2127   20.3050 C   0  0  0  0  0  0
  -21.6857   -6.0731   22.5271 C   0  0  0  0  0  0
  -21.4016   -6.5634   23.8203 C   0  0  0  0  0  0
  -21.3663   -5.6787   24.9166 C   0  0  0  0  0  0
  -21.6043   -4.3051   24.7220 C   0  0  0  0  0  0
  -21.8823   -3.8147   23.4341 C   0  0  0  0  0  0
  -21.9191   -4.6962   22.3396 C   0  0  0  0  0  0
  -22.7844  -13.5226   21.1851 C   0  0  0  0  0  0
  -22.1664   -4.2145   21.0975 F   0  0  0  0  0  0
  -21.5631   -3.4539   25.7736 F   0  0  0  0  0  0
  -30.0291  -13.2887   20.4366 N   0  0  0  0  0  0
  -26.2997  -12.9348   20.3344 N   0  0  0  0  0  0
  -25.9314  -11.6501   20.5754 N   0  0  0  0  0  0
  -22.0504  -12.8209   22.0418 N   0  0  0  0  0  0
  -25.4274  -15.1881   20.4043 N   0  0  0  0  0  0
  -31.8839  -14.5513   20.1268 O   0  0  0  0  0  0
  -21.6633   -6.8868   21.4232 O   0  0  0  0  0  0
  -22.3520  -14.5535   20.6714 O   0  0  0  0  0  0
  -24.6133  -31.8705   23.2148 C   0  0  0  0  0  0
  -25.9026  -32.4850   23.8434 C   0  0  1  0  0  0
  -27.2329  -27.4496   20.0961 C   0  0  0  0  0  0
  -25.5900  -33.8647   24.2358 N   0  0  0  0  0  0
  -23.4023  -30.4951   21.5535 C   0  0  2  0  0  0
  -24.8474  -28.9671   20.1151 C   0  0  0  0  0  0
  -22.7390  -29.4674   22.4994 C   0  0  0  0  0  0
  -18.0270  -28.1389   22.8517 C   0  0  0  0  0  0
  -24.1471  -36.7315   23.2643 C   0  0  0  0  0  0
  -25.9285  -30.8409   21.3650 C   0  0  0  0  0  0
  -26.0056  -29.4763   20.7128 C   0  0  0  0  0  0
  -27.2017  -28.7255   20.6996 C   0  0  0  0  0  0
  -26.0602  -26.9604   19.4770 C   0  0  0  0  0  0
  -24.8678  -27.7071   19.4942 C   0  0  0  0  0  0
  -23.6101  -29.8332   20.1658 C   0  0  0  0  0  0
  -25.4103  -36.3133   24.0333 C   0  0  1  0  0  0
  -20.5859  -28.3663   23.1332 C   0  0  2  0  0  0
  -20.6761  -26.9402   22.5415 C   0  0  0  0  0  0
  -19.5740  -26.6392   21.5221 C   0  0  0  0  0  0
  -18.1922  -26.7935   22.1634 C   0  0  0  0  0  0
  -19.1519  -28.8838   23.2936 C   0  0  0  0  0  0
  -18.9441  -30.1446   23.8941 C   0  0  0  0  0  0
  -17.6449  -30.6602   24.0566 C   0  0  0  0  0  0
  -25.9024  -34.9484   23.5132 C   0  0  0  0  0  0
  -16.5338  -29.9102   23.6341 C   0  0  0  0  0  0
  -16.7262  -28.6520   23.0365 C   0  0  0  0  0  0
  -26.4469  -31.6647   25.0756 C   0  0  0  0  0  0
  -25.3751  -31.3748   26.1521 C   0  0  0  0  0  0
  -27.0300  -30.3097   24.6125 C   0  0  0  0  0  0
  -27.6050  -32.4395   25.7503 C   0  0  0  0  0  0
  -27.5582  -37.1814   24.8474 C   0  0  0  0  0  0
  -21.4116  -29.3045   22.3737 N   0  0  0  0  0  0
  -26.4294  -37.3811   23.9419 N   0  0  0  0  0  0
  -24.6662  -31.0817   22.1042 N   0  0  0  0  0  0
  -23.4153  -28.8197   23.3029 O   0  0  0  0  0  0
  -28.4029  -26.7212   20.1244 O   0  0  0  0  0  0
  -26.5561  -34.8915   22.4679 O   0  0  0  0  0  0
  -23.5330  -32.1448   23.7543 O   0  0  0  0  0  0
  -29.9045  -18.9275   20.3131 C   0  0  0  0  0  0
  -29.6227  -17.8098   21.1849 C   0  0  0  0  0  0
  -28.9129  -19.8743   20.3476 C   0  0  0  0  0  0
  -30.5944  -16.6882   21.3679 C   0  0  0  0  0  0
  -28.1916  -22.1504   19.8820 C   0  0  0  0  0  0
  -31.1370  -19.0546   19.4535 C   0  0  0  0  0  0
  -26.6651  -23.2937   18.2356 C   0  0  0  0  0  0
  -28.7489  -24.5611   19.0335 C   0  0  0  0  0  0
  -28.2786  -25.3037   20.3005 C   0  0  0  0  0  0
  -28.1171  -23.1741   18.7330 C   0  0  1  0  0  0
  -28.4712  -17.8683   21.8270 N   0  0  0  0  0  0
  -28.8493  -21.0125   19.6105 N   0  0  0  0  0  0
  -30.0813  -15.4690   21.1288 N   0  0  0  0  0  0
  -31.7825  -16.9140   21.6378 O   0  0  0  0  0  0
  -27.6605  -22.3921   20.9682 O   0  0  0  0  0  0
  -27.6843  -19.3005   21.4388 S   0  0  0  0  0  0
  -31.4560  -12.3623   19.1266 H   0  0  0  0  0  0
  -30.2851  -11.2857   19.8313 H   0  0  0  0  0  0
  -29.7287  -11.7731   17.4271 H   0  0  0  0  0  0
  -29.6673  -13.4851   17.7689 H   0  0  0  0  0  0
  -27.8160  -11.3132   18.8106 H   0  0  0  0  0  0
  -27.3638  -12.6456   17.7823 H   0  0  0  0  0  0
  -27.6966  -14.2577   19.5666 H   0  0  0  0  0  0
  -28.6669  -11.9767   21.3573 H   0  0  0  0  0  0
  -28.4631  -13.6288   21.8604 H   0  0  0  0  0  0
  -25.2757   -9.5682   22.4726 H   0  0  0  0  0  0
  -24.0007   -7.4628   22.7458 H   0  0  0  0  0  0
  -21.0828   -8.8752   19.8943 H   0  0  0  0  0  0
  -22.3675  -10.9657   19.6152 H   0  0  0  0  0  0
  -21.2004   -7.6140   23.9707 H   0  0  0  0  0  0
  -21.1487   -6.0517   25.9069 H   0  0  0  0  0  0
  -22.0600   -2.7610   23.2839 H   0  0  0  0  0  0
  -22.4159  -11.9875   22.4772 H   0  0  0  0  0  0
  -21.1132  -13.1222   22.2665 H   0  0  0  0  0  0
  -24.6583  -15.8417   20.5005 H   0  0  0  0  0  0
  -26.2763  -15.6273   20.0724 H   0  0  0  0  0  0
  -26.7088  -32.5574   23.1197 H   0  0  0  0  0  0
  -25.0124  -33.9846   25.0555 H   0  0  0  0  0  0
  -22.6944  -31.3144   21.4176 H   0  0  0  0  0  0
  -23.3738  -35.9648   23.3339 H   0  0  0  0  0  0
  -24.3594  -36.8897   22.2062 H   0  0  0  0  0  0
  -23.7184  -37.6507   23.6637 H   0  0  0  0  0  0
  -26.0375  -31.6049   20.5924 H   0  0  0  0  0  0
  -26.8179  -30.8961   21.9812 H   0  0  0  0  0  0
  -28.0977  -29.1148   21.1627 H   0  0  0  0  0  0
  -26.0584  -26.0075   18.9709 H   0  0  0  0  0  0
  -23.9786  -27.3150   19.0214 H   0  0  0  0  0  0
  -23.7226  -30.6127   19.4112 H   0  0  0  0  0  0
  -22.7334  -29.2562   19.8665 H   0  0  0  0  0  0
  -25.1270  -36.2023   25.0821 H   0  0  0  0  0  0
  -20.9991  -28.3215   24.1434 H   0  0  0  0  0  0
  -20.5697  -26.2261   23.3590 H   0  0  0  0  0  0
  -21.6630  -26.7469   22.1185 H   0  0  0  0  0  0
  -19.6895  -25.6300   21.1255 H   0  0  0  0  0  0
  -19.6680  -27.3197   20.6750 H   0  0  0  0  0  0
  -17.4191  -26.6710   21.4028 H   0  0  0  0  0  0
  -18.0318  -26.0052   22.9009 H   0  0  0  0  0  0
  -19.7909  -30.7266   24.2331 H   0  0  0  0  0  0
  -17.4997  -31.6301   24.5130 H   0  0  0  0  0  0
  -15.5340  -30.3016   23.7651 H   0  0  0  0  0  0
  -15.8658  -28.0854   22.7063 H   0  0  0  0  0  0
  -24.5933  -30.7073   25.7880 H   0  0  0  0  0  0
  -24.8923  -32.2891   26.4975 H   0  0  0  0  0  0
  -25.8122  -30.8937   27.0281 H   0  0  0  0  0  0
  -26.2830  -29.6875   24.1175 H   0  0  0  0  0  0
  -27.4068  -29.7328   25.4585 H   0  0  0  0  0  0
  -27.8667  -30.4437   23.9265 H   0  0  0  0  0  0
  -27.2653  -33.3678   26.2117 H   0  0  0  0  0  0
  -28.3806  -32.7017   25.0293 H   0  0  0  0  0  0
  -28.0769  -31.8521   26.5388 H   0  0  0  0  0  0
  -28.2619  -38.0094   24.7518 H   0  0  0  0  0  0
  -28.1043  -36.2625   24.6297 H   0  0  0  0  0  0
  -27.2315  -37.1467   25.8881 H   0  0  0  0  0  0
  -20.9256  -29.8787   21.6987 H   0  0  0  0  0  0
  -26.0189  -38.2890   24.1438 H   0  0  0  0  0  0
  -31.2964  -18.1582   18.8529 H   0  0  0  0  0  0
  -32.0285  -19.2093   20.0608 H   0  0  0  0  0  0
  -31.0808  -19.8921   18.7598 H   0  0  0  0  0  0
  -26.2722  -22.3230   17.9295 H   0  0  0  0  0  0
  -26.5982  -23.9531   17.3703 H   0  0  0  0  0  0
  -26.0017  -23.6797   19.0092 H   0  0  0  0  0  0
  -29.8353  -24.4635   19.0716 H   0  0  0  0  0  0
  -28.5552  -25.2005   18.1727 H   0  0  0  0  0  0
  -28.9104  -25.0153   21.1426 H   0  0  0  0  0  0
  -27.2724  -25.0063   20.5960 H   0  0  0  0  0  0
  -28.6865  -22.7669   17.8945 H   0  0  0  0  0  0
  -29.3326  -20.9912   18.7252 H   0  0  0  0  0  0
  -29.0812  -15.3903   21.2030 H   0  0  0  0  0  0
  1 25  1  0  0  0
  1 30  2  0  0  0
  1 83  1  0  0  0
  2  3  1  0  0  0
  2 25  1  0  0  0
  2 87  1  0  0  0
  2 88  1  0  0  0
  3  4  1  0  0  0
  3 89  1  0  0  0
  3 90  1  0  0  0
  4  5  1  0  0  0
  4 91  1  0  0  0
  4 92  1  0  0  0
  5  6  1  0  0  0
  5 26  1  0  0  0
  5 93  1  0  0  0
  6 25  1  0  0  0
  6 94  1  0  0  0
  6 95  1  0  0  0
  7  8  2  0  0  0
  7 26  1  0  0  0
  7 29  1  0  0  0
  8  9  1  0  0  0
  8 22  1  0  0  0
  9 10  1  0  0  0
  9 27  2  0  0  0
 10 11  2  0  0  0
 10 15  1  0  0  0
 11 12  1  0  0  0
 11 96  1  0  0  0
 12 13  2  0  0  0
 12 97  1  0  0  0
 13 14  1  0  0  0
 13 31  1  0  0  0
 14 15  2  0  0  0
 14 98  1  0  0  0
 15 99  1  0  0  0
 16 17  2  0  0  0
 16 21  1  0  0  0
 16 31  1  0  0  0
 17 18  1  0  0  0
 17100  1  0  0  0
 18 19  2  0  0  0
 18101  1  0  0  0
 19 20  1  0  0  0
 19 24  1  0  0  0
 20 21  2  0  0  0
 20102  1  0  0  0
 21 23  1  0  0  0
 22 28  1  0  0  0
 22 32  2  0  0  0
 26 27  1  0  0  0
 28103  1  0  0  0
 28104  1  0  0  0
 29105  1  0  0  0
 29106  1  0  0  0
 33 34  1  0  0  0
 33 66  1  0  0  0
 33 70  2  0  0  0
 34 36  1  0  0  0
 34 59  1  0  0  0
 34107  1  0  0  0
 35 44  2  0  0  0
 35 45  1  0  0  0
 35 68  1  0  0  0
 36 56  1  0  0  0
 36108  1  0  0  0
 37 39  1  0  0  0
 37 47  1  0  0  0
 37 66  1  0  0  0
 37109  1  0  0  0
 38 43  2  0  0  0
 38 46  1  0  0  0
 38 47  1  0  0  0
 39 64  1  0  0  0
 39 67  2  0  0  0
 40 52  1  0  0  0
 40 53  2  0  0  0
 40 58  1  0  0  0
 41110  1  0  0  0
 41111  1  0  0  0
 41112  1  0  0  0
 41 48  1  0  0  0
 42 43  1  0  0  0
 42 66  1  0  0  0
 42113  1  0  0  0
 42114  1  0  0  0
 43 44  1  0  0  0
 44115  1  0  0  0
 45 46  2  0  0  0
 45116  1  0  0  0
 46117  1  0  0  0
 47118  1  0  0  0
 47119  1  0  0  0
 48 56  1  0  0  0
 48 65  1  0  0  0
 48120  1  0  0  0
 49 50  1  0  0  0
 49 53  1  0  0  0
 49 64  1  0  0  0
 49121  1  0  0  0
 50 51  1  0  0  0
 50122  1  0  0  0
 50123  1  0  0  0
 51 52  1  0  0  0
 51124  1  0  0  0
 51125  1  0  0  0
 52126  1  0  0  0
 52127  1  0  0  0
 53 54  1  0  0  0
 54 55  2  0  0  0
 54128  1  0  0  0
 55 57  1  0  0  0
 55129  1  0  0  0
 56 69  2  0  0  0
 57 58  2  0  0  0
 57130  1  0  0  0
 58131  1  0  0  0
 59 60  1  0  0  0
 59 61  1  0  0  0
 59 62  1  0  0  0
 60132  1  0  0  0
 60133  1  0  0  0
 60134  1  0  0  0
 61135  1  0  0  0
 61136  1  0  0  0
 61137  1  0  0  0
 62138  1  0  0  0
 62139  1  0  0  0
 62140  1  0  0  0
 63 65  1  0  0  0
 63141  1  0  0  0
 63142  1  0  0  0
 63143  1  0  0  0
 64144  1  0  0  0
 65145  1  0  0  0
 68 79  1  0  0  0
 71 72  1  0  0  0
 71 73  2  0  0  0
 71 76  1  0  0  0
 72 74  1  0  0  0
 72 81  2  0  0  0
 73 82  1  0  0  0
 73 86  1  0  0  0
 74 83  1  0  0  0
 74 84  2  0  0  0
 75 80  1  0  0  0
 75 82  1  0  0  0
 75 85  2  0  0  0
 76146  1  0  0  0
 76147  1  0  0  0
 76148  1  0  0  0
 77149  1  0  0  0
 77150  1  0  0  0
 77151  1  0  0  0
 77 80  1  0  0  0
 78 79  1  0  0  0
 78 80  1  0  0  0
 78152  1  0  0  0
 78153  1  0  0  0
 79154  1  0  0  0
 79155  1  0  0  0
 80156  1  0  0  0
 81 86  1  0  0  0
 82157  1  0  0  0
 83158  1  0  0  0
M  ISO  4   1 100  68 101  79 101  83 100
M  END
> <chiral flag>
0

> <version>
0

> <s_m_source_file>
/data/baiqing/PycharmProjects/Reinvent-master-3.2/result/LINK_invent/BTK/process_docking_weight1_custom_product_contain_oxygen_bond_distance_aromatic_linkinvent_7_9_3/rearranged_h_0186.sdf

> <i_m_source_file_index>
4

> <r_mmod_Potential_Energy-OPLS-2005>
-181.564437866211

> <r_mmod_Stretch_Energy-OPLS-2005>
33.5112419128418

> <r_mmod_Bend_Energy-OPLS-2005>
105.411155700684

> <r_mmod_Torsional_Energy-OPLS-2005>
259.980377197266

> <r_mmod_Improper_Torsional_Energy-OPLS-2005>
4.84980058670044

> <r_mmod_Van_der_Waal_Energy-OPLS-2005>
144.02766418457

> <r_mmod_Electrostatic_Energy-OPLS-2005>
-505.906860351562

> <r_mmod_Solvation_Energy-OPLS-2005>
-236.937622070312

> <b_mmod_Minimization_Converged-OPLS-2005>
0

> <r_mmod_RMS_Derivative-OPLS-2005>
2.14136600494385

$$$$
5
                    3D
 Structure written by MMmdl.
159167  0  0  1  0            999 V2000
  -30.6322  -14.6357   20.5071 C   0  0  0  0  0  0
  -30.4408  -12.3894   19.4556 C   0  0  0  0  0  0
  -29.5098  -12.5068   18.2278 C   0  0  0  0  0  0
  -28.0332  -12.3430   18.6398 C   0  0  0  0  0  0
  -27.6559  -13.2151   19.8672 C   0  0  2  0  0  0
  -28.7000  -13.0674   20.9977 C   0  0  0  0  0  0
  -25.2571  -13.8165   20.5692 C   0  0  0  0  0  0
  -24.1826  -13.0432   20.9167 C   0  0  0  0  0  0
  -24.6391  -11.6904   20.8715 C   0  0  0  0  0  0
  -23.9058  -10.4289   21.0398 C   0  0  0  0  0  0
  -24.3611   -9.4211   21.9178 C   0  0  0  0  0  0
  -23.6291   -8.2245   22.0755 C   0  0  0  0  0  0
  -22.4273   -8.0281   21.3545 C   0  0  0  0  0  0
  -21.9908   -9.0254   20.4642 C   0  0  0  0  0  0
  -22.7232  -10.2134   20.3047 C   0  0  0  0  0  0
  -21.6855   -6.0737   22.5279 C   0  0  0  0  0  0
  -21.4008   -6.5637   23.8213 C   0  0  0  0  0  0
  -21.3659   -5.6790   24.9179 C   0  0  0  0  0  0
  -21.6045   -4.3053   24.7225 C   0  0  0  0  0  0
  -21.8819   -3.8147   23.4346 C   0  0  0  0  0  0
  -21.9190   -4.6963   22.3402 C   0  0  0  0  0  0
  -22.7849  -13.5230   21.1837 C   0  0  0  0  0  0
  -22.1664   -4.2150   21.0980 F   0  0  0  0  0  0
  -21.5632   -3.4531   25.7738 F   0  0  0  0  0  0
  -30.0209  -13.4084   20.4385 N   0  0  0  0  0  0
  -26.3004  -12.9342   20.3338 N   0  0  0  0  0  0
  -25.9321  -11.6499   20.5752 N   0  0  0  0  0  0
  -22.0491  -12.8225   22.0395 N   0  0  0  0  0  0
  -25.4289  -15.1887   20.4179 N   0  0  0  0  0  0
  -31.7865  -14.7947   20.0947 O   0  0  0  0  0  0
  -21.6643   -6.8877   21.4243 O   0  0  0  0  0  0
  -22.3534  -14.5545   20.6704 O   0  0  0  0  0  0
  -24.6279  -31.8599   23.2034 C   0  0  0  0  0  0
  -25.9123  -32.4787   23.8360 C   0  0  1  0  0  0
  -27.2241  -27.3171   20.1111 C   0  0  0  0  0  0
  -25.5929  -33.8588   24.2283 N   0  0  0  0  0  0
  -23.4215  -30.4863   21.5450 C   0  0  2  0  0  0
  -24.8665  -28.9431   20.1092 C   0  0  0  0  0  0
  -22.7479  -29.4641   22.4920 C   0  0  0  0  0  0
  -18.0285  -28.1410   22.8508 C   0  0  0  0  0  0
  -24.1480  -36.7288   23.2637 C   0  0  0  0  0  0
  -25.9642  -30.7901   21.3743 C   0  0  0  0  0  0
  -26.0367  -29.4192   20.7133 C   0  0  0  0  0  0
  -27.2193  -28.6187   20.7031 C   0  0  0  0  0  0
  -26.0282  -26.8986   19.4810 C   0  0  0  0  0  0
  -24.8643  -27.6879   19.4836 C   0  0  0  0  0  0
  -23.6357  -29.8245   20.1594 C   0  0  0  0  0  0
  -25.4106  -36.3086   24.0335 C   0  0  1  0  0  0
  -20.5895  -28.3702   23.1288 C   0  0  2  0  0  0
  -20.6773  -26.9424   22.5418 C   0  0  0  0  0  0
  -19.5743  -26.6411   21.5223 C   0  0  0  0  0  0
  -18.1925  -26.7958   22.1635 C   0  0  0  0  0  0
  -19.1544  -28.8869   23.2899 C   0  0  0  0  0  0
  -18.9464  -30.1472   23.8917 C   0  0  0  0  0  0
  -17.6467  -30.6609   24.0583 C   0  0  0  0  0  0
  -25.9054  -34.9460   23.5110 C   0  0  0  0  0  0
  -16.5354  -29.9116   23.6345 C   0  0  0  0  0  0
  -16.7278  -28.6533   23.0373 C   0  0  0  0  0  0
  -26.4488  -31.6615   25.0746 C   0  0  0  0  0  0
  -25.3720  -31.3787   26.1479 C   0  0  0  0  0  0
  -27.0317  -30.3029   24.6216 C   0  0  0  0  0  0
  -27.6049  -32.4356   25.7508 C   0  0  0  0  0  0
  -27.5579  -37.1795   24.8456 C   0  0  0  0  0  0
  -21.4192  -29.3061   22.3672 N   0  0  0  0  0  0
  -26.4277  -37.3791   23.9424 N   0  0  0  0  0  0
  -24.6900  -31.0619   22.0972 N   0  0  0  0  0  0
  -23.4209  -28.8174   23.2992 O   0  0  0  0  0  0
  -28.3400  -26.4623   20.1664 O   0  0  0  0  0  0
  -26.5621  -34.8923   22.4676 O   0  0  0  0  0  0
  -23.5445  -32.1386   23.7369 O   0  0  0  0  0  0
  -30.6991  -19.2273   20.1199 C   0  0  0  0  0  0
  -28.6794  -19.2060   21.4035 C   0  0  0  0  0  0
  -29.6527  -19.9873   20.7134 C   0  0  0  0  0  0
  -28.7978  -17.7830   21.4251 C   0  0  0  0  0  0
  -29.8811  -17.1143   20.8027 C   0  0  0  0  0  0
  -28.8709  -22.4099   20.2385 C   0  0  0  0  0  0
  -27.9565  -20.0071   23.6884 C   0  0  0  0  0  0
  -30.5252  -24.2315   19.5460 C   0  0  0  0  0  0
  -27.5561  -19.8301   22.2185 C   0  0  0  0  0  0
  -28.1189  -25.0066   19.9643 C   0  0  0  0  0  0
  -29.2488  -23.9501   20.3602 C   0  0  1  0  0  0
  -30.8154  -17.8625   20.1523 N   0  0  0  0  0  0
  -29.7286  -21.4561   20.7221 N   0  0  0  0  0  0
  -29.8426  -15.6643   20.9368 N   0  0  0  0  0  0
  -27.8097  -22.0888   19.7020 O   0  0  0  0  0  0
  -27.8725  -17.0380   22.0816 F   0  0  0  0  0  0
  -31.4820  -12.5116   19.1519 H   0  0  0  0  0  0
  -30.3739  -11.3921   19.8931 H   0  0  0  0  0  0
  -29.7750  -11.7579   17.4803 H   0  0  0  0  0  0
  -29.6520  -13.4774   17.7494 H   0  0  0  0  0  0
  -27.8728  -11.2898   18.8740 H   0  0  0  0  0  0
  -27.3771  -12.5697   17.7982 H   0  0  0  0  0  0
  -27.6747  -14.2510   19.5288 H   0  0  0  0  0  0
  -28.7078  -12.0444   21.3774 H   0  0  0  0  0  0
  -28.4389  -13.6951   21.8513 H   0  0  0  0  0  0
  -25.2759   -9.5691   22.4752 H   0  0  0  0  0  0
  -24.0002   -7.4634   22.7471 H   0  0  0  0  0  0
  -21.0841   -8.8760   19.8949 H   0  0  0  0  0  0
  -22.3684  -10.9669   19.6150 H   0  0  0  0  0  0
  -21.2002   -7.6146   23.9711 H   0  0  0  0  0  0
  -21.1483   -6.0526   25.9080 H   0  0  0  0  0  0
  -22.0599   -2.7610   23.2839 H   0  0  0  0  0  0
  -22.4101  -11.9876   22.4771 H   0  0  0  0  0  0
  -21.1112  -13.1260   22.2602 H   0  0  0  0  0  0
  -24.6715  -15.8454   20.5707 H   0  0  0  0  0  0
  -26.3032  -15.6432   20.1893 H   0  0  0  0  0  0
  -26.7192  -32.5440   23.1110 H   0  0  0  0  0  0
  -25.0076  -33.9730   25.0419 H   0  0  0  0  0  0
  -22.7167  -31.3083   21.4046 H   0  0  0  0  0  0
  -23.3757  -35.9607   23.3290 H   0  0  0  0  0  0
  -24.3574  -36.8927   22.2055 H   0  0  0  0  0  0
  -23.7212  -37.6478   23.6662 H   0  0  0  0  0  0
  -26.1016  -31.5555   20.6094 H   0  0  0  0  0  0
  -26.8442  -30.8342   22.0067 H   0  0  0  0  0  0
  -28.1166  -28.9811   21.1842 H   0  0  0  0  0  0
  -25.9606  -25.9424   18.9857 H   0  0  0  0  0  0
  -23.9681  -27.3182   19.0041 H   0  0  0  0  0  0
  -23.7558  -30.6028   19.4047 H   0  0  0  0  0  0
  -22.7541  -29.2560   19.8574 H   0  0  0  0  0  0
  -25.1292  -36.1933   25.0830 H   0  0  0  0  0  0
  -21.0012  -28.3276   24.1399 H   0  0  0  0  0  0
  -20.5674  -26.2312   23.3620 H   0  0  0  0  0  0
  -21.6634  -26.7464   22.1194 H   0  0  0  0  0  0
  -19.6893  -25.6326   21.1243 H   0  0  0  0  0  0
  -19.6681  -27.3230   20.6760 H   0  0  0  0  0  0
  -17.4201  -26.6747   21.4020 H   0  0  0  0  0  0
  -18.0292  -26.0091   22.9018 H   0  0  0  0  0  0
  -19.7936  -30.7291   24.2286 H   0  0  0  0  0  0
  -17.5024  -31.6287   24.5199 H   0  0  0  0  0  0
  -15.5356  -30.3038   23.7655 H   0  0  0  0  0  0
  -15.8677  -28.0868   22.7084 H   0  0  0  0  0  0
  -24.5869  -30.7154   25.7827 H   0  0  0  0  0  0
  -24.8923  -32.2964   26.4886 H   0  0  0  0  0  0
  -25.8032  -30.8978   27.0266 H   0  0  0  0  0  0
  -26.2885  -29.6796   24.1214 H   0  0  0  0  0  0
  -27.3970  -29.7287   25.4741 H   0  0  0  0  0  0
  -27.8789  -30.4317   23.9475 H   0  0  0  0  0  0
  -27.2666  -33.3677   26.2046 H   0  0  0  0  0  0
  -28.3866  -32.6886   25.0338 H   0  0  0  0  0  0
  -28.0692  -31.8499   26.5451 H   0  0  0  0  0  0
  -28.2588  -38.0102   24.7547 H   0  0  0  0  0  0
  -28.1089  -36.2644   24.6231 H   0  0  0  0  0  0
  -27.2311  -37.1394   25.8860 H   0  0  0  0  0  0
  -20.9350  -29.8808   21.6917 H   0  0  0  0  0  0
  -26.0161  -38.2865   24.1444 H   0  0  0  0  0  0
  -31.5003  -19.7401   19.6082 H   0  0  0  0  0  0
  -27.1164  -20.3639   24.2841 H   0  0  0  0  0  0
  -28.7683  -20.7268   23.7874 H   0  0  0  0  0  0
  -28.2921  -19.0629   24.1200 H   0  0  0  0  0  0
  -31.3413  -23.5601   19.8166 H   0  0  0  0  0  0
  -30.8761  -25.2492   19.7145 H   0  0  0  0  0  0
  -30.3416  -24.1189   18.4774 H   0  0  0  0  0  0
  -26.6758  -19.1898   22.1532 H   0  0  0  0  0  0
  -27.2445  -20.7847   21.8055 H   0  0  0  0  0  0
  -27.2190  -24.7212   20.5128 H   0  0  0  0  0  0
  -27.8928  -24.8545   18.9077 H   0  0  0  0  0  0
  -29.4784  -24.1129   21.4132 H   0  0  0  0  0  0
  -30.6173  -21.8337   21.0258 H   0  0  0  0  0  0
  -28.9791  -15.3531   21.3540 H   0  0  0  0  0  0
  1 25  1  0  0  0
  1 30  2  0  0  0
  1 84  1  0  0  0
  2  3  1  0  0  0
  2 25  1  0  0  0
  2 87  1  0  0  0
  2 88  1  0  0  0
  3  4  1  0  0  0
  3 89  1  0  0  0
  3 90  1  0  0  0
  4  5  1  0  0  0
  4 91  1  0  0  0
  4 92  1  0  0  0
  5  6  1  0  0  0
  5 26  1  0  0  0
  5 93  1  0  0  0
  6 25  1  0  0  0
  6 94  1  0  0  0
  6 95  1  0  0  0
  7  8  2  0  0  0
  7 26  1  0  0  0
  7 29  1  0  0  0
  8  9  1  0  0  0
  8 22  1  0  0  0
  9 10  1  0  0  0
  9 27  2  0  0  0
 10 11  2  0  0  0
 10 15  1  0  0  0
 11 12  1  0  0  0
 11 96  1  0  0  0
 12 13  2  0  0  0
 12 97  1  0  0  0
 13 14  1  0  0  0
 13 31  1  0  0  0
 14 15  2  0  0  0
 14 98  1  0  0  0
 15 99  1  0  0  0
 16 17  2  0  0  0
 16 21  1  0  0  0
 16 31  1  0  0  0
 17 18  1  0  0  0
 17100  1  0  0  0
 18 19  2  0  0  0
 18101  1  0  0  0
 19 20  1  0  0  0
 19 24  1  0  0  0
 20 21  2  0  0  0
 20102  1  0  0  0
 21 23  1  0  0  0
 22 28  1  0  0  0
 22 32  2  0  0  0
 26 27  1  0  0  0
 28103  1  0  0  0
 28104  1  0  0  0
 29105  1  0  0  0
 29106  1  0  0  0
 33 34  1  0  0  0
 33 66  1  0  0  0
 33 70  2  0  0  0
 34 36  1  0  0  0
 34 59  1  0  0  0
 34107  1  0  0  0
 35 44  2  0  0  0
 35 45  1  0  0  0
 35 68  1  0  0  0
 36 56  1  0  0  0
 36108  1  0  0  0
 37 39  1  0  0  0
 37 47  1  0  0  0
 37 66  1  0  0  0
 37109  1  0  0  0
 38 43  2  0  0  0
 38 46  1  0  0  0
 38 47  1  0  0  0
 39 64  1  0  0  0
 39 67  2  0  0  0
 40 52  1  0  0  0
 40 53  2  0  0  0
 40 58  1  0  0  0
 41110  1  0  0  0
 41111  1  0  0  0
 41112  1  0  0  0
 41 48  1  0  0  0
 42 43  1  0  0  0
 42 66  1  0  0  0
 42113  1  0  0  0
 42114  1  0  0  0
 43 44  1  0  0  0
 44115  1  0  0  0
 45 46  2  0  0  0
 45116  1  0  0  0
 46117  1  0  0  0
 47118  1  0  0  0
 47119  1  0  0  0
 48 56  1  0  0  0
 48 65  1  0  0  0
 48120  1  0  0  0
 49 50  1  0  0  0
 49 53  1  0  0  0
 49 64  1  0  0  0
 49121  1  0  0  0
 50 51  1  0  0  0
 50122  1  0  0  0
 50123  1  0  0  0
 51 52  1  0  0  0
 51124  1  0  0  0
 51125  1  0  0  0
 52126  1  0  0  0
 52127  1  0  0  0
 53 54  1  0  0  0
 54 55  2  0  0  0
 54128  1  0  0  0
 55 57  1  0  0  0
 55129  1  0  0  0
 56 69  2  0  0  0
 57 58  2  0  0  0
 57130  1  0  0  0
 58131  1  0  0  0
 59 60  1  0  0  0
 59 61  1  0  0  0
 59 62  1  0  0  0
 60132  1  0  0  0
 60133  1  0  0  0
 60134  1  0  0  0
 61135  1  0  0  0
 61136  1  0  0  0
 61137  1  0  0  0
 62138  1  0  0  0
 62139  1  0  0  0
 62140  1  0  0  0
 63 65  1  0  0  0
 63141  1  0  0  0
 63142  1  0  0  0
 63143  1  0  0  0
 64144  1  0  0  0
 65145  1  0  0  0
 68 80  1  0  0  0
 71 73  2  0  0  0
 71 82  1  0  0  0
 71146  1  0  0  0
 72 73  1  0  0  0
 72 74  2  0  0  0
 72 79  1  0  0  0
 73 83  1  0  0  0
 74 75  1  0  0  0
 74 86  1  0  0  0
 75 82  2  0  0  0
 75 84  1  0  0  0
 76 81  1  0  0  0
 76 83  1  0  0  0
 76 85  2  0  0  0
 77 79  1  0  0  0
 77147  1  0  0  0
 77148  1  0  0  0
 77149  1  0  0  0
 78150  1  0  0  0
 78151  1  0  0  0
 78152  1  0  0  0
 78 81  1  0  0  0
 79153  1  0  0  0
 79154  1  0  0  0
 80 81  1  0  0  0
 80155  1  0  0  0
 80156  1  0  0  0
 81157  1  0  0  0
 83158  1  0  0  0
 84159  1  0  0  0
M  ISO  4   1 100  68 101  80 101  84 100
M  END
> <chiral flag>
0

> <version>
0

> <s_m_source_file>
/data/baiqing/PycharmProjects/Reinvent-master-3.2/result/LINK_invent/BTK/process_docking_weight1_custom_product_contain_oxygen_bond_distance_aromatic_linkinvent_7_9_3/rearranged_h_0186.sdf

> <i_m_source_file_index>
5

> <r_mmod_Potential_Energy-OPLS-2005>
-97.3838729858398

> <r_mmod_Stretch_Energy-OPLS-2005>
81.2655868530273

> <r_mmod_Bend_Energy-OPLS-2005>
145.945663452148

> <r_mmod_Torsional_Energy-OPLS-2005>
240.238784790039

> <r_mmod_Improper_Torsional_Energy-OPLS-2005>
4.19833135604858

> <r_mmod_Van_der_Waal_Energy-OPLS-2005>
145.302536010742

> <r_mmod_Electrostatic_Energy-OPLS-2005>
-525.655395507812

> <r_mmod_Solvation_Energy-OPLS-2005>
-236.749954223633

> <b_mmod_Minimization_Converged-OPLS-2005>
0

> <r_mmod_RMS_Derivative-OPLS-2005>
1.78982293605804

$$$$
6
                    3D
 Structure written by MMmdl.
156164  0  0  1  0            999 V2000
  -30.7330  -14.4938   20.5096 C   0  0  0  0  0  0
  -30.4032  -12.3041   19.4429 C   0  0  0  0  0  0
  -29.4916  -12.4846   18.2134 C   0  0  0  0  0  0
  -28.0134  -12.3572   18.6251 C   0  0  0  0  0  0
  -27.6536  -13.2205   19.8654 C   0  0  2  0  0  0
  -28.6981  -13.0678   20.9953 C   0  0  0  0  0  0
  -25.2558  -13.8198   20.5702 C   0  0  0  0  0  0
  -24.1827  -13.0456   20.9197 C   0  0  0  0  0  0
  -24.6398  -11.6926   20.8748 C   0  0  0  0  0  0
  -23.9082  -10.4300   21.0403 C   0  0  0  0  0  0
  -24.3634   -9.4214   21.9179 C   0  0  0  0  0  0
  -23.6307   -8.2249   22.0748 C   0  0  0  0  0  0
  -22.4286   -8.0286   21.3541 C   0  0  0  0  0  0
  -21.9926   -9.0260   20.4643 C   0  0  0  0  0  0
  -22.7252  -10.2142   20.3050 C   0  0  0  0  0  0
  -21.6856   -6.0741   22.5278 C   0  0  0  0  0  0
  -21.4009   -6.5643   23.8214 C   0  0  0  0  0  0
  -21.3662   -5.6792   24.9175 C   0  0  0  0  0  0
  -21.6043   -4.3057   24.7222 C   0  0  0  0  0  0
  -21.8820   -3.8152   23.4343 C   0  0  0  0  0  0
  -21.9197   -4.6968   22.3397 C   0  0  0  0  0  0
  -22.7845  -13.5245   21.1858 C   0  0  0  0  0  0
  -22.1663   -4.2153   21.0972 F   0  0  0  0  0  0
  -21.5637   -3.4538   25.7732 F   0  0  0  0  0  0
  -30.0232  -13.3352   20.4245 N   0  0  0  0  0  0
  -26.2995  -12.9393   20.3352 N   0  0  0  0  0  0
  -25.9333  -11.6541   20.5778 N   0  0  0  0  0  0
  -22.0497  -12.8224   22.0411 N   0  0  0  0  0  0
  -25.4275  -15.1916   20.4113 N   0  0  0  0  0  0
  -31.8999  -14.5683   20.1182 O   0  0  0  0  0  0
  -21.6648   -6.8884   21.4240 O   0  0  0  0  0  0
  -22.3527  -14.5552   20.6714 O   0  0  0  0  0  0
  -24.6170  -31.8673   23.2099 C   0  0  0  0  0  0
  -25.9058  -32.4812   23.8397 C   0  0  1  0  0  0
  -27.2170  -27.4029   20.0982 C   0  0  0  0  0  0
  -25.5911  -33.8613   24.2324 N   0  0  0  0  0  0
  -23.4049  -30.4945   21.5509 C   0  0  2  0  0  0
  -24.8473  -28.9645   20.1084 C   0  0  0  0  0  0
  -22.7425  -29.4660   22.4966 C   0  0  0  0  0  0
  -18.0276  -28.1380   22.8494 C   0  0  0  0  0  0
  -24.1491  -36.7309   23.2637 C   0  0  0  0  0  0
  -25.9384  -30.8229   21.3697 C   0  0  0  0  0  0
  -26.0109  -29.4584   20.7111 C   0  0  0  0  0  0
  -27.1982  -28.6854   20.7025 C   0  0  0  0  0  0
  -26.0359  -26.9454   19.4662 C   0  0  0  0  0  0
  -24.8572  -27.7100   19.4801 C   0  0  0  0  0  0
  -23.6128  -29.8347   20.1628 C   0  0  0  0  0  0
  -25.4114  -36.3106   24.0336 C   0  0  1  0  0  0
  -20.5874  -28.3672   23.1308 C   0  0  2  0  0  0
  -20.6770  -26.9406   22.5414 C   0  0  0  0  0  0
  -19.5745  -26.6384   21.5216 C   0  0  0  0  0  0
  -18.1922  -26.7927   22.1623 C   0  0  0  0  0  0
  -19.1527  -28.8842   23.2900 C   0  0  0  0  0  0
  -18.9451  -30.1447   23.8911 C   0  0  0  0  0  0
  -17.6451  -30.6583   24.0567 C   0  0  0  0  0  0
  -25.9039  -34.9471   23.5125 C   0  0  0  0  0  0
  -16.5343  -29.9083   23.6328 C   0  0  0  0  0  0
  -16.7263  -28.6503   23.0346 C   0  0  0  0  0  0
  -26.4480  -31.6588   25.0727 C   0  0  0  0  0  0
  -25.3745  -31.3699   26.1474 C   0  0  0  0  0  0
  -27.0289  -30.3014   24.6119 C   0  0  0  0  0  0
  -27.6071  -32.4297   25.7475 C   0  0  0  0  0  0
  -27.5587  -37.1812   24.8466 C   0  0  0  0  0  0
  -21.4151  -29.3036   22.3709 N   0  0  0  0  0  0
  -26.4302  -37.3789   23.9408 N   0  0  0  0  0  0
  -24.6719  -31.0762   22.1011 N   0  0  0  0  0  0
  -23.4193  -28.8193   23.3006 O   0  0  0  0  0  0
  -28.3677  -26.6296   20.1523 O   0  0  0  0  0  0
  -26.5604  -34.8925   22.4686 O   0  0  0  0  0  0
  -23.5358  -32.1434   23.7483 O   0  0  0  0  0  0
  -28.5745  -19.6353   21.9627 C   0  0  0  0  0  0
  -29.1566  -20.5548   21.1079 C   0  0  0  0  0  0
  -29.9009  -18.1727   20.8104 C   0  0  0  0  0  0
  -29.2696  -22.8417   20.1987 C   0  0  0  0  0  0
  -27.5915  -19.9204   23.0581 C   0  0  0  0  0  0
  -30.7332  -24.8961   20.3447 C   0  0  0  0  0  0
  -30.6978  -16.9332   20.4883 C   0  0  0  0  0  0
  -28.2455  -25.2067   19.8977 C   0  0  0  0  0  0
  -29.3218  -24.3409   20.6133 C   0  0  1  0  0  0
  -28.9907  -18.3027   21.7788 N   0  0  0  0  0  0
  -29.0060  -21.9188   21.1528 N   0  0  0  0  0  0
  -30.0683  -15.6313   20.8051 N   0  0  0  0  0  0
  -29.4627  -22.5412   19.0175 O   0  0  0  0  0  0
  -30.2360  -19.7089   20.0064 S   0  0  0  0  0  0
  -31.4521  -12.3605   19.1467 H   0  0  0  0  0  0
  -30.2718  -11.3093   19.8709 H   0  0  0  0  0  0
  -29.7311  -11.7396   17.4535 H   0  0  0  0  0  0
  -29.6686  -13.4593   17.7557 H   0  0  0  0  0  0
  -27.8239  -11.3043   18.8375 H   0  0  0  0  0  0
  -27.3654  -12.6167   17.7865 H   0  0  0  0  0  0
  -27.6795  -14.2592   19.5362 H   0  0  0  0  0  0
  -28.6705  -12.0587   21.4086 H   0  0  0  0  0  0
  -28.4766  -13.7419   21.8245 H   0  0  0  0  0  0
  -25.2775   -9.5695   22.4762 H   0  0  0  0  0  0
  -24.0017   -7.4641   22.7469 H   0  0  0  0  0  0
  -21.0853   -8.8781   19.8949 H   0  0  0  0  0  0
  -22.3706  -10.9686   19.6167 H   0  0  0  0  0  0
  -21.1983   -7.6148   23.9720 H   0  0  0  0  0  0
  -21.1488   -6.0518   25.9079 H   0  0  0  0  0  0
  -22.0595   -2.7616   23.2838 H   0  0  0  0  0  0
  -22.4108  -11.9874   22.4778 H   0  0  0  0  0  0
  -21.1116  -13.1242   22.2615 H   0  0  0  0  0  0
  -24.6647  -15.8501   20.5276 H   0  0  0  0  0  0
  -26.2833  -15.6314   20.0977 H   0  0  0  0  0  0
  -26.7124  -32.5511   23.1152 H   0  0  0  0  0  0
  -25.0077  -33.9773   25.0481 H   0  0  0  0  0  0
  -22.6948  -31.3130   21.4153 H   0  0  0  0  0  0
  -23.3756  -35.9635   23.3294 H   0  0  0  0  0  0
  -24.3591  -36.8927   22.2051 H   0  0  0  0  0  0
  -23.7234  -37.6509   23.6655 H   0  0  0  0  0  0
  -26.0623  -31.5912   20.6055 H   0  0  0  0  0  0
  -26.8228  -30.8682   21.9939 H   0  0  0  0  0  0
  -28.0942  -29.0583   21.1794 H   0  0  0  0  0  0
  -25.9956  -25.9963   18.9522 H   0  0  0  0  0  0
  -23.9663  -27.3317   18.9977 H   0  0  0  0  0  0
  -23.7233  -30.6134   19.4075 H   0  0  0  0  0  0
  -22.7347  -29.2589   19.8640 H   0  0  0  0  0  0
  -25.1290  -36.1974   25.0828 H   0  0  0  0  0  0
  -20.9973  -28.3236   24.1426 H   0  0  0  0  0  0
  -20.5678  -26.2278   23.3604 H   0  0  0  0  0  0
  -21.6636  -26.7447   22.1193 H   0  0  0  0  0  0
  -19.6902  -25.6296   21.1235 H   0  0  0  0  0  0
  -19.6683  -27.3206   20.6755 H   0  0  0  0  0  0
  -17.4197  -26.6691   21.4020 H   0  0  0  0  0  0
  -18.0310  -26.0061   22.9009 H   0  0  0  0  0  0
  -19.7925  -30.7266   24.2283 H   0  0  0  0  0  0
  -17.4999  -31.6267   24.5160 H   0  0  0  0  0  0
  -15.5341  -30.2984   23.7638 H   0  0  0  0  0  0
  -15.8666  -28.0820   22.7049 H   0  0  0  0  0  0
  -24.5904  -30.7071   25.7795 H   0  0  0  0  0  0
  -24.8964  -32.2859   26.4955 H   0  0  0  0  0  0
  -25.8090  -30.8826   27.0211 H   0  0  0  0  0  0
  -26.2820  -29.6784   24.1185 H   0  0  0  0  0  0
  -27.4042  -29.7248   25.4584 H   0  0  0  0  0  0
  -27.8677  -30.4299   23.9274 H   0  0  0  0  0  0
  -27.2716  -33.3603   26.2062 H   0  0  0  0  0  0
  -28.3874  -32.6837   25.0287 H   0  0  0  0  0  0
  -28.0746  -31.8408   26.5376 H   0  0  0  0  0  0
  -28.2607  -38.0103   24.7505 H   0  0  0  0  0  0
  -28.1077  -36.2637   24.6300 H   0  0  0  0  0  0
  -27.2307  -37.1469   25.8868 H   0  0  0  0  0  0
  -20.9309  -29.8772   21.6944 H   0  0  0  0  0  0
  -26.0191  -38.2868   24.1398 H   0  0  0  0  0  0
  -27.4594  -20.9893   23.2237 H   0  0  0  0  0  0
  -27.9177  -19.4854   24.0029 H   0  0  0  0  0  0
  -26.6121  -19.5034   22.8237 H   0  0  0  0  0  0
  -31.4977  -24.2840   20.8252 H   0  0  0  0  0  0
  -30.8373  -25.9098   20.7322 H   0  0  0  0  0  0
  -30.9523  -24.9262   19.2762 H   0  0  0  0  0  0
  -31.6505  -17.0150   21.0132 H   0  0  0  0  0  0
  -30.9299  -16.9638   19.4213 H   0  0  0  0  0  0
  -27.2837  -24.8269   20.2458 H   0  0  0  0  0  0
  -28.2807  -25.0464   18.8193 H   0  0  0  0  0  0
  -29.1423  -24.4039   21.6876 H   0  0  0  0  0  0
  -28.7161  -22.2938   22.0453 H   0  0  0  0  0  0
  -29.1014  -15.6098   21.0897 H   0  0  0  0  0  0
  1 25  1  0  0  0
  1 30  2  0  0  0
  1 82  1  0  0  0
  2  3  1  0  0  0
  2 25  1  0  0  0
  2 85  1  0  0  0
  2 86  1  0  0  0
  3  4  1  0  0  0
  3 87  1  0  0  0
  3 88  1  0  0  0
  4  5  1  0  0  0
  4 89  1  0  0  0
  4 90  1  0  0  0
  5  6  1  0  0  0
  5 26  1  0  0  0
  5 91  1  0  0  0
  6 25  1  0  0  0
  6 92  1  0  0  0
  6 93  1  0  0  0
  7  8  2  0  0  0
  7 26  1  0  0  0
  7 29  1  0  0  0
  8  9  1  0  0  0
  8 22  1  0  0  0
  9 10  1  0  0  0
  9 27  2  0  0  0
 10 11  2  0  0  0
 10 15  1  0  0  0
 11 12  1  0  0  0
 11 94  1  0  0  0
 12 13  2  0  0  0
 12 95  1  0  0  0
 13 14  1  0  0  0
 13 31  1  0  0  0
 14 15  2  0  0  0
 14 96  1  0  0  0
 15 97  1  0  0  0
 16 17  2  0  0  0
 16 21  1  0  0  0
 16 31  1  0  0  0
 17 18  1  0  0  0
 17 98  1  0  0  0
 18 19  2  0  0  0
 18 99  1  0  0  0
 19 20  1  0  0  0
 19 24  1  0  0  0
 20 21  2  0  0  0
 20100  1  0  0  0
 21 23  1  0  0  0
 22 28  1  0  0  0
 22 32  2  0  0  0
 26 27  1  0  0  0
 28101  1  0  0  0
 28102  1  0  0  0
 29103  1  0  0  0
 29104  1  0  0  0
 33 34  1  0  0  0
 33 66  1  0  0  0
 33 70  2  0  0  0
 34 36  1  0  0  0
 34 59  1  0  0  0
 34105  1  0  0  0
 35 44  2  0  0  0
 35 45  1  0  0  0
 35 68  1  0  0  0
 36 56  1  0  0  0
 36106  1  0  0  0
 37 39  1  0  0  0
 37 47  1  0  0  0
 37 66  1  0  0  0
 37107  1  0  0  0
 38 43  2  0  0  0
 38 46  1  0  0  0
 38 47  1  0  0  0
 39 64  1  0  0  0
 39 67  2  0  0  0
 40 52  1  0  0  0
 40 53  2  0  0  0
 40 58  1  0  0  0
 41108  1  0  0  0
 41109  1  0  0  0
 41110  1  0  0  0
 41 48  1  0  0  0
 42 43  1  0  0  0
 42 66  1  0  0  0
 42111  1  0  0  0
 42112  1  0  0  0
 43 44  1  0  0  0
 44113  1  0  0  0
 45 46  2  0  0  0
 45114  1  0  0  0
 46115  1  0  0  0
 47116  1  0  0  0
 47117  1  0  0  0
 48 56  1  0  0  0
 48 65  1  0  0  0
 48118  1  0  0  0
 49 50  1  0  0  0
 49 53  1  0  0  0
 49 64  1  0  0  0
 49119  1  0  0  0
 50 51  1  0  0  0
 50120  1  0  0  0
 50121  1  0  0  0
 51 52  1  0  0  0
 51122  1  0  0  0
 51123  1  0  0  0
 52124  1  0  0  0
 52125  1  0  0  0
 53 54  1  0  0  0
 54 55  2  0  0  0
 54126  1  0  0  0
 55 57  1  0  0  0
 55127  1  0  0  0
 56 69  2  0  0  0
 57 58  2  0  0  0
 57128  1  0  0  0
 58129  1  0  0  0
 59 60  1  0  0  0
 59 61  1  0  0  0
 59 62  1  0  0  0
 60130  1  0  0  0
 60131  1  0  0  0
 60132  1  0  0  0
 61133  1  0  0  0
 61134  1  0  0  0
 61135  1  0  0  0
 62136  1  0  0  0
 62137  1  0  0  0
 62138  1  0  0  0
 63 65  1  0  0  0
 63139  1  0  0  0
 63140  1  0  0  0
 63141  1  0  0  0
 64142  1  0  0  0
 65143  1  0  0  0
 68 78  1  0  0  0
 71 72  2  0  0  0
 71 75  1  0  0  0
 71 80  1  0  0  0
 72 81  1  0  0  0
 72 84  1  0  0  0
 73 77  1  0  0  0
 73 80  2  0  0  0
 73 84  1  0  0  0
 74 79  1  0  0  0
 74 81  1  0  0  0
 74 83  2  0  0  0
 75144  1  0  0  0
 75145  1  0  0  0
 75146  1  0  0  0
 76147  1  0  0  0
 76148  1  0  0  0
 76149  1  0  0  0
 76 79  1  0  0  0
 77 82  1  0  0  0
 77150  1  0  0  0
 77151  1  0  0  0
 78 79  1  0  0  0
 78152  1  0  0  0
 78153  1  0  0  0
 79154  1  0  0  0
 81155  1  0  0  0
 82156  1  0  0  0
M  ISO  4   1 100  68 101  78 101  82 100
M  END
> <chiral flag>
0

> <version>
0

> <s_m_source_file>
/data/baiqing/PycharmProjects/Reinvent-master-3.2/result/LINK_invent/BTK/process_docking_weight1_custom_product_contain_oxygen_bond_distance_aromatic_linkinvent_7_9_3/rearranged_h_0186.sdf

> <i_m_source_file_index>
6

> <r_mmod_Potential_Energy-OPLS-2005>
-206.718780517578

> <r_mmod_Stretch_Energy-OPLS-2005>
41.0414886474609

> <r_mmod_Bend_Energy-OPLS-2005>
115.063385009766

> <r_mmod_Torsional_Energy-OPLS-2005>
214.733810424805

> <r_mmod_Improper_Torsional_Energy-OPLS-2005>
6.16244983673096

> <r_mmod_Van_der_Waal_Energy-OPLS-2005>
139.156143188477

> <r_mmod_Electrostatic_Energy-OPLS-2005>
-513.735900878906

> <r_mmod_Solvation_Energy-OPLS-2005>
-232.699493408203

> <b_mmod_Minimization_Converged-OPLS-2005>
0

> <r_mmod_RMS_Derivative-OPLS-2005>
1.27154803276062

$$$$
7
                    3D
 Structure written by MMmdl.
162170  0  0  1  0            999 V2000
  -29.8062  -16.9195   20.2567 C   0  0  0  0  0  0
  -30.2667  -14.0594   19.5363 C   0  0  0  0  0  0
  -29.5807  -13.0941   18.4588 C   0  0  0  0  0  0
  -28.2878  -12.4522   18.9601 C   0  0  0  0  0  0
  -27.5768  -13.4901   19.8333 C   0  0  2  0  0  0
  -28.4782  -14.3144   20.8540 C   0  0  0  0  0  0
  -25.2116  -13.8595   20.5989 C   0  0  0  0  0  0
  -24.1683  -13.0499   20.9354 C   0  0  0  0  0  0
  -24.6641  -11.7097   20.8731 C   0  0  0  0  0  0
  -23.9353  -10.4350   21.0312 C   0  0  0  0  0  0
  -24.3797   -9.4251   21.9134 C   0  0  0  0  0  0
  -23.6400   -8.2317   22.0745 C   0  0  0  0  0  0
  -22.4375   -8.0354   21.3548 C   0  0  0  0  0  0
  -22.0068   -9.0340   20.4634 C   0  0  0  0  0  0
  -22.7473  -10.2183   20.3005 C   0  0  0  0  0  0
  -21.6894   -6.0786   22.5276 C   0  0  0  0  0  0
  -21.4042   -6.5670   23.8214 C   0  0  0  0  0  0
  -21.3667   -5.6811   24.9169 C   0  0  0  0  0  0
  -21.6041   -4.3072   24.7211 C   0  0  0  0  0  0
  -21.8818   -3.8176   23.4327 C   0  0  0  0  0  0
  -21.9203   -4.7005   22.3390 C   0  0  0  0  0  0
  -22.7637  -13.5071   21.1931 C   0  0  0  0  0  0
  -22.1666   -4.2187   21.0969 F   0  0  0  0  0  0
  -21.5620   -3.4546   25.7719 F   0  0  0  0  0  0
  -29.4318  -15.3231   20.1499 N   0  0  0  0  0  0
  -26.2875  -13.0339   20.3595 N   0  0  0  0  0  0
  -25.9686  -11.7191   20.5677 N   0  0  0  0  0  0
  -22.0347  -12.8008   22.0478 N   0  0  0  0  0  0
  -25.3343  -15.2363   20.4374 N   0  0  0  0  0  0
  -31.0571  -16.6529   20.1850 O   0  0  0  0  0  0
  -21.6701   -6.8961   21.4254 O   0  0  0  0  0  0
  -22.3249  -14.5340   20.6758 O   0  0  0  0  0  0
  -24.7692  -31.6865   23.0820 C   0  0  0  0  0  0
  -25.9824  -32.3927   23.7691 C   0  0  1  0  0  0
  -27.2948  -25.8179   20.2783 C   0  0  0  0  0  0
  -25.6016  -33.7808   24.1446 N   0  0  0  0  0  0
  -23.6383  -30.2454   21.4561 C   0  0  2  0  0  0
  -25.1167  -28.4032   20.1485 C   0  0  0  0  0  0
  -22.8150  -29.3700   22.4483 C   0  0  0  0  0  0
  -18.0396  -28.1455   22.8402 C   0  0  0  0  0  0
  -24.1508  -36.6927   23.2673 C   0  0  0  0  0  0
  -26.2430  -30.1202   21.4933 C   0  0  0  0  0  0
  -26.3075  -28.5847   20.8612 C   0  0  0  0  0  0
  -27.3312  -27.3516   20.8896 C   0  0  0  0  0  0
  -26.0864  -26.0946   19.4907 C   0  0  0  0  0  0
  -25.0976  -27.1834   19.4365 C   0  0  0  0  0  0
  -23.9449  -29.4556   20.1335 C   0  0  0  0  0  0
  -25.4185  -36.2582   24.0221 C   0  0  1  0  0  0
  -20.6070  -28.3845   23.0969 C   0  0  2  0  0  0
  -20.6810  -26.9419   22.5420 C   0  0  0  0  0  0
  -19.5809  -26.6331   21.5217 C   0  0  0  0  0  0
  -18.1987  -26.7967   22.1591 C   0  0  0  0  0  0
  -19.1683  -28.8996   23.2639 C   0  0  0  0  0  0
  -18.9574  -30.1555   23.8727 C   0  0  0  0  0  0
  -17.6553  -30.6615   24.0522 C   0  0  0  0  0  0
  -25.9209  -34.8990   23.4749 C   0  0  0  0  0  0
  -16.5437  -29.9081   23.6365 C   0  0  0  0  0  0
  -16.7370  -28.6507   23.0382 C   0  0  0  0  0  0
  -26.4734  -31.6357   25.0669 C   0  0  0  0  0  0
  -25.3580  -31.3906   26.1120 C   0  0  0  0  0  0
  -27.0811  -30.2614   24.7220 C   0  0  0  0  0  0
  -27.6007  -32.4445   25.7515 C   0  0  0  0  0  0
  -27.5543  -37.1607   24.8469 C   0  0  0  0  0  0
  -21.4724  -29.2896   22.3191 N   0  0  0  0  0  0
  -26.4237  -37.3440   23.9411 N   0  0  0  0  0  0
  -24.9189  -30.7393   22.0619 N   0  0  0  0  0  0
  -23.4158  -28.7464   23.3252 O   0  0  0  0  0  0
  -27.9704  -24.1032   20.2221 O   0  0  0  0  0  0
  -26.5985  -34.8743   22.4458 O   0  0  0  0  0  0
  -23.6526  -32.0357   23.5177 O   0  0  0  0  0  0
  -28.1471  -23.3518   22.2019 C   0  0  0  0  0  0
  -29.4790  -22.1559   19.5443 C   0  0  0  0  0  0
  -27.8402  -21.7801   21.3964 C   0  0  0  0  0  0
  -28.8061  -20.7597   20.3521 C   0  0  0  0  0  0
  -29.5140  -24.4309   21.5493 C   0  0  0  0  0  0
  -30.9533  -24.4533   23.2931 C   0  0  0  0  0  0
  -25.6673  -21.7897   22.8006 C   0  0  0  0  0  0
  -29.9624  -22.4431   24.5414 C   0  0  0  0  0  0
  -31.5267  -21.7744   21.2597 C   0  0  0  0  0  0
  -26.7257  -20.9717   22.0445 C   0  0  0  0  0  0
  -30.6772  -22.9237   23.2522 C   0  0  1  0  0  0
  -30.1031  -22.3257   21.8110 C   0  0  1  0  0  0
  -30.0575  -23.7050   20.0380 N   0  0  0  0  0  0
  -29.0416  -18.6249   20.3050 N   0  0  0  0  0  0
  -30.2861  -25.1841   22.4094 N   0  0  0  0  0  0
  -31.7550  -24.9422   24.0940 O   0  0  0  0  0  0
  -31.1324  -14.4820   19.0250 H   0  0  0  0  0  0
  -30.7219  -13.4671   20.3333 H   0  0  0  0  0  0
  -30.2822  -12.3236   18.1367 H   0  0  0  0  0  0
  -29.3538  -13.6856   17.5707 H   0  0  0  0  0  0
  -28.5321  -11.5772   19.5639 H   0  0  0  0  0  0
  -27.6619  -12.1120   18.1344 H   0  0  0  0  0  0
  -27.2932  -14.2389   19.0918 H   0  0  0  0  0  0
  -28.9788  -13.6589   21.5695 H   0  0  0  0  0  0
  -27.8290  -14.9267   21.4794 H   0  0  0  0  0  0
  -25.2924   -9.5708   22.4743 H   0  0  0  0  0  0
  -24.0070   -7.4725   22.7504 H   0  0  0  0  0  0
  -21.0983   -8.8906   19.8949 H   0  0  0  0  0  0
  -22.3932  -10.9724   19.6112 H   0  0  0  0  0  0
  -21.2048   -7.6177   23.9732 H   0  0  0  0  0  0
  -21.1481   -6.0532   25.9073 H   0  0  0  0  0  0
  -22.0583   -2.7637   23.2817 H   0  0  0  0  0  0
  -22.4051  -11.9721   22.4891 H   0  0  0  0  0  0
  -21.0924  -13.0931   22.2646 H   0  0  0  0  0  0
  -24.5427  -15.8631   20.5364 H   0  0  0  0  0  0
  -26.1729  -15.6983   20.1109 H   0  0  0  0  0  0
  -26.8029  -32.4261   23.0507 H   0  0  0  0  0  0
  -24.9913  -33.8696   24.9434 H   0  0  0  0  0  0
  -23.0184  -31.1019   21.1848 H   0  0  0  0  0  0
  -23.3804  -35.9218   23.3202 H   0  0  0  0  0  0
  -24.3551  -36.8774   22.2115 H   0  0  0  0  0  0
  -23.7242  -37.6024   23.6909 H   0  0  0  0  0  0
  -26.5396  -30.7811   20.6778 H   0  0  0  0  0  0
  -27.0640  -30.2112   22.1883 H   0  0  0  0  0  0
  -28.1904  -27.5366   21.5176 H   0  0  0  0  0  0
  -25.7949  -25.2495   18.8830 H   0  0  0  0  0  0
  -24.2380  -27.0068   18.8044 H   0  0  0  0  0  0
  -24.1821  -30.1741   19.3487 H   0  0  0  0  0  0
  -23.0368  -28.9556   19.7931 H   0  0  0  0  0  0
  -25.1434  -36.1221   25.0705 H   0  0  0  0  0  0
  -21.0116  -28.3541   24.1110 H   0  0  0  0  0  0
  -20.5570  -26.2495   23.3762 H   0  0  0  0  0  0
  -21.6664  -26.7203   22.1302 H   0  0  0  0  0  0
  -19.6952  -25.6204   21.1334 H   0  0  0  0  0  0
  -19.6789  -27.3064   20.6688 H   0  0  0  0  0  0
  -17.4264  -26.6705   21.3983 H   0  0  0  0  0  0
  -18.0348  -26.0144   22.9015 H   0  0  0  0  0  0
  -19.8053  -30.7402   24.2033 H   0  0  0  0  0  0
  -17.5105  -31.6280   24.5159 H   0  0  0  0  0  0
  -15.5433  -30.2933   23.7796 H   0  0  0  0  0  0
  -15.8764  -28.0771   22.7205 H   0  0  0  0  0  0
  -24.5870  -30.7150   25.7395 H   0  0  0  0  0  0
  -24.8670  -32.3190   26.4048 H   0  0  0  0  0  0
  -25.7575  -30.9396   27.0213 H   0  0  0  0  0  0
  -26.3672  -29.5911   24.2428 H   0  0  0  0  0  0
  -27.4079  -29.7472   25.6268 H   0  0  0  0  0  0
  -27.9709  -30.3548   24.0996 H   0  0  0  0  0  0
  -27.2436  -33.3934   26.1535 H   0  0  0  0  0  0
  -28.4082  -32.6700   25.0536 H   0  0  0  0  0  0
  -28.0384  -31.8966   26.5870 H   0  0  0  0  0  0
  -28.2463  -37.9984   24.7522 H   0  0  0  0  0  0
  -28.1129  -36.2492   24.6290 H   0  0  0  0  0  0
  -27.2256  -37.1217   25.8866 H   0  0  0  0  0  0
  -21.0259  -29.8388   21.5970 H   0  0  0  0  0  0
  -25.9987  -38.2449   24.1426 H   0  0  0  0  0  0
  -27.6007  -23.6645   23.0770 H   0  0  0  0  0  0
  -30.0166  -21.8886   18.6465 H   0  0  0  0  0  0
  -24.8525  -21.1451   23.1305 H   0  0  0  0  0  0
  -25.2399  -22.5699   22.1685 H   0  0  0  0  0  0
  -26.0765  -22.2548   23.6965 H   0  0  0  0  0  0
  -30.3927  -22.9129   25.4272 H   0  0  0  0  0  0
  -30.0788  -21.3668   24.6701 H   0  0  0  0  0  0
  -28.8965  -22.6564   24.5587 H   0  0  0  0  0  0
  -32.0186  -21.1241   21.9849 H   0  0  0  0  0  0
  -32.2217  -22.5843   21.0345 H   0  0  0  0  0  0
  -31.4930  -21.1288   20.3843 H   0  0  0  0  0  0
  -27.1761  -20.2440   22.7202 H   0  0  0  0  0  0
  -26.2339  -20.3965   21.2592 H   0  0  0  0  0  0
  -31.6810  -22.5445   23.4418 H   0  0  0  0  0  0
  -29.8215  -21.3962   22.3278 H   0  0  0  0  0  0
  -28.0893  -18.3019   20.4183 H   0  0  0  0  0  0
  -30.4725  -26.1610   22.2403 H   0  0  0  0  0  0
  1 25  1  0  0  0
  1 30  2  0  0  0
  1 84  1  0  0  0
  2  3  1  0  0  0
  2 25  1  0  0  0
  2 87  1  0  0  0
  2 88  1  0  0  0
  3  4  1  0  0  0
  3 89  1  0  0  0
  3 90  1  0  0  0
  4  5  1  0  0  0
  4 91  1  0  0  0
  4 92  1  0  0  0
  5  6  1  0  0  0
  5 26  1  0  0  0
  5 93  1  0  0  0
  6 25  1  0  0  0
  6 94  1  0  0  0
  6 95  1  0  0  0
  7  8  2  0  0  0
  7 26  1  0  0  0
  7 29  1  0  0  0
  8  9  1  0  0  0
  8 22  1  0  0  0
  9 10  1  0  0  0
  9 27  2  0  0  0
 10 11  2  0  0  0
 10 15  1  0  0  0
 11 12  1  0  0  0
 11 96  1  0  0  0
 12 13  2  0  0  0
 12 97  1  0  0  0
 13 14  1  0  0  0
 13 31  1  0  0  0
 14 15  2  0  0  0
 14 98  1  0  0  0
 15 99  1  0  0  0
 16 17  2  0  0  0
 16 21  1  0  0  0
 16 31  1  0  0  0
 17 18  1  0  0  0
 17100  1  0  0  0
 18 19  2  0  0  0
 18101  1  0  0  0
 19 20  1  0  0  0
 19 24  1  0  0  0
 20 21  2  0  0  0
 20102  1  0  0  0
 21 23  1  0  0  0
 22 28  1  0  0  0
 22 32  2  0  0  0
 26 27  1  0  0  0
 28103  1  0  0  0
 28104  1  0  0  0
 29105  1  0  0  0
 29106  1  0  0  0
 33 34  1  0  0  0
 33 66  1  0  0  0
 33 70  2  0  0  0
 34 36  1  0  0  0
 34 59  1  0  0  0
 34107  1  0  0  0
 35 44  2  0  0  0
 35 45  1  0  0  0
 35 68  1  0  0  0
 36 56  1  0  0  0
 36108  1  0  0  0
 37 39  1  0  0  0
 37 47  1  0  0  0
 37 66  1  0  0  0
 37109  1  0  0  0
 38 43  2  0  0  0
 38 46  1  0  0  0
 38 47  1  0  0  0
 39 64  1  0  0  0
 39 67  2  0  0  0
 40 52  1  0  0  0
 40 53  2  0  0  0
 40 58  1  0  0  0
 41110  1  0  0  0
 41111  1  0  0  0
 41112  1  0  0  0
 41 48  1  0  0  0
 42 43  1  0  0  0
 42 66  1  0  0  0
 42113  1  0  0  0
 42114  1  0  0  0
 43 44  1  0  0  0
 44115  1  0  0  0
 45 46  2  0  0  0
 45116  1  0  0  0
 46117  1  0  0  0
 47118  1  0  0  0
 47119  1  0  0  0
 48 56  1  0  0  0
 48 65  1  0  0  0
 48120  1  0  0  0
 49 50  1  0  0  0
 49 53  1  0  0  0
 49 64  1  0  0  0
 49121  1  0  0  0
 50 51  1  0  0  0
 50122  1  0  0  0
 50123  1  0  0  0
 51 52  1  0  0  0
 51124  1  0  0  0
 51125  1  0  0  0
 52126  1  0  0  0
 52127  1  0  0  0
 53 54  1  0  0  0
 54 55  2  0  0  0
 54128  1  0  0  0
 55 57  1  0  0  0
 55129  1  0  0  0
 56 69  2  0  0  0
 57 58  2  0  0  0
 57130  1  0  0  0
 58131  1  0  0  0
 59 60  1  0  0  0
 59 61  1  0  0  0
 59 62  1  0  0  0
 60132  1  0  0  0
 60133  1  0  0  0
 60134  1  0  0  0
 61135  1  0  0  0
 61136  1  0  0  0
 61137  1  0  0  0
 62138  1  0  0  0
 62139  1  0  0  0
 62140  1  0  0  0
 63 65  1  0  0  0
 63141  1  0  0  0
 63142  1  0  0  0
 63143  1  0  0  0
 64144  1  0  0  0
 65145  1  0  0  0
 68 82  1  0  0  0
 71 73  2  0  0  0
 71 75  1  0  0  0
 71146  1  0  0  0
 72 74  2  0  0  0
 72 83  1  0  0  0
 72147  1  0  0  0
 73 74  1  0  0  0
 73 80  1  0  0  0
 74 84  1  0  0  0
 75 83  2  0  0  0
 75 85  1  0  0  0
 76 81  1  0  0  0
 76 85  1  0  0  0
 76 86  2  0  0  0
 77 80  1  0  0  0
 77148  1  0  0  0
 77149  1  0  0  0
 77150  1  0  0  0
 78151  1  0  0  0
 78152  1  0  0  0
 78153  1  0  0  0
 78 81  1  0  0  0
 79154  1  0  0  0
 79155  1  0  0  0
 79156  1  0  0  0
 79 82  1  0  0  0
 80157  1  0  0  0
 80158  1  0  0  0
 81 82  1  0  0  0
 81159  1  0  0  0
 82160  1  0  0  0
 84161  1  0  0  0
 85162  1  0  0  0
M  ISO  4   1 100  68 101  82 101  84 100
M  END
> <chiral flag>
0

> <version>
0

> <s_m_source_file>
/data/baiqing/PycharmProjects/Reinvent-master-3.2/result/LINK_invent/BTK/process_docking_weight1_custom_product_contain_oxygen_bond_distance_aromatic_linkinvent_7_9_3/rearranged_h_0186.sdf

> <i_m_source_file_index>
7

> <r_mmod_Potential_Energy-OPLS-2005>
15425.3583984375

> <r_mmod_Stretch_Energy-OPLS-2005>
8627.4150390625

> <r_mmod_Bend_Energy-OPLS-2005>
1189.34680175781

> <r_mmod_Torsional_Energy-OPLS-2005>
402.755828857422

> <r_mmod_Improper_Torsional_Energy-OPLS-2005>
18.9084434509277

> <r_mmod_Van_der_Waal_Energy-OPLS-2005>
2067.74365234375

> <r_mmod_Electrostatic_Energy-OPLS-2005>
-538.488403320312

> <r_mmod_Solvation_Energy-OPLS-2005>
-256.751739501953

> <b_mmod_Minimization_Converged-OPLS-2005>
0

> <r_mmod_RMS_Derivative-OPLS-2005>
1.86395573616028

$$$$
8
                    3D
 Structure written by MMmdl.
159166  0  0  1  0            999 V2000
  -30.5450  -14.9865   20.4597 C   0  0  0  0  0  0
  -30.4506  -12.6404   19.4584 C   0  0  0  0  0  0
  -29.5101  -12.5545   18.2329 C   0  0  0  0  0  0
  -28.0425  -12.3267   18.6522 C   0  0  0  0  0  0
  -27.6305  -13.2244   19.8470 C   0  0  2  0  0  0
  -28.7014  -13.1623   20.9621 C   0  0  0  0  0  0
  -25.2406  -13.8114   20.5718 C   0  0  0  0  0  0
  -24.1718  -13.0373   20.9234 C   0  0  0  0  0  0
  -24.6338  -11.6868   20.8743 C   0  0  0  0  0  0
  -23.8996  -10.4256   21.0349 C   0  0  0  0  0  0
  -24.3565   -9.4186   21.9128 C   0  0  0  0  0  0
  -23.6273   -8.2205   22.0716 C   0  0  0  0  0  0
  -22.4254   -8.0233   21.3517 C   0  0  0  0  0  0
  -21.9864   -9.0180   20.4599 C   0  0  0  0  0  0
  -22.7163  -10.2072   20.2996 C   0  0  0  0  0  0
  -21.6862   -6.0689   22.5275 C   0  0  0  0  0  0
  -21.4001   -6.5588   23.8208 C   0  0  0  0  0  0
  -21.3654   -5.6754   24.9168 C   0  0  0  0  0  0
  -21.6056   -4.3015   24.7219 C   0  0  0  0  0  0
  -21.8805   -3.8094   23.4335 C   0  0  0  0  0  0
  -21.9171   -4.6918   22.3387 C   0  0  0  0  0  0
  -22.7727  -13.5174   21.1881 C   0  0  0  0  0  0
  -22.1650   -4.2109   21.0975 F   0  0  0  0  0  0
  -21.5653   -3.4494   25.7725 F   0  0  0  0  0  0
  -29.9352  -13.7152   20.3663 N   0  0  0  0  0  0
  -26.2871  -12.9322   20.3303 N   0  0  0  0  0  0
  -25.9273  -11.6480   20.5740 N   0  0  0  0  0  0
  -22.0354  -12.8187   22.0438 N   0  0  0  0  0  0
  -25.3932  -15.1840   20.4138 N   0  0  0  0  0  0
  -31.7543  -14.9852   20.2054 O   0  0  0  0  0  0
  -21.6638   -6.8823   21.4230 O   0  0  0  0  0  0
  -22.3421  -14.5485   20.6742 O   0  0  0  0  0  0
  -24.6442  -31.8414   23.1845 C   0  0  0  0  0  0
  -25.9206  -32.4666   23.8252 C   0  0  1  0  0  0
  -27.2317  -27.1280   20.1316 C   0  0  0  0  0  0
  -25.5960  -33.8477   24.2177 N   0  0  0  0  0  0
  -23.4500  -30.4582   21.5319 C   0  0  2  0  0  0
  -24.9021  -28.8804   20.1091 C   0  0  0  0  0  0
  -22.7571  -29.4524   22.4839 C   0  0  0  0  0  0
  -18.0322  -28.1369   22.8486 C   0  0  0  0  0  0
  -24.1508  -36.7241   23.2638 C   0  0  0  0  0  0
  -26.0064  -30.7088   21.3864 C   0  0  0  0  0  0
  -26.0804  -29.3187   20.7271 C   0  0  0  0  0  0
  -27.2452  -28.4581   20.7204 C   0  0  0  0  0  0
  -26.0241  -26.7916   19.4812 C   0  0  0  0  0  0
  -24.8879  -27.6299   19.4729 C   0  0  0  0  0  0
  -23.6776  -29.7817   20.1533 C   0  0  0  0  0  0
  -25.4134  -36.3015   24.0311 C   0  0  1  0  0  0
  -20.5930  -28.3706   23.1229 C   0  0  2  0  0  0
  -20.6800  -26.9404   22.5403 C   0  0  0  0  0  0
  -19.5774  -26.6356   21.5220 C   0  0  0  0  0  0
  -18.1957  -26.7919   22.1623 C   0  0  0  0  0  0
  -19.1576  -28.8859   23.2859 C   0  0  0  0  0  0
  -18.9481  -30.1457   23.8873 C   0  0  0  0  0  0
  -17.6476  -30.6575   24.0547 C   0  0  0  0  0  0
  -25.9080  -34.9390   23.5049 C   0  0  0  0  0  0
  -16.5371  -29.9055   23.6330 C   0  0  0  0  0  0
  -16.7306  -28.6469   23.0362 C   0  0  0  0  0  0
  -26.4549  -31.6518   25.0684 C   0  0  0  0  0  0
  -25.3742  -31.3671   26.1375 C   0  0  0  0  0  0
  -27.0404  -30.2920   24.6214 C   0  0  0  0  0  0
  -27.6064  -32.4291   25.7478 C   0  0  0  0  0  0
  -27.5586  -37.1772   24.8456 C   0  0  0  0  0  0
  -21.4256  -29.3033   22.3583 N   0  0  0  0  0  0
  -26.4286  -37.3738   23.9410 N   0  0  0  0  0  0
  -24.7198  -31.0246   22.0895 N   0  0  0  0  0  0
  -23.4203  -28.8091   23.3019 O   0  0  0  0  0  0
  -28.2972  -26.1492   20.1873 O   0  0  0  0  0  0
  -26.5653  -34.8895   22.4622 O   0  0  0  0  0  0
  -23.5561  -32.1304   23.7049 O   0  0  0  0  0  0
  -28.7453  -21.7343   19.9409 C   0  0  0  0  0  0
  -30.4532  -23.6009   19.5037 C   0  0  0  0  0  0
  -29.1755  -18.8118   18.4467 C   0  0  0  0  0  0
  -31.7117  -17.9749   20.0485 C   0  0  0  0  0  0
  -28.4358  -16.2981   21.0380 C   0  0  0  0  0  0
  -28.0741  -24.6201   19.9391 C   0  0  0  0  0  0
  -29.1298  -23.3246   20.2383 C   0  0  1  0  0  0
  -29.3034  -19.0353   19.9660 C   0  0  1  0  0  0
  -30.2790  -17.7869   20.5757 C   0  0  1  0  0  0
  -29.5229  -20.5793   20.2607 N   0  0  0  0  0  0
  -29.8292  -16.2460   20.5924 N   0  0  0  0  0  0
  -27.6757  -21.5575   19.3568 O   0  0  0  0  0  0
  -31.4588  -12.8465   19.1044 H   0  0  0  0  0  0
  -30.5200  -11.6800   19.9736 H   0  0  0  0  0  0
  -29.8393  -11.7635   17.5559 H   0  0  0  0  0  0
  -29.5826  -13.4865   17.6714 H   0  0  0  0  0  0
  -27.9281  -11.2787   18.9316 H   0  0  0  0  0  0
  -27.3827  -12.4882   17.7988 H   0  0  0  0  0  0
  -27.5994  -14.2310   19.4399 H   0  0  0  0  0  0
  -28.8474  -12.1242   21.2667 H   0  0  0  0  0  0
  -28.4147  -13.6196   21.9009 H   0  0  0  0  0  0
  -25.2700   -9.5700   22.4728 H   0  0  0  0  0  0
  -23.9996   -7.4595   22.7441 H   0  0  0  0  0  0
  -21.0783   -8.8608   19.8942 H   0  0  0  0  0  0
  -22.3543  -10.9575   19.6102 H   0  0  0  0  0  0
  -21.2019   -7.6106   23.9703 H   0  0  0  0  0  0
  -21.1513   -6.0489   25.9077 H   0  0  0  0  0  0
  -22.0619   -2.7565   23.2815 H   0  0  0  0  0  0
  -22.3980  -11.9916   22.4934 H   0  0  0  0  0  0
  -21.0950  -13.1167   22.2595 H   0  0  0  0  0  0
  -24.6243  -15.8296   20.5613 H   0  0  0  0  0  0
  -26.2460  -15.6380   20.1199 H   0  0  0  0  0  0
  -26.7247  -32.5300   23.0964 H   0  0  0  0  0  0
  -25.0153  -33.9613   25.0352 H   0  0  0  0  0  0
  -22.7556  -31.2858   21.3731 H   0  0  0  0  0  0
  -23.3786  -35.9556   23.3252 H   0  0  0  0  0  0
  -24.3611  -36.8919   22.2063 H   0  0  0  0  0  0
  -23.7245  -37.6410   23.6717 H   0  0  0  0  0  0
  -26.1611  -31.4631   20.6137 H   0  0  0  0  0  0
  -26.8747  -30.7618   22.0296 H   0  0  0  0  0  0
  -28.1435  -28.7907   21.2214 H   0  0  0  0  0  0
  -25.9321  -25.8382   18.9840 H   0  0  0  0  0  0
  -23.9894  -27.2898   18.9755 H   0  0  0  0  0  0
  -23.8130  -30.5527   19.3942 H   0  0  0  0  0  0
  -22.7945  -29.2205   19.8418 H   0  0  0  0  0  0
  -25.1328  -36.1832   25.0801 H   0  0  0  0  0  0
  -21.0053  -28.3303   24.1344 H   0  0  0  0  0  0
  -20.5706  -26.2328   23.3628 H   0  0  0  0  0  0
  -21.6659  -26.7408   22.1205 H   0  0  0  0  0  0
  -19.6933  -25.6264   21.1266 H   0  0  0  0  0  0
  -19.6714  -27.3143   20.6733 H   0  0  0  0  0  0
  -17.4246  -26.6692   21.4001 H   0  0  0  0  0  0
  -18.0331  -26.0040   22.8989 H   0  0  0  0  0  0
  -19.7957  -30.7276   24.2220 H   0  0  0  0  0  0
  -17.5030  -31.6249   24.5136 H   0  0  0  0  0  0
  -15.5372  -30.2936   23.7658 H   0  0  0  0  0  0
  -15.8720  -28.0768   22.7084 H   0  0  0  0  0  0
  -24.5948  -30.7000   25.7673 H   0  0  0  0  0  0
  -24.8917  -32.2837   26.4769 H   0  0  0  0  0  0
  -25.8056  -30.8862   27.0159 H   0  0  0  0  0  0
  -26.2978  -29.6636   24.1275 H   0  0  0  0  0  0
  -27.4092  -29.7221   25.4746 H   0  0  0  0  0  0
  -27.8876  -30.4160   23.9462 H   0  0  0  0  0  0
  -27.2633  -33.3604   26.1984 H   0  0  0  0  0  0
  -28.3916  -32.6806   25.0342 H   0  0  0  0  0  0
  -28.0674  -31.8456   26.5451 H   0  0  0  0  0  0
  -28.2546  -38.0122   24.7550 H   0  0  0  0  0  0
  -28.1142  -36.2648   24.6229 H   0  0  0  0  0  0
  -27.2315  -37.1330   25.8858 H   0  0  0  0  0  0
  -20.9470  -29.8735   21.6747 H   0  0  0  0  0  0
  -26.0145  -38.2795   24.1439 H   0  0  0  0  0  0
  -31.2050  -22.8421   19.7216 H   0  0  0  0  0  0
  -30.8703  -24.5631   19.8014 H   0  0  0  0  0  0
  -30.3068  -23.6124   18.4225 H   0  0  0  0  0  0
  -29.0528  -17.7530   18.2082 H   0  0  0  0  0  0
  -30.0594  -19.1670   17.9143 H   0  0  0  0  0  0
  -28.3095  -19.3266   18.0326 H   0  0  0  0  0  0
  -32.0049  -19.0259   20.0792 H   0  0  0  0  0  0
  -31.7987  -17.6374   19.0157 H   0  0  0  0  0  0
  -32.4418  -17.4304   20.6489 H   0  0  0  0  0  0
  -28.2066  -17.1923   21.6150 H   0  0  0  0  0  0
  -28.1505  -15.5407   21.7436 H   0  0  0  0  0  0
  -27.7751  -16.2901   20.1752 H   0  0  0  0  0  0
  -27.1482  -24.3656   20.4578 H   0  0  0  0  0  0
  -27.8177  -24.5424   18.8827 H   0  0  0  0  0  0
  -29.3490  -23.3550   21.3058 H   0  0  0  0  0  0
  -28.3018  -18.8810   20.3602 H   0  0  0  0  0  0
  -30.3591  -18.0176   21.6401 H   0  0  0  0  0  0
  -30.3727  -20.7789   20.7747 H   0  0  0  0  0  0
  1 25  1  0  0  0
  1 30  2  0  0  0
  1 81  1  0  0  0
  2  3  1  0  0  0
  2 25  1  0  0  0
  2 83  1  0  0  0
  2 84  1  0  0  0
  3  4  1  0  0  0
  3 85  1  0  0  0
  3 86  1  0  0  0
  4  5  1  0  0  0
  4 87  1  0  0  0
  4 88  1  0  0  0
  5  6  1  0  0  0
  5 26  1  0  0  0
  5 89  1  0  0  0
  6 25  1  0  0  0
  6 90  1  0  0  0
  6 91  1  0  0  0
  7  8  2  0  0  0
  7 26  1  0  0  0
  7 29  1  0  0  0
  8  9  1  0  0  0
  8 22  1  0  0  0
  9 10  1  0  0  0
  9 27  2  0  0  0
 10 11  2  0  0  0
 10 15  1  0  0  0
 11 12  1  0  0  0
 11 92  1  0  0  0
 12 13  2  0  0  0
 12 93  1  0  0  0
 13 14  1  0  0  0
 13 31  1  0  0  0
 14 15  2  0  0  0
 14 94  1  0  0  0
 15 95  1  0  0  0
 16 17  2  0  0  0
 16 21  1  0  0  0
 16 31  1  0  0  0
 17 18  1  0  0  0
 17 96  1  0  0  0
 18 19  2  0  0  0
 18 97  1  0  0  0
 19 20  1  0  0  0
 19 24  1  0  0  0
 20 21  2  0  0  0
 20 98  1  0  0  0
 21 23  1  0  0  0
 22 28  1  0  0  0
 22 32  2  0  0  0
 26 27  1  0  0  0
 28 99  1  0  0  0
 28100  1  0  0  0
 29101  1  0  0  0
 29102  1  0  0  0
 33 34  1  0  0  0
 33 66  1  0  0  0
 33 70  2  0  0  0
 34 36  1  0  0  0
 34 59  1  0  0  0
 34103  1  0  0  0
 35 44  2  0  0  0
 35 45  1  0  0  0
 35 68  1  0  0  0
 36 56  1  0  0  0
 36104  1  0  0  0
 37 39  1  0  0  0
 37 47  1  0  0  0
 37 66  1  0  0  0
 37105  1  0  0  0
 38 43  2  0  0  0
 38 46  1  0  0  0
 38 47  1  0  0  0
 39 64  1  0  0  0
 39 67  2  0  0  0
 40 52  1  0  0  0
 40 53  2  0  0  0
 40 58  1  0  0  0
 41106  1  0  0  0
 41107  1  0  0  0
 41108  1  0  0  0
 41 48  1  0  0  0
 42 43  1  0  0  0
 42 66  1  0  0  0
 42109  1  0  0  0
 42110  1  0  0  0
 43 44  1  0  0  0
 44111  1  0  0  0
 45 46  2  0  0  0
 45112  1  0  0  0
 46113  1  0  0  0
 47114  1  0  0  0
 47115  1  0  0  0
 48 56  1  0  0  0
 48 65  1  0  0  0
 48116  1  0  0  0
 49 50  1  0  0  0
 49 53  1  0  0  0
 49 64  1  0  0  0
 49117  1  0  0  0
 50 51  1  0  0  0
 50118  1  0  0  0
 50119  1  0  0  0
 51 52  1  0  0  0
 51120  1  0  0  0
 51121  1  0  0  0
 52122  1  0  0  0
 52123  1  0  0  0
 53 54  1  0  0  0
 54 55  2  0  0  0
 54124  1  0  0  0
 55 57  1  0  0  0
 55125  1  0  0  0
 56 69  2  0  0  0
 57 58  2  0  0  0
 57126  1  0  0  0
 58127  1  0  0  0
 59 60  1  0  0  0
 59 61  1  0  0  0
 59 62  1  0  0  0
 60128  1  0  0  0
 60129  1  0  0  0
 60130  1  0  0  0
 61131  1  0  0  0
 61132  1  0  0  0
 61133  1  0  0  0
 62134  1  0  0  0
 62135  1  0  0  0
 62136  1  0  0  0
 63 65  1  0  0  0
 63137  1  0  0  0
 63138  1  0  0  0
 63139  1  0  0  0
 64140  1  0  0  0
 65141  1  0  0  0
 68 76  1  0  0  0
 71 77  1  0  0  0
 71 80  1  0  0  0
 71 82  2  0  0  0
 72142  1  0  0  0
 72143  1  0  0  0
 72144  1  0  0  0
 72 77  1  0  0  0
 73145  1  0  0  0
 73146  1  0  0  0
 73147  1  0  0  0
 73 78  1  0  0  0
 74148  1  0  0  0
 74149  1  0  0  0
 74150  1  0  0  0
 74 79  1  0  0  0
 75 81  1  0  0  0
 75151  1  0  0  0
 75152  1  0  0  0
 75153  1  0  0  0
 76 77  1  0  0  0
 76154  1  0  0  0
 76155  1  0  0  0
 77156  1  0  0  0
 78 79  1  0  0  0
 78 80  1  0  0  0
 78157  1  0  0  0
 79 81  1  0  0  0
 79158  1  0  0  0
 80159  1  0  0  0
M  ISO  4   1 100  68 101  76 101  81 100
M  END
> <chiral flag>
0

> <version>
0

> <s_m_source_file>
/data/baiqing/PycharmProjects/Reinvent-master-3.2/result/LINK_invent/BTK/process_docking_weight1_custom_product_contain_oxygen_bond_distance_aromatic_linkinvent_7_9_3/rearranged_h_0186.sdf

> <i_m_source_file_index>
8

> <r_mmod_Potential_Energy-OPLS-2005>
633.083984375

> <r_mmod_Stretch_Energy-OPLS-2005>
303.485748291016

> <r_mmod_Bend_Energy-OPLS-2005>
295.243011474609

> <r_mmod_Torsional_Energy-OPLS-2005>
275.905548095703

> <r_mmod_Improper_Torsional_Energy-OPLS-2005>
5.28903150558472

> <r_mmod_Van_der_Waal_Energy-OPLS-2005>
134.473434448242

> <r_mmod_Electrostatic_Energy-OPLS-2005>
-357.578643798828

> <r_mmod_Solvation_Energy-OPLS-2005>
-219.454971313477

> <b_mmod_Minimization_Converged-OPLS-2005>
0

> <r_mmod_RMS_Derivative-OPLS-2005>
4.13713026046753

$$$$
9
                    3D
 Structure written by MMmdl.
155163  0  0  1  0            999 V2000
  -30.6285  -14.5637   20.5497 C   0  0  0  0  0  0
  -30.4288  -12.3611   19.4035 C   0  0  0  0  0  0
  -29.4889  -12.4333   18.1789 C   0  0  0  0  0  0
  -28.0222  -12.2581   18.6189 C   0  0  0  0  0  0
  -27.6358  -13.1732   19.8154 C   0  0  2  0  0  0
  -28.6727  -13.0382   20.9503 C   0  0  0  0  0  0
  -25.2559  -13.8003   20.5581 C   0  0  0  0  0  0
  -24.1805  -13.0335   20.9145 C   0  0  0  0  0  0
  -24.6316  -11.6795   20.8676 C   0  0  0  0  0  0
  -23.8981  -10.4231   21.0422 C   0  0  0  0  0  0
  -24.3561   -9.4178   21.9222 C   0  0  0  0  0  0
  -23.6305   -8.2183   22.0760 C   0  0  0  0  0  0
  -22.4282   -8.0201   21.3539 C   0  0  0  0  0  0
  -21.9898   -9.0139   20.4625 C   0  0  0  0  0  0
  -22.7179  -10.2063   20.3060 C   0  0  0  0  0  0
  -21.6809   -6.0725   22.5273 C   0  0  0  0  0  0
  -21.3979   -6.5655   23.8213 C   0  0  0  0  0  0
  -21.3658   -5.6820   24.9168 C   0  0  0  0  0  0
  -21.6106   -4.3084   24.7230 C   0  0  0  0  0  0
  -21.8792   -3.8160   23.4333 C   0  0  0  0  0  0
  -21.9203   -4.6977   22.3382 C   0  0  0  0  0  0
  -22.7867  -13.5211   21.1876 C   0  0  0  0  0  0
  -22.1665   -4.2134   21.0958 F   0  0  0  0  0  0
  -21.5698   -3.4589   25.7765 F   0  0  0  0  0  0
  -29.9793  -13.3720   20.3929 N   0  0  0  0  0  0
  -26.2840  -12.9131   20.2971 N   0  0  0  0  0  0
  -25.9225  -11.6322   20.5586 N   0  0  0  0  0  0
  -22.0485  -12.8162   22.0370 N   0  0  0  0  0  0
  -25.4410  -15.1739   20.4019 N   0  0  0  0  0  0
  -31.8098  -14.6657   20.1881 O   0  0  0  0  0  0
  -21.6630   -6.8822   21.4229 O   0  0  0  0  0  0
  -22.3605  -14.5583   20.6811 O   0  0  0  0  0  0
  -24.6260  -31.8633   23.1995 C   0  0  0  0  0  0
  -25.9116  -32.4798   23.8308 C   0  0  1  0  0  0
  -27.2060  -27.3392   20.0681 C   0  0  0  0  0  0
  -25.5978  -33.8610   24.2278 N   0  0  0  0  0  0
  -23.4146  -30.4824   21.5518 C   0  0  2  0  0  0
  -24.8505  -28.9385   20.1207 C   0  0  0  0  0  0
  -22.7471  -29.4570   22.5035 C   0  0  0  0  0  0
  -18.0277  -28.1413   22.8470 C   0  0  0  0  0  0
  -24.1488  -36.7267   23.2642 C   0  0  0  0  0  0
  -25.9540  -30.8053   21.3524 C   0  0  0  0  0  0
  -26.0288  -29.4294   20.6975 C   0  0  0  0  0  0
  -27.2150  -28.6401   20.6605 C   0  0  0  0  0  0
  -25.9976  -26.8889   19.4996 C   0  0  0  0  0  0
  -24.8267  -27.6641   19.5350 C   0  0  0  0  0  0
  -23.6195  -29.8133   20.1695 C   0  0  0  0  0  0
  -25.4117  -36.3079   24.0321 C   0  0  1  0  0  0
  -20.5858  -28.3661   23.1334 C   0  0  2  0  0  0
  -20.6796  -26.9423   22.5397 C   0  0  0  0  0  0
  -19.5766  -26.6407   21.5217 C   0  0  0  0  0  0
  -18.1927  -26.7958   22.1618 C   0  0  0  0  0  0
  -19.1531  -28.8872   23.2876 C   0  0  0  0  0  0
  -18.9438  -30.1478   23.8873 C   0  0  0  0  0  0
  -17.6429  -30.6599   24.0558 C   0  0  0  0  0  0
  -25.9054  -34.9455   23.5087 C   0  0  0  0  0  0
  -16.5323  -29.9072   23.6358 C   0  0  0  0  0  0
  -16.7243  -28.6512   23.0347 C   0  0  0  0  0  0
  -26.4526  -31.6581   25.0646 C   0  0  0  0  0  0
  -25.3771  -31.3641   26.1363 C   0  0  0  0  0  0
  -27.0399  -30.3047   24.6036 C   0  0  0  0  0  0
  -27.6074  -32.4336   25.7433 C   0  0  0  0  0  0
  -27.5570  -37.1778   24.8484 C   0  0  0  0  0  0
  -21.4206  -29.3030   22.3751 N   0  0  0  0  0  0
  -26.4290  -37.3752   23.9407 N   0  0  0  0  0  0
  -24.6876  -31.0643   22.0930 N   0  0  0  0  0  0
  -23.4235  -28.8169   23.3115 O   0  0  0  0  0  0
  -28.3421  -26.5296   20.0191 O   0  0  0  0  0  0
  -26.5568  -34.8925   22.4616 O   0  0  0  0  0  0
  -23.5439  -32.1415   23.7328 O   0  0  0  0  0  0
  -29.4049  -18.1335   20.8491 C   0  0  0  0  0  0
  -28.1765  -18.5340   21.3463 C   0  0  0  0  0  0
  -28.7686  -20.5146   20.3360 C   0  0  0  0  0  0
  -30.3044  -16.9337   21.0222 C   0  0  0  0  0  0
  -29.4076  -22.7998   19.4748 C   0  0  0  0  0  0
  -27.2570  -17.8011   22.2680 C   0  0  0  0  0  0
  -28.0065  -23.9478   17.6999 C   0  0  0  0  0  0
  -28.1894  -25.0647   20.0992 C   0  0  0  0  0  0
  -28.8548  -24.1778   18.9783 C   0  0  1  0  0  0
  -27.8239  -19.8616   21.0170 N   0  0  0  0  0  0
  -28.5438  -21.8824   19.9610 N   0  0  0  0  0  0
  -29.8615  -15.6492   20.8880 N   0  0  0  0  0  0
  -31.4899  -17.1925   21.2571 O   0  0  0  0  0  0
  -30.6176  -22.5794   19.3768 O   0  0  0  0  0  0
  -30.1612  -19.4829   19.9853 S   0  0  0  0  0  0
  -31.4570  -12.5070   19.0730 H   0  0  0  0  0  0
  -30.4091  -11.3616   19.8367 H   0  0  0  0  0  0
  -29.7536  -11.6488   17.4619 H   0  0  0  0  0  0
  -29.6176  -13.3764   17.6470 H   0  0  0  0  0  0
  -27.9121  -11.2124   18.9122 H   0  0  0  0  0  0
  -27.3464  -12.3977   17.7728 H   0  0  0  0  0  0
  -27.6529  -14.1904   19.4281 H   0  0  0  0  0  0
  -28.6910  -12.0236   21.3551 H   0  0  0  0  0  0
  -28.4128  -13.6886   21.7846 H   0  0  0  0  0  0
  -25.2682   -9.5654   22.4837 H   0  0  0  0  0  0
  -23.9994   -7.4584   22.7474 H   0  0  0  0  0  0
  -21.0851   -8.8620   19.8925 H   0  0  0  0  0  0
  -22.3629  -10.9596   19.6151 H   0  0  0  0  0  0
  -21.1915   -7.6150   23.9701 H   0  0  0  0  0  0
  -21.1550   -6.0542   25.9080 H   0  0  0  0  0  0
  -22.0600   -2.7620   23.2823 H   0  0  0  0  0  0
  -22.4068  -11.9747   22.4617 H   0  0  0  0  0  0
  -21.1162  -13.1245   22.2746 H   0  0  0  0  0  0
  -24.6676  -15.8192   20.5229 H   0  0  0  0  0  0
  -26.2611  -15.6032   19.9970 H   0  0  0  0  0  0
  -26.7186  -32.5504   23.1057 H   0  0  0  0  0  0
  -25.0261  -33.9769   25.0538 H   0  0  0  0  0  0
  -22.7053  -31.3009   21.4090 H   0  0  0  0  0  0
  -23.3754  -35.9597   23.3327 H   0  0  0  0  0  0
  -24.3546  -36.8863   22.2040 H   0  0  0  0  0  0
  -23.7217  -37.6470   23.6652 H   0  0  0  0  0  0
  -26.0575  -31.5628   20.5735 H   0  0  0  0  0  0
  -26.8475  -30.8733   21.9631 H   0  0  0  0  0  0
  -28.1303  -29.0172   21.0952 H   0  0  0  0  0  0
  -25.9211  -25.9214   19.0297 H   0  0  0  0  0  0
  -23.9150  -27.2691   19.1145 H   0  0  0  0  0  0
  -23.7297  -30.5843   19.4059 H   0  0  0  0  0  0
  -22.7400  -29.2327   19.8789 H   0  0  0  0  0  0
  -25.1300  -36.1918   25.0800 H   0  0  0  0  0  0
  -20.9905  -28.3208   24.1472 H   0  0  0  0  0  0
  -20.5834  -26.2239   23.3554 H   0  0  0  0  0  0
  -21.6650  -26.7577   22.1116 H   0  0  0  0  0  0
  -19.6955  -25.6330   21.1227 H   0  0  0  0  0  0
  -19.6746  -27.3238   20.6764 H   0  0  0  0  0  0
  -17.4230  -26.6691   21.3978 H   0  0  0  0  0  0
  -18.0317  -26.0110   22.9029 H   0  0  0  0  0  0
  -19.7892  -30.7315   24.2252 H   0  0  0  0  0  0
  -17.4965  -31.6290   24.5152 H   0  0  0  0  0  0
  -15.5318  -30.2968   23.7740 H   0  0  0  0  0  0
  -15.8624  -28.0841   22.7085 H   0  0  0  0  0  0
  -24.5922  -30.7082   25.7585 H   0  0  0  0  0  0
  -24.9013  -32.2782   26.4917 H   0  0  0  0  0  0
  -25.8078  -30.8638   27.0043 H   0  0  0  0  0  0
  -26.2895  -29.6668   24.1374 H   0  0  0  0  0  0
  -27.4500  -29.7441   25.4435 H   0  0  0  0  0  0
  -27.8548  -30.4378   23.8938 H   0  0  0  0  0  0
  -27.2650  -33.3562   26.2136 H   0  0  0  0  0  0
  -28.3800  -32.7056   25.0228 H   0  0  0  0  0  0
  -28.0884  -31.8429   26.5244 H   0  0  0  0  0  0
  -28.2634  -38.0041   24.7494 H   0  0  0  0  0  0
  -28.1040  -36.2560   24.6395 H   0  0  0  0  0  0
  -27.2285  -37.1502   25.8898 H   0  0  0  0  0  0
  -20.9438  -29.8656   21.6856 H   0  0  0  0  0  0
  -26.0193  -38.2846   24.1388 H   0  0  0  0  0  0
  -27.5471  -17.9874   23.3031 H   0  0  0  0  0  0
  -27.2629  -16.7228   22.1139 H   0  0  0  0  0  0
  -26.2247  -18.1429   22.1662 H   0  0  0  0  0  0
  -28.6209  -23.5723   16.8778 H   0  0  0  0  0  0
  -27.5353  -24.8591   17.3382 H   0  0  0  0  0  0
  -27.2164  -23.2104   17.8423 H   0  0  0  0  0  0
  -28.6530  -24.7901   21.0451 H   0  0  0  0  0  0
  -27.1626  -24.7288   20.2419 H   0  0  0  0  0  0
  -29.7296  -24.7390   18.6490 H   0  0  0  0  0  0
  -27.5910  -22.1966   20.0494 H   0  0  0  0  0  0
  -28.8674  -15.5057   20.9028 H   0  0  0  0  0  0
  1 25  1  0  0  0
  1 30  2  0  0  0
  1 82  1  0  0  0
  2  3  1  0  0  0
  2 25  1  0  0  0
  2 86  1  0  0  0
  2 87  1  0  0  0
  3  4  1  0  0  0
  3 88  1  0  0  0
  3 89  1  0  0  0
  4  5  1  0  0  0
  4 90  1  0  0  0
  4 91  1  0  0  0
  5  6  1  0  0  0
  5 26  1  0  0  0
  5 92  1  0  0  0
  6 25  1  0  0  0
  6 93  1  0  0  0
  6 94  1  0  0  0
  7  8  2  0  0  0
  7 26  1  0  0  0
  7 29  1  0  0  0
  8  9  1  0  0  0
  8 22  1  0  0  0
  9 10  1  0  0  0
  9 27  2  0  0  0
 10 11  2  0  0  0
 10 15  1  0  0  0
 11 12  1  0  0  0
 11 95  1  0  0  0
 12 13  2  0  0  0
 12 96  1  0  0  0
 13 14  1  0  0  0
 13 31  1  0  0  0
 14 15  2  0  0  0
 14 97  1  0  0  0
 15 98  1  0  0  0
 16 17  2  0  0  0
 16 21  1  0  0  0
 16 31  1  0  0  0
 17 18  1  0  0  0
 17 99  1  0  0  0
 18 19  2  0  0  0
 18100  1  0  0  0
 19 20  1  0  0  0
 19 24  1  0  0  0
 20 21  2  0  0  0
 20101  1  0  0  0
 21 23  1  0  0  0
 22 28  1  0  0  0
 22 32  2  0  0  0
 26 27  1  0  0  0
 28102  1  0  0  0
 28103  1  0  0  0
 29104  1  0  0  0
 29105  1  0  0  0
 33 34  1  0  0  0
 33 66  1  0  0  0
 33 70  2  0  0  0
 34 36  1  0  0  0
 34 59  1  0  0  0
 34106  1  0  0  0
 35 44  2  0  0  0
 35 45  1  0  0  0
 35 68  1  0  0  0
 36 56  1  0  0  0
 36107  1  0  0  0
 37 39  1  0  0  0
 37 47  1  0  0  0
 37 66  1  0  0  0
 37108  1  0  0  0
 38 43  2  0  0  0
 38 46  1  0  0  0
 38 47  1  0  0  0
 39 64  1  0  0  0
 39 67  2  0  0  0
 40 52  1  0  0  0
 40 53  2  0  0  0
 40 58  1  0  0  0
 41109  1  0  0  0
 41110  1  0  0  0
 41111  1  0  0  0
 41 48  1  0  0  0
 42 43  1  0  0  0
 42 66  1  0  0  0
 42112  1  0  0  0
 42113  1  0  0  0
 43 44  1  0  0  0
 44114  1  0  0  0
 45 46  2  0  0  0
 45115  1  0  0  0
 46116  1  0  0  0
 47117  1  0  0  0
 47118  1  0  0  0
 48 56  1  0  0  0
 48 65  1  0  0  0
 48119  1  0  0  0
 49 50  1  0  0  0
 49 53  1  0  0  0
 49 64  1  0  0  0
 49120  1  0  0  0
 50 51  1  0  0  0
 50121  1  0  0  0
 50122  1  0  0  0
 51 52  1  0  0  0
 51123  1  0  0  0
 51124  1  0  0  0
 52125  1  0  0  0
 52126  1  0  0  0
 53 54  1  0  0  0
 54 55  2  0  0  0
 54127  1  0  0  0
 55 57  1  0  0  0
 55128  1  0  0  0
 56 69  2  0  0  0
 57 58  2  0  0  0
 57129  1  0  0  0
 58130  1  0  0  0
 59 60  1  0  0  0
 59 61  1  0  0  0
 59 62  1  0  0  0
 60131  1  0  0  0
 60132  1  0  0  0
 60133  1  0  0  0
 61134  1  0  0  0
 61135  1  0  0  0
 61136  1  0  0  0
 62137  1  0  0  0
 62138  1  0  0  0
 62139  1  0  0  0
 63 65  1  0  0  0
 63140  1  0  0  0
 63141  1  0  0  0
 63142  1  0  0  0
 64143  1  0  0  0
 65144  1  0  0  0
 68 78  1  0  0  0
 71 72  2  0  0  0
 71 74  1  0  0  0
 71 85  1  0  0  0
 72 76  1  0  0  0
 72 80  1  0  0  0
 73 80  2  0  0  0
 73 81  1  0  0  0
 73 85  1  0  0  0
 74 82  1  0  0  0
 74 83  2  0  0  0
 75 79  1  0  0  0
 75 81  1  0  0  0
 75 84  2  0  0  0
 76145  1  0  0  0
 76146  1  0  0  0
 76147  1  0  0  0
 77148  1  0  0  0
 77149  1  0  0  0
 77150  1  0  0  0
 77 79  1  0  0  0
 78 79  1  0  0  0
 78151  1  0  0  0
 78152  1  0  0  0
 79153  1  0  0  0
 81154  1  0  0  0
 82155  1  0  0  0
M  ISO  4   1 100  68 101  78 101  82 100
M  END
> <chiral flag>
0

> <version>
0

> <s_m_source_file>
/data/baiqing/PycharmProjects/Reinvent-master-3.2/result/LINK_invent/BTK/process_docking_weight1_custom_product_contain_oxygen_bond_distance_aromatic_linkinvent_7_9_3/rearranged_h_0186.sdf

> <i_m_source_file_index>
9

> <r_mmod_Potential_Energy-OPLS-2005>
-131.981857299805

> <r_mmod_Stretch_Energy-OPLS-2005>
58.462043762207

> <r_mmod_Bend_Energy-OPLS-2005>
132.684036254883

> <r_mmod_Torsional_Energy-OPLS-2005>
260.100494384766

> <r_mmod_Improper_Torsional_Energy-OPLS-2005>
6.6121187210083

> <r_mmod_Van_der_Waal_Energy-OPLS-2005>
130.556747436523

> <r_mmod_Electrostatic_Energy-OPLS-2005>
-505.690368652344

> <r_mmod_Solvation_Energy-OPLS-2005>
-253.354248046875

> <b_mmod_Minimization_Converged-OPLS-2005>
0

> <r_mmod_RMS_Derivative-OPLS-2005>
9.93904495239258

$$$$
10
                    3D
 Structure written by MMmdl.
153161  0  0  1  0            999 V2000
  -30.6435  -14.7255   20.4429 C   0  0  0  0  0  0
  -30.4231  -12.4340   19.4918 C   0  0  0  0  0  0
  -29.5140  -12.5011   18.2444 C   0  0  0  0  0  0
  -28.0368  -12.3341   18.6485 C   0  0  0  0  0  0
  -27.6409  -13.2381   19.8470 C   0  0  2  0  0  0
  -28.6802  -13.1792   20.9855 C   0  0  0  0  0  0
  -25.2508  -13.8217   20.5697 C   0  0  0  0  0  0
  -24.1803  -13.0450   20.9201 C   0  0  0  0  0  0
  -24.6398  -11.6929   20.8736 C   0  0  0  0  0  0
  -23.9077  -10.4299   21.0401 C   0  0  0  0  0  0
  -24.3627   -9.4213   21.9179 C   0  0  0  0  0  0
  -23.6300   -8.2248   22.0749 C   0  0  0  0  0  0
  -22.4281   -8.0284   21.3540 C   0  0  0  0  0  0
  -21.9917   -9.0261   20.4643 C   0  0  0  0  0  0
  -22.7248  -10.2140   20.3053 C   0  0  0  0  0  0
  -21.6856   -6.0738   22.5279 C   0  0  0  0  0  0
  -21.4015   -6.5640   23.8213 C   0  0  0  0  0  0
  -21.3661   -5.6790   24.9175 C   0  0  0  0  0  0
  -21.6046   -4.3052   24.7222 C   0  0  0  0  0  0
  -21.8817   -3.8147   23.4342 C   0  0  0  0  0  0
  -21.9191   -4.6965   22.3400 C   0  0  0  0  0  0
  -22.7822  -13.5226   21.1864 C   0  0  0  0  0  0
  -22.1661   -4.2149   21.0975 F   0  0  0  0  0  0
  -21.5629   -3.4535   25.7736 F   0  0  0  0  0  0
  -29.9913  -13.5106   20.4164 N   0  0  0  0  0  0
  -26.2933  -12.9437   20.3257 N   0  0  0  0  0  0
  -25.9328  -11.6569   20.5728 N   0  0  0  0  0  0
  -22.0470  -12.8222   22.0426 N   0  0  0  0  0  0
  -25.4205  -15.1943   20.4149 N   0  0  0  0  0  0
  -31.8381  -14.7467   20.1338 O   0  0  0  0  0  0
  -21.6640   -6.8886   21.4242 O   0  0  0  0  0  0
  -22.3502  -14.5523   20.6698 O   0  0  0  0  0  0
  -24.6293  -31.8562   23.2000 C   0  0  0  0  0  0
  -25.9123  -32.4762   23.8339 C   0  0  1  0  0  0
  -27.2133  -27.2734   20.1398 C   0  0  0  0  0  0
  -25.5920  -33.8564   24.2256 N   0  0  0  0  0  0
  -23.4258  -30.4783   21.5426 C   0  0  2  0  0  0
  -24.8745  -28.9283   20.1090 C   0  0  0  0  0  0
  -22.7493  -29.4598   22.4917 C   0  0  0  0  0  0
  -18.0291  -28.1384   22.8486 C   0  0  0  0  0  0
  -24.1486  -36.7294   23.2641 C   0  0  0  0  0  0
  -25.9705  -30.7720   21.3804 C   0  0  0  0  0  0
  -26.0434  -29.3949   20.7257 C   0  0  0  0  0  0
  -27.2183  -28.5783   20.7327 C   0  0  0  0  0  0
  -26.0381  -26.8860   19.4646 C   0  0  0  0  0  0
  -24.8758  -27.6805   19.4665 C   0  0  0  0  0  0
  -23.6435  -29.8122   20.1584 C   0  0  0  0  0  0
  -25.4115  -36.3077   24.0323 C   0  0  1  0  0  0
  -20.5893  -28.3689   23.1275 C   0  0  2  0  0  0
  -20.6777  -26.9408   22.5413 C   0  0  0  0  0  0
  -19.5753  -26.6376   21.5217 C   0  0  0  0  0  0
  -18.1931  -26.7927   22.1626 C   0  0  0  0  0  0
  -19.1544  -28.8856   23.2877 C   0  0  0  0  0  0
  -18.9465  -30.1456   23.8895 C   0  0  0  0  0  0
  -17.6462  -30.6586   24.0562 C   0  0  0  0  0  0
  -25.9052  -34.9444   23.5094 C   0  0  0  0  0  0
  -16.5352  -29.9083   23.6332 C   0  0  0  0  0  0
  -16.7277  -28.6500   23.0356 C   0  0  0  0  0  0
  -26.4498  -31.6586   25.0727 C   0  0  0  0  0  0
  -25.3712  -31.3741   26.1443 C   0  0  0  0  0  0
  -27.0353  -30.3004   24.6216 C   0  0  0  0  0  0
  -27.6054  -32.4329   25.7490 C   0  0  0  0  0  0
  -27.5582  -37.1802   24.8459 C   0  0  0  0  0  0
  -21.4203  -29.3034   22.3661 N   0  0  0  0  0  0
  -26.4294  -37.3772   23.9404 N   0  0  0  0  0  0
  -24.6939  -31.0537   22.0971 N   0  0  0  0  0  0
  -23.4197  -28.8140   23.3013 O   0  0  0  0  0  0
  -28.2953  -26.3694   20.1670 O   0  0  0  0  0  0
  -26.5636  -34.8915   22.4669 O   0  0  0  0  0  0
  -23.5447  -32.1382   23.7301 O   0  0  0  0  0  0
  -30.3273  -20.9925   19.4947 C   0  0  0  0  0  0
  -30.7750  -19.6178   19.3901 C   0  0  0  0  0  0
  -30.0821  -18.7114   20.1841 C   0  0  0  0  0  0
  -29.2789  -21.2458   20.3488 C   0  0  0  0  0  0
  -30.3933  -17.2417   20.2456 C   0  0  0  0  0  0
  -29.8696  -16.0163   20.6352 C   0  0  0  0  0  0
  -28.8342  -23.7558   20.1447 C   0  0  0  0  0  0
  -26.7759  -24.6783   21.4262 C   0  0  0  0  0  0
  -28.1721  -25.0311   20.8629 C   0  0  2  0  0  0
  -31.9272  -19.2523   18.4825 C   0  0  0  0  0  0
  -28.6962  -22.4802   20.6825 N   0  0  0  0  0  0
  -29.4745  -23.9437   19.1068 O   0  0  0  0  0  0
  -32.3177  -20.2824   17.7294 F   0  0  0  0  0  0
  -32.9896  -18.8601   19.1861 F   0  0  0  0  0  0
  -31.6004  -18.2658   17.6474 F   0  0  0  0  0  0
  -28.8116  -19.6426   21.0327 S   0  0  0  0  0  0
  -31.4697  -12.5233   19.1970 H   0  0  0  0  0  0
  -30.3387  -11.4609   19.9781 H   0  0  0  0  0  0
  -29.7968  -11.7269   17.5294 H   0  0  0  0  0  0
  -29.6527  -13.4565   17.7362 H   0  0  0  0  0  0
  -27.8883  -11.2863   18.9122 H   0  0  0  0  0  0
  -27.3856  -12.5273   17.7952 H   0  0  0  0  0  0
  -27.6357  -14.2596   19.4652 H   0  0  0  0  0  0
  -28.7038  -12.1853   21.4341 H   0  0  0  0  0  0
  -28.4164  -13.8670   21.7896 H   0  0  0  0  0  0
  -25.2777   -9.5686   22.4752 H   0  0  0  0  0  0
  -24.0006   -7.4639   22.7472 H   0  0  0  0  0  0
  -21.0844   -8.8782   19.8955 H   0  0  0  0  0  0
  -22.3706  -10.9675   19.6157 H   0  0  0  0  0  0
  -21.2008   -7.6148   23.9719 H   0  0  0  0  0  0
  -21.1486   -6.0519   25.9078 H   0  0  0  0  0  0
  -22.0595   -2.7608   23.2841 H   0  0  0  0  0  0
  -22.4090  -11.9894   22.4831 H   0  0  0  0  0  0
  -21.1080  -13.1236   22.2615 H   0  0  0  0  0  0
  -24.6562  -15.8505   20.5345 H   0  0  0  0  0  0
  -26.2762  -15.6359   20.1024 H   0  0  0  0  0  0
  -26.7191  -32.5418   23.1085 H   0  0  0  0  0  0
  -25.0031  -33.9699   25.0377 H   0  0  0  0  0  0
  -22.7216  -31.3002   21.3970 H   0  0  0  0  0  0
  -23.3746  -35.9628   23.3300 H   0  0  0  0  0  0
  -24.3572  -36.8923   22.2056 H   0  0  0  0  0  0
  -23.7241  -37.6494   23.6671 H   0  0  0  0  0  0
  -26.1078  -31.5308   20.6090 H   0  0  0  0  0  0
  -26.8496  -30.8218   22.0115 H   0  0  0  0  0  0
  -28.1126  -28.9274   21.2293 H   0  0  0  0  0  0
  -26.0092  -25.9350   18.9526 H   0  0  0  0  0  0
  -23.9859  -27.3223   18.9674 H   0  0  0  0  0  0
  -23.7645  -30.5878   19.4014 H   0  0  0  0  0  0
  -22.7626  -29.2425   19.8569 H   0  0  0  0  0  0
  -25.1302  -36.1927   25.0817 H   0  0  0  0  0  0
  -20.9993  -28.3267   24.1393 H   0  0  0  0  0  0
  -20.5673  -26.2300   23.3615 H   0  0  0  0  0  0
  -21.6644  -26.7426   22.1208 H   0  0  0  0  0  0
  -19.6909  -25.6288   21.1248 H   0  0  0  0  0  0
  -19.6690  -27.3187   20.6748 H   0  0  0  0  0  0
  -17.4201  -26.6678   21.4026 H   0  0  0  0  0  0
  -18.0325  -26.0072   22.9025 H   0  0  0  0  0  0
  -19.7939  -30.7276   24.2259 H   0  0  0  0  0  0
  -17.5014  -31.6267   24.5163 H   0  0  0  0  0  0
  -15.5352  -30.2984   23.7656 H   0  0  0  0  0  0
  -15.8676  -28.0817   22.7074 H   0  0  0  0  0  0
  -24.5892  -30.7092   25.7760 H   0  0  0  0  0  0
  -24.8894  -32.2912   26.4844 H   0  0  0  0  0  0
  -25.8011  -30.8929   27.0236 H   0  0  0  0  0  0
  -26.2943  -29.6739   24.1238 H   0  0  0  0  0  0
  -27.4030  -29.7287   25.4748 H   0  0  0  0  0  0
  -27.8817  -30.4281   23.9463 H   0  0  0  0  0  0
  -27.2669  -33.3623   26.2082 H   0  0  0  0  0  0
  -28.3850  -32.6900   25.0308 H   0  0  0  0  0  0
  -28.0743  -31.8450   26.5390 H   0  0  0  0  0  0
  -28.2597  -38.0104   24.7515 H   0  0  0  0  0  0
  -28.1080  -36.2633   24.6275 H   0  0  0  0  0  0
  -27.2295  -37.1438   25.8862 H   0  0  0  0  0  0
  -20.9386  -29.8754   21.6866 H   0  0  0  0  0  0
  -26.0173  -38.2846   24.1408 H   0  0  0  0  0  0
  -30.8276  -21.7659   18.9301 H   0  0  0  0  0  0
  -31.3864  -17.0991   19.8478 H   0  0  0  0  0  0
  -28.8813  -15.9876   21.0683 H   0  0  0  0  0  0
  -26.3645  -25.4952   22.0189 H   0  0  0  0  0  0
  -26.8213  -23.8156   22.0905 H   0  0  0  0  0  0
  -26.0674  -24.4318   20.6366 H   0  0  0  0  0  0
  -28.7995  -25.1691   21.7441 H   0  0  0  0  0  0
  -28.0791  -22.4491   21.4830 H   0  0  0  0  0  0
  1 25  1  0  0  0
  1 30  2  0  0  0
  1 76  1  0  0  0
  2  3  1  0  0  0
  2 25  1  0  0  0
  2 87  1  0  0  0
  2 88  1  0  0  0
  3  4  1  0  0  0
  3 89  1  0  0  0
  3 90  1  0  0  0
  4  5  1  0  0  0
  4 91  1  0  0  0
  4 92  1  0  0  0
  5  6  1  0  0  0
  5 26  1  0  0  0
  5 93  1  0  0  0
  6 25  1  0  0  0
  6 94  1  0  0  0
  6 95  1  0  0  0
  7  8  2  0  0  0
  7 26  1  0  0  0
  7 29  1  0  0  0
  8  9  1  0  0  0
  8 22  1  0  0  0
  9 10  1  0  0  0
  9 27  2  0  0  0
 10 11  2  0  0  0
 10 15  1  0  0  0
 11 12  1  0  0  0
 11 96  1  0  0  0
 12 13  2  0  0  0
 12 97  1  0  0  0
 13 14  1  0  0  0
 13 31  1  0  0  0
 14 15  2  0  0  0
 14 98  1  0  0  0
 15 99  1  0  0  0
 16 17  2  0  0  0
 16 21  1  0  0  0
 16 31  1  0  0  0
 17 18  1  0  0  0
 17100  1  0  0  0
 18 19  2  0  0  0
 18101  1  0  0  0
 19 20  1  0  0  0
 19 24  1  0  0  0
 20 21  2  0  0  0
 20102  1  0  0  0
 21 23  1  0  0  0
 22 28  1  0  0  0
 22 32  2  0  0  0
 26 27  1  0  0  0
 28103  1  0  0  0
 28104  1  0  0  0
 29105  1  0  0  0
 29106  1  0  0  0
 33 34  1  0  0  0
 33 66  1  0  0  0
 33 70  2  0  0  0
 34 36  1  0  0  0
 34 59  1  0  0  0
 34107  1  0  0  0
 35 44  2  0  0  0
 35 45  1  0  0  0
 35 68  1  0  0  0
 36 56  1  0  0  0
 36108  1  0  0  0
 37 39  1  0  0  0
 37 47  1  0  0  0
 37 66  1  0  0  0
 37109  1  0  0  0
 38 43  2  0  0  0
 38 46  1  0  0  0
 38 47  1  0  0  0
 39 64  1  0  0  0
 39 67  2  0  0  0
 40 52  1  0  0  0
 40 53  2  0  0  0
 40 58  1  0  0  0
 41110  1  0  0  0
 41111  1  0  0  0
 41112  1  0  0  0
 41 48  1  0  0  0
 42 43  1  0  0  0
 42 66  1  0  0  0
 42113  1  0  0  0
 42114  1  0  0  0
 43 44  1  0  0  0
 44115  1  0  0  0
 45 46  2  0  0  0
 45116  1  0  0  0
 46117  1  0  0  0
 47118  1  0  0  0
 47119  1  0  0  0
 48 56  1  0  0  0
 48 65  1  0  0  0
 48120  1  0  0  0
 49 50  1  0  0  0
 49 53  1  0  0  0
 49 64  1  0  0  0
 49121  1  0  0  0
 50 51  1  0  0  0
 50122  1  0  0  0
 50123  1  0  0  0
 51 52  1  0  0  0
 51124  1  0  0  0
 51125  1  0  0  0
 52126  1  0  0  0
 52127  1  0  0  0
 53 54  1  0  0  0
 54 55  2  0  0  0
 54128  1  0  0  0
 55 57  1  0  0  0
 55129  1  0  0  0
 56 69  2  0  0  0
 57 58  2  0  0  0
 57130  1  0  0  0
 58131  1  0  0  0
 59 60  1  0  0  0
 59 61  1  0  0  0
 59 62  1  0  0  0
 60132  1  0  0  0
 60133  1  0  0  0
 60134  1  0  0  0
 61135  1  0  0  0
 61136  1  0  0  0
 61137  1  0  0  0
 62138  1  0  0  0
 62139  1  0  0  0
 62140  1  0  0  0
 63 65  1  0  0  0
 63141  1  0  0  0
 63142  1  0  0  0
 63143  1  0  0  0
 64144  1  0  0  0
 65145  1  0  0  0
 68 79  1  0  0  0
 71 72  1  0  0  0
 71 74  2  0  0  0
 71146  1  0  0  0
 72 73  2  0  0  0
 72 80  1  0  0  0
 73 75  1  0  0  0
 73 86  1  0  0  0
 74 81  1  0  0  0
 74 86  1  0  0  0
 75 76  2  0  0  0
 75147  1  0  0  0
 76148  1  0  0  0
 77 79  1  0  0  0
 77 81  1  0  0  0
 77 82  2  0  0  0
 78149  1  0  0  0
 78150  1  0  0  0
 78151  1  0  0  0
 78 79  1  0  0  0
 79152  1  0  0  0
 80 83  1  0  0  0
 80 84  1  0  0  0
 80 85  1  0  0  0
 81153  1  0  0  0
M  ISO  4   1 100  68 101  76 100  79 101
M  END
> <chiral flag>
0

> <version>
0

> <s_m_source_file>
/data/baiqing/PycharmProjects/Reinvent-master-3.2/result/LINK_invent/BTK/process_docking_weight1_custom_product_contain_oxygen_bond_distance_aromatic_linkinvent_7_9_3/rearranged_h_0186.sdf

> <i_m_source_file_index>
10

> <r_mmod_Potential_Energy-OPLS-2005>
202.026504516602

> <r_mmod_Stretch_Energy-OPLS-2005>
112.42830657959

> <r_mmod_Bend_Energy-OPLS-2005>
190.024719238281

> <r_mmod_Torsional_Energy-OPLS-2005>
226.26953125

> <r_mmod_Improper_Torsional_Energy-OPLS-2005>
4.29460144042969

> <r_mmod_Van_der_Waal_Energy-OPLS-2005>
131.397369384766

> <r_mmod_Electrostatic_Energy-OPLS-2005>
-326.817443847656

> <r_mmod_Solvation_Energy-OPLS-2005>
-214.951309204102

> <b_mmod_Minimization_Converged-OPLS-2005>
0

> <r_mmod_RMS_Derivative-OPLS-2005>
0.853850841522217

$$$$
11
                    3D
 Structure written by MMmdl.
156164  0  0  1  0            999 V2000
  -30.7101  -14.5255   20.5688 C   0  0  0  0  0  0
  -30.4257  -12.3405   19.4423 C   0  0  0  0  0  0
  -29.4993  -12.4964   18.2194 C   0  0  0  0  0  0
  -28.0233  -12.3481   18.6351 C   0  0  0  0  0  0
  -27.6590  -13.2138   19.8705 C   0  0  2  0  0  0
  -28.7006  -13.0452   20.9993 C   0  0  0  0  0  0
  -25.2586  -13.8178   20.5693 C   0  0  0  0  0  0
  -24.1835  -13.0441   20.9176 C   0  0  0  0  0  0
  -24.6402  -11.6911   20.8739 C   0  0  0  0  0  0
  -23.9072  -10.4289   21.0420 C   0  0  0  0  0  0
  -24.3623   -9.4201   21.9192 C   0  0  0  0  0  0
  -23.6289   -8.2243   22.0759 C   0  0  0  0  0  0
  -22.4272   -8.0288   21.3552 C   0  0  0  0  0  0
  -21.9921   -9.0258   20.4649 C   0  0  0  0  0  0
  -22.7254  -10.2134   20.3058 C   0  0  0  0  0  0
  -21.6848   -6.0734   22.5274 C   0  0  0  0  0  0
  -21.4017   -6.5638   23.8207 C   0  0  0  0  0  0
  -21.3657   -5.6790   24.9171 C   0  0  0  0  0  0
  -21.6047   -4.3052   24.7224 C   0  0  0  0  0  0
  -21.8819   -3.8145   23.4342 C   0  0  0  0  0  0
  -21.9194   -4.6961   22.3399 C   0  0  0  0  0  0
  -22.7861  -13.5251   21.1826 C   0  0  0  0  0  0
  -22.1662   -4.2144   21.0975 F   0  0  0  0  0  0
  -21.5629   -3.4535   25.7740 F   0  0  0  0  0  0
  -30.0261  -13.3517   20.4374 N   0  0  0  0  0  0
  -26.3013  -12.9358   20.3356 N   0  0  0  0  0  0
  -25.9336  -11.6510   20.5786 N   0  0  0  0  0  0
  -22.0501  -12.8230   22.0377 N   0  0  0  0  0  0
  -25.4311  -15.1899   20.4108 N   0  0  0  0  0  0
  -31.8379  -14.6804   20.0946 O   0  0  0  0  0  0
  -21.6641   -6.8883   21.4239 O   0  0  0  0  0  0
  -22.3547  -14.5553   20.6680 O   0  0  0  0  0  0
  -24.6193  -31.8660   23.2072 C   0  0  0  0  0  0
  -25.9067  -32.4817   23.8381 C   0  0  1  0  0  0
  -27.2195  -27.3827   20.1123 C   0  0  0  0  0  0
  -25.5933  -33.8613   24.2316 N   0  0  0  0  0  0
  -23.4115  -30.4884   21.5485 C   0  0  2  0  0  0
  -24.8597  -28.9551   20.1083 C   0  0  0  0  0  0
  -22.7442  -29.4643   22.4961 C   0  0  0  0  0  0
  -18.0276  -28.1371   22.8462 C   0  0  0  0  0  0
  -24.1508  -36.7309   23.2636 C   0  0  0  0  0  0
  -25.9456  -30.8137   21.3746 C   0  0  0  0  0  0
  -26.0223  -29.4448   20.7208 C   0  0  0  0  0  0
  -27.2074  -28.6632   20.7270 C   0  0  0  0  0  0
  -26.0546  -26.9431   19.4516 C   0  0  0  0  0  0
  -24.8728  -27.7041   19.4683 C   0  0  0  0  0  0
  -23.6236  -29.8267   20.1604 C   0  0  0  0  0  0
  -25.4126  -36.3111   24.0347 C   0  0  1  0  0  0
  -20.5867  -28.3673   23.1292 C   0  0  2  0  0  0
  -20.6790  -26.9404   22.5408 C   0  0  0  0  0  0
  -19.5776  -26.6373   21.5206 C   0  0  0  0  0  0
  -18.1937  -26.7914   22.1594 C   0  0  0  0  0  0
  -19.1528  -28.8834   23.2862 C   0  0  0  0  0  0
  -18.9454  -30.1427   23.8879 C   0  0  0  0  0  0
  -17.6465  -30.6568   24.0559 C   0  0  0  0  0  0
  -25.9057  -34.9475   23.5130 C   0  0  0  0  0  0
  -16.5349  -29.9070   23.6338 C   0  0  0  0  0  0
  -16.7264  -28.6495   23.0338 C   0  0  0  0  0  0
  -26.4486  -31.6598   25.0721 C   0  0  0  0  0  0
  -25.3726  -31.3718   26.1455 C   0  0  0  0  0  0
  -27.0327  -30.3039   24.6116 C   0  0  0  0  0  0
  -27.6061  -32.4320   25.7489 C   0  0  0  0  0  0
  -27.5595  -37.1813   24.8457 C   0  0  0  0  0  0
  -21.4165  -29.3034   22.3699 N   0  0  0  0  0  0
  -26.4306  -37.3805   23.9410 N   0  0  0  0  0  0
  -24.6773  -31.0711   22.1008 N   0  0  0  0  0  0
  -23.4180  -28.8173   23.3028 O   0  0  0  0  0  0
  -28.3251  -26.5448   20.1082 O   0  0  0  0  0  0
  -26.5609  -34.8931   22.4684 O   0  0  0  0  0  0
  -23.5389  -32.1442   23.7438 O   0  0  0  0  0  0
  -30.2123  -19.4524   21.4753 C   0  0  0  0  0  0
  -30.0369  -18.1570   21.0099 C   0  0  0  0  0  0
  -29.5098  -20.4310   20.6530 C   0  0  0  0  0  0
  -29.0702  -22.9336   20.2576 C   0  0  0  0  0  0
  -26.9759  -24.8156   21.4399 C   0  0  0  0  0  0
  -30.6672  -16.8630   21.5335 C   0  0  0  0  0  0
  -29.4514  -24.3517   20.7999 C   0  0  0  0  0  0
  -28.3429  -25.4439   21.0736 C   0  0  1  0  0  0
  -31.0552  -19.7426   22.6942 C   0  0  0  0  0  0
  -28.8217  -19.9242   19.6440 N   0  0  0  0  0  0
  -29.5816  -21.8545   20.9161 N   0  0  0  0  0  0
  -30.0625  -15.5578   21.1596 N   0  0  0  0  0  0
  -28.3638  -22.8468   19.2495 O   0  0  0  0  0  0
  -32.2961  -19.2767   22.5479 F   0  0  0  0  0  0
  -31.1535  -21.0469   22.9553 F   0  0  0  0  0  0
  -30.5345  -19.1654   23.7777 F   0  0  0  0  0  0
  -29.0092  -18.2448   19.6153 S   0  0  0  0  0  0
  -31.4688  -12.4388   19.1375 H   0  0  0  0  0  0
  -30.3356  -11.3403   19.8701 H   0  0  0  0  0  0
  -29.7502  -11.7519   17.4632 H   0  0  0  0  0  0
  -29.6566  -13.4712   17.7534 H   0  0  0  0  0  0
  -27.8547  -11.2955   18.8631 H   0  0  0  0  0  0
  -27.3672  -12.5869   17.7978 H   0  0  0  0  0  0
  -27.6911  -14.2550   19.5463 H   0  0  0  0  0  0
  -28.6873  -12.0222   21.3800 H   0  0  0  0  0  0
  -28.4529  -13.6799   21.8517 H   0  0  0  0  0  0
  -25.2770   -9.5670   22.4764 H   0  0  0  0  0  0
  -23.9984   -7.4647   22.7490 H   0  0  0  0  0  0
  -21.0847   -8.8789   19.8962 H   0  0  0  0  0  0
  -22.3722  -10.9673   19.6160 H   0  0  0  0  0  0
  -21.2008   -7.6144   23.9708 H   0  0  0  0  0  0
  -21.1484   -6.0522   25.9073 H   0  0  0  0  0  0
  -22.0602   -2.7604   23.2845 H   0  0  0  0  0  0
  -22.4103  -11.9877   22.4743 H   0  0  0  0  0  0
  -21.1131  -13.1270   22.2609 H   0  0  0  0  0  0
  -24.6695  -15.8492   20.5255 H   0  0  0  0  0  0
  -26.2864  -15.6239   20.0880 H   0  0  0  0  0  0
  -26.7124  -32.5528   23.1130 H   0  0  0  0  0  0
  -25.0101  -33.9757   25.0483 H   0  0  0  0  0  0
  -22.7014  -31.3070   21.4073 H   0  0  0  0  0  0
  -23.3781  -35.9637   23.3296 H   0  0  0  0  0  0
  -24.3601  -36.8927   22.2048 H   0  0  0  0  0  0
  -23.7239  -37.6503   23.6647 H   0  0  0  0  0  0
  -26.0699  -31.5806   20.6089 H   0  0  0  0  0  0
  -26.8295  -30.8628   21.9988 H   0  0  0  0  0  0
  -28.0975  -29.0272   21.2206 H   0  0  0  0  0  0
  -26.0569  -25.9914   18.9419 H   0  0  0  0  0  0
  -23.9864  -27.3303   18.9747 H   0  0  0  0  0  0
  -23.7336  -30.6063   19.4060 H   0  0  0  0  0  0
  -22.7471  -29.2500   19.8623 H   0  0  0  0  0  0
  -25.1292  -36.2001   25.0848 H   0  0  0  0  0  0
  -20.9926  -28.3260   24.1430 H   0  0  0  0  0  0
  -20.5757  -26.2264   23.3588 H   0  0  0  0  0  0
  -21.6653  -26.7492   22.1165 H   0  0  0  0  0  0
  -19.6974  -25.6292   21.1222 H   0  0  0  0  0  0
  -19.6740  -27.3194   20.6737 H   0  0  0  0  0  0
  -17.4223  -26.6638   21.3975 H   0  0  0  0  0  0
  -18.0325  -26.0054   22.8989 H   0  0  0  0  0  0
  -19.7945  -30.7225   24.2248 H   0  0  0  0  0  0
  -17.5034  -31.6261   24.5140 H   0  0  0  0  0  0
  -15.5347  -30.2973   23.7683 H   0  0  0  0  0  0
  -15.8653  -28.0823   22.7053 H   0  0  0  0  0  0
  -24.5916  -30.7049   25.7768 H   0  0  0  0  0  0
  -24.8886  -32.2876   26.4862 H   0  0  0  0  0  0
  -25.8069  -30.8903   27.0227 H   0  0  0  0  0  0
  -26.2868  -29.6781   24.1192 H   0  0  0  0  0  0
  -27.4100  -29.7303   25.4583 H   0  0  0  0  0  0
  -27.8723  -30.4328   23.9278 H   0  0  0  0  0  0
  -27.2673  -33.3636   26.2041 H   0  0  0  0  0  0
  -28.3885  -32.6853   25.0314 H   0  0  0  0  0  0
  -28.0715  -31.8454   26.5420 H   0  0  0  0  0  0
  -28.2590  -38.0130   24.7541 H   0  0  0  0  0  0
  -28.1107  -36.2659   24.6243 H   0  0  0  0  0  0
  -27.2302  -37.1403   25.8853 H   0  0  0  0  0  0
  -20.9346  -29.8725   21.6892 H   0  0  0  0  0  0
  -26.0210  -38.2895   24.1420 H   0  0  0  0  0  0
  -27.0950  -24.0524   22.2110 H   0  0  0  0  0  0
  -26.4985  -24.3428   20.5817 H   0  0  0  0  0  0
  -26.2821  -25.5540   21.8421 H   0  0  0  0  0  0
  -30.6677  -16.8821   22.6231 H   0  0  0  0  0  0
  -31.7241  -16.8734   21.2586 H   0  0  0  0  0  0
  -30.1998  -24.7721   20.1285 H   0  0  0  0  0  0
  -29.9843  -24.1991   21.7387 H   0  0  0  0  0  0
  -28.6662  -25.9404   21.9896 H   0  0  0  0  0  0
  -30.1390  -22.0953   21.7252 H   0  0  0  0  0  0
  -29.1368  -15.3630   21.5094 H   0  0  0  0  0  0
  1 25  1  0  0  0
  1 30  2  0  0  0
  1 82  1  0  0  0
  2  3  1  0  0  0
  2 25  1  0  0  0
  2 88  1  0  0  0
  2 89  1  0  0  0
  3  4  1  0  0  0
  3 90  1  0  0  0
  3 91  1  0  0  0
  4  5  1  0  0  0
  4 92  1  0  0  0
  4 93  1  0  0  0
  5  6  1  0  0  0
  5 26  1  0  0  0
  5 94  1  0  0  0
  6 25  1  0  0  0
  6 95  1  0  0  0
  6 96  1  0  0  0
  7  8  2  0  0  0
  7 26  1  0  0  0
  7 29  1  0  0  0
  8  9  1  0  0  0
  8 22  1  0  0  0
  9 10  1  0  0  0
  9 27  2  0  0  0
 10 11  2  0  0  0
 10 15  1  0  0  0
 11 12  1  0  0  0
 11 97  1  0  0  0
 12 13  2  0  0  0
 12 98  1  0  0  0
 13 14  1  0  0  0
 13 31  1  0  0  0
 14 15  2  0  0  0
 14 99  1  0  0  0
 15100  1  0  0  0
 16 17  2  0  0  0
 16 21  1  0  0  0
 16 31  1  0  0  0
 17 18  1  0  0  0
 17101  1  0  0  0
 18 19  2  0  0  0
 18102  1  0  0  0
 19 20  1  0  0  0
 19 24  1  0  0  0
 20 21  2  0  0  0
 20103  1  0  0  0
 21 23  1  0  0  0
 22 28  1  0  0  0
 22 32  2  0  0  0
 26 27  1  0  0  0
 28104  1  0  0  0
 28105  1  0  0  0
 29106  1  0  0  0
 29107  1  0  0  0
 33 34  1  0  0  0
 33 66  1  0  0  0
 33 70  2  0  0  0
 34 36  1  0  0  0
 34 59  1  0  0  0
 34108  1  0  0  0
 35 44  2  0  0  0
 35 45  1  0  0  0
 35 68  1  0  0  0
 36 56  1  0  0  0
 36109  1  0  0  0
 37 39  1  0  0  0
 37 47  1  0  0  0
 37 66  1  0  0  0
 37110  1  0  0  0
 38 43  2  0  0  0
 38 46  1  0  0  0
 38 47  1  0  0  0
 39 64  1  0  0  0
 39 67  2  0  0  0
 40 52  1  0  0  0
 40 53  2  0  0  0
 40 58  1  0  0  0
 41111  1  0  0  0
 41112  1  0  0  0
 41113  1  0  0  0
 41 48  1  0  0  0
 42 43  1  0  0  0
 42 66  1  0  0  0
 42114  1  0  0  0
 42115  1  0  0  0
 43 44  1  0  0  0
 44116  1  0  0  0
 45 46  2  0  0  0
 45117  1  0  0  0
 46118  1  0  0  0
 47119  1  0  0  0
 47120  1  0  0  0
 48 56  1  0  0  0
 48 65  1  0  0  0
 48121  1  0  0  0
 49 50  1  0  0  0
 49 53  1  0  0  0
 49 64  1  0  0  0
 49122  1  0  0  0
 50 51  1  0  0  0
 50123  1  0  0  0
 50124  1  0  0  0
 51 52  1  0  0  0
 51125  1  0  0  0
 51126  1  0  0  0
 52127  1  0  0  0
 52128  1  0  0  0
 53 54  1  0  0  0
 54 55  2  0  0  0
 54129  1  0  0  0
 55 57  1  0  0  0
 55130  1  0  0  0
 56 69  2  0  0  0
 57 58  2  0  0  0
 57131  1  0  0  0
 58132  1  0  0  0
 59 60  1  0  0  0
 59 61  1  0  0  0
 59 62  1  0  0  0
 60133  1  0  0  0
 60134  1  0  0  0
 60135  1  0  0  0
 61136  1  0  0  0
 61137  1  0  0  0
 61138  1  0  0  0
 62139  1  0  0  0
 62140  1  0  0  0
 62141  1  0  0  0
 63 65  1  0  0  0
 63142  1  0  0  0
 63143  1  0  0  0
 63144  1  0  0  0
 64145  1  0  0  0
 65146  1  0  0  0
 68 78  1  0  0  0
 71 72  2  0  0  0
 71 73  1  0  0  0
 71 79  1  0  0  0
 72 76  1  0  0  0
 72 87  1  0  0  0
 73 80  2  0  0  0
 73 81  1  0  0  0
 74 77  1  0  0  0
 74 81  1  0  0  0
 74 83  2  0  0  0
 75147  1  0  0  0
 75148  1  0  0  0
 75149  1  0  0  0
 75 78  1  0  0  0
 76 82  1  0  0  0
 76150  1  0  0  0
 76151  1  0  0  0
 77 78  1  0  0  0
 77152  1  0  0  0
 77153  1  0  0  0
 78154  1  0  0  0
 79 84  1  0  0  0
 79 85  1  0  0  0
 79 86  1  0  0  0
 80 87  1  0  0  0
 81155  1  0  0  0
 82156  1  0  0  0
M  ISO  4   1 100  68 101  78 101  82 100
M  END
> <chiral flag>
0

> <version>
0

> <s_m_source_file>
/data/baiqing/PycharmProjects/Reinvent-master-3.2/result/LINK_invent/BTK/process_docking_weight1_custom_product_contain_oxygen_bond_distance_aromatic_linkinvent_7_9_3/rearranged_h_0186.sdf

> <i_m_source_file_index>
11

> <r_mmod_Potential_Energy-OPLS-2005>
-110.111976623535

> <r_mmod_Stretch_Energy-OPLS-2005>
54.6719360351562

> <r_mmod_Bend_Energy-OPLS-2005>
134.092620849609

> <r_mmod_Torsional_Energy-OPLS-2005>
210.749496459961

> <r_mmod_Improper_Torsional_Energy-OPLS-2005>
2.76393222808838

> <r_mmod_Van_der_Waal_Energy-OPLS-2005>
132.573776245117

> <r_mmod_Electrostatic_Energy-OPLS-2005>
-423.935485839844

> <r_mmod_Solvation_Energy-OPLS-2005>
-245.450820922852

> <b_mmod_Minimization_Converged-OPLS-2005>
0

> <r_mmod_RMS_Derivative-OPLS-2005>
2.50520062446594

$$$$
12
                    3D
 Structure written by MMmdl.
154162  0  0  1  0            999 V2000
  -30.4756  -15.0701   20.3776 C   0  0  0  0  0  0
  -30.4369  -12.6680   19.5149 C   0  0  0  0  0  0
  -29.5279  -12.5538   18.2694 C   0  0  0  0  0  0
  -28.0611  -12.3309   18.6808 C   0  0  0  0  0  0
  -27.6217  -13.2643   19.8393 C   0  0  2  0  0  0
  -28.6592  -13.3385   20.9795 C   0  0  0  0  0  0
  -25.2437  -13.8240   20.5747 C   0  0  0  0  0  0
  -24.1767  -13.0443   20.9261 C   0  0  0  0  0  0
  -24.6408  -11.6945   20.8780 C   0  0  0  0  0  0
  -23.9095  -10.4293   21.0424 C   0  0  0  0  0  0
  -24.3641   -9.4199   21.9192 C   0  0  0  0  0  0
  -23.6304   -8.2229   22.0755 C   0  0  0  0  0  0
  -22.4277   -8.0279   21.3540 C   0  0  0  0  0  0
  -21.9934   -9.0262   20.4633 C   0  0  0  0  0  0
  -22.7280  -10.2133   20.3060 C   0  0  0  0  0  0
  -21.6857   -6.0729   22.5278 C   0  0  0  0  0  0
  -21.4013   -6.5635   23.8206 C   0  0  0  0  0  0
  -21.3666   -5.6792   24.9164 C   0  0  0  0  0  0
  -21.6048   -4.3054   24.7227 C   0  0  0  0  0  0
  -21.8816   -3.8148   23.4343 C   0  0  0  0  0  0
  -21.9188   -4.6957   22.3399 C   0  0  0  0  0  0
  -22.7774  -13.5195   21.1910 C   0  0  0  0  0  0
  -22.1662   -4.2131   21.0979 F   0  0  0  0  0  0
  -21.5635   -3.4547   25.7744 F   0  0  0  0  0  0
  -29.9194  -13.7810   20.3730 N   0  0  0  0  0  0
  -26.2842  -12.9485   20.3237 N   0  0  0  0  0  0
  -25.9338  -11.6610   20.5755 N   0  0  0  0  0  0
  -22.0430  -12.8160   22.0453 N   0  0  0  0  0  0
  -25.4075  -15.1972   20.4191 N   0  0  0  0  0  0
  -31.6793  -15.1286   20.0953 O   0  0  0  0  0  0
  -21.6654   -6.8873   21.4236 O   0  0  0  0  0  0
  -22.3445  -14.5495   20.6761 O   0  0  0  0  0  0
  -24.6436  -31.8351   23.1784 C   0  0  0  0  0  0
  -25.9197  -32.4626   23.8211 C   0  0  1  0  0  0
  -27.2096  -27.0691   20.1769 C   0  0  0  0  0  0
  -25.5925  -33.8429   24.2136 N   0  0  0  0  0  0
  -23.4504  -30.4523   21.5229 C   0  0  2  0  0  0
  -24.9026  -28.8626   20.1095 C   0  0  0  0  0  0
  -22.7570  -29.4516   22.4793 C   0  0  0  0  0  0
  -18.0302  -28.1394   22.8435 C   0  0  0  0  0  0
  -24.1493  -36.7241   23.2646 C   0  0  0  0  0  0
  -26.0085  -30.6935   21.3814 C   0  0  0  0  0  0
  -26.0812  -29.2939   20.7296 C   0  0  0  0  0  0
  -27.2377  -28.4175   20.7387 C   0  0  0  0  0  0
  -26.0062  -26.7458   19.5144 C   0  0  0  0  0  0
  -24.8820  -27.6026   19.4873 C   0  0  0  0  0  0
  -23.6822  -29.7711   20.1465 C   0  0  0  0  0  0
  -25.4121  -36.2964   24.0311 C   0  0  1  0  0  0
  -20.5910  -28.3723   23.1195 C   0  0  2  0  0  0
  -20.6780  -26.9417   22.5384 C   0  0  0  0  0  0
  -19.5767  -26.6390   21.5166 C   0  0  0  0  0  0
  -18.1947  -26.7934   22.1590 C   0  0  0  0  0  0
  -19.1569  -28.8877   23.2804 C   0  0  0  0  0  0
  -18.9501  -30.1478   23.8835 C   0  0  0  0  0  0
  -17.6504  -30.6586   24.0558 C   0  0  0  0  0  0
  -25.9067  -34.9350   23.5043 C   0  0  0  0  0  0
  -16.5388  -29.9099   23.6339 C   0  0  0  0  0  0
  -16.7287  -28.6527   23.0328 C   0  0  0  0  0  0
  -26.4500  -31.6516   25.0693 C   0  0  0  0  0  0
  -25.3666  -31.3773   26.1392 C   0  0  0  0  0  0
  -27.0407  -30.2906   24.6322 C   0  0  0  0  0  0
  -27.6037  -32.4297   25.7461 C   0  0  0  0  0  0
  -27.5558  -37.1758   24.8459 C   0  0  0  0  0  0
  -21.4252  -29.3031   22.3551 N   0  0  0  0  0  0
  -26.4261  -37.3702   23.9405 N   0  0  0  0  0  0
  -24.7210  -31.0177   22.0829 N   0  0  0  0  0  0
  -23.4195  -28.8021   23.2936 O   0  0  0  0  0  0
  -28.2765  -26.0825   20.1829 O   0  0  0  0  0  0
  -26.5662  -34.8868   22.4630 O   0  0  0  0  0  0
  -23.5569  -32.1228   23.7005 O   0  0  0  0  0  0
  -29.3513  -20.2744   20.0679 C   0  0  0  0  0  0
  -30.3664  -20.0291   19.1518 C   0  0  0  0  0  0
  -29.8236  -17.7706   20.2040 C   0  0  0  0  0  0
  -27.5029  -24.9485   23.0865 C   0  0  0  0  0  0
  -29.5790  -23.3845   18.7214 C   0  0  0  0  0  0
  -27.1235  -24.3772   21.7071 C   0  0  0  0  0  0
  -28.5132  -23.0889   19.7817 C   0  0  1  0  0  0
  -28.2369  -24.5579   20.6502 C   0  0  1  0  0  0
  -29.0789  -18.9089   20.6368 N   0  0  0  0  0  0
  -28.7338  -21.6437   20.4436 N   0  0  0  0  0  0
  -29.6726  -16.2574   20.5542 N   0  0  0  0  0  0
  -30.9708  -20.9867   18.4103 F   0  0  0  0  0  0
  -30.9769  -18.3598   19.0065 S   0  0  0  0  0  0
  -31.4676  -12.8409   19.2060 H   0  0  0  0  0  0
  -30.4476  -11.7312   20.0724 H   0  0  0  0  0  0
  -29.8648  -11.7397   17.6274 H   0  0  0  0  0  0
  -29.6059  -13.4623   17.6725 H   0  0  0  0  0  0
  -27.9612  -11.2892   18.9901 H   0  0  0  0  0  0
  -27.4016  -12.4577   17.8208 H   0  0  0  0  0  0
  -27.5686  -14.2587   19.3966 H   0  0  0  0  0  0
  -28.7746  -12.3780   21.4852 H   0  0  0  0  0  0
  -28.3354  -14.0531   21.7395 H   0  0  0  0  0  0
  -25.2762   -9.5672   22.4786 H   0  0  0  0  0  0
  -24.0002   -7.4623   22.7472 H   0  0  0  0  0  0
  -21.0859   -8.8784   19.8935 H   0  0  0  0  0  0
  -22.3729  -10.9684   19.6172 H   0  0  0  0  0  0
  -21.2010   -7.6144   23.9694 H   0  0  0  0  0  0
  -21.1499   -6.0532   25.9063 H   0  0  0  0  0  0
  -22.0592   -2.7609   23.2859 H   0  0  0  0  0  0
  -22.4073  -11.9822   22.4833 H   0  0  0  0  0  0
  -21.1025  -13.1133   22.2644 H   0  0  0  0  0  0
  -24.6376  -15.8481   20.5281 H   0  0  0  0  0  0
  -26.2435  -15.6367   20.0621 H   0  0  0  0  0  0
  -26.7264  -32.5205   23.0938 H   0  0  0  0  0  0
  -25.0016  -33.9530   25.0247 H   0  0  0  0  0  0
  -22.7563  -31.2772   21.3575 H   0  0  0  0  0  0
  -23.3724  -35.9599   23.3277 H   0  0  0  0  0  0
  -24.3571  -36.8915   22.2058 H   0  0  0  0  0  0
  -23.7277  -37.6446   23.6716 H   0  0  0  0  0  0
  -26.1556  -31.4443   20.6027 H   0  0  0  0  0  0
  -26.8814  -30.7578   22.0205 H   0  0  0  0  0  0
  -28.1395  -28.7487   21.2317 H   0  0  0  0  0  0
  -25.9204  -25.7809   19.0345 H   0  0  0  0  0  0
  -23.9808  -27.2674   18.9922 H   0  0  0  0  0  0
  -23.8178  -30.5361   19.3823 H   0  0  0  0  0  0
  -22.7981  -29.2115   19.8357 H   0  0  0  0  0  0
  -25.1303  -36.1779   25.0800 H   0  0  0  0  0  0
  -21.0001  -28.3316   24.1320 H   0  0  0  0  0  0
  -20.5619  -26.2339   23.3604 H   0  0  0  0  0  0
  -21.6656  -26.7391   22.1201 H   0  0  0  0  0  0
  -19.6936  -25.6291   21.1216 H   0  0  0  0  0  0
  -19.6719  -27.3180   20.6671 H   0  0  0  0  0  0
  -17.4197  -26.6640   21.4004 H   0  0  0  0  0  0
  -18.0386  -26.0098   22.9029 H   0  0  0  0  0  0
  -19.7996  -30.7306   24.2162 H   0  0  0  0  0  0
  -17.5070  -31.6261   24.5209 H   0  0  0  0  0  0
  -15.5373  -30.3004   23.7709 H   0  0  0  0  0  0
  -15.8678  -28.0856   22.7047 H   0  0  0  0  0  0
  -24.5899  -30.7052   25.7732 H   0  0  0  0  0  0
  -24.8808  -32.2991   26.4608 H   0  0  0  0  0  0
  -25.7941  -30.9108   27.0285 H   0  0  0  0  0  0
  -26.3074  -29.6586   24.1316 H   0  0  0  0  0  0
  -27.3983  -29.7236   25.4932 H   0  0  0  0  0  0
  -27.8973  -30.4119   23.9682 H   0  0  0  0  0  0
  -27.2663  -33.3672   26.1891 H   0  0  0  0  0  0
  -28.3930  -32.6738   25.0330 H   0  0  0  0  0  0
  -28.0626  -31.8520   26.5499 H   0  0  0  0  0  0
  -28.2540  -38.0077   24.7478 H   0  0  0  0  0  0
  -28.1091  -36.2604   24.6320 H   0  0  0  0  0  0
  -27.2281  -37.1435   25.8862 H   0  0  0  0  0  0
  -20.9458  -29.8792   21.6761 H   0  0  0  0  0  0
  -26.0116  -38.2757   24.1451 H   0  0  0  0  0  0
  -26.6914  -24.8107   23.8038 H   0  0  0  0  0  0
  -27.7255  -26.0158   23.0387 H   0  0  0  0  0  0
  -28.3807  -24.4327   23.4825 H   0  0  0  0  0  0
  -30.5827  -23.2732   19.1284 H   0  0  0  0  0  0
  -29.4918  -24.4033   18.3402 H   0  0  0  0  0  0
  -29.4589  -22.7279   17.8599 H   0  0  0  0  0  0
  -26.1802  -24.7980   21.3631 H   0  0  0  0  0  0
  -26.9211  -23.3177   21.8423 H   0  0  0  0  0  0
  -27.5862  -22.9608   19.2197 H   0  0  0  0  0  0
  -29.1522  -24.5673   21.2398 H   0  0  0  0  0  0
  -28.1254  -21.5340   21.2491 H   0  0  0  0  0  0
  -28.7516  -16.0383   20.9013 H   0  0  0  0  0  0
  1 25  1  0  0  0
  1 30  2  0  0  0
  1 81  1  0  0  0
  2  3  1  0  0  0
  2 25  1  0  0  0
  2 84  1  0  0  0
  2 85  1  0  0  0
  3  4  1  0  0  0
  3 86  1  0  0  0
  3 87  1  0  0  0
  4  5  1  0  0  0
  4 88  1  0  0  0
  4 89  1  0  0  0
  5  6  1  0  0  0
  5 26  1  0  0  0
  5 90  1  0  0  0
  6 25  1  0  0  0
  6 91  1  0  0  0
  6 92  1  0  0  0
  7  8  2  0  0  0
  7 26  1  0  0  0
  7 29  1  0  0  0
  8  9  1  0  0  0
  8 22  1  0  0  0
  9 10  1  0  0  0
  9 27  2  0  0  0
 10 11  2  0  0  0
 10 15  1  0  0  0
 11 12  1  0  0  0
 11 93  1  0  0  0
 12 13  2  0  0  0
 12 94  1  0  0  0
 13 14  1  0  0  0
 13 31  1  0  0  0
 14 15  2  0  0  0
 14 95  1  0  0  0
 15 96  1  0  0  0
 16 17  2  0  0  0
 16 21  1  0  0  0
 16 31  1  0  0  0
 17 18  1  0  0  0
 17 97  1  0  0  0
 18 19  2  0  0  0
 18 98  1  0  0  0
 19 20  1  0  0  0
 19 24  1  0  0  0
 20 21  2  0  0  0
 20 99  1  0  0  0
 21 23  1  0  0  0
 22 28  1  0  0  0
 22 32  2  0  0  0
 26 27  1  0  0  0
 28100  1  0  0  0
 28101  1  0  0  0
 29102  1  0  0  0
 29103  1  0  0  0
 33 34  1  0  0  0
 33 66  1  0  0  0
 33 70  2  0  0  0
 34 36  1  0  0  0
 34 59  1  0  0  0
 34104  1  0  0  0
 35 44  2  0  0  0
 35 45  1  0  0  0
 35 68  1  0  0  0
 36 56  1  0  0  0
 36105  1  0  0  0
 37 39  1  0  0  0
 37 47  1  0  0  0
 37 66  1  0  0  0
 37106  1  0  0  0
 38 43  2  0  0  0
 38 46  1  0  0  0
 38 47  1  0  0  0
 39 64  1  0  0  0
 39 67  2  0  0  0
 40 52  1  0  0  0
 40 53  2  0  0  0
 40 58  1  0  0  0
 41107  1  0  0  0
 41108  1  0  0  0
 41109  1  0  0  0
 41 48  1  0  0  0
 42 43  1  0  0  0
 42 66  1  0  0  0
 42110  1  0  0  0
 42111  1  0  0  0
 43 44  1  0  0  0
 44112  1  0  0  0
 45 46  2  0  0  0
 45113  1  0  0  0
 46114  1  0  0  0
 47115  1  0  0  0
 47116  1  0  0  0
 48 56  1  0  0  0
 48 65  1  0  0  0
 48117  1  0  0  0
 49 50  1  0  0  0
 49 53  1  0  0  0
 49 64  1  0  0  0
 49118  1  0  0  0
 50 51  1  0  0  0
 50119  1  0  0  0
 50120  1  0  0  0
 51 52  1  0  0  0
 51121  1  0  0  0
 51122  1  0  0  0
 52123  1  0  0  0
 52124  1  0  0  0
 53 54  1  0  0  0
 54 55  2  0  0  0
 54125  1  0  0  0
 55 57  1  0  0  0
 55126  1  0  0  0
 56 69  2  0  0  0
 57 58  2  0  0  0
 57127  1  0  0  0
 58128  1  0  0  0
 59 60  1  0  0  0
 59 61  1  0  0  0
 59 62  1  0  0  0
 60129  1  0  0  0
 60130  1  0  0  0
 60131  1  0  0  0
 61132  1  0  0  0
 61133  1  0  0  0
 61134  1  0  0  0
 62135  1  0  0  0
 62136  1  0  0  0
 62137  1  0  0  0
 63 65  1  0  0  0
 63138  1  0  0  0
 63139  1  0  0  0
 63140  1  0  0  0
 64141  1  0  0  0
 65142  1  0  0  0
 68 78  1  0  0  0
 71 72  2  0  0  0
 71 79  1  0  0  0
 71 80  1  0  0  0
 72 82  1  0  0  0
 72 83  1  0  0  0
 73 79  2  0  0  0
 73 81  1  0  0  0
 73 83  1  0  0  0
 74 76  1  0  0  0
 74143  1  0  0  0
 74144  1  0  0  0
 74145  1  0  0  0
 75146  1  0  0  0
 75147  1  0  0  0
 75148  1  0  0  0
 75 77  1  0  0  0
 76149  1  0  0  0
 76150  1  0  0  0
 76 78  1  0  0  0
 77 78  1  0  0  0
 77 80  1  0  0  0
 77151  1  0  0  0
 78152  1  0  0  0
 80153  1  0  0  0
 81154  1  0  0  0
M  ISO  4   1 100  68 101  78 101  81 100
M  END
> <chiral flag>
0

> <version>
0

> <s_m_source_file>
/data/baiqing/PycharmProjects/Reinvent-master-3.2/result/LINK_invent/BTK/process_docking_weight1_custom_product_contain_oxygen_bond_distance_aromatic_linkinvent_7_9_3/rearranged_h_0186.sdf

> <i_m_source_file_index>
12

> <r_mmod_Potential_Energy-OPLS-2005>
682.24658203125

> <r_mmod_Stretch_Energy-OPLS-2005>
342.441741943359

> <r_mmod_Bend_Energy-OPLS-2005>
324.814025878906

> <r_mmod_Torsional_Energy-OPLS-2005>
249.222518920898

> <r_mmod_Improper_Torsional_Energy-OPLS-2005>
4.40593910217285

> <r_mmod_Van_der_Waal_Energy-OPLS-2005>
107.150382995605

> <r_mmod_Electrostatic_Energy-OPLS-2005>
-398.787506103516

> <r_mmod_Solvation_Energy-OPLS-2005>
-215.304275512695

> <b_mmod_Minimization_Converged-OPLS-2005>
0

> <r_mmod_RMS_Derivative-OPLS-2005>
5.25402069091797

$$$$
13
                    3D
 Structure written by MMmdl.
162170  0  0  1  0            999 V2000
  -31.3416  -14.5445   21.2653 C   0  0  0  0  0  0
  -30.6325  -14.6630   18.9015 C   0  0  0  0  0  0
  -29.1615  -14.7216   17.6617 C   0  0  0  0  0  0
  -27.4653  -14.1273   18.3266 C   0  0  0  0  0  0
  -27.3763  -13.6107   20.1050 C   0  0  2  0  0  0
  -28.7956  -13.7050   21.1847 C   0  0  0  0  0  0
  -25.0384  -13.9109   20.6311 C   0  0  0  0  0  0
  -24.0262  -13.0734   20.9575 C   0  0  0  0  0  0
  -24.5276  -11.7359   20.9103 C   0  0  0  0  0  0
  -23.8609  -10.4423   21.0587 C   0  0  0  0  0  0
  -24.3410   -9.4364   21.9272 C   0  0  0  0  0  0
  -23.6296   -8.2247   22.0741 C   0  0  0  0  0  0
  -22.4278   -8.0202   21.3529 C   0  0  0  0  0  0
  -21.9824   -9.0115   20.4609 C   0  0  0  0  0  0
  -22.6949  -10.2108   20.3123 C   0  0  0  0  0  0
  -21.6887   -6.0690   22.5292 C   0  0  0  0  0  0
  -21.4016   -6.5616   23.8216 C   0  0  0  0  0  0
  -21.3657   -5.6779   24.9183 C   0  0  0  0  0  0
  -21.6062   -4.3038   24.7256 C   0  0  0  0  0  0
  -21.8822   -3.8113   23.4381 C   0  0  0  0  0  0
  -21.9207   -4.6920   22.3437 C   0  0  0  0  0  0
  -22.6382  -13.5193   21.2050 C   0  0  0  0  0  0
  -22.1668   -4.2103   21.1013 F   0  0  0  0  0  0
  -21.5655   -3.4542   25.7774 F   0  0  0  0  0  0
  -30.2730  -14.2763   20.5587 N   0  0  0  0  0  0
  -26.1024  -13.1082   20.4825 N   0  0  0  0  0  0
  -25.8001  -11.7642   20.6151 N   0  0  0  0  0  0
  -21.9221  -12.8039   22.0572 N   0  0  0  0  0  0
  -25.1667  -15.2768   20.4179 N   0  0  0  0  0  0
  -32.4150  -14.6181   20.6732 O   0  0  0  0  0  0
  -21.6679   -6.8797   21.4233 O   0  0  0  0  0  0
  -22.2159  -14.5532   20.6922 O   0  0  0  0  0  0
  -24.7448  -31.7227   23.0975 C   0  0  0  0  0  0
  -25.9747  -32.4070   23.7727 C   0  0  1  0  0  0
  -27.0859  -26.0614   20.0935 C   0  0  0  0  0  0
  -25.6085  -33.7942   24.1552 N   0  0  0  0  0  0
  -23.5791  -30.3145   21.4759 C   0  0  2  0  0  0
  -24.9889  -28.5334   20.0927 C   0  0  0  0  0  0
  -22.7953  -29.3953   22.4569 C   0  0  0  0  0  0
  -18.0350  -28.1429   22.8421 C   0  0  0  0  0  0
  -24.1490  -36.6992   23.2678 C   0  0  0  0  0  0
  -26.1774  -30.2240   21.4421 C   0  0  0  0  0  0
  -26.1976  -28.7316   20.7648 C   0  0  0  0  0  0
  -27.2102  -27.5386   20.7227 C   0  0  0  0  0  0
  -25.8643  -26.2439   19.3705 C   0  0  0  0  0  0
  -24.8982  -27.3238   19.3763 C   0  0  0  0  0  0
  -23.8389  -29.5816   20.1211 C   0  0  0  0  0  0
  -25.4178  -36.2658   24.0218 C   0  0  1  0  0  0
  -20.6001  -28.3813   23.1036 C   0  0  2  0  0  0
  -20.6799  -26.9429   22.5407 C   0  0  0  0  0  0
  -19.5795  -26.6339   21.5208 C   0  0  0  0  0  0
  -18.1967  -26.7949   22.1579 C   0  0  0  0  0  0
  -19.1625  -28.8960   23.2694 C   0  0  0  0  0  0
  -18.9536  -30.1518   23.8790 C   0  0  0  0  0  0
  -17.6530  -30.6612   24.0526 C   0  0  0  0  0  0
  -25.9201  -34.9074   23.4757 C   0  0  0  0  0  0
  -16.5414  -29.9089   23.6350 C   0  0  0  0  0  0
  -16.7329  -28.6492   23.0401 C   0  0  0  0  0  0
  -26.4711  -31.6390   25.0625 C   0  0  0  0  0  0
  -25.3643  -31.3908   26.1160 C   0  0  0  0  0  0
  -27.0735  -30.2672   24.6937 C   0  0  0  0  0  0
  -27.5987  -32.4443   25.7503 C   0  0  0  0  0  0
  -27.5524  -37.1666   24.8485 C   0  0  0  0  0  0
  -21.4558  -29.2954   22.3307 N   0  0  0  0  0  0
  -26.4245  -37.3497   23.9394 N   0  0  0  0  0  0
  -24.8706  -30.8021   22.0570 N   0  0  0  0  0  0
  -23.4144  -28.7643   23.3160 O   0  0  0  0  0  0
  -27.8583  -24.5156   20.0800 O   0  0  0  0  0  0
  -26.5900  -34.8801   22.4414 O   0  0  0  0  0  0
  -23.6355  -32.0642   23.5573 O   0  0  0  0  0  0
  -28.3758  -16.5608   22.1208 C   0  0  0  0  0  0
  -27.8998  -16.3331   23.3901 C   0  0  0  0  0  0
  -30.2287  -15.8784   23.0082 C   0  0  0  0  0  0
  -28.2677  -18.1247   19.2053 C   0  0  0  0  0  0
  -29.4293  -10.4035   20.1410 C   0  0  0  0  0  0
  -29.7478  -12.2113   17.5353 C   0  0  0  0  0  0
  -28.2766  -20.2242   19.8421 C   0  0  0  0  0  0
  -30.1663  -11.7183   19.8013 C   0  0  0  0  0  0
  -27.7358  -22.4817   19.6373 C   0  0  0  0  0  0
  -28.6090  -15.8436   19.6850 C   0  0  2  0  0  0
  -29.2819  -12.8392   18.9715 C   0  0  1  0  0  0
  -29.7444  -16.7791   22.1585 N   0  0  0  0  0  0
  -27.7858  -16.1631   20.9037 N   0  0  0  0  0  0
  -31.1885  -14.9263   22.5573 N   0  0  0  0  0  0
  -27.8453  -18.1698   18.0491 O   0  0  0  0  0  0
  -26.5983  -16.1025   23.6909 F   0  0  0  0  0  0
  -29.1726  -15.6937   24.4131 S   0  0  0  0  0  0
  -31.1364  -15.6317   18.8359 H   0  0  0  0  0  0
  -31.4286  -14.0135   18.5303 H   0  0  0  0  0  0
  -29.4131  -14.3989   16.6523 H   0  0  0  0  0  0
  -29.0272  -15.7632   17.3623 H   0  0  0  0  0  0
  -27.0487  -13.3508   17.6855 H   0  0  0  0  0  0
  -26.7549  -14.9389   18.1715 H   0  0  0  0  0  0
  -27.6373  -12.5984   20.3148 H   0  0  0  0  0  0
  -28.9770  -12.7480   21.6735 H   0  0  0  0  0  0
  -28.5094  -14.1483   22.1211 H   0  0  0  0  0  0
  -25.2483   -9.5977   22.4947 H   0  0  0  0  0  0
  -24.0102   -7.4641   22.7408 H   0  0  0  0  0  0
  -21.0815   -8.8547   19.8868 H   0  0  0  0  0  0
  -22.3324  -10.9658   19.6311 H   0  0  0  0  0  0
  -21.1969   -7.6124   23.9695 H   0  0  0  0  0  0
  -21.1481   -6.0525   25.9095 H   0  0  0  0  0  0
  -22.0599   -2.7580   23.2897 H   0  0  0  0  0  0
  -22.2999  -11.9749   22.4890 H   0  0  0  0  0  0
  -20.9762  -13.0822   22.2761 H   0  0  0  0  0  0
  -25.7655  -15.5030   19.6315 H   0  0  0  0  0  0
  -24.2732  -15.7500   20.3326 H   0  0  0  0  0  0
  -26.7914  -32.4371   23.0493 H   0  0  0  0  0  0
  -25.0122  -33.8873   24.9636 H   0  0  0  0  0  0
  -22.9413  -31.1748   21.2599 H   0  0  0  0  0  0
  -23.3747  -35.9328   23.3305 H   0  0  0  0  0  0
  -24.3507  -36.8741   22.2099 H   0  0  0  0  0  0
  -23.7290  -37.6151   23.6849 H   0  0  0  0  0  0
  -26.4628  -30.9149   20.6481 H   0  0  0  0  0  0
  -27.0026  -30.2674   22.1375 H   0  0  0  0  0  0
  -28.1180  -27.7036   21.2830 H   0  0  0  0  0  0
  -25.5624  -25.3855   18.7847 H   0  0  0  0  0  0
  -23.9972  -27.1592   18.8006 H   0  0  0  0  0  0
  -24.0735  -30.3314   19.3649 H   0  0  0  0  0  0
  -22.9151  -29.1151   19.7748 H   0  0  0  0  0  0
  -25.1428  -36.1313   25.0706 H   0  0  0  0  0  0
  -21.0059  -28.3484   24.1171 H   0  0  0  0  0  0
  -20.5606  -26.2455   23.3718 H   0  0  0  0  0  0
  -21.6662  -26.7302   22.1267 H   0  0  0  0  0  0
  -19.6954  -25.6222   21.1304 H   0  0  0  0  0  0
  -19.6760  -27.3087   20.6693 H   0  0  0  0  0  0
  -17.4246  -26.6683   21.3966 H   0  0  0  0  0  0
  -18.0337  -26.0117   22.8991 H   0  0  0  0  0  0
  -19.8030  -30.7316   24.2141 H   0  0  0  0  0  0
  -17.5103  -31.6291   24.5131 H   0  0  0  0  0  0
  -15.5419  -30.2975   23.7751 H   0  0  0  0  0  0
  -15.8712  -28.0766   22.7246 H   0  0  0  0  0  0
  -24.5898  -30.7153   25.7523 H   0  0  0  0  0  0
  -24.8780  -32.3196   26.4144 H   0  0  0  0  0  0
  -25.7734  -30.9422   27.0221 H   0  0  0  0  0  0
  -26.3535  -29.6100   24.2058 H   0  0  0  0  0  0
  -27.4071  -29.7351   25.5853 H   0  0  0  0  0  0
  -27.9539  -30.3689   24.0594 H   0  0  0  0  0  0
  -27.2349  -33.3839   26.1678 H   0  0  0  0  0  0
  -28.3993  -32.6869   25.0507 H   0  0  0  0  0  0
  -28.0448  -31.8899   26.5769 H   0  0  0  0  0  0
  -28.2534  -37.9950   24.7401 H   0  0  0  0  0  0
  -28.1003  -36.2448   24.6458 H   0  0  0  0  0  0
  -27.2223  -37.1496   25.8887 H   0  0  0  0  0  0
  -20.9992  -29.8564   21.6257 H   0  0  0  0  0  0
  -25.9992  -38.2515   24.1370 H   0  0  0  0  0  0
  -30.0796   -9.7486   20.7251 H   0  0  0  0  0  0
  -29.1235   -9.8568   19.2512 H   0  0  0  0  0  0
  -28.5369  -10.5775   20.7454 H   0  0  0  0  0  0
  -29.8337  -11.1227   17.5191 H   0  0  0  0  0  0
  -30.7145  -12.5640   17.1770 H   0  0  0  0  0  0
  -29.0242  -12.3699   16.7324 H   0  0  0  0  0  0
  -28.0742  -20.0783   20.9018 H   0  0  0  0  0  0
  -29.3600  -20.3296   19.7999 H   0  0  0  0  0  0
  -31.0830  -11.4650   19.2648 H   0  0  0  0  0  0
  -30.6362  -11.9932   20.7385 H   0  0  0  0  0  0
  -26.6499  -22.4056   19.5792 H   0  0  0  0  0  0
  -28.0284  -22.5856   18.5914 H   0  0  0  0  0  0
  -29.5681  -16.2491   19.9582 H   0  0  0  0  0  0
  -28.4646  -12.1441   18.7273 H   0  0  0  0  0  0
  -26.7990  -15.8790   20.9320 H   0  0  0  0  0  0
  -32.0079  -14.8478   23.1403 H   0  0  0  0  0  0
  1 25  1  0  0  0
  1 30  2  0  0  0
  1 84  1  0  0  0
  2  3  1  0  0  0
  2 25  1  0  0  0
  2 88  1  0  0  0
  2 89  1  0  0  0
  3  4  1  0  0  0
  3 90  1  0  0  0
  3 91  1  0  0  0
  4  5  1  0  0  0
  4 92  1  0  0  0
  4 93  1  0  0  0
  5  6  1  0  0  0
  5 26  1  0  0  0
  5 94  1  0  0  0
  6 25  1  0  0  0
  6 95  1  0  0  0
  6 96  1  0  0  0
  7  8  2  0  0  0
  7 26  1  0  0  0
  7 29  1  0  0  0
  8  9  1  0  0  0
  8 22  1  0  0  0
  9 10  1  0  0  0
  9 27  2  0  0  0
 10 11  2  0  0  0
 10 15  1  0  0  0
 11 12  1  0  0  0
 11 97  1  0  0  0
 12 13  2  0  0  0
 12 98  1  0  0  0
 13 14  1  0  0  0
 13 31  1  0  0  0
 14 15  2  0  0  0
 14 99  1  0  0  0
 15100  1  0  0  0
 16 17  2  0  0  0
 16 21  1  0  0  0
 16 31  1  0  0  0
 17 18  1  0  0  0
 17101  1  0  0  0
 18 19  2  0  0  0
 18102  1  0  0  0
 19 20  1  0  0  0
 19 24  1  0  0  0
 20 21  2  0  0  0
 20103  1  0  0  0
 21 23  1  0  0  0
 22 28  1  0  0  0
 22 32  2  0  0  0
 26 27  1  0  0  0
 28104  1  0  0  0
 28105  1  0  0  0
 29106  1  0  0  0
 29107  1  0  0  0
 33 34  1  0  0  0
 33 66  1  0  0  0
 33 70  2  0  0  0
 34 36  1  0  0  0
 34 59  1  0  0  0
 34108  1  0  0  0
 35 44  2  0  0  0
 35 45  1  0  0  0
 35 68  1  0  0  0
 36 56  1  0  0  0
 36109  1  0  0  0
 37 39  1  0  0  0
 37 47  1  0  0  0
 37 66  1  0  0  0
 37110  1  0  0  0
 38 43  2  0  0  0
 38 46  1  0  0  0
 38 47  1  0  0  0
 39 64  1  0  0  0
 39 67  2  0  0  0
 40 52  1  0  0  0
 40 53  2  0  0  0
 40 58  1  0  0  0
 41111  1  0  0  0
 41112  1  0  0  0
 41113  1  0  0  0
 41 48  1  0  0  0
 42 43  1  0  0  0
 42 66  1  0  0  0
 42114  1  0  0  0
 42115  1  0  0  0
 43 44  1  0  0  0
 44116  1  0  0  0
 45 46  2  0  0  0
 45117  1  0  0  0
 46118  1  0  0  0
 47119  1  0  0  0
 47120  1  0  0  0
 48 56  1  0  0  0
 48 65  1  0  0  0
 48121  1  0  0  0
 49 50  1  0  0  0
 49 53  1  0  0  0
 49 64  1  0  0  0
 49122  1  0  0  0
 50 51  1  0  0  0
 50123  1  0  0  0
 50124  1  0  0  0
 51 52  1  0  0  0
 51125  1  0  0  0
 51126  1  0  0  0
 52127  1  0  0  0
 52128  1  0  0  0
 53 54  1  0  0  0
 54 55  2  0  0  0
 54129  1  0  0  0
 55 57  1  0  0  0
 55130  1  0  0  0
 56 69  2  0  0  0
 57 58  2  0  0  0
 57131  1  0  0  0
 58132  1  0  0  0
 59 60  1  0  0  0
 59 61  1  0  0  0
 59 62  1  0  0  0
 60133  1  0  0  0
 60134  1  0  0  0
 60135  1  0  0  0
 61136  1  0  0  0
 61137  1  0  0  0
 61138  1  0  0  0
 62139  1  0  0  0
 62140  1  0  0  0
 62141  1  0  0  0
 63 65  1  0  0  0
 63142  1  0  0  0
 63143  1  0  0  0
 63144  1  0  0  0
 64145  1  0  0  0
 65146  1  0  0  0
 68 79  1  0  0  0
 71 72  2  0  0  0
 71 82  1  0  0  0
 71 83  1  0  0  0
 72 86  1  0  0  0
 72 87  1  0  0  0
 73 82  2  0  0  0
 73 84  1  0  0  0
 73 87  1  0  0  0
 74 77  1  0  0  0
 74 80  1  0  0  0
 74 85  2  0  0  0
 75 78  1  0  0  0
 75147  1  0  0  0
 75148  1  0  0  0
 75149  1  0  0  0
 76150  1  0  0  0
 76151  1  0  0  0
 76152  1  0  0  0
 76 81  1  0  0  0
 77 79  1  0  0  0
 77153  1  0  0  0
 77154  1  0  0  0
 78 81  1  0  0  0
 78155  1  0  0  0
 78156  1  0  0  0
 79157  1  0  0  0
 79158  1  0  0  0
 80 81  1  0  0  0
 80 83  1  0  0  0
 80159  1  0  0  0
 81160  1  0  0  0
 83161  1  0  0  0
 84162  1  0  0  0
M  ISO  4   1 100  68 101  79 101  84 100
M  END
> <chiral flag>
0

> <version>
0

> <s_m_source_file>
/data/baiqing/PycharmProjects/Reinvent-master-3.2/result/LINK_invent/BTK/process_docking_weight1_custom_product_contain_oxygen_bond_distance_aromatic_linkinvent_7_9_3/rearranged_h_0186.sdf

> <i_m_source_file_index>
13

> <r_mmod_Potential_Energy-OPLS-2005>
12944.51953125

> <r_mmod_Stretch_Energy-OPLS-2005>
6918.52734375

> <r_mmod_Bend_Energy-OPLS-2005>
1552.25598144531

> <r_mmod_Torsional_Energy-OPLS-2005>
439.470428466797

> <r_mmod_Improper_Torsional_Energy-OPLS-2005>
28.1281967163086

> <r_mmod_Van_der_Waal_Energy-OPLS-2005>
1642.23852539062

> <r_mmod_Electrostatic_Energy-OPLS-2005>
-444.79150390625

> <r_mmod_Solvation_Energy-OPLS-2005>
-200.453063964844

> <b_mmod_Minimization_Converged-OPLS-2005>
0

> <r_mmod_RMS_Derivative-OPLS-2005>
5.00097513198853

$$$$
14
                    3D
 Structure written by MMmdl.
150158  0  0  1  0            999 V2000
  -30.5891  -14.7260   20.4714 C   0  0  0  0  0  0
  -30.4385  -12.4393   19.4773 C   0  0  0  0  0  0
  -29.5137  -12.5078   18.2395 C   0  0  0  0  0  0
  -28.0375  -12.3361   18.6477 C   0  0  0  0  0  0
  -27.6462  -13.2248   19.8575 C   0  0  2  0  0  0
  -28.6874  -13.1251   20.9952 C   0  0  0  0  0  0
  -25.2524  -13.8186   20.5685 C   0  0  0  0  0  0
  -24.1803  -13.0438   20.9193 C   0  0  0  0  0  0
  -24.6380  -11.6910   20.8732 C   0  0  0  0  0  0
  -23.9056  -10.4289   21.0403 C   0  0  0  0  0  0
  -24.3610   -9.4209   21.9185 C   0  0  0  0  0  0
  -23.6284   -8.2247   22.0757 C   0  0  0  0  0  0
  -22.4270   -8.0281   21.3548 C   0  0  0  0  0  0
  -21.9899   -9.0254   20.4655 C   0  0  0  0  0  0
  -22.7228  -10.2131   20.3061 C   0  0  0  0  0  0
  -21.6854   -6.0734   22.5276 C   0  0  0  0  0  0
  -21.4021   -6.5639   23.8207 C   0  0  0  0  0  0
  -21.3656   -5.6793   24.9169 C   0  0  0  0  0  0
  -21.6043   -4.3057   24.7222 C   0  0  0  0  0  0
  -21.8817   -3.8147   23.4339 C   0  0  0  0  0  0
  -21.9188   -4.6962   22.3395 C   0  0  0  0  0  0
  -22.7825  -13.5230   21.1856 C   0  0  0  0  0  0
  -22.1661   -4.2147   21.0973 F   0  0  0  0  0  0
  -21.5620   -3.4543   25.7736 F   0  0  0  0  0  0
  -29.9977  -13.4830   20.4310 N   0  0  0  0  0  0
  -26.2945  -12.9377   20.3284 N   0  0  0  0  0  0
  -25.9308  -11.6524   20.5743 N   0  0  0  0  0  0
  -22.0462  -12.8235   22.0419 N   0  0  0  0  0  0
  -25.4242  -15.1911   20.4110 N   0  0  0  0  0  0
  -31.7510  -14.8690   20.0728 O   0  0  0  0  0  0
  -21.6636   -6.8879   21.4240 O   0  0  0  0  0  0
  -22.3511  -14.5532   20.6694 O   0  0  0  0  0  0
  -24.6298  -31.8565   23.1989 C   0  0  0  0  0  0
  -25.9122  -32.4764   23.8336 C   0  0  1  0  0  0
  -27.2231  -27.2712   20.1241 C   0  0  0  0  0  0
  -25.5917  -33.8563   24.2255 N   0  0  0  0  0  0
  -23.4262  -30.4785   21.5425 C   0  0  2  0  0  0
  -24.8740  -28.9282   20.1092 C   0  0  0  0  0  0
  -22.7496  -29.4607   22.4920 C   0  0  0  0  0  0
  -18.0291  -28.1395   22.8483 C   0  0  0  0  0  0
  -24.1488  -36.7290   23.2640 C   0  0  0  0  0  0
  -25.9704  -30.7720   21.3771 C   0  0  0  0  0  0
  -26.0440  -29.3943   20.7211 C   0  0  0  0  0  0
  -27.2190  -28.5771   20.7213 C   0  0  0  0  0  0
  -26.0317  -26.8780   19.4716 C   0  0  0  0  0  0
  -24.8727  -27.6777   19.4743 C   0  0  0  0  0  0
  -23.6434  -29.8129   20.1586 C   0  0  0  0  0  0
  -25.4112  -36.3074   24.0324 C   0  0  1  0  0  0
  -20.5894  -28.3704   23.1272 C   0  0  2  0  0  0
  -20.6781  -26.9424   22.5410 C   0  0  0  0  0  0
  -19.5755  -26.6388   21.5214 C   0  0  0  0  0  0
  -18.1935  -26.7936   22.1627 C   0  0  0  0  0  0
  -19.1545  -28.8867   23.2871 C   0  0  0  0  0  0
  -18.9467  -30.1460   23.8903 C   0  0  0  0  0  0
  -17.6466  -30.6596   24.0565 C   0  0  0  0  0  0
  -25.9053  -34.9443   23.5095 C   0  0  0  0  0  0
  -16.5356  -29.9097   23.6324 C   0  0  0  0  0  0
  -16.7275  -28.6510   23.0352 C   0  0  0  0  0  0
  -26.4492  -31.6588   25.0723 C   0  0  0  0  0  0
  -25.3707  -31.3744   26.1438 C   0  0  0  0  0  0
  -27.0335  -30.3010   24.6197 C   0  0  0  0  0  0
  -27.6052  -32.4322   25.7495 C   0  0  0  0  0  0
  -27.5571  -37.1798   24.8459 C   0  0  0  0  0  0
  -21.4207  -29.3046   22.3660 N   0  0  0  0  0  0
  -26.4288  -37.3769   23.9403 N   0  0  0  0  0  0
  -24.6946  -31.0535   22.0965 N   0  0  0  0  0  0
  -23.4193  -28.8151   23.3023 O   0  0  0  0  0  0
  -28.3246  -26.3862   20.2025 O   0  0  0  0  0  0
  -26.5634  -34.8915   22.4672 O   0  0  0  0  0  0
  -23.5449  -32.1384   23.7284 O   0  0  0  0  0  0
  -29.9688  -19.2171   19.3570 C   0  0  0  0  0  0
  -29.5029  -19.8390   20.5087 C   0  0  0  0  0  0
  -29.8513  -17.2454   20.6016 C   0  0  0  0  0  0
  -29.0856  -22.2938   19.9714 C   0  0  0  0  0  0
  -30.5823  -24.2925   20.4287 C   0  0  0  0  0  0
  -28.1509  -24.9211   19.9033 C   0  0  0  0  0  0
  -29.1290  -23.7984   20.5376 C   0  0  1  0  0  0
  -30.1668  -17.8021   19.4192 N   0  0  0  0  0  0
  -29.2862  -21.1993   20.7933 N   0  0  0  0  0  0
  -29.8060  -15.7923   20.8703 N   0  0  0  0  0  0
  -28.8880  -22.1339   18.7648 O   0  0  0  0  0  0
  -29.2739  -18.5368   21.7155 S   0  0  0  0  0  0
  -31.4803  -12.5674   19.1786 H   0  0  0  0  0  0
  -30.3844  -11.4556   19.9454 H   0  0  0  0  0  0
  -29.7921  -11.7398   17.5166 H   0  0  0  0  0  0
  -29.6458  -13.4661   17.7344 H   0  0  0  0  0  0
  -27.8863  -11.2858   18.9008 H   0  0  0  0  0  0
  -27.3825  -12.5413   17.8002 H   0  0  0  0  0  0
  -27.6515  -14.2522   19.4923 H   0  0  0  0  0  0
  -28.7139  -12.1140   21.4035 H   0  0  0  0  0  0
  -28.4160  -13.7771   21.8272 H   0  0  0  0  0  0
  -25.2756   -9.5683   22.4758 H   0  0  0  0  0  0
  -23.9994   -7.4636   22.7473 H   0  0  0  0  0  0
  -21.0827   -8.8765   19.8965 H   0  0  0  0  0  0
  -22.3678  -10.9666   19.6168 H   0  0  0  0  0  0
  -21.2032   -7.6151   23.9712 H   0  0  0  0  0  0
  -21.1479   -6.0526   25.9071 H   0  0  0  0  0  0
  -22.0601   -2.7613   23.2837 H   0  0  0  0  0  0
  -22.4081  -11.9905   22.4823 H   0  0  0  0  0  0
  -21.1081  -13.1272   22.2622 H   0  0  0  0  0  0
  -24.6564  -15.8462   20.5160 H   0  0  0  0  0  0
  -26.2665  -15.6254   20.0563 H   0  0  0  0  0  0
  -26.7191  -32.5422   23.1079 H   0  0  0  0  0  0
  -25.0024  -33.9706   25.0374 H   0  0  0  0  0  0
  -22.7216  -31.3003   21.3974 H   0  0  0  0  0  0
  -23.3747  -35.9627   23.3303 H   0  0  0  0  0  0
  -24.3582  -36.8916   22.2057 H   0  0  0  0  0  0
  -23.7244  -37.6491   23.6669 H   0  0  0  0  0  0
  -26.1037  -31.5307   20.6050 H   0  0  0  0  0  0
  -26.8502  -30.8261   22.0064 H   0  0  0  0  0  0
  -28.1119  -28.9264   21.2205 H   0  0  0  0  0  0
  -25.9625  -25.9300   18.9603 H   0  0  0  0  0  0
  -23.9790  -27.3184   18.9832 H   0  0  0  0  0  0
  -23.7648  -30.5892   19.4022 H   0  0  0  0  0  0
  -22.7619  -29.2446   19.8554 H   0  0  0  0  0  0
  -25.1295  -36.1927   25.0817 H   0  0  0  0  0  0
  -20.9980  -28.3289   24.1395 H   0  0  0  0  0  0
  -20.5692  -26.2316   23.3615 H   0  0  0  0  0  0
  -21.6649  -26.7459   22.1200 H   0  0  0  0  0  0
  -19.6927  -25.6297   21.1251 H   0  0  0  0  0  0
  -19.6698  -27.3192   20.6738 H   0  0  0  0  0  0
  -17.4205  -26.6668   21.4033 H   0  0  0  0  0  0
  -18.0347  -26.0084   22.9032 H   0  0  0  0  0  0
  -19.7943  -30.7269   24.2284 H   0  0  0  0  0  0
  -17.5024  -31.6279   24.5163 H   0  0  0  0  0  0
  -15.5359  -30.3009   23.7644 H   0  0  0  0  0  0
  -15.8670  -28.0827   22.7079 H   0  0  0  0  0  0
  -24.5881  -30.7099   25.7755 H   0  0  0  0  0  0
  -24.8898  -32.2919   26.4841 H   0  0  0  0  0  0
  -25.8009  -30.8928   27.0228 H   0  0  0  0  0  0
  -26.2921  -29.6764   24.1201 H   0  0  0  0  0  0
  -27.4003  -29.7262   25.4710 H   0  0  0  0  0  0
  -27.8801  -30.4290   23.9449 H   0  0  0  0  0  0
  -27.2670  -33.3626   26.2067 H   0  0  0  0  0  0
  -28.3866  -32.6874   25.0325 H   0  0  0  0  0  0
  -28.0715  -31.8450   26.5414 H   0  0  0  0  0  0
  -28.2590  -38.0093   24.7501 H   0  0  0  0  0  0
  -28.1068  -36.2623   24.6296 H   0  0  0  0  0  0
  -27.2290  -37.1457   25.8864 H   0  0  0  0  0  0
  -20.9398  -29.8760   21.6856 H   0  0  0  0  0  0
  -26.0167  -38.2845   24.1410 H   0  0  0  0  0  0
  -30.2188  -19.7155   18.4310 H   0  0  0  0  0  0
  -31.2848  -23.5751   20.8544 H   0  0  0  0  0  0
  -30.7170  -25.2352   20.9602 H   0  0  0  0  0  0
  -30.8662  -24.4559   19.3884 H   0  0  0  0  0  0
  -27.1498  -24.6179   20.2105 H   0  0  0  0  0  0
  -28.1715  -24.8228   18.8172 H   0  0  0  0  0  0
  -28.8883  -23.7328   21.5991 H   0  0  0  0  0  0
  -29.3148  -21.4305   21.7778 H   0  0  0  0  0  0
  -28.9788  -15.5043   21.3696 H   0  0  0  0  0  0
  1 25  1  0  0  0
  1 30  2  0  0  0
  1 80  1  0  0  0
  2  3  1  0  0  0
  2 25  1  0  0  0
  2 83  1  0  0  0
  2 84  1  0  0  0
  3  4  1  0  0  0
  3 85  1  0  0  0
  3 86  1  0  0  0
  4  5  1  0  0  0
  4 87  1  0  0  0
  4 88  1  0  0  0
  5  6  1  0  0  0
  5 26  1  0  0  0
  5 89  1  0  0  0
  6 25  1  0  0  0
  6 90  1  0  0  0
  6 91  1  0  0  0
  7  8  2  0  0  0
  7 26  1  0  0  0
  7 29  1  0  0  0
  8  9  1  0  0  0
  8 22  1  0  0  0
  9 10  1  0  0  0
  9 27  2  0  0  0
 10 11  2  0  0  0
 10 15  1  0  0  0
 11 12  1  0  0  0
 11 92  1  0  0  0
 12 13  2  0  0  0
 12 93  1  0  0  0
 13 14  1  0  0  0
 13 31  1  0  0  0
 14 15  2  0  0  0
 14 94  1  0  0  0
 15 95  1  0  0  0
 16 17  2  0  0  0
 16 21  1  0  0  0
 16 31  1  0  0  0
 17 18  1  0  0  0
 17 96  1  0  0  0
 18 19  2  0  0  0
 18 97  1  0  0  0
 19 20  1  0  0  0
 19 24  1  0  0  0
 20 21  2  0  0  0
 20 98  1  0  0  0
 21 23  1  0  0  0
 22 28  1  0  0  0
 22 32  2  0  0  0
 26 27  1  0  0  0
 28 99  1  0  0  0
 28100  1  0  0  0
 29101  1  0  0  0
 29102  1  0  0  0
 33 34  1  0  0  0
 33 66  1  0  0  0
 33 70  2  0  0  0
 34 36  1  0  0  0
 34 59  1  0  0  0
 34103  1  0  0  0
 35 44  2  0  0  0
 35 45  1  0  0  0
 35 68  1  0  0  0
 36 56  1  0  0  0
 36104  1  0  0  0
 37 39  1  0  0  0
 37 47  1  0  0  0
 37 66  1  0  0  0
 37105  1  0  0  0
 38 43  2  0  0  0
 38 46  1  0  0  0
 38 47  1  0  0  0
 39 64  1  0  0  0
 39 67  2  0  0  0
 40 52  1  0  0  0
 40 53  2  0  0  0
 40 58  1  0  0  0
 41106  1  0  0  0
 41107  1  0  0  0
 41108  1  0  0  0
 41 48  1  0  0  0
 42 43  1  0  0  0
 42 66  1  0  0  0
 42109  1  0  0  0
 42110  1  0  0  0
 43 44  1  0  0  0
 44111  1  0  0  0
 45 46  2  0  0  0
 45112  1  0  0  0
 46113  1  0  0  0
 47114  1  0  0  0
 47115  1  0  0  0
 48 56  1  0  0  0
 48 65  1  0  0  0
 48116  1  0  0  0
 49 50  1  0  0  0
 49 53  1  0  0  0
 49 64  1  0  0  0
 49117  1  0  0  0
 50 51  1  0  0  0
 50118  1  0  0  0
 50119  1  0  0  0
 51 52  1  0  0  0
 51120  1  0  0  0
 51121  1  0  0  0
 52122  1  0  0  0
 52123  1  0  0  0
 53 54  1  0  0  0
 54 55  2  0  0  0
 54124  1  0  0  0
 55 57  1  0  0  0
 55125  1  0  0  0
 56 69  2  0  0  0
 57 58  2  0  0  0
 57126  1  0  0  0
 58127  1  0  0  0
 59 60  1  0  0  0
 59 61  1  0  0  0
 59 62  1  0  0  0
 60128  1  0  0  0
 60129  1  0  0  0
 60130  1  0  0  0
 61131  1  0  0  0
 61132  1  0  0  0
 61133  1  0  0  0
 62134  1  0  0  0
 62135  1  0  0  0
 62136  1  0  0  0
 63 65  1  0  0  0
 63137  1  0  0  0
 63138  1  0  0  0
 63139  1  0  0  0
 64140  1  0  0  0
 65141  1  0  0  0
 68 76  1  0  0  0
 71 72  2  0  0  0
 71 78  1  0  0  0
 71142  1  0  0  0
 72 79  1  0  0  0
 72 82  1  0  0  0
 73 78  2  0  0  0
 73 80  1  0  0  0
 73 82  1  0  0  0
 74 77  1  0  0  0
 74 79  1  0  0  0
 74 81  2  0  0  0
 75143  1  0  0  0
 75144  1  0  0  0
 75145  1  0  0  0
 75 77  1  0  0  0
 76 77  1  0  0  0
 76146  1  0  0  0
 76147  1  0  0  0
 77148  1  0  0  0
 79149  1  0  0  0
 80150  1  0  0  0
M  ISO  4   1 100  68 101  76 101  80 100
M  END
> <chiral flag>
0

> <version>
0

> <s_m_source_file>
/data/baiqing/PycharmProjects/Reinvent-master-3.2/result/LINK_invent/BTK/process_docking_weight1_custom_product_contain_oxygen_bond_distance_aromatic_linkinvent_7_9_3/rearranged_h_0186.sdf

> <i_m_source_file_index>
14

> <r_mmod_Potential_Energy-OPLS-2005>
42.1317253112793

> <r_mmod_Stretch_Energy-OPLS-2005>
105.647041320801

> <r_mmod_Bend_Energy-OPLS-2005>
161.634857177734

> <r_mmod_Torsional_Energy-OPLS-2005>
238.830551147461

> <r_mmod_Improper_Torsional_Energy-OPLS-2005>
3.7185914516449

> <r_mmod_Van_der_Waal_Energy-OPLS-2005>
120.01448059082

> <r_mmod_Electrostatic_Energy-OPLS-2005>
-418.308288574219

> <r_mmod_Solvation_Energy-OPLS-2005>
-247.242385864258

> <b_mmod_Minimization_Converged-OPLS-2005>
0

> <r_mmod_RMS_Derivative-OPLS-2005>
1.27664124965668

$$$$
15
                    3D
 Structure written by MMmdl.
162170  0  0  1  0            999 V2000
  -30.5570  -14.7195   20.5875 C   0  0  0  0  0  0
  -30.4601  -12.4728   19.4499 C   0  0  0  0  0  0
  -29.5093  -12.5385   18.2308 C   0  0  0  0  0  0
  -28.0390  -12.3431   18.6512 C   0  0  0  0  0  0
  -27.6569  -13.2103   19.8780 C   0  0  2  0  0  0
  -28.7034  -13.0456   21.0029 C   0  0  0  0  0  0
  -25.2565  -13.8144   20.5701 C   0  0  0  0  0  0
  -24.1832  -13.0444   20.9207 C   0  0  0  0  0  0
  -24.6384  -11.6892   20.8759 C   0  0  0  0  0  0
  -23.9046  -10.4290   21.0415 C   0  0  0  0  0  0
  -24.3599   -9.4204   21.9196 C   0  0  0  0  0  0
  -23.6280   -8.2241   22.0749 C   0  0  0  0  0  0
  -22.4263   -8.0290   21.3545 C   0  0  0  0  0  0
  -21.9901   -9.0260   20.4650 C   0  0  0  0  0  0
  -22.7221  -10.2139   20.3069 C   0  0  0  0  0  0
  -21.6838   -6.0745   22.5282 C   0  0  0  0  0  0
  -21.4003   -6.5637   23.8223 C   0  0  0  0  0  0
  -21.3660   -5.6787   24.9177 C   0  0  0  0  0  0
  -21.6053   -4.3046   24.7217 C   0  0  0  0  0  0
  -21.8821   -3.8151   23.4334 C   0  0  0  0  0  0
  -21.9184   -4.6978   22.3394 C   0  0  0  0  0  0
  -22.7849  -13.5235   21.1890 C   0  0  0  0  0  0
  -22.1659   -4.2161   21.0973 F   0  0  0  0  0  0
  -21.5636   -3.4536   25.7726 F   0  0  0  0  0  0
  -30.0008  -13.4632   20.4516 N   0  0  0  0  0  0
  -26.3011  -12.9313   20.3394 N   0  0  0  0  0  0
  -25.9315  -11.6480   20.5791 N   0  0  0  0  0  0
  -22.0512  -12.8224   22.0439 N   0  0  0  0  0  0
  -25.4356  -15.1872   20.4082 N   0  0  0  0  0  0
  -31.6858  -14.9292   20.1251 O   0  0  0  0  0  0
  -21.6633   -6.8895   21.4245 O   0  0  0  0  0  0
  -22.3553  -14.5592   20.6785 O   0  0  0  0  0  0
  -24.6335  -31.8590   23.2008 C   0  0  0  0  0  0
  -25.9206  -32.4796   23.8290 C   0  0  1  0  0  0
  -27.2107  -27.2307   20.1933 C   0  0  0  0  0  0
  -25.6035  -33.8594   24.2250 N   0  0  0  0  0  0
  -23.4290  -30.4775   21.5467 C   0  0  2  0  0  0
  -24.8780  -28.9076   20.1335 C   0  0  0  0  0  0
  -22.7537  -29.4615   22.4983 C   0  0  0  0  0  0
  -18.0330  -28.1398   22.8428 C   0  0  0  0  0  0
  -24.1544  -36.7278   23.2635 C   0  0  0  0  0  0
  -25.9761  -30.7597   21.3889 C   0  0  0  0  0  0
  -26.0495  -29.3723   20.7500 C   0  0  0  0  0  0
  -27.2226  -28.5472   20.7703 C   0  0  0  0  0  0
  -26.0251  -26.8422   19.5378 C   0  0  0  0  0  0
  -24.8650  -27.6439   19.5218 C   0  0  0  0  0  0
  -23.6552  -29.8077   20.1667 C   0  0  0  0  0  0
  -25.4168  -36.3081   24.0328 C   0  0  1  0  0  0
  -20.5925  -28.3719   23.1258 C   0  0  2  0  0  0
  -20.6897  -26.9468   22.5378 C   0  0  0  0  0  0
  -19.5872  -26.6368   21.5208 C   0  0  0  0  0  0
  -18.2014  -26.7930   22.1567 C   0  0  0  0  0  0
  -19.1562  -28.8870   23.2817 C   0  0  0  0  0  0
  -18.9488  -30.1474   23.8823 C   0  0  0  0  0  0
  -17.6489  -30.6582   24.0536 C   0  0  0  0  0  0
  -25.9107  -34.9468   23.5076 C   0  0  0  0  0  0
  -16.5391  -29.9063   23.6310 C   0  0  0  0  0  0
  -16.7315  -28.6502   23.0289 C   0  0  0  0  0  0
  -26.4580  -31.6641   25.0680 C   0  0  0  0  0  0
  -25.3751  -31.3774   26.1330 C   0  0  0  0  0  0
  -27.0428  -30.3036   24.6189 C   0  0  0  0  0  0
  -27.6126  -32.4418   25.7478 C   0  0  0  0  0  0
  -27.5624  -37.1801   24.8481 C   0  0  0  0  0  0
  -21.4257  -29.3025   22.3660 N   0  0  0  0  0  0
  -26.4343  -37.3772   23.9414 N   0  0  0  0  0  0
  -24.6979  -31.0512   22.1016 N   0  0  0  0  0  0
  -23.4229  -28.8193   23.3127 O   0  0  0  0  0  0
  -28.2963  -26.3404   20.0495 O   0  0  0  0  0  0
  -26.5620  -34.8947   22.4607 O   0  0  0  0  0  0
  -23.5484  -32.1438   23.7273 O   0  0  0  0  0  0
  -29.7866  -17.4280   20.9318 C   0  0  0  0  0  0
  -29.3777  -19.9568   21.0122 C   0  0  0  0  0  0
  -28.6539  -22.5060   20.7569 C   0  0  0  0  0  0
  -26.7093  -23.6868   25.2001 C   0  0  0  0  0  0
  -26.1023  -24.6704   22.3158 C   0  0  0  0  0  0
  -29.4983  -26.2678   22.1559 C   0  0  0  0  0  0
  -29.7522  -15.8975   21.3294 C   0  0  0  0  0  0
  -27.7792  -23.9800   24.1274 C   0  0  0  0  0  0
  -28.4752  -23.8786   21.5928 C   0  0  2  0  0  0
  -27.3127  -23.7852   22.6551 C   0  0  2  0  0  0
  -28.8988  -25.3857   21.0429 C   0  0  1  0  0  0
  -29.3926  -17.9792   19.7580 N   0  0  0  0  0  0
  -29.1797  -19.4012   19.7958 N   0  0  0  0  0  0
  -29.1521  -21.3747   21.3910 N   0  0  0  0  0  0
  -28.3214  -22.4841   19.5705 O   0  0  0  0  0  0
  -29.9459  -18.7177   22.1791 S   0  0  0  0  0  0
  -31.4849  -12.6639   19.1295 H   0  0  0  0  0  0
  -30.4652  -11.4727   19.8838 H   0  0  0  0  0  0
  -29.7898  -11.7813   17.4985 H   0  0  0  0  0  0
  -29.6195  -13.5024   17.7291 H   0  0  0  0  0  0
  -27.9057  -11.2894   18.8982 H   0  0  0  0  0  0
  -27.3690  -12.5464   17.8152 H   0  0  0  0  0  0
  -27.6788  -14.2495   19.5496 H   0  0  0  0  0  0
  -28.7492  -12.0055   21.3298 H   0  0  0  0  0  0
  -28.4243  -13.6005   21.8987 H   0  0  0  0  0  0
  -25.2743   -9.5675   22.4787 H   0  0  0  0  0  0
  -23.9995   -7.4613   22.7440 H   0  0  0  0  0  0
  -21.0854   -8.8787   19.8938 H   0  0  0  0  0  0
  -22.3692  -10.9695   19.6201 H   0  0  0  0  0  0
  -21.1988   -7.6141   23.9725 H   0  0  0  0  0  0
  -21.1492   -6.0512   25.9080 H   0  0  0  0  0  0
  -22.0600   -2.7616   23.2825 H   0  0  0  0  0  0
  -22.4067  -11.9804   22.4750 H   0  0  0  0  0  0
  -21.1193  -13.1333   22.2763 H   0  0  0  0  0  0
  -24.6782  -15.8547   20.5033 H   0  0  0  0  0  0
  -26.2962  -15.6129   20.0857 H   0  0  0  0  0  0
  -26.7284  -32.5473   23.1042 H   0  0  0  0  0  0
  -25.0376  -33.9735   25.0518 H   0  0  0  0  0  0
  -22.7207  -31.2943   21.4026 H   0  0  0  0  0  0
  -23.3833  -35.9595   23.3309 H   0  0  0  0  0  0
  -24.3634  -36.8882   22.2051 H   0  0  0  0  0  0
  -23.7274  -37.6478   23.6632 H   0  0  0  0  0  0
  -26.1143  -31.5092   20.6109 H   0  0  0  0  0  0
  -26.8564  -30.8170   22.0186 H   0  0  0  0  0  0
  -28.1272  -28.9023   21.2429 H   0  0  0  0  0  0
  -25.9887  -25.8739   19.0582 H   0  0  0  0  0  0
  -23.9609  -27.2810   19.0482 H   0  0  0  0  0  0
  -23.8039  -30.5853   19.4179 H   0  0  0  0  0  0
  -22.7696  -29.2553   19.8465 H   0  0  0  0  0  0
  -25.1340  -36.1920   25.0810 H   0  0  0  0  0  0
  -20.9939  -28.3351   24.1403 H   0  0  0  0  0  0
  -20.5944  -26.2344   23.3573 H   0  0  0  0  0  0
  -21.6759  -26.7627   22.1087 H   0  0  0  0  0  0
  -19.7084  -25.6241   21.1314 H   0  0  0  0  0  0
  -19.6844  -27.3123   20.6680 H   0  0  0  0  0  0
  -17.4317  -26.6666   21.3939 H   0  0  0  0  0  0
  -18.0411  -26.0055   22.8932 H   0  0  0  0  0  0
  -19.7979  -30.7282   24.2200 H   0  0  0  0  0  0
  -17.5051  -31.6243   24.5170 H   0  0  0  0  0  0
  -15.5383  -30.2921   23.7690 H   0  0  0  0  0  0
  -15.8731  -28.0822   22.6967 H   0  0  0  0  0  0
  -24.5951  -30.7149   25.7556 H   0  0  0  0  0  0
  -24.8932  -32.2957   26.4683 H   0  0  0  0  0  0
  -25.7979  -30.8911   27.0121 H   0  0  0  0  0  0
  -26.2970  -29.6774   24.1277 H   0  0  0  0  0  0
  -27.4172  -29.7291   25.4686 H   0  0  0  0  0  0
  -27.8849  -30.4323   23.9385 H   0  0  0  0  0  0
  -27.2742  -33.3749   26.1977 H   0  0  0  0  0  0
  -28.3962  -32.6962   25.0333 H   0  0  0  0  0  0
  -28.0786  -31.8612   26.5443 H   0  0  0  0  0  0
  -28.2601  -38.0127   24.7515 H   0  0  0  0  0  0
  -28.1134  -36.2644   24.6312 H   0  0  0  0  0  0
  -27.2318  -37.1449   25.8872 H   0  0  0  0  0  0
  -20.9530  -29.8611   21.6699 H   0  0  0  0  0  0
  -26.0215  -38.2843   24.1391 H   0  0  0  0  0  0
  -27.1267  -23.8321   26.1967 H   0  0  0  0  0  0
  -26.3476  -22.6594   25.1482 H   0  0  0  0  0  0
  -25.8479  -24.3500   25.1319 H   0  0  0  0  0  0
  -25.2989  -24.5818   23.0486 H   0  0  0  0  0  0
  -25.6911  -24.4065   21.3445 H   0  0  0  0  0  0
  -26.3778  -25.7216   22.3012 H   0  0  0  0  0  0
  -30.1541  -25.6962   22.8128 H   0  0  0  0  0  0
  -28.7361  -26.7334   22.7775 H   0  0  0  0  0  0
  -30.1116  -27.0622   21.7280 H   0  0  0  0  0  0
  -28.6968  -15.6412   21.3317 H   0  0  0  0  0  0
  -30.0509  -15.8359   22.3775 H   0  0  0  0  0  0
  -28.6154  -23.3138   24.3435 H   0  0  0  0  0  0
  -28.1511  -24.9926   24.2757 H   0  0  0  0  0  0
  -29.3409  -23.6968   22.2295 H   0  0  0  0  0  0
  -26.9514  -22.7578   22.6344 H   0  0  0  0  0  0
  -29.7757  -25.1027   20.4570 H   0  0  0  0  0  0
  -29.3886  -21.5517   22.3560 H   0  0  0  0  0  0
  1 25  1  0  0  0
  1 30  2  0  0  0
  1 77  1  0  0  0
  2  3  1  0  0  0
  2 25  1  0  0  0
  2 87  1  0  0  0
  2 88  1  0  0  0
  3  4  1  0  0  0
  3 89  1  0  0  0
  3 90  1  0  0  0
  4  5  1  0  0  0
  4 91  1  0  0  0
  4 92  1  0  0  0
  5  6  1  0  0  0
  5 26  1  0  0  0
  5 93  1  0  0  0
  6 25  1  0  0  0
  6 94  1  0  0  0
  6 95  1  0  0  0
  7  8  2  0  0  0
  7 26  1  0  0  0
  7 29  1  0  0  0
  8  9  1  0  0  0
  8 22  1  0  0  0
  9 10  1  0  0  0
  9 27  2  0  0  0
 10 11  2  0  0  0
 10 15  1  0  0  0
 11 12  1  0  0  0
 11 96  1  0  0  0
 12 13  2  0  0  0
 12 97  1  0  0  0
 13 14  1  0  0  0
 13 31  1  0  0  0
 14 15  2  0  0  0
 14 98  1  0  0  0
 15 99  1  0  0  0
 16 17  2  0  0  0
 16 21  1  0  0  0
 16 31  1  0  0  0
 17 18  1  0  0  0
 17100  1  0  0  0
 18 19  2  0  0  0
 18101  1  0  0  0
 19 20  1  0  0  0
 19 24  1  0  0  0
 20 21  2  0  0  0
 20102  1  0  0  0
 21 23  1  0  0  0
 22 28  1  0  0  0
 22 32  2  0  0  0
 26 27  1  0  0  0
 28103  1  0  0  0
 28104  1  0  0  0
 29105  1  0  0  0
 29106  1  0  0  0
 33 34  1  0  0  0
 33 66  1  0  0  0
 33 70  2  0  0  0
 34 36  1  0  0  0
 34 59  1  0  0  0
 34107  1  0  0  0
 35 44  2  0  0  0
 35 45  1  0  0  0
 35 68  1  0  0  0
 36 56  1  0  0  0
 36108  1  0  0  0
 37 39  1  0  0  0
 37 47  1  0  0  0
 37 66  1  0  0  0
 37109  1  0  0  0
 38 43  2  0  0  0
 38 46  1  0  0  0
 38 47  1  0  0  0
 39 64  1  0  0  0
 39 67  2  0  0  0
 40 52  1  0  0  0
 40 53  2  0  0  0
 40 58  1  0  0  0
 41110  1  0  0  0
 41111  1  0  0  0
 41112  1  0  0  0
 41 48  1  0  0  0
 42 43  1  0  0  0
 42 66  1  0  0  0
 42113  1  0  0  0
 42114  1  0  0  0
 43 44  1  0  0  0
 44115  1  0  0  0
 45 46  2  0  0  0
 45116  1  0  0  0
 46117  1  0  0  0
 47118  1  0  0  0
 47119  1  0  0  0
 48 56  1  0  0  0
 48 65  1  0  0  0
 48120  1  0  0  0
 49 50  1  0  0  0
 49 53  1  0  0  0
 49 64  1  0  0  0
 49121  1  0  0  0
 50 51  1  0  0  0
 50122  1  0  0  0
 50123  1  0  0  0
 51 52  1  0  0  0
 51124  1  0  0  0
 51125  1  0  0  0
 52126  1  0  0  0
 52127  1  0  0  0
 53 54  1  0  0  0
 54 55  2  0  0  0
 54128  1  0  0  0
 55 57  1  0  0  0
 55129  1  0  0  0
 56 69  2  0  0  0
 57 58  2  0  0  0
 57130  1  0  0  0
 58131  1  0  0  0
 59 60  1  0  0  0
 59 61  1  0  0  0
 59 62  1  0  0  0
 60132  1  0  0  0
 60133  1  0  0  0
 60134  1  0  0  0
 61135  1  0  0  0
 61136  1  0  0  0
 61137  1  0  0  0
 62138  1  0  0  0
 62139  1  0  0  0
 62140  1  0  0  0
 63 65  1  0  0  0
 63141  1  0  0  0
 63142  1  0  0  0
 63143  1  0  0  0
 64144  1  0  0  0
 65145  1  0  0  0
 68 81  1  0  0  0
 71 77  1  0  0  0
 71 82  2  0  0  0
 71 86  1  0  0  0
 72 83  2  0  0  0
 72 84  1  0  0  0
 72 86  1  0  0  0
 73 84  1  0  0  0
 73 85  2  0  0  0
 73 79  1  0  0  0
 74 78  1  0  0  0
 74146  1  0  0  0
 74147  1  0  0  0
 74148  1  0  0  0
 75149  1  0  0  0
 75150  1  0  0  0
 75151  1  0  0  0
 75 80  1  0  0  0
 76152  1  0  0  0
 76153  1  0  0  0
 76154  1  0  0  0
 76 81  1  0  0  0
 77155  1  0  0  0
 77156  1  0  0  0
 78 80  1  0  0  0
 78157  1  0  0  0
 78158  1  0  0  0
 79 80  1  0  0  0
 79 81  1  0  0  0
 79159  1  0  0  0
 80160  1  0  0  0
 81161  1  0  0  0
 82 83  1  0  0  0
 84162  1  0  0  0
M  ISO  4   1 100  68 101  77 100  81 101
M  END
> <chiral flag>
0

> <version>
0

> <s_m_source_file>
/data/baiqing/PycharmProjects/Reinvent-master-3.2/result/LINK_invent/BTK/process_docking_weight1_custom_product_contain_oxygen_bond_distance_aromatic_linkinvent_7_9_3/rearranged_h_0186.sdf

> <i_m_source_file_index>
15

> <r_mmod_Potential_Energy-OPLS-2005>
267.646606445312

> <r_mmod_Stretch_Energy-OPLS-2005>
134.469543457031

> <r_mmod_Bend_Energy-OPLS-2005>
307.326477050781

> <r_mmod_Torsional_Energy-OPLS-2005>
207.671737670898

> <r_mmod_Improper_Torsional_Energy-OPLS-2005>
4.84329509735107

> <r_mmod_Van_der_Waal_Energy-OPLS-2005>
105.512832641602

> <r_mmod_Electrostatic_Energy-OPLS-2005>
-320.076507568359

> <r_mmod_Solvation_Energy-OPLS-2005>
-256.206237792969

> <b_mmod_Minimization_Converged-OPLS-2005>
0

> <r_mmod_RMS_Derivative-OPLS-2005>
5.9382791519165

$$$$
16
                    3D
 Structure written by MMmdl.
155162  0  0  1  0            999 V2000
  -30.4136  -15.2074   20.3746 C   0  0  0  0  0  0
  -30.4489  -12.7560   19.5296 C   0  0  0  0  0  0
  -29.5407  -12.5820   18.2836 C   0  0  0  0  0  0
  -28.0836  -12.3077   18.6991 C   0  0  0  0  0  0
  -27.6185  -13.2684   19.8213 C   0  0  2  0  0  0
  -28.6470  -13.3976   20.9635 C   0  0  0  0  0  0
  -25.2415  -13.8235   20.5695 C   0  0  0  0  0  0
  -24.1767  -13.0432   20.9220 C   0  0  0  0  0  0
  -24.6429  -11.6923   20.8700 C   0  0  0  0  0  0
  -23.9112  -10.4289   21.0372 C   0  0  0  0  0  0
  -24.3651   -9.4195   21.9170 C   0  0  0  0  0  0
  -23.6309   -8.2252   22.0734 C   0  0  0  0  0  0
  -22.4291   -8.0309   21.3531 C   0  0  0  0  0  0
  -21.9931   -9.0270   20.4620 C   0  0  0  0  0  0
  -22.7266  -10.2150   20.3018 C   0  0  0  0  0  0
  -21.6861   -6.0743   22.5281 C   0  0  0  0  0  0
  -21.4006   -6.5629   23.8214 C   0  0  0  0  0  0
  -21.3652   -5.6796   24.9181 C   0  0  0  0  0  0
  -21.6048   -4.3062   24.7243 C   0  0  0  0  0  0
  -21.8805   -3.8140   23.4362 C   0  0  0  0  0  0
  -21.9191   -4.6964   22.3417 C   0  0  0  0  0  0
  -22.7771  -13.5185   21.1938 C   0  0  0  0  0  0
  -22.1650   -4.2145   21.1008 F   0  0  0  0  0  0
  -21.5645   -3.4548   25.7757 F   0  0  0  0  0  0
  -29.9027  -13.8828   20.3684 N   0  0  0  0  0  0
  -26.2838  -12.9495   20.3145 N   0  0  0  0  0  0
  -25.9355  -11.6606   20.5640 N   0  0  0  0  0  0
  -22.0464  -12.8116   22.0493 N   0  0  0  0  0  0
  -25.4136  -15.1974   20.4194 N   0  0  0  0  0  0
  -31.6252  -15.2460   20.1157 O   0  0  0  0  0  0
  -21.6654   -6.8901   21.4247 O   0  0  0  0  0  0
  -22.3425  -14.5522   20.6835 O   0  0  0  0  0  0
  -24.6554  -31.8250   23.1728 C   0  0  0  0  0  0
  -25.9261  -32.4624   23.8163 C   0  0  1  0  0  0
  -27.2116  -26.9771   20.1839 C   0  0  0  0  0  0
  -25.5937  -33.8435   24.2066 N   0  0  0  0  0  0
  -23.4677  -30.4401   21.5212 C   0  0  2  0  0  0
  -24.9205  -28.8358   20.1013 C   0  0  0  0  0  0
  -22.7650  -29.4449   22.4776 C   0  0  0  0  0  0
  -18.0338  -28.1396   22.8481 C   0  0  0  0  0  0
  -24.1478  -36.7227   23.2650 C   0  0  0  0  0  0
  -26.0302  -30.6575   21.3873 C   0  0  0  0  0  0
  -26.0998  -29.2494   20.7344 C   0  0  0  0  0  0
  -27.2396  -28.3374   20.7495 C   0  0  0  0  0  0
  -26.0077  -26.6998   19.4993 C   0  0  0  0  0  0
  -24.8953  -27.5828   19.4627 C   0  0  0  0  0  0
  -23.7024  -29.7565   20.1436 C   0  0  0  0  0  0
  -25.4124  -36.2977   24.0287 C   0  0  1  0  0  0
  -20.5964  -28.3718   23.1203 C   0  0  2  0  0  0
  -20.6803  -26.9403   22.5403 C   0  0  0  0  0  0
  -19.5767  -26.6370   21.5216 C   0  0  0  0  0  0
  -18.1952  -26.7948   22.1625 C   0  0  0  0  0  0
  -19.1595  -28.8880   23.2829 C   0  0  0  0  0  0
  -18.9506  -30.1483   23.8845 C   0  0  0  0  0  0
  -17.6497  -30.6585   24.0557 C   0  0  0  0  0  0
  -25.9070  -34.9372   23.4980 C   0  0  0  0  0  0
  -16.5389  -29.9067   23.6331 C   0  0  0  0  0  0
  -16.7316  -28.6492   23.0346 C   0  0  0  0  0  0
  -26.4531  -31.6562   25.0680 C   0  0  0  0  0  0
  -25.3660  -31.3816   26.1344 C   0  0  0  0  0  0
  -27.0386  -30.2938   24.6315 C   0  0  0  0  0  0
  -27.6017  -32.4378   25.7472 C   0  0  0  0  0  0
  -27.5556  -37.1758   24.8464 C   0  0  0  0  0  0
  -21.4325  -29.3021   22.3554 N   0  0  0  0  0  0
  -26.4267  -37.3706   23.9401 N   0  0  0  0  0  0
  -24.7402  -30.9979   22.0833 N   0  0  0  0  0  0
  -23.4241  -28.8013   23.2978 O   0  0  0  0  0  0
  -28.2426  -25.9223   20.3011 O   0  0  0  0  0  0
  -26.5698  -34.8899   22.4584 O   0  0  0  0  0  0
  -23.5631  -32.1183   23.6858 O   0  0  0  0  0  0
  -32.3381  -18.9544   19.7805 C   0  0  0  0  0  0
  -31.0824  -18.6206   19.4330 C   0  0  0  0  0  0
  -29.2455  -21.2525   20.1972 C   0  0  0  0  0  0
  -33.4718  -19.1793   18.8079 C   0  0  0  0  0  0
  -28.5372  -22.7262   22.1724 C   0  0  0  0  0  0
  -29.5215  -16.7068   20.5165 C   0  0  0  0  0  0
  -28.1871  -24.3080   20.0143 C   0  0  0  0  0  0
  -29.9653  -18.4319   20.4432 C   0  0  2  0  0  0
  -28.2914  -22.6250   20.6515 C   0  0  1  0  0  0
  -29.0431  -19.8158   20.4748 N   0  0  0  0  0  0
  -30.2749  -21.5516   19.5946 O   0  0  0  0  0  0
  -27.0289  -22.1932   20.5504 F   0  0  0  0  0  0
  -31.4743  -12.9526   19.2112 H   0  0  0  0  0  0
  -30.4901  -11.8305   20.1045 H   0  0  0  0  0  0
  -29.9082  -11.7747   17.6501 H   0  0  0  0  0  0
  -29.5845  -13.4947   17.6861 H   0  0  0  0  0  0
  -28.0284  -11.2783   19.0529 H   0  0  0  0  0  0
  -27.4219  -12.3751   17.8334 H   0  0  0  0  0  0
  -27.5493  -14.2464   19.3436 H   0  0  0  0  0  0
  -28.7870  -12.4459   21.4803 H   0  0  0  0  0  0
  -28.2909  -14.1127   21.7079 H   0  0  0  0  0  0
  -25.2797   -9.5690   22.4747 H   0  0  0  0  0  0
  -24.0005   -7.4631   22.7437 H   0  0  0  0  0  0
  -21.0851   -8.8776   19.8918 H   0  0  0  0  0  0
  -22.3703  -10.9683   19.6113 H   0  0  0  0  0  0
  -21.1978   -7.6139   23.9708 H   0  0  0  0  0  0
  -21.1481   -6.0547   25.9096 H   0  0  0  0  0  0
  -22.0587   -2.7607   23.2892 H   0  0  0  0  0  0
  -22.4092  -11.9726   22.4782 H   0  0  0  0  0  0
  -21.1062  -13.1047   22.2736 H   0  0  0  0  0  0
  -24.6573  -15.8614   20.5450 H   0  0  0  0  0  0
  -26.2744  -15.6284   20.1055 H   0  0  0  0  0  0
  -26.7341  -32.5174   23.0886 H   0  0  0  0  0  0
  -25.0034  -33.9510   25.0192 H   0  0  0  0  0  0
  -22.7772  -31.2693   21.3549 H   0  0  0  0  0  0
  -23.3727  -35.9568   23.3286 H   0  0  0  0  0  0
  -24.3561  -36.8905   22.2064 H   0  0  0  0  0  0
  -23.7254  -37.6420   23.6731 H   0  0  0  0  0  0
  -26.1870  -31.4017   20.6054 H   0  0  0  0  0  0
  -26.9007  -30.7224   22.0282 H   0  0  0  0  0  0
  -28.1396  -28.6452   21.2653 H   0  0  0  0  0  0
  -25.8950  -25.7410   19.0119 H   0  0  0  0  0  0
  -23.9952  -27.2618   18.9545 H   0  0  0  0  0  0
  -23.8450  -30.5257   19.3830 H   0  0  0  0  0  0
  -22.8125  -29.2062   19.8330 H   0  0  0  0  0  0
  -25.1321  -36.1753   25.0781 H   0  0  0  0  0  0
  -21.0055  -28.3310   24.1327 H   0  0  0  0  0  0
  -20.5679  -26.2330   23.3636 H   0  0  0  0  0  0
  -21.6651  -26.7383   22.1192 H   0  0  0  0  0  0
  -19.6899  -25.6264   21.1254 H   0  0  0  0  0  0
  -19.6694  -27.3168   20.6726 H   0  0  0  0  0  0
  -17.4218  -26.6713   21.4023 H   0  0  0  0  0  0
  -18.0317  -26.0103   22.9027 H   0  0  0  0  0  0
  -19.7977  -30.7324   24.2170 H   0  0  0  0  0  0
  -17.5037  -31.6262   24.5175 H   0  0  0  0  0  0
  -15.5372  -30.2947   23.7674 H   0  0  0  0  0  0
  -15.8729  -28.0797   22.7052 H   0  0  0  0  0  0
  -24.5876  -30.7112   25.7690 H   0  0  0  0  0  0
  -24.8814  -32.3017   26.4618 H   0  0  0  0  0  0
  -25.7911  -30.9111   27.0223 H   0  0  0  0  0  0
  -26.2991  -29.6669   24.1303 H   0  0  0  0  0  0
  -27.3932  -29.7250   25.4926 H   0  0  0  0  0  0
  -27.8951  -30.4162   23.9682 H   0  0  0  0  0  0
  -27.2580  -33.3732   26.1908 H   0  0  0  0  0  0
  -28.3899  -32.6849   25.0354 H   0  0  0  0  0  0
  -28.0606  -31.8599   26.5503 H   0  0  0  0  0  0
  -28.2542  -38.0076   24.7499 H   0  0  0  0  0  0
  -28.1065  -36.2584   24.6293 H   0  0  0  0  0  0
  -27.2270  -37.1444   25.8871 H   0  0  0  0  0  0
  -20.9535  -29.8767   21.6754 H   0  0  0  0  0  0
  -26.0086  -38.2748   24.1468 H   0  0  0  0  0  0
  -32.5833  -19.0977   20.8255 H   0  0  0  0  0  0
  -30.8303  -18.4848   18.3909 H   0  0  0  0  0  0
  -33.1965  -18.8859   17.7966 H   0  0  0  0  0  0
  -34.3432  -18.6006   19.1140 H   0  0  0  0  0  0
  -33.7437  -20.2349   18.7970 H   0  0  0  0  0  0
  -29.5314  -23.1262   22.3744 H   0  0  0  0  0  0
  -28.4682  -21.7573   22.6706 H   0  0  0  0  0  0
  -27.8126  -23.3806   22.6545 H   0  0  0  0  0  0
  -28.7230  -16.5978   19.7825 H   0  0  0  0  0  0
  -29.0074  -16.6013   21.4703 H   0  0  0  0  0  0
  -29.2463  -24.3883   20.2604 H   0  0  0  0  0  0
  -27.3913  -24.4302   20.7474 H   0  0  0  0  0  0
  -30.4633  -18.5450   21.4072 H   0  0  0  0  0  0
  -28.1445  -19.6678   20.9184 H   0  0  0  0  0  0
  1 25  1  0  0  0
  1 30  2  0  0  0
  1 76  1  0  0  0
  2  3  1  0  0  0
  2 25  1  0  0  0
  2 83  1  0  0  0
  2 84  1  0  0  0
  3  4  1  0  0  0
  3 85  1  0  0  0
  3 86  1  0  0  0
  4  5  1  0  0  0
  4 87  1  0  0  0
  4 88  1  0  0  0
  5  6  1  0  0  0
  5 26  1  0  0  0
  5 89  1  0  0  0
  6 25  1  0  0  0
  6 90  1  0  0  0
  6 91  1  0  0  0
  7  8  2  0  0  0
  7 26  1  0  0  0
  7 29  1  0  0  0
  8  9  1  0  0  0
  8 22  1  0  0  0
  9 10  1  0  0  0
  9 27  2  0  0  0
 10 11  2  0  0  0
 10 15  1  0  0  0
 11 12  1  0  0  0
 11 92  1  0  0  0
 12 13  2  0  0  0
 12 93  1  0  0  0
 13 14  1  0  0  0
 13 31  1  0  0  0
 14 15  2  0  0  0
 14 94  1  0  0  0
 15 95  1  0  0  0
 16 17  2  0  0  0
 16 21  1  0  0  0
 16 31  1  0  0  0
 17 18  1  0  0  0
 17 96  1  0  0  0
 18 19  2  0  0  0
 18 97  1  0  0  0
 19 20  1  0  0  0
 19 24  1  0  0  0
 20 21  2  0  0  0
 20 98  1  0  0  0
 21 23  1  0  0  0
 22 28  1  0  0  0
 22 32  2  0  0  0
 26 27  1  0  0  0
 28 99  1  0  0  0
 28100  1  0  0  0
 29101  1  0  0  0
 29102  1  0  0  0
 33 34  1  0  0  0
 33 66  1  0  0  0
 33 70  2  0  0  0
 34 36  1  0  0  0
 34 59  1  0  0  0
 34103  1  0  0  0
 35 44  2  0  0  0
 35 45  1  0  0  0
 35 68  1  0  0  0
 36 56  1  0  0  0
 36104  1  0  0  0
 37 39  1  0  0  0
 37 47  1  0  0  0
 37 66  1  0  0  0
 37105  1  0  0  0
 38 43  2  0  0  0
 38 46  1  0  0  0
 38 47  1  0  0  0
 39 64  1  0  0  0
 39 67  2  0  0  0
 40 52  1  0  0  0
 40 53  2  0  0  0
 40 58  1  0  0  0
 41106  1  0  0  0
 41107  1  0  0  0
 41108  1  0  0  0
 41 48  1  0  0  0
 42 43  1  0  0  0
 42 66  1  0  0  0
 42109  1  0  0  0
 42110  1  0  0  0
 43 44  1  0  0  0
 44111  1  0  0  0
 45 46  2  0  0  0
 45112  1  0  0  0
 46113  1  0  0  0
 47114  1  0  0  0
 47115  1  0  0  0
 48 56  1  0  0  0
 48 65  1  0  0  0
 48116  1  0  0  0
 49 50  1  0  0  0
 49 53  1  0  0  0
 49 64  1  0  0  0
 49117  1  0  0  0
 50 51  1  0  0  0
 50118  1  0  0  0
 50119  1  0  0  0
 51 52  1  0  0  0
 51120  1  0  0  0
 51121  1  0  0  0
 52122  1  0  0  0
 52123  1  0  0  0
 53 54  1  0  0  0
 54 55  2  0  0  0
 54124  1  0  0  0
 55 57  1  0  0  0
 55125  1  0  0  0
 56 69  2  0  0  0
 57 58  2  0  0  0
 57126  1  0  0  0
 58127  1  0  0  0
 59 60  1  0  0  0
 59 61  1  0  0  0
 59 62  1  0  0  0
 60128  1  0  0  0
 60129  1  0  0  0
 60130  1  0  0  0
 61131  1  0  0  0
 61132  1  0  0  0
 61133  1  0  0  0
 62134  1  0  0  0
 62135  1  0  0  0
 62136  1  0  0  0
 63 65  1  0  0  0
 63137  1  0  0  0
 63138  1  0  0  0
 63139  1  0  0  0
 64140  1  0  0  0
 65141  1  0  0  0
 68 77  1  0  0  0
 71 72  2  0  0  0
 71 74  1  0  0  0
 71142  1  0  0  0
 72 78  1  0  0  0
 72143  1  0  0  0
 73 79  1  0  0  0
 73 80  1  0  0  0
 73 81  2  0  0  0
 74144  1  0  0  0
 74145  1  0  0  0
 74146  1  0  0  0
 75147  1  0  0  0
 75148  1  0  0  0
 75149  1  0  0  0
 75 79  1  0  0  0
 76150  1  0  0  0
 76151  1  0  0  0
 76 78  1  0  0  0
 77 79  1  0  0  0
 77152  1  0  0  0
 77153  1  0  0  0
 78 80  1  0  0  0
 78154  1  0  0  0
 79 82  1  0  0  0
 80155  1  0  0  0
M  ISO  4   1 100  68 101  76 100  77 101
M  END
> <chiral flag>
0

> <version>
0

> <s_m_source_file>
/data/baiqing/PycharmProjects/Reinvent-master-3.2/result/LINK_invent/BTK/process_docking_weight1_custom_product_contain_oxygen_bond_distance_aromatic_linkinvent_7_9_3/rearranged_h_0186.sdf

> <i_m_source_file_index>
16

> <r_mmod_Potential_Energy-OPLS-2005>
1349.03173828125

> <r_mmod_Stretch_Energy-OPLS-2005>
559.689819335938

> <r_mmod_Bend_Energy-OPLS-2005>
614.729370117188

> <r_mmod_Torsional_Energy-OPLS-2005>
186.289932250977

> <r_mmod_Improper_Torsional_Energy-OPLS-2005>
3.90561556816101

> <r_mmod_Van_der_Waal_Energy-OPLS-2005>
109.513687133789

> <r_mmod_Electrostatic_Energy-OPLS-2005>
-297.068267822266

> <r_mmod_Solvation_Energy-OPLS-2005>
-220.175796508789

> <b_mmod_Minimization_Converged-OPLS-2005>
0

> <r_mmod_RMS_Derivative-OPLS-2005>
4.65152835845947

$$$$
17
                    3D
 Structure written by MMmdl.
161169  0  0  1  0            999 V2000
  -30.8125  -14.3980   20.7382 C   0  0  0  0  0  0
  -30.4136  -12.3248   19.4359 C   0  0  0  0  0  0
  -29.4995  -12.5462   18.2145 C   0  0  0  0  0  0
  -28.0219  -12.3863   18.6062 C   0  0  0  0  0  0
  -27.6652  -13.2095   19.8683 C   0  0  2  0  0  0
  -28.6912  -12.9714   20.9947 C   0  0  0  0  0  0
  -25.2620  -13.8166   20.5615 C   0  0  0  0  0  0
  -24.1877  -13.0435   20.9112 C   0  0  0  0  0  0
  -24.6428  -11.6897   20.8668 C   0  0  0  0  0  0
  -23.9087  -10.4290   21.0369 C   0  0  0  0  0  0
  -24.3632   -9.4216   21.9166 C   0  0  0  0  0  0
  -23.6292   -8.2253   22.0758 C   0  0  0  0  0  0
  -22.4269   -8.0282   21.3541 C   0  0  0  0  0  0
  -21.9914   -9.0258   20.4647 C   0  0  0  0  0  0
  -22.7244  -10.2130   20.3048 C   0  0  0  0  0  0
  -21.6846   -6.0735   22.5280 C   0  0  0  0  0  0
  -21.3997   -6.5640   23.8208 C   0  0  0  0  0  0
  -21.3660   -5.6802   24.9176 C   0  0  0  0  0  0
  -21.6050   -4.3062   24.7228 C   0  0  0  0  0  0
  -21.8821   -3.8151   23.4346 C   0  0  0  0  0  0
  -21.9190   -4.6966   22.3401 C   0  0  0  0  0  0
  -22.7894  -13.5224   21.1781 C   0  0  0  0  0  0
  -22.1657   -4.2150   21.0979 F   0  0  0  0  0  0
  -21.5642   -3.4544   25.7743 F   0  0  0  0  0  0
  -30.0404  -13.2906   20.4951 N   0  0  0  0  0  0
  -26.3045  -12.9352   20.3251 N   0  0  0  0  0  0
  -25.9350  -11.6508   20.5666 N   0  0  0  0  0  0
  -22.0543  -12.8225   22.0353 N   0  0  0  0  0  0
  -25.4353  -15.1892   20.4058 N   0  0  0  0  0  0
  -31.8020  -14.6099   20.0241 O   0  0  0  0  0  0
  -21.6626   -6.8878   21.4243 O   0  0  0  0  0  0
  -22.3574  -14.5526   20.6631 O   0  0  0  0  0  0
  -24.6179  -31.8666   23.2096 C   0  0  0  0  0  0
  -25.9059  -32.4827   23.8408 C   0  0  1  0  0  0
  -27.2464  -27.4262   20.0948 C   0  0  0  0  0  0
  -25.5902  -33.8619   24.2339 N   0  0  0  0  0  0
  -23.4089  -30.4875   21.5492 C   0  0  2  0  0  0
  -24.8588  -28.9484   20.1198 C   0  0  0  0  0  0
  -22.7437  -29.4637   22.4981 C   0  0  0  0  0  0
  -18.0261  -28.1384   22.8487 C   0  0  0  0  0  0
  -24.1484  -36.7331   23.2620 C   0  0  0  0  0  0
  -25.9393  -30.8277   21.3663 C   0  0  0  0  0  0
  -26.0204  -29.4609   20.7120 C   0  0  0  0  0  0
  -27.2222  -28.7112   20.6881 C   0  0  0  0  0  0
  -26.0656  -26.9286   19.5064 C   0  0  0  0  0  0
  -24.8770  -27.6811   19.5127 C   0  0  0  0  0  0
  -23.6212  -29.8170   20.1656 C   0  0  0  0  0  0
  -25.4097  -36.3110   24.0324 C   0  0  1  0  0  0
  -20.5856  -28.3689   23.1297 C   0  0  2  0  0  0
  -20.6748  -26.9419   22.5397 C   0  0  0  0  0  0
  -19.5735  -26.6394   21.5183 C   0  0  0  0  0  0
  -18.1907  -26.7934   22.1598 C   0  0  0  0  0  0
  -19.1510  -28.8852   23.2887 C   0  0  0  0  0  0
  -18.9434  -30.1453   23.8918 C   0  0  0  0  0  0
  -17.6442  -30.6590   24.0575 C   0  0  0  0  0  0
  -25.9034  -34.9475   23.5134 C   0  0  0  0  0  0
  -16.5330  -29.9096   23.6320 C   0  0  0  0  0  0
  -16.7252  -28.6504   23.0347 C   0  0  0  0  0  0
  -26.4471  -31.6621   25.0763 C   0  0  0  0  0  0
  -25.3742  -31.3753   26.1533 C   0  0  0  0  0  0
  -27.0309  -30.3046   24.6188 C   0  0  0  0  0  0
  -27.6047  -32.4357   25.7517 C   0  0  0  0  0  0
  -27.5594  -37.1788   24.8448 C   0  0  0  0  0  0
  -21.4153  -29.3058   22.3718 N   0  0  0  0  0  0
  -26.4288  -37.3785   23.9418 N   0  0  0  0  0  0
  -24.6737  -31.0741   22.1012 N   0  0  0  0  0  0
  -23.4189  -28.8142   23.3015 O   0  0  0  0  0  0
  -28.4109  -26.6900   20.0324 O   0  0  0  0  0  0
  -26.5595  -34.8924   22.4699 O   0  0  0  0  0  0
  -23.5365  -32.1423   23.7458 O   0  0  0  0  0  0
  -29.7524  -17.1761   20.0961 C   0  0  0  0  0  0
  -29.4961  -18.5777   19.9536 C   0  0  0  0  0  0
  -30.1430  -16.8069   21.3630 C   0  0  0  0  0  0
  -29.6623  -19.2963   21.1154 C   0  0  0  0  0  0
  -29.5891  -21.6753   20.5299 C   0  0  0  0  0  0
  -27.5420  -23.7372   19.2839 C   0  0  0  0  0  0
  -29.8201  -15.0288   23.1440 C   0  0  0  0  0  0
  -28.4764  -25.5219   20.8718 C   0  0  0  0  0  0
  -29.2389  -23.0655   21.1274 C   0  0  1  0  0  0
  -28.7575  -24.1758   20.1301 C   0  0  1  0  0  0
  -30.6252  -15.4582   21.8944 C   0  0  2  0  0  0
  -29.4938  -20.6245   21.3699 N   0  0  0  0  0  0
  -32.0130  -15.6683   22.3392 N   0  3  0  0  0  0
  -29.9692  -21.5684   19.3615 O   0  0  0  0  0  0
  -28.3217  -22.8981   22.0859 F   0  0  0  0  0  0
  -30.1068  -18.2131   22.4121 S   0  0  0  0  0  0
  -31.4594  -12.3972   19.1334 H   0  0  0  0  0  0
  -30.3053  -11.3059   19.8122 H   0  0  0  0  0  0
  -29.7558  -11.8482   17.4175 H   0  0  0  0  0  0
  -29.6670  -13.5479   17.8153 H   0  0  0  0  0  0
  -27.8354  -11.3269   18.7823 H   0  0  0  0  0  0
  -27.3833  -12.6813   17.7730 H   0  0  0  0  0  0
  -27.7198  -14.2608   19.5876 H   0  0  0  0  0  0
  -28.6626  -11.9296   21.3209 H   0  0  0  0  0  0
  -28.3711  -13.5374   21.8537 H   0  0  0  0  0  0
  -25.2775   -9.5685   22.4731 H   0  0  0  0  0  0
  -23.9982   -7.4666   22.7501 H   0  0  0  0  0  0
  -21.0834   -8.8774   19.8967 H   0  0  0  0  0  0
  -22.3692  -10.9660   19.6146 H   0  0  0  0  0  0
  -21.1968   -7.6142   23.9700 H   0  0  0  0  0  0
  -21.1481   -6.0536   25.9081 H   0  0  0  0  0  0
  -22.0600   -2.7607   23.2846 H   0  0  0  0  0  0
  -22.4137  -11.9861   22.4713 H   0  0  0  0  0  0
  -21.1176  -13.1263   22.2583 H   0  0  0  0  0  0
  -24.6760  -15.8488   20.5366 H   0  0  0  0  0  0
  -26.2922  -15.6262   20.0904 H   0  0  0  0  0  0
  -26.7170  -32.5536   23.1204 H   0  0  0  0  0  0
  -25.0054  -33.9783   25.0487 H   0  0  0  0  0  0
  -22.6980  -31.3042   21.4064 H   0  0  0  0  0  0
  -23.3743  -35.9672   23.3248 H   0  0  0  0  0  0
  -24.3584  -36.8989   22.2045 H   0  0  0  0  0  0
  -23.7245  -37.6522   23.6674 H   0  0  0  0  0  0
  -26.0591  -31.5962   20.6005 H   0  0  0  0  0  0
  -26.8211  -30.8773   21.9934 H   0  0  0  0  0  0
  -28.1293  -29.1102   21.1224 H   0  0  0  0  0  0
  -26.0573  -25.9636   19.0278 H   0  0  0  0  0  0
  -23.9868  -27.2829   19.0439 H   0  0  0  0  0  0
  -23.7350  -30.5922   19.4054 H   0  0  0  0  0  0
  -22.7459  -29.2378   19.8692 H   0  0  0  0  0  0
  -25.1252  -36.1980   25.0813 H   0  0  0  0  0  0
  -20.9932  -28.3268   24.1424 H   0  0  0  0  0  0
  -20.5633  -26.2296   23.3589 H   0  0  0  0  0  0
  -21.6621  -26.7455   22.1196 H   0  0  0  0  0  0
  -19.6905  -25.6297   21.1229 H   0  0  0  0  0  0
  -19.6693  -27.3194   20.6702 H   0  0  0  0  0  0
  -17.4171  -26.6677   21.4006 H   0  0  0  0  0  0
  -18.0325  -26.0067   22.8986 H   0  0  0  0  0  0
  -19.7912  -30.7240   24.2315 H   0  0  0  0  0  0
  -17.5000  -31.6275   24.5185 H   0  0  0  0  0  0
  -15.5334  -30.3011   23.7650 H   0  0  0  0  0  0
  -15.8629  -28.0844   22.7064 H   0  0  0  0  0  0
  -24.5895  -30.7116   25.7882 H   0  0  0  0  0  0
  -24.8956  -32.2924   26.4990 H   0  0  0  0  0  0
  -25.8090  -30.8928   27.0299 H   0  0  0  0  0  0
  -26.2877  -29.6805   24.1220 H   0  0  0  0  0  0
  -27.4016  -29.7297   25.4686 H   0  0  0  0  0  0
  -27.8741  -30.4311   23.9394 H   0  0  0  0  0  0
  -27.2653  -33.3632   26.2138 H   0  0  0  0  0  0
  -28.3818  -32.6967   25.0326 H   0  0  0  0  0  0
  -28.0782  -31.8490   26.5403 H   0  0  0  0  0  0
  -28.2553  -38.0133   24.7534 H   0  0  0  0  0  0
  -28.1138  -36.2666   24.6201 H   0  0  0  0  0  0
  -27.2326  -37.1333   25.8848 H   0  0  0  0  0  0
  -20.9324  -29.8843   21.6979 H   0  0  0  0  0  0
  -26.0190  -38.2862   24.1454 H   0  0  0  0  0  0
  -29.6697  -16.5039   19.2530 H   0  0  0  0  0  0
  -29.1971  -19.0000   19.0027 H   0  0  0  0  0  0
  -27.4164  -24.3871   18.4200 H   0  0  0  0  0  0
  -26.6193  -23.7496   19.8657 H   0  0  0  0  0  0
  -27.6548  -22.7310   18.8841 H   0  0  0  0  0  0
  -30.0958  -15.6226   24.0173 H   0  0  0  0  0  0
  -29.9829  -13.9852   23.4150 H   0  0  0  0  0  0
  -28.7531  -15.2062   23.0155 H   0  0  0  0  0  0
  -29.2931  -25.7113   21.5689 H   0  0  0  0  0  0
  -27.5869  -25.4291   21.4990 H   0  0  0  0  0  0
  -30.1383  -23.4171   21.6361 H   0  0  0  0  0  0
  -29.5877  -24.3518   19.4439 H   0  0  0  0  0  0
  -29.2916  -20.8729   22.3294 H   0  0  0  0  0  0
  -32.5532  -15.6427   21.4860 H   0  0  0  0  0  0
  -32.3253  -14.9119   22.9202 H   0  0  0  0  0  0
  -32.1411  -16.5458   22.8082 H   0  0  0  0  0  0
  1 25  1  0  0  0
  1 30  2  0  0  0
  1 81  1  0  0  0
  2  3  1  0  0  0
  2 25  1  0  0  0
  2 87  1  0  0  0
  2 88  1  0  0  0
  3  4  1  0  0  0
  3 89  1  0  0  0
  3 90  1  0  0  0
  4  5  1  0  0  0
  4 91  1  0  0  0
  4 92  1  0  0  0
  5  6  1  0  0  0
  5 26  1  0  0  0
  5 93  1  0  0  0
  6 25  1  0  0  0
  6 94  1  0  0  0
  6 95  1  0  0  0
  7  8  2  0  0  0
  7 26  1  0  0  0
  7 29  1  0  0  0
  8  9  1  0  0  0
  8 22  1  0  0  0
  9 10  1  0  0  0
  9 27  2  0  0  0
 10 11  2  0  0  0
 10 15  1  0  0  0
 11 12  1  0  0  0
 11 96  1  0  0  0
 12 13  2  0  0  0
 12 97  1  0  0  0
 13 14  1  0  0  0
 13 31  1  0  0  0
 14 15  2  0  0  0
 14 98  1  0  0  0
 15 99  1  0  0  0
 16 17  2  0  0  0
 16 21  1  0  0  0
 16 31  1  0  0  0
 17 18  1  0  0  0
 17100  1  0  0  0
 18 19  2  0  0  0
 18101  1  0  0  0
 19 20  1  0  0  0
 19 24  1  0  0  0
 20 21  2  0  0  0
 20102  1  0  0  0
 21 23  1  0  0  0
 22 28  1  0  0  0
 22 32  2  0  0  0
 26 27  1  0  0  0
 28103  1  0  0  0
 28104  1  0  0  0
 29105  1  0  0  0
 29106  1  0  0  0
 33 34  1  0  0  0
 33 66  1  0  0  0
 33 70  2  0  0  0
 34 36  1  0  0  0
 34 59  1  0  0  0
 34107  1  0  0  0
 35 44  2  0  0  0
 35 45  1  0  0  0
 35 68  1  0  0  0
 36 56  1  0  0  0
 36108  1  0  0  0
 37 39  1  0  0  0
 37 47  1  0  0  0
 37 66  1  0  0  0
 37109  1  0  0  0
 38 43  2  0  0  0
 38 46  1  0  0  0
 38 47  1  0  0  0
 39 64  1  0  0  0
 39 67  2  0  0  0
 40 52  1  0  0  0
 40 53  2  0  0  0
 40 58  1  0  0  0
 41110  1  0  0  0
 41111  1  0  0  0
 41112  1  0  0  0
 41 48  1  0  0  0
 42 43  1  0  0  0
 42 66  1  0  0  0
 42113  1  0  0  0
 42114  1  0  0  0
 43 44  1  0  0  0
 44115  1  0  0  0
 45 46  2  0  0  0
 45116  1  0  0  0
 46117  1  0  0  0
 47118  1  0  0  0
 47119  1  0  0  0
 48 56  1  0  0  0
 48 65  1  0  0  0
 48120  1  0  0  0
 49 50  1  0  0  0
 49 53  1  0  0  0
 49 64  1  0  0  0
 49121  1  0  0  0
 50 51  1  0  0  0
 50122  1  0  0  0
 50123  1  0  0  0
 51 52  1  0  0  0
 51124  1  0  0  0
 51125  1  0  0  0
 52126  1  0  0  0
 52127  1  0  0  0
 53 54  1  0  0  0
 54 55  2  0  0  0
 54128  1  0  0  0
 55 57  1  0  0  0
 55129  1  0  0  0
 56 69  2  0  0  0
 57 58  2  0  0  0
 57130  1  0  0  0
 58131  1  0  0  0
 59 60  1  0  0  0
 59 61  1  0  0  0
 59 62  1  0  0  0
 60132  1  0  0  0
 60133  1  0  0  0
 60134  1  0  0  0
 61135  1  0  0  0
 61136  1  0  0  0
 61137  1  0  0  0
 62138  1  0  0  0
 62139  1  0  0  0
 62140  1  0  0  0
 63 65  1  0  0  0
 63141  1  0  0  0
 63142  1  0  0  0
 63143  1  0  0  0
 64144  1  0  0  0
 65145  1  0  0  0
 68 78  1  0  0  0
 71 72  1  0  0  0
 71 73  2  0  0  0
 71146  1  0  0  0
 72 74  2  0  0  0
 72147  1  0  0  0
 73 81  1  0  0  0
 73 86  1  0  0  0
 74 82  1  0  0  0
 74 86  1  0  0  0
 75 79  1  0  0  0
 75 82  1  0  0  0
 75 84  2  0  0  0
 76148  1  0  0  0
 76149  1  0  0  0
 76150  1  0  0  0
 76 80  1  0  0  0
 77151  1  0  0  0
 77152  1  0  0  0
 77153  1  0  0  0
 77 81  1  0  0  0
 78 80  1  0  0  0
 78154  1  0  0  0
 78155  1  0  0  0
 79 80  1  0  0  0
 79 85  1  0  0  0
 79156  1  0  0  0
 80157  1  0  0  0
 81 83  1  0  0  0
 82158  1  0  0  0
 83159  1  0  0  0
 83160  1  0  0  0
 83161  1  0  0  0
M  CHG  1  83   1
M  ISO  4   1 100  68 101  78 101  81 100
M  END
> <chiral flag>
0

> <version>
0

> <s_m_source_file>
/data/baiqing/PycharmProjects/Reinvent-master-3.2/result/LINK_invent/BTK/process_docking_weight1_custom_product_contain_oxygen_bond_distance_aromatic_linkinvent_7_9_3/rearranged_h_0186.sdf

> <i_m_source_file_index>
17

> <r_mmod_Potential_Energy-OPLS-2005>
-314.035217285156

> <r_mmod_Stretch_Energy-OPLS-2005>
46.5310363769531

> <r_mmod_Bend_Energy-OPLS-2005>
141.605590820312

> <r_mmod_Torsional_Energy-OPLS-2005>
207.20671081543

> <r_mmod_Improper_Torsional_Energy-OPLS-2005>
1.97340154647827

> <r_mmod_Van_der_Waal_Energy-OPLS-2005>
144.08869934082

> <r_mmod_Electrostatic_Energy-OPLS-2005>
-395.487396240234

> <r_mmod_Solvation_Energy-OPLS-2005>
-471.209930419922

> <b_mmod_Minimization_Converged-OPLS-2005>
0

> <r_mmod_RMS_Derivative-OPLS-2005>
3.20020151138306

$$$$
18
                    3D
 Structure written by MMmdl.
153161  0  0  1  0            999 V2000
  -30.7231  -14.4734   20.5879 C   0  0  0  0  0  0
  -30.4166  -12.3149   19.4227 C   0  0  0  0  0  0
  -29.4906  -12.4994   18.2048 C   0  0  0  0  0  0
  -28.0133  -12.3591   18.6198 C   0  0  0  0  0  0
  -27.6572  -13.2087   19.8682 C   0  0  2  0  0  0
  -28.6984  -13.0123   20.9913 C   0  0  0  0  0  0
  -25.2586  -13.8175   20.5685 C   0  0  0  0  0  0
  -24.1834  -13.0453   20.9172 C   0  0  0  0  0  0
  -24.6382  -11.6914   20.8722 C   0  0  0  0  0  0
  -23.9042  -10.4306   21.0390 C   0  0  0  0  0  0
  -24.3597   -9.4223   21.9168 C   0  0  0  0  0  0
  -23.6289   -8.2248   22.0742 C   0  0  0  0  0  0
  -22.4274   -8.0275   21.3535 C   0  0  0  0  0  0
  -21.9900   -9.0243   20.4638 C   0  0  0  0  0  0
  -22.7211  -10.2133   20.3045 C   0  0  0  0  0  0
  -21.6849   -6.0733   22.5280 C   0  0  0  0  0  0
  -21.4005   -6.5637   23.8214 C   0  0  0  0  0  0
  -21.3663   -5.6790   24.9176 C   0  0  0  0  0  0
  -21.6049   -4.3054   24.7225 C   0  0  0  0  0  0
  -21.8818   -3.8147   23.4347 C   0  0  0  0  0  0
  -21.9193   -4.6963   22.3404 C   0  0  0  0  0  0
  -22.7861  -13.5251   21.1851 C   0  0  0  0  0  0
  -22.1662   -4.2152   21.0982 F   0  0  0  0  0  0
  -21.5639   -3.4538   25.7739 F   0  0  0  0  0  0
  -30.0281  -13.3109   20.4348 N   0  0  0  0  0  0
  -26.3002  -12.9335   20.3340 N   0  0  0  0  0  0
  -25.9304  -11.6494   20.5751 N   0  0  0  0  0  0
  -22.0499  -12.8247   22.0415 N   0  0  0  0  0  0
  -25.4374  -15.1888   20.4112 N   0  0  0  0  0  0
  -31.8396  -14.6512   20.0911 O   0  0  0  0  0  0
  -21.6638   -6.8870   21.4239 O   0  0  0  0  0  0
  -22.3544  -14.5562   20.6713 O   0  0  0  0  0  0
  -24.6198  -31.8691   23.2121 C   0  0  0  0  0  0
  -25.9082  -32.4821   23.8420 C   0  0  1  0  0  0
  -27.2082  -27.3968   20.0815 C   0  0  0  0  0  0
  -25.5942  -33.8622   24.2349 N   0  0  0  0  0  0
  -23.4068  -30.5007   21.5542 C   0  0  2  0  0  0
  -24.8459  -28.9781   20.1063 C   0  0  0  0  0  0
  -22.7438  -29.4679   22.4961 C   0  0  0  0  0  0
  -18.0288  -28.1376   22.8484 C   0  0  0  0  0  0
  -24.1487  -36.7308   23.2635 C   0  0  0  0  0  0
  -25.9449  -30.8204   21.3760 C   0  0  0  0  0  0
  -26.0147  -29.4578   20.7117 C   0  0  0  0  0  0
  -27.1995  -28.6750   20.6992 C   0  0  0  0  0  0
  -26.0190  -26.9709   19.4351 C   0  0  0  0  0  0
  -24.8453  -27.7349   19.4635 C   0  0  0  0  0  0
  -23.6142  -29.8505   20.1643 C   0  0  0  0  0  0
  -25.4106  -36.3108   24.0339 C   0  0  1  0  0  0
  -20.5880  -28.3678   23.1285 C   0  0  2  0  0  0
  -20.6773  -26.9408   22.5397 C   0  0  0  0  0  0
  -19.5750  -26.6385   21.5194 C   0  0  0  0  0  0
  -18.1930  -26.7922   22.1611 C   0  0  0  0  0  0
  -19.1535  -28.8841   23.2888 C   0  0  0  0  0  0
  -18.9463  -30.1444   23.8903 C   0  0  0  0  0  0
  -17.6466  -30.6580   24.0563 C   0  0  0  0  0  0
  -25.9043  -34.9472   23.5129 C   0  0  0  0  0  0
  -16.5356  -29.9086   23.6322 C   0  0  0  0  0  0
  -16.7275  -28.6500   23.0341 C   0  0  0  0  0  0
  -26.4487  -31.6595   25.0756 C   0  0  0  0  0  0
  -25.3743  -31.3703   26.1499 C   0  0  0  0  0  0
  -27.0319  -30.3028   24.6156 C   0  0  0  0  0  0
  -27.6070  -32.4304   25.7519 C   0  0  0  0  0  0
  -27.5578  -37.1808   24.8467 C   0  0  0  0  0  0
  -21.4162  -29.3053   22.3697 N   0  0  0  0  0  0
  -26.4291  -37.3793   23.9416 N   0  0  0  0  0  0
  -24.6757  -31.0776   22.1044 N   0  0  0  0  0  0
  -23.4196  -28.8196   23.2994 O   0  0  0  0  0  0
  -28.3268  -26.5660   20.1381 O   0  0  0  0  0  0
  -26.5588  -34.8919   22.4679 O   0  0  0  0  0  0
  -23.5383  -32.1460   23.7497 O   0  0  0  0  0  0
  -28.4972  -18.0268   19.3454 C   0  0  0  0  0  0
  -28.9350  -19.0035   20.2161 C   0  0  0  0  0  0
  -29.6511  -16.6671   20.7581 C   0  0  0  0  0  0
  -29.1366  -21.4159   20.7171 C   0  0  0  0  0  0
  -27.3943  -22.6793   22.0004 C   0  0  0  0  0  0
  -28.9978  -24.0698   20.5389 C   0  0  0  0  0  0
  -28.0293  -25.1501   19.9846 C   0  0  0  0  0  0
  -28.2595  -22.6937   20.7212 C   0  0  1  0  0  0
  -28.8983  -16.7168   19.6550 N   0  0  0  0  0  0
  -28.5803  -20.3241   20.1483 N   0  0  0  0  0  0
  -30.1421  -15.4474   21.3091 N   0  0  0  0  0  0
  -30.2679  -21.4327   21.2061 O   0  0  0  0  0  0
  -29.9079  -18.2601   21.4852 S   0  0  0  0  0  0
  -31.4617  -12.4050   19.1221 H   0  0  0  0  0  0
  -30.3152  -11.3086   19.8329 H   0  0  0  0  0  0
  -29.7309  -11.7642   17.4351 H   0  0  0  0  0  0
  -29.6583  -13.4794   17.7562 H   0  0  0  0  0  0
  -27.8264  -11.3047   18.8248 H   0  0  0  0  0  0
  -27.3616  -12.6245   17.7862 H   0  0  0  0  0  0
  -27.6956  -14.2523   19.5577 H   0  0  0  0  0  0
  -28.6761  -11.9841   21.3563 H   0  0  0  0  0  0
  -28.4546  -13.6342   21.8526 H   0  0  0  0  0  0
  -25.2731   -9.5720   22.4751 H   0  0  0  0  0  0
  -24.0005   -7.4644   22.7460 H   0  0  0  0  0  0
  -21.0831   -8.8747   19.8950 H   0  0  0  0  0  0
  -22.3644  -10.9665   19.6167 H   0  0  0  0  0  0
  -21.1985   -7.6145   23.9721 H   0  0  0  0  0  0
  -21.1489   -6.0518   25.9080 H   0  0  0  0  0  0
  -22.0597   -2.7612   23.2843 H   0  0  0  0  0  0
  -22.4105  -11.9906   22.4813 H   0  0  0  0  0  0
  -21.1120  -13.1290   22.2616 H   0  0  0  0  0  0
  -24.6833  -15.8555   20.5317 H   0  0  0  0  0  0
  -26.3095  -15.6194   20.1256 H   0  0  0  0  0  0
  -26.7157  -32.5505   23.1184 H   0  0  0  0  0  0
  -25.0148  -33.9791   25.0535 H   0  0  0  0  0  0
  -22.6979  -31.3207   21.4237 H   0  0  0  0  0  0
  -23.3746  -35.9642   23.3308 H   0  0  0  0  0  0
  -24.3590  -36.8909   22.2046 H   0  0  0  0  0  0
  -23.7235  -37.6517   23.6639 H   0  0  0  0  0  0
  -26.0732  -31.5895   20.6132 H   0  0  0  0  0  0
  -26.8288  -30.8610   22.0011 H   0  0  0  0  0  0
  -28.0947  -29.0325   21.1883 H   0  0  0  0  0  0
  -25.9555  -26.0339   18.9028 H   0  0  0  0  0  0
  -23.9511  -27.3679   18.9774 H   0  0  0  0  0  0
  -23.7281  -30.6348   19.4155 H   0  0  0  0  0  0
  -22.7342  -29.2810   19.8585 H   0  0  0  0  0  0
  -25.1275  -36.1980   25.0831 H   0  0  0  0  0  0
  -20.9981  -28.3238   24.1401 H   0  0  0  0  0  0
  -20.5656  -26.2285   23.3592 H   0  0  0  0  0  0
  -21.6643  -26.7435   22.1193 H   0  0  0  0  0  0
  -19.6907  -25.6296   21.1221 H   0  0  0  0  0  0
  -19.6678  -27.3197   20.6724 H   0  0  0  0  0  0
  -17.4192  -26.6665   21.4023 H   0  0  0  0  0  0
  -18.0343  -26.0067   22.9008 H   0  0  0  0  0  0
  -19.7942  -30.7259   24.2266 H   0  0  0  0  0  0
  -17.5022  -31.6256   24.5170 H   0  0  0  0  0  0
  -15.5353  -30.2988   23.7645 H   0  0  0  0  0  0
  -15.8676  -28.0829   22.7043 H   0  0  0  0  0  0
  -24.5937  -30.7026   25.7839 H   0  0  0  0  0  0
  -24.8911  -32.2853   26.4931 H   0  0  0  0  0  0
  -25.8097  -30.8892   27.0268 H   0  0  0  0  0  0
  -26.2875  -29.6797   24.1186 H   0  0  0  0  0  0
  -27.4048  -29.7256   25.4629 H   0  0  0  0  0  0
  -27.8735  -30.4334   23.9349 H   0  0  0  0  0  0
  -27.2706  -33.3601   26.2119 H   0  0  0  0  0  0
  -28.3873  -32.6862   25.0341 H   0  0  0  0  0  0
  -28.0747  -31.8410   26.5417 H   0  0  0  0  0  0
  -28.2597  -38.0103   24.7525 H   0  0  0  0  0  0
  -28.1072  -36.2638   24.6280 H   0  0  0  0  0  0
  -27.2306  -37.1445   25.8873 H   0  0  0  0  0  0
  -20.9315  -29.8815   21.6966 H   0  0  0  0  0  0
  -26.0179  -38.2872   24.1421 H   0  0  0  0  0  0
  -27.8691  -18.1729   18.4769 H   0  0  0  0  0  0
  -26.5609  -23.3788   21.9397 H   0  0  0  0  0  0
  -27.9805  -22.9391   22.8825 H   0  0  0  0  0  0
  -26.9572  -21.6958   22.1798 H   0  0  0  0  0  0
  -29.4098  -24.3957   21.4940 H   0  0  0  0  0  0
  -29.8449  -23.9648   19.8599 H   0  0  0  0  0  0
  -27.8687  -24.9377   18.9262 H   0  0  0  0  0  0
  -27.0844  -24.9587   20.4915 H   0  0  0  0  0  0
  -27.5846  -22.5852   19.8700 H   0  0  0  0  0  0
  -27.7172  -20.5073   19.6539 H   0  0  0  0  0  0
  -30.6318  -15.6012   22.1771 H   0  0  0  0  0  0
  1 25  1  0  0  0
  1 30  2  0  0  0
  1 81  1  0  0  0
  2  3  1  0  0  0
  2 25  1  0  0  0
  2 84  1  0  0  0
  2 85  1  0  0  0
  3  4  1  0  0  0
  3 86  1  0  0  0
  3 87  1  0  0  0
  4  5  1  0  0  0
  4 88  1  0  0  0
  4 89  1  0  0  0
  5  6  1  0  0  0
  5 26  1  0  0  0
  5 90  1  0  0  0
  6 25  1  0  0  0
  6 91  1  0  0  0
  6 92  1  0  0  0
  7  8  2  0  0  0
  7 26  1  0  0  0
  7 29  1  0  0  0
  8  9  1  0  0  0
  8 22  1  0  0  0
  9 10  1  0  0  0
  9 27  2  0  0  0
 10 11  2  0  0  0
 10 15  1  0  0  0
 11 12  1  0  0  0
 11 93  1  0  0  0
 12 13  2  0  0  0
 12 94  1  0  0  0
 13 14  1  0  0  0
 13 31  1  0  0  0
 14 15  2  0  0  0
 14 95  1  0  0  0
 15 96  1  0  0  0
 16 17  2  0  0  0
 16 21  1  0  0  0
 16 31  1  0  0  0
 17 18  1  0  0  0
 17 97  1  0  0  0
 18 19  2  0  0  0
 18 98  1  0  0  0
 19 20  1  0  0  0
 19 24  1  0  0  0
 20 21  2  0  0  0
 20 99  1  0  0  0
 21 23  1  0  0  0
 22 28  1  0  0  0
 22 32  2  0  0  0
 26 27  1  0  0  0
 28100  1  0  0  0
 28101  1  0  0  0
 29102  1  0  0  0
 29103  1  0  0  0
 33 34  1  0  0  0
 33 66  1  0  0  0
 33 70  2  0  0  0
 34 36  1  0  0  0
 34 59  1  0  0  0
 34104  1  0  0  0
 35 44  2  0  0  0
 35 45  1  0  0  0
 35 68  1  0  0  0
 36 56  1  0  0  0
 36105  1  0  0  0
 37 39  1  0  0  0
 37 47  1  0  0  0
 37 66  1  0  0  0
 37106  1  0  0  0
 38 43  2  0  0  0
 38 46  1  0  0  0
 38 47  1  0  0  0
 39 64  1  0  0  0
 39 67  2  0  0  0
 40 52  1  0  0  0
 40 53  2  0  0  0
 40 58  1  0  0  0
 41107  1  0  0  0
 41108  1  0  0  0
 41109  1  0  0  0
 41 48  1  0  0  0
 42 43  1  0  0  0
 42 66  1  0  0  0
 42110  1  0  0  0
 42111  1  0  0  0
 43 44  1  0  0  0
 44112  1  0  0  0
 45 46  2  0  0  0
 45113  1  0  0  0
 46114  1  0  0  0
 47115  1  0  0  0
 47116  1  0  0  0
 48 56  1  0  0  0
 48 65  1  0  0  0
 48117  1  0  0  0
 49 50  1  0  0  0
 49 53  1  0  0  0
 49 64  1  0  0  0
 49118  1  0  0  0
 50 51  1  0  0  0
 50119  1  0  0  0
 50120  1  0  0  0
 51 52  1  0  0  0
 51121  1  0  0  0
 51122  1  0  0  0
 52123  1  0  0  0
 52124  1  0  0  0
 53 54  1  0  0  0
 54 55  2  0  0  0
 54125  1  0  0  0
 55 57  1  0  0  0
 55126  1  0  0  0
 56 69  2  0  0  0
 57 58  2  0  0  0
 57127  1  0  0  0
 58128  1  0  0  0
 59 60  1  0  0  0
 59 61  1  0  0  0
 59 62  1  0  0  0
 60129  1  0  0  0
 60130  1  0  0  0
 60131  1  0  0  0
 61132  1  0  0  0
 61133  1  0  0  0
 61134  1  0  0  0
 62135  1  0  0  0
 62136  1  0  0  0
 62137  1  0  0  0
 63 65  1  0  0  0
 63138  1  0  0  0
 63139  1  0  0  0
 63140  1  0  0  0
 64141  1  0  0  0
 65142  1  0  0  0
 68 77  1  0  0  0
 71 72  2  0  0  0
 71 79  1  0  0  0
 71143  1  0  0  0
 72 80  1  0  0  0
 72 83  1  0  0  0
 73 79  2  0  0  0
 73 81  1  0  0  0
 73 83  1  0  0  0
 74 78  1  0  0  0
 74 80  1  0  0  0
 74 82  2  0  0  0
 75144  1  0  0  0
 75145  1  0  0  0
 75146  1  0  0  0
 75 78  1  0  0  0
 76 77  1  0  0  0
 76 78  1  0  0  0
 76147  1  0  0  0
 76148  1  0  0  0
 77149  1  0  0  0
 77150  1  0  0  0
 78151  1  0  0  0
 80152  1  0  0  0
 81153  1  0  0  0
M  ISO  4   1 100  68 101  77 101  81 100
M  END
> <chiral flag>
0

> <version>
0

> <s_m_source_file>
/data/baiqing/PycharmProjects/Reinvent-master-3.2/result/LINK_invent/BTK/process_docking_weight1_custom_product_contain_oxygen_bond_distance_aromatic_linkinvent_7_9_3/rearranged_h_0186.sdf

> <i_m_source_file_index>
18

> <r_mmod_Potential_Energy-OPLS-2005>
-86.3978424072266

> <r_mmod_Stretch_Energy-OPLS-2005>
42.113410949707

> <r_mmod_Bend_Energy-OPLS-2005>
120.234481811523

> <r_mmod_Torsional_Energy-OPLS-2005>
273.045806884766

> <r_mmod_Improper_Torsional_Energy-OPLS-2005>
5.71475219726562

> <r_mmod_Van_der_Waal_Energy-OPLS-2005>
138.571929931641

> <r_mmod_Electrostatic_Energy-OPLS-2005>
-447.518737792969

> <r_mmod_Solvation_Energy-OPLS-2005>
-239.389602661133

> <b_mmod_Minimization_Converged-OPLS-2005>
0

> <r_mmod_RMS_Derivative-OPLS-2005>
1.44727051258087

$$$$
19
                    3D
 Structure written by MMmdl.
155163  0  0  1  0            999 V2000
  -29.9241  -15.3907   20.4327 C   0  0  0  0  0  0
  -30.4032  -12.9220   19.5933 C   0  0  0  0  0  0
  -29.5402  -12.6181   18.3305 C   0  0  0  0  0  0
  -28.0808  -12.2883   18.7081 C   0  0  0  0  0  0
  -27.5646  -13.2375   19.8143 C   0  0  2  0  0  0
  -28.5335  -13.3404   20.9890 C   0  0  0  0  0  0
  -25.2154  -13.8117   20.5622 C   0  0  0  0  0  0
  -24.1545  -13.0346   20.9240 C   0  0  0  0  0  0
  -24.6177  -11.6840   20.8739 C   0  0  0  0  0  0
  -23.8930  -10.4232   21.0428 C   0  0  0  0  0  0
  -24.3547   -9.4167   21.9192 C   0  0  0  0  0  0
  -23.6258   -8.2188   22.0751 C   0  0  0  0  0  0
  -22.4236   -8.0230   21.3544 C   0  0  0  0  0  0
  -21.9836   -9.0180   20.4641 C   0  0  0  0  0  0
  -22.7124  -10.2070   20.3059 C   0  0  0  0  0  0
  -21.6841   -6.0699   22.5276 C   0  0  0  0  0  0
  -21.4005   -6.5618   23.8203 C   0  0  0  0  0  0
  -21.3653   -5.6781   24.9173 C   0  0  0  0  0  0
  -21.6051   -4.3044   24.7230 C   0  0  0  0  0  0
  -21.8822   -3.8122   23.4354 C   0  0  0  0  0  0
  -21.9186   -4.6931   22.3404 C   0  0  0  0  0  0
  -22.7617  -13.5148   21.1955 C   0  0  0  0  0  0
  -22.1664   -4.2120   21.0982 F   0  0  0  0  0  0
  -21.5628   -3.4532   25.7744 F   0  0  0  0  0  0
  -29.7074  -13.9796   20.4321 N   0  0  0  0  0  0
  -26.2411  -12.9270   20.2910 N   0  0  0  0  0  0
  -25.9040  -11.6433   20.5565 N   0  0  0  0  0  0
  -22.0323  -12.8131   22.0547 N   0  0  0  0  0  0
  -25.3851  -15.1857   20.4118 N   0  0  0  0  0  0
  -31.1344  -15.6026   20.1783 O   0  0  0  0  0  0
  -21.6618   -6.8824   21.4233 O   0  0  0  0  0  0
  -22.3310  -14.5462   20.6803 O   0  0  0  0  0  0
  -24.6728  -31.9143   23.2013 C   0  0  0  0  0  0
  -25.9552  -32.4958   23.8456 C   0  0  1  0  0  0
  -26.3315  -27.0819   20.4103 C   0  0  0  0  0  0
  -25.6326  -33.8710   24.2431 N   0  0  0  0  0  0
  -23.4820  -30.5700   21.5634 C   0  0  2  0  0  0
  -24.7835  -29.1346   19.9268 C   0  0  0  0  0  0
  -23.0669  -29.4728   22.5457 C   0  0  0  0  0  0
  -18.5986  -28.0914   22.1590 C   0  0  0  0  0  0
  -24.1520  -36.7313   23.2611 C   0  0  0  0  0  0
  -25.9988  -30.7710   21.3934 C   0  0  0  0  0  0
  -25.9218  -29.4182   20.6929 C   0  0  0  0  0  0
  -26.8264  -28.3498   20.8757 C   0  0  0  0  0  0
  -25.8009  -27.0720   19.1492 C   0  0  0  0  0  0
  -24.7664  -28.0135   19.0701 C   0  0  0  0  0  0
  -23.5977  -30.0308   20.1086 C   0  0  0  0  0  0
  -25.4143  -36.3136   24.0323 C   0  0  1  0  0  0
  -21.2281  -28.2344   23.4455 C   0  0  2  0  0  0
  -21.8013  -26.1687   23.4525 C   0  0  0  0  0  0
  -20.3178  -25.1806   22.0602 C   0  0  0  0  0  0
  -18.9485  -26.4844   21.4296 C   0  0  0  0  0  0
  -19.6379  -28.8545   22.9815 C   0  0  0  0  0  0
  -19.1824  -29.9954   23.7382 C   0  0  0  0  0  0
  -17.8310  -30.3962   23.8671 C   0  0  0  0  0  0
  -25.9158  -34.9543   23.5107 C   0  0  0  0  0  0
  -16.8394  -29.6034   23.2735 C   0  0  0  0  0  0
  -17.2207  -28.4840   22.4690 C   0  0  0  0  0  0
  -26.4626  -31.6623   25.0847 C   0  0  0  0  0  0
  -25.3727  -31.3802   26.1456 C   0  0  0  0  0  0
  -27.0417  -30.3005   24.6370 C   0  0  0  0  0  0
  -27.6162  -32.4261   25.7740 C   0  0  0  0  0  0
  -27.5601  -37.1853   24.8461 C   0  0  0  0  0  0
  -21.8019  -29.2918   22.6685 N   0  0  0  0  0  0
  -26.4294  -37.3848   23.9431 N   0  0  0  0  0  0
  -24.7404  -31.1503   22.0753 N   0  0  0  0  0  0
  -23.8414  -28.8090   23.2262 O   0  0  0  0  0  0
  -25.3255  -26.4582   21.2264 O   0  0  0  0  0  0
  -26.5572  -34.8989   22.4582 O   0  0  0  0  0  0
  -23.5871  -32.1831   23.7415 O   0  0  0  0  0  0
  -26.8618  -20.3465   20.8647 C   0  0  0  0  0  0
  -25.4567  -23.0129   20.7885 C   0  0  0  0  0  0
  -19.6408  -26.5468   23.6950 C   0  0  0  0  0  0
  -28.6184  -16.6847   20.6107 C   0  0  0  0  0  0
  -21.5770  -26.9396   21.4003 C   0  0  0  0  0  0
  -24.0824  -24.1336   21.2538 C   0  0  1  0  0  0
  -23.6113  -25.9794   21.0785 C   0  0  2  0  0  0
  -27.1481  -19.1974   21.4665 N   0  0  0  0  0  0
  -28.2933  -18.4316   20.7127 N   0  0  0  0  0  0
  -25.7851  -21.5579   21.1190 N   0  0  0  0  0  0
  -22.9047  -23.3626   20.8203 N   0  3  0  0  0  0
  -26.2583  -23.5374   20.0155 O   0  0  0  0  0  0
  -27.8101  -19.6697   19.4917 S   0  0  0  0  0  0
  -31.3958  -13.2576   19.2934 H   0  0  0  0  0  0
  -30.5680  -12.0129   20.1744 H   0  0  0  0  0  0
  -29.9759  -11.8003   17.7561 H   0  0  0  0  0  0
  -29.5486  -13.4918   17.6775 H   0  0  0  0  0  0
  -28.0466  -11.2587   19.0666 H   0  0  0  0  0  0
  -27.4357  -12.3295   17.8296 H   0  0  0  0  0  0
  -27.4911  -14.2114   19.3320 H   0  0  0  0  0  0
  -28.7473  -12.3655   21.4301 H   0  0  0  0  0  0
  -28.1181  -13.9552   21.7884 H   0  0  0  0  0  0
  -25.2699   -9.5662   22.4750 H   0  0  0  0  0  0
  -23.9978   -7.4570   22.7451 H   0  0  0  0  0  0
  -21.0776   -8.8667   19.8949 H   0  0  0  0  0  0
  -22.3572  -10.9605   19.6168 H   0  0  0  0  0  0
  -21.2005   -7.6129   23.9693 H   0  0  0  0  0  0
  -21.1479   -6.0522   25.9075 H   0  0  0  0  0  0
  -22.0613   -2.7586   23.2860 H   0  0  0  0  0  0
  -22.3994  -11.9796   22.4884 H   0  0  0  0  0  0
  -21.0949  -13.1126   22.2832 H   0  0  0  0  0  0
  -24.6145  -15.8325   20.5392 H   0  0  0  0  0  0
  -26.2092  -15.6255   20.0268 H   0  0  0  0  0  0
  -26.7660  -32.5447   23.1200 H   0  0  0  0  0  0
  -25.0618  -33.9830   25.0679 H   0  0  0  0  0  0
  -22.7108  -31.3442   21.5490 H   0  0  0  0  0  0
  -23.3813  -35.9609   23.3233 H   0  0  0  0  0  0
  -24.3631  -36.8974   22.2034 H   0  0  0  0  0  0
  -23.7233  -37.6491   23.6649 H   0  0  0  0  0  0
  -26.2313  -31.5323   20.6482 H   0  0  0  0  0  0
  -26.8577  -30.7253   22.0532 H   0  0  0  0  0  0
  -27.5642  -28.4146   21.6632 H   0  0  0  0  0  0
  -25.6425  -26.1424   18.6205 H   0  0  0  0  0  0
  -23.9423  -27.8571   18.3864 H   0  0  0  0  0  0
  -23.7041  -30.8676   19.4185 H   0  0  0  0  0  0
  -22.6836  -29.5167   19.8107 H   0  0  0  0  0  0
  -25.1303  -36.1973   25.0809 H   0  0  0  0  0  0
  -21.3970  -28.5648   24.4732 H   0  0  0  0  0  0
  -21.7573  -25.7565   24.4666 H   0  0  0  0  0  0
  -22.8633  -26.0126   23.3036 H   0  0  0  0  0  0
  -19.8174  -24.3479   22.5651 H   0  0  0  0  0  0
  -20.7445  -24.6381   21.2184 H   0  0  0  0  0  0
  -19.0835  -26.6732   20.3640 H   0  0  0  0  0  0
  -17.9985  -25.9468   21.4357 H   0  0  0  0  0  0
  -19.9117  -30.5387   24.3243 H   0  0  0  0  0  0
  -17.5635  -31.2479   24.4779 H   0  0  0  0  0  0
  -15.7944  -29.8374   23.4203 H   0  0  0  0  0  0
  -16.4253  -27.8792   22.0544 H   0  0  0  0  0  0
  -24.5911  -30.7186   25.7706 H   0  0  0  0  0  0
  -24.8922  -32.2983   26.4844 H   0  0  0  0  0  0
  -25.7930  -30.8961   27.0280 H   0  0  0  0  0  0
  -26.3033  -29.6832   24.1253 H   0  0  0  0  0  0
  -27.3881  -29.7205   25.4936 H   0  0  0  0  0  0
  -27.9026  -30.4224   23.9796 H   0  0  0  0  0  0
  -27.2789  -33.3565   26.2319 H   0  0  0  0  0  0
  -28.4056  -32.6794   25.0653 H   0  0  0  0  0  0
  -28.0722  -31.8341   26.5684 H   0  0  0  0  0  0
  -28.2574  -38.0198   24.7571 H   0  0  0  0  0  0
  -28.1154  -36.2733   24.6204 H   0  0  0  0  0  0
  -27.2336  -37.1401   25.8867 H   0  0  0  0  0  0
  -21.1598  -29.8653   22.1403 H   0  0  0  0  0  0
  -26.0164  -38.2905   24.1477 H   0  0  0  0  0  0
  -18.5591  -26.3589   23.6449 H   0  0  0  0  0  0
  -19.6845  -27.1160   24.6375 H   0  0  0  0  0  0
  -19.7178  -25.5978   24.2532 H   0  0  0  0  0  0
  -27.9990  -16.4332   19.7518 H   0  0  0  0  0  0
  -28.0522  -16.3072   21.4609 H   0  0  0  0  0  0
  -21.5334  -27.9032   20.9118 H   0  0  0  0  0  0
  -21.1829  -26.5615   20.4529 H   0  0  0  0  0  0
  -24.1078  -24.0171   22.3387 H   0  0  0  0  0  0
  -23.5191  -25.9937   19.9958 H   0  0  0  0  0  0
  -25.1235  -21.2368   21.8120 H   0  0  0  0  0  0
  -22.7847  -23.4441   19.8242 H   0  0  0  0  0  0
  -22.0676  -23.6750   21.2786 H   0  0  0  0  0  0
  -23.0295  -22.3876   21.0312 H   0  0  0  0  0  0
  1 25  1  0  0  0
  1 30  2  0  0  0
  1 74  1  0  0  0
  2  3  1  0  0  0
  2 25  1  0  0  0
  2 84  1  0  0  0
  2 85  1  0  0  0
  3  4  1  0  0  0
  3 86  1  0  0  0
  3 87  1  0  0  0
  4  5  1  0  0  0
  4 88  1  0  0  0
  4 89  1  0  0  0
  5  6  1  0  0  0
  5 26  1  0  0  0
  5 90  1  0  0  0
  6 25  1  0  0  0
  6 91  1  0  0  0
  6 92  1  0  0  0
  7  8  2  0  0  0
  7 26  1  0  0  0
  7 29  1  0  0  0
  8  9  1  0  0  0
  8 22  1  0  0  0
  9 10  1  0  0  0
  9 27  2  0  0  0
 10 11  2  0  0  0
 10 15  1  0  0  0
 11 12  1  0  0  0
 11 93  1  0  0  0
 12 13  2  0  0  0
 12 94  1  0  0  0
 13 14  1  0  0  0
 13 31  1  0  0  0
 14 15  2  0  0  0
 14 95  1  0  0  0
 15 96  1  0  0  0
 16 17  2  0  0  0
 16 21  1  0  0  0
 16 31  1  0  0  0
 17 18  1  0  0  0
 17 97  1  0  0  0
 18 19  2  0  0  0
 18 98  1  0  0  0
 19 20  1  0  0  0
 19 24  1  0  0  0
 20 21  2  0  0  0
 20 99  1  0  0  0
 21 23  1  0  0  0
 22 28  1  0  0  0
 22 32  2  0  0  0
 26 27  1  0  0  0
 28100  1  0  0  0
 28101  1  0  0  0
 29102  1  0  0  0
 29103  1  0  0  0
 33 34  1  0  0  0
 33 66  1  0  0  0
 33 70  2  0  0  0
 34 36  1  0  0  0
 34 59  1  0  0  0
 34104  1  0  0  0
 35 44  2  0  0  0
 35 45  1  0  0  0
 35 68  1  0  0  0
 36 56  1  0  0  0
 36105  1  0  0  0
 37 39  1  0  0  0
 37 47  1  0  0  0
 37 66  1  0  0  0
 37106  1  0  0  0
 38 43  2  0  0  0
 38 46  1  0  0  0
 38 47  1  0  0  0
 39 64  1  0  0  0
 39 67  2  0  0  0
 40 52  1  0  0  0
 40 53  2  0  0  0
 40 58  1  0  0  0
 41107  1  0  0  0
 41108  1  0  0  0
 41109  1  0  0  0
 41 48  1  0  0  0
 42 43  1  0  0  0
 42 66  1  0  0  0
 42110  1  0  0  0
 42111  1  0  0  0
 43 44  1  0  0  0
 44112  1  0  0  0
 45 46  2  0  0  0
 45113  1  0  0  0
 46114  1  0  0  0
 47115  1  0  0  0
 47116  1  0  0  0
 48 56  1  0  0  0
 48 65  1  0  0  0
 48117  1  0  0  0
 49 50  1  0  0  0
 49 53  1  0  0  0
 49 64  1  0  0  0
 49118  1  0  0  0
 50 51  1  0  0  0
 50119  1  0  0  0
 50120  1  0  0  0
 51 52  1  0  0  0
 51121  1  0  0  0
 51122  1  0  0  0
 52123  1  0  0  0
 52124  1  0  0  0
 53 54  1  0  0  0
 54 55  2  0  0  0
 54125  1  0  0  0
 55 57  1  0  0  0
 55126  1  0  0  0
 56 69  2  0  0  0
 57 58  2  0  0  0
 57127  1  0  0  0
 58128  1  0  0  0
 59 60  1  0  0  0
 59 61  1  0  0  0
 59 62  1  0  0  0
 60129  1  0  0  0
 60130  1  0  0  0
 60131  1  0  0  0
 61132  1  0  0  0
 61133  1  0  0  0
 61134  1  0  0  0
 62135  1  0  0  0
 62136  1  0  0  0
 62137  1  0  0  0
 63 65  1  0  0  0
 63138  1  0  0  0
 63139  1  0  0  0
 63140  1  0  0  0
 64141  1  0  0  0
 65142  1  0  0  0
 68 77  1  0  0  0
 71 78  2  0  0  0
 71 80  1  0  0  0
 71 83  1  0  0  0
 72 76  1  0  0  0
 72 80  1  0  0  0
 72 82  2  0  0  0
 73 75  1  0  0  0
 73143  1  0  0  0
 73144  1  0  0  0
 73145  1  0  0  0
 74 79  1  0  0  0
 74146  1  0  0  0
 74147  1  0  0  0
 75148  1  0  0  0
 75149  1  0  0  0
 75 77  1  0  0  0
 76 77  1  0  0  0
 76 81  1  0  0  0
 76150  1  0  0  0
 77151  1  0  0  0
 78 79  1  0  0  0
 79 83  1  0  0  0
 80152  1  0  0  0
 81153  1  0  0  0
 81154  1  0  0  0
 81155  1  0  0  0
M  CHG  1  81   1
M  ISO  4   1 100  68 101  74 100  77 101
M  END
> <chiral flag>
0

> <version>
0

> <s_m_source_file>
/data/baiqing/PycharmProjects/Reinvent-master-3.2/result/LINK_invent/BTK/process_docking_weight1_custom_product_contain_oxygen_bond_distance_aromatic_linkinvent_7_9_3/rearranged_h_0186.sdf

> <i_m_source_file_index>
19

> <r_mmod_Potential_Energy-OPLS-2005>
11144.818359375

> <r_mmod_Stretch_Energy-OPLS-2005>
5763.62890625

> <r_mmod_Bend_Energy-OPLS-2005>
1144.02270507812

> <r_mmod_Torsional_Energy-OPLS-2005>
452.7939453125

> <r_mmod_Improper_Torsional_Energy-OPLS-2005>
45.7992553710938

> <r_mmod_Van_der_Waal_Energy-OPLS-2005>
1771.50231933594

> <r_mmod_Electrostatic_Energy-OPLS-2005>
-333.722869873047

> <r_mmod_Solvation_Energy-OPLS-2005>
-523.089111328125

> <b_mmod_Minimization_Converged-OPLS-2005>
0

> <r_mmod_RMS_Derivative-OPLS-2005>
3.19296860694885

$$$$
20
                    3D
 Structure written by MMmdl.
165173  0  0  1  0            999 V2000
  -30.6695  -14.5005   20.5513 C   0  0  0  0  0  0
  -30.4259  -12.3167   19.4257 C   0  0  0  0  0  0
  -29.4972  -12.5083   18.2078 C   0  0  0  0  0  0
  -28.0167  -12.3664   18.6162 C   0  0  0  0  0  0
  -27.6593  -13.2041   19.8731 C   0  0  2  0  0  0
  -28.7013  -12.9858   20.9953 C   0  0  0  0  0  0
  -25.2588  -13.8148   20.5678 C   0  0  0  0  0  0
  -24.1844  -13.0428   20.9179 C   0  0  0  0  0  0
  -24.6388  -11.6891   20.8736 C   0  0  0  0  0  0
  -23.9055  -10.4279   21.0396 C   0  0  0  0  0  0
  -24.3606   -9.4202   21.9179 C   0  0  0  0  0  0
  -23.6285   -8.2241   22.0763 C   0  0  0  0  0  0
  -22.4272   -8.0274   21.3549 C   0  0  0  0  0  0
  -21.9897   -9.0245   20.4659 C   0  0  0  0  0  0
  -22.7220  -10.2124   20.3060 C   0  0  0  0  0  0
  -21.6853   -6.0731   22.5279 C   0  0  0  0  0  0
  -21.4011   -6.5636   23.8211 C   0  0  0  0  0  0
  -21.3668   -5.6793   24.9177 C   0  0  0  0  0  0
  -21.6046   -4.3056   24.7227 C   0  0  0  0  0  0
  -21.8822   -3.8150   23.4348 C   0  0  0  0  0  0
  -21.9192   -4.6961   22.3403 C   0  0  0  0  0  0
  -22.7872  -13.5235   21.1835 C   0  0  0  0  0  0
  -22.1658   -4.2144   21.0981 F   0  0  0  0  0  0
  -21.5634   -3.4546   25.7745 F   0  0  0  0  0  0
  -30.0300  -13.3019   20.4446 N   0  0  0  0  0  0
  -26.3011  -12.9309   20.3345 N   0  0  0  0  0  0
  -25.9309  -11.6472   20.5747 N   0  0  0  0  0  0
  -22.0511  -12.8237   22.0399 N   0  0  0  0  0  0
  -25.4312  -15.1868   20.4073 N   0  0  0  0  0  0
  -31.8130  -14.6775   20.1203 O   0  0  0  0  0  0
  -21.6644   -6.8868   21.4240 O   0  0  0  0  0  0
  -22.3557  -14.5532   20.6672 O   0  0  0  0  0  0
  -24.6165  -31.8649   23.2083 C   0  0  0  0  0  0
  -25.9044  -32.4812   23.8387 C   0  0  1  0  0  0
  -27.2387  -27.4151   20.0857 C   0  0  0  0  0  0
  -25.5880  -33.8612   24.2316 N   0  0  0  0  0  0
  -23.4050  -30.4906   21.5487 C   0  0  2  0  0  0
  -24.8496  -28.9504   20.1158 C   0  0  0  0  0  0
  -22.7403  -29.4654   22.4956 C   0  0  0  0  0  0
  -18.0278  -28.1367   22.8508 C   0  0  0  0  0  0
  -24.1480  -36.7319   23.2640 C   0  0  0  0  0  0
  -25.9350  -30.8235   21.3644 C   0  0  0  0  0  0
  -26.0100  -29.4560   20.7120 C   0  0  0  0  0  0
  -27.2020  -28.6940   20.6952 C   0  0  0  0  0  0
  -26.0468  -26.9171   19.5067 C   0  0  0  0  0  0
  -24.8624  -27.6804   19.5142 C   0  0  0  0  0  0
  -23.6147  -29.8224   20.1639 C   0  0  0  0  0  0
  -25.4108  -36.3113   24.0328 C   0  0  1  0  0  0
  -20.5866  -28.3669   23.1295 C   0  0  2  0  0  0
  -20.6754  -26.9397   22.5411 C   0  0  0  0  0  0
  -19.5737  -26.6380   21.5204 C   0  0  0  0  0  0
  -18.1920  -26.7918   22.1623 C   0  0  0  0  0  0
  -19.1527  -28.8838   23.2911 C   0  0  0  0  0  0
  -18.9450  -30.1440   23.8935 C   0  0  0  0  0  0
  -17.6450  -30.6581   24.0573 C   0  0  0  0  0  0
  -25.9030  -34.9472   23.5127 C   0  0  0  0  0  0
  -16.5346  -29.9085   23.6320 C   0  0  0  0  0  0
  -16.7266  -28.6491   23.0365 C   0  0  0  0  0  0
  -26.4469  -31.6603   25.0732 C   0  0  0  0  0  0
  -25.3735  -31.3690   26.1482 C   0  0  0  0  0  0
  -27.0292  -30.3046   24.6114 C   0  0  0  0  0  0
  -27.6059  -32.4319   25.7480 C   0  0  0  0  0  0
  -27.5581  -37.1816   24.8466 C   0  0  0  0  0  0
  -21.4132  -29.3038   22.3692 N   0  0  0  0  0  0
  -26.4301  -37.3795   23.9396 N   0  0  0  0  0  0
  -24.6706  -31.0731   22.0996 N   0  0  0  0  0  0
  -23.4166  -28.8198   23.3006 O   0  0  0  0  0  0
  -28.4341  -26.7125   20.0908 O   0  0  0  0  0  0
  -26.5602  -34.8922   22.4694 O   0  0  0  0  0  0
  -23.5351  -32.1412   23.7460 O   0  0  0  0  0  0
  -31.0010  -18.9478   20.5075 C   0  0  0  0  0  0
  -29.7136  -19.3046   20.1519 C   0  0  0  0  0  0
  -30.0094  -16.9005   20.7487 C   0  0  0  0  0  0
  -28.9629  -21.6199   20.2936 C   0  0  0  0  0  0
  -32.5117  -19.6611   17.9254 C   0  0  0  0  0  0
  -32.9558  -19.8315   21.8306 C   0  0  0  0  0  0
  -27.3807  -22.5577   18.5395 C   0  0  0  0  0  0
  -33.1640  -19.4926   19.3056 C   0  0  0  0  0  0
  -28.4050  -24.1973   20.2197 C   0  0  0  0  0  0
  -28.5851  -25.4800   19.3582 C   0  0  0  0  0  0
  -32.2230  -19.8320   20.4790 C   0  0  1  0  0  0
  -28.6052  -22.8612   19.4273 C   0  0  1  0  0  0
  -31.1514  -17.5873   20.8374 N   0  0  0  0  0  0
  -29.2959  -20.4936   19.6299 N   0  0  0  0  0  0
  -29.8976  -15.5044   21.0218 N   0  0  0  0  0  0
  -28.9514  -21.6825   21.5253 O   0  0  0  0  0  0
  -28.6406  -17.9203   20.2966 S   0  0  0  0  0  0
  -31.4697  -12.4249   19.1250 H   0  0  0  0  0  0
  -30.3292  -11.3057   19.8254 H   0  0  0  0  0  0
  -29.7402  -11.7843   17.4289 H   0  0  0  0  0  0
  -29.6638  -13.4936   17.7691 H   0  0  0  0  0  0
  -27.8280  -11.3102   18.8112 H   0  0  0  0  0  0
  -27.3684  -12.6414   17.7832 H   0  0  0  0  0  0
  -27.6988  -14.2509   19.5724 H   0  0  0  0  0  0
  -28.6844  -11.9475   21.3319 H   0  0  0  0  0  0
  -28.4605  -13.5803   21.8782 H   0  0  0  0  0  0
  -25.2748   -9.5691   22.4750 H   0  0  0  0  0  0
  -24.0006   -7.4644   22.7488 H   0  0  0  0  0  0
  -21.0834   -8.8746   19.8966 H   0  0  0  0  0  0
  -22.3666  -10.9658   19.6179 H   0  0  0  0  0  0
  -21.1994   -7.6145   23.9699 H   0  0  0  0  0  0
  -21.1494   -6.0534   25.9072 H   0  0  0  0  0  0
  -22.0593   -2.7610   23.2850 H   0  0  0  0  0  0
  -22.4116  -11.9891   22.4784 H   0  0  0  0  0  0
  -21.1133  -13.1284   22.2598 H   0  0  0  0  0  0
  -24.6603  -15.8384   20.5084 H   0  0  0  0  0  0
  -26.2703  -15.6233   20.0483 H   0  0  0  0  0  0
  -26.7104  -32.5522   23.1138 H   0  0  0  0  0  0
  -25.0040  -33.9763   25.0469 H   0  0  0  0  0  0
  -22.6990  -31.3118   21.4079 H   0  0  0  0  0  0
  -23.3735  -35.9658   23.3324 H   0  0  0  0  0  0
  -24.3595  -36.8935   22.2057 H   0  0  0  0  0  0
  -23.7226  -37.6524   23.6654 H   0  0  0  0  0  0
  -26.0507  -31.5868   20.5939 H   0  0  0  0  0  0
  -26.8214  -30.8775   21.9846 H   0  0  0  0  0  0
  -28.1008  -29.0851   21.1522 H   0  0  0  0  0  0
  -26.0026  -25.9380   19.0541 H   0  0  0  0  0  0
  -23.9641  -27.2825   19.0626 H   0  0  0  0  0  0
  -23.7234  -30.5962   19.4031 H   0  0  0  0  0  0
  -22.7369  -29.2459   19.8672 H   0  0  0  0  0  0
  -25.1275  -36.1992   25.0817 H   0  0  0  0  0  0
  -20.9998  -28.3234   24.1397 H   0  0  0  0  0  0
  -20.5634  -26.2279   23.3604 H   0  0  0  0  0  0
  -21.6622  -26.7410   22.1218 H   0  0  0  0  0  0
  -19.6893  -25.6290   21.1229 H   0  0  0  0  0  0
  -19.6669  -27.3189   20.6731 H   0  0  0  0  0  0
  -17.4181  -26.6680   21.4029 H   0  0  0  0  0  0
  -18.0341  -26.0041   22.9001 H   0  0  0  0  0  0
  -19.7925  -30.7251   24.2319 H   0  0  0  0  0  0
  -17.5000  -31.6267   24.5157 H   0  0  0  0  0  0
  -15.5348  -30.3003   23.7610 H   0  0  0  0  0  0
  -15.8663  -28.0811   22.7081 H   0  0  0  0  0  0
  -24.5921  -30.7022   25.7813 H   0  0  0  0  0  0
  -24.8902  -32.2826   26.4951 H   0  0  0  0  0  0
  -25.8097  -30.8852   27.0230 H   0  0  0  0  0  0
  -26.2825  -29.6812   24.1184 H   0  0  0  0  0  0
  -27.4071  -29.7290   25.4575 H   0  0  0  0  0  0
  -27.8657  -30.4369   23.9251 H   0  0  0  0  0  0
  -27.2704  -33.3624   26.2065 H   0  0  0  0  0  0
  -28.3850  -32.6871   25.0284 H   0  0  0  0  0  0
  -28.0737  -31.8435   26.5383 H   0  0  0  0  0  0
  -28.2606  -38.0105   24.7511 H   0  0  0  0  0  0
  -28.1068  -36.2641   24.6294 H   0  0  0  0  0  0
  -27.2310  -37.1473   25.8874 H   0  0  0  0  0  0
  -20.9276  -29.8800   21.6959 H   0  0  0  0  0  0
  -26.0195  -38.2871   24.1411 H   0  0  0  0  0  0
  -33.2416  -19.5070   17.1307 H   0  0  0  0  0  0
  -32.0962  -20.6617   17.8018 H   0  0  0  0  0  0
  -31.7067  -18.9418   17.7739 H   0  0  0  0  0  0
  -32.2933  -20.1547   22.6347 H   0  0  0  0  0  0
  -33.8078  -20.5112   21.8169 H   0  0  0  0  0  0
  -33.3283  -18.8382   22.0836 H   0  0  0  0  0  0
  -27.5449  -21.6880   17.9035 H   0  0  0  0  0  0
  -27.1537  -23.3886   17.8735 H   0  0  0  0  0  0
  -26.4907  -22.3639   19.1394 H   0  0  0  0  0  0
  -34.0426  -20.1364   19.3506 H   0  0  0  0  0  0
  -33.5302  -18.4706   19.4080 H   0  0  0  0  0  0
  -27.4199  -24.2004   20.6864 H   0  0  0  0  0  0
  -29.1208  -24.2491   21.0408 H   0  0  0  0  0  0
  -27.9750  -25.4581   18.4564 H   0  0  0  0  0  0
  -29.6085  -25.4808   18.9818 H   0  0  0  0  0  0
  -31.9011  -20.8623   20.3272 H   0  0  0  0  0  0
  -29.4659  -23.0070   18.7719 H   0  0  0  0  0  0
  -29.2284  -20.5361   18.6218 H   0  0  0  0  0  0
  -28.9827  -15.2026   21.3142 H   0  0  0  0  0  0
  1 25  1  0  0  0
  1 30  2  0  0  0
  1 85  1  0  0  0
  2  3  1  0  0  0
  2 25  1  0  0  0
  2 88  1  0  0  0
  2 89  1  0  0  0
  3  4  1  0  0  0
  3 90  1  0  0  0
  3 91  1  0  0  0
  4  5  1  0  0  0
  4 92  1  0  0  0
  4 93  1  0  0  0
  5  6  1  0  0  0
  5 26  1  0  0  0
  5 94  1  0  0  0
  6 25  1  0  0  0
  6 95  1  0  0  0
  6 96  1  0  0  0
  7  8  2  0  0  0
  7 26  1  0  0  0
  7 29  1  0  0  0
  8  9  1  0  0  0
  8 22  1  0  0  0
  9 10  1  0  0  0
  9 27  2  0  0  0
 10 11  2  0  0  0
 10 15  1  0  0  0
 11 12  1  0  0  0
 11 97  1  0  0  0
 12 13  2  0  0  0
 12 98  1  0  0  0
 13 14  1  0  0  0
 13 31  1  0  0  0
 14 15  2  0  0  0
 14 99  1  0  0  0
 15100  1  0  0  0
 16 17  2  0  0  0
 16 21  1  0  0  0
 16 31  1  0  0  0
 17 18  1  0  0  0
 17101  1  0  0  0
 18 19  2  0  0  0
 18102  1  0  0  0
 19 20  1  0  0  0
 19 24  1  0  0  0
 20 21  2  0  0  0
 20103  1  0  0  0
 21 23  1  0  0  0
 22 28  1  0  0  0
 22 32  2  0  0  0
 26 27  1  0  0  0
 28104  1  0  0  0
 28105  1  0  0  0
 29106  1  0  0  0
 29107  1  0  0  0
 33 34  1  0  0  0
 33 66  1  0  0  0
 33 70  2  0  0  0
 34 36  1  0  0  0
 34 59  1  0  0  0
 34108  1  0  0  0
 35 44  2  0  0  0
 35 45  1  0  0  0
 35 68  1  0  0  0
 36 56  1  0  0  0
 36109  1  0  0  0
 37 39  1  0  0  0
 37 47  1  0  0  0
 37 66  1  0  0  0
 37110  1  0  0  0
 38 43  2  0  0  0
 38 46  1  0  0  0
 38 47  1  0  0  0
 39 64  1  0  0  0
 39 67  2  0  0  0
 40 52  1  0  0  0
 40 53  2  0  0  0
 40 58  1  0  0  0
 41111  1  0  0  0
 41112  1  0  0  0
 41113  1  0  0  0
 41 48  1  0  0  0
 42 43  1  0  0  0
 42 66  1  0  0  0
 42114  1  0  0  0
 42115  1  0  0  0
 43 44  1  0  0  0
 44116  1  0  0  0
 45 46  2  0  0  0
 45117  1  0  0  0
 46118  1  0  0  0
 47119  1  0  0  0
 47120  1  0  0  0
 48 56  1  0  0  0
 48 65  1  0  0  0
 48121  1  0  0  0
 49 50  1  0  0  0
 49 53  1  0  0  0
 49 64  1  0  0  0
 49122  1  0  0  0
 50 51  1  0  0  0
 50123  1  0  0  0
 50124  1  0  0  0
 51 52  1  0  0  0
 51125  1  0  0  0
 51126  1  0  0  0
 52127  1  0  0  0
 52128  1  0  0  0
 53 54  1  0  0  0
 54 55  2  0  0  0
 54129  1  0  0  0
 55 57  1  0  0  0
 55130  1  0  0  0
 56 69  2  0  0  0
 57 58  2  0  0  0
 57131  1  0  0  0
 58132  1  0  0  0
 59 60  1  0  0  0
 59 61  1  0  0  0
 59 62  1  0  0  0
 60133  1  0  0  0
 60134  1  0  0  0
 60135  1  0  0  0
 61136  1  0  0  0
 61137  1  0  0  0
 61138  1  0  0  0
 62139  1  0  0  0
 62140  1  0  0  0
 62141  1  0  0  0
 63 65  1  0  0  0
 63142  1  0  0  0
 63143  1  0  0  0
 63144  1  0  0  0
 64145  1  0  0  0
 65146  1  0  0  0
 68 80  1  0  0  0
 71 72  2  0  0  0
 71 81  1  0  0  0
 71 83  1  0  0  0
 72 84  1  0  0  0
 72 87  1  0  0  0
 73 83  2  0  0  0
 73 85  1  0  0  0
 73 87  1  0  0  0
 74 82  1  0  0  0
 74 84  1  0  0  0
 74 86  2  0  0  0
 75 78  1  0  0  0
 75147  1  0  0  0
 75148  1  0  0  0
 75149  1  0  0  0
 76150  1  0  0  0
 76151  1  0  0  0
 76152  1  0  0  0
 76 81  1  0  0  0
 77153  1  0  0  0
 77154  1  0  0  0
 77155  1  0  0  0
 77 82  1  0  0  0
 78 81  1  0  0  0
 78156  1  0  0  0
 78157  1  0  0  0
 79 80  1  0  0  0
 79 82  1  0  0  0
 79158  1  0  0  0
 79159  1  0  0  0
 80160  1  0  0  0
 80161  1  0  0  0
 81162  1  0  0  0
 82163  1  0  0  0
 84164  1  0  0  0
 85165  1  0  0  0
M  ISO  4   1 100  68 101  80 101  85 100
M  END
> <chiral flag>
0

> <version>
0

> <s_m_source_file>
/data/baiqing/PycharmProjects/Reinvent-master-3.2/result/LINK_invent/BTK/process_docking_weight1_custom_product_contain_oxygen_bond_distance_aromatic_linkinvent_7_9_3/rearranged_h_0186.sdf

> <i_m_source_file_index>
20

> <r_mmod_Potential_Energy-OPLS-2005>
-136.287216186523

> <r_mmod_Stretch_Energy-OPLS-2005>
40.1490211486816

> <r_mmod_Bend_Energy-OPLS-2005>
114.279144287109

> <r_mmod_Torsional_Energy-OPLS-2005>
243.849563598633

> <r_mmod_Improper_Torsional_Energy-OPLS-2005>
5.44118118286133

> <r_mmod_Van_der_Waal_Energy-OPLS-2005>
121.470634460449

> <r_mmod_Electrostatic_Energy-OPLS-2005>
-436.117004394531

> <r_mmod_Solvation_Energy-OPLS-2005>
-240.832504272461

> <b_mmod_Minimization_Converged-OPLS-2005>
0

> <r_mmod_RMS_Derivative-OPLS-2005>
1.79586493968964

$$$$
21
                    3D
 Structure written by MMmdl.
162170  0  0  1  0            999 V2000
  -30.6173  -14.7597   20.4476 C   0  0  0  0  0  0
  -30.4295  -12.4507   19.5075 C   0  0  0  0  0  0
  -29.5152  -12.5170   18.2620 C   0  0  0  0  0  0
  -28.0405  -12.3409   18.6667 C   0  0  0  0  0  0
  -27.6463  -13.2393   19.8685 C   0  0  2  0  0  0
  -28.6872  -13.1800   21.0108 C   0  0  0  0  0  0
  -25.2502  -13.8224   20.5728 C   0  0  0  0  0  0
  -24.1789  -13.0419   20.9195 C   0  0  0  0  0  0
  -24.6408  -11.6911   20.8781 C   0  0  0  0  0  0
  -23.9087  -10.4288   21.0427 C   0  0  0  0  0  0
  -24.3639   -9.4207   21.9206 C   0  0  0  0  0  0
  -23.6307   -8.2238   22.0766 C   0  0  0  0  0  0
  -22.4292   -8.0286   21.3533 C   0  0  0  0  0  0
  -21.9923   -9.0269   20.4638 C   0  0  0  0  0  0
  -22.7260  -10.2145   20.3069 C   0  0  0  0  0  0
  -21.6861   -6.0735   22.5268 C   0  0  0  0  0  0
  -21.4010   -6.5651   23.8201 C   0  0  0  0  0  0
  -21.3663   -5.6807   24.9172 C   0  0  0  0  0  0
  -21.6032   -4.3065   24.7218 C   0  0  0  0  0  0
  -21.8815   -3.8152   23.4344 C   0  0  0  0  0  0
  -21.9182   -4.6959   22.3402 C   0  0  0  0  0  0
  -22.7816  -13.5191   21.1841 C   0  0  0  0  0  0
  -22.1657   -4.2152   21.0973 F   0  0  0  0  0  0
  -21.5633   -3.4542   25.7737 F   0  0  0  0  0  0
  -29.9958  -13.5254   20.4380 N   0  0  0  0  0  0
  -26.2962  -12.9441   20.3408 N   0  0  0  0  0  0
  -25.9350  -11.6565   20.5828 N   0  0  0  0  0  0
  -22.0473  -12.8183   22.0414 N   0  0  0  0  0  0
  -25.4185  -15.1947   20.4144 N   0  0  0  0  0  0
  -31.7791  -14.8445   20.0448 O   0  0  0  0  0  0
  -21.6634   -6.8891   21.4236 O   0  0  0  0  0  0
  -22.3481  -14.5471   20.6663 O   0  0  0  0  0  0
  -24.6334  -31.8556   23.1968 C   0  0  0  0  0  0
  -25.9163  -32.4754   23.8307 C   0  0  1  0  0  0
  -27.1998  -27.2154   20.1071 C   0  0  0  0  0  0
  -25.5971  -33.8562   24.2243 N   0  0  0  0  0  0
  -23.4280  -30.4818   21.5450 C   0  0  2  0  0  0
  -24.8669  -28.9289   20.1096 C   0  0  0  0  0  0
  -22.7505  -29.4614   22.4925 C   0  0  0  0  0  0
  -18.0297  -28.1391   22.8494 C   0  0  0  0  0  0
  -24.1493  -36.7252   23.2635 C   0  0  0  0  0  0
  -25.9800  -30.7522   21.3825 C   0  0  0  0  0  0
  -26.0454  -29.3735   20.7194 C   0  0  0  0  0  0
  -27.2099  -28.5313   20.7041 C   0  0  0  0  0  0
  -25.9725  -26.8415   19.5148 C   0  0  0  0  0  0
  -24.8390  -27.6714   19.4985 C   0  0  0  0  0  0
  -23.6428  -29.8224   20.1598 C   0  0  0  0  0  0
  -25.4132  -36.3070   24.0317 C   0  0  1  0  0  0
  -20.5903  -28.3713   23.1279 C   0  0  2  0  0  0
  -20.6807  -26.9439   22.5407 C   0  0  0  0  0  0
  -19.5769  -26.6403   21.5226 C   0  0  0  0  0  0
  -18.1946  -26.7937   22.1634 C   0  0  0  0  0  0
  -19.1549  -28.8868   23.2882 C   0  0  0  0  0  0
  -18.9466  -30.1475   23.8896 C   0  0  0  0  0  0
  -17.6466  -30.6600   24.0565 C   0  0  0  0  0  0
  -25.9090  -34.9450   23.5086 C   0  0  0  0  0  0
  -16.5359  -29.9095   23.6335 C   0  0  0  0  0  0
  -16.7285  -28.6507   23.0365 C   0  0  0  0  0  0
  -26.4519  -31.6569   25.0698 C   0  0  0  0  0  0
  -25.3704  -31.3713   26.1382 C   0  0  0  0  0  0
  -27.0368  -30.2983   24.6187 C   0  0  0  0  0  0
  -27.6070  -32.4300   25.7478 C   0  0  0  0  0  0
  -27.5592  -37.1782   24.8465 C   0  0  0  0  0  0
  -21.4215  -29.3056   22.3662 N   0  0  0  0  0  0
  -26.4301  -37.3776   23.9417 N   0  0  0  0  0  0
  -24.7009  -31.0498   22.0964 N   0  0  0  0  0  0
  -23.4211  -28.8176   23.3039 O   0  0  0  0  0  0
  -28.3176  -26.3271   20.1602 O   0  0  0  0  0  0
  -26.5663  -34.8928   22.4661 O   0  0  0  0  0  0
  -23.5482  -32.1410   23.7250 O   0  0  0  0  0  0
  -30.0229  -18.7280   20.4241 C   0  0  0  0  0  0
  -31.1346  -19.3155   21.0347 C   0  0  0  0  0  0
  -29.4192  -21.0812   20.4252 C   0  0  0  0  0  0
  -28.7890  -23.6417   20.4636 C   0  0  0  0  0  0
  -27.6353  -24.5440   18.2986 C   0  0  0  0  0  0
  -33.1083  -18.0893   20.0537 C   0  0  0  0  0  0
  -32.4470  -17.6909   22.4688 C   0  0  0  0  0  0
  -33.5448  -19.7887   21.7565 C   0  0  0  0  0  0
  -29.8404  -17.2250   19.8860 C   0  0  0  0  0  0
  -28.4714  -24.9320   19.5348 C   0  0  1  0  0  0
  -32.5093  -18.7183   21.3275 C   0  0  0  0  0  0
  -29.1094  -19.7946   20.0360 N   0  0  0  0  0  0
  -28.7873  -22.3423   19.9460 N   0  0  0  0  0  0
  -29.8657  -15.9070   20.6846 N   0  0  0  0  0  0
  -29.0296  -23.8379   21.6581 O   0  0  0  0  0  0
  -30.8677  -21.0407   21.4010 S   0  0  0  0  0  0
  -31.4760  -12.5499   19.2157 H   0  0  0  0  0  0
  -30.3484  -11.4741   19.9888 H   0  0  0  0  0  0
  -29.7980  -11.7512   17.5379 H   0  0  0  0  0  0
  -29.6488  -13.4780   17.7638 H   0  0  0  0  0  0
  -27.8920  -11.2913   18.9256 H   0  0  0  0  0  0
  -27.3893  -12.5417   17.8158 H   0  0  0  0  0  0
  -27.6409  -14.2603   19.4879 H   0  0  0  0  0  0
  -28.7153  -12.1870   21.4606 H   0  0  0  0  0  0
  -28.4244  -13.8690   21.8148 H   0  0  0  0  0  0
  -25.2789   -9.5645   22.4773 H   0  0  0  0  0  0
  -23.9998   -7.4608   22.7476 H   0  0  0  0  0  0
  -21.0861   -8.8785   19.8935 H   0  0  0  0  0  0
  -22.3747  -10.9680   19.6170 H   0  0  0  0  0  0
  -21.2015   -7.6161   23.9703 H   0  0  0  0  0  0
  -21.1492   -6.0549   25.9072 H   0  0  0  0  0  0
  -22.0592   -2.7608   23.2851 H   0  0  0  0  0  0
  -22.4147  -11.9887   22.4828 H   0  0  0  0  0  0
  -21.1074  -13.1184   22.2576 H   0  0  0  0  0  0
  -24.6470  -15.8475   20.5057 H   0  0  0  0  0  0
  -26.2649  -15.6345   20.0740 H   0  0  0  0  0  0
  -26.7220  -32.5380   23.1029 H   0  0  0  0  0  0
  -25.0101  -33.9688   25.0381 H   0  0  0  0  0  0
  -22.7232  -31.3049   21.4056 H   0  0  0  0  0  0
  -23.3792  -35.9545   23.3277 H   0  0  0  0  0  0
  -24.3575  -36.8896   22.2051 H   0  0  0  0  0  0
  -23.7192  -37.6422   23.6676 H   0  0  0  0  0  0
  -26.1293  -31.5147   20.6171 H   0  0  0  0  0  0
  -26.8544  -30.7940   22.0200 H   0  0  0  0  0  0
  -28.1124  -28.8729   21.1905 H   0  0  0  0  0  0
  -25.8078  -25.8742   19.0876 H   0  0  0  0  0  0
  -23.9300  -27.3157   19.0344 H   0  0  0  0  0  0
  -23.7650  -30.6013   19.4063 H   0  0  0  0  0  0
  -22.7559  -29.2616   19.8563 H   0  0  0  0  0  0
  -25.1313  -36.1909   25.0804 H   0  0  0  0  0  0
  -20.9987  -28.3303   24.1409 H   0  0  0  0  0  0
  -20.5763  -26.2322   23.3614 H   0  0  0  0  0  0
  -21.6668  -26.7519   22.1164 H   0  0  0  0  0  0
  -19.6945  -25.6319   21.1253 H   0  0  0  0  0  0
  -19.6694  -27.3224   20.6766 H   0  0  0  0  0  0
  -17.4223  -26.6693   21.4031 H   0  0  0  0  0  0
  -18.0348  -26.0081   22.9030 H   0  0  0  0  0  0
  -19.7939  -30.7296   24.2270 H   0  0  0  0  0  0
  -17.5014  -31.6280   24.5165 H   0  0  0  0  0  0
  -15.5354  -30.2993   23.7662 H   0  0  0  0  0  0
  -15.8688  -28.0822   22.7088 H   0  0  0  0  0  0
  -24.5872  -30.7105   25.7654 H   0  0  0  0  0  0
  -24.8913  -32.2886   26.4806 H   0  0  0  0  0  0
  -25.7967  -30.8838   27.0154 H   0  0  0  0  0  0
  -26.2959  -29.6719   24.1203 H   0  0  0  0  0  0
  -27.4051  -29.7249   25.4705 H   0  0  0  0  0  0
  -27.8843  -30.4263   23.9448 H   0  0  0  0  0  0
  -27.2685  -33.3598   26.2057 H   0  0  0  0  0  0
  -28.3880  -32.6847   25.0304 H   0  0  0  0  0  0
  -28.0739  -31.8410   26.5378 H   0  0  0  0  0  0
  -28.2586  -38.0106   24.7585 H   0  0  0  0  0  0
  -28.1116  -36.2643   24.6224 H   0  0  0  0  0  0
  -27.2315  -37.1351   25.8866 H   0  0  0  0  0  0
  -20.9417  -29.8709   21.6799 H   0  0  0  0  0  0
  -26.0171  -38.2841   24.1448 H   0  0  0  0  0  0
  -27.4214  -25.4030   17.6639 H   0  0  0  0  0  0
  -26.7033  -24.0538   18.5803 H   0  0  0  0  0  0
  -28.1716  -23.8326   17.6713 H   0  0  0  0  0  0
  -32.5622  -17.2091   19.7345 H   0  0  0  0  0  0
  -34.1373  -17.7640   20.2060 H   0  0  0  0  0  0
  -33.1118  -18.7981   19.2232 H   0  0  0  0  0  0
  -33.4213  -17.2324   22.6400 H   0  0  0  0  0  0
  -32.1378  -18.1583   23.4044 H   0  0  0  0  0  0
  -31.7489  -16.8862   22.2567 H   0  0  0  0  0  0
  -33.7003  -20.5353   20.9757 H   0  0  0  0  0  0
  -34.5179  -19.3449   21.9613 H   0  0  0  0  0  0
  -33.2518  -20.3093   22.6676 H   0  0  0  0  0  0
  -30.5042  -17.0772   19.0362 H   0  0  0  0  0  0
  -28.8564  -17.1891   19.4187 H   0  0  0  0  0  0
  -29.4564  -25.0807   19.0875 H   0  0  0  0  0  0
  -28.4096  -22.2737   19.0115 H   0  0  0  0  0  0
  -28.9995  -15.7195   21.1689 H   0  0  0  0  0  0
  1 25  1  0  0  0
  1 30  2  0  0  0
  1 84  1  0  0  0
  2  3  1  0  0  0
  2 25  1  0  0  0
  2 87  1  0  0  0
  2 88  1  0  0  0
  3  4  1  0  0  0
  3 89  1  0  0  0
  3 90  1  0  0  0
  4  5  1  0  0  0
  4 91  1  0  0  0
  4 92  1  0  0  0
  5  6  1  0  0  0
  5 26  1  0  0  0
  5 93  1  0  0  0
  6 25  1  0  0  0
  6 94  1  0  0  0
  6 95  1  0  0  0
  7  8  2  0  0  0
  7 26  1  0  0  0
  7 29  1  0  0  0
  8  9  1  0  0  0
  8 22  1  0  0  0
  9 10  1  0  0  0
  9 27  2  0  0  0
 10 11  2  0  0  0
 10 15  1  0  0  0
 11 12  1  0  0  0
 11 96  1  0  0  0
 12 13  2  0  0  0
 12 97  1  0  0  0
 13 14  1  0  0  0
 13 31  1  0  0  0
 14 15  2  0  0  0
 14 98  1  0  0  0
 15 99  1  0  0  0
 16 17  2  0  0  0
 16 21  1  0  0  0
 16 31  1  0  0  0
 17 18  1  0  0  0
 17100  1  0  0  0
 18 19  2  0  0  0
 18101  1  0  0  0
 19 20  1  0  0  0
 19 24  1  0  0  0
 20 21  2  0  0  0
 20102  1  0  0  0
 21 23  1  0  0  0
 22 28  1  0  0  0
 22 32  2  0  0  0
 26 27  1  0  0  0
 28103  1  0  0  0
 28104  1  0  0  0
 29105  1  0  0  0
 29106  1  0  0  0
 33 34  1  0  0  0
 33 66  1  0  0  0
 33 70  2  0  0  0
 34 36  1  0  0  0
 34 59  1  0  0  0
 34107  1  0  0  0
 35 44  2  0  0  0
 35 45  1  0  0  0
 35 68  1  0  0  0
 36 56  1  0  0  0
 36108  1  0  0  0
 37 39  1  0  0  0
 37 47  1  0  0  0
 37 66  1  0  0  0
 37109  1  0  0  0
 38 43  2  0  0  0
 38 46  1  0  0  0
 38 47  1  0  0  0
 39 64  1  0  0  0
 39 67  2  0  0  0
 40 52  1  0  0  0
 40 53  2  0  0  0
 40 58  1  0  0  0
 41110  1  0  0  0
 41111  1  0  0  0
 41112  1  0  0  0
 41 48  1  0  0  0
 42 43  1  0  0  0
 42 66  1  0  0  0
 42113  1  0  0  0
 42114  1  0  0  0
 43 44  1  0  0  0
 44115  1  0  0  0
 45 46  2  0  0  0
 45116  1  0  0  0
 46117  1  0  0  0
 47118  1  0  0  0
 47119  1  0  0  0
 48 56  1  0  0  0
 48 65  1  0  0  0
 48120  1  0  0  0
 49 50  1  0  0  0
 49 53  1  0  0  0
 49 64  1  0  0  0
 49121  1  0  0  0
 50 51  1  0  0  0
 50122  1  0  0  0
 50123  1  0  0  0
 51 52  1  0  0  0
 51124  1  0  0  0
 51125  1  0  0  0
 52126  1  0  0  0
 52127  1  0  0  0
 53 54  1  0  0  0
 54 55  2  0  0  0
 54128  1  0  0  0
 55 57  1  0  0  0
 55129  1  0  0  0
 56 69  2  0  0  0
 57 58  2  0  0  0
 57130  1  0  0  0
 58131  1  0  0  0
 59 60  1  0  0  0
 59 61  1  0  0  0
 59 62  1  0  0  0
 60132  1  0  0  0
 60133  1  0  0  0
 60134  1  0  0  0
 61135  1  0  0  0
 61136  1  0  0  0
 61137  1  0  0  0
 62138  1  0  0  0
 62139  1  0  0  0
 62140  1  0  0  0
 63 65  1  0  0  0
 63141  1  0  0  0
 63142  1  0  0  0
 63143  1  0  0  0
 64144  1  0  0  0
 65145  1  0  0  0
 68 80  1  0  0  0
 71 72  2  0  0  0
 71 79  1  0  0  0
 71 82  1  0  0  0
 72 81  1  0  0  0
 72 86  1  0  0  0
 73 82  2  0  0  0
 73 83  1  0  0  0
 73 86  1  0  0  0
 74 80  1  0  0  0
 74 83  1  0  0  0
 74 85  2  0  0  0
 75146  1  0  0  0
 75147  1  0  0  0
 75148  1  0  0  0
 75 80  1  0  0  0
 76149  1  0  0  0
 76150  1  0  0  0
 76151  1  0  0  0
 76 81  1  0  0  0
 77 81  1  0  0  0
 77152  1  0  0  0
 77153  1  0  0  0
 77154  1  0  0  0
 78 81  1  0  0  0
 78155  1  0  0  0
 78156  1  0  0  0
 78157  1  0  0  0
 79 84  1  0  0  0
 79158  1  0  0  0
 79159  1  0  0  0
 80160  1  0  0  0
 83161  1  0  0  0
 84162  1  0  0  0
M  ISO  4   1 100  68 101  80 101  84 100
M  END
> <chiral flag>
0

> <version>
0

> <s_m_source_file>
/data/baiqing/PycharmProjects/Reinvent-master-3.2/result/LINK_invent/BTK/process_docking_weight1_custom_product_contain_oxygen_bond_distance_aromatic_linkinvent_7_9_3/rearranged_h_0186.sdf

> <i_m_source_file_index>
21

> <r_mmod_Potential_Energy-OPLS-2005>
99.36767578125

> <r_mmod_Stretch_Energy-OPLS-2005>
155.550918579102

> <r_mmod_Bend_Energy-OPLS-2005>
244.849731445312

> <r_mmod_Torsional_Energy-OPLS-2005>
228.513259887695

> <r_mmod_Improper_Torsional_Energy-OPLS-2005>
9.98649978637695

> <r_mmod_Van_der_Waal_Energy-OPLS-2005>
127.839958190918

> <r_mmod_Electrostatic_Energy-OPLS-2005>
-523.904418945312

> <r_mmod_Solvation_Energy-OPLS-2005>
-240.546951293945

> <b_mmod_Minimization_Converged-OPLS-2005>
0

> <r_mmod_RMS_Derivative-OPLS-2005>
4.10794019699097

$$$$
22
                    3D
 Structure written by MMmdl.
154162  0  0  1  0            999 V2000
  -30.5238  -15.0132   20.3740 C   0  0  0  0  0  0
  -30.4395  -12.6343   19.4665 C   0  0  0  0  0  0
  -29.5106  -12.5051   18.2368 C   0  0  0  0  0  0
  -28.0437  -12.2925   18.6598 C   0  0  0  0  0  0
  -27.6185  -13.2416   19.8141 C   0  0  2  0  0  0
  -28.6699  -13.3117   20.9395 C   0  0  0  0  0  0
  -25.2454  -13.8213   20.5688 C   0  0  0  0  0  0
  -24.1768  -13.0459   20.9251 C   0  0  0  0  0  0
  -24.6340  -11.6943   20.8725 C   0  0  0  0  0  0
  -23.9001  -10.4307   21.0353 C   0  0  0  0  0  0
  -24.3587   -9.4240   21.9118 C   0  0  0  0  0  0
  -23.6295   -8.2238   22.0688 C   0  0  0  0  0  0
  -22.4281   -8.0242   21.3496 C   0  0  0  0  0  0
  -21.9865   -9.0184   20.4595 C   0  0  0  0  0  0
  -22.7163  -10.2105   20.3026 C   0  0  0  0  0  0
  -21.6854   -6.0697   22.5261 C   0  0  0  0  0  0
  -21.3991   -6.5604   23.8199 C   0  0  0  0  0  0
  -21.3686   -5.6766   24.9159 C   0  0  0  0  0  0
  -21.6040   -4.3021   24.7218 C   0  0  0  0  0  0
  -21.8851   -3.8124   23.4342 C   0  0  0  0  0  0
  -21.9203   -4.6941   22.3404 C   0  0  0  0  0  0
  -22.7797  -13.5223   21.1900 C   0  0  0  0  0  0
  -22.1665   -4.2118   21.0979 F   0  0  0  0  0  0
  -21.5666   -3.4514   25.7740 F   0  0  0  0  0  0
  -29.9249  -13.7500   20.3124 N   0  0  0  0  0  0
  -26.2830  -12.9399   20.3147 N   0  0  0  0  0  0
  -25.9261  -11.6562   20.5715 N   0  0  0  0  0  0
  -22.0434  -12.8214   22.0481 N   0  0  0  0  0  0
  -25.4259  -15.1905   20.4064 N   0  0  0  0  0  0
  -31.7458  -15.0499   20.2119 O   0  0  0  0  0  0
  -21.6665   -6.8809   21.4202 O   0  0  0  0  0  0
  -22.3476  -14.5530   20.6754 O   0  0  0  0  0  0
  -24.6463  -31.8335   23.1811 C   0  0  0  0  0  0
  -25.9213  -32.4621   23.8243 C   0  0  1  0  0  0
  -27.2292  -27.0430   20.1303 C   0  0  0  0  0  0
  -25.5956  -33.8448   24.2128 N   0  0  0  0  0  0
  -23.4637  -30.4409   21.5243 C   0  0  2  0  0  0
  -24.9307  -28.8746   20.0805 C   0  0  0  0  0  0
  -22.7661  -29.4392   22.4775 C   0  0  0  0  0  0
  -18.0298  -28.1379   22.8472 C   0  0  0  0  0  0
  -24.1512  -36.7216   23.2631 C   0  0  0  0  0  0
  -26.0278  -30.6579   21.4192 C   0  0  0  0  0  0
  -26.0928  -29.2649   20.7537 C   0  0  0  0  0  0
  -27.2308  -28.3569   20.7822 C   0  0  0  0  0  0
  -26.0845  -26.8377   19.3343 C   0  0  0  0  0  0
  -24.9536  -27.6870   19.3342 C   0  0  0  0  0  0
  -23.7005  -29.7741   20.1391 C   0  0  0  0  0  0
  -25.4152  -36.2994   24.0296 C   0  0  1  0  0  0
  -20.5950  -28.3707   23.1217 C   0  0  2  0  0  0
  -20.6779  -26.9395   22.5409 C   0  0  0  0  0  0
  -19.5748  -26.6360   21.5228 C   0  0  0  0  0  0
  -18.1931  -26.7921   22.1622 C   0  0  0  0  0  0
  -19.1577  -28.8880   23.2842 C   0  0  0  0  0  0
  -18.9460  -30.1457   23.8883 C   0  0  0  0  0  0
  -17.6446  -30.6583   24.0537 C   0  0  0  0  0  0
  -25.9114  -34.9366   23.5048 C   0  0  0  0  0  0
  -16.5337  -29.9050   23.6306 C   0  0  0  0  0  0
  -16.7285  -28.6459   23.0376 C   0  0  0  0  0  0
  -26.4534  -31.6525   25.0720 C   0  0  0  0  0  0
  -25.3661  -31.3749   26.1367 C   0  0  0  0  0  0
  -27.0393  -30.2869   24.6436 C   0  0  0  0  0  0
  -27.6086  -32.4308   25.7434 C   0  0  0  0  0  0
  -27.5604  -37.1723   24.8443 C   0  0  0  0  0  0
  -21.4341  -29.2981   22.3576 N   0  0  0  0  0  0
  -26.4295  -37.3720   23.9415 N   0  0  0  0  0  0
  -24.7311  -31.0048   22.0922 N   0  0  0  0  0  0
  -23.4251  -28.7948   23.2992 O   0  0  0  0  0  0
  -28.2314  -25.9734   20.2631 O   0  0  0  0  0  0
  -26.5729  -34.8857   22.4626 O   0  0  0  0  0  0
  -23.5550  -32.1263   23.6916 O   0  0  0  0  0  0
  -29.6803  -20.2448   20.3994 C   0  0  0  0  0  0
  -30.8890  -20.0287   21.0575 C   0  0  0  0  0  0
  -30.0095  -17.7232   20.4620 C   0  0  0  0  0  0
  -30.5807  -23.6177   20.5537 C   0  0  0  0  0  0
  -26.6769  -23.8928   19.9705 C   0  0  0  0  0  0
  -28.5421  -24.5689   18.3307 C   0  0  0  0  0  0
  -29.1150  -23.1333   20.4832 C   0  0  1  0  0  0
  -28.1489  -24.4246   19.8255 C   0  0  0  0  0  0
  -29.2236  -18.8491   20.0894 N   0  0  0  0  0  0
  -29.0121  -21.5953   20.0497 N   0  0  0  0  0  0
  -29.7306  -16.2086   20.3114 N   0  0  0  0  0  0
  -31.7038  -21.0144   21.5064 F   0  0  0  0  0  0
  -31.4272  -18.3455   21.2887 S   0  0  0  0  0  0
  -31.4605  -12.8221   19.1304 H   0  0  0  0  0  0
  -30.4685  -11.7045   20.0320 H   0  0  0  0  0  0
  -29.8365  -11.6718   17.6085 H   0  0  0  0  0  0
  -29.5888  -13.3998   17.6218 H   0  0  0  0  0  0
  -27.9425  -11.2537   18.9712 H   0  0  0  0  0  0
  -27.3791  -12.4110   17.8014 H   0  0  0  0  0  0
  -27.5579  -14.2339   19.3658 H   0  0  0  0  0  0
  -28.7908  -12.3440   21.4287 H   0  0  0  0  0  0
  -28.3528  -14.0168   21.7086 H   0  0  0  0  0  0
  -25.2702   -9.5772   22.4701 H   0  0  0  0  0  0
  -24.0029   -7.4662   22.7409 H   0  0  0  0  0  0
  -21.0793   -8.8669   19.8933 H   0  0  0  0  0  0
  -22.3518  -10.9622   19.6187 H   0  0  0  0  0  0
  -21.1921   -7.6109   23.9665 H   0  0  0  0  0  0
  -21.1490   -6.0500   25.9056 H   0  0  0  0  0  0
  -22.0606   -2.7587   23.2865 H   0  0  0  0  0  0
  -22.4021  -11.9912   22.4940 H   0  0  0  0  0  0
  -21.1022  -13.1190   22.2602 H   0  0  0  0  0  0
  -24.6893  -15.8744   20.5425 H   0  0  0  0  0  0
  -26.2653  -15.5973   20.0156 H   0  0  0  0  0  0
  -26.7299  -32.5196   23.0983 H   0  0  0  0  0  0
  -25.0069  -33.9585   25.0254 H   0  0  0  0  0  0
  -22.7669  -31.2674   21.3679 H   0  0  0  0  0  0
  -23.3807  -35.9507   23.3219 H   0  0  0  0  0  0
  -24.3619  -36.8924   22.2062 H   0  0  0  0  0  0
  -23.7210  -37.6355   23.6738 H   0  0  0  0  0  0
  -26.2234  -31.4038   20.6477 H   0  0  0  0  0  0
  -26.8823  -30.6991   22.0803 H   0  0  0  0  0  0
  -28.0902  -28.6273   21.3788 H   0  0  0  0  0  0
  -26.0537  -25.9808   18.6869 H   0  0  0  0  0  0
  -24.1173  -27.4353   18.6984 H   0  0  0  0  0  0
  -23.8111  -30.5508   19.3812 H   0  0  0  0  0  0
  -22.8236  -29.1969   19.8424 H   0  0  0  0  0  0
  -25.1328  -36.1806   25.0787 H   0  0  0  0  0  0
  -21.0044  -28.3294   24.1342 H   0  0  0  0  0  0
  -20.5692  -26.2317   23.3641 H   0  0  0  0  0  0
  -21.6630  -26.7382   22.1187 H   0  0  0  0  0  0
  -19.6905  -25.6280   21.1239 H   0  0  0  0  0  0
  -19.6692  -27.3201   20.6787 H   0  0  0  0  0  0
  -17.4221  -26.6712   21.4002 H   0  0  0  0  0  0
  -18.0271  -26.0069   22.9014 H   0  0  0  0  0  0
  -19.7935  -30.7283   24.2270 H   0  0  0  0  0  0
  -17.4973  -31.6261   24.5116 H   0  0  0  0  0  0
  -15.5331  -30.2933   23.7622 H   0  0  0  0  0  0
  -15.8683  -28.0722   22.7150 H   0  0  0  0  0  0
  -24.5941  -30.7005   25.7649 H   0  0  0  0  0  0
  -24.8732  -32.2928   26.4585 H   0  0  0  0  0  0
  -25.7871  -30.9055   27.0271 H   0  0  0  0  0  0
  -26.3039  -29.6550   24.1443 H   0  0  0  0  0  0
  -27.3920  -29.7218   25.5079 H   0  0  0  0  0  0
  -27.9019  -30.4013   23.9857 H   0  0  0  0  0  0
  -27.2744  -33.3657   26.1943 H   0  0  0  0  0  0
  -28.3878  -32.6779   25.0210 H   0  0  0  0  0  0
  -28.0821  -31.8496   26.5360 H   0  0  0  0  0  0
  -28.2534  -38.0097   24.7579 H   0  0  0  0  0  0
  -28.1184  -36.2627   24.6158 H   0  0  0  0  0  0
  -27.2350  -37.1225   25.8845 H   0  0  0  0  0  0
  -20.9601  -29.8665   21.6700 H   0  0  0  0  0  0
  -26.0152  -38.2760   24.1489 H   0  0  0  0  0  0
  -30.6461  -24.7041   20.6455 H   0  0  0  0  0  0
  -31.1605  -23.3254   19.6792 H   0  0  0  0  0  0
  -31.0891  -23.2427   21.4390 H   0  0  0  0  0  0
  -26.6029  -22.8719   20.3535 H   0  0  0  0  0  0
  -26.1377  -23.8614   19.0209 H   0  0  0  0  0  0
  -26.0968  -24.4894   20.6754 H   0  0  0  0  0  0
  -28.4034  -23.6573   17.7502 H   0  0  0  0  0  0
  -29.5928  -24.8528   18.2305 H   0  0  0  0  0  0
  -27.9664  -25.3531   17.8373 H   0  0  0  0  0  0
  -28.7952  -23.0888   21.5252 H   0  0  0  0  0  0
  -28.1876  -21.4530   19.4742 H   0  0  0  0  0  0
  -28.7639  -16.0035   20.1248 H   0  0  0  0  0  0
  1 25  1  0  0  0
  1 30  2  0  0  0
  1 81  1  0  0  0
  2  3  1  0  0  0
  2 25  1  0  0  0
  2 84  1  0  0  0
  2 85  1  0  0  0
  3  4  1  0  0  0
  3 86  1  0  0  0
  3 87  1  0  0  0
  4  5  1  0  0  0
  4 88  1  0  0  0
  4 89  1  0  0  0
  5  6  1  0  0  0
  5 26  1  0  0  0
  5 90  1  0  0  0
  6 25  1  0  0  0
  6 91  1  0  0  0
  6 92  1  0  0  0
  7  8  2  0  0  0
  7 26  1  0  0  0
  7 29  1  0  0  0
  8  9  1  0  0  0
  8 22  1  0  0  0
  9 10  1  0  0  0
  9 27  2  0  0  0
 10 11  2  0  0  0
 10 15  1  0  0  0
 11 12  1  0  0  0
 11 93  1  0  0  0
 12 13  2  0  0  0
 12 94  1  0  0  0
 13 14  1  0  0  0
 13 31  1  0  0  0
 14 15  2  0  0  0
 14 95  1  0  0  0
 15 96  1  0  0  0
 16 17  2  0  0  0
 16 21  1  0  0  0
 16 31  1  0  0  0
 17 18  1  0  0  0
 17 97  1  0  0  0
 18 19  2  0  0  0
 18 98  1  0  0  0
 19 20  1  0  0  0
 19 24  1  0  0  0
 20 21  2  0  0  0
 20 99  1  0  0  0
 21 23  1  0  0  0
 22 28  1  0  0  0
 22 32  2  0  0  0
 26 27  1  0  0  0
 28100  1  0  0  0
 28101  1  0  0  0
 29102  1  0  0  0
 29103  1  0  0  0
 33 34  1  0  0  0
 33 66  1  0  0  0
 33 70  2  0  0  0
 34 36  1  0  0  0
 34 59  1  0  0  0
 34104  1  0  0  0
 35 44  2  0  0  0
 35 45  1  0  0  0
 35 68  1  0  0  0
 36 56  1  0  0  0
 36105  1  0  0  0
 37 39  1  0  0  0
 37 47  1  0  0  0
 37 66  1  0  0  0
 37106  1  0  0  0
 38 43  2  0  0  0
 38 46  1  0  0  0
 38 47  1  0  0  0
 39 64  1  0  0  0
 39 67  2  0  0  0
 40 52  1  0  0  0
 40 53  2  0  0  0
 40 58  1  0  0  0
 41107  1  0  0  0
 41108  1  0  0  0
 41109  1  0  0  0
 41 48  1  0  0  0
 42 43  1  0  0  0
 42 66  1  0  0  0
 42110  1  0  0  0
 42111  1  0  0  0
 43 44  1  0  0  0
 44112  1  0  0  0
 45 46  2  0  0  0
 45113  1  0  0  0
 46114  1  0  0  0
 47115  1  0  0  0
 47116  1  0  0  0
 48 56  1  0  0  0
 48 65  1  0  0  0
 48117  1  0  0  0
 49 50  1  0  0  0
 49 53  1  0  0  0
 49 64  1  0  0  0
 49118  1  0  0  0
 50 51  1  0  0  0
 50119  1  0  0  0
 50120  1  0  0  0
 51 52  1  0  0  0
 51121  1  0  0  0
 51122  1  0  0  0
 52123  1  0  0  0
 52124  1  0  0  0
 53 54  1  0  0  0
 54 55  2  0  0  0
 54125  1  0  0  0
 55 57  1  0  0  0
 55126  1  0  0  0
 56 69  2  0  0  0
 57 58  2  0  0  0
 57127  1  0  0  0
 58128  1  0  0  0
 59 60  1  0  0  0
 59 61  1  0  0  0
 59 62  1  0  0  0
 60129  1  0  0  0
 60130  1  0  0  0
 60131  1  0  0  0
 61132  1  0  0  0
 61133  1  0  0  0
 61134  1  0  0  0
 62135  1  0  0  0
 62136  1  0  0  0
 62137  1  0  0  0
 63 65  1  0  0  0
 63138  1  0  0  0
 63139  1  0  0  0
 63140  1  0  0  0
 64141  1  0  0  0
 65142  1  0  0  0
 68 78  1  0  0  0
 71 72  2  0  0  0
 71 79  1  0  0  0
 71 80  1  0  0  0
 72 82  1  0  0  0
 72 83  1  0  0  0
 73 79  2  0  0  0
 73 81  1  0  0  0
 73 83  1  0  0  0
 74143  1  0  0  0
 74144  1  0  0  0
 74145  1  0  0  0
 74 77  1  0  0  0
 75146  1  0  0  0
 75147  1  0  0  0
 75148  1  0  0  0
 75 78  1  0  0  0
 76 78  1  0  0  0
 76149  1  0  0  0
 76150  1  0  0  0
 76151  1  0  0  0
 77 78  1  0  0  0
 77 80  1  0  0  0
 77152  1  0  0  0
 80153  1  0  0  0
 81154  1  0  0  0
M  ISO  4   1 100  68 101  78 101  81 100
M  END
> <chiral flag>
0

> <version>
0

> <s_m_source_file>
/data/baiqing/PycharmProjects/Reinvent-master-3.2/result/LINK_invent/BTK/process_docking_weight1_custom_product_contain_oxygen_bond_distance_aromatic_linkinvent_7_9_3/rearranged_h_0186.sdf

> <i_m_source_file_index>
22

> <r_mmod_Potential_Energy-OPLS-2005>
644.657043457031

> <r_mmod_Stretch_Energy-OPLS-2005>
352.999053955078

> <r_mmod_Bend_Energy-OPLS-2005>
307.793212890625

> <r_mmod_Torsional_Energy-OPLS-2005>
248.560348510742

> <r_mmod_Improper_Torsional_Energy-OPLS-2005>
7.83297729492188

> <r_mmod_Van_der_Waal_Energy-OPLS-2005>
116.500823974609

> <r_mmod_Electrostatic_Energy-OPLS-2005>
-456.226226806641

> <r_mmod_Solvation_Energy-OPLS-2005>
-212.386535644531

> <b_mmod_Minimization_Converged-OPLS-2005>
0

> <r_mmod_RMS_Derivative-OPLS-2005>
7.81049585342407

$$$$
23
                    3D
 Structure written by MMmdl.
157165  0  0  1  0            999 V2000
  -30.5102  -14.7564   20.4585 C   0  0  0  0  0  0
  -30.4572  -12.4577   19.4624 C   0  0  0  0  0  0
  -29.5184  -12.5030   18.2325 C   0  0  0  0  0  0
  -28.0424  -12.3266   18.6463 C   0  0  0  0  0  0
  -27.6479  -13.2110   19.8570 C   0  0  2  0  0  0
  -28.6929  -13.0892   20.9879 C   0  0  0  0  0  0
  -25.2554  -13.8156   20.5719 C   0  0  0  0  0  0
  -24.1831  -13.0424   20.9180 C   0  0  0  0  0  0
  -24.6386  -11.6885   20.8751 C   0  0  0  0  0  0
  -23.9070  -10.4270   21.0434 C   0  0  0  0  0  0
  -24.3614   -9.4181   21.9220 C   0  0  0  0  0  0
  -23.6281   -8.2220   22.0776 C   0  0  0  0  0  0
  -22.4264   -8.0267   21.3559 C   0  0  0  0  0  0
  -21.9915   -9.0247   20.4660 C   0  0  0  0  0  0
  -22.7242  -10.2126   20.3072 C   0  0  0  0  0  0
  -21.6840   -6.0717   22.5280 C   0  0  0  0  0  0
  -21.4009   -6.5635   23.8209 C   0  0  0  0  0  0
  -21.3650   -5.6797   24.9179 C   0  0  0  0  0  0
  -21.6042   -4.3060   24.7237 C   0  0  0  0  0  0
  -21.8820   -3.8139   23.4363 C   0  0  0  0  0  0
  -21.9183   -4.6948   22.3406 C   0  0  0  0  0  0
  -22.7846  -13.5212   21.1810 C   0  0  0  0  0  0
  -22.1652   -4.2132   21.0981 F   0  0  0  0  0  0
  -21.5625   -3.4545   25.7749 F   0  0  0  0  0  0
  -29.9914  -13.4825   20.4204 N   0  0  0  0  0  0
  -26.2969  -12.9307   20.3296 N   0  0  0  0  0  0
  -25.9310  -11.6467   20.5758 N   0  0  0  0  0  0
  -22.0488  -12.8223   22.0369 N   0  0  0  0  0  0
  -25.4330  -15.1896   20.4223 N   0  0  0  0  0  0
  -31.6838  -14.9677   20.1253 O   0  0  0  0  0  0
  -21.6625   -6.8868   21.4239 O   0  0  0  0  0  0
  -22.3554  -14.5519   20.6637 O   0  0  0  0  0  0
  -24.6291  -31.8532   23.1977 C   0  0  0  0  0  0
  -25.9128  -32.4747   23.8311 C   0  0  1  0  0  0
  -27.2242  -27.2675   20.1287 C   0  0  0  0  0  0
  -25.5909  -33.8548   24.2236 N   0  0  0  0  0  0
  -23.4224  -30.4786   21.5395 C   0  0  2  0  0  0
  -24.8709  -28.9174   20.1097 C   0  0  0  0  0  0
  -22.7461  -29.4617   22.4887 C   0  0  0  0  0  0
  -18.0276  -28.1403   22.8475 C   0  0  0  0  0  0
  -24.1494  -36.7297   23.2636 C   0  0  0  0  0  0
  -25.9644  -30.7715   21.3682 C   0  0  0  0  0  0
  -26.0392  -29.3909   20.7174 C   0  0  0  0  0  0
  -27.2136  -28.5775   20.7153 C   0  0  0  0  0  0
  -26.0352  -26.8534   19.4915 C   0  0  0  0  0  0
  -24.8744  -27.6583   19.4844 C   0  0  0  0  0  0
  -23.6398  -29.8051   20.1574 C   0  0  0  0  0  0
  -25.4118  -36.3074   24.0327 C   0  0  1  0  0  0
  -20.5878  -28.3703   23.1259 C   0  0  2  0  0  0
  -20.6778  -26.9411   22.5409 C   0  0  0  0  0  0
  -19.5766  -26.6397   21.5202 C   0  0  0  0  0  0
  -18.1936  -26.7942   22.1604 C   0  0  0  0  0  0
  -19.1536  -28.8856   23.2863 C   0  0  0  0  0  0
  -18.9461  -30.1458   23.8894 C   0  0  0  0  0  0
  -17.6465  -30.6598   24.0566 C   0  0  0  0  0  0
  -25.9059  -34.9442   23.5099 C   0  0  0  0  0  0
  -16.5356  -29.9091   23.6333 C   0  0  0  0  0  0
  -16.7268  -28.6525   23.0340 C   0  0  0  0  0  0
  -26.4505  -31.6558   25.0687 C   0  0  0  0  0  0
  -25.3714  -31.3664   26.1395 C   0  0  0  0  0  0
  -27.0332  -30.2985   24.6105 C   0  0  0  0  0  0
  -27.6080  -32.4259   25.7447 C   0  0  0  0  0  0
  -27.5581  -37.1796   24.8455 C   0  0  0  0  0  0
  -21.4161  -29.3060   22.3647 N   0  0  0  0  0  0
  -26.4290  -37.3774   23.9408 N   0  0  0  0  0  0
  -24.6912  -31.0526   22.0932 N   0  0  0  0  0  0
  -23.4173  -28.8147   23.2969 O   0  0  0  0  0  0
  -28.3576  -26.4308   20.2095 O   0  0  0  0  0  0
  -26.5648  -34.8919   22.4681 O   0  0  0  0  0  0
  -23.5465  -32.1315   23.7333 O   0  0  0  0  0  0
  -29.1036  -19.7846   20.4950 C   0  0  0  0  0  0
  -27.9550  -19.0556   20.7448 C   0  0  0  0  0  0
  -29.3747  -17.1930   20.5907 C   0  0  0  0  0  0
  -29.2844  -21.2813   20.6012 C   0  0  0  0  0  0
  -28.6078  -23.9554   22.1401 C   0  0  0  0  0  0
  -26.6058  -19.6210   21.0737 C   0  0  0  0  0  0
  -27.5652  -24.1902   23.2175 C   0  0  0  0  0  0
  -28.4497  -24.9944   19.7598 C   0  0  0  0  0  0
  -28.0971  -23.7368   20.7152 C   0  0  1  0  0  0
  -28.1213  -17.6452   20.7750 N   0  0  0  0  0  0
  -30.4424  -21.6715   21.1440 N   0  0  0  0  0  0
  -29.5678  -15.7347   20.7234 N   0  0  0  0  0  0
  -28.3512  -22.2686   20.2643 N   0  3  0  0  0  0
  -29.8015  -23.9281   22.4485 O   0  0  0  0  0  0
  -30.4568  -18.5985   20.2855 S   0  0  0  0  0  0
  -31.4920  -12.6340   19.1584 H   0  0  0  0  0  0
  -30.4456  -11.4714   19.9288 H   0  0  0  0  0  0
  -29.7966  -11.7267   17.5180 H   0  0  0  0  0  0
  -29.6400  -13.4552   17.7137 H   0  0  0  0  0  0
  -27.8950  -11.2777   18.9035 H   0  0  0  0  0  0
  -27.3835  -12.5282   17.7997 H   0  0  0  0  0  0
  -27.6487  -14.2373   19.4892 H   0  0  0  0  0  0
  -28.7360  -12.0674   21.3662 H   0  0  0  0  0  0
  -28.4224  -13.7091   21.8435 H   0  0  0  0  0  0
  -25.2746   -9.5618   22.4828 H   0  0  0  0  0  0
  -23.9942   -7.4595   22.7502 H   0  0  0  0  0  0
  -21.0841   -8.8769   19.8976 H   0  0  0  0  0  0
  -22.3700  -10.9672   19.6182 H   0  0  0  0  0  0
  -21.2020   -7.6151   23.9704 H   0  0  0  0  0  0
  -21.1468   -6.0537   25.9076 H   0  0  0  0  0  0
  -22.0616   -2.7602   23.2867 H   0  0  0  0  0  0
  -22.4061  -11.9855   22.4732 H   0  0  0  0  0  0
  -21.1125  -13.1286   22.2573 H   0  0  0  0  0  0
  -24.6754  -15.8458   20.5734 H   0  0  0  0  0  0
  -26.2967  -15.6456   20.1557 H   0  0  0  0  0  0
  -26.7177  -32.5413   23.1032 H   0  0  0  0  0  0
  -25.0022  -33.9654   25.0363 H   0  0  0  0  0  0
  -22.7204  -31.3019   21.3945 H   0  0  0  0  0  0
  -23.3765  -35.9620   23.3285 H   0  0  0  0  0  0
  -24.3574  -36.8953   22.2052 H   0  0  0  0  0  0
  -23.7262  -37.6497   23.6680 H   0  0  0  0  0  0
  -26.0899  -31.5266   20.5909 H   0  0  0  0  0  0
  -26.8507  -30.8331   21.9886 H   0  0  0  0  0  0
  -28.1099  -28.9347   21.2025 H   0  0  0  0  0  0
  -25.9810  -25.8896   19.0095 H   0  0  0  0  0  0
  -23.9771  -27.2960   19.0016 H   0  0  0  0  0  0
  -23.7593  -30.5802   19.4000 H   0  0  0  0  0  0
  -22.7567  -29.2372   19.8559 H   0  0  0  0  0  0
  -25.1315  -36.1908   25.0823 H   0  0  0  0  0  0
  -20.9969  -28.3312   24.1378 H   0  0  0  0  0  0
  -20.5677  -26.2296   23.3606 H   0  0  0  0  0  0
  -21.6640  -26.7454   22.1201 H   0  0  0  0  0  0
  -19.6935  -25.6305   21.1224 H   0  0  0  0  0  0
  -19.6736  -27.3207   20.6729 H   0  0  0  0  0  0
  -17.4203  -26.6659   21.4010 H   0  0  0  0  0  0
  -18.0352  -26.0084   22.9001 H   0  0  0  0  0  0
  -19.7939  -30.7260   24.2259 H   0  0  0  0  0  0
  -17.5026  -31.6269   24.5169 H   0  0  0  0  0  0
  -15.5353  -30.3005   23.7668 H   0  0  0  0  0  0
  -15.8654  -28.0856   22.7049 H   0  0  0  0  0  0
  -24.5976  -30.6917   25.7708 H   0  0  0  0  0  0
  -24.8791  -32.2788   26.4756 H   0  0  0  0  0  0
  -25.8033  -30.8906   27.0206 H   0  0  0  0  0  0
  -26.2874  -29.6710   24.1199 H   0  0  0  0  0  0
  -27.4127  -29.7269   25.4589 H   0  0  0  0  0  0
  -27.8708  -30.4303   23.9248 H   0  0  0  0  0  0
  -27.2776  -33.3633   26.1927 H   0  0  0  0  0  0
  -28.3939  -32.6659   25.0271 H   0  0  0  0  0  0
  -28.0661  -31.8398   26.5423 H   0  0  0  0  0  0
  -28.2584  -38.0107   24.7543 H   0  0  0  0  0  0
  -28.1094  -36.2646   24.6246 H   0  0  0  0  0  0
  -27.2286  -37.1409   25.8848 H   0  0  0  0  0  0
  -20.9327  -29.8740   21.6830 H   0  0  0  0  0  0
  -26.0175  -38.2846   24.1427 H   0  0  0  0  0  0
  -26.6793  -20.4237   21.8083 H   0  0  0  0  0  0
  -25.9437  -18.8609   21.4910 H   0  0  0  0  0  0
  -26.1146  -20.0324   20.1930 H   0  0  0  0  0  0
  -26.7141  -23.5257   23.0648 H   0  0  0  0  0  0
  -27.2300  -25.2247   23.1709 H   0  0  0  0  0  0
  -27.9868  -24.0005   24.2052 H   0  0  0  0  0  0
  -27.9193  -24.8867   18.8130 H   0  0  0  0  0  0
  -29.4958  -24.8645   19.4780 H   0  0  0  0  0  0
  -27.0096  -23.7785   20.7892 H   0  0  0  0  0  0
  -31.1760  -21.0109   21.3497 H   0  0  0  0  0  0
  -30.4972  -22.5867   21.5890 H   0  0  0  0  0  0
  -28.7047  -15.2903   20.9838 H   0  0  0  0  0  0
  -27.6101  -21.9347   19.6649 H   0  0  0  0  0  0
  1 25  1  0  0  0
  1 30  2  0  0  0
  1 82  1  0  0  0
  2  3  1  0  0  0
  2 25  1  0  0  0
  2 86  1  0  0  0
  2 87  1  0  0  0
  3  4  1  0  0  0
  3 88  1  0  0  0
  3 89  1  0  0  0
  4  5  1  0  0  0
  4 90  1  0  0  0
  4 91  1  0  0  0
  5  6  1  0  0  0
  5 26  1  0  0  0
  5 92  1  0  0  0
  6 25  1  0  0  0
  6 93  1  0  0  0
  6 94  1  0  0  0
  7  8  2  0  0  0
  7 26  1  0  0  0
  7 29  1  0  0  0
  8  9  1  0  0  0
  8 22  1  0  0  0
  9 10  1  0  0  0
  9 27  2  0  0  0
 10 11  2  0  0  0
 10 15  1  0  0  0
 11 12  1  0  0  0
 11 95  1  0  0  0
 12 13  2  0  0  0
 12 96  1  0  0  0
 13 14  1  0  0  0
 13 31  1  0  0  0
 14 15  2  0  0  0
 14 97  1  0  0  0
 15 98  1  0  0  0
 16 17  2  0  0  0
 16 21  1  0  0  0
 16 31  1  0  0  0
 17 18  1  0  0  0
 17 99  1  0  0  0
 18 19  2  0  0  0
 18100  1  0  0  0
 19 20  1  0  0  0
 19 24  1  0  0  0
 20 21  2  0  0  0
 20101  1  0  0  0
 21 23  1  0  0  0
 22 28  1  0  0  0
 22 32  2  0  0  0
 26 27  1  0  0  0
 28102  1  0  0  0
 28103  1  0  0  0
 29104  1  0  0  0
 29105  1  0  0  0
 33 34  1  0  0  0
 33 66  1  0  0  0
 33 70  2  0  0  0
 34 36  1  0  0  0
 34 59  1  0  0  0
 34106  1  0  0  0
 35 44  2  0  0  0
 35 45  1  0  0  0
 35 68  1  0  0  0
 36 56  1  0  0  0
 36107  1  0  0  0
 37 39  1  0  0  0
 37 47  1  0  0  0
 37 66  1  0  0  0
 37108  1  0  0  0
 38 43  2  0  0  0
 38 46  1  0  0  0
 38 47  1  0  0  0
 39 64  1  0  0  0
 39 67  2  0  0  0
 40 52  1  0  0  0
 40 53  2  0  0  0
 40 58  1  0  0  0
 41109  1  0  0  0
 41110  1  0  0  0
 41111  1  0  0  0
 41 48  1  0  0  0
 42 43  1  0  0  0
 42 66  1  0  0  0
 42112  1  0  0  0
 42113  1  0  0  0
 43 44  1  0  0  0
 44114  1  0  0  0
 45 46  2  0  0  0
 45115  1  0  0  0
 46116  1  0  0  0
 47117  1  0  0  0
 47118  1  0  0  0
 48 56  1  0  0  0
 48 65  1  0  0  0
 48119  1  0  0  0
 49 50  1  0  0  0
 49 53  1  0  0  0
 49 64  1  0  0  0
 49120  1  0  0  0
 50 51  1  0  0  0
 50121  1  0  0  0
 50122  1  0  0  0
 51 52  1  0  0  0
 51123  1  0  0  0
 51124  1  0  0  0
 52125  1  0  0  0
 52126  1  0  0  0
 53 54  1  0  0  0
 54 55  2  0  0  0
 54127  1  0  0  0
 55 57  1  0  0  0
 55128  1  0  0  0
 56 69  2  0  0  0
 57 58  2  0  0  0
 57129  1  0  0  0
 58130  1  0  0  0
 59 60  1  0  0  0
 59 61  1  0  0  0
 59 62  1  0  0  0
 60131  1  0  0  0
 60132  1  0  0  0
 60133  1  0  0  0
 61134  1  0  0  0
 61135  1  0  0  0
 61136  1  0  0  0
 62137  1  0  0  0
 62138  1  0  0  0
 62139  1  0  0  0
 63 65  1  0  0  0
 63140  1  0  0  0
 63141  1  0  0  0
 63142  1  0  0  0
 64143  1  0  0  0
 65144  1  0  0  0
 68 78  1  0  0  0
 71 72  2  0  0  0
 71 74  1  0  0  0
 71 85  1  0  0  0
 72 76  1  0  0  0
 72 80  1  0  0  0
 73 80  2  0  0  0
 73 82  1  0  0  0
 73 85  1  0  0  0
 74 81  1  0  0  0
 74 83  2  0  0  0
 75 77  1  0  0  0
 75 79  1  0  0  0
 75 84  2  0  0  0
 76145  1  0  0  0
 76146  1  0  0  0
 76147  1  0  0  0
 77148  1  0  0  0
 77149  1  0  0  0
 77150  1  0  0  0
 78151  1  0  0  0
 78152  1  0  0  0
 78 79  1  0  0  0
 79 83  1  0  0  0
 79153  1  0  0  0
 81154  1  0  0  0
 81155  1  0  0  0
 82156  1  0  0  0
 83157  1  0  0  0
M  CHG  1  83   1
M  ISO  4   1 100  68 101  78 101  82 100
M  END
> <chiral flag>
0

> <version>
0

> <s_m_source_file>
/data/baiqing/PycharmProjects/Reinvent-master-3.2/result/LINK_invent/BTK/process_docking_weight1_custom_product_contain_oxygen_bond_distance_aromatic_linkinvent_7_9_3/rearranged_h_0186.sdf

> <i_m_source_file_index>
23

> <r_mmod_Potential_Energy-OPLS-2005>
-161.434631347656

> <r_mmod_Stretch_Energy-OPLS-2005>
113.029350280762

> <r_mmod_Bend_Energy-OPLS-2005>
222.414245605469

> <r_mmod_Torsional_Energy-OPLS-2005>
217.048645019531

> <r_mmod_Improper_Torsional_Energy-OPLS-2005>
6.41616249084473

> <r_mmod_Van_der_Waal_Energy-OPLS-2005>
120.132614135742

> <r_mmod_Electrostatic_Energy-OPLS-2005>
-461.027801513672

> <r_mmod_Solvation_Energy-OPLS-2005>
-466.679168701172

> <b_mmod_Minimization_Converged-OPLS-2005>
0

> <r_mmod_RMS_Derivative-OPLS-2005>
4.42171001434326

$$$$
24
                    3D
 Structure written by MMmdl.
145152  0  0  1  0            999 V2000
  -30.4525  -15.2349   20.3594 C   0  0  0  0  0  0
  -30.4350  -12.7788   19.5394 C   0  0  0  0  0  0
  -29.5367  -12.5759   18.2934 C   0  0  0  0  0  0
  -28.0815  -12.3086   18.7128 C   0  0  0  0  0  0
  -27.6140  -13.2767   19.8285 C   0  0  2  0  0  0
  -28.6450  -13.4378   20.9678 C   0  0  0  0  0  0
  -25.2390  -13.8258   20.5747 C   0  0  0  0  0  0
  -24.1743  -13.0443   20.9259 C   0  0  0  0  0  0
  -24.6400  -11.6940   20.8761 C   0  0  0  0  0  0
  -23.9096  -10.4297   21.0404 C   0  0  0  0  0  0
  -24.3640   -9.4209   21.9182 C   0  0  0  0  0  0
  -23.6307   -8.2248   22.0754 C   0  0  0  0  0  0
  -22.4288   -8.0288   21.3545 C   0  0  0  0  0  0
  -21.9929   -9.0262   20.4645 C   0  0  0  0  0  0
  -22.7265  -10.2137   20.3053 C   0  0  0  0  0  0
  -21.6859   -6.0739   22.5278 C   0  0  0  0  0  0
  -21.4017   -6.5641   23.8212 C   0  0  0  0  0  0
  -21.3662   -5.6793   24.9173 C   0  0  0  0  0  0
  -21.6045   -4.3056   24.7222 C   0  0  0  0  0  0
  -21.8819   -3.8147   23.4343 C   0  0  0  0  0  0
  -21.9193   -4.6966   22.3400 C   0  0  0  0  0  0
  -22.7759  -13.5192   21.1903 C   0  0  0  0  0  0
  -22.1662   -4.2150   21.0978 F   0  0  0  0  0  0
  -21.5628   -3.4540   25.7734 F   0  0  0  0  0  0
  -29.8886  -13.9278   20.3533 N   0  0  0  0  0  0
  -26.2821  -12.9535   20.3229 N   0  0  0  0  0  0
  -25.9337  -11.6638   20.5724 N   0  0  0  0  0  0
  -22.0418  -12.8172   22.0456 N   0  0  0  0  0  0
  -25.4020  -15.1994   20.4178 N   0  0  0  0  0  0
  -31.6633  -15.2194   20.0950 O   0  0  0  0  0  0
  -21.6649   -6.8886   21.4242 O   0  0  0  0  0  0
  -22.3433  -14.5489   20.6738 O   0  0  0  0  0  0
  -24.6604  -31.8250   23.1718 C   0  0  0  0  0  0
  -25.9295  -32.4595   23.8176 C   0  0  1  0  0  0
  -27.2188  -26.9455   20.1798 C   0  0  0  0  0  0
  -25.5971  -33.8410   24.2082 N   0  0  0  0  0  0
  -23.4744  -30.4366   21.5199 C   0  0  2  0  0  0
  -24.9284  -28.8278   20.1074 C   0  0  0  0  0  0
  -22.7655  -29.4445   22.4784 C   0  0  0  0  0  0
  -18.0320  -28.1407   22.8467 C   0  0  0  0  0  0
  -24.1493  -36.7214   23.2647 C   0  0  0  0  0  0
  -26.0415  -30.6357   21.4010 C   0  0  0  0  0  0
  -26.1086  -29.2278   20.7449 C   0  0  0  0  0  0
  -27.2453  -28.3050   20.7614 C   0  0  0  0  0  0
  -26.0154  -26.6986   19.4809 C   0  0  0  0  0  0
  -24.9064  -27.5839   19.4556 C   0  0  0  0  0  0
  -23.7130  -29.7528   20.1449 C   0  0  0  0  0  0
  -25.4134  -36.2975   24.0300 C   0  0  1  0  0  0
  -20.5943  -28.3750   23.1191 C   0  0  2  0  0  0
  -20.6796  -26.9433   22.5403 C   0  0  0  0  0  0
  -19.5771  -26.6375   21.5213 C   0  0  0  0  0  0
  -18.1953  -26.7939   22.1622 C   0  0  0  0  0  0
  -19.1580  -28.8899   23.2817 C   0  0  0  0  0  0
  -18.9492  -30.1488   23.8853 C   0  0  0  0  0  0
  -17.6486  -30.6597   24.0554 C   0  0  0  0  0  0
  -25.9097  -34.9355   23.5013 C   0  0  0  0  0  0
  -16.5376  -29.9084   23.6342 C   0  0  0  0  0  0
  -16.7302  -28.6504   23.0361 C   0  0  0  0  0  0
  -26.4552  -31.6540   25.0703 C   0  0  0  0  0  0
  -25.3680  -31.3788   26.1362 C   0  0  0  0  0  0
  -27.0451  -30.2908   24.6434 C   0  0  0  0  0  0
  -27.6043  -32.4351   25.7504 C   0  0  0  0  0  0
  -27.5571  -37.1765   24.8466 C   0  0  0  0  0  0
  -21.4326  -29.3041   22.3537 N   0  0  0  0  0  0
  -26.4282  -37.3709   23.9405 N   0  0  0  0  0  0
  -24.7464  -30.9928   22.0845 N   0  0  0  0  0  0
  -23.4212  -28.8017   23.3020 O   0  0  0  0  0  0
  -28.2266  -25.8569   20.3080 O   0  0  0  0  0  0
  -26.5709  -34.8887   22.4610 O   0  0  0  0  0  0
  -23.5679  -32.1215   23.6822 O   0  0  0  0  0  0
  -29.9692  -17.9345   20.2387 C   0  0  0  0  0  0
  -29.1068  -19.3996   20.6580 C   0  0  0  0  0  0
  -28.6614  -22.7004   20.6196 C   0  0  0  0  0  0
  -28.1571  -24.2657   19.8888 C   0  0  0  0  0  0
  -29.0458  -21.0656   19.9678 C   0  0  1  0  0  0
  -29.6946  -16.5019   20.5031 N   0  0  0  0  0  0
  -31.0158  -18.1716   19.6314 O   0  0  0  0  0  0
  -30.2258  -21.2466   19.3745 F   0  0  0  0  0  0
  -31.4612  -12.9586   19.2166 H   0  0  0  0  0  0
  -30.4778  -11.8662   20.1364 H   0  0  0  0  0  0
  -29.9097  -11.7521   17.6834 H   0  0  0  0  0  0
  -29.5795  -13.4673   17.6658 H   0  0  0  0  0  0
  -28.0270  -11.2809   19.0734 H   0  0  0  0  0  0
  -27.4171  -12.3662   17.8496 H   0  0  0  0  0  0
  -27.5351  -14.2484   19.3395 H   0  0  0  0  0  0
  -28.7980  -12.5002   21.5043 H   0  0  0  0  0  0
  -28.2882  -14.1611   21.7025 H   0  0  0  0  0  0
  -25.2783   -9.5683   22.4761 H   0  0  0  0  0  0
  -24.0012   -7.4638   22.7475 H   0  0  0  0  0  0
  -21.0860   -8.8785   19.8950 H   0  0  0  0  0  0
  -22.3726  -10.9677   19.6163 H   0  0  0  0  0  0
  -21.2015   -7.6150   23.9715 H   0  0  0  0  0  0
  -21.1484   -6.0524   25.9077 H   0  0  0  0  0  0
  -22.0595   -2.7609   23.2843 H   0  0  0  0  0  0
  -22.4053  -11.9849   22.4856 H   0  0  0  0  0  0
  -21.1024  -13.1168   22.2651 H   0  0  0  0  0  0
  -24.6283  -15.8466   20.5256 H   0  0  0  0  0  0
  -26.2355  -15.6383   20.0492 H   0  0  0  0  0  0
  -26.7363  -32.5135   23.0891 H   0  0  0  0  0  0
  -25.0059  -33.9491   25.0193 H   0  0  0  0  0  0
  -22.7869  -31.2680   21.3505 H   0  0  0  0  0  0
  -23.3766  -35.9534   23.3281 H   0  0  0  0  0  0
  -24.3570  -36.8889   22.2068 H   0  0  0  0  0  0
  -23.7240  -37.6390   23.6721 H   0  0  0  0  0  0
  -26.2212  -31.3775   20.6219 H   0  0  0  0  0  0
  -26.9021  -30.6911   22.0557 H   0  0  0  0  0  0
  -28.1342  -28.6048   21.2983 H   0  0  0  0  0  0
  -25.8881  -25.7531   18.9764 H   0  0  0  0  0  0
  -24.0107  -27.2739   18.9352 H   0  0  0  0  0  0
  -23.8657  -30.5221   19.3870 H   0  0  0  0  0  0
  -22.8232  -29.2058   19.8285 H   0  0  0  0  0  0
  -25.1333  -36.1774   25.0792 H   0  0  0  0  0  0
  -21.0033  -28.3356   24.1314 H   0  0  0  0  0  0
  -20.5674  -26.2370   23.3642 H   0  0  0  0  0  0
  -21.6660  -26.7408   22.1212 H   0  0  0  0  0  0
  -19.6930  -25.6273   21.1275 H   0  0  0  0  0  0
  -19.6709  -27.3157   20.6721 H   0  0  0  0  0  0
  -17.4222  -26.6680   21.4026 H   0  0  0  0  0  0
  -18.0349  -26.0092   22.9029 H   0  0  0  0  0  0
  -19.7968  -30.7315   24.2204 H   0  0  0  0  0  0
  -17.5037  -31.6272   24.5164 H   0  0  0  0  0  0
  -15.5375  -30.2972   23.7690 H   0  0  0  0  0  0
  -15.8702  -28.0807   22.7104 H   0  0  0  0  0  0
  -24.5870  -30.7131   25.7669 H   0  0  0  0  0  0
  -24.8860  -32.2990   26.4673 H   0  0  0  0  0  0
  -25.7910  -30.9027   27.0216 H   0  0  0  0  0  0
  -26.3117  -29.6581   24.1424 H   0  0  0  0  0  0
  -27.3967  -29.7278   25.5090 H   0  0  0  0  0  0
  -27.9063  -30.4094   23.9856 H   0  0  0  0  0  0
  -27.2608  -33.3689   26.1966 H   0  0  0  0  0  0
  -28.3912  -32.6853   25.0377 H   0  0  0  0  0  0
  -28.0647  -31.8558   26.5519 H   0  0  0  0  0  0
  -28.2572  -38.0077   24.7512 H   0  0  0  0  0  0
  -28.1084  -36.2603   24.6294 H   0  0  0  0  0  0
  -27.2287  -37.1409   25.8868 H   0  0  0  0  0  0
  -20.9577  -29.8732   21.6669 H   0  0  0  0  0  0
  -26.0132  -38.2769   24.1408 H   0  0  0  0  0  0
  -29.4334  -19.5569   21.6855 H   0  0  0  0  0  0
  -28.0691  -19.0852   20.7657 H   0  0  0  0  0  0
  -27.8982  -22.5133   21.3749 H   0  0  0  0  0  0
  -29.5411  -22.9548   21.2108 H   0  0  0  0  0  0
  -27.1185  -24.0920   19.6144 H   0  0  0  0  0  0
  -28.6729  -24.2734   18.9285 H   0  0  0  0  0  0
  -28.3576  -20.9555   19.1293 H   0  0  0  0  0  0
  -28.7635  -16.3514   20.8567 H   0  0  0  0  0  0
  1 25  1  0  0  0
  1 30  2  0  0  0
  1 76  1  0  0  0
  2  3  1  0  0  0
  2 25  1  0  0  0
  2 79  1  0  0  0
  2 80  1  0  0  0
  3  4  1  0  0  0
  3 81  1  0  0  0
  3 82  1  0  0  0
  4  5  1  0  0  0
  4 83  1  0  0  0
  4 84  1  0  0  0
  5  6  1  0  0  0
  5 26  1  0  0  0
  5 85  1  0  0  0
  6 25  1  0  0  0
  6 86  1  0  0  0
  6 87  1  0  0  0
  7  8  2  0  0  0
  7 26  1  0  0  0
  7 29  1  0  0  0
  8  9  1  0  0  0
  8 22  1  0  0  0
  9 10  1  0  0  0
  9 27  2  0  0  0
 10 11  2  0  0  0
 10 15  1  0  0  0
 11 12  1  0  0  0
 11 88  1  0  0  0
 12 13  2  0  0  0
 12 89  1  0  0  0
 13 14  1  0  0  0
 13 31  1  0  0  0
 14 15  2  0  0  0
 14 90  1  0  0  0
 15 91  1  0  0  0
 16 17  2  0  0  0
 16 21  1  0  0  0
 16 31  1  0  0  0
 17 18  1  0  0  0
 17 92  1  0  0  0
 18 19  2  0  0  0
 18 93  1  0  0  0
 19 20  1  0  0  0
 19 24  1  0  0  0
 20 21  2  0  0  0
 20 94  1  0  0  0
 21 23  1  0  0  0
 22 28  1  0  0  0
 22 32  2  0  0  0
 26 27  1  0  0  0
 28 95  1  0  0  0
 28 96  1  0  0  0
 29 97  1  0  0  0
 29 98  1  0  0  0
 33 34  1  0  0  0
 33 66  1  0  0  0
 33 70  2  0  0  0
 34 36  1  0  0  0
 34 59  1  0  0  0
 34 99  1  0  0  0
 35 44  2  0  0  0
 35 45  1  0  0  0
 35 68  1  0  0  0
 36 56  1  0  0  0
 36100  1  0  0  0
 37 39  1  0  0  0
 37 47  1  0  0  0
 37 66  1  0  0  0
 37101  1  0  0  0
 38 43  2  0  0  0
 38 46  1  0  0  0
 38 47  1  0  0  0
 39 64  1  0  0  0
 39 67  2  0  0  0
 40 52  1  0  0  0
 40 53  2  0  0  0
 40 58  1  0  0  0
 41102  1  0  0  0
 41103  1  0  0  0
 41104  1  0  0  0
 41 48  1  0  0  0
 42 43  1  0  0  0
 42 66  1  0  0  0
 42105  1  0  0  0
 42106  1  0  0  0
 43 44  1  0  0  0
 44107  1  0  0  0
 45 46  2  0  0  0
 45108  1  0  0  0
 46109  1  0  0  0
 47110  1  0  0  0
 47111  1  0  0  0
 48 56  1  0  0  0
 48 65  1  0  0  0
 48112  1  0  0  0
 49 50  1  0  0  0
 49 53  1  0  0  0
 49 64  1  0  0  0
 49113  1  0  0  0
 50 51  1  0  0  0
 50114  1  0  0  0
 50115  1  0  0  0
 51 52  1  0  0  0
 51116  1  0  0  0
 51117  1  0  0  0
 52118  1  0  0  0
 52119  1  0  0  0
 53 54  1  0  0  0
 54 55  2  0  0  0
 54120  1  0  0  0
 55 57  1  0  0  0
 55121  1  0  0  0
 56 69  2  0  0  0
 57 58  2  0  0  0
 57122  1  0  0  0
 58123  1  0  0  0
 59 60  1  0  0  0
 59 61  1  0  0  0
 59 62  1  0  0  0
 60124  1  0  0  0
 60125  1  0  0  0
 60126  1  0  0  0
 61127  1  0  0  0
 61128  1  0  0  0
 61129  1  0  0  0
 62130  1  0  0  0
 62131  1  0  0  0
 62132  1  0  0  0
 63 65  1  0  0  0
 63133  1  0  0  0
 63134  1  0  0  0
 63135  1  0  0  0
 64136  1  0  0  0
 65137  1  0  0  0
 68 74  1  0  0  0
 71 72  1  0  0  0
 71 76  1  0  0  0
 71 77  2  0  0  0
 72 75  1  0  0  0
 72138  1  0  0  0
 72139  1  0  0  0
 73 74  1  0  0  0
 73 75  1  0  0  0
 73140  1  0  0  0
 73141  1  0  0  0
 74142  1  0  0  0
 74143  1  0  0  0
 75 78  1  0  0  0
 75144  1  0  0  0
 76145  1  0  0  0
M  ISO  4   1 100  68 101  74 101  76 100
M  END
> <chiral flag>
0

> <version>
0

> <s_m_source_file>
/data/baiqing/PycharmProjects/Reinvent-master-3.2/result/LINK_invent/BTK/process_docking_weight1_custom_product_contain_oxygen_bond_distance_aromatic_linkinvent_7_9_3/rearranged_h_0186.sdf

> <i_m_source_file_index>
24

> <r_mmod_Potential_Energy-OPLS-2005>
1145.49597167969

> <r_mmod_Stretch_Energy-OPLS-2005>
591.760559082031

> <r_mmod_Bend_Energy-OPLS-2005>
436.816589355469

> <r_mmod_Torsional_Energy-OPLS-2005>
204.511245727539

> <r_mmod_Improper_Torsional_Energy-OPLS-2005>
3.28026628494263

> <r_mmod_Van_der_Waal_Energy-OPLS-2005>
111.184585571289

> <r_mmod_Electrostatic_Energy-OPLS-2005>
-385.874542236328

> <r_mmod_Solvation_Energy-OPLS-2005>
-243.113754272461

> <b_mmod_Minimization_Converged-OPLS-2005>
0

> <r_mmod_RMS_Derivative-OPLS-2005>
0.302293926477432

$$$$
25
                    3D
 Structure written by MMmdl.
166174  0  0  1  0            999 V2000
  -30.6208  -14.5708   20.5396 C   0  0  0  0  0  0
  -30.4392  -12.3535   19.4303 C   0  0  0  0  0  0
  -29.5008  -12.5054   18.2107 C   0  0  0  0  0  0
  -28.0192  -12.3588   18.6211 C   0  0  0  0  0  0
  -27.6514  -13.2080   19.8651 C   0  0  2  0  0  0
  -28.6966  -13.0069   20.9858 C   0  0  0  0  0  0
  -25.2535  -13.8173   20.5681 C   0  0  0  0  0  0
  -24.1807  -13.0429   20.9236 C   0  0  0  0  0  0
  -24.6387  -11.6911   20.8790 C   0  0  0  0  0  0
  -23.9090  -10.4279   21.0431 C   0  0  0  0  0  0
  -24.3630   -9.4173   21.9194 C   0  0  0  0  0  0
  -23.6280   -8.2218   22.0764 C   0  0  0  0  0  0
  -22.4249   -8.0280   21.3569 C   0  0  0  0  0  0
  -21.9912   -9.0270   20.4671 C   0  0  0  0  0  0
  -22.7275  -10.2124   20.3064 C   0  0  0  0  0  0
  -21.6838   -6.0736   22.5281 C   0  0  0  0  0  0
  -21.4020   -6.5646   23.8233 C   0  0  0  0  0  0
  -21.3655   -5.6799   24.9196 C   0  0  0  0  0  0
  -21.6014   -4.3059   24.7232 C   0  0  0  0  0  0
  -21.8824   -3.8145   23.4361 C   0  0  0  0  0  0
  -21.9196   -4.6965   22.3413 C   0  0  0  0  0  0
  -22.7816  -13.5209   21.1867 C   0  0  0  0  0  0
  -22.1650   -4.2154   21.0984 F   0  0  0  0  0  0
  -21.5618   -3.4541   25.7747 F   0  0  0  0  0  0
  -30.0182  -13.3486   20.4311 N   0  0  0  0  0  0
  -26.2942  -12.9335   20.3293 N   0  0  0  0  0  0
  -25.9291  -11.6500   20.5745 N   0  0  0  0  0  0
  -22.0455  -12.8231   22.0454 N   0  0  0  0  0  0
  -25.4221  -15.1900   20.4086 N   0  0  0  0  0  0
  -31.7864  -14.7690   20.1771 O   0  0  0  0  0  0
  -21.6611   -6.8870   21.4251 O   0  0  0  0  0  0
  -22.3515  -14.5503   20.6704 O   0  0  0  0  0  0
  -24.6235  -31.8595   23.2071 C   0  0  0  0  0  0
  -25.9095  -32.4776   23.8405 C   0  0  1  0  0  0
  -27.2291  -27.3594   20.0998 C   0  0  0  0  0  0
  -25.5914  -33.8583   24.2306 N   0  0  0  0  0  0
  -23.4159  -30.4839   21.5479 C   0  0  2  0  0  0
  -24.8603  -28.9401   20.1193 C   0  0  0  0  0  0
  -22.7455  -29.4610   22.4954 C   0  0  0  0  0  0
  -18.0285  -28.1360   22.8498 C   0  0  0  0  0  0
  -24.1469  -36.7280   23.2635 C   0  0  0  0  0  0
  -25.9538  -30.8076   21.3681 C   0  0  0  0  0  0
  -26.0319  -29.4403   20.7049 C   0  0  0  0  0  0
  -27.2228  -28.6643   20.6739 C   0  0  0  0  0  0
  -26.0306  -26.8882   19.5240 C   0  0  0  0  0  0
  -24.8578  -27.6667   19.5272 C   0  0  0  0  0  0
  -23.6287  -29.8161   20.1643 C   0  0  0  0  0  0
  -25.4082  -36.3075   24.0334 C   0  0  1  0  0  0
  -20.5877  -28.3650   23.1295 C   0  0  2  0  0  0
  -20.6742  -26.9380   22.5411 C   0  0  0  0  0  0
  -19.5739  -26.6378   21.5194 C   0  0  0  0  0  0
  -18.1919  -26.7916   22.1612 C   0  0  0  0  0  0
  -19.1540  -28.8830   23.2879 C   0  0  0  0  0  0
  -18.9477  -30.1433   23.8907 C   0  0  0  0  0  0
  -17.6471  -30.6582   24.0564 C   0  0  0  0  0  0
  -25.9047  -34.9454   23.5125 C   0  0  0  0  0  0
  -16.5353  -29.9087   23.6337 C   0  0  0  0  0  0
  -16.7264  -28.6478   23.0378 C   0  0  0  0  0  0
  -26.4494  -31.6591   25.0775 C   0  0  0  0  0  0
  -25.3763  -31.3736   26.1534 C   0  0  0  0  0  0
  -27.0326  -30.3017   24.6216 C   0  0  0  0  0  0
  -27.6056  -32.4315   25.7559 C   0  0  0  0  0  0
  -27.5565  -37.1777   24.8464 C   0  0  0  0  0  0
  -21.4168  -29.3017   22.3712 N   0  0  0  0  0  0
  -26.4248  -37.3777   23.9435 N   0  0  0  0  0  0
  -24.6832  -31.0671   22.0981 N   0  0  0  0  0  0
  -23.4192  -28.8128   23.3000 O   0  0  0  0  0  0
  -28.3810  -26.5779   20.0741 O   0  0  0  0  0  0
  -26.5612  -34.8897   22.4688 O   0  0  0  0  0  0
  -23.5408  -32.1348   23.7423 O   0  0  0  0  0  0
  -29.6636  -19.0073   22.6031 C   0  0  0  0  0  0
  -29.7663  -19.2284   21.2313 C   0  0  0  0  0  0
  -29.9645  -16.9144   21.2765 C   0  0  0  0  0  0
  -29.1406  -21.6771   20.6781 C   0  0  0  0  0  0
  -31.8878  -20.1504   24.6304 C   0  0  0  0  0  0
  -29.4922  -24.8048   18.2007 C   0  0  0  0  0  0
  -27.4479  -23.4738   18.6399 C   0  0  0  0  0  0
  -29.6379  -22.8782   19.8065 C   0  0  0  0  0  0
  -30.6475  -20.8715   24.0791 C   0  0  0  0  0  0
  -28.3083  -25.1506   20.4185 C   0  0  0  0  0  0
  -29.4813  -19.9135   23.7908 C   0  0  1  0  0  0
  -28.7014  -24.0750   19.3136 C   0  0  0  0  0  0
  -29.9235  -18.0197   20.4971 N   0  0  0  0  0  0
  -29.8507  -20.5168   20.5683 N   0  0  0  0  0  0
  -29.7527  -15.5743   20.8134 N   0  0  0  0  0  0
  -28.1616  -21.8101   21.4122 O   0  0  0  0  0  0
  -28.2377  -20.5833   23.7841 O   0  0  0  0  0  0
  -29.8485  -17.3000   22.9775 S   0  0  0  0  0  0
  -31.4807  -12.4890   19.1311 H   0  0  0  0  0  0
  -30.3707  -11.3453   19.8465 H   0  0  0  0  0  0
  -29.7502  -11.7655   17.4498 H   0  0  0  0  0  0
  -29.6574  -13.4800   17.7457 H   0  0  0  0  0  0
  -27.8360  -11.3057   18.8291 H   0  0  0  0  0  0
  -27.3705  -12.6139   17.7831 H   0  0  0  0  0  0
  -27.6796  -14.2487   19.5444 H   0  0  0  0  0  0
  -28.6892  -11.9673   21.3160 H   0  0  0  0  0  0
  -28.4503  -13.5975   21.8693 H   0  0  0  0  0  0
  -25.2768   -9.5614   22.4796 H   0  0  0  0  0  0
  -23.9981   -7.4577   22.7464 H   0  0  0  0  0  0
  -21.0845   -8.8809   19.8964 H   0  0  0  0  0  0
  -22.3759  -10.9672   19.6171 H   0  0  0  0  0  0
  -21.2029   -7.6159   23.9753 H   0  0  0  0  0  0
  -21.1458   -6.0517   25.9105 H   0  0  0  0  0  0
  -22.0605   -2.7608   23.2865 H   0  0  0  0  0  0
  -22.4032  -11.9887   22.4874 H   0  0  0  0  0  0
  -21.1063  -13.1267   22.2627 H   0  0  0  0  0  0
  -24.6513  -15.8370   20.5317 H   0  0  0  0  0  0
  -26.2550  -15.6353   20.0431 H   0  0  0  0  0  0
  -26.7163  -32.5453   23.1162 H   0  0  0  0  0  0
  -25.0050  -33.9735   25.0439 H   0  0  0  0  0  0
  -22.7086  -31.3027   21.4055 H   0  0  0  0  0  0
  -23.3728  -35.9629   23.3313 H   0  0  0  0  0  0
  -24.3555  -36.8882   22.2054 H   0  0  0  0  0  0
  -23.7248  -37.6489   23.6644 H   0  0  0  0  0  0
  -26.0882  -31.5823   20.6120 H   0  0  0  0  0  0
  -26.8301  -30.8466   22.0035 H   0  0  0  0  0  0
  -28.1333  -29.0541   21.1075 H   0  0  0  0  0  0
  -25.9928  -25.9117   19.0720 H   0  0  0  0  0  0
  -23.9533  -27.2722   19.0840 H   0  0  0  0  0  0
  -23.7511  -30.5916   19.4077 H   0  0  0  0  0  0
  -22.7489  -29.2420   19.8611 H   0  0  0  0  0  0
  -25.1263  -36.1914   25.0826 H   0  0  0  0  0  0
  -20.9966  -28.3196   24.1413 H   0  0  0  0  0  0
  -20.5596  -26.2252   23.3586 H   0  0  0  0  0  0
  -21.6610  -26.7365   22.1242 H   0  0  0  0  0  0
  -19.6889  -25.6300   21.1203 H   0  0  0  0  0  0
  -19.6694  -27.3197   20.6734 H   0  0  0  0  0  0
  -17.4174  -26.6667   21.4018 H   0  0  0  0  0  0
  -18.0333  -26.0048   22.9005 H   0  0  0  0  0  0
  -19.7945  -30.7238   24.2282 H   0  0  0  0  0  0
  -17.5031  -31.6283   24.5136 H   0  0  0  0  0  0
  -15.5353  -30.2988   23.7675 H   0  0  0  0  0  0
  -15.8643  -28.0793   22.7125 H   0  0  0  0  0  0
  -24.5931  -30.7067   25.7921 H   0  0  0  0  0  0
  -24.8961  -32.2898   26.4979 H   0  0  0  0  0  0
  -25.8133  -30.8946   27.0306 H   0  0  0  0  0  0
  -26.2907  -29.6809   24.1173 H   0  0  0  0  0  0
  -27.3948  -29.7241   25.4734 H   0  0  0  0  0  0
  -27.8811  -30.4305   23.9492 H   0  0  0  0  0  0
  -27.2647  -33.3570   26.2210 H   0  0  0  0  0  0
  -28.3849  -32.6933   25.0400 H   0  0  0  0  0  0
  -28.0744  -31.8402   26.5434 H   0  0  0  0  0  0
  -28.2561  -38.0101   24.7522 H   0  0  0  0  0  0
  -28.1074  -36.2618   24.6242 H   0  0  0  0  0  0
  -27.2294  -37.1390   25.8874 H   0  0  0  0  0  0
  -20.9345  -29.8750   21.6942 H   0  0  0  0  0  0
  -26.0124  -38.2837   24.1495 H   0  0  0  0  0  0
  -32.7261  -20.8348   24.7528 H   0  0  0  0  0  0
  -32.2114  -19.3456   23.9717 H   0  0  0  0  0  0
  -31.6844  -19.7207   25.6133 H   0  0  0  0  0  0
  -29.7513  -24.1276   17.3864 H   0  0  0  0  0  0
  -30.4235  -25.2308   18.5764 H   0  0  0  0  0  0
  -28.9161  -25.6164   17.7544 H   0  0  0  0  0  0
  -27.7197  -22.6919   17.9299 H   0  0  0  0  0  0
  -26.8918  -24.2205   18.0764 H   0  0  0  0  0  0
  -26.7646  -23.0262   19.3621 H   0  0  0  0  0  0
  -30.0299  -22.4010   18.9073 H   0  0  0  0  0  0
  -30.5108  -23.2944   20.3084 H   0  0  0  0  0  0
  -30.9016  -21.4505   23.1914 H   0  0  0  0  0  0
  -30.3441  -21.5965   24.8341 H   0  0  0  0  0  0
  -27.3445  -24.9048   20.8686 H   0  0  0  0  0  0
  -29.0152  -25.0458   21.2406 H   0  0  0  0  0  0
  -29.4068  -19.2745   24.6721 H   0  0  0  0  0  0
  -30.5444  -20.5534   19.8348 H   0  0  0  0  0  0
  -28.8369  -15.2117   21.0264 H   0  0  0  0  0  0
  -28.1684  -21.0813   22.9641 H   0  0  0  0  0  0
  1 25  1  0  0  0
  1 30  2  0  0  0
  1 85  1  0  0  0
  2  3  1  0  0  0
  2 25  1  0  0  0
  2 89  1  0  0  0
  2 90  1  0  0  0
  3  4  1  0  0  0
  3 91  1  0  0  0
  3 92  1  0  0  0
  4  5  1  0  0  0
  4 93  1  0  0  0
  4 94  1  0  0  0
  5  6  1  0  0  0
  5 26  1  0  0  0
  5 95  1  0  0  0
  6 25  1  0  0  0
  6 96  1  0  0  0
  6 97  1  0  0  0
  7  8  2  0  0  0
  7 26  1  0  0  0
  7 29  1  0  0  0
  8  9  1  0  0  0
  8 22  1  0  0  0
  9 10  1  0  0  0
  9 27  2  0  0  0
 10 11  2  0  0  0
 10 15  1  0  0  0
 11 12  1  0  0  0
 11 98  1  0  0  0
 12 13  2  0  0  0
 12 99  1  0  0  0
 13 14  1  0  0  0
 13 31  1  0  0  0
 14 15  2  0  0  0
 14100  1  0  0  0
 15101  1  0  0  0
 16 17  2  0  0  0
 16 21  1  0  0  0
 16 31  1  0  0  0
 17 18  1  0  0  0
 17102  1  0  0  0
 18 19  2  0  0  0
 18103  1  0  0  0
 19 20  1  0  0  0
 19 24  1  0  0  0
 20 21  2  0  0  0
 20104  1  0  0  0
 21 23  1  0  0  0
 22 28  1  0  0  0
 22 32  2  0  0  0
 26 27  1  0  0  0
 28105  1  0  0  0
 28106  1  0  0  0
 29107  1  0  0  0
 29108  1  0  0  0
 33 34  1  0  0  0
 33 66  1  0  0  0
 33 70  2  0  0  0
 34 36  1  0  0  0
 34 59  1  0  0  0
 34109  1  0  0  0
 35 44  2  0  0  0
 35 45  1  0  0  0
 35 68  1  0  0  0
 36 56  1  0  0  0
 36110  1  0  0  0
 37 39  1  0  0  0
 37 47  1  0  0  0
 37 66  1  0  0  0
 37111  1  0  0  0
 38 43  2  0  0  0
 38 46  1  0  0  0
 38 47  1  0  0  0
 39 64  1  0  0  0
 39 67  2  0  0  0
 40 52  1  0  0  0
 40 53  2  0  0  0
 40 58  1  0  0  0
 41112  1  0  0  0
 41113  1  0  0  0
 41114  1  0  0  0
 41 48  1  0  0  0
 42 43  1  0  0  0
 42 66  1  0  0  0
 42115  1  0  0  0
 42116  1  0  0  0
 43 44  1  0  0  0
 44117  1  0  0  0
 45 46  2  0  0  0
 45118  1  0  0  0
 46119  1  0  0  0
 47120  1  0  0  0
 47121  1  0  0  0
 48 56  1  0  0  0
 48 65  1  0  0  0
 48122  1  0  0  0
 49 50  1  0  0  0
 49 53  1  0  0  0
 49 64  1  0  0  0
 49123  1  0  0  0
 50 51  1  0  0  0
 50124  1  0  0  0
 50125  1  0  0  0
 51 52  1  0  0  0
 51126  1  0  0  0
 51127  1  0  0  0
 52128  1  0  0  0
 52129  1  0  0  0
 53 54  1  0  0  0
 54 55  2  0  0  0
 54130  1  0  0  0
 55 57  1  0  0  0
 55131  1  0  0  0
 56 69  2  0  0  0
 57 58  2  0  0  0
 57132  1  0  0  0
 58133  1  0  0  0
 59 60  1  0  0  0
 59 61  1  0  0  0
 59 62  1  0  0  0
 60134  1  0  0  0
 60135  1  0  0  0
 60136  1  0  0  0
 61137  1  0  0  0
 61138  1  0  0  0
 61139  1  0  0  0
 62140  1  0  0  0
 62141  1  0  0  0
 62142  1  0  0  0
 63 65  1  0  0  0
 63143  1  0  0  0
 63144  1  0  0  0
 63145  1  0  0  0
 64146  1  0  0  0
 65147  1  0  0  0
 68 80  1  0  0  0
 71 72  2  0  0  0
 71 81  1  0  0  0
 71 88  1  0  0  0
 72 83  1  0  0  0
 72 84  1  0  0  0
 73 83  2  0  0  0
 73 85  1  0  0  0
 73 88  1  0  0  0
 74 78  1  0  0  0
 74 84  1  0  0  0
 74 86  2  0  0  0
 75 79  1  0  0  0
 75148  1  0  0  0
 75149  1  0  0  0
 75150  1  0  0  0
 76151  1  0  0  0
 76152  1  0  0  0
 76153  1  0  0  0
 76 82  1  0  0  0
 77 82  1  0  0  0
 77154  1  0  0  0
 77155  1  0  0  0
 77156  1  0  0  0
 78 82  1  0  0  0
 78157  1  0  0  0
 78158  1  0  0  0
 79 81  1  0  0  0
 79159  1  0  0  0
 79160  1  0  0  0
 80 82  1  0  0  0
 80161  1  0  0  0
 80162  1  0  0  0
 81 87  1  0  0  0
 81163  1  0  0  0
 84164  1  0  0  0
 85165  1  0  0  0
 87166  1  0  0  0
M  ISO  4   1 100  68 101  80 101  85 100
M  END
> <chiral flag>
0

> <version>
0

> <s_m_source_file>
/data/baiqing/PycharmProjects/Reinvent-master-3.2/result/LINK_invent/BTK/process_docking_weight1_custom_product_contain_oxygen_bond_distance_aromatic_linkinvent_7_9_3/rearranged_h_0186.sdf

> <i_m_source_file_index>
25

> <r_mmod_Potential_Energy-OPLS-2005>
-39.1229286193848

> <r_mmod_Stretch_Energy-OPLS-2005>
64.167610168457

> <r_mmod_Bend_Energy-OPLS-2005>
167.876022338867

> <r_mmod_Torsional_Energy-OPLS-2005>
268.26953125

> <r_mmod_Improper_Torsional_Energy-OPLS-2005>
10.8751192092896

> <r_mmod_Van_der_Waal_Energy-OPLS-2005>
118.649459838867

> <r_mmod_Electrostatic_Energy-OPLS-2005>
-464.599578857422

> <r_mmod_Solvation_Energy-OPLS-2005>
-234.14453125

> <b_mmod_Minimization_Converged-OPLS-2005>
0

> <r_mmod_RMS_Derivative-OPLS-2005>
4.08339595794678

$$$$
26
                    3D
 Structure written by MMmdl.
165173  0  0  1  0            999 V2000
  -30.6959  -14.4986   20.5246 C   0  0  0  0  0  0
  -30.4240  -12.3067   19.4405 C   0  0  0  0  0  0
  -29.5007  -12.4932   18.2175 C   0  0  0  0  0  0
  -28.0244  -12.3485   18.6349 C   0  0  0  0  0  0
  -27.6615  -13.2080   19.8770 C   0  0  2  0  0  0
  -28.7063  -13.0220   21.0049 C   0  0  0  0  0  0
  -25.2588  -13.8150   20.5718 C   0  0  0  0  0  0
  -24.1824  -13.0443   20.9201 C   0  0  0  0  0  0
  -24.6370  -11.6902   20.8778 C   0  0  0  0  0  0
  -23.9032  -10.4291   21.0446 C   0  0  0  0  0  0
  -24.3584   -9.4199   21.9205 C   0  0  0  0  0  0
  -23.6264   -8.2235   22.0773 C   0  0  0  0  0  0
  -22.4245   -8.0277   21.3557 C   0  0  0  0  0  0
  -21.9875   -9.0255   20.4667 C   0  0  0  0  0  0
  -22.7210  -10.2137   20.3085 C   0  0  0  0  0  0
  -21.6834   -6.0729   22.5284 C   0  0  0  0  0  0
  -21.4009   -6.5633   23.8222 C   0  0  0  0  0  0
  -21.3662   -5.6786   24.9183 C   0  0  0  0  0  0
  -21.6046   -4.3053   24.7228 C   0  0  0  0  0  0
  -21.8810   -3.8138   23.4353 C   0  0  0  0  0  0
  -21.9183   -4.6956   22.3408 C   0  0  0  0  0  0
  -22.7853  -13.5282   21.1844 C   0  0  0  0  0  0
  -22.1648   -4.2144   21.0989 F   0  0  0  0  0  0
  -21.5636   -3.4539   25.7742 F   0  0  0  0  0  0
  -30.0351  -13.3112   20.4433 N   0  0  0  0  0  0
  -26.3017  -12.9319   20.3394 N   0  0  0  0  0  0
  -25.9306  -11.6480   20.5796 N   0  0  0  0  0  0
  -22.0440  -12.8329   22.0397 N   0  0  0  0  0  0
  -25.4317  -15.1865   20.4121 N   0  0  0  0  0  0
  -31.8540  -14.6280   20.1196 O   0  0  0  0  0  0
  -21.6619   -6.8869   21.4244 O   0  0  0  0  0  0
  -22.3581  -14.5600   20.6684 O   0  0  0  0  0  0
  -24.6159  -31.8690   23.2101 C   0  0  0  0  0  0
  -25.9055  -32.4827   23.8385 C   0  0  1  0  0  0
  -27.2180  -27.3994   20.1086 C   0  0  0  0  0  0
  -25.5902  -33.8625   24.2319 N   0  0  0  0  0  0
  -23.4017  -30.4944   21.5540 C   0  0  2  0  0  0
  -24.8473  -28.9666   20.1077 C   0  0  0  0  0  0
  -22.7405  -29.4664   22.5012 C   0  0  0  0  0  0
  -18.0270  -28.1389   22.8502 C   0  0  0  0  0  0
  -24.1477  -36.7334   23.2637 C   0  0  0  0  0  0
  -25.9344  -30.8242   21.3683 C   0  0  0  0  0  0
  -26.0079  -29.4577   20.7164 C   0  0  0  0  0  0
  -27.1936  -28.6795   20.7188 C   0  0  0  0  0  0
  -26.0451  -26.9620   19.4458 C   0  0  0  0  0  0
  -24.8636  -27.7193   19.4655 C   0  0  0  0  0  0
  -23.6073  -29.8308   20.1664 C   0  0  0  0  0  0
  -25.4109  -36.3120   24.0308 C   0  0  1  0  0  0
  -20.5860  -28.3672   23.1331 C   0  0  2  0  0  0
  -20.6763  -26.9412   22.5436 C   0  0  0  0  0  0
  -19.5743  -26.6393   21.5228 C   0  0  0  0  0  0
  -18.1911  -26.7947   22.1625 C   0  0  0  0  0  0
  -19.1518  -28.8851   23.2908 C   0  0  0  0  0  0
  -18.9451  -30.1455   23.8921 C   0  0  0  0  0  0
  -17.6454  -30.6602   24.0584 C   0  0  0  0  0  0
  -25.9036  -34.9477   23.5109 C   0  0  0  0  0  0
  -16.5340  -29.9105   23.6348 C   0  0  0  0  0  0
  -16.7259  -28.6522   23.0363 C   0  0  0  0  0  0
  -26.4486  -31.6602   25.0723 C   0  0  0  0  0  0
  -25.3747  -31.3723   26.1476 C   0  0  0  0  0  0
  -27.0306  -30.3026   24.6123 C   0  0  0  0  0  0
  -27.6089  -32.4309   25.7451 C   0  0  0  0  0  0
  -27.5580  -37.1802   24.8459 C   0  0  0  0  0  0
  -21.4138  -29.3032   22.3737 N   0  0  0  0  0  0
  -26.4306  -37.3813   23.9400 N   0  0  0  0  0  0
  -24.6691  -31.0765   22.1028 N   0  0  0  0  0  0
  -23.4171  -28.8208   23.3065 O   0  0  0  0  0  0
  -28.3631  -26.6162   20.1845 O   0  0  0  0  0  0
  -26.5614  -34.8925   22.4688 O   0  0  0  0  0  0
  -23.5341  -32.1456   23.7489 O   0  0  0  0  0  0
  -30.6002  -19.1096   19.4863 C   0  0  0  0  0  0
  -29.5534  -19.1470   20.3916 C   0  0  0  0  0  0
  -30.1247  -16.9167   20.5281 C   0  0  0  0  0  0
  -31.1447  -20.1029   18.5525 C   0  0  0  0  0  0
  -32.6256  -20.0465   18.1880 C   0  0  0  0  0  0
  -30.6703  -21.4567   21.8229 C   0  0  0  0  0  0
  -30.5462  -24.6575   20.8115 C   0  0  0  0  0  0
  -28.5400  -24.4375   22.3349 C   0  0  0  0  0  0
  -28.8444  -22.7527   20.4241 C   0  0  0  0  0  0
  -28.2491  -25.1860   19.9425 C   0  0  0  0  0  0
  -29.2106  -21.5315   21.3423 C   0  0  1  0  0  0
  -29.0612  -24.2466   20.8954 C   0  0  0  0  0  0
  -29.2837  -17.8771   20.9459 N   0  0  0  0  0  0
  -28.7376  -20.2407   20.7945 N   0  0  0  0  0  0
  -29.9564  -15.5545   20.9279 N   0  0  0  0  0  0
  -30.4502  -20.9777   18.0319 O   0  0  0  0  0  0
  -31.3321  -17.5230   19.4020 S   0  0  0  0  0  0
  -31.4728  -12.3895   19.1446 H   0  0  0  0  0  0
  -30.3160  -11.3046   19.8571 H   0  0  0  0  0  0
  -29.7440  -11.7612   17.4456 H   0  0  0  0  0  0
  -29.6672  -13.4734   17.7682 H   0  0  0  0  0  0
  -27.8540  -11.2947   18.8616 H   0  0  0  0  0  0
  -27.3652  -12.5876   17.7996 H   0  0  0  0  0  0
  -27.6965  -14.2493   19.5550 H   0  0  0  0  0  0
  -28.6870  -12.0011   21.3886 H   0  0  0  0  0  0
  -28.4770  -13.6580   21.8614 H   0  0  0  0  0  0
  -25.2725   -9.5678   22.4792 H   0  0  0  0  0  0
  -23.9966   -7.4634   22.7498 H   0  0  0  0  0  0
  -21.0806   -8.8782   19.8988 H   0  0  0  0  0  0
  -22.3659  -10.9686   19.6208 H   0  0  0  0  0  0
  -21.1995   -7.6137   23.9723 H   0  0  0  0  0  0
  -21.1499   -6.0519   25.9091 H   0  0  0  0  0  0
  -22.0582   -2.7599   23.2851 H   0  0  0  0  0  0
  -22.3974  -11.9987   22.4842 H   0  0  0  0  0  0
  -21.1089  -13.1462   22.2585 H   0  0  0  0  0  0
  -24.6650  -15.8410   20.5195 H   0  0  0  0  0  0
  -26.2834  -15.6267   20.0871 H   0  0  0  0  0  0
  -26.7132  -32.5543   23.1138 H   0  0  0  0  0  0
  -25.0035  -33.9791   25.0441 H   0  0  0  0  0  0
  -22.6899  -31.3122   21.4189 H   0  0  0  0  0  0
  -23.3722  -35.9693   23.3341 H   0  0  0  0  0  0
  -24.3566  -36.8936   22.2052 H   0  0  0  0  0  0
  -23.7237  -37.6539   23.6659 H   0  0  0  0  0  0
  -26.0394  -31.5884   20.5965 H   0  0  0  0  0  0
  -26.8249  -30.8835   21.9824 H   0  0  0  0  0  0
  -28.0824  -29.0476   21.2112 H   0  0  0  0  0  0
  -26.0111  -26.0351   18.8934 H   0  0  0  0  0  0
  -23.9777  -27.3465   18.9711 H   0  0  0  0  0  0
  -23.7047  -30.6070   19.4073 H   0  0  0  0  0  0
  -22.7308  -29.2477   19.8766 H   0  0  0  0  0  0
  -25.1278  -36.2000   25.0799 H   0  0  0  0  0  0
  -20.9933  -28.3251   24.1457 H   0  0  0  0  0  0
  -20.5679  -26.2278   23.3615 H   0  0  0  0  0  0
  -21.6633  -26.7479   22.1216 H   0  0  0  0  0  0
  -19.6907  -25.6301   21.1250 H   0  0  0  0  0  0
  -19.6687  -27.3218   20.6763 H   0  0  0  0  0  0
  -17.4185  -26.6714   21.4014 H   0  0  0  0  0  0
  -18.0300  -26.0070   22.8997 H   0  0  0  0  0  0
  -19.7922  -30.7274   24.2278 H   0  0  0  0  0  0
  -17.5012  -31.6282   24.5184 H   0  0  0  0  0  0
  -15.5340  -30.3016   23.7665 H   0  0  0  0  0  0
  -15.8653  -28.0853   22.7062 H   0  0  0  0  0  0
  -24.5881  -30.7124   25.7805 H   0  0  0  0  0  0
  -24.8973  -32.2884   26.4961 H   0  0  0  0  0  0
  -25.8076  -30.8844   27.0214 H   0  0  0  0  0  0
  -26.2827  -29.6756   24.1254 H   0  0  0  0  0  0
  -27.4110  -29.7322   25.4607 H   0  0  0  0  0  0
  -27.8663  -30.4316   23.9239 H   0  0  0  0  0  0
  -27.2737  -33.3587   26.2096 H   0  0  0  0  0  0
  -28.3846  -32.6896   25.0231 H   0  0  0  0  0  0
  -28.0833  -31.8405   26.5296 H   0  0  0  0  0  0
  -28.2615  -38.0084   24.7505 H   0  0  0  0  0  0
  -28.1037  -36.2605   24.6278 H   0  0  0  0  0  0
  -27.2299  -37.1474   25.8865 H   0  0  0  0  0  0
  -20.9293  -29.8748   21.6954 H   0  0  0  0  0  0
  -26.0181  -38.2885   24.1433 H   0  0  0  0  0  0
  -33.2286  -20.1592   19.0876 H   0  0  0  0  0  0
  -32.8828  -20.8529   17.5015 H   0  0  0  0  0  0
  -32.8842  -19.1030   17.7102 H   0  0  0  0  0  0
  -30.9095  -22.2618   22.5138 H   0  0  0  0  0  0
  -31.3775  -21.5057   20.9971 H   0  0  0  0  0  0
  -30.8511  -20.5319   22.3741 H   0  0  0  0  0  0
  -31.1633  -24.1763   21.5666 H   0  0  0  0  0  0
  -30.6643  -25.7317   20.9598 H   0  0  0  0  0  0
  -30.9706  -24.4144   19.8374 H   0  0  0  0  0  0
  -29.0994  -23.8367   23.0526 H   0  0  0  0  0  0
  -27.4900  -24.1519   22.4154 H   0  0  0  0  0  0
  -28.6239  -25.4775   22.6547 H   0  0  0  0  0  0
  -27.7807  -22.6398   20.2060 H   0  0  0  0  0  0
  -29.3294  -22.6360   19.4588 H   0  0  0  0  0  0
  -27.2224  -24.8371   20.0319 H   0  0  0  0  0  0
  -28.5469  -25.0074   18.9084 H   0  0  0  0  0  0
  -28.6153  -21.6497   22.2498 H   0  0  0  0  0  0
  -27.9272  -19.9062   21.3081 H   0  0  0  0  0  0
  -29.0743  -15.3350   21.3608 H   0  0  0  0  0  0
  1 25  1  0  0  0
  1 30  2  0  0  0
  1 85  1  0  0  0
  2  3  1  0  0  0
  2 25  1  0  0  0
  2 88  1  0  0  0
  2 89  1  0  0  0
  3  4  1  0  0  0
  3 90  1  0  0  0
  3 91  1  0  0  0
  4  5  1  0  0  0
  4 92  1  0  0  0
  4 93  1  0  0  0
  5  6  1  0  0  0
  5 26  1  0  0  0
  5 94  1  0  0  0
  6 25  1  0  0  0
  6 95  1  0  0  0
  6 96  1  0  0  0
  7  8  2  0  0  0
  7 26  1  0  0  0
  7 29  1  0  0  0
  8  9  1  0  0  0
  8 22  1  0  0  0
  9 10  1  0  0  0
  9 27  2  0  0  0
 10 11  2  0  0  0
 10 15  1  0  0  0
 11 12  1  0  0  0
 11 97  1  0  0  0
 12 13  2  0  0  0
 12 98  1  0  0  0
 13 14  1  0  0  0
 13 31  1  0  0  0
 14 15  2  0  0  0
 14 99  1  0  0  0
 15100  1  0  0  0
 16 17  2  0  0  0
 16 21  1  0  0  0
 16 31  1  0  0  0
 17 18  1  0  0  0
 17101  1  0  0  0
 18 19  2  0  0  0
 18102  1  0  0  0
 19 20  1  0  0  0
 19 24  1  0  0  0
 20 21  2  0  0  0
 20103  1  0  0  0
 21 23  1  0  0  0
 22 28  1  0  0  0
 22 32  2  0  0  0
 26 27  1  0  0  0
 28104  1  0  0  0
 28105  1  0  0  0
 29106  1  0  0  0
 29107  1  0  0  0
 33 34  1  0  0  0
 33 66  1  0  0  0
 33 70  2  0  0  0
 34 36  1  0  0  0
 34 59  1  0  0  0
 34108  1  0  0  0
 35 44  2  0  0  0
 35 45  1  0  0  0
 35 68  1  0  0  0
 36 56  1  0  0  0
 36109  1  0  0  0
 37 39  1  0  0  0
 37 47  1  0  0  0
 37 66  1  0  0  0
 37110  1  0  0  0
 38 43  2  0  0  0
 38 46  1  0  0  0
 38 47  1  0  0  0
 39 64  1  0  0  0
 39 67  2  0  0  0
 40 52  1  0  0  0
 40 53  2  0  0  0
 40 58  1  0  0  0
 41111  1  0  0  0
 41112  1  0  0  0
 41113  1  0  0  0
 41 48  1  0  0  0
 42 43  1  0  0  0
 42 66  1  0  0  0
 42114  1  0  0  0
 42115  1  0  0  0
 43 44  1  0  0  0
 44116  1  0  0  0
 45 46  2  0  0  0
 45117  1  0  0  0
 46118  1  0  0  0
 47119  1  0  0  0
 47120  1  0  0  0
 48 56  1  0  0  0
 48 65  1  0  0  0
 48121  1  0  0  0
 49 50  1  0  0  0
 49 53  1  0  0  0
 49 64  1  0  0  0
 49122  1  0  0  0
 50 51  1  0  0  0
 50123  1  0  0  0
 50124  1  0  0  0
 51 52  1  0  0  0
 51125  1  0  0  0
 51126  1  0  0  0
 52127  1  0  0  0
 52128  1  0  0  0
 53 54  1  0  0  0
 54 55  2  0  0  0
 54129  1  0  0  0
 55 57  1  0  0  0
 55130  1  0  0  0
 56 69  2  0  0  0
 57 58  2  0  0  0
 57131  1  0  0  0
 58132  1  0  0  0
 59 60  1  0  0  0
 59 61  1  0  0  0
 59 62  1  0  0  0
 60133  1  0  0  0
 60134  1  0  0  0
 60135  1  0  0  0
 61136  1  0  0  0
 61137  1  0  0  0
 61138  1  0  0  0
 62139  1  0  0  0
 62140  1  0  0  0
 62141  1  0  0  0
 63 65  1  0  0  0
 63142  1  0  0  0
 63143  1  0  0  0
 63144  1  0  0  0
 64145  1  0  0  0
 65146  1  0  0  0
 68 80  1  0  0  0
 71 72  2  0  0  0
 71 74  1  0  0  0
 71 87  1  0  0  0
 72 83  1  0  0  0
 72 84  1  0  0  0
 73 83  2  0  0  0
 73 85  1  0  0  0
 73 87  1  0  0  0
 74 75  1  0  0  0
 74 86  2  0  0  0
 75147  1  0  0  0
 75148  1  0  0  0
 75149  1  0  0  0
 76150  1  0  0  0
 76151  1  0  0  0
 76152  1  0  0  0
 76 81  1  0  0  0
 77153  1  0  0  0
 77154  1  0  0  0
 77155  1  0  0  0
 77 82  1  0  0  0
 78 82  1  0  0  0
 78156  1  0  0  0
 78157  1  0  0  0
 78158  1  0  0  0
 79 81  1  0  0  0
 79 82  1  0  0  0
 79159  1  0  0  0
 79160  1  0  0  0
 80 82  1  0  0  0
 80161  1  0  0  0
 80162  1  0  0  0
 81 84  1  0  0  0
 81163  1  0  0  0
 84164  1  0  0  0
 85165  1  0  0  0
M  ISO  4   1 100  68 101  80 101  85 100
M  END
> <chiral flag>
0

> <version>
0

> <s_m_source_file>
/data/baiqing/PycharmProjects/Reinvent-master-3.2/result/LINK_invent/BTK/process_docking_weight1_custom_product_contain_oxygen_bond_distance_aromatic_linkinvent_7_9_3/rearranged_h_0186.sdf

> <i_m_source_file_index>
26

> <r_mmod_Potential_Energy-OPLS-2005>
-77.1072616577148

> <r_mmod_Stretch_Energy-OPLS-2005>
47.1889114379883

> <r_mmod_Bend_Energy-OPLS-2005>
130.040725708008

> <r_mmod_Torsional_Energy-OPLS-2005>
244.756393432617

> <r_mmod_Improper_Torsional_Energy-OPLS-2005>
8.22149848937988

> <r_mmod_Van_der_Waal_Energy-OPLS-2005>
138.138473510742

> <r_mmod_Electrostatic_Energy-OPLS-2005>
-450.807189941406

> <r_mmod_Solvation_Energy-OPLS-2005>
-216.690856933594

> <b_mmod_Minimization_Converged-OPLS-2005>
0

> <r_mmod_RMS_Derivative-OPLS-2005>
3.46668529510498

$$$$
27
                    3D
 Structure written by MMmdl.
164172  0  0  1  0            999 V2000
  -30.6648  -14.5537   20.5258 C   0  0  0  0  0  0
  -30.4276  -12.3397   19.4478 C   0  0  0  0  0  0
  -29.5036  -12.4938   18.2199 C   0  0  0  0  0  0
  -28.0249  -12.3411   18.6291 C   0  0  0  0  0  0
  -27.6540  -13.2112   19.8588 C   0  0  2  0  0  0
  -28.6955  -13.0550   20.9901 C   0  0  0  0  0  0
  -25.2585  -13.8181   20.5681 C   0  0  0  0  0  0
  -24.1843  -13.0445   20.9179 C   0  0  0  0  0  0
  -24.6395  -11.6908   20.8728 C   0  0  0  0  0  0
  -23.9062  -10.4298   21.0403 C   0  0  0  0  0  0
  -24.3619   -9.4217   21.9179 C   0  0  0  0  0  0
  -23.6298   -8.2251   22.0750 C   0  0  0  0  0  0
  -22.4277   -8.0284   21.3544 C   0  0  0  0  0  0
  -21.9912   -9.0257   20.4643 C   0  0  0  0  0  0
  -22.7235  -10.2139   20.3051 C   0  0  0  0  0  0
  -21.6858   -6.0743   22.5283 C   0  0  0  0  0  0
  -21.4013   -6.5647   23.8216 C   0  0  0  0  0  0
  -21.3656   -5.6797   24.9175 C   0  0  0  0  0  0
  -21.6045   -4.3061   24.7223 C   0  0  0  0  0  0
  -21.8818   -3.8155   23.4343 C   0  0  0  0  0  0
  -21.9194   -4.6972   22.3401 C   0  0  0  0  0  0
  -22.7866  -13.5242   21.1853 C   0  0  0  0  0  0
  -22.1666   -4.2159   21.0982 F   0  0  0  0  0  0
  -21.5626   -3.4538   25.7736 F   0  0  0  0  0  0
  -30.0214  -13.3541   20.4360 N   0  0  0  0  0  0
  -26.2999  -12.9345   20.3290 N   0  0  0  0  0  0
  -25.9316  -11.6505   20.5734 N   0  0  0  0  0  0
  -22.0511  -12.8227   22.0409 N   0  0  0  0  0  0
  -25.4288  -15.1908   20.4139 N   0  0  0  0  0  0
  -31.8309  -14.6758   20.1424 O   0  0  0  0  0  0
  -21.6642   -6.8879   21.4244 O   0  0  0  0  0  0
  -22.3552  -14.5554   20.6714 O   0  0  0  0  0  0
  -24.6177  -31.8660   23.2069 C   0  0  0  0  0  0
  -25.9054  -32.4820   23.8375 C   0  0  1  0  0  0
  -27.2335  -27.3953   20.1185 C   0  0  0  0  0  0
  -25.5880  -33.8612   24.2305 N   0  0  0  0  0  0
  -23.4089  -30.4871   21.5478 C   0  0  2  0  0  0
  -24.8582  -28.9411   20.1247 C   0  0  0  0  0  0
  -22.7437  -29.4660   22.4987 C   0  0  0  0  0  0
  -18.0278  -28.1389   22.8495 C   0  0  0  0  0  0
  -24.1483  -36.7305   23.2643 C   0  0  0  0  0  0
  -25.9398  -30.8181   21.3681 C   0  0  0  0  0  0
  -26.0183  -29.4429   20.7294 C   0  0  0  0  0  0
  -27.2117  -28.6755   20.7301 C   0  0  0  0  0  0
  -26.0604  -26.9172   19.5044 C   0  0  0  0  0  0
  -24.8739  -27.6758   19.5118 C   0  0  0  0  0  0
  -23.6220  -29.8141   20.1652 C   0  0  0  0  0  0
  -25.4102  -36.3105   24.0341 C   0  0  1  0  0  0
  -20.5872  -28.3671   23.1326 C   0  0  2  0  0  0
  -20.6767  -26.9408   22.5427 C   0  0  0  0  0  0
  -19.5739  -26.6394   21.5227 C   0  0  0  0  0  0
  -18.1919  -26.7935   22.1633 C   0  0  0  0  0  0
  -19.1535  -28.8842   23.2903 C   0  0  0  0  0  0
  -18.9463  -30.1449   23.8905 C   0  0  0  0  0  0
  -17.6467  -30.6590   24.0572 C   0  0  0  0  0  0
  -25.9025  -34.9478   23.5118 C   0  0  0  0  0  0
  -16.5353  -29.9095   23.6336 C   0  0  0  0  0  0
  -16.7269  -28.6515   23.0350 C   0  0  0  0  0  0
  -26.4445  -31.6607   25.0722 C   0  0  0  0  0  0
  -25.3687  -31.3741   26.1455 C   0  0  0  0  0  0
  -27.0268  -30.3041   24.6118 C   0  0  0  0  0  0
  -27.6025  -32.4308   25.7486 C   0  0  0  0  0  0
  -27.5573  -37.1806   24.8471 C   0  0  0  0  0  0
  -21.4161  -29.3034   22.3723 N   0  0  0  0  0  0
  -26.4289  -37.3793   23.9411 N   0  0  0  0  0  0
  -24.6738  -31.0722   22.0990 N   0  0  0  0  0  0
  -23.4191  -28.8215   23.3050 O   0  0  0  0  0  0
  -28.3772  -26.6297   19.9987 O   0  0  0  0  0  0
  -26.5610  -34.8935   22.4702 O   0  0  0  0  0  0
  -23.5361  -32.1441   23.7432 O   0  0  0  0  0  0
  -27.8747  -20.0408   20.4529 C   0  0  0  0  0  0
  -28.9078  -20.7794   20.9036 C   0  0  0  0  0  0
  -28.2273  -18.6366   20.2048 C   0  0  0  0  0  0
  -28.4690  -23.2254   20.6476 C   0  0  0  0  0  0
  -26.4487  -20.5190   20.2359 C   0  0  0  0  0  0
  -28.0613  -24.2548   22.9744 C   0  0  0  0  0  0
  -29.8975  -15.8636   20.9232 C   0  0  0  0  0  0
  -30.3268  -16.9604   18.5861 C   0  0  0  0  0  0
  -28.8054  -25.8447   21.1282 C   0  0  0  0  0  0
  -28.0472  -24.5057   21.4484 C   0  0  1  0  0  0
  -30.3096  -17.1744   20.1336 C   0  0  1  0  0  0
  -29.5296  -18.4070   20.4927 N   0  0  0  0  0  0
  -28.9176  -22.1357   21.3253 N   0  0  0  0  0  0
  -30.6354  -18.1801   17.8139 N   0  3  0  0  0  0
  -27.4790  -17.7746   19.7396 O   0  0  0  0  0  0
  -28.3146  -23.2063   19.4241 O   0  0  0  0  0  0
  -30.3556  -19.8016   21.1193 S   0  0  0  0  0  0
  -31.4725  -12.4388   19.1492 H   0  0  0  0  0  0
  -30.3340  -11.3406   19.8759 H   0  0  0  0  0  0
  -29.7588  -11.7513   17.4625 H   0  0  0  0  0  0
  -29.6608  -13.4693   17.7569 H   0  0  0  0  0  0
  -27.8548  -11.2885   18.8573 H   0  0  0  0  0  0
  -27.3725  -12.5770   17.7874 H   0  0  0  0  0  0
  -27.6738  -14.2446   19.5157 H   0  0  0  0  0  0
  -28.6816  -12.0381   21.3853 H   0  0  0  0  0  0
  -28.4561  -13.7038   21.8338 H   0  0  0  0  0  0
  -25.2764   -9.5699   22.4751 H   0  0  0  0  0  0
  -24.0017   -7.4640   22.7468 H   0  0  0  0  0  0
  -21.0846   -8.8767   19.8949 H   0  0  0  0  0  0
  -22.3690  -10.9674   19.6162 H   0  0  0  0  0  0
  -21.2005   -7.6152   23.9722 H   0  0  0  0  0  0
  -21.1479   -6.0525   25.9080 H   0  0  0  0  0  0
  -22.0599   -2.7614   23.2839 H   0  0  0  0  0  0
  -22.4127  -11.9885   22.4789 H   0  0  0  0  0  0
  -21.1127  -13.1249   22.2608 H   0  0  0  0  0  0
  -24.6589  -15.8388   20.5350 H   0  0  0  0  0  0
  -26.2795  -15.6547   20.1131 H   0  0  0  0  0  0
  -26.7131  -32.5514   23.1143 H   0  0  0  0  0  0
  -25.0003  -33.9761   25.0425 H   0  0  0  0  0  0
  -22.6994  -31.3040   21.4032 H   0  0  0  0  0  0
  -23.3744  -35.9638   23.3320 H   0  0  0  0  0  0
  -24.3587  -36.8905   22.2057 H   0  0  0  0  0  0
  -23.7237  -37.6519   23.6638 H   0  0  0  0  0  0
  -26.0536  -31.5767   20.5914 H   0  0  0  0  0  0
  -26.8272  -30.8803   21.9858 H   0  0  0  0  0  0
  -28.1117  -29.0673   21.1821 H   0  0  0  0  0  0
  -26.0693  -25.9532   19.0143 H   0  0  0  0  0  0
  -23.9834  -27.2846   19.0391 H   0  0  0  0  0  0
  -23.7340  -30.5845   19.4010 H   0  0  0  0  0  0
  -22.7444  -29.2370   19.8702 H   0  0  0  0  0  0
  -25.1285  -36.1967   25.0836 H   0  0  0  0  0  0
  -20.9948  -28.3219   24.1456 H   0  0  0  0  0  0
  -20.5679  -26.2276   23.3611 H   0  0  0  0  0  0
  -21.6634  -26.7452   22.1212 H   0  0  0  0  0  0
  -19.6904  -25.6315   21.1238 H   0  0  0  0  0  0
  -19.6675  -27.3221   20.6769 H   0  0  0  0  0  0
  -17.4195  -26.6689   21.4035 H   0  0  0  0  0  0
  -18.0304  -26.0084   22.9031 H   0  0  0  0  0  0
  -19.7942  -30.7262   24.2275 H   0  0  0  0  0  0
  -17.5029  -31.6279   24.5163 H   0  0  0  0  0  0
  -15.5355  -30.3003   23.7660 H   0  0  0  0  0  0
  -15.8670  -28.0842   22.7053 H   0  0  0  0  0  0
  -24.5871  -30.7070   25.7801 H   0  0  0  0  0  0
  -24.8853  -32.2911   26.4848 H   0  0  0  0  0  0
  -25.8017  -30.8963   27.0253 H   0  0  0  0  0  0
  -26.2831  -29.6827   24.1118 H   0  0  0  0  0  0
  -27.3984  -29.7251   25.4584 H   0  0  0  0  0  0
  -27.8681  -30.4358   23.9309 H   0  0  0  0  0  0
  -27.2668  -33.3639   26.2020 H   0  0  0  0  0  0
  -28.3857  -32.6808   25.0316 H   0  0  0  0  0  0
  -28.0645  -31.8444   26.5439 H   0  0  0  0  0  0
  -28.2602  -38.0092   24.7505 H   0  0  0  0  0  0
  -28.1057  -36.2628   24.6303 H   0  0  0  0  0  0
  -27.2296  -37.1461   25.8877 H   0  0  0  0  0  0
  -20.9331  -29.8738   21.6925 H   0  0  0  0  0  0
  -26.0182  -38.2875   24.1409 H   0  0  0  0  0  0
  -26.2751  -21.5078   20.6563 H   0  0  0  0  0  0
  -25.7446  -19.8344   20.7093 H   0  0  0  0  0  0
  -26.2250  -20.5593   19.1698 H   0  0  0  0  0  0
  -27.4429  -23.4001   23.2522 H   0  0  0  0  0  0
  -27.6646  -25.1156   23.5142 H   0  0  0  0  0  0
  -29.0710  -24.0810   23.3482 H   0  0  0  0  0  0
  -28.8281  -15.7146   20.7985 H   0  0  0  0  0  0
  -30.0521  -16.0241   21.9900 H   0  0  0  0  0  0
  -29.3670  -16.5668   18.2476 H   0  0  0  0  0  0
  -31.0703  -16.2165   18.3011 H   0  0  0  0  0  0
  -29.8611  -25.6176   20.9754 H   0  0  0  0  0  0
  -28.7859  -26.5008   21.9997 H   0  0  0  0  0  0
  -27.0015  -24.6698   21.1898 H   0  0  0  0  0  0
  -31.3412  -17.3830   20.4229 H   0  0  0  0  0  0
  -29.1754  -22.2891   22.2907 H   0  0  0  0  0  0
  -29.9286  -18.8820   17.9344 H   0  0  0  0  0  0
  -30.6793  -17.9545   16.8350 H   0  0  0  0  0  0
  -31.5266  -18.5592   18.0816 H   0  0  0  0  0  0
  1 25  1  0  0  0
  1 30  2  0  0  0
  1 77  1  0  0  0
  2  3  1  0  0  0
  2 25  1  0  0  0
  2 88  1  0  0  0
  2 89  1  0  0  0
  3  4  1  0  0  0
  3 90  1  0  0  0
  3 91  1  0  0  0
  4  5  1  0  0  0
  4 92  1  0  0  0
  4 93  1  0  0  0
  5  6  1  0  0  0
  5 26  1  0  0  0
  5 94  1  0  0  0
  6 25  1  0  0  0
  6 95  1  0  0  0
  6 96  1  0  0  0
  7  8  2  0  0  0
  7 26  1  0  0  0
  7 29  1  0  0  0
  8  9  1  0  0  0
  8 22  1  0  0  0
  9 10  1  0  0  0
  9 27  2  0  0  0
 10 11  2  0  0  0
 10 15  1  0  0  0
 11 12  1  0  0  0
 11 97  1  0  0  0
 12 13  2  0  0  0
 12 98  1  0  0  0
 13 14  1  0  0  0
 13 31  1  0  0  0
 14 15  2  0  0  0
 14 99  1  0  0  0
 15100  1  0  0  0
 16 17  2  0  0  0
 16 21  1  0  0  0
 16 31  1  0  0  0
 17 18  1  0  0  0
 17101  1  0  0  0
 18 19  2  0  0  0
 18102  1  0  0  0
 19 20  1  0  0  0
 19 24  1  0  0  0
 20 21  2  0  0  0
 20103  1  0  0  0
 21 23  1  0  0  0
 22 28  1  0  0  0
 22 32  2  0  0  0
 26 27  1  0  0  0
 28104  1  0  0  0
 28105  1  0  0  0
 29106  1  0  0  0
 29107  1  0  0  0
 33 34  1  0  0  0
 33 66  1  0  0  0
 33 70  2  0  0  0
 34 36  1  0  0  0
 34 59  1  0  0  0
 34108  1  0  0  0
 35 44  2  0  0  0
 35 45  1  0  0  0
 35 68  1  0  0  0
 36 56  1  0  0  0
 36109  1  0  0  0
 37 39  1  0  0  0
 37 47  1  0  0  0
 37 66  1  0  0  0
 37110  1  0  0  0
 38 43  2  0  0  0
 38 46  1  0  0  0
 38 47  1  0  0  0
 39 64  1  0  0  0
 39 67  2  0  0  0
 40 52  1  0  0  0
 40 53  2  0  0  0
 40 58  1  0  0  0
 41111  1  0  0  0
 41112  1  0  0  0
 41113  1  0  0  0
 41 48  1  0  0  0
 42 43  1  0  0  0
 42 66  1  0  0  0
 42114  1  0  0  0
 42115  1  0  0  0
 43 44  1  0  0  0
 44116  1  0  0  0
 45 46  2  0  0  0
 45117  1  0  0  0
 46118  1  0  0  0
 47119  1  0  0  0
 47120  1  0  0  0
 48 56  1  0  0  0
 48 65  1  0  0  0
 48121  1  0  0  0
 49 50  1  0  0  0
 49 53  1  0  0  0
 49 64  1  0  0  0
 49122  1  0  0  0
 50 51  1  0  0  0
 50123  1  0  0  0
 50124  1  0  0  0
 51 52  1  0  0  0
 51125  1  0  0  0
 51126  1  0  0  0
 52127  1  0  0  0
 52128  1  0  0  0
 53 54  1  0  0  0
 54 55  2  0  0  0
 54129  1  0  0  0
 55 57  1  0  0  0
 55130  1  0  0  0
 56 69  2  0  0  0
 57 58  2  0  0  0
 57131  1  0  0  0
 58132  1  0  0  0
 59 60  1  0  0  0
 59 61  1  0  0  0
 59 62  1  0  0  0
 60133  1  0  0  0
 60134  1  0  0  0
 60135  1  0  0  0
 61136  1  0  0  0
 61137  1  0  0  0
 61138  1  0  0  0
 62139  1  0  0  0
 62140  1  0  0  0
 62141  1  0  0  0
 63 65  1  0  0  0
 63142  1  0  0  0
 63143  1  0  0  0
 63144  1  0  0  0
 64145  1  0  0  0
 65146  1  0  0  0
 68 79  1  0  0  0
 71 72  2  0  0  0
 71 73  1  0  0  0
 71 75  1  0  0  0
 72 83  1  0  0  0
 72 87  1  0  0  0
 73 82  1  0  0  0
 73 85  2  0  0  0
 74 80  1  0  0  0
 74 83  1  0  0  0
 74 86  2  0  0  0
 75147  1  0  0  0
 75148  1  0  0  0
 75149  1  0  0  0
 76150  1  0  0  0
 76151  1  0  0  0
 76152  1  0  0  0
 76 80  1  0  0  0
 77153  1  0  0  0
 77154  1  0  0  0
 77 81  1  0  0  0
 78 81  1  0  0  0
 78 84  1  0  0  0
 78155  1  0  0  0
 78156  1  0  0  0
 79 80  1  0  0  0
 79157  1  0  0  0
 79158  1  0  0  0
 80159  1  0  0  0
 81 82  1  0  0  0
 81160  1  0  0  0
 82 87  1  0  0  0
 83161  1  0  0  0
 84162  1  0  0  0
 84163  1  0  0  0
 84164  1  0  0  0
M  CHG  1  84   1
M  ISO  4   1 100  68 101  77 100  79 101
M  END
> <chiral flag>
0

> <version>
0

> <s_m_source_file>
/data/baiqing/PycharmProjects/Reinvent-master-3.2/result/LINK_invent/BTK/process_docking_weight1_custom_product_contain_oxygen_bond_distance_aromatic_linkinvent_7_9_3/rearranged_h_0186.sdf

> <i_m_source_file_index>
27

> <r_mmod_Potential_Energy-OPLS-2005>
-316.683563232422

> <r_mmod_Stretch_Energy-OPLS-2005>
54.9377708435059

> <r_mmod_Bend_Energy-OPLS-2005>
152.199264526367

> <r_mmod_Torsional_Energy-OPLS-2005>
255.329696655273

> <r_mmod_Improper_Torsional_Energy-OPLS-2005>
5.35505151748657

> <r_mmod_Van_der_Waal_Energy-OPLS-2005>
116.124931335449

> <r_mmod_Electrostatic_Energy-OPLS-2005>
-437.499694824219

> <r_mmod_Solvation_Energy-OPLS-2005>
-486.156127929688

> <b_mmod_Minimization_Converged-OPLS-2005>
0

> <r_mmod_RMS_Derivative-OPLS-2005>
1.4906120300293

$$$$
28
                    3D
 Structure written by MMmdl.
157165  0  0  1  0            999 V2000
  -30.6824  -14.6643   20.5981 C   0  0  0  0  0  0
  -30.4309  -12.4383   19.4654 C   0  0  0  0  0  0
  -29.5065  -12.5362   18.2334 C   0  0  0  0  0  0
  -28.0338  -12.3556   18.6455 C   0  0  0  0  0  0
  -27.6520  -13.2297   19.8691 C   0  0  2  0  0  0
  -28.6956  -13.0975   21.0022 C   0  0  0  0  0  0
  -25.2446  -13.8121   20.5520 C   0  0  0  0  0  0
  -24.1791  -13.0390   20.9201 C   0  0  0  0  0  0
  -24.6409  -11.6880   20.8778 C   0  0  0  0  0  0
  -23.9085  -10.4270   21.0431 C   0  0  0  0  0  0
  -24.3628   -9.4178   21.9205 C   0  0  0  0  0  0
  -23.6292   -8.2220   22.0759 C   0  0  0  0  0  0
  -22.4273   -8.0273   21.3548 C   0  0  0  0  0  0
  -21.9925   -9.0249   20.4648 C   0  0  0  0  0  0
  -22.7264  -10.2121   20.3066 C   0  0  0  0  0  0
  -21.6844   -6.0737   22.5286 C   0  0  0  0  0  0
  -21.4004   -6.5638   23.8221 C   0  0  0  0  0  0
  -21.3653   -5.6791   24.9183 C   0  0  0  0  0  0
  -21.6042   -4.3054   24.7232 C   0  0  0  0  0  0
  -21.8814   -3.8150   23.4350 C   0  0  0  0  0  0
  -21.9184   -4.6968   22.3406 C   0  0  0  0  0  0
  -22.7810  -13.5182   21.1858 C   0  0  0  0  0  0
  -22.1659   -4.2149   21.0988 F   0  0  0  0  0  0
  -21.5627   -3.4536   25.7751 F   0  0  0  0  0  0
  -30.0111  -13.4659   20.4511 N   0  0  0  0  0  0
  -26.2971  -12.9384   20.3330 N   0  0  0  0  0  0
  -25.9359  -11.6529   20.5833 N   0  0  0  0  0  0
  -22.0459  -12.8190   22.0430 N   0  0  0  0  0  0
  -25.3912  -15.1785   20.3535 N   0  0  0  0  0  0
  -31.7533  -14.8181   20.0025 O   0  0  0  0  0  0
  -21.6626   -6.8875   21.4250 O   0  0  0  0  0  0
  -22.3495  -14.5488   20.6706 O   0  0  0  0  0  0
  -24.6285  -31.8589   23.1977 C   0  0  0  0  0  0
  -25.9119  -32.4771   23.8322 C   0  0  1  0  0  0
  -27.2257  -27.2905   20.1091 C   0  0  0  0  0  0
  -25.5936  -33.8570   24.2248 N   0  0  0  0  0  0
  -23.4230  -30.4816   21.5420 C   0  0  2  0  0  0
  -24.8710  -28.9349   20.1097 C   0  0  0  0  0  0
  -22.7482  -29.4620   22.4912 C   0  0  0  0  0  0
  -18.0290  -28.1389   22.8470 C   0  0  0  0  0  0
  -24.1498  -36.7295   23.2637 C   0  0  0  0  0  0
  -25.9682  -30.7783   21.3742 C   0  0  0  0  0  0
  -26.0433  -29.4032   20.7170 C   0  0  0  0  0  0
  -27.2238  -28.5942   20.7067 C   0  0  0  0  0  0
  -26.0250  -26.8876   19.4784 C   0  0  0  0  0  0
  -24.8661  -27.6833   19.4808 C   0  0  0  0  0  0
  -23.6387  -29.8159   20.1587 C   0  0  0  0  0  0
  -25.4119  -36.3066   24.0317 C   0  0  1  0  0  0
  -20.5888  -28.3697   23.1268 C   0  0  2  0  0  0
  -20.6780  -26.9418   22.5393 C   0  0  0  0  0  0
  -19.5755  -26.6382   21.5198 C   0  0  0  0  0  0
  -18.1938  -26.7928   22.1609 C   0  0  0  0  0  0
  -19.1542  -28.8861   23.2869 C   0  0  0  0  0  0
  -18.9471  -30.1463   23.8890 C   0  0  0  0  0  0
  -17.6474  -30.6594   24.0557 C   0  0  0  0  0  0
  -25.9058  -34.9443   23.5080 C   0  0  0  0  0  0
  -16.5364  -29.9084   23.6340 C   0  0  0  0  0  0
  -16.7278  -28.6506   23.0342 C   0  0  0  0  0  0
  -26.4494  -31.6590   25.0703 C   0  0  0  0  0  0
  -25.3698  -31.3740   26.1406 C   0  0  0  0  0  0
  -27.0346  -30.3005   24.6189 C   0  0  0  0  0  0
  -27.6061  -32.4337   25.7467 C   0  0  0  0  0  0
  -27.5587  -37.1788   24.8450 C   0  0  0  0  0  0
  -21.4195  -29.3057   22.3667 N   0  0  0  0  0  0
  -26.4287  -37.3772   23.9413 N   0  0  0  0  0  0
  -24.6923  -31.0561   22.0946 N   0  0  0  0  0  0
  -23.4198  -28.8157   23.2994 O   0  0  0  0  0  0
  -28.3335  -26.4137   20.1477 O   0  0  0  0  0  0
  -26.5622  -34.8919   22.4643 O   0  0  0  0  0  0
  -23.5437  -32.1411   23.7278 O   0  0  0  0  0  0
  -28.5094  -17.8444   21.2967 C   0  0  0  0  0  0
  -29.7538  -17.2735   21.0641 C   0  0  0  0  0  0
  -29.5073  -19.8148   20.5743 C   0  0  0  0  0  0
  -28.7484  -22.3122   20.4200 C   0  0  0  0  0  0
  -27.3243  -17.1891   21.9334 C   0  0  0  0  0  0
  -31.3774  -16.0742   22.5893 C   0  0  0  0  0  0
  -30.2177  -23.9080   19.0407 C   0  0  0  0  0  0
  -28.0720  -24.9443   20.0231 C   0  0  0  0  0  0
  -30.2414  -15.8581   21.5698 C   0  0  2  0  0  0
  -29.2194  -23.8292   20.2112 C   0  0  1  0  0  0
  -28.3839  -19.2256   21.0046 N   0  0  0  0  0  0
  -29.6466  -21.2634   20.3393 N   0  0  0  0  0  0
  -27.5555  -22.1147   20.6603 O   0  0  0  0  0  0
  -30.8041  -18.5713   20.4206 S   0  0  0  0  0  0
  -31.4735  -12.5458   19.1622 H   0  0  0  0  0  0
  -30.3660  -11.4445   19.9107 H   0  0  0  0  0  0
  -29.7823  -11.7839   17.4936 H   0  0  0  0  0  0
  -29.6398  -13.5053   17.7508 H   0  0  0  0  0  0
  -27.8860  -11.3021   18.8874 H   0  0  0  0  0  0
  -27.3743  -12.5695   17.8033 H   0  0  0  0  0  0
  -27.6674  -14.2661   19.5306 H   0  0  0  0  0  0
  -28.7234  -12.0724   21.3733 H   0  0  0  0  0  0
  -28.4018  -13.6993   21.8583 H   0  0  0  0  0  0
  -25.2769   -9.5641   22.4789 H   0  0  0  0  0  0
  -23.9990   -7.4605   22.7482 H   0  0  0  0  0  0
  -21.0856   -8.8780   19.8955 H   0  0  0  0  0  0
  -22.3740  -10.9663   19.6174 H   0  0  0  0  0  0
  -21.1996   -7.6142   23.9729 H   0  0  0  0  0  0
  -21.1479   -6.0520   25.9089 H   0  0  0  0  0  0
  -22.0596   -2.7610   23.2859 H   0  0  0  0  0  0
  -22.4067  -11.9850   22.4835 H   0  0  0  0  0  0
  -21.1077  -13.1220   22.2637 H   0  0  0  0  0  0
  -24.5961  -15.8050   20.4070 H   0  0  0  0  0  0
  -26.2020  -15.6026   19.9222 H   0  0  0  0  0  0
  -26.7185  -32.5431   23.1064 H   0  0  0  0  0  0
  -25.0095  -33.9726   25.0403 H   0  0  0  0  0  0
  -22.7181  -31.3033   21.3983 H   0  0  0  0  0  0
  -23.3759  -35.9621   23.3258 H   0  0  0  0  0  0
  -24.3602  -36.8963   22.2063 H   0  0  0  0  0  0
  -23.7244  -37.6484   23.6690 H   0  0  0  0  0  0
  -26.1010  -31.5372   20.6015 H   0  0  0  0  0  0
  -26.8479  -30.8301   22.0042 H   0  0  0  0  0  0
  -28.1217  -28.9480   21.1930 H   0  0  0  0  0  0
  -25.9419  -25.9369   18.9760 H   0  0  0  0  0  0
  -23.9701  -27.3198   18.9965 H   0  0  0  0  0  0
  -23.7528  -30.5916   19.4007 H   0  0  0  0  0  0
  -22.7578  -29.2441   19.8602 H   0  0  0  0  0  0
  -25.1293  -36.1906   25.0803 H   0  0  0  0  0  0
  -20.9998  -28.3278   24.1376 H   0  0  0  0  0  0
  -20.5681  -26.2305   23.3593 H   0  0  0  0  0  0
  -21.6655  -26.7436   22.1193 H   0  0  0  0  0  0
  -19.6918  -25.6288   21.1242 H   0  0  0  0  0  0
  -19.6699  -27.3180   20.6721 H   0  0  0  0  0  0
  -17.4202  -26.6670   21.4021 H   0  0  0  0  0  0
  -18.0351  -26.0072   22.9013 H   0  0  0  0  0  0
  -19.7950  -30.7280   24.2255 H   0  0  0  0  0  0
  -17.5025  -31.6275   24.5153 H   0  0  0  0  0  0
  -15.5364  -30.2973   23.7682 H   0  0  0  0  0  0
  -15.8672  -28.0832   22.7041 H   0  0  0  0  0  0
  -24.5885  -30.7078   25.7724 H   0  0  0  0  0  0
  -24.8861  -32.2912   26.4787 H   0  0  0  0  0  0
  -25.7990  -30.8942   27.0208 H   0  0  0  0  0  0
  -26.2929  -29.6746   24.1219 H   0  0  0  0  0  0
  -27.4043  -29.7275   25.4703 H   0  0  0  0  0  0
  -27.8785  -30.4285   23.9404 H   0  0  0  0  0  0
  -27.2712  -33.3685   26.1979 H   0  0  0  0  0  0
  -28.3902  -32.6839   25.0305 H   0  0  0  0  0  0
  -28.0676  -31.8485   26.5434 H   0  0  0  0  0  0
  -28.2555  -38.0139   24.7573 H   0  0  0  0  0  0
  -28.1146  -36.2675   24.6183 H   0  0  0  0  0  0
  -27.2316  -37.1318   25.8854 H   0  0  0  0  0  0
  -20.9363  -29.8803   21.6909 H   0  0  0  0  0  0
  -26.0160  -38.2835   24.1453 H   0  0  0  0  0  0
  -27.2642  -17.4275   22.9948 H   0  0  0  0  0  0
  -27.3568  -16.1055   21.8448 H   0  0  0  0  0  0
  -26.3949  -17.5262   21.4749 H   0  0  0  0  0  0
  -31.0506  -16.7049   23.4159 H   0  0  0  0  0  0
  -32.2397  -16.5576   22.1284 H   0  0  0  0  0  0
  -31.7219  -15.1324   23.0178 H   0  0  0  0  0  0
  -31.1113  -23.3112   19.2249 H   0  0  0  0  0  0
  -30.5438  -24.9341   18.8704 H   0  0  0  0  0  0
  -29.7657  -23.5507   18.1146 H   0  0  0  0  0  0
  -27.2673  -24.7145   20.7230 H   0  0  0  0  0  0
  -27.6691  -24.7653   19.0273 H   0  0  0  0  0  0
  -29.4433  -15.4579   22.1826 H   0  0  0  0  0  0
  -29.7537  -24.0869   21.1255 H   0  0  0  0  0  0
  -30.5844  -21.5462   20.0957 H   0  0  0  0  0  0
  1 25  1  0  0  0
  1 30  2  0  0  0
  1 79  1  0  0  0
  2  3  1  0  0  0
  2 25  1  0  0  0
  2 85  1  0  0  0
  2 86  1  0  0  0
  3  4  1  0  0  0
  3 87  1  0  0  0
  3 88  1  0  0  0
  4  5  1  0  0  0
  4 89  1  0  0  0
  4 90  1  0  0  0
  5  6  1  0  0  0
  5 26  1  0  0  0
  5 91  1  0  0  0
  6 25  1  0  0  0
  6 92  1  0  0  0
  6 93  1  0  0  0
  7  8  2  0  0  0
  7 26  1  0  0  0
  7 29  1  0  0  0
  8  9  1  0  0  0
  8 22  1  0  0  0
  9 10  1  0  0  0
  9 27  2  0  0  0
 10 11  2  0  0  0
 10 15  1  0  0  0
 11 12  1  0  0  0
 11 94  1  0  0  0
 12 13  2  0  0  0
 12 95  1  0  0  0
 13 14  1  0  0  0
 13 31  1  0  0  0
 14 15  2  0  0  0
 14 96  1  0  0  0
 15 97  1  0  0  0
 16 17  2  0  0  0
 16 21  1  0  0  0
 16 31  1  0  0  0
 17 18  1  0  0  0
 17 98  1  0  0  0
 18 19  2  0  0  0
 18 99  1  0  0  0
 19 20  1  0  0  0
 19 24  1  0  0  0
 20 21  2  0  0  0
 20100  1  0  0  0
 21 23  1  0  0  0
 22 28  1  0  0  0
 22 32  2  0  0  0
 26 27  1  0  0  0
 28101  1  0  0  0
 28102  1  0  0  0
 29103  1  0  0  0
 29104  1  0  0  0
 33 34  1  0  0  0
 33 66  1  0  0  0
 33 70  2  0  0  0
 34 36  1  0  0  0
 34 59  1  0  0  0
 34105  1  0  0  0
 35 44  2  0  0  0
 35 45  1  0  0  0
 35 68  1  0  0  0
 36 56  1  0  0  0
 36106  1  0  0  0
 37 39  1  0  0  0
 37 47  1  0  0  0
 37 66  1  0  0  0
 37107  1  0  0  0
 38 43  2  0  0  0
 38 46  1  0  0  0
 38 47  1  0  0  0
 39 64  1  0  0  0
 39 67  2  0  0  0
 40 52  1  0  0  0
 40 53  2  0  0  0
 40 58  1  0  0  0
 41108  1  0  0  0
 41109  1  0  0  0
 41110  1  0  0  0
 41 48  1  0  0  0
 42 43  1  0  0  0
 42 66  1  0  0  0
 42111  1  0  0  0
 42112  1  0  0  0
 43 44  1  0  0  0
 44113  1  0  0  0
 45 46  2  0  0  0
 45114  1  0  0  0
 46115  1  0  0  0
 47116  1  0  0  0
 47117  1  0  0  0
 48 56  1  0  0  0
 48 65  1  0  0  0
 48118  1  0  0  0
 49 50  1  0  0  0
 49 53  1  0  0  0
 49 64  1  0  0  0
 49119  1  0  0  0
 50 51  1  0  0  0
 50120  1  0  0  0
 50121  1  0  0  0
 51 52  1  0  0  0
 51122  1  0  0  0
 51123  1  0  0  0
 52124  1  0  0  0
 52125  1  0  0  0
 53 54  1  0  0  0
 54 55  2  0  0  0
 54126  1  0  0  0
 55 57  1  0  0  0
 55127  1  0  0  0
 56 69  2  0  0  0
 57 58  2  0  0  0
 57128  1  0  0  0
 58129  1  0  0  0
 59 60  1  0  0  0
 59 61  1  0  0  0
 59 62  1  0  0  0
 60130  1  0  0  0
 60131  1  0  0  0
 60132  1  0  0  0
 61133  1  0  0  0
 61134  1  0  0  0
 61135  1  0  0  0
 62136  1  0  0  0
 62137  1  0  0  0
 62138  1  0  0  0
 63 65  1  0  0  0
 63139  1  0  0  0
 63140  1  0  0  0
 63141  1  0  0  0
 64142  1  0  0  0
 65143  1  0  0  0
 68 78  1  0  0  0
 71 72  2  0  0  0
 71 75  1  0  0  0
 71 81  1  0  0  0
 72 79  1  0  0  0
 72 84  1  0  0  0
 73 81  2  0  0  0
 73 82  1  0  0  0
 73 84  1  0  0  0
 74 80  1  0  0  0
 74 82  1  0  0  0
 74 83  2  0  0  0
 75144  1  0  0  0
 75145  1  0  0  0
 75146  1  0  0  0
 76147  1  0  0  0
 76148  1  0  0  0
 76149  1  0  0  0
 76 79  1  0  0  0
 77150  1  0  0  0
 77151  1  0  0  0
 77152  1  0  0  0
 77 80  1  0  0  0
 78 80  1  0  0  0
 78153  1  0  0  0
 78154  1  0  0  0
 79155  1  0  0  0
 80156  1  0  0  0
 82157  1  0  0  0
M  ISO  4   1 100  68 101  78 101  79 100
M  END
> <chiral flag>
0

> <version>
0

> <s_m_source_file>
/data/baiqing/PycharmProjects/Reinvent-master-3.2/result/LINK_invent/BTK/process_docking_weight1_custom_product_contain_oxygen_bond_distance_aromatic_linkinvent_7_9_3/rearranged_h_0186.sdf

> <i_m_source_file_index>
28

> <r_mmod_Potential_Energy-OPLS-2005>
45.4587364196777

> <r_mmod_Stretch_Energy-OPLS-2005>
105.954658508301

> <r_mmod_Bend_Energy-OPLS-2005>
174.240646362305

> <r_mmod_Torsional_Energy-OPLS-2005>
175.394058227539

> <r_mmod_Improper_Torsional_Energy-OPLS-2005>
4.75244522094727

> <r_mmod_Van_der_Waal_Energy-OPLS-2005>
125.279655456543

> <r_mmod_Electrostatic_Energy-OPLS-2005>
-372.480041503906

> <r_mmod_Solvation_Energy-OPLS-2005>
-226.091369628906

> <b_mmod_Minimization_Converged-OPLS-2005>
0

> <r_mmod_RMS_Derivative-OPLS-2005>
1.85629165172577

$$$$
29
                    3D
 Structure written by MMmdl.
156164  0  0  1  0            999 V2000
  -30.6547  -14.5723   20.5078 C   0  0  0  0  0  0
  -30.4269  -12.3539   19.4364 C   0  0  0  0  0  0
  -29.4962  -12.4896   18.2125 C   0  0  0  0  0  0
  -28.0199  -12.3340   18.6297 C   0  0  0  0  0  0
  -27.6504  -13.2069   19.8584 C   0  0  2  0  0  0
  -28.6953  -13.0533   20.9858 C   0  0  0  0  0  0
  -25.2554  -13.8149   20.5666 C   0  0  0  0  0  0
  -24.1823  -13.0433   20.9183 C   0  0  0  0  0  0
  -24.6376  -11.6896   20.8745 C   0  0  0  0  0  0
  -23.9045  -10.4287   21.0410 C   0  0  0  0  0  0
  -24.3597   -9.4204   21.9191 C   0  0  0  0  0  0
  -23.6280   -8.2238   22.0758 C   0  0  0  0  0  0
  -22.4265   -8.0267   21.3538 C   0  0  0  0  0  0
  -21.9894   -9.0244   20.4647 C   0  0  0  0  0  0
  -22.7215  -10.2128   20.3060 C   0  0  0  0  0  0
  -21.6852   -6.0716   22.5271 C   0  0  0  0  0  0
  -21.4009   -6.5628   23.8202 C   0  0  0  0  0  0
  -21.3667   -5.6787   24.9168 C   0  0  0  0  0  0
  -21.6046   -4.3051   24.7226 C   0  0  0  0  0  0
  -21.8822   -3.8134   23.4347 C   0  0  0  0  0  0
  -21.9193   -4.6946   22.3401 C   0  0  0  0  0  0
  -22.7854  -13.5238   21.1851 C   0  0  0  0  0  0
  -22.1663   -4.2124   21.0979 F   0  0  0  0  0  0
  -21.5636   -3.4543   25.7743 F   0  0  0  0  0  0
  -30.0125  -13.3722   20.4162 N   0  0  0  0  0  0
  -26.2967  -12.9314   20.3301 N   0  0  0  0  0  0
  -25.9297  -11.6478   20.5752 N   0  0  0  0  0  0
  -22.0492  -12.8240   22.0398 N   0  0  0  0  0  0
  -25.4281  -15.1875   20.4064 N   0  0  0  0  0  0
  -31.8309  -14.7016   20.1490 O   0  0  0  0  0  0
  -21.6640   -6.8859   21.4232 O   0  0  0  0  0  0
  -22.3540  -14.5543   20.6689 O   0  0  0  0  0  0
  -24.6208  -31.8632   23.2045 C   0  0  0  0  0  0
  -25.9067  -32.4799   23.8371 C   0  0  1  0  0  0
  -27.2232  -27.3805   20.1227 C   0  0  0  0  0  0
  -25.5885  -33.8593   24.2292 N   0  0  0  0  0  0
  -23.4127  -30.4859   21.5460 C   0  0  2  0  0  0
  -24.8578  -28.9458   20.1107 C   0  0  0  0  0  0
  -22.7456  -29.4633   22.4963 C   0  0  0  0  0  0
  -18.0286  -28.1405   22.8499 C   0  0  0  0  0  0
  -24.1480  -36.7311   23.2644 C   0  0  0  0  0  0
  -25.9440  -30.8177   21.3597 C   0  0  0  0  0  0
  -26.0216  -29.4458   20.7114 C   0  0  0  0  0  0
  -27.2129  -28.6743   20.7088 C   0  0  0  0  0  0
  -26.0504  -26.9146   19.4971 C   0  0  0  0  0  0
  -24.8691  -27.6812   19.4954 C   0  0  0  0  0  0
  -23.6228  -29.8199   20.1599 C   0  0  0  0  0  0
  -25.4092  -36.3089   24.0343 C   0  0  1  0  0  0
  -20.5890  -28.3682   23.1308 C   0  0  2  0  0  0
  -20.6781  -26.9423   22.5398 C   0  0  0  0  0  0
  -19.5742  -26.6424   21.5209 C   0  0  0  0  0  0
  -18.1923  -26.7954   22.1632 C   0  0  0  0  0  0
  -19.1541  -28.8858   23.2904 C   0  0  0  0  0  0
  -18.9473  -30.1470   23.8909 C   0  0  0  0  0  0
  -17.6469  -30.6595   24.0591 C   0  0  0  0  0  0
  -25.9028  -34.9464   23.5117 C   0  0  0  0  0  0
  -16.5358  -29.9101   23.6349 C   0  0  0  0  0  0
  -16.7276  -28.6537   23.0338 C   0  0  0  0  0  0
  -26.4471  -31.6581   25.0708 C   0  0  0  0  0  0
  -25.3730  -31.3737   26.1461 C   0  0  0  0  0  0
  -27.0283  -30.3006   24.6092 C   0  0  0  0  0  0
  -27.6039  -32.4301   25.7479 C   0  0  0  0  0  0
  -27.5574  -37.1797   24.8471 C   0  0  0  0  0  0
  -21.4177  -29.3037   22.3711 N   0  0  0  0  0  0
  -26.4277  -37.3776   23.9427 N   0  0  0  0  0  0
  -24.6785  -31.0706   22.0950 N   0  0  0  0  0  0
  -23.4200  -28.8190   23.3047 O   0  0  0  0  0  0
  -28.3433  -26.5599   20.1374 O   0  0  0  0  0  0
  -26.5611  -34.8945   22.4693 O   0  0  0  0  0  0
  -23.5384  -32.1384   23.7399 O   0  0  0  0  0  0
  -31.4499  -17.5255   21.1522 C   0  0  0  0  0  0
  -30.2008  -17.0488   20.8364 C   0  0  0  0  0  0
  -29.8012  -19.3410   20.7069 C   0  0  0  0  0  0
  -29.4461  -23.0318   21.5168 C   0  0  0  0  0  0
  -29.3668  -21.0892   18.9322 C   0  0  0  0  0  0
  -27.1681  -25.3215   22.0226 C   0  0  0  0  0  0
  -28.8051  -24.0346   20.4968 C   0  0  0  0  0  0
  -29.0910  -20.6664   20.3862 C   0  0  2  0  0  0
  -28.4035  -25.4497   21.0984 C   0  0  1  0  0  0
  -29.2702  -18.0963   20.6095 N   0  0  0  0  0  0
  -29.8647  -15.6457   20.7952 N   0  0  0  0  0  0
  -29.5239  -21.6820   21.3734 N   0  0  0  0  0  0
  -29.9415  -23.4967   22.5437 O   0  0  0  0  0  0
  -31.5148  -19.2710   21.1312 S   0  0  0  0  0  0
  -31.4704  -12.4621   19.1331 H   0  0  0  0  0  0
  -30.3439  -11.3586   19.8737 H   0  0  0  0  0  0
  -29.7511  -11.7382   17.4635 H   0  0  0  0  0  0
  -29.6437  -13.4603   17.7374 H   0  0  0  0  0  0
  -27.8568  -11.2807   18.8608 H   0  0  0  0  0  0
  -27.3608  -12.5604   17.7915 H   0  0  0  0  0  0
  -27.6715  -14.2413   19.5169 H   0  0  0  0  0  0
  -28.6969  -12.0332   21.3703 H   0  0  0  0  0  0
  -28.4524  -13.6926   21.8364 H   0  0  0  0  0  0
  -25.2738   -9.5689   22.4771 H   0  0  0  0  0  0
  -23.9990   -7.4633   22.7487 H   0  0  0  0  0  0
  -21.0822   -8.8750   19.8962 H   0  0  0  0  0  0
  -22.3660  -10.9662   19.6172 H   0  0  0  0  0  0
  -21.1997   -7.6135   23.9690 H   0  0  0  0  0  0
  -21.1492   -6.0525   25.9067 H   0  0  0  0  0  0
  -22.0597   -2.7594   23.2857 H   0  0  0  0  0  0
  -22.4097  -11.9890   22.4779 H   0  0  0  0  0  0
  -21.1106  -13.1267   22.2607 H   0  0  0  0  0  0
  -24.6579  -15.8384   20.5129 H   0  0  0  0  0  0
  -26.2699  -15.6281   20.0575 H   0  0  0  0  0  0
  -26.7156  -32.5521   23.1162 H   0  0  0  0  0  0
  -25.0038  -33.9739   25.0440 H   0  0  0  0  0  0
  -22.7041  -31.3037   21.4036 H   0  0  0  0  0  0
  -23.3734  -35.9655   23.3305 H   0  0  0  0  0  0
  -24.3592  -36.8918   22.2063 H   0  0  0  0  0  0
  -23.7256  -37.6530   23.6655 H   0  0  0  0  0  0
  -26.0540  -31.5772   20.5842 H   0  0  0  0  0  0
  -26.8341  -30.8805   21.9749 H   0  0  0  0  0  0
  -28.1131  -29.0529   21.1718 H   0  0  0  0  0  0
  -26.0459  -25.9385   19.0331 H   0  0  0  0  0  0
  -23.9779  -27.2885   19.0248 H   0  0  0  0  0  0
  -23.7377  -30.5945   19.4000 H   0  0  0  0  0  0
  -22.7439  -29.2444   19.8641 H   0  0  0  0  0  0
  -25.1268  -36.1940   25.0837 H   0  0  0  0  0  0
  -20.9992  -28.3248   24.1421 H   0  0  0  0  0  0
  -20.5682  -26.2298   23.3585 H   0  0  0  0  0  0
  -21.6651  -26.7454   22.1188 H   0  0  0  0  0  0
  -19.6889  -25.6347   21.1210 H   0  0  0  0  0  0
  -19.6668  -27.3273   20.6773 H   0  0  0  0  0  0
  -17.4192  -26.6715   21.4041 H   0  0  0  0  0  0
  -18.0302  -26.0091   22.9026 H   0  0  0  0  0  0
  -19.7951  -30.7294   24.2254 H   0  0  0  0  0  0
  -17.5030  -31.6265   24.5214 H   0  0  0  0  0  0
  -15.5366  -30.3004   23.7668 H   0  0  0  0  0  0
  -15.8688  -28.0881   22.6997 H   0  0  0  0  0  0
  -24.5896  -30.7067   25.7846 H   0  0  0  0  0  0
  -24.8925  -32.2907   26.4880 H   0  0  0  0  0  0
  -25.8071  -30.8961   27.0247 H   0  0  0  0  0  0
  -26.2829  -29.6803   24.1091 H   0  0  0  0  0  0
  -27.3998  -29.7203   25.4553 H   0  0  0  0  0  0
  -27.8689  -30.4332   23.9274 H   0  0  0  0  0  0
  -27.2639  -33.3600   26.2064 H   0  0  0  0  0  0
  -28.3840  -32.6856   25.0293 H   0  0  0  0  0  0
  -28.0708  -31.8413   26.5390 H   0  0  0  0  0  0
  -28.2586  -38.0098   24.7507 H   0  0  0  0  0  0
  -28.1065  -36.2626   24.6277 H   0  0  0  0  0  0
  -27.2308  -37.1438   25.8880 H   0  0  0  0  0  0
  -20.9322  -29.8788   21.6969 H   0  0  0  0  0  0
  -26.0163  -38.2855   24.1418 H   0  0  0  0  0  0
  -32.3462  -16.9676   21.3896 H   0  0  0  0  0  0
  -29.0843  -20.2943   18.2417 H   0  0  0  0  0  0
  -30.4249  -21.2976   18.7740 H   0  0  0  0  0  0
  -28.8004  -21.9703   18.6385 H   0  0  0  0  0  0
  -27.3200  -24.5480   22.7746 H   0  0  0  0  0  0
  -26.2746  -25.0464   21.4625 H   0  0  0  0  0  0
  -26.9615  -26.2471   22.5621 H   0  0  0  0  0  0
  -29.5400  -24.1937   19.7100 H   0  0  0  0  0  0
  -27.9458  -23.5719   20.0141 H   0  0  0  0  0  0
  -28.0191  -20.5088   20.5138 H   0  0  0  0  0  0
  -29.2202  -25.7613   21.7507 H   0  0  0  0  0  0
  -28.8881  -15.4281   20.9181 H   0  0  0  0  0  0
  -29.9814  -21.2442   22.1620 H   0  0  0  0  0  0
  1 25  1  0  0  0
  1 30  2  0  0  0
  1 81  1  0  0  0
  2  3  1  0  0  0
  2 25  1  0  0  0
  2 85  1  0  0  0
  2 86  1  0  0  0
  3  4  1  0  0  0
  3 87  1  0  0  0
  3 88  1  0  0  0
  4  5  1  0  0  0
  4 89  1  0  0  0
  4 90  1  0  0  0
  5  6  1  0  0  0
  5 26  1  0  0  0
  5 91  1  0  0  0
  6 25  1  0  0  0
  6 92  1  0  0  0
  6 93  1  0  0  0
  7  8  2  0  0  0
  7 26  1  0  0  0
  7 29  1  0  0  0
  8  9  1  0  0  0
  8 22  1  0  0  0
  9 10  1  0  0  0
  9 27  2  0  0  0
 10 11  2  0  0  0
 10 15  1  0  0  0
 11 12  1  0  0  0
 11 94  1  0  0  0
 12 13  2  0  0  0
 12 95  1  0  0  0
 13 14  1  0  0  0
 13 31  1  0  0  0
 14 15  2  0  0  0
 14 96  1  0  0  0
 15 97  1  0  0  0
 16 17  2  0  0  0
 16 21  1  0  0  0
 16 31  1  0  0  0
 17 18  1  0  0  0
 17 98  1  0  0  0
 18 19  2  0  0  0
 18 99  1  0  0  0
 19 20  1  0  0  0
 19 24  1  0  0  0
 20 21  2  0  0  0
 20100  1  0  0  0
 21 23  1  0  0  0
 22 28  1  0  0  0
 22 32  2  0  0  0
 26 27  1  0  0  0
 28101  1  0  0  0
 28102  1  0  0  0
 29103  1  0  0  0
 29104  1  0  0  0
 33 34  1  0  0  0
 33 66  1  0  0  0
 33 70  2  0  0  0
 34 36  1  0  0  0
 34 59  1  0  0  0
 34105  1  0  0  0
 35 44  2  0  0  0
 35 45  1  0  0  0
 35 68  1  0  0  0
 36 56  1  0  0  0
 36106  1  0  0  0
 37 39  1  0  0  0
 37 47  1  0  0  0
 37 66  1  0  0  0
 37107  1  0  0  0
 38 43  2  0  0  0
 38 46  1  0  0  0
 38 47  1  0  0  0
 39 64  1  0  0  0
 39 67  2  0  0  0
 40 52  1  0  0  0
 40 53  2  0  0  0
 40 58  1  0  0  0
 41108  1  0  0  0
 41109  1  0  0  0
 41110  1  0  0  0
 41 48  1  0  0  0
 42 43  1  0  0  0
 42 66  1  0  0  0
 42111  1  0  0  0
 42112  1  0  0  0
 43 44  1  0  0  0
 44113  1  0  0  0
 45 46  2  0  0  0
 45114  1  0  0  0
 46115  1  0  0  0
 47116  1  0  0  0
 47117  1  0  0  0
 48 56  1  0  0  0
 48 65  1  0  0  0
 48118  1  0  0  0
 49 50  1  0  0  0
 49 53  1  0  0  0
 49 64  1  0  0  0
 49119  1  0  0  0
 50 51  1  0  0  0
 50120  1  0  0  0
 50121  1  0  0  0
 51 52  1  0  0  0
 51122  1  0  0  0
 51123  1  0  0  0
 52124  1  0  0  0
 52125  1  0  0  0
 53 54  1  0  0  0
 54 55  2  0  0  0
 54126  1  0  0  0
 55 57  1  0  0  0
 55127  1  0  0  0
 56 69  2  0  0  0
 57 58  2  0  0  0
 57128  1  0  0  0
 58129  1  0  0  0
 59 60  1  0  0  0
 59 61  1  0  0  0
 59 62  1  0  0  0
 60130  1  0  0  0
 60131  1  0  0  0
 60132  1  0  0  0
 61133  1  0  0  0
 61134  1  0  0  0
 61135  1  0  0  0
 62136  1  0  0  0
 62137  1  0  0  0
 62138  1  0  0  0
 63 65  1  0  0  0
 63139  1  0  0  0
 63140  1  0  0  0
 63141  1  0  0  0
 64142  1  0  0  0
 65143  1  0  0  0
 68 79  1  0  0  0
 71 72  2  0  0  0
 71 84  1  0  0  0
 71144  1  0  0  0
 72 80  1  0  0  0
 72 81  1  0  0  0
 73 78  1  0  0  0
 73 80  2  0  0  0
 73 84  1  0  0  0
 74 77  1  0  0  0
 74 82  1  0  0  0
 74 83  2  0  0  0
 75145  1  0  0  0
 75146  1  0  0  0
 75147  1  0  0  0
 75 78  1  0  0  0
 76148  1  0  0  0
 76149  1  0  0  0
 76150  1  0  0  0
 76 79  1  0  0  0
 77 79  1  0  0  0
 77151  1  0  0  0
 77152  1  0  0  0
 78 82  1  0  0  0
 78153  1  0  0  0
 79154  1  0  0  0
 81155  1  0  0  0
 82156  1  0  0  0
M  ISO  4   1 100  68 101  79 101  81 100
M  END
> <chiral flag>
0

> <version>
0

> <s_m_source_file>
/data/baiqing/PycharmProjects/Reinvent-master-3.2/result/LINK_invent/BTK/process_docking_weight1_custom_product_contain_oxygen_bond_distance_aromatic_linkinvent_7_9_3/rearranged_h_0186.sdf

> <i_m_source_file_index>
29

> <r_mmod_Potential_Energy-OPLS-2005>
-99.3042602539062

> <r_mmod_Stretch_Energy-OPLS-2005>
55.6417198181152

> <r_mmod_Bend_Energy-OPLS-2005>
145.911056518555

> <r_mmod_Torsional_Energy-OPLS-2005>
223.633819580078

> <r_mmod_Improper_Torsional_Energy-OPLS-2005>
5.39191865921021

> <r_mmod_Van_der_Waal_Energy-OPLS-2005>
126.151931762695

> <r_mmod_Electrostatic_Energy-OPLS-2005>
-460.259735107422

> <r_mmod_Solvation_Energy-OPLS-2005>
-226.136962890625

> <b_mmod_Minimization_Converged-OPLS-2005>
0

> <r_mmod_RMS_Derivative-OPLS-2005>
2.68222904205322

$$$$
30
                    3D
 Structure written by MMmdl.
159167  0  0  1  0            999 V2000
  -30.6796  -14.5347   20.5293 C   0  0  0  0  0  0
  -30.4163  -12.3292   19.4478 C   0  0  0  0  0  0
  -29.4922  -12.4938   18.2213 C   0  0  0  0  0  0
  -28.0139  -12.3542   18.6324 C   0  0  0  0  0  0
  -27.6548  -13.2142   19.8742 C   0  0  2  0  0  0
  -28.6957  -13.0414   21.0044 C   0  0  0  0  0  0
  -25.2557  -13.8200   20.5722 C   0  0  0  0  0  0
  -24.1814  -13.0447   20.9199 C   0  0  0  0  0  0
  -24.6377  -11.6920   20.8730 C   0  0  0  0  0  0
  -23.9052  -10.4301   21.0396 C   0  0  0  0  0  0
  -24.3604   -9.4231   21.9189 C   0  0  0  0  0  0
  -23.6285   -8.2267   22.0776 C   0  0  0  0  0  0
  -22.4273   -8.0284   21.3552 C   0  0  0  0  0  0
  -21.9900   -9.0248   20.4656 C   0  0  0  0  0  0
  -22.7220  -10.2133   20.3056 C   0  0  0  0  0  0
  -21.6865   -6.0738   22.5282 C   0  0  0  0  0  0
  -21.4013   -6.5642   23.8208 C   0  0  0  0  0  0
  -21.3656   -5.6807   24.9179 C   0  0  0  0  0  0
  -21.6030   -4.3063   24.7230 C   0  0  0  0  0  0
  -21.8817   -3.8157   23.4352 C   0  0  0  0  0  0
  -21.9198   -4.6973   22.3412 C   0  0  0  0  0  0
  -22.7834  -13.5230   21.1853 C   0  0  0  0  0  0
  -22.1673   -4.2160   21.0985 F   0  0  0  0  0  0
  -21.5622   -3.4540   25.7737 F   0  0  0  0  0  0
  -30.0235  -13.3401   20.4488 N   0  0  0  0  0  0
  -26.2976  -12.9373   20.3384 N   0  0  0  0  0  0
  -25.9304  -11.6515   20.5789 N   0  0  0  0  0  0
  -22.0476  -12.8215   22.0397 N   0  0  0  0  0  0
  -25.4301  -15.1924   20.4150 N   0  0  0  0  0  0
  -31.8283  -14.6771   20.0982 O   0  0  0  0  0  0
  -21.6641   -6.8870   21.4240 O   0  0  0  0  0  0
  -22.3520  -14.5534   20.6717 O   0  0  0  0  0  0
  -24.6192  -31.8646   23.2126 C   0  0  0  0  0  0
  -25.9082  -32.4797   23.8412 C   0  0  1  0  0  0
  -27.2176  -27.3943   20.0953 C   0  0  0  0  0  0
  -25.5938  -33.8604   24.2336 N   0  0  0  0  0  0
  -23.4083  -30.4945   21.5524 C   0  0  2  0  0  0
  -24.8555  -28.9661   20.1100 C   0  0  0  0  0  0
  -22.7438  -29.4673   22.4971 C   0  0  0  0  0  0
  -18.0281  -28.1383   22.8490 C   0  0  0  0  0  0
  -24.1485  -36.7294   23.2638 C   0  0  0  0  0  0
  -25.9454  -30.8136   21.3803 C   0  0  0  0  0  0
  -26.0194  -29.4481   20.7251 C   0  0  0  0  0  0
  -27.2042  -28.6659   20.7283 C   0  0  0  0  0  0
  -26.0569  -26.9737   19.4192 C   0  0  0  0  0  0
  -24.8712  -27.7259   19.4560 C   0  0  0  0  0  0
  -23.6177  -29.8346   20.1658 C   0  0  0  0  0  0
  -25.4105  -36.3089   24.0335 C   0  0  1  0  0  0
  -20.5877  -28.3674   23.1290 C   0  0  2  0  0  0
  -20.6775  -26.9401   22.5408 C   0  0  0  0  0  0
  -19.5751  -26.6381   21.5204 C   0  0  0  0  0  0
  -18.1925  -26.7929   22.1613 C   0  0  0  0  0  0
  -19.1531  -28.8845   23.2889 C   0  0  0  0  0  0
  -18.9463  -30.1457   23.8890 C   0  0  0  0  0  0
  -17.6466  -30.6585   24.0565 C   0  0  0  0  0  0
  -25.9041  -34.9459   23.5119 C   0  0  0  0  0  0
  -16.5355  -29.9086   23.6344 C   0  0  0  0  0  0
  -16.7274  -28.6511   23.0349 C   0  0  0  0  0  0
  -26.4491  -31.6584   25.0755 C   0  0  0  0  0  0
  -25.3750  -31.3707   26.1500 C   0  0  0  0  0  0
  -27.0353  -30.3016   24.6208 C   0  0  0  0  0  0
  -27.6045  -32.4326   25.7530 C   0  0  0  0  0  0
  -27.5581  -37.1800   24.8468 C   0  0  0  0  0  0
  -21.4160  -29.3042   22.3695 N   0  0  0  0  0  0
  -26.4285  -37.3784   23.9420 N   0  0  0  0  0  0
  -24.6747  -31.0740   22.1042 N   0  0  0  0  0  0
  -23.4190  -28.8197   23.3011 O   0  0  0  0  0  0
  -28.3086  -26.5363   20.1044 O   0  0  0  0  0  0
  -26.5596  -34.8911   22.4675 O   0  0  0  0  0  0
  -23.5375  -32.1439   23.7494 O   0  0  0  0  0  0
  -29.0762  -19.3272   20.5308 C   0  0  0  0  0  0
  -29.9470  -18.2475   20.9431 C   0  0  0  0  0  0
  -29.2472  -20.5291   21.1968 C   0  0  0  0  0  0
  -30.7177  -18.6348   22.0132 C   0  0  0  0  0  0
  -28.9787  -22.9749   20.9494 C   0  0  0  0  0  0
  -29.8598  -25.9476   21.8202 C   0  0  0  0  0  0
  -30.0571  -16.9274   20.1721 C   0  0  0  0  0  0
  -27.9781  -24.1444   21.2942 C   0  0  1  0  0  0
  -28.4402  -25.6874   21.2849 C   0  0  2  0  0  0
  -26.5540  -23.8955   20.7288 C   0  0  0  0  0  0
  -31.6570  -17.8955   22.7210 N   0  0  0  0  0  0
  -28.5309  -21.6910   21.0512 N   0  0  0  0  0  0
  -29.9294  -15.6151   20.8627 N   0  0  0  0  0  0
  -30.1401  -23.2097   20.5982 O   0  0  0  0  0  0
  -25.6990  -24.8097   21.1846 F   0  0  0  0  0  0
  -26.5674  -23.8991   19.3967 F   0  0  0  0  0  0
  -26.0669  -22.7135   21.1141 F   0  0  0  0  0  0
  -30.4645  -20.3190   22.4331 S   0  0  0  0  0  0
  -31.4610  -12.4238   19.1434 H   0  0  0  0  0  0
  -30.3213  -11.3274   19.8669 H   0  0  0  0  0  0
  -29.7362  -11.7506   17.4610 H   0  0  0  0  0  0
  -29.6577  -13.4696   17.7608 H   0  0  0  0  0  0
  -27.8300  -11.3017   18.8467 H   0  0  0  0  0  0
  -27.3635  -12.6152   17.7960 H   0  0  0  0  0  0
  -27.6856  -14.2557   19.5492 H   0  0  0  0  0  0
  -28.6743  -12.0196   21.3887 H   0  0  0  0  0  0
  -28.4596  -13.6858   21.8525 H   0  0  0  0  0  0
  -25.2754   -9.5725   22.4755 H   0  0  0  0  0  0
  -24.0005   -7.4656   22.7495 H   0  0  0  0  0  0
  -21.0860   -8.8732   19.8942 H   0  0  0  0  0  0
  -22.3669  -10.9653   19.6145 H   0  0  0  0  0  0
  -21.1995   -7.6145   23.9699 H   0  0  0  0  0  0
  -21.1471   -6.0557   25.9078 H   0  0  0  0  0  0
  -22.0588   -2.7619   23.2871 H   0  0  0  0  0  0
  -22.4116  -11.9875   22.4748 H   0  0  0  0  0  0
  -21.1072  -13.1210   22.2537 H   0  0  0  0  0  0
  -24.6728  -15.8567   20.5410 H   0  0  0  0  0  0
  -26.2840  -15.6231   20.0839 H   0  0  0  0  0  0
  -26.7162  -32.5499   23.1171 H   0  0  0  0  0  0
  -25.0109  -33.9765   25.0499 H   0  0  0  0  0  0
  -22.7000  -31.3137   21.4171 H   0  0  0  0  0  0
  -23.3753  -35.9621   23.3273 H   0  0  0  0  0  0
  -24.3593  -36.8933   22.2062 H   0  0  0  0  0  0
  -23.7228  -37.6484   23.6670 H   0  0  0  0  0  0
  -26.0798  -31.5790   20.6134 H   0  0  0  0  0  0
  -26.8256  -30.8554   22.0104 H   0  0  0  0  0  0
  -28.0949  -29.0280   21.2223 H   0  0  0  0  0  0
  -26.0516  -26.0462   18.8724 H   0  0  0  0  0  0
  -23.9849  -27.3550   18.9607 H   0  0  0  0  0  0
  -23.7267  -30.6132   19.4099 H   0  0  0  0  0  0
  -22.7395  -29.2588   19.8667 H   0  0  0  0  0  0
  -25.1278  -36.1935   25.0830 H   0  0  0  0  0  0
  -20.9982  -28.3238   24.1400 H   0  0  0  0  0  0
  -20.5667  -26.2279   23.3598 H   0  0  0  0  0  0
  -21.6643  -26.7439   22.1189 H   0  0  0  0  0  0
  -19.6904  -25.6286   21.1234 H   0  0  0  0  0  0
  -19.6683  -27.3192   20.6726 H   0  0  0  0  0  0
  -17.4191  -26.6688   21.4010 H   0  0  0  0  0  0
  -18.0326  -26.0069   22.9007 H   0  0  0  0  0  0
  -19.7939  -30.7283   24.2235 H   0  0  0  0  0  0
  -17.5019  -31.6256   24.5170 H   0  0  0  0  0  0
  -15.5355  -30.2981   23.7676 H   0  0  0  0  0  0
  -15.8677  -28.0837   22.7052 H   0  0  0  0  0  0
  -24.5910  -30.7068   25.7838 H   0  0  0  0  0  0
  -24.8965  -32.2870   26.4970 H   0  0  0  0  0  0
  -25.8091  -30.8857   27.0254 H   0  0  0  0  0  0
  -26.2941  -29.6750   24.1237 H   0  0  0  0  0  0
  -27.4062  -29.7285   25.4716 H   0  0  0  0  0  0
  -27.8796  -30.4312   23.9434 H   0  0  0  0  0  0
  -27.2647  -33.3629   26.2107 H   0  0  0  0  0  0
  -28.3860  -32.6890   25.0359 H   0  0  0  0  0  0
  -28.0716  -31.8462   26.5459 H   0  0  0  0  0  0
  -28.2568  -38.0127   24.7539 H   0  0  0  0  0  0
  -28.1096  -36.2649   24.6242 H   0  0  0  0  0  0
  -27.2307  -37.1397   25.8875 H   0  0  0  0  0  0
  -20.9318  -29.8759   21.6914 H   0  0  0  0  0  0
  -26.0152  -38.2847   24.1436 H   0  0  0  0  0  0
  -28.3779  -19.1920   19.7172 H   0  0  0  0  0  0
  -30.0582  -25.3744   22.7251 H   0  0  0  0  0  0
  -29.9945  -27.0021   22.0684 H   0  0  0  0  0  0
  -30.6222  -25.6934   21.0832 H   0  0  0  0  0  0
  -31.0031  -16.9600   19.6294 H   0  0  0  0  0  0
  -29.3064  -16.9144   19.3830 H   0  0  0  0  0  0
  -27.8538  -23.9683   22.3624 H   0  0  0  0  0  0
  -27.8022  -26.1411   22.0471 H   0  0  0  0  0  0
  -31.7766  -16.8965   22.5688 H   0  0  0  0  0  0
  -32.0044  -18.1904   23.6301 H   0  0  0  0  0  0
  -27.5236  -21.5879   21.1324 H   0  0  0  0  0  0
  -29.0291  -15.4185   21.2730 H   0  0  0  0  0  0
  1 25  1  0  0  0
  1 30  2  0  0  0
  1 83  1  0  0  0
  2  3  1  0  0  0
  2 25  1  0  0  0
  2 89  1  0  0  0
  2 90  1  0  0  0
  3  4  1  0  0  0
  3 91  1  0  0  0
  3 92  1  0  0  0
  4  5  1  0  0  0
  4 93  1  0  0  0
  4 94  1  0  0  0
  5  6  1  0  0  0
  5 26  1  0  0  0
  5 95  1  0  0  0
  6 25  1  0  0  0
  6 96  1  0  0  0
  6 97  1  0  0  0
  7  8  2  0  0  0
  7 26  1  0  0  0
  7 29  1  0  0  0
  8  9  1  0  0  0
  8 22  1  0  0  0
  9 10  1  0  0  0
  9 27  2  0  0  0
 10 11  2  0  0  0
 10 15  1  0  0  0
 11 12  1  0  0  0
 11 98  1  0  0  0
 12 13  2  0  0  0
 12 99  1  0  0  0
 13 14  1  0  0  0
 13 31  1  0  0  0
 14 15  2  0  0  0
 14100  1  0  0  0
 15101  1  0  0  0
 16 17  2  0  0  0
 16 21  1  0  0  0
 16 31  1  0  0  0
 17 18  1  0  0  0
 17102  1  0  0  0
 18 19  2  0  0  0
 18103  1  0  0  0
 19 20  1  0  0  0
 19 24  1  0  0  0
 20 21  2  0  0  0
 20104  1  0  0  0
 21 23  1  0  0  0
 22 28  1  0  0  0
 22 32  2  0  0  0
 26 27  1  0  0  0
 28105  1  0  0  0
 28106  1  0  0  0
 29107  1  0  0  0
 29108  1  0  0  0
 33 34  1  0  0  0
 33 66  1  0  0  0
 33 70  2  0  0  0
 34 36  1  0  0  0
 34 59  1  0  0  0
 34109  1  0  0  0
 35 44  2  0  0  0
 35 45  1  0  0  0
 35 68  1  0  0  0
 36 56  1  0  0  0
 36110  1  0  0  0
 37 39  1  0  0  0
 37 47  1  0  0  0
 37 66  1  0  0  0
 37111  1  0  0  0
 38 43  2  0  0  0
 38 46  1  0  0  0
 38 47  1  0  0  0
 39 64  1  0  0  0
 39 67  2  0  0  0
 40 52  1  0  0  0
 40 53  2  0  0  0
 40 58  1  0  0  0
 41112  1  0  0  0
 41113  1  0  0  0
 41114  1  0  0  0
 41 48  1  0  0  0
 42 43  1  0  0  0
 42 66  1  0  0  0
 42115  1  0  0  0
 42116  1  0  0  0
 43 44  1  0  0  0
 44117  1  0  0  0
 45 46  2  0  0  0
 45118  1  0  0  0
 46119  1  0  0  0
 47120  1  0  0  0
 47121  1  0  0  0
 48 56  1  0  0  0
 48 65  1  0  0  0
 48122  1  0  0  0
 49 50  1  0  0  0
 49 53  1  0  0  0
 49 64  1  0  0  0
 49123  1  0  0  0
 50 51  1  0  0  0
 50124  1  0  0  0
 50125  1  0  0  0
 51 52  1  0  0  0
 51126  1  0  0  0
 51127  1  0  0  0
 52128  1  0  0  0
 52129  1  0  0  0
 53 54  1  0  0  0
 54 55  2  0  0  0
 54130  1  0  0  0
 55 57  1  0  0  0
 55131  1  0  0  0
 56 69  2  0  0  0
 57 58  2  0  0  0
 57132  1  0  0  0
 58133  1  0  0  0
 59 60  1  0  0  0
 59 61  1  0  0  0
 59 62  1  0  0  0
 60134  1  0  0  0
 60135  1  0  0  0
 60136  1  0  0  0
 61137  1  0  0  0
 61138  1  0  0  0
 61139  1  0  0  0
 62140  1  0  0  0
 62141  1  0  0  0
 62142  1  0  0  0
 63 65  1  0  0  0
 63143  1  0  0  0
 63144  1  0  0  0
 63145  1  0  0  0
 64146  1  0  0  0
 65147  1  0  0  0
 68 79  1  0  0  0
 71 72  1  0  0  0
 71 73  2  0  0  0
 71148  1  0  0  0
 72 74  2  0  0  0
 72 77  1  0  0  0
 73 82  1  0  0  0
 73 88  1  0  0  0
 74 81  1  0  0  0
 74 88  1  0  0  0
 75 82  1  0  0  0
 75 84  2  0  0  0
 75 78  1  0  0  0
 76149  1  0  0  0
 76150  1  0  0  0
 76151  1  0  0  0
 76 79  1  0  0  0
 77 83  1  0  0  0
 77152  1  0  0  0
 77153  1  0  0  0
 78 79  1  0  0  0
 78 80  1  0  0  0
 78154  1  0  0  0
 79155  1  0  0  0
 80 85  1  0  0  0
 80 86  1  0  0  0
 80 87  1  0  0  0
 81156  1  0  0  0
 81157  1  0  0  0
 82158  1  0  0  0
 83159  1  0  0  0
M  ISO  4   1 100  68 101  79 101  83 100
M  END
> <chiral flag>
0

> <version>
0

> <s_m_source_file>
/data/baiqing/PycharmProjects/Reinvent-master-3.2/result/LINK_invent/BTK/process_docking_weight1_custom_product_contain_oxygen_bond_distance_aromatic_linkinvent_7_9_3/rearranged_h_0186.sdf

> <i_m_source_file_index>
30

> <r_mmod_Potential_Energy-OPLS-2005>
61.1324844360352

> <r_mmod_Stretch_Energy-OPLS-2005>
57.1649284362793

> <r_mmod_Bend_Energy-OPLS-2005>
154.784866333008

> <r_mmod_Torsional_Energy-OPLS-2005>
256.636108398438

> <r_mmod_Improper_Torsional_Energy-OPLS-2005>
10.0438823699951

> <r_mmod_Van_der_Waal_Energy-OPLS-2005>
131.138442993164

> <r_mmod_Electrostatic_Energy-OPLS-2005>
-332.511077880859

> <r_mmod_Solvation_Energy-OPLS-2005>
-242.366302490234

> <b_mmod_Minimization_Converged-OPLS-2005>
0

> <r_mmod_RMS_Derivative-OPLS-2005>
3.359041929245

$$$$
31
                    3D
 Structure written by MMmdl.
148156  0  0  1  0            999 V2000
  -30.4452  -15.3169   20.3524 C   0  0  0  0  0  0
  -30.4421  -12.8498   19.5055 C   0  0  0  0  0  0
  -29.5338  -12.5743   18.2785 C   0  0  0  0  0  0
  -28.0861  -12.2937   18.7177 C   0  0  0  0  0  0
  -27.6133  -13.2770   19.8174 C   0  0  2  0  0  0
  -28.6536  -13.4839   20.9429 C   0  0  0  0  0  0
  -25.2419  -13.8236   20.5721 C   0  0  0  0  0  0
  -24.1762  -13.0437   20.9241 C   0  0  0  0  0  0
  -24.6406  -11.6926   20.8724 C   0  0  0  0  0  0
  -23.9077  -10.4291   21.0365 C   0  0  0  0  0  0
  -24.3625   -9.4218   21.9152 C   0  0  0  0  0  0
  -23.6305   -8.2255   22.0747 C   0  0  0  0  0  0
  -22.4282   -8.0275   21.3541 C   0  0  0  0  0  0
  -21.9910   -9.0236   20.4634 C   0  0  0  0  0  0
  -22.7234  -10.2124   20.3027 C   0  0  0  0  0  0
  -21.6858   -6.0719   22.5269 C   0  0  0  0  0  0
  -21.4000   -6.5630   23.8196 C   0  0  0  0  0  0
  -21.3655   -5.6798   24.9173 C   0  0  0  0  0  0
  -21.6050   -4.3061   24.7225 C   0  0  0  0  0  0
  -21.8828   -3.8134   23.4354 C   0  0  0  0  0  0
  -21.9205   -4.6944   22.3403 C   0  0  0  0  0  0
  -22.7779  -13.5197   21.1884 C   0  0  0  0  0  0
  -22.1666   -4.2119   21.0985 F   0  0  0  0  0  0
  -21.5646   -3.4554   25.7741 F   0  0  0  0  0  0
  -29.8729  -14.0051   20.3026 N   0  0  0  0  0  0
  -26.2852  -12.9511   20.3213 N   0  0  0  0  0  0
  -25.9346  -11.6605   20.5674 N   0  0  0  0  0  0
  -22.0431  -12.8184   22.0437 N   0  0  0  0  0  0
  -25.4083  -15.1959   20.4107 N   0  0  0  0  0  0
  -31.6702  -15.2720   20.1567 O   0  0  0  0  0  0
  -21.6666   -6.8856   21.4218 O   0  0  0  0  0  0
  -22.3467  -14.5501   20.6725 O   0  0  0  0  0  0
  -24.6697  -31.8205   23.1750 C   0  0  0  0  0  0
  -25.9381  -32.4567   23.8178 C   0  0  1  0  0  0
  -27.1898  -26.8698   20.1880 C   0  0  0  0  0  0
  -25.6044  -33.8387   24.2056 N   0  0  0  0  0  0
  -23.4834  -30.4401   21.5258 C   0  0  2  0  0  0
  -24.9353  -28.8429   20.1114 C   0  0  0  0  0  0
  -22.7684  -29.4427   22.4757 C   0  0  0  0  0  0
  -18.0332  -28.1402   22.8458 C   0  0  0  0  0  0
  -24.1488  -36.7170   23.2630 C   0  0  0  0  0  0
  -26.0607  -30.6166   21.4115 C   0  0  0  0  0  0
  -26.1270  -29.2052   20.7498 C   0  0  0  0  0  0
  -27.2481  -28.2445   20.7661 C   0  0  0  0  0  0
  -25.9646  -26.7046   19.4863 C   0  0  0  0  0  0
  -24.8827  -27.6095   19.4626 C   0  0  0  0  0  0
  -23.7293  -29.7766   20.1482 C   0  0  0  0  0  0
  -25.4141  -36.2920   24.0256 C   0  0  1  0  0  0
  -20.5950  -28.3754   23.1164 C   0  0  2  0  0  0
  -20.6797  -26.9423   22.5401 C   0  0  0  0  0  0
  -19.5766  -26.6366   21.5209 C   0  0  0  0  0  0
  -18.1957  -26.7931   22.1625 C   0  0  0  0  0  0
  -19.1584  -28.8900   23.2799 C   0  0  0  0  0  0
  -18.9497  -30.1500   23.8812 C   0  0  0  0  0  0
  -17.6483  -30.6592   24.0551 C   0  0  0  0  0  0
  -25.9120  -34.9326   23.4954 C   0  0  0  0  0  0
  -16.5377  -29.9071   23.6355 C   0  0  0  0  0  0
  -16.7304  -28.6508   23.0354 C   0  0  0  0  0  0
  -26.4616  -31.6531   25.0724 C   0  0  0  0  0  0
  -25.3741  -31.3805   26.1376 C   0  0  0  0  0  0
  -27.0480  -30.2870   24.6494 C   0  0  0  0  0  0
  -27.6069  -32.4354   25.7567 C   0  0  0  0  0  0
  -27.5544  -37.1743   24.8454 C   0  0  0  0  0  0
  -21.4347  -29.3044   22.3513 N   0  0  0  0  0  0
  -26.4246  -37.3691   23.9410 N   0  0  0  0  0  0
  -24.7601  -30.9845   22.0906 N   0  0  0  0  0  0
  -23.4216  -28.7969   23.2992 O   0  0  0  0  0  0
  -28.1152  -25.6643   20.3132 O   0  0  0  0  0  0
  -26.5698  -34.8857   22.4529 O   0  0  0  0  0  0
  -23.5768  -32.1189   23.6825 O   0  0  0  0  0  0
  -27.9193  -19.9593   20.8004 C   0  0  0  0  0  0
  -29.1973  -19.5527   20.4033 C   0  0  0  0  0  0
  -28.3625  -22.4260   20.4110 C   0  0  0  0  0  0
  -30.0546  -18.0610   20.3062 C   0  0  0  0  0  0
  -26.4096  -23.9987   20.9842 C   0  0  0  0  0  0
  -27.3956  -23.9667   18.5617 C   0  0  0  0  0  0
  -27.6778  -24.0517   20.0760 C   0  0  0  0  0  0
  -27.5303  -21.3818   20.7670 N   0  0  0  0  0  0
  -29.6987  -16.6145   20.4289 N   0  0  0  0  0  0
  -31.2473  -18.2724   20.0619 O   0  0  0  0  0  0
  -29.8741  -21.3058   20.0063 S   0  0  0  0  0  0
  -31.4528  -13.0583   19.1489 H   0  0  0  0  0  0
  -30.5402  -11.9576   20.1251 H   0  0  0  0  0  0
  -29.9174  -11.7328   17.7021 H   0  0  0  0  0  0
  -29.5524  -13.4354   17.6078 H   0  0  0  0  0  0
  -28.0533  -11.2707   19.0968 H   0  0  0  0  0  0
  -27.4142  -12.3245   17.8582 H   0  0  0  0  0  0
  -27.5183  -14.2347   19.3047 H   0  0  0  0  0  0
  -28.8474  -12.5592   21.4891 H   0  0  0  0  0  0
  -28.2948  -14.2113   21.6729 H   0  0  0  0  0  0
  -25.2743   -9.5729   22.4747 H   0  0  0  0  0  0
  -24.0015   -7.4655   22.7483 H   0  0  0  0  0  0
  -21.0840   -8.8723   19.8943 H   0  0  0  0  0  0
  -22.3633  -10.9657   19.6156 H   0  0  0  0  0  0
  -21.1950   -7.6132   23.9669 H   0  0  0  0  0  0
  -21.1474   -6.0542   25.9075 H   0  0  0  0  0  0
  -22.0603   -2.7587   23.2869 H   0  0  0  0  0  0
  -22.4077  -11.9914   22.4915 H   0  0  0  0  0  0
  -21.0993  -13.1125   22.2524 H   0  0  0  0  0  0
  -24.6359  -15.8458   20.5139 H   0  0  0  0  0  0
  -26.2361  -15.6204   20.0137 H   0  0  0  0  0  0
  -26.7452  -32.5094   23.0893 H   0  0  0  0  0  0
  -25.0194  -33.9479   25.0207 H   0  0  0  0  0  0
  -22.7979  -31.2731   21.3598 H   0  0  0  0  0  0
  -23.3756  -35.9494   23.3264 H   0  0  0  0  0  0
  -24.3546  -36.8867   22.2052 H   0  0  0  0  0  0
  -23.7274  -37.6347   23.6735 H   0  0  0  0  0  0
  -26.2402  -31.3617   20.6350 H   0  0  0  0  0  0
  -26.9174  -30.6733   22.0685 H   0  0  0  0  0  0
  -28.1352  -28.5186   21.3191 H   0  0  0  0  0  0
  -25.7197  -25.7671   19.0196 H   0  0  0  0  0  0
  -23.9708  -27.3120   18.9643 H   0  0  0  0  0  0
  -23.8953  -30.5543   19.4001 H   0  0  0  0  0  0
  -22.8364  -29.2418   19.8221 H   0  0  0  0  0  0
  -25.1366  -36.1644   25.0742 H   0  0  0  0  0  0
  -21.0042  -28.3347   24.1278 H   0  0  0  0  0  0
  -20.5679  -26.2349   23.3643 H   0  0  0  0  0  0
  -21.6661  -26.7385   22.1194 H   0  0  0  0  0  0
  -19.6934  -25.6267   21.1268 H   0  0  0  0  0  0
  -19.6726  -27.3144   20.6715 H   0  0  0  0  0  0
  -17.4232  -26.6656   21.4041 H   0  0  0  0  0  0
  -18.0365  -26.0104   22.9044 H   0  0  0  0  0  0
  -19.7976  -30.7355   24.2113 H   0  0  0  0  0  0
  -17.5038  -31.6256   24.5171 H   0  0  0  0  0  0
  -15.5375  -30.2944   23.7734 H   0  0  0  0  0  0
  -15.8704  -28.0814   22.7072 H   0  0  0  0  0  0
  -24.5960  -30.7103   25.7718 H   0  0  0  0  0  0
  -24.8909  -32.3019   26.4638 H   0  0  0  0  0  0
  -25.7988  -30.9119   27.0266 H   0  0  0  0  0  0
  -26.3138  -29.6574   24.1459 H   0  0  0  0  0  0
  -27.3914  -29.7223   25.5180 H   0  0  0  0  0  0
  -27.9137  -30.3995   23.9961 H   0  0  0  0  0  0
  -27.2589  -33.3704   26.1980 H   0  0  0  0  0  0
  -28.3994  -32.6849   25.0494 H   0  0  0  0  0  0
  -28.0611  -31.8611   26.5659 H   0  0  0  0  0  0
  -28.2514  -38.0075   24.7500 H   0  0  0  0  0  0
  -28.1064  -36.2599   24.6264 H   0  0  0  0  0  0
  -27.2235  -37.1353   25.8841 H   0  0  0  0  0  0
  -20.9577  -29.8782   21.6699 H   0  0  0  0  0  0
  -26.0041  -38.2693   24.1526 H   0  0  0  0  0  0
  -27.1530  -19.2714   21.1296 H   0  0  0  0  0  0
  -26.6816  -23.6376   21.9767 H   0  0  0  0  0  0
  -25.6568  -23.3162   20.5912 H   0  0  0  0  0  0
  -25.8980  -24.9304   21.1904 H   0  0  0  0  0  0
  -26.5053  -23.3792   18.3423 H   0  0  0  0  0  0
  -28.2289  -23.4756   18.0600 H   0  0  0  0  0  0
  -27.3139  -24.9294   18.0622 H   0  0  0  0  0  0
  -28.7126  -16.4708   20.5739 H   0  0  0  0  0  0
  1 25  1  0  0  0
  1 30  2  0  0  0
  1 79  1  0  0  0
  2  3  1  0  0  0
  2 25  1  0  0  0
  2 82  1  0  0  0
  2 83  1  0  0  0
  3  4  1  0  0  0
  3 84  1  0  0  0
  3 85  1  0  0  0
  4  5  1  0  0  0
  4 86  1  0  0  0
  4 87  1  0  0  0
  5  6  1  0  0  0
  5 26  1  0  0  0
  5 88  1  0  0  0
  6 25  1  0  0  0
  6 89  1  0  0  0
  6 90  1  0  0  0
  7  8  2  0  0  0
  7 26  1  0  0  0
  7 29  1  0  0  0
  8  9  1  0  0  0
  8 22  1  0  0  0
  9 10  1  0  0  0
  9 27  2  0  0  0
 10 11  2  0  0  0
 10 15  1  0  0  0
 11 12  1  0  0  0
 11 91  1  0  0  0
 12 13  2  0  0  0
 12 92  1  0  0  0
 13 14  1  0  0  0
 13 31  1  0  0  0
 14 15  2  0  0  0
 14 93  1  0  0  0
 15 94  1  0  0  0
 16 17  2  0  0  0
 16 21  1  0  0  0
 16 31  1  0  0  0
 17 18  1  0  0  0
 17 95  1  0  0  0
 18 19  2  0  0  0
 18 96  1  0  0  0
 19 20  1  0  0  0
 19 24  1  0  0  0
 20 21  2  0  0  0
 20 97  1  0  0  0
 21 23  1  0  0  0
 22 28  1  0  0  0
 22 32  2  0  0  0
 26 27  1  0  0  0
 28 98  1  0  0  0
 28 99  1  0  0  0
 29100  1  0  0  0
 29101  1  0  0  0
 33 34  1  0  0  0
 33 66  1  0  0  0
 33 70  2  0  0  0
 34 36  1  0  0  0
 34 59  1  0  0  0
 34102  1  0  0  0
 35 44  2  0  0  0
 35 45  1  0  0  0
 35 68  1  0  0  0
 36 56  1  0  0  0
 36103  1  0  0  0
 37 39  1  0  0  0
 37 47  1  0  0  0
 37 66  1  0  0  0
 37104  1  0  0  0
 38 43  2  0  0  0
 38 46  1  0  0  0
 38 47  1  0  0  0
 39 64  1  0  0  0
 39 67  2  0  0  0
 40 52  1  0  0  0
 40 53  2  0  0  0
 40 58  1  0  0  0
 41105  1  0  0  0
 41106  1  0  0  0
 41107  1  0  0  0
 41 48  1  0  0  0
 42 43  1  0  0  0
 42 66  1  0  0  0
 42108  1  0  0  0
 42109  1  0  0  0
 43 44  1  0  0  0
 44110  1  0  0  0
 45 46  2  0  0  0
 45111  1  0  0  0
 46112  1  0  0  0
 47113  1  0  0  0
 47114  1  0  0  0
 48 56  1  0  0  0
 48 65  1  0  0  0
 48115  1  0  0  0
 49 50  1  0  0  0
 49 53  1  0  0  0
 49 64  1  0  0  0
 49116  1  0  0  0
 50 51  1  0  0  0
 50117  1  0  0  0
 50118  1  0  0  0
 51 52  1  0  0  0
 51119  1  0  0  0
 51120  1  0  0  0
 52121  1  0  0  0
 52122  1  0  0  0
 53 54  1  0  0  0
 54 55  2  0  0  0
 54123  1  0  0  0
 55 57  1  0  0  0
 55124  1  0  0  0
 56 69  2  0  0  0
 57 58  2  0  0  0
 57125  1  0  0  0
 58126  1  0  0  0
 59 60  1  0  0  0
 59 61  1  0  0  0
 59 62  1  0  0  0
 60127  1  0  0  0
 60128  1  0  0  0
 60129  1  0  0  0
 61130  1  0  0  0
 61131  1  0  0  0
 61132  1  0  0  0
 62133  1  0  0  0
 62134  1  0  0  0
 62135  1  0  0  0
 63 65  1  0  0  0
 63136  1  0  0  0
 63137  1  0  0  0
 63138  1  0  0  0
 64139  1  0  0  0
 65140  1  0  0  0
 68 77  1  0  0  0
 71 72  2  0  0  0
 71 78  1  0  0  0
 71141  1  0  0  0
 72 74  1  0  0  0
 72 81  1  0  0  0
 73 77  1  0  0  0
 73 78  2  0  0  0
 73 81  1  0  0  0
 74 79  1  0  0  0
 74 80  2  0  0  0
 75142  1  0  0  0
 75143  1  0  0  0
 75144  1  0  0  0
 75 77  1  0  0  0
 76 77  1  0  0  0
 76145  1  0  0  0
 76146  1  0  0  0
 76147  1  0  0  0
 79148  1  0  0  0
M  ISO  4   1 100  68 101  77 101  79 100
M  END
> <chiral flag>
0

> <version>
0

> <s_m_source_file>
/data/baiqing/PycharmProjects/Reinvent-master-3.2/result/LINK_invent/BTK/process_docking_weight1_custom_product_contain_oxygen_bond_distance_aromatic_linkinvent_7_9_3/rearranged_h_0186.sdf

> <i_m_source_file_index>
31

> <r_mmod_Potential_Energy-OPLS-2005>
1463.98425292969

> <r_mmod_Stretch_Energy-OPLS-2005>
637.205871582031

> <r_mmod_Bend_Energy-OPLS-2005>
577.679504394531

> <r_mmod_Torsional_Energy-OPLS-2005>
212.54899597168

> <r_mmod_Improper_Torsional_Energy-OPLS-2005>
9.01493453979492

> <r_mmod_Van_der_Waal_Energy-OPLS-2005>
134.810546875

> <r_mmod_Electrostatic_Energy-OPLS-2005>
-410.619903564453

> <r_mmod_Solvation_Energy-OPLS-2005>
-235.043045043945

> <b_mmod_Minimization_Converged-OPLS-2005>
0

> <r_mmod_RMS_Derivative-OPLS-2005>
3.61174964904785

$$$$
32
                    3D
 Structure written by MMmdl.
156164  0  0  1  0            999 V2000
  -30.7042  -14.4982   20.5398 C   0  0  0  0  0  0
  -30.4112  -12.3146   19.4333 C   0  0  0  0  0  0
  -29.4908  -12.4998   18.2098 C   0  0  0  0  0  0
  -28.0114  -12.3679   18.6184 C   0  0  0  0  0  0
  -27.6549  -13.2153   19.8700 C   0  0  2  0  0  0
  -28.6979  -13.0324   20.9955 C   0  0  0  0  0  0
  -25.2550  -13.8184   20.5673 C   0  0  0  0  0  0
  -24.1821  -13.0447   20.9187 C   0  0  0  0  0  0
  -24.6391  -11.6916   20.8743 C   0  0  0  0  0  0
  -23.9061  -10.4297   21.0400 C   0  0  0  0  0  0
  -24.3612   -9.4212   21.9179 C   0  0  0  0  0  0
  -23.6286   -8.2249   22.0755 C   0  0  0  0  0  0
  -22.4273   -8.0282   21.3542 C   0  0  0  0  0  0
  -21.9905   -9.0254   20.4646 C   0  0  0  0  0  0
  -22.7233  -10.2134   20.3048 C   0  0  0  0  0  0
  -21.6855   -6.0729   22.5278 C   0  0  0  0  0  0
  -21.4019   -6.5631   23.8212 C   0  0  0  0  0  0
  -21.3663   -5.6792   24.9172 C   0  0  0  0  0  0
  -21.6044   -4.3054   24.7233 C   0  0  0  0  0  0
  -21.8822   -3.8137   23.4355 C   0  0  0  0  0  0
  -21.9194   -4.6951   22.3400 C   0  0  0  0  0  0
  -22.7838  -13.5228   21.1859 C   0  0  0  0  0  0
  -22.1659   -4.2130   21.0982 F   0  0  0  0  0  0
  -21.5631   -3.4538   25.7749 F   0  0  0  0  0  0
  -30.0217  -13.3248   20.4311 N   0  0  0  0  0  0
  -26.2990  -12.9369   20.3345 N   0  0  0  0  0  0
  -25.9317  -11.6516   20.5775 N   0  0  0  0  0  0
  -22.0494  -12.8203   22.0409 N   0  0  0  0  0  0
  -25.4247  -15.1904   20.4049 N   0  0  0  0  0  0
  -31.8613  -14.6273   20.1323 O   0  0  0  0  0  0
  -21.6648   -6.8875   21.4240 O   0  0  0  0  0  0
  -22.3526  -14.5542   20.6721 O   0  0  0  0  0  0
  -24.6179  -31.8666   23.2096 C   0  0  0  0  0  0
  -25.9066  -32.4806   23.8392 C   0  0  1  0  0  0
  -27.2161  -27.3917   20.1107 C   0  0  0  0  0  0
  -25.5920  -33.8603   24.2316 N   0  0  0  0  0  0
  -23.4063  -30.4903   21.5524 C   0  0  2  0  0  0
  -24.8517  -28.9532   20.1130 C   0  0  0  0  0  0
  -22.7423  -29.4637   22.4990 C   0  0  0  0  0  0
  -18.0269  -28.1358   22.8478 C   0  0  0  0  0  0
  -24.1491  -36.7306   23.2642 C   0  0  0  0  0  0
  -25.9397  -30.8171   21.3717 C   0  0  0  0  0  0
  -26.0133  -29.4477   20.7201 C   0  0  0  0  0  0
  -27.2018  -28.6741   20.7169 C   0  0  0  0  0  0
  -26.0493  -26.9386   19.4665 C   0  0  0  0  0  0
  -24.8669  -27.6993   19.4791 C   0  0  0  0  0  0
  -23.6178  -29.8275   20.1647 C   0  0  0  0  0  0
  -25.4113  -36.3107   24.0337 C   0  0  1  0  0  0
  -20.5860  -28.3667   23.1300 C   0  0  2  0  0  0
  -20.6778  -26.9404   22.5406 C   0  0  0  0  0  0
  -19.5761  -26.6377   21.5195 C   0  0  0  0  0  0
  -18.1931  -26.7907   22.1604 C   0  0  0  0  0  0
  -19.1517  -28.8830   23.2893 C   0  0  0  0  0  0
  -18.9459  -30.1437   23.8908 C   0  0  0  0  0  0
  -17.6466  -30.6587   24.0547 C   0  0  0  0  0  0
  -25.9050  -34.9465   23.5117 C   0  0  0  0  0  0
  -16.5354  -29.9077   23.6315 C   0  0  0  0  0  0
  -16.7261  -28.6485   23.0342 C   0  0  0  0  0  0
  -26.4482  -31.6601   25.0728 C   0  0  0  0  0  0
  -25.3721  -31.3706   26.1459 C   0  0  0  0  0  0
  -27.0321  -30.3035   24.6122 C   0  0  0  0  0  0
  -27.6061  -32.4314   25.7485 C   0  0  0  0  0  0
  -27.5596  -37.1808   24.8470 C   0  0  0  0  0  0
  -21.4152  -29.3025   22.3716 N   0  0  0  0  0  0
  -26.4308  -37.3783   23.9409 N   0  0  0  0  0  0
  -24.6734  -31.0727   22.1018 N   0  0  0  0  0  0
  -23.4190  -28.8192   23.3049 O   0  0  0  0  0  0
  -28.3497  -26.6021   20.0957 O   0  0  0  0  0  0
  -26.5620  -34.8918   22.4683 O   0  0  0  0  0  0
  -23.5365  -32.1452   23.7475 O   0  0  0  0  0  0
  -28.7734  -18.3606   22.1889 C   0  0  0  0  0  0
  -29.6481  -18.1343   21.1412 C   0  0  0  0  0  0
  -28.5685  -20.3875   21.1221 C   0  0  0  0  0  0
  -28.5466  -22.7923   20.3544 C   0  0  0  0  0  0
  -26.2403  -23.8391   20.8251 C   0  0  0  0  0  0
  -30.5619  -16.9506   20.8730 C   0  0  0  0  0  0
  -28.3241  -25.3809   20.8881 C   0  0  0  0  0  0
  -27.6681  -24.0877   20.2721 C   0  0  1  0  0  0
  -28.4698  -17.4286   23.3433 C   0  0  0  0  0  0
  -28.1266  -19.6153   22.1172 N   0  0  0  0  0  0
  -28.0306  -21.7011   20.9689 N   0  0  0  0  0  0
  -29.9976  -15.5839   20.9314 N   0  0  0  0  0  0
  -29.6733  -22.7948   19.8533 O   0  0  0  0  0  0
  -29.5363  -16.7065   23.6913 F   0  0  0  0  0  0
  -28.0891  -18.1047   24.4305 F   0  0  0  0  0  0
  -27.4913  -16.5789   23.0306 F   0  0  0  0  0  0
  -29.7455  -19.5570   20.1010 S   0  0  0  0  0  0
  -31.4576  -12.3941   19.1371 H   0  0  0  0  0  0
  -30.2964  -11.3129   19.8490 H   0  0  0  0  0  0
  -29.7325  -11.7684   17.4374 H   0  0  0  0  0  0
  -29.6604  -13.4810   17.7625 H   0  0  0  0  0  0
  -27.8143  -11.3136   18.8121 H   0  0  0  0  0  0
  -27.3664  -12.6469   17.7846 H   0  0  0  0  0  0
  -27.6878  -14.2590   19.5556 H   0  0  0  0  0  0
  -28.6769  -12.0100   21.3750 H   0  0  0  0  0  0
  -28.4691  -13.6712   21.8488 H   0  0  0  0  0  0
  -25.2765   -9.5692   22.4746 H   0  0  0  0  0  0
  -24.0001   -7.4645   22.7477 H   0  0  0  0  0  0
  -21.0842   -8.8773   19.8948 H   0  0  0  0  0  0
  -22.3696  -10.9671   19.6151 H   0  0  0  0  0  0
  -21.2015   -7.6147   23.9707 H   0  0  0  0  0  0
  -21.1480   -6.0525   25.9079 H   0  0  0  0  0  0
  -22.0598   -2.7598   23.2866 H   0  0  0  0  0  0
  -22.4137  -11.9848   22.4745 H   0  0  0  0  0  0
  -21.1123  -13.1219   22.2643 H   0  0  0  0  0  0
  -24.6551  -15.8418   20.5138 H   0  0  0  0  0  0
  -26.2686  -15.6301   20.0633 H   0  0  0  0  0  0
  -26.7141  -32.5521   23.1164 H   0  0  0  0  0  0
  -25.0056  -33.9755   25.0449 H   0  0  0  0  0  0
  -22.6972  -31.3091   21.4159 H   0  0  0  0  0  0
  -23.3758  -35.9644   23.3300 H   0  0  0  0  0  0
  -24.3584  -36.8909   22.2063 H   0  0  0  0  0  0
  -23.7245  -37.6506   23.6655 H   0  0  0  0  0  0
  -26.0578  -31.5830   20.6044 H   0  0  0  0  0  0
  -26.8248  -30.8653   21.9965 H   0  0  0  0  0  0
  -28.0988  -29.0474   21.1923 H   0  0  0  0  0  0
  -26.0460  -25.9922   18.9486 H   0  0  0  0  0  0
  -23.9798  -27.3235   18.9851 H   0  0  0  0  0  0
  -23.7335  -30.6048   19.4081 H   0  0  0  0  0  0
  -22.7381  -29.2545   19.8648 H   0  0  0  0  0  0
  -25.1282  -36.1985   25.0832 H   0  0  0  0  0  0
  -20.9935  -28.3258   24.1426 H   0  0  0  0  0  0
  -20.5673  -26.2285   23.3612 H   0  0  0  0  0  0
  -21.6646  -26.7457   22.1196 H   0  0  0  0  0  0
  -19.6926  -25.6284   21.1233 H   0  0  0  0  0  0
  -19.6683  -27.3195   20.6736 H   0  0  0  0  0  0
  -17.4195  -26.6651   21.4015 H   0  0  0  0  0  0
  -18.0320  -26.0042   22.8989 H   0  0  0  0  0  0
  -19.7949  -30.7214   24.2288 H   0  0  0  0  0  0
  -17.5037  -31.6260   24.5165 H   0  0  0  0  0  0
  -15.5358  -30.2990   23.7639 H   0  0  0  0  0  0
  -15.8662  -28.0825   22.7046 H   0  0  0  0  0  0
  -24.5934  -30.6993   25.7806 H   0  0  0  0  0  0
  -24.8850  -32.2842   26.4866 H   0  0  0  0  0  0
  -25.8052  -30.8938   27.0253 H   0  0  0  0  0  0
  -26.2871  -29.6771   24.1193 H   0  0  0  0  0  0
  -27.4100  -29.7304   25.4602 H   0  0  0  0  0  0
  -27.8704  -30.4335   23.9268 H   0  0  0  0  0  0
  -27.2698  -33.3642   26.2029 H   0  0  0  0  0  0
  -28.3889  -32.6800   25.0299 H   0  0  0  0  0  0
  -28.0692  -31.8430   26.5426 H   0  0  0  0  0  0
  -28.2609  -38.0115   24.7517 H   0  0  0  0  0  0
  -28.1087  -36.2633   24.6281 H   0  0  0  0  0  0
  -27.2303  -37.1433   25.8872 H   0  0  0  0  0  0
  -20.9348  -29.8762   21.6937 H   0  0  0  0  0  0
  -26.0207  -38.2861   24.1400 H   0  0  0  0  0  0
  -25.7097  -23.0850   20.2383 H   0  0  0  0  0  0
  -25.6263  -24.7355   20.8039 H   0  0  0  0  0  0
  -26.2589  -23.5098   21.8645 H   0  0  0  0  0  0
  -31.4007  -16.9948   21.5697 H   0  0  0  0  0  0
  -31.0060  -17.0844   19.8840 H   0  0  0  0  0  0
  -29.3694  -25.1710   21.1184 H   0  0  0  0  0  0
  -27.8717  -25.5997   21.8577 H   0  0  0  0  0  0
  -27.5761  -24.2746   19.2033 H   0  0  0  0  0  0
  -27.1363  -21.8488   21.4123 H   0  0  0  0  0  0
  -29.0289  -15.4514   21.1747 H   0  0  0  0  0  0
  1 25  1  0  0  0
  1 30  2  0  0  0
  1 82  1  0  0  0
  2  3  1  0  0  0
  2 25  1  0  0  0
  2 88  1  0  0  0
  2 89  1  0  0  0
  3  4  1  0  0  0
  3 90  1  0  0  0
  3 91  1  0  0  0
  4  5  1  0  0  0
  4 92  1  0  0  0
  4 93  1  0  0  0
  5  6  1  0  0  0
  5 26  1  0  0  0
  5 94  1  0  0  0
  6 25  1  0  0  0
  6 95  1  0  0  0
  6 96  1  0  0  0
  7  8  2  0  0  0
  7 26  1  0  0  0
  7 29  1  0  0  0
  8  9  1  0  0  0
  8 22  1  0  0  0
  9 10  1  0  0  0
  9 27  2  0  0  0
 10 11  2  0  0  0
 10 15  1  0  0  0
 11 12  1  0  0  0
 11 97  1  0  0  0
 12 13  2  0  0  0
 12 98  1  0  0  0
 13 14  1  0  0  0
 13 31  1  0  0  0
 14 15  2  0  0  0
 14 99  1  0  0  0
 15100  1  0  0  0
 16 17  2  0  0  0
 16 21  1  0  0  0
 16 31  1  0  0  0
 17 18  1  0  0  0
 17101  1  0  0  0
 18 19  2  0  0  0
 18102  1  0  0  0
 19 20  1  0  0  0
 19 24  1  0  0  0
 20 21  2  0  0  0
 20103  1  0  0  0
 21 23  1  0  0  0
 22 28  1  0  0  0
 22 32  2  0  0  0
 26 27  1  0  0  0
 28104  1  0  0  0
 28105  1  0  0  0
 29106  1  0  0  0
 29107  1  0  0  0
 33 34  1  0  0  0
 33 66  1  0  0  0
 33 70  2  0  0  0
 34 36  1  0  0  0
 34 59  1  0  0  0
 34108  1  0  0  0
 35 44  2  0  0  0
 35 45  1  0  0  0
 35 68  1  0  0  0
 36 56  1  0  0  0
 36109  1  0  0  0
 37 39  1  0  0  0
 37 47  1  0  0  0
 37 66  1  0  0  0
 37110  1  0  0  0
 38 43  2  0  0  0
 38 46  1  0  0  0
 38 47  1  0  0  0
 39 64  1  0  0  0
 39 67  2  0  0  0
 40 52  1  0  0  0
 40 53  2  0  0  0
 40 58  1  0  0  0
 41111  1  0  0  0
 41112  1  0  0  0
 41113  1  0  0  0
 41 48  1  0  0  0
 42 43  1  0  0  0
 42 66  1  0  0  0
 42114  1  0  0  0
 42115  1  0  0  0
 43 44  1  0  0  0
 44116  1  0  0  0
 45 46  2  0  0  0
 45117  1  0  0  0
 46118  1  0  0  0
 47119  1  0  0  0
 47120  1  0  0  0
 48 56  1  0  0  0
 48 65  1  0  0  0
 48121  1  0  0  0
 49 50  1  0  0  0
 49 53  1  0  0  0
 49 64  1  0  0  0
 49122  1  0  0  0
 50 51  1  0  0  0
 50123  1  0  0  0
 50124  1  0  0  0
 51 52  1  0  0  0
 51125  1  0  0  0
 51126  1  0  0  0
 52127  1  0  0  0
 52128  1  0  0  0
 53 54  1  0  0  0
 54 55  2  0  0  0
 54129  1  0  0  0
 55 57  1  0  0  0
 55130  1  0  0  0
 56 69  2  0  0  0
 57 58  2  0  0  0
 57131  1  0  0  0
 58132  1  0  0  0
 59 60  1  0  0  0
 59 61  1  0  0  0
 59 62  1  0  0  0
 60133  1  0  0  0
 60134  1  0  0  0
 60135  1  0  0  0
 61136  1  0  0  0
 61137  1  0  0  0
 61138  1  0  0  0
 62139  1  0  0  0
 62140  1  0  0  0
 62141  1  0  0  0
 63 65  1  0  0  0
 63142  1  0  0  0
 63143  1  0  0  0
 63144  1  0  0  0
 64145  1  0  0  0
 65146  1  0  0  0
 68 77  1  0  0  0
 71 72  2  0  0  0
 71 79  1  0  0  0
 71 80  1  0  0  0
 72 76  1  0  0  0
 72 87  1  0  0  0
 73 80  2  0  0  0
 73 81  1  0  0  0
 73 87  1  0  0  0
 74 78  1  0  0  0
 74 81  1  0  0  0
 74 83  2  0  0  0
 75147  1  0  0  0
 75148  1  0  0  0
 75149  1  0  0  0
 75 78  1  0  0  0
 76 82  1  0  0  0
 76150  1  0  0  0
 76151  1  0  0  0
 77 78  1  0  0  0
 77152  1  0  0  0
 77153  1  0  0  0
 78154  1  0  0  0
 79 84  1  0  0  0
 79 85  1  0  0  0
 79 86  1  0  0  0
 81155  1  0  0  0
 82156  1  0  0  0
M  ISO  4   1 100  68 101  77 101  82 100
M  END
> <chiral flag>
0

> <version>
0

> <s_m_source_file>
/data/baiqing/PycharmProjects/Reinvent-master-3.2/result/LINK_invent/BTK/process_docking_weight1_custom_product_contain_oxygen_bond_distance_aromatic_linkinvent_7_9_3/rearranged_h_0186.sdf

> <i_m_source_file_index>
32

> <r_mmod_Potential_Energy-OPLS-2005>
-77.9109573364258

> <r_mmod_Stretch_Energy-OPLS-2005>
45.6401672363281

> <r_mmod_Bend_Energy-OPLS-2005>
116.309410095215

> <r_mmod_Torsional_Energy-OPLS-2005>
240.659378051758

> <r_mmod_Improper_Torsional_Energy-OPLS-2005>
4.77682828903198

> <r_mmod_Van_der_Waal_Energy-OPLS-2005>
125.904487609863

> <r_mmod_Electrostatic_Energy-OPLS-2005>
-413.179443359375

> <r_mmod_Solvation_Energy-OPLS-2005>
-218.291946411133

> <b_mmod_Minimization_Converged-OPLS-2005>
0

> <r_mmod_RMS_Derivative-OPLS-2005>
2.98107886314392

$$$$
33
                    3D
 Structure written by MMmdl.
153161  0  0  1  0            999 V2000
  -30.4736  -15.0720   20.3972 C   0  0  0  0  0  0
  -30.4375  -12.6692   19.5106 C   0  0  0  0  0  0
  -29.5254  -12.5420   18.2641 C   0  0  0  0  0  0
  -28.0574  -12.3017   18.6802 C   0  0  0  0  0  0
  -27.6114  -13.2553   19.8205 C   0  0  2  0  0  0
  -28.6506  -13.3306   20.9584 C   0  0  0  0  0  0
  -25.2411  -13.8225   20.5721 C   0  0  0  0  0  0
  -24.1737  -13.0444   20.9290 C   0  0  0  0  0  0
  -24.6333  -11.6937   20.8753 C   0  0  0  0  0  0
  -23.8991  -10.4307   21.0402 C   0  0  0  0  0  0
  -24.3578   -9.4239   21.9186 C   0  0  0  0  0  0
  -23.6325   -8.2221   22.0695 C   0  0  0  0  0  0
  -22.4286   -8.0244   21.3505 C   0  0  0  0  0  0
  -21.9921   -9.0197   20.4592 C   0  0  0  0  0  0
  -22.7178  -10.2145   20.3043 C   0  0  0  0  0  0
  -21.6849   -6.0719   22.5280 C   0  0  0  0  0  0
  -21.3978   -6.5634   23.8222 C   0  0  0  0  0  0
  -21.3657   -5.6787   24.9194 C   0  0  0  0  0  0
  -21.6053   -4.3033   24.7234 C   0  0  0  0  0  0
  -21.8808   -3.8127   23.4351 C   0  0  0  0  0  0
  -21.9181   -4.6941   22.3403 C   0  0  0  0  0  0
  -22.7753  -13.5187   21.1993 C   0  0  0  0  0  0
  -22.1666   -4.2149   21.0988 F   0  0  0  0  0  0
  -21.5655   -3.4525   25.7744 F   0  0  0  0  0  0
  -29.9090  -13.7857   20.3556 N   0  0  0  0  0  0
  -26.2775  -12.9428   20.3115 N   0  0  0  0  0  0
  -25.9240  -11.6578   20.5656 N   0  0  0  0  0  0
  -22.0381  -12.8182   22.0515 N   0  0  0  0  0  0
  -25.4088  -15.1946   20.4112 N   0  0  0  0  0  0
  -31.6938  -15.1136   20.1737 O   0  0  0  0  0  0
  -21.6621   -6.8884   21.4254 O   0  0  0  0  0  0
  -22.3424  -14.5489   20.6804 O   0  0  0  0  0  0
  -24.6523  -31.8409   23.1862 C   0  0  0  0  0  0
  -25.9250  -32.4692   23.8278 C   0  0  1  0  0  0
  -27.1936  -27.0608   20.1537 C   0  0  0  0  0  0
  -25.5995  -33.8505   24.2210 N   0  0  0  0  0  0
  -23.4560  -30.4592   21.5319 C   0  0  2  0  0  0
  -24.9027  -28.8764   20.1138 C   0  0  0  0  0  0
  -22.7592  -29.4542   22.4837 C   0  0  0  0  0  0
  -18.0297  -28.1387   22.8457 C   0  0  0  0  0  0
  -24.1491  -36.7238   23.2628 C   0  0  0  0  0  0
  -26.0192  -30.6886   21.3955 C   0  0  0  0  0  0
  -26.0879  -29.2937   20.7349 C   0  0  0  0  0  0
  -27.2391  -28.4035   20.7323 C   0  0  0  0  0  0
  -25.9878  -26.7687   19.4833 C   0  0  0  0  0  0
  -24.8703  -27.6305   19.4672 C   0  0  0  0  0  0
  -23.6863  -29.7921   20.1535 C   0  0  0  0  0  0
  -25.4143  -36.3043   24.0311 C   0  0  1  0  0  0
  -20.5918  -28.3731   23.1228 C   0  0  2  0  0  0
  -20.6790  -26.9431   22.5414 C   0  0  0  0  0  0
  -19.5784  -26.6365   21.5203 C   0  0  0  0  0  0
  -18.1952  -26.7919   22.1592 C   0  0  0  0  0  0
  -19.1549  -28.8878   23.2823 C   0  0  0  0  0  0
  -18.9471  -30.1462   23.8862 C   0  0  0  0  0  0
  -17.6473  -30.6595   24.0543 C   0  0  0  0  0  0
  -25.9088  -34.9420   23.5084 C   0  0  0  0  0  0
  -16.5359  -29.9084   23.6332 C   0  0  0  0  0  0
  -16.7277  -28.6490   23.0366 C   0  0  0  0  0  0
  -26.4573  -31.6542   25.0708 C   0  0  0  0  0  0
  -25.3749  -31.3743   26.1386 C   0  0  0  0  0  0
  -27.0416  -30.2913   24.6316 C   0  0  0  0  0  0
  -27.6122  -32.4276   25.7498 C   0  0  0  0  0  0
  -27.5607  -37.1778   24.8472 C   0  0  0  0  0  0
  -21.4277  -29.3049   22.3581 N   0  0  0  0  0  0
  -26.4301  -37.3763   23.9416 N   0  0  0  0  0  0
  -24.7290  -31.0184   22.0934 N   0  0  0  0  0  0
  -23.4212  -28.8090   23.3011 O   0  0  0  0  0  0
  -28.2061  -26.0142   20.1699 O   0  0  0  0  0  0
  -26.5663  -34.8903   22.4652 O   0  0  0  0  0  0
  -23.5616  -32.1349   23.7012 O   0  0  0  0  0  0
  -29.6011  -20.3413   20.4595 C   0  0  0  0  0  0
  -30.9605  -20.1288   20.5701 C   0  0  0  0  0  0
  -29.9255  -17.8163   20.4382 C   0  0  0  0  0  0
  -28.6104  -23.0707   18.4173 C   0  0  0  0  0  0
  -27.4301  -23.0303   17.4543 C   0  0  0  0  0  0
  -28.0065  -24.4553   22.0690 C   0  0  0  0  0  0
  -28.2787  -22.9402   19.9025 C   0  0  2  0  0  0
  -27.8771  -24.5047   20.5444 C   0  0  2  0  0  0
  -29.0341  -18.9449   20.3861 N   0  0  0  0  0  0
  -29.0836  -21.7874   20.6355 N   0  0  0  0  0  0
  -29.6640  -16.2740   20.4700 N   0  0  0  0  0  0
  -29.7595  -23.1909   17.9877 O   0  0  0  0  0  0
  -31.8317  -21.1502   20.7598 F   0  0  0  0  0  0
  -31.5628  -18.4600   20.5471 S   0  0  0  0  0  0
  -31.4649  -12.8530   19.1957 H   0  0  0  0  0  0
  -30.4641  -11.7301   20.0655 H   0  0  0  0  0  0
  -29.8842  -11.7447   17.6109 H   0  0  0  0  0  0
  -29.5844  -13.4560   17.6743 H   0  0  0  0  0  0
  -27.9698  -11.2658   19.0081 H   0  0  0  0  0  0
  -27.3955  -12.3922   17.8173 H   0  0  0  0  0  0
  -27.5601  -14.2430   19.3590 H   0  0  0  0  0  0
  -28.7738  -12.3580   21.4432 H   0  0  0  0  0  0
  -28.3265  -14.0343   21.7241 H   0  0  0  0  0  0
  -25.2739   -9.5734   22.4748 H   0  0  0  0  0  0
  -24.0042   -7.4585   22.7383 H   0  0  0  0  0  0
  -21.0848   -8.8655   19.8916 H   0  0  0  0  0  0
  -22.3577  -10.9640   19.6109 H   0  0  0  0  0  0
  -21.1953   -7.6136   23.9742 H   0  0  0  0  0  0
  -21.1517   -6.0509   25.9120 H   0  0  0  0  0  0
  -22.0606   -2.7582   23.2828 H   0  0  0  0  0  0
  -22.4003  -11.9821   22.4911 H   0  0  0  0  0  0
  -21.0935  -13.1148   22.2669 H   0  0  0  0  0  0
  -24.6416  -15.8486   20.5119 H   0  0  0  0  0  0
  -26.2459  -15.6172   20.0258 H   0  0  0  0  0  0
  -26.7307  -32.5285   23.0986 H   0  0  0  0  0  0
  -25.0180  -33.9684   25.0383 H   0  0  0  0  0  0
  -22.7583  -31.2851   21.3782 H   0  0  0  0  0  0
  -23.3799  -35.9521   23.3303 H   0  0  0  0  0  0
  -24.3559  -36.8865   22.2040 H   0  0  0  0  0  0
  -23.7197  -37.6413   23.6658 H   0  0  0  0  0  0
  -26.1886  -31.4371   20.6204 H   0  0  0  0  0  0
  -26.8878  -30.7411   22.0405 H   0  0  0  0  0  0
  -28.1472  -28.7188   21.2257 H   0  0  0  0  0  0
  -25.8864  -25.8242   18.9696 H   0  0  0  0  0  0
  -23.9702  -27.3079   18.9591 H   0  0  0  0  0  0
  -23.8357  -30.5702   19.4049 H   0  0  0  0  0  0
  -22.7985  -29.2441   19.8339 H   0  0  0  0  0  0
  -25.1321  -36.1893   25.0794 H   0  0  0  0  0  0
  -21.0016  -28.3340   24.1348 H   0  0  0  0  0  0
  -20.5684  -26.2356   23.3645 H   0  0  0  0  0  0
  -21.6659  -26.7458   22.1210 H   0  0  0  0  0  0
  -19.6980  -25.6266   21.1261 H   0  0  0  0  0  0
  -19.6743  -27.3146   20.6702 H   0  0  0  0  0  0
  -17.4241  -26.6667   21.3969 H   0  0  0  0  0  0
  -18.0346  -26.0071   22.9001 H   0  0  0  0  0  0
  -19.7945  -30.7250   24.2267 H   0  0  0  0  0  0
  -17.5036  -31.6268   24.5137 H   0  0  0  0  0  0
  -15.5367  -30.2995   23.7673 H   0  0  0  0  0  0
  -15.8657  -28.0803   22.7140 H   0  0  0  0  0  0
  -24.5950  -30.7074   25.7693 H   0  0  0  0  0  0
  -24.8915  -32.2923   26.4725 H   0  0  0  0  0  0
  -25.8018  -30.8972   27.0218 H   0  0  0  0  0  0
  -26.3017  -29.6618   24.1354 H   0  0  0  0  0  0
  -27.4027  -29.7218   25.4893 H   0  0  0  0  0  0
  -27.8948  -30.4096   23.9635 H   0  0  0  0  0  0
  -27.2759  -33.3613   26.2002 H   0  0  0  0  0  0
  -28.3983  -32.6763   25.0359 H   0  0  0  0  0  0
  -28.0726  -31.8433   26.5472 H   0  0  0  0  0  0
  -28.2605  -38.0088   24.7542 H   0  0  0  0  0  0
  -28.1121  -36.2638   24.6269 H   0  0  0  0  0  0
  -27.2328  -37.1364   25.8863 H   0  0  0  0  0  0
  -20.9504  -29.8770   21.6757 H   0  0  0  0  0  0
  -26.0202  -38.2832   24.1426 H   0  0  0  0  0  0
  -27.1344  -21.9941   17.2807 H   0  0  0  0  0  0
  -27.6845  -23.4837   16.4973 H   0  0  0  0  0  0
  -26.5837  -23.5695   17.8816 H   0  0  0  0  0  0
  -27.5984  -23.5215   22.4565 H   0  0  0  0  0  0
  -27.4574  -25.2762   22.5392 H   0  0  0  0  0  0
  -29.0490  -24.5235   22.3790 H   0  0  0  0  0  0
  -27.2976  -22.4631   19.9202 H   0  0  0  0  0  0
  -26.7988  -24.4725   20.3895 H   0  0  0  0  0  0
  -29.8835  -22.2758   21.0250 H   0  0  0  0  0  0
  -28.6866  -16.0531   20.5554 H   0  0  0  0  0  0
  1 25  1  0  0  0
  1 30  2  0  0  0
  1 81  1  0  0  0
  2  3  1  0  0  0
  2 25  1  0  0  0
  2 85  1  0  0  0
  2 86  1  0  0  0
  3  4  1  0  0  0
  3 87  1  0  0  0
  3 88  1  0  0  0
  4  5  1  0  0  0
  4 89  1  0  0  0
  4 90  1  0  0  0
  5  6  1  0  0  0
  5 26  1  0  0  0
  5 91  1  0  0  0
  6 25  1  0  0  0
  6 92  1  0  0  0
  6 93  1  0  0  0
  7  8  2  0  0  0
  7 26  1  0  0  0
  7 29  1  0  0  0
  8  9  1  0  0  0
  8 22  1  0  0  0
  9 10  1  0  0  0
  9 27  2  0  0  0
 10 11  2  0  0  0
 10 15  1  0  0  0
 11 12  1  0  0  0
 11 94  1  0  0  0
 12 13  2  0  0  0
 12 95  1  0  0  0
 13 14  1  0  0  0
 13 31  1  0  0  0
 14 15  2  0  0  0
 14 96  1  0  0  0
 15 97  1  0  0  0
 16 17  2  0  0  0
 16 21  1  0  0  0
 16 31  1  0  0  0
 17 18  1  0  0  0
 17 98  1  0  0  0
 18 19  2  0  0  0
 18 99  1  0  0  0
 19 20  1  0  0  0
 19 24  1  0  0  0
 20 21  2  0  0  0
 20100  1  0  0  0
 21 23  1  0  0  0
 22 28  1  0  0  0
 22 32  2  0  0  0
 26 27  1  0  0  0
 28101  1  0  0  0
 28102  1  0  0  0
 29103  1  0  0  0
 29104  1  0  0  0
 33 34  1  0  0  0
 33 66  1  0  0  0
 33 70  2  0  0  0
 34 36  1  0  0  0
 34 59  1  0  0  0
 34105  1  0  0  0
 35 44  2  0  0  0
 35 45  1  0  0  0
 35 68  1  0  0  0
 36 56  1  0  0  0
 36106  1  0  0  0
 37 39  1  0  0  0
 37 47  1  0  0  0
 37 66  1  0  0  0
 37107  1  0  0  0
 38 43  2  0  0  0
 38 46  1  0  0  0
 38 47  1  0  0  0
 39 64  1  0  0  0
 39 67  2  0  0  0
 40 52  1  0  0  0
 40 53  2  0  0  0
 40 58  1  0  0  0
 41108  1  0  0  0
 41109  1  0  0  0
 41110  1  0  0  0
 41 48  1  0  0  0
 42 43  1  0  0  0
 42 66  1  0  0  0
 42111  1  0  0  0
 42112  1  0  0  0
 43 44  1  0  0  0
 44113  1  0  0  0
 45 46  2  0  0  0
 45114  1  0  0  0
 46115  1  0  0  0
 47116  1  0  0  0
 47117  1  0  0  0
 48 56  1  0  0  0
 48 65  1  0  0  0
 48118  1  0  0  0
 49 50  1  0  0  0
 49 53  1  0  0  0
 49 64  1  0  0  0
 49119  1  0  0  0
 50 51  1  0  0  0
 50120  1  0  0  0
 50121  1  0  0  0
 51 52  1  0  0  0
 51122  1  0  0  0
 51123  1  0  0  0
 52124  1  0  0  0
 52125  1  0  0  0
 53 54  1  0  0  0
 54 55  2  0  0  0
 54126  1  0  0  0
 55 57  1  0  0  0
 55127  1  0  0  0
 56 69  2  0  0  0
 57 58  2  0  0  0
 57128  1  0  0  0
 58129  1  0  0  0
 59 60  1  0  0  0
 59 61  1  0  0  0
 59 62  1  0  0  0
 60130  1  0  0  0
 60131  1  0  0  0
 60132  1  0  0  0
 61133  1  0  0  0
 61134  1  0  0  0
 61135  1  0  0  0
 62136  1  0  0  0
 62137  1  0  0  0
 62138  1  0  0  0
 63 65  1  0  0  0
 63139  1  0  0  0
 63140  1  0  0  0
 63141  1  0  0  0
 64142  1  0  0  0
 65143  1  0  0  0
 68 78  1  0  0  0
 71 72  2  0  0  0
 71 79  1  0  0  0
 71 80  1  0  0  0
 72 83  1  0  0  0
 72 84  1  0  0  0
 73 79  2  0  0  0
 73 81  1  0  0  0
 73 84  1  0  0  0
 74 75  1  0  0  0
 74 77  1  0  0  0
 74 82  2  0  0  0
 75144  1  0  0  0
 75145  1  0  0  0
 75146  1  0  0  0
 76147  1  0  0  0
 76148  1  0  0  0
 76149  1  0  0  0
 76 78  1  0  0  0
 77 78  1  0  0  0
 77 80  1  0  0  0
 77150  1  0  0  0
 78151  1  0  0  0
 80152  1  0  0  0
 81153  1  0  0  0
M  ISO  4   1 100  68 101  78 101  81 100
M  END
> <chiral flag>
0

> <version>
0

> <s_m_source_file>
/data/baiqing/PycharmProjects/Reinvent-master-3.2/result/LINK_invent/BTK/process_docking_weight1_custom_product_contain_oxygen_bond_distance_aromatic_linkinvent_7_9_3/rearranged_h_0186.sdf

> <i_m_source_file_index>
33

> <r_mmod_Potential_Energy-OPLS-2005>
702.802856445312

> <r_mmod_Stretch_Energy-OPLS-2005>
347.087768554688

> <r_mmod_Bend_Energy-OPLS-2005>
379.877319335938

> <r_mmod_Torsional_Energy-OPLS-2005>
254.20654296875

> <r_mmod_Improper_Torsional_Energy-OPLS-2005>
10.4979610443115

> <r_mmod_Van_der_Waal_Energy-OPLS-2005>
103.504241943359

> <r_mmod_Electrostatic_Energy-OPLS-2005>
-442.819091796875

> <r_mmod_Solvation_Energy-OPLS-2005>
-230.639739990234

> <b_mmod_Minimization_Converged-OPLS-2005>
0

> <r_mmod_RMS_Derivative-OPLS-2005>
6.93435716629028

$$$$
34
                    3D
 Structure written by MMmdl.
168176  0  0  1  0            999 V2000
  -30.6216  -14.5721   20.5168 C   0  0  0  0  0  0
  -30.4398  -12.3499   19.4491 C   0  0  0  0  0  0
  -29.5115  -12.4997   18.2214 C   0  0  0  0  0  0
  -28.0291  -12.3547   18.6256 C   0  0  0  0  0  0
  -27.6582  -13.2043   19.8710 C   0  0  2  0  0  0
  -28.6986  -13.0090   20.9969 C   0  0  0  0  0  0
  -25.2572  -13.8150   20.5668 C   0  0  0  0  0  0
  -24.1816  -13.0432   20.9170 C   0  0  0  0  0  0
  -24.6372  -11.6899   20.8728 C   0  0  0  0  0  0
  -23.9046  -10.4282   21.0410 C   0  0  0  0  0  0
  -24.3600   -9.4212   21.9181 C   0  0  0  0  0  0
  -23.6291   -8.2240   22.0755 C   0  0  0  0  0  0
  -22.4263   -8.0279   21.3558 C   0  0  0  0  0  0
  -21.9898   -9.0244   20.4661 C   0  0  0  0  0  0
  -22.7224  -10.2124   20.3064 C   0  0  0  0  0  0
  -21.6844   -6.0744   22.5285 C   0  0  0  0  0  0
  -21.4010   -6.5639   23.8225 C   0  0  0  0  0  0
  -21.3661   -5.6783   24.9180 C   0  0  0  0  0  0
  -21.6031   -4.3042   24.7226 C   0  0  0  0  0  0
  -21.8818   -3.8152   23.4339 C   0  0  0  0  0  0
  -21.9190   -4.6971   22.3403 C   0  0  0  0  0  0
  -22.7842  -13.5243   21.1843 C   0  0  0  0  0  0
  -22.1656   -4.2169   21.0980 F   0  0  0  0  0  0
  -21.5639   -3.4526   25.7738 F   0  0  0  0  0  0
  -30.0206  -13.3464   20.4488 N   0  0  0  0  0  0
  -26.2995  -12.9302   20.3321 N   0  0  0  0  0  0
  -25.9302  -11.6467   20.5720 N   0  0  0  0  0  0
  -22.0460  -12.8264   22.0387 N   0  0  0  0  0  0
  -25.4311  -15.1873   20.4139 N   0  0  0  0  0  0
  -31.7616  -14.7655   20.0786 O   0  0  0  0  0  0
  -21.6622   -6.8879   21.4254 O   0  0  0  0  0  0
  -22.3534  -14.5574   20.6729 O   0  0  0  0  0  0
  -24.6242  -31.8640   23.2065 C   0  0  0  0  0  0
  -25.9107  -32.4789   23.8377 C   0  0  1  0  0  0
  -27.2068  -27.3515   20.0990 C   0  0  0  0  0  0
  -25.5945  -33.8592   24.2306 N   0  0  0  0  0  0
  -23.4133  -30.4911   21.5500 C   0  0  2  0  0  0
  -24.8503  -28.9527   20.1102 C   0  0  0  0  0  0
  -22.7469  -29.4644   22.4955 C   0  0  0  0  0  0
  -18.0279  -28.1383   22.8471 C   0  0  0  0  0  0
  -24.1491  -36.7304   23.2640 C   0  0  0  0  0  0
  -25.9526  -30.8016   21.3723 C   0  0  0  0  0  0
  -26.0205  -29.4344   20.7089 C   0  0  0  0  0  0
  -27.2053  -28.6472   20.6889 C   0  0  0  0  0  0
  -26.0109  -26.9101   19.4859 C   0  0  0  0  0  0
  -24.8444  -27.6944   19.4908 C   0  0  0  0  0  0
  -23.6225  -29.8345   20.1612 C   0  0  0  0  0  0
  -25.4110  -36.3088   24.0334 C   0  0  1  0  0  0
  -20.5879  -28.3684   23.1277 C   0  0  2  0  0  0
  -20.6764  -26.9411   22.5400 C   0  0  0  0  0  0
  -19.5742  -26.6380   21.5197 C   0  0  0  0  0  0
  -18.1923  -26.7929   22.1606 C   0  0  0  0  0  0
  -19.1532  -28.8849   23.2866 C   0  0  0  0  0  0
  -18.9462  -30.1453   23.8882 C   0  0  0  0  0  0
  -17.6469  -30.6583   24.0557 C   0  0  0  0  0  0
  -25.9043  -34.9459   23.5102 C   0  0  0  0  0  0
  -16.5358  -29.9087   23.6323 C   0  0  0  0  0  0
  -16.7270  -28.6505   23.0334 C   0  0  0  0  0  0
  -26.4494  -31.6601   25.0749 C   0  0  0  0  0  0
  -25.3754  -31.3758   26.1502 C   0  0  0  0  0  0
  -27.0330  -30.3026   24.6195 C   0  0  0  0  0  0
  -27.6035  -32.4360   25.7525 C   0  0  0  0  0  0
  -27.5579  -37.1808   24.8460 C   0  0  0  0  0  0
  -21.4188  -29.3053   22.3704 N   0  0  0  0  0  0
  -26.4290  -37.3781   23.9408 N   0  0  0  0  0  0
  -24.6822  -31.0687   22.0992 N   0  0  0  0  0  0
  -23.4205  -28.8165   23.3008 O   0  0  0  0  0  0
  -28.3376  -26.5330   20.1338 O   0  0  0  0  0  0
  -26.5607  -34.8922   22.4666 O   0  0  0  0  0  0
  -23.5417  -32.1438   23.7413 O   0  0  0  0  0  0
  -28.9485  -16.9029   19.1170 C   0  0  0  0  0  0
  -29.6071  -16.8433   20.3206 C   0  0  0  0  0  0
  -29.5146  -19.1447   20.0348 C   0  0  0  0  0  0
  -33.8385  -20.7858   19.8075 C   0  0  0  0  0  0
  -32.1569  -21.2438   18.0142 C   0  0  0  0  0  0
  -32.4294  -18.9322   18.9557 C   0  0  0  0  0  0
  -31.4118  -20.8176   20.4289 C   0  0  0  0  0  0
  -29.3098  -23.0267   21.3887 C   0  0  0  0  0  0
  -28.1198  -25.0841   20.0860 C   0  0  0  0  0  0
  -29.8875  -20.6316   20.1658 C   0  0  2  0  0  0
  -29.3921  -24.1969   20.3313 C   0  0  2  0  0  0
  -28.9310  -21.5268   21.0440 C   0  0  1  0  0  0
  -32.4254  -20.4348   19.3002 C   0  0  0  0  0  0
  -29.8520  -18.1277   20.8705 N   0  0  0  0  0  0
  -29.8440  -15.5856   20.9798 N   0  0  0  0  0  0
  -29.9036  -23.7201   19.0997 O   0  0  0  0  0  0
  -28.8063  -20.9194   22.2267 F   0  0  0  0  0  0
  -28.6647  -18.5497   18.6059 S   0  0  0  0  0  0
  -31.4854  -12.4689   19.1567 H   0  0  0  0  0  0
  -30.3657  -11.3475   19.8720 H   0  0  0  0  0  0
  -29.7686  -11.7552   17.4678 H   0  0  0  0  0  0
  -29.6732  -13.4721   17.7521 H   0  0  0  0  0  0
  -27.8442  -11.3003   18.8299 H   0  0  0  0  0  0
  -27.3837  -12.6173   17.7862 H   0  0  0  0  0  0
  -27.6904  -14.2463   19.5585 H   0  0  0  0  0  0
  -28.6966  -11.9721   21.3385 H   0  0  0  0  0  0
  -28.4470  -13.6047   21.8746 H   0  0  0  0  0  0
  -25.2763   -9.5698   22.4738 H   0  0  0  0  0  0
  -24.0024   -7.4621   22.7454 H   0  0  0  0  0  0
  -21.0843   -8.8767   19.8944 H   0  0  0  0  0  0
  -22.3711  -10.9656   19.6149 H   0  0  0  0  0  0
  -21.2003   -7.6140   23.9743 H   0  0  0  0  0  0
  -21.1482   -6.0501   25.9083 H   0  0  0  0  0  0
  -22.0604   -2.7625   23.2827 H   0  0  0  0  0  0
  -22.4034  -11.9913   22.4778 H   0  0  0  0  0  0
  -21.1086  -13.1323   22.2588 H   0  0  0  0  0  0
  -24.6694  -15.8445   20.5451 H   0  0  0  0  0  0
  -26.2917  -15.6369   20.1320 H   0  0  0  0  0  0
  -26.7176  -32.5451   23.1121 H   0  0  0  0  0  0
  -25.0123  -33.9749   25.0471 H   0  0  0  0  0  0
  -22.7036  -31.3098   21.4161 H   0  0  0  0  0  0
  -23.3742  -35.9647   23.3310 H   0  0  0  0  0  0
  -24.3581  -36.8916   22.2052 H   0  0  0  0  0  0
  -23.7258  -37.6517   23.6655 H   0  0  0  0  0  0
  -26.0875  -31.5690   20.6090 H   0  0  0  0  0  0
  -26.8324  -30.8397   22.0031 H   0  0  0  0  0  0
  -28.1096  -29.0154   21.1532 H   0  0  0  0  0  0
  -25.9367  -25.9509   18.9966 H   0  0  0  0  0  0
  -23.9444  -27.3187   19.0248 H   0  0  0  0  0  0
  -23.7493  -30.6186   19.4134 H   0  0  0  0  0  0
  -22.7378  -29.2735   19.8535 H   0  0  0  0  0  0
  -25.1281  -36.1943   25.0828 H   0  0  0  0  0  0
  -20.9947  -28.3256   24.1405 H   0  0  0  0  0  0
  -20.5649  -26.2314   23.3609 H   0  0  0  0  0  0
  -21.6643  -26.7435   22.1214 H   0  0  0  0  0  0
  -19.6908  -25.6282   21.1250 H   0  0  0  0  0  0
  -19.6677  -27.3166   20.6709 H   0  0  0  0  0  0
  -17.4195  -26.6665   21.4010 H   0  0  0  0  0  0
  -18.0323  -26.0081   22.9011 H   0  0  0  0  0  0
  -19.7949  -30.7266   24.2249 H   0  0  0  0  0  0
  -17.5028  -31.6260   24.5173 H   0  0  0  0  0  0
  -15.5357  -30.2977   23.7663 H   0  0  0  0  0  0
  -15.8676  -28.0825   22.7044 H   0  0  0  0  0  0
  -24.5873  -30.7159   25.7856 H   0  0  0  0  0  0
  -24.9019  -32.2948   26.4971 H   0  0  0  0  0  0
  -25.8100  -30.8905   27.0250 H   0  0  0  0  0  0
  -26.2899  -29.6791   24.1214 H   0  0  0  0  0  0
  -27.4021  -29.7263   25.4684 H   0  0  0  0  0  0
  -27.8770  -30.4299   23.9415 H   0  0  0  0  0  0
  -27.2594  -33.3631   26.2120 H   0  0  0  0  0  0
  -28.3831  -32.6986   25.0366 H   0  0  0  0  0  0
  -28.0729  -31.8513   26.5442 H   0  0  0  0  0  0
  -28.2592  -38.0105   24.7489 H   0  0  0  0  0  0
  -28.1078  -36.2636   24.6288 H   0  0  0  0  0  0
  -27.2315  -37.1471   25.8869 H   0  0  0  0  0  0
  -20.9369  -29.8835   21.6964 H   0  0  0  0  0  0
  -26.0173  -38.2865   24.1380 H   0  0  0  0  0  0
  -28.6031  -16.0914   18.4911 H   0  0  0  0  0  0
  -34.6049  -20.5230   19.0763 H   0  0  0  0  0  0
  -34.0766  -20.2517   20.7289 H   0  0  0  0  0  0
  -33.9399  -21.8520   20.0119 H   0  0  0  0  0  0
  -32.9070  -21.0388   17.2489 H   0  0  0  0  0  0
  -32.1723  -22.3168   18.2093 H   0  0  0  0  0  0
  -31.1910  -21.0053   17.5696 H   0  0  0  0  0  0
  -33.2710  -18.6762   18.3109 H   0  0  0  0  0  0
  -31.5370  -18.6319   18.4117 H   0  0  0  0  0  0
  -32.5024  -18.3109   19.8490 H   0  0  0  0  0  0
  -31.6663  -20.2988   21.3530 H   0  0  0  0  0  0
  -31.5951  -21.8685   20.6411 H   0  0  0  0  0  0
  -28.6162  -23.3563   22.1627 H   0  0  0  0  0  0
  -30.2591  -23.0025   21.9209 H   0  0  0  0  0  0
  -27.3643  -24.8241   20.8313 H   0  0  0  0  0  0
  -27.6984  -24.8001   19.1202 H   0  0  0  0  0  0
  -29.7154  -21.0377   19.1723 H   0  0  0  0  0  0
  -30.1417  -24.8881   20.7210 H   0  0  0  0  0  0
  -27.9328  -21.5048   20.6048 H   0  0  0  0  0  0
  -29.0395  -15.2432   21.4800 H   0  0  0  0  0  0
  -30.0583  -24.4752   18.5404 H   0  0  0  0  0  0
  1 25  1  0  0  0
  1 30  2  0  0  0
  1 85  1  0  0  0
  2  3  1  0  0  0
  2 25  1  0  0  0
  2 89  1  0  0  0
  2 90  1  0  0  0
  3  4  1  0  0  0
  3 91  1  0  0  0
  3 92  1  0  0  0
  4  5  1  0  0  0
  4 93  1  0  0  0
  4 94  1  0  0  0
  5  6  1  0  0  0
  5 26  1  0  0  0
  5 95  1  0  0  0
  6 25  1  0  0  0
  6 96  1  0  0  0
  6 97  1  0  0  0
  7  8  2  0  0  0
  7 26  1  0  0  0
  7 29  1  0  0  0
  8  9  1  0  0  0
  8 22  1  0  0  0
  9 10  1  0  0  0
  9 27  2  0  0  0
 10 11  2  0  0  0
 10 15  1  0  0  0
 11 12  1  0  0  0
 11 98  1  0  0  0
 12 13  2  0  0  0
 12 99  1  0  0  0
 13 14  1  0  0  0
 13 31  1  0  0  0
 14 15  2  0  0  0
 14100  1  0  0  0
 15101  1  0  0  0
 16 17  2  0  0  0
 16 21  1  0  0  0
 16 31  1  0  0  0
 17 18  1  0  0  0
 17102  1  0  0  0
 18 19  2  0  0  0
 18103  1  0  0  0
 19 20  1  0  0  0
 19 24  1  0  0  0
 20 21  2  0  0  0
 20104  1  0  0  0
 21 23  1  0  0  0
 22 28  1  0  0  0
 22 32  2  0  0  0
 26 27  1  0  0  0
 28105  1  0  0  0
 28106  1  0  0  0
 29107  1  0  0  0
 29108  1  0  0  0
 33 34  1  0  0  0
 33 66  1  0  0  0
 33 70  2  0  0  0
 34 36  1  0  0  0
 34 59  1  0  0  0
 34109  1  0  0  0
 35 44  2  0  0  0
 35 45  1  0  0  0
 35 68  1  0  0  0
 36 56  1  0  0  0
 36110  1  0  0  0
 37 39  1  0  0  0
 37 47  1  0  0  0
 37 66  1  0  0  0
 37111  1  0  0  0
 38 43  2  0  0  0
 38 46  1  0  0  0
 38 47  1  0  0  0
 39 64  1  0  0  0
 39 67  2  0  0  0
 40 52  1  0  0  0
 40 53  2  0  0  0
 40 58  1  0  0  0
 41112  1  0  0  0
 41113  1  0  0  0
 41114  1  0  0  0
 41 48  1  0  0  0
 42 43  1  0  0  0
 42 66  1  0  0  0
 42115  1  0  0  0
 42116  1  0  0  0
 43 44  1  0  0  0
 44117  1  0  0  0
 45 46  2  0  0  0
 45118  1  0  0  0
 46119  1  0  0  0
 47120  1  0  0  0
 47121  1  0  0  0
 48 56  1  0  0  0
 48 65  1  0  0  0
 48122  1  0  0  0
 49 50  1  0  0  0
 49 53  1  0  0  0
 49 64  1  0  0  0
 49123  1  0  0  0
 50 51  1  0  0  0
 50124  1  0  0  0
 50125  1  0  0  0
 51 52  1  0  0  0
 51126  1  0  0  0
 51127  1  0  0  0
 52128  1  0  0  0
 52129  1  0  0  0
 53 54  1  0  0  0
 54 55  2  0  0  0
 54130  1  0  0  0
 55 57  1  0  0  0
 55131  1  0  0  0
 56 69  2  0  0  0
 57 58  2  0  0  0
 57132  1  0  0  0
 58133  1  0  0  0
 59 60  1  0  0  0
 59 61  1  0  0  0
 59 62  1  0  0  0
 60134  1  0  0  0
 60135  1  0  0  0
 60136  1  0  0  0
 61137  1  0  0  0
 61138  1  0  0  0
 61139  1  0  0  0
 62140  1  0  0  0
 62141  1  0  0  0
 62142  1  0  0  0
 63 65  1  0  0  0
 63143  1  0  0  0
 63144  1  0  0  0
 63145  1  0  0  0
 64146  1  0  0  0
 65147  1  0  0  0
 68 79  1  0  0  0
 71 72  2  0  0  0
 71 88  1  0  0  0
 71148  1  0  0  0
 72 84  1  0  0  0
 72 85  1  0  0  0
 73 80  1  0  0  0
 73 84  2  0  0  0
 73 88  1  0  0  0
 74149  1  0  0  0
 74150  1  0  0  0
 74151  1  0  0  0
 74 83  1  0  0  0
 75 83  1  0  0  0
 75152  1  0  0  0
 75153  1  0  0  0
 75154  1  0  0  0
 76 83  1  0  0  0
 76155  1  0  0  0
 76156  1  0  0  0
 76157  1  0  0  0
 77 83  1  0  0  0
 77158  1  0  0  0
 77159  1  0  0  0
 77 80  1  0  0  0
 78 81  1  0  0  0
 78 82  1  0  0  0
 78160  1  0  0  0
 78161  1  0  0  0
 79 81  1  0  0  0
 79162  1  0  0  0
 79163  1  0  0  0
 80 82  1  0  0  0
 80164  1  0  0  0
 81 86  1  0  0  0
 81165  1  0  0  0
 82 87  1  0  0  0
 82166  1  0  0  0
 85167  1  0  0  0
 86168  1  0  0  0
M  ISO  4   1 100  68 101  79 101  85 100
M  END
> <chiral flag>
0

> <version>
0

> <s_m_source_file>
/data/baiqing/PycharmProjects/Reinvent-master-3.2/result/LINK_invent/BTK/process_docking_weight1_custom_product_contain_oxygen_bond_distance_aromatic_linkinvent_7_9_3/rearranged_h_0186.sdf

> <i_m_source_file_index>
34

> <r_mmod_Potential_Energy-OPLS-2005>
39.2276306152344

> <r_mmod_Stretch_Energy-OPLS-2005>
60.6958541870117

> <r_mmod_Bend_Energy-OPLS-2005>
150.423202514648

> <r_mmod_Torsional_Energy-OPLS-2005>
264.555877685547

> <r_mmod_Improper_Torsional_Energy-OPLS-2005>
6.70783996582031

> <r_mmod_Van_der_Waal_Energy-OPLS-2005>
121.072731018066

> <r_mmod_Electrostatic_Energy-OPLS-2005>
-374.631195068359

> <r_mmod_Solvation_Energy-OPLS-2005>
-222.674514770508

> <b_mmod_Minimization_Converged-OPLS-2005>
0

> <r_mmod_RMS_Derivative-OPLS-2005>
3.25392246246338

$$$$
35
                    3D
 Structure written by MMmdl.
155163  0  0  1  0            999 V2000
  -30.5848  -14.7847   20.5034 C   0  0  0  0  0  0
  -30.4454  -12.4878   19.4895 C   0  0  0  0  0  0
  -29.5259  -12.5347   18.2468 C   0  0  0  0  0  0
  -28.0510  -12.3513   18.6482 C   0  0  0  0  0  0
  -27.6471  -13.2379   19.8575 C   0  0  2  0  0  0
  -28.6860  -13.1514   20.9983 C   0  0  0  0  0  0
  -25.2465  -13.8152   20.5640 C   0  0  0  0  0  0
  -24.1800  -13.0386   20.9188 C   0  0  0  0  0  0
  -24.6426  -11.6898   20.8730 C   0  0  0  0  0  0
  -23.9112  -10.4277   21.0380 C   0  0  0  0  0  0
  -24.3659   -9.4175   21.9138 C   0  0  0  0  0  0
  -23.6320   -8.2233   22.0725 C   0  0  0  0  0  0
  -22.4285   -8.0291   21.3542 C   0  0  0  0  0  0
  -21.9942   -9.0244   20.4612 C   0  0  0  0  0  0
  -22.7297  -10.2115   20.3007 C   0  0  0  0  0  0
  -21.6859   -6.0768   22.5292 C   0  0  0  0  0  0
  -21.4009   -6.5655   23.8228 C   0  0  0  0  0  0
  -21.3649   -5.6783   24.9179 C   0  0  0  0  0  0
  -21.6038   -4.3058   24.7218 C   0  0  0  0  0  0
  -21.8822   -3.8168   23.4331 C   0  0  0  0  0  0
  -21.9187   -4.6989   22.3399 C   0  0  0  0  0  0
  -22.7807  -13.5145   21.1855 C   0  0  0  0  0  0
  -22.1650   -4.2183   21.0974 F   0  0  0  0  0  0
  -21.5623   -3.4529   25.7725 F   0  0  0  0  0  0
  -29.9960  -13.5321   20.4455 N   0  0  0  0  0  0
  -26.2940  -12.9404   20.3255 N   0  0  0  0  0  0
  -25.9350  -11.6541   20.5727 N   0  0  0  0  0  0
  -22.0489  -12.8123   22.0443 N   0  0  0  0  0  0
  -25.3973  -15.1869   20.4007 N   0  0  0  0  0  0
  -31.7221  -14.9370   20.0439 O   0  0  0  0  0  0
  -21.6625   -6.8909   21.4270 O   0  0  0  0  0  0
  -22.3454  -14.5443   20.6713 O   0  0  0  0  0  0
  -24.6321  -31.8552   23.1972 C   0  0  0  0  0  0
  -25.9146  -32.4762   23.8319 C   0  0  1  0  0  0
  -27.2151  -27.2366   20.1589 C   0  0  0  0  0  0
  -25.5943  -33.8571   24.2247 N   0  0  0  0  0  0
  -23.4307  -30.4777   21.5382 C   0  0  2  0  0  0
  -24.8817  -28.9243   20.1107 C   0  0  0  0  0  0
  -22.7517  -29.4608   22.4892 C   0  0  0  0  0  0
  -18.0294  -28.1378   22.8491 C   0  0  0  0  0  0
  -24.1486  -36.7263   23.2648 C   0  0  0  0  0  0
  -25.9771  -30.7665   21.3791 C   0  0  0  0  0  0
  -26.0535  -29.3855   20.7243 C   0  0  0  0  0  0
  -27.2251  -28.5568   20.7344 C   0  0  0  0  0  0
  -26.0288  -26.8647   19.4888 C   0  0  0  0  0  0
  -24.8789  -27.6744   19.4757 C   0  0  0  0  0  0
  -23.6505  -29.8087   20.1571 C   0  0  0  0  0  0
  -25.4115  -36.3080   24.0335 C   0  0  1  0  0  0
  -20.5899  -28.3685   23.1255 C   0  0  2  0  0  0
  -20.6785  -26.9397   22.5407 C   0  0  0  0  0  0
  -19.5758  -26.6366   21.5216 C   0  0  0  0  0  0
  -18.1926  -26.7928   22.1622 C   0  0  0  0  0  0
  -19.1546  -28.8852   23.2869 C   0  0  0  0  0  0
  -18.9486  -30.1464   23.8866 C   0  0  0  0  0  0
  -17.6499  -30.6592   24.0562 C   0  0  0  0  0  0
  -25.9062  -34.9444   23.5090 C   0  0  0  0  0  0
  -16.5376  -29.9088   23.6340 C   0  0  0  0  0  0
  -16.7279  -28.6501   23.0365 C   0  0  0  0  0  0
  -26.4483  -31.6614   25.0731 C   0  0  0  0  0  0
  -25.3669  -31.3798   26.1432 C   0  0  0  0  0  0
  -27.0364  -30.3043   24.6252 C   0  0  0  0  0  0
  -27.6037  -32.4344   25.7496 C   0  0  0  0  0  0
  -27.5567  -37.1799   24.8465 C   0  0  0  0  0  0
  -21.4217  -29.3046   22.3642 N   0  0  0  0  0  0
  -26.4284  -37.3790   23.9413 N   0  0  0  0  0  0
  -24.6991  -31.0494   22.0956 N   0  0  0  0  0  0
  -23.4207  -28.8138   23.3002 O   0  0  0  0  0  0
  -28.2766  -26.2938   20.2434 O   0  0  0  0  0  0
  -26.5619  -34.8924   22.4660 O   0  0  0  0  0  0
  -23.5460  -32.1367   23.7250 O   0  0  0  0  0  0
  -29.2736  -19.6184   20.5110 C   0  0  0  0  0  0
  -27.9905  -19.2210   20.1786 C   0  0  0  0  0  0
  -29.4669  -17.1967   20.5951 C   0  0  0  0  0  0
  -29.0769  -23.7103   20.4036 C   0  0  0  0  0  0
  -30.7170  -21.2628   21.8204 C   0  0  0  0  0  0
  -27.5074  -24.8633   22.0965 C   0  0  0  0  0  0
  -29.8039  -21.1329   20.5892 C   0  0  2  0  0  0
  -27.9467  -24.8512   20.6165 C   0  0  1  0  0  0
  -30.0898  -18.4207   20.7444 N   0  0  0  0  0  0
  -26.8850  -20.0074   19.8650 N   0  0  0  0  0  0
  -29.8637  -15.8337   21.0624 N   0  0  0  0  0  0
  -28.8372  -22.3424   20.5892 N   0  0  0  0  0  0
  -30.2024  -24.0890   20.0726 O   0  0  0  0  0  0
  -27.7891  -17.4731   20.1346 S   0  0  0  0  0  0
  -31.4837  -12.6280   19.1875 H   0  0  0  0  0  0
  -30.4035  -11.4988   19.9519 H   0  0  0  0  0  0
  -29.8201  -11.7652   17.5313 H   0  0  0  0  0  0
  -29.6538  -13.4878   17.7336 H   0  0  0  0  0  0
  -27.9111  -11.3007   18.9013 H   0  0  0  0  0  0
  -27.3976  -12.5449   17.7969 H   0  0  0  0  0  0
  -27.6452  -14.2671   19.4959 H   0  0  0  0  0  0
  -28.7221  -12.1384   21.4037 H   0  0  0  0  0  0
  -28.3978  -13.7950   21.8288 H   0  0  0  0  0  0
  -25.2819   -9.5642   22.4685 H   0  0  0  0  0  0
  -24.0018   -7.4630   22.7442 H   0  0  0  0  0  0
  -21.0870   -8.8774   19.8918 H   0  0  0  0  0  0
  -22.3765  -10.9641   19.6097 H   0  0  0  0  0  0
  -21.2006   -7.6163   23.9752 H   0  0  0  0  0  0
  -21.1458   -6.0505   25.9083 H   0  0  0  0  0  0
  -22.0610   -2.7631   23.2814 H   0  0  0  0  0  0
  -22.4126  -11.9792   22.4847 H   0  0  0  0  0  0
  -21.1073  -13.1075   22.2624 H   0  0  0  0  0  0
  -24.6149  -15.8250   20.5026 H   0  0  0  0  0  0
  -26.2268  -15.6406   20.0421 H   0  0  0  0  0  0
  -26.7216  -32.5394   23.1057 H   0  0  0  0  0  0
  -25.0159  -33.9693   25.0436 H   0  0  0  0  0  0
  -22.7290  -31.3008   21.3897 H   0  0  0  0  0  0
  -23.3769  -35.9576   23.3331 H   0  0  0  0  0  0
  -24.3564  -36.8851   22.2058 H   0  0  0  0  0  0
  -23.7208  -37.6463   23.6639 H   0  0  0  0  0  0
  -26.1118  -31.5282   20.6096 H   0  0  0  0  0  0
  -26.8559  -30.8187   22.0104 H   0  0  0  0  0  0
  -28.1140  -28.9052   21.2412 H   0  0  0  0  0  0
  -25.9626  -25.9178   18.9762 H   0  0  0  0  0  0
  -23.9863  -27.3215   18.9755 H   0  0  0  0  0  0
  -23.7681  -30.5804   19.3969 H   0  0  0  0  0  0
  -22.7735  -29.2363   19.8543 H   0  0  0  0  0  0
  -25.1300  -36.1927   25.0827 H   0  0  0  0  0  0
  -20.9987  -28.3255   24.1383 H   0  0  0  0  0  0
  -20.5678  -26.2293   23.3615 H   0  0  0  0  0  0
  -21.6646  -26.7416   22.1206 H   0  0  0  0  0  0
  -19.6922  -25.6273   21.1250 H   0  0  0  0  0  0
  -19.6695  -27.3172   20.6745 H   0  0  0  0  0  0
  -17.4211  -26.6689   21.4016 H   0  0  0  0  0  0
  -18.0314  -26.0052   22.9001 H   0  0  0  0  0  0
  -19.7971  -30.7289   24.2185 H   0  0  0  0  0  0
  -17.5056  -31.6254   24.5193 H   0  0  0  0  0  0
  -15.5379  -30.3002   23.7678 H   0  0  0  0  0  0
  -15.8674  -28.0822   22.7100 H   0  0  0  0  0  0
  -24.5841  -30.7158   25.7731 H   0  0  0  0  0  0
  -24.8869  -32.3005   26.4781 H   0  0  0  0  0  0
  -25.7947  -30.9005   27.0254 H   0  0  0  0  0  0
  -26.3008  -29.6776   24.1212 H   0  0  0  0  0  0
  -27.4003  -29.7301   25.4782 H   0  0  0  0  0  0
  -27.8864  -30.4339   23.9549 H   0  0  0  0  0  0
  -27.2669  -33.3653   26.2064 H   0  0  0  0  0  0
  -28.3858  -32.6906   25.0332 H   0  0  0  0  0  0
  -28.0708  -31.8488   26.5425 H   0  0  0  0  0  0
  -28.2602  -38.0084   24.7524 H   0  0  0  0  0  0
  -28.1049  -36.2624   24.6287 H   0  0  0  0  0  0
  -27.2278  -37.1429   25.8865 H   0  0  0  0  0  0
  -20.9388  -29.8773   21.6853 H   0  0  0  0  0  0
  -26.0161  -38.2850   24.1469 H   0  0  0  0  0  0
  -31.5502  -20.5618   21.7574 H   0  0  0  0  0  0
  -30.1697  -21.0465   22.7372 H   0  0  0  0  0  0
  -31.1527  -22.2563   21.9101 H   0  0  0  0  0  0
  -27.2821  -23.8612   22.4655 H   0  0  0  0  0  0
  -26.6108  -25.4640   22.2487 H   0  0  0  0  0  0
  -28.2889  -25.2774   22.7341 H   0  0  0  0  0  0
  -30.4375  -21.2870   19.7139 H   0  0  0  0  0  0
  -27.1035  -24.5021   20.0244 H   0  0  0  0  0  0
  -27.0290  -20.8364   19.2973 H   0  0  0  0  0  0
  -26.0258  -19.5401   19.5918 H   0  0  0  0  0  0
  -29.1124  -15.4245   21.5950 H   0  0  0  0  0  0
  -27.8838  -22.0912   20.8149 H   0  0  0  0  0  0
  1 25  1  0  0  0
  1 30  2  0  0  0
  1 81  1  0  0  0
  2  3  1  0  0  0
  2 25  1  0  0  0
  2 85  1  0  0  0
  2 86  1  0  0  0
  3  4  1  0  0  0
  3 87  1  0  0  0
  3 88  1  0  0  0
  4  5  1  0  0  0
  4 89  1  0  0  0
  4 90  1  0  0  0
  5  6  1  0  0  0
  5 26  1  0  0  0
  5 91  1  0  0  0
  6 25  1  0  0  0
  6 92  1  0  0  0
  6 93  1  0  0  0
  7  8  2  0  0  0
  7 26  1  0  0  0
  7 29  1  0  0  0
  8  9  1  0  0  0
  8 22  1  0  0  0
  9 10  1  0  0  0
  9 27  2  0  0  0
 10 11  2  0  0  0
 10 15  1  0  0  0
 11 12  1  0  0  0
 11 94  1  0  0  0
 12 13  2  0  0  0
 12 95  1  0  0  0
 13 14  1  0  0  0
 13 31  1  0  0  0
 14 15  2  0  0  0
 14 96  1  0  0  0
 15 97  1  0  0  0
 16 17  2  0  0  0
 16 21  1  0  0  0
 16 31  1  0  0  0
 17 18  1  0  0  0
 17 98  1  0  0  0
 18 19  2  0  0  0
 18 99  1  0  0  0
 19 20  1  0  0  0
 19 24  1  0  0  0
 20 21  2  0  0  0
 20100  1  0  0  0
 21 23  1  0  0  0
 22 28  1  0  0  0
 22 32  2  0  0  0
 26 27  1  0  0  0
 28101  1  0  0  0
 28102  1  0  0  0
 29103  1  0  0  0
 29104  1  0  0  0
 33 34  1  0  0  0
 33 66  1  0  0  0
 33 70  2  0  0  0
 34 36  1  0  0  0
 34 59  1  0  0  0
 34105  1  0  0  0
 35 44  2  0  0  0
 35 45  1  0  0  0
 35 68  1  0  0  0
 36 56  1  0  0  0
 36106  1  0  0  0
 37 39  1  0  0  0
 37 47  1  0  0  0
 37 66  1  0  0  0
 37107  1  0  0  0
 38 43  2  0  0  0
 38 46  1  0  0  0
 38 47  1  0  0  0
 39 64  1  0  0  0
 39 67  2  0  0  0
 40 52  1  0  0  0
 40 53  2  0  0  0
 40 58  1  0  0  0
 41108  1  0  0  0
 41109  1  0  0  0
 41110  1  0  0  0
 41 48  1  0  0  0
 42 43  1  0  0  0
 42 66  1  0  0  0
 42111  1  0  0  0
 42112  1  0  0  0
 43 44  1  0  0  0
 44113  1  0  0  0
 45 46  2  0  0  0
 45114  1  0  0  0
 46115  1  0  0  0
 47116  1  0  0  0
 47117  1  0  0  0
 48 56  1  0  0  0
 48 65  1  0  0  0
 48118  1  0  0  0
 49 50  1  0  0  0
 49 53  1  0  0  0
 49 64  1  0  0  0
 49119  1  0  0  0
 50 51  1  0  0  0
 50120  1  0  0  0
 50121  1  0  0  0
 51 52  1  0  0  0
 51122  1  0  0  0
 51123  1  0  0  0
 52124  1  0  0  0
 52125  1  0  0  0
 53 54  1  0  0  0
 54 55  2  0  0  0
 54126  1  0  0  0
 55 57  1  0  0  0
 55127  1  0  0  0
 56 69  2  0  0  0
 57 58  2  0  0  0
 57128  1  0  0  0
 58129  1  0  0  0
 59 60  1  0  0  0
 59 61  1  0  0  0
 59 62  1  0  0  0
 60130  1  0  0  0
 60131  1  0  0  0
 60132  1  0  0  0
 61133  1  0  0  0
 61134  1  0  0  0
 61135  1  0  0  0
 62136  1  0  0  0
 62137  1  0  0  0
 62138  1  0  0  0
 63 65  1  0  0  0
 63139  1  0  0  0
 63140  1  0  0  0
 63141  1  0  0  0
 64142  1  0  0  0
 65143  1  0  0  0
 68 78  1  0  0  0
 71 72  2  0  0  0
 71 77  1  0  0  0
 71 79  1  0  0  0
 72 80  1  0  0  0
 72 84  1  0  0  0
 73 79  2  0  0  0
 73 81  1  0  0  0
 73 84  1  0  0  0
 74 78  1  0  0  0
 74 82  1  0  0  0
 74 83  2  0  0  0
 75144  1  0  0  0
 75145  1  0  0  0
 75146  1  0  0  0
 75 77  1  0  0  0
 76147  1  0  0  0
 76148  1  0  0  0
 76149  1  0  0  0
 76 78  1  0  0  0
 77 82  1  0  0  0
 77150  1  0  0  0
 78151  1  0  0  0
 80152  1  0  0  0
 80153  1  0  0  0
 81154  1  0  0  0
 82155  1  0  0  0
M  ISO  4   1 100  68 101  78 101  81 100
M  END
> <chiral flag>
0

> <version>
0

> <s_m_source_file>
/data/baiqing/PycharmProjects/Reinvent-master-3.2/result/LINK_invent/BTK/process_docking_weight1_custom_product_contain_oxygen_bond_distance_aromatic_linkinvent_7_9_3/rearranged_h_0186.sdf

> <i_m_source_file_index>
35

> <r_mmod_Potential_Energy-OPLS-2005>
175.032089233398

> <r_mmod_Stretch_Energy-OPLS-2005>
150.597076416016

> <r_mmod_Bend_Energy-OPLS-2005>
190.310089111328

> <r_mmod_Torsional_Energy-OPLS-2005>
253.537460327148

> <r_mmod_Improper_Torsional_Energy-OPLS-2005>
11.3113231658936

> <r_mmod_Van_der_Waal_Energy-OPLS-2005>
110.304656982422

> <r_mmod_Electrostatic_Energy-OPLS-2005>
-389.727600097656

> <r_mmod_Solvation_Energy-OPLS-2005>
-256.578491210938

> <b_mmod_Minimization_Converged-OPLS-2005>
0

> <r_mmod_RMS_Derivative-OPLS-2005>
3.724196434021

$$$$
36
                    3D
 Structure written by MMmdl.
169177  0  0  1  0            999 V2000
  -30.7074  -14.4454   20.5176 C   0  0  0  0  0  0
  -30.4207  -12.2728   19.4332 C   0  0  0  0  0  0
  -29.4987  -12.4910   18.2146 C   0  0  0  0  0  0
  -28.0124  -12.3749   18.6156 C   0  0  0  0  0  0
  -27.6633  -13.2109   19.8750 C   0  0  2  0  0  0
  -28.7039  -12.9951   20.9984 C   0  0  0  0  0  0
  -25.2599  -13.8208   20.5719 C   0  0  0  0  0  0
  -24.1841  -13.0466   20.9197 C   0  0  0  0  0  0
  -24.6365  -11.6944   20.8735 C   0  0  0  0  0  0
  -23.9035  -10.4324   21.0389 C   0  0  0  0  0  0
  -24.3601   -9.4255   21.9163 C   0  0  0  0  0  0
  -23.6315   -8.2272   22.0739 C   0  0  0  0  0  0
  -22.4301   -8.0289   21.3517 C   0  0  0  0  0  0
  -21.9899   -9.0269   20.4623 C   0  0  0  0  0  0
  -22.7208  -10.2148   20.3015 C   0  0  0  0  0  0
  -21.6880   -6.0763   22.5298 C   0  0  0  0  0  0
  -21.4045   -6.5670   23.8232 C   0  0  0  0  0  0
  -21.3649   -5.6809   24.9182 C   0  0  0  0  0  0
  -21.6029   -4.3063   24.7212 C   0  0  0  0  0  0
  -21.8826   -3.8163   23.4330 C   0  0  0  0  0  0
  -21.9227   -4.7004   22.3401 C   0  0  0  0  0  0
  -22.7835  -13.5232   21.1895 C   0  0  0  0  0  0
  -22.1693   -4.2182   21.0983 F   0  0  0  0  0  0
  -21.5592   -3.4524   25.7716 F   0  0  0  0  0  0
  -30.0423  -13.2641   20.4503 N   0  0  0  0  0  0
  -26.3041  -12.9370   20.3376 N   0  0  0  0  0  0
  -25.9291  -11.6534   20.5725 N   0  0  0  0  0  0
  -22.0466  -12.8207   22.0411 N   0  0  0  0  0  0
  -25.4332  -15.1915   20.4189 N   0  0  0  0  0  0
  -31.8806  -14.5820   20.1637 O   0  0  0  0  0  0
  -21.6662   -6.8906   21.4249 O   0  0  0  0  0  0
  -22.3507  -14.5536   20.6749 O   0  0  0  0  0  0
  -24.6154  -31.8712   23.2127 C   0  0  0  0  0  0
  -25.9043  -32.4861   23.8442 C   0  0  1  0  0  0
  -27.2244  -27.4581   20.0844 C   0  0  0  0  0  0
  -25.5892  -33.8644   24.2371 N   0  0  0  0  0  0
  -23.4026  -30.4965   21.5549 C   0  0  2  0  0  0
  -24.8413  -28.9672   20.1141 C   0  0  0  0  0  0
  -22.7429  -29.4689   22.5028 C   0  0  0  0  0  0
  -18.0297  -28.1372   22.8541 C   0  0  0  0  0  0
  -24.1464  -36.7302   23.2651 C   0  0  0  0  0  0
  -25.9309  -30.8422   21.3631 C   0  0  0  0  0  0
  -26.0030  -29.4798   20.7071 C   0  0  0  0  0  0
  -27.2018  -28.7348   20.6832 C   0  0  0  0  0  0
  -26.0470  -26.9559   19.4845 C   0  0  0  0  0  0
  -24.8571  -27.7055   19.4967 C   0  0  0  0  0  0
  -23.6038  -29.8334   20.1675 C   0  0  0  0  0  0
  -25.4086  -36.3139   24.0376 C   0  0  1  0  0  0
  -20.5883  -28.3641   23.1354 C   0  0  2  0  0  0
  -20.6769  -26.9387   22.5421 C   0  0  0  0  0  0
  -19.5718  -26.6395   21.5240 C   0  0  0  0  0  0
  -18.1909  -26.7942   22.1662 C   0  0  0  0  0  0
  -19.1545  -28.8837   23.2936 C   0  0  0  0  0  0
  -18.9465  -30.1458   23.8913 C   0  0  0  0  0  0
  -17.6451  -30.6565   24.0588 C   0  0  0  0  0  0
  -25.9031  -34.9499   23.5181 C   0  0  0  0  0  0
  -16.5348  -29.9059   23.6326 C   0  0  0  0  0  0
  -16.7287  -28.6481   23.0360 C   0  0  0  0  0  0
  -26.4445  -31.6634   25.0765 C   0  0  0  0  0  0
  -25.3696  -31.3712   26.1519 C   0  0  0  0  0  0
  -27.0282  -30.3099   24.6091 C   0  0  0  0  0  0
  -27.6054  -32.4342   25.7491 C   0  0  0  0  0  0
  -27.5577  -37.1810   24.8474 C   0  0  0  0  0  0
  -21.4164  -29.3010   22.3790 N   0  0  0  0  0  0
  -26.4279  -37.3810   23.9428 N   0  0  0  0  0  0
  -24.6696  -31.0829   22.1023 N   0  0  0  0  0  0
  -23.4208  -28.8239   23.3076 O   0  0  0  0  0  0
  -28.3853  -26.7254   20.0589 O   0  0  0  0  0  0
  -26.5566  -34.8936   22.4730 O   0  0  0  0  0  0
  -23.5346  -32.1487   23.7520 O   0  0  0  0  0  0
  -29.1226  -18.7142   19.3107 C   0  0  0  0  0  0
  -30.0454  -18.4791   18.3081 C   0  0  0  0  0  0
  -29.9252  -16.6854   19.9954 C   0  0  0  0  0  0
  -27.2056  -20.0522   18.3347 C   0  0  0  0  0  0
  -30.7891  -25.3080   20.4175 C   0  0  0  0  0  0
  -27.1373  -22.4018   21.0485 C   0  0  0  0  0  0
  -28.8947  -21.1306   22.2823 C   0  0  0  0  0  0
  -29.0036  -21.2345   19.7592 C   0  0  0  0  0  0
  -29.5698  -23.2658   21.2440 C   0  0  0  0  0  0
  -28.2858  -25.4390   20.6785 C   0  0  0  0  0  0
  -28.2142  -19.9144   19.4900 C   0  0  2  0  0  0
  -29.4704  -24.5125   20.3156 C   0  0  1  0  0  0
  -28.6329  -22.0241   21.0514 C   0  0  0  0  0  0
  -29.0642  -17.6723   20.2559 N   0  0  0  0  0  0
  -30.3691  -19.2444   17.1937 N   0  0  0  0  0  0
  -29.9401  -15.5109   20.7928 N   0  0  0  0  0  0
  -30.8816  -16.9704   18.5383 S   0  0  0  0  0  0
  -31.4674  -12.3594   19.1330 H   0  0  0  0  0  0
  -30.3073  -11.2647   19.8340 H   0  0  0  0  0  0
  -29.7351  -11.7659   17.4351 H   0  0  0  0  0  0
  -29.6908  -13.4738   17.7821 H   0  0  0  0  0  0
  -27.7942  -11.3231   18.7988 H   0  0  0  0  0  0
  -27.3728  -12.6764   17.7847 H   0  0  0  0  0  0
  -27.7086  -14.2581   19.5761 H   0  0  0  0  0  0
  -28.6653  -11.9686   21.3667 H   0  0  0  0  0  0
  -28.4867  -13.6316   21.8571 H   0  0  0  0  0  0
  -25.2721   -9.5789   22.4756 H   0  0  0  0  0  0
  -24.0056   -7.4667   22.7447 H   0  0  0  0  0  0
  -21.0818   -8.8736   19.8946 H   0  0  0  0  0  0
  -22.3619  -10.9677   19.6132 H   0  0  0  0  0  0
  -21.2060   -7.6188   23.9732 H   0  0  0  0  0  0
  -21.1455   -6.0538   25.9089 H   0  0  0  0  0  0
  -22.0617   -2.7622   23.2819 H   0  0  0  0  0  0
  -22.4053  -11.9865   22.4834 H   0  0  0  0  0  0
  -21.1076  -13.1261   22.2592 H   0  0  0  0  0  0
  -24.6692  -15.8475   20.5457 H   0  0  0  0  0  0
  -26.2877  -15.6411   20.1133 H   0  0  0  0  0  0
  -26.7137  -32.5543   23.1224 H   0  0  0  0  0  0
  -25.0069  -33.9814   25.0547 H   0  0  0  0  0  0
  -22.6909  -31.3140   21.4227 H   0  0  0  0  0  0
  -23.3746  -35.9612   23.3312 H   0  0  0  0  0  0
  -24.3589  -36.8875   22.2064 H   0  0  0  0  0  0
  -23.7162  -37.6502   23.6629 H   0  0  0  0  0  0
  -26.0468  -31.6088   20.5973 H   0  0  0  0  0  0
  -26.8198  -30.8926   21.9789 H   0  0  0  0  0  0
  -28.1062  -29.1322   21.1259 H   0  0  0  0  0  0
  -26.0458  -25.9960   18.9898 H   0  0  0  0  0  0
  -23.9670  -27.3157   19.0187 H   0  0  0  0  0  0
  -23.7129  -30.6121   19.4114 H   0  0  0  0  0  0
  -22.7251  -29.2552   19.8742 H   0  0  0  0  0  0
  -25.1259  -36.2021   25.0871 H   0  0  0  0  0  0
  -21.0012  -28.3157   24.1461 H   0  0  0  0  0  0
  -20.5687  -26.2241   23.3598 H   0  0  0  0  0  0
  -21.6636  -26.7415   22.1198 H   0  0  0  0  0  0
  -19.6832  -25.6313   21.1239 H   0  0  0  0  0  0
  -19.6633  -27.3243   20.6795 H   0  0  0  0  0  0
  -17.4204  -26.6777   21.4026 H   0  0  0  0  0  0
  -18.0241  -26.0051   22.9012 H   0  0  0  0  0  0
  -19.7927  -30.7314   24.2240 H   0  0  0  0  0  0
  -17.4985  -31.6245   24.5203 H   0  0  0  0  0  0
  -15.5344  -30.2947   23.7635 H   0  0  0  0  0  0
  -15.8712  -28.0802   22.7018 H   0  0  0  0  0  0
  -24.5890  -30.7035   25.7843 H   0  0  0  0  0  0
  -24.8869  -32.2859   26.4973 H   0  0  0  0  0  0
  -25.8076  -30.8889   27.0271 H   0  0  0  0  0  0
  -26.2835  -29.6859   24.1156 H   0  0  0  0  0  0
  -27.4106  -29.7315   25.4503 H   0  0  0  0  0  0
  -27.8624  -30.4461   23.9213 H   0  0  0  0  0  0
  -27.2728  -33.3654   26.2081 H   0  0  0  0  0  0
  -28.3839  -32.6874   25.0283 H   0  0  0  0  0  0
  -28.0760  -31.8459   26.5375 H   0  0  0  0  0  0
  -28.2634  -38.0079   24.7566 H   0  0  0  0  0  0
  -28.1064  -36.2636   24.6284 H   0  0  0  0  0  0
  -27.2343  -37.1438   25.8892 H   0  0  0  0  0  0
  -20.9337  -29.8722   21.7009 H   0  0  0  0  0  0
  -26.0187  -38.2899   24.1417 H   0  0  0  0  0  0
  -26.5877  -19.1571   18.2481 H   0  0  0  0  0  0
  -27.7104  -20.2021   17.3815 H   0  0  0  0  0  0
  -26.5282  -20.8928   18.4831 H   0  0  0  0  0  0
  -31.6594  -24.6800   20.2273 H   0  0  0  0  0  0
  -30.9057  -25.7453   21.4106 H   0  0  0  0  0  0
  -30.8213  -26.1262   19.6973 H   0  0  0  0  0  0
  -26.4953  -21.5265   21.1562 H   0  0  0  0  0  0
  -26.8375  -22.8840   20.1192 H   0  0  0  0  0  0
  -26.8965  -23.0643   21.8804 H   0  0  0  0  0  0
  -28.2184  -20.2798   22.3456 H   0  0  0  0  0  0
  -28.7688  -21.6877   23.2124 H   0  0  0  0  0  0
  -29.9123  -20.7371   22.2798 H   0  0  0  0  0  0
  -28.9030  -21.8794   18.8869 H   0  0  0  0  0  0
  -30.0699  -21.0088   19.8001 H   0  0  0  0  0  0
  -29.4751  -23.6387   22.2661 H   0  0  0  0  0  0
  -30.5927  -22.8881   21.1898 H   0  0  0  0  0  0
  -28.2433  -25.5959   21.7560 H   0  0  0  0  0  0
  -27.3544  -24.9514   20.4135 H   0  0  0  0  0  0
  -27.5893  -19.7050   20.3549 H   0  0  0  0  0  0
  -29.3602  -24.1897   19.2803 H   0  0  0  0  0  0
  -29.8108  -20.0382   16.8957 H   0  0  0  0  0  0
  -30.9586  -18.8850   16.4470 H   0  0  0  0  0  0
  -29.0895  -15.3240   21.2968 H   0  0  0  0  0  0
  1 25  1  0  0  0
  1 30  2  0  0  0
  1 86  1  0  0  0
  2  3  1  0  0  0
  2 25  1  0  0  0
  2 88  1  0  0  0
  2 89  1  0  0  0
  3  4  1  0  0  0
  3 90  1  0  0  0
  3 91  1  0  0  0
  4  5  1  0  0  0
  4 92  1  0  0  0
  4 93  1  0  0  0
  5  6  1  0  0  0
  5 26  1  0  0  0
  5 94  1  0  0  0
  6 25  1  0  0  0
  6 95  1  0  0  0
  6 96  1  0  0  0
  7  8  2  0  0  0
  7 26  1  0  0  0
  7 29  1  0  0  0
  8  9  1  0  0  0
  8 22  1  0  0  0
  9 10  1  0  0  0
  9 27  2  0  0  0
 10 11  2  0  0  0
 10 15  1  0  0  0
 11 12  1  0  0  0
 11 97  1  0  0  0
 12 13  2  0  0  0
 12 98  1  0  0  0
 13 14  1  0  0  0
 13 31  1  0  0  0
 14 15  2  0  0  0
 14 99  1  0  0  0
 15100  1  0  0  0
 16 17  2  0  0  0
 16 21  1  0  0  0
 16 31  1  0  0  0
 17 18  1  0  0  0
 17101  1  0  0  0
 18 19  2  0  0  0
 18102  1  0  0  0
 19 20  1  0  0  0
 19 24  1  0  0  0
 20 21  2  0  0  0
 20103  1  0  0  0
 21 23  1  0  0  0
 22 28  1  0  0  0
 22 32  2  0  0  0
 26 27  1  0  0  0
 28104  1  0  0  0
 28105  1  0  0  0
 29106  1  0  0  0
 29107  1  0  0  0
 33 34  1  0  0  0
 33 66  1  0  0  0
 33 70  2  0  0  0
 34 36  1  0  0  0
 34 59  1  0  0  0
 34108  1  0  0  0
 35 44  2  0  0  0
 35 45  1  0  0  0
 35 68  1  0  0  0
 36 56  1  0  0  0
 36109  1  0  0  0
 37 39  1  0  0  0
 37 47  1  0  0  0
 37 66  1  0  0  0
 37110  1  0  0  0
 38 43  2  0  0  0
 38 46  1  0  0  0
 38 47  1  0  0  0
 39 64  1  0  0  0
 39 67  2  0  0  0
 40 52  1  0  0  0
 40 53  2  0  0  0
 40 58  1  0  0  0
 41111  1  0  0  0
 41112  1  0  0  0
 41113  1  0  0  0
 41 48  1  0  0  0
 42 43  1  0  0  0
 42 66  1  0  0  0
 42114  1  0  0  0
 42115  1  0  0  0
 43 44  1  0  0  0
 44116  1  0  0  0
 45 46  2  0  0  0
 45117  1  0  0  0
 46118  1  0  0  0
 47119  1  0  0  0
 47120  1  0  0  0
 48 56  1  0  0  0
 48 65  1  0  0  0
 48121  1  0  0  0
 49 50  1  0  0  0
 49 53  1  0  0  0
 49 64  1  0  0  0
 49122  1  0  0  0
 50 51  1  0  0  0
 50123  1  0  0  0
 50124  1  0  0  0
 51 52  1  0  0  0
 51125  1  0  0  0
 51126  1  0  0  0
 52127  1  0  0  0
 52128  1  0  0  0
 53 54  1  0  0  0
 54 55  2  0  0  0
 54129  1  0  0  0
 55 57  1  0  0  0
 55130  1  0  0  0
 56 69  2  0  0  0
 57 58  2  0  0  0
 57131  1  0  0  0
 58132  1  0  0  0
 59 60  1  0  0  0
 59 61  1  0  0  0
 59 62  1  0  0  0
 60133  1  0  0  0
 60134  1  0  0  0
 60135  1  0  0  0
 61136  1  0  0  0
 61137  1  0  0  0
 61138  1  0  0  0
 62139  1  0  0  0
 62140  1  0  0  0
 62141  1  0  0  0
 63 65  1  0  0  0
 63142  1  0  0  0
 63143  1  0  0  0
 63144  1  0  0  0
 64145  1  0  0  0
 65146  1  0  0  0
 68 80  1  0  0  0
 71 72  2  0  0  0
 71 81  1  0  0  0
 71 84  1  0  0  0
 72 85  1  0  0  0
 72 87  1  0  0  0
 73 84  2  0  0  0
 73 86  1  0  0  0
 73 87  1  0  0  0
 74147  1  0  0  0
 74148  1  0  0  0
 74149  1  0  0  0
 74 81  1  0  0  0
 75150  1  0  0  0
 75151  1  0  0  0
 75152  1  0  0  0
 75 82  1  0  0  0
 76153  1  0  0  0
 76154  1  0  0  0
 76155  1  0  0  0
 76 83  1  0  0  0
 77 83  1  0  0  0
 77156  1  0  0  0
 77157  1  0  0  0
 77158  1  0  0  0
 78 81  1  0  0  0
 78 83  1  0  0  0
 78159  1  0  0  0
 78160  1  0  0  0
 79 82  1  0  0  0
 79 83  1  0  0  0
 79161  1  0  0  0
 79162  1  0  0  0
 80 82  1  0  0  0
 80163  1  0  0  0
 80164  1  0  0  0
 81165  1  0  0  0
 82166  1  0  0  0
 85167  1  0  0  0
 85168  1  0  0  0
 86169  1  0  0  0
M  ISO  4   1 100  68 101  80 101  86 100
M  END
> <chiral flag>
0

> <version>
0

> <s_m_source_file>
/data/baiqing/PycharmProjects/Reinvent-master-3.2/result/LINK_invent/BTK/process_docking_weight1_custom_product_contain_oxygen_bond_distance_aromatic_linkinvent_7_9_3/rearranged_h_0186.sdf

> <i_m_source_file_index>
36

> <r_mmod_Potential_Energy-OPLS-2005>
3.76831269264221

> <r_mmod_Stretch_Energy-OPLS-2005>
37.1245956420898

> <r_mmod_Bend_Energy-OPLS-2005>
114.01261138916

> <r_mmod_Torsional_Energy-OPLS-2005>
269.118774414062

> <r_mmod_Improper_Torsional_Energy-OPLS-2005>
8.03032302856445

> <r_mmod_Van_der_Waal_Energy-OPLS-2005>
135.603225708008

> <r_mmod_Electrostatic_Energy-OPLS-2005>
-376.811920166016

> <r_mmod_Solvation_Energy-OPLS-2005>
-197.788925170898

> <b_mmod_Minimization_Converged-OPLS-2005>
0

> <r_mmod_RMS_Derivative-OPLS-2005>
4.81004810333252

$$$$
37
                    3D
 Structure written by MMmdl.
166174  0  0  1  0            999 V2000
  -30.6932  -14.5111   20.5327 C   0  0  0  0  0  0
  -30.4240  -12.3196   19.4279 C   0  0  0  0  0  0
  -29.4943  -12.4910   18.2085 C   0  0  0  0  0  0
  -28.0160  -12.3523   18.6226 C   0  0  0  0  0  0
  -27.6573  -13.2072   19.8671 C   0  0  2  0  0  0
  -28.7027  -13.0208   20.9908 C   0  0  0  0  0  0
  -25.2577  -13.8165   20.5671 C   0  0  0  0  0  0
  -24.1826  -13.0433   20.9174 C   0  0  0  0  0  0
  -24.6384  -11.6904   20.8729 C   0  0  0  0  0  0
  -23.9049  -10.4289   21.0400 C   0  0  0  0  0  0
  -24.3601   -9.4207   21.9180 C   0  0  0  0  0  0
  -23.6278   -8.2245   22.0755 C   0  0  0  0  0  0
  -22.4264   -8.0279   21.3547 C   0  0  0  0  0  0
  -21.9903   -9.0246   20.4642 C   0  0  0  0  0  0
  -22.7228  -10.2126   20.3049 C   0  0  0  0  0  0
  -21.6853   -6.0725   22.5270 C   0  0  0  0  0  0
  -21.4014   -6.5632   23.8203 C   0  0  0  0  0  0
  -21.3656   -5.6786   24.9170 C   0  0  0  0  0  0
  -21.6047   -4.3051   24.7219 C   0  0  0  0  0  0
  -21.8821   -3.8142   23.4343 C   0  0  0  0  0  0
  -21.9193   -4.6953   22.3398 C   0  0  0  0  0  0
  -22.7851  -13.5234   21.1827 C   0  0  0  0  0  0
  -22.1663   -4.2137   21.0974 F   0  0  0  0  0  0
  -21.5625   -3.4534   25.7736 F   0  0  0  0  0  0
  -30.0299  -13.3238   20.4295 N   0  0  0  0  0  0
  -26.2999  -12.9330   20.3335 N   0  0  0  0  0  0
  -25.9311  -11.6491   20.5765 N   0  0  0  0  0  0
  -22.0487  -12.8228   22.0380 N   0  0  0  0  0  0
  -25.4314  -15.1879   20.4079 N   0  0  0  0  0  0
  -31.8486  -14.6503   20.1220 O   0  0  0  0  0  0
  -21.6639   -6.8868   21.4236 O   0  0  0  0  0  0
  -22.3548  -14.5543   20.6678 O   0  0  0  0  0  0
  -24.6163  -31.8684   23.2104 C   0  0  0  0  0  0
  -25.9054  -32.4833   23.8394 C   0  0  1  0  0  0
  -27.2250  -27.4185   20.1037 C   0  0  0  0  0  0
  -25.5906  -33.8622   24.2341 N   0  0  0  0  0  0
  -23.4043  -30.4938   21.5517 C   0  0  2  0  0  0
  -24.8505  -28.9591   20.1150 C   0  0  0  0  0  0
  -22.7407  -29.4674   22.4986 C   0  0  0  0  0  0
  -18.0268  -28.1369   22.8502 C   0  0  0  0  0  0
  -24.1486  -36.7317   23.2635 C   0  0  0  0  0  0
  -25.9350  -30.8321   21.3633 C   0  0  0  0  0  0
  -26.0142  -29.4659   20.7083 C   0  0  0  0  0  0
  -27.2088  -28.7050   20.6953 C   0  0  0  0  0  0
  -26.0470  -26.9362   19.4922 C   0  0  0  0  0  0
  -24.8619  -27.6942   19.5037 C   0  0  0  0  0  0
  -23.6141  -29.8283   20.1662 C   0  0  0  0  0  0
  -25.4111  -36.3119   24.0336 C   0  0  1  0  0  0
  -20.5857  -28.3671   23.1309 C   0  0  2  0  0  0
  -20.6768  -26.9408   22.5409 C   0  0  0  0  0  0
  -19.5748  -26.6385   21.5204 C   0  0  0  0  0  0
  -18.1924  -26.7919   22.1617 C   0  0  0  0  0  0
  -19.1518  -28.8835   23.2902 C   0  0  0  0  0  0
  -18.9451  -30.1429   23.8923 C   0  0  0  0  0  0
  -17.6460  -30.6589   24.0560 C   0  0  0  0  0  0
  -25.9040  -34.9483   23.5145 C   0  0  0  0  0  0
  -16.5350  -29.9092   23.6318 C   0  0  0  0  0  0
  -16.7257  -28.6494   23.0369 C   0  0  0  0  0  0
  -26.4472  -31.6608   25.0725 C   0  0  0  0  0  0
  -25.3723  -31.3689   26.1463 C   0  0  0  0  0  0
  -27.0325  -30.3060   24.6096 C   0  0  0  0  0  0
  -27.6058  -32.4318   25.7494 C   0  0  0  0  0  0
  -27.5589  -37.1816   24.8459 C   0  0  0  0  0  0
  -21.4139  -29.3039   22.3712 N   0  0  0  0  0  0
  -26.4298  -37.3808   23.9411 N   0  0  0  0  0  0
  -24.6706  -31.0779   22.1011 N   0  0  0  0  0  0
  -23.4175  -28.8203   23.3019 O   0  0  0  0  0  0
  -28.3584  -26.6296   20.1270 O   0  0  0  0  0  0
  -26.5596  -34.8926   22.4698 O   0  0  0  0  0  0
  -23.5359  -32.1447   23.7498 O   0  0  0  0  0  0
  -31.4771  -18.8805   21.0198 C   0  0  0  0  0  0
  -30.2434  -19.4575   20.7792 C   0  0  0  0  0  0
  -30.2317  -16.9594   20.8746 C   0  0  0  0  0  0
  -33.7818  -19.3126   20.0789 C   0  0  0  0  0  0
  -33.4080  -19.3229   22.5935 C   0  0  0  0  0  0
  -28.2321  -24.0702   18.6008 C   0  0  0  0  0  0
  -30.3126  -24.2268   20.0120 C   0  0  0  0  0  0
  -28.6881  -21.3890   20.2297 C   0  0  0  0  0  0
  -28.1823  -25.3494   20.7835 C   0  0  0  0  0  0
  -32.7899  -19.6038   21.2151 C   0  0  0  0  0  0
  -28.3396  -22.7997   20.8094 C   0  0  2  0  0  0
  -28.7769  -24.1041   20.0445 C   0  0  0  0  0  0
  -31.4525  -17.4732   21.0674 N   0  0  0  0  0  0
  -29.9670  -20.8405   20.6947 N   0  0  0  0  0  0
  -29.9341  -15.5585   20.9241 N   0  0  0  0  0  0
  -28.7544  -22.8557   22.0777 F   0  0  0  0  0  0
  -29.0076  -18.2114   20.6195 S   0  0  0  0  0  0
  -31.4670  -12.4175   19.1217 H   0  0  0  0  0  0
  -30.3298  -11.3166   19.8470 H   0  0  0  0  0  0
  -29.7376  -11.7516   17.4440 H   0  0  0  0  0  0
  -29.6574  -13.4679   17.7511 H   0  0  0  0  0  0
  -27.8306  -11.2986   18.8339 H   0  0  0  0  0  0
  -27.3648  -12.6104   17.7871 H   0  0  0  0  0  0
  -27.6908  -14.2487   19.5475 H   0  0  0  0  0  0
  -28.6841  -11.9938   21.3581 H   0  0  0  0  0  0
  -28.4658  -13.6445   21.8540 H   0  0  0  0  0  0
  -25.2747   -9.5680   22.4751 H   0  0  0  0  0  0
  -23.9979   -7.4642   22.7485 H   0  0  0  0  0  0
  -21.0834   -8.8764   19.8950 H   0  0  0  0  0  0
  -22.3689  -10.9659   19.6147 H   0  0  0  0  0  0
  -21.2016   -7.6141   23.9700 H   0  0  0  0  0  0
  -21.1475   -6.0520   25.9067 H   0  0  0  0  0  0
  -22.0607   -2.7601   23.2849 H   0  0  0  0  0  0
  -22.4107  -11.9889   22.4755 H   0  0  0  0  0  0
  -21.1104  -13.1260   22.2563 H   0  0  0  0  0  0
  -24.6657  -15.8436   20.5179 H   0  0  0  0  0  0
  -26.2745  -15.6233   20.0560 H   0  0  0  0  0  0
  -26.7123  -32.5561   23.1164 H   0  0  0  0  0  0
  -25.0045  -33.9761   25.0483 H   0  0  0  0  0  0
  -22.6954  -31.3125   21.4127 H   0  0  0  0  0  0
  -23.3749  -35.9648   23.3301 H   0  0  0  0  0  0
  -24.3572  -36.8938   22.2044 H   0  0  0  0  0  0
  -23.7233  -37.6520   23.6653 H   0  0  0  0  0  0
  -26.0433  -31.5998   20.5958 H   0  0  0  0  0  0
  -26.8230  -30.8889   21.9819 H   0  0  0  0  0  0
  -28.1075  -29.0873   21.1588 H   0  0  0  0  0  0
  -26.0403  -25.9657   19.0169 H   0  0  0  0  0  0
  -23.9667  -27.3004   19.0430 H   0  0  0  0  0  0
  -23.7253  -30.6067   19.4105 H   0  0  0  0  0  0
  -22.7371  -29.2517   19.8671 H   0  0  0  0  0  0
  -25.1281  -36.1995   25.0828 H   0  0  0  0  0  0
  -20.9937  -28.3241   24.1433 H   0  0  0  0  0  0
  -20.5682  -26.2275   23.3588 H   0  0  0  0  0  0
  -21.6643  -26.7463   22.1198 H   0  0  0  0  0  0
  -19.6919  -25.6296   21.1233 H   0  0  0  0  0  0
  -19.6695  -27.3193   20.6730 H   0  0  0  0  0  0
  -17.4195  -26.6669   21.4013 H   0  0  0  0  0  0
  -18.0328  -26.0036   22.8990 H   0  0  0  0  0  0
  -19.7930  -30.7214   24.2343 H   0  0  0  0  0  0
  -17.5025  -31.6275   24.5142 H   0  0  0  0  0  0
  -15.5355  -30.3010   23.7628 H   0  0  0  0  0  0
  -15.8651  -28.0804   22.7118 H   0  0  0  0  0  0
  -24.5897  -30.7050   25.7773 H   0  0  0  0  0  0
  -24.8889  -32.2819   26.4940 H   0  0  0  0  0  0
  -25.8040  -30.8820   27.0219 H   0  0  0  0  0  0
  -26.2882  -29.6804   24.1156 H   0  0  0  0  0  0
  -27.4114  -29.7307   25.4559 H   0  0  0  0  0  0
  -27.8701  -30.4386   23.9246 H   0  0  0  0  0  0
  -27.2703  -33.3616   26.2099 H   0  0  0  0  0  0
  -28.3861  -32.6885   25.0319 H   0  0  0  0  0  0
  -28.0743  -31.8420   26.5389 H   0  0  0  0  0  0
  -28.2602  -38.0123   24.7541 H   0  0  0  0  0  0
  -28.1096  -36.2654   24.6258 H   0  0  0  0  0  0
  -27.2293  -37.1436   25.8856 H   0  0  0  0  0  0
  -20.9307  -29.8754   21.6930 H   0  0  0  0  0  0
  -26.0193  -38.2894   24.1413 H   0  0  0  0  0  0
  -33.3633  -19.6018   19.1142 H   0  0  0  0  0  0
  -34.0337  -18.2530   20.0311 H   0  0  0  0  0  0
  -34.7097  -19.8691   20.2150 H   0  0  0  0  0  0
  -32.7139  -19.5833   23.3934 H   0  0  0  0  0  0
  -34.3170  -19.9073   22.7409 H   0  0  0  0  0  0
  -33.6691  -18.2705   22.7068 H   0  0  0  0  0  0
  -28.4035  -25.0169   18.0874 H   0  0  0  0  0  0
  -27.1597  -23.8723   18.5845 H   0  0  0  0  0  0
  -28.7153  -23.2991   18.0011 H   0  0  0  0  0  0
  -30.7280  -24.2839   21.0185 H   0  0  0  0  0  0
  -30.6266  -25.1275   19.4840 H   0  0  0  0  0  0
  -30.7685  -23.3711   19.5128 H   0  0  0  0  0  0
  -28.6748  -21.4008   19.1407 H   0  0  0  0  0  0
  -27.8888  -20.7090   20.5255 H   0  0  0  0  0  0
  -28.6486  -25.4386   21.7663 H   0  0  0  0  0  0
  -27.1316  -25.1529   21.0030 H   0  0  0  0  0  0
  -32.6021  -20.6779   21.1841 H   0  0  0  0  0  0
  -27.2501  -22.8232   20.8744 H   0  0  0  0  0  0
  -30.6497  -21.5339   20.9853 H   0  0  0  0  0  0
  -28.9758  -15.3285   21.1275 H   0  0  0  0  0  0
  1 25  1  0  0  0
  1 30  2  0  0  0
  1 85  1  0  0  0
  2  3  1  0  0  0
  2 25  1  0  0  0
  2 88  1  0  0  0
  2 89  1  0  0  0
  3  4  1  0  0  0
  3 90  1  0  0  0
  3 91  1  0  0  0
  4  5  1  0  0  0
  4 92  1  0  0  0
  4 93  1  0  0  0
  5  6  1  0  0  0
  5 26  1  0  0  0
  5 94  1  0  0  0
  6 25  1  0  0  0
  6 95  1  0  0  0
  6 96  1  0  0  0
  7  8  2  0  0  0
  7 26  1  0  0  0
  7 29  1  0  0  0
  8  9  1  0  0  0
  8 22  1  0  0  0
  9 10  1  0  0  0
  9 27  2  0  0  0
 10 11  2  0  0  0
 10 15  1  0  0  0
 11 12  1  0  0  0
 11 97  1  0  0  0
 12 13  2  0  0  0
 12 98  1  0  0  0
 13 14  1  0  0  0
 13 31  1  0  0  0
 14 15  2  0  0  0
 14 99  1  0  0  0
 15100  1  0  0  0
 16 17  2  0  0  0
 16 21  1  0  0  0
 16 31  1  0  0  0
 17 18  1  0  0  0
 17101  1  0  0  0
 18 19  2  0  0  0
 18102  1  0  0  0
 19 20  1  0  0  0
 19 24  1  0  0  0
 20 21  2  0  0  0
 20103  1  0  0  0
 21 23  1  0  0  0
 22 28  1  0  0  0
 22 32  2  0  0  0
 26 27  1  0  0  0
 28104  1  0  0  0
 28105  1  0  0  0
 29106  1  0  0  0
 29107  1  0  0  0
 33 34  1  0  0  0
 33 66  1  0  0  0
 33 70  2  0  0  0
 34 36  1  0  0  0
 34 59  1  0  0  0
 34108  1  0  0  0
 35 44  2  0  0  0
 35 45  1  0  0  0
 35 68  1  0  0  0
 36 56  1  0  0  0
 36109  1  0  0  0
 37 39  1  0  0  0
 37 47  1  0  0  0
 37 66  1  0  0  0
 37110  1  0  0  0
 38 43  2  0  0  0
 38 46  1  0  0  0
 38 47  1  0  0  0
 39 64  1  0  0  0
 39 67  2  0  0  0
 40 52  1  0  0  0
 40 53  2  0  0  0
 40 58  1  0  0  0
 41111  1  0  0  0
 41112  1  0  0  0
 41113  1  0  0  0
 41 48  1  0  0  0
 42 43  1  0  0  0
 42 66  1  0  0  0
 42114  1  0  0  0
 42115  1  0  0  0
 43 44  1  0  0  0
 44116  1  0  0  0
 45 46  2  0  0  0
 45117  1  0  0  0
 46118  1  0  0  0
 47119  1  0  0  0
 47120  1  0  0  0
 48 56  1  0  0  0
 48 65  1  0  0  0
 48121  1  0  0  0
 49 50  1  0  0  0
 49 53  1  0  0  0
 49 64  1  0  0  0
 49122  1  0  0  0
 50 51  1  0  0  0
 50123  1  0  0  0
 50124  1  0  0  0
 51 52  1  0  0  0
 51125  1  0  0  0
 51126  1  0  0  0
 52127  1  0  0  0
 52128  1  0  0  0
 53 54  1  0  0  0
 54 55  2  0  0  0
 54129  1  0  0  0
 55 57  1  0  0  0
 55130  1  0  0  0
 56 69  2  0  0  0
 57 58  2  0  0  0
 57131  1  0  0  0
 58132  1  0  0  0
 59 60  1  0  0  0
 59 61  1  0  0  0
 59 62  1  0  0  0
 60133  1  0  0  0
 60134  1  0  0  0
 60135  1  0  0  0
 61136  1  0  0  0
 61137  1  0  0  0
 61138  1  0  0  0
 62139  1  0  0  0
 62140  1  0  0  0
 62141  1  0  0  0
 63 65  1  0  0  0
 63142  1  0  0  0
 63143  1  0  0  0
 63144  1  0  0  0
 64145  1  0  0  0
 65146  1  0  0  0
 68 79  1  0  0  0
 71 72  2  0  0  0
 71 80  1  0  0  0
 71 83  1  0  0  0
 72 84  1  0  0  0
 72 87  1  0  0  0
 73 83  2  0  0  0
 73 85  1  0  0  0
 73 87  1  0  0  0
 74147  1  0  0  0
 74148  1  0  0  0
 74149  1  0  0  0
 74 80  1  0  0  0
 75 80  1  0  0  0
 75150  1  0  0  0
 75151  1  0  0  0
 75152  1  0  0  0
 76153  1  0  0  0
 76154  1  0  0  0
 76155  1  0  0  0
 76 82  1  0  0  0
 77 82  1  0  0  0
 77156  1  0  0  0
 77157  1  0  0  0
 77158  1  0  0  0
 78 81  1  0  0  0
 78 84  1  0  0  0
 78159  1  0  0  0
 78160  1  0  0  0
 79 82  1  0  0  0
 79161  1  0  0  0
 79162  1  0  0  0
 80163  1  0  0  0
 81 82  1  0  0  0
 81 86  1  0  0  0
 81164  1  0  0  0
 84165  1  0  0  0
 85166  1  0  0  0
M  ISO  4   1 100  68 101  79 101  85 100
M  END
> <chiral flag>
0

> <version>
0

> <s_m_source_file>
/data/baiqing/PycharmProjects/Reinvent-master-3.2/result/LINK_invent/BTK/process_docking_weight1_custom_product_contain_oxygen_bond_distance_aromatic_linkinvent_7_9_3/rearranged_h_0186.sdf

> <i_m_source_file_index>
37

> <r_mmod_Potential_Energy-OPLS-2005>
5.71140813827515

> <r_mmod_Stretch_Energy-OPLS-2005>
43.3898696899414

> <r_mmod_Bend_Energy-OPLS-2005>
116.991027832031

> <r_mmod_Torsional_Energy-OPLS-2005>
233.404144287109

> <r_mmod_Improper_Torsional_Energy-OPLS-2005>
4.87780237197876

> <r_mmod_Van_der_Waal_Energy-OPLS-2005>
129.373443603516

> <r_mmod_Electrostatic_Energy-OPLS-2005>
-325.930908203125

> <r_mmod_Solvation_Energy-OPLS-2005>
-215.149398803711

> <b_mmod_Minimization_Converged-OPLS-2005>
0

> <r_mmod_RMS_Derivative-OPLS-2005>
1.63653206825256

$$$$
38
                    3D
 Structure written by MMmdl.
153161  0  0  1  0            999 V2000
  -30.6668  -14.5026   20.5900 C   0  0  0  0  0  0
  -30.4345  -12.3306   19.4204 C   0  0  0  0  0  0
  -29.4980  -12.5153   18.2057 C   0  0  0  0  0  0
  -28.0184  -12.3657   18.6170 C   0  0  0  0  0  0
  -27.6600  -13.2017   19.8748 C   0  0  2  0  0  0
  -28.7017  -12.9720   20.9932 C   0  0  0  0  0  0
  -25.2576  -13.8143   20.5700 C   0  0  0  0  0  0
  -24.1815  -13.0435   20.9191 C   0  0  0  0  0  0
  -24.6369  -11.6900   20.8737 C   0  0  0  0  0  0
  -23.9048  -10.4290   21.0406 C   0  0  0  0  0  0
  -24.3602   -9.4211   21.9183 C   0  0  0  0  0  0
  -23.6281   -8.2246   22.0750 C   0  0  0  0  0  0
  -22.4261   -8.0282   21.3544 C   0  0  0  0  0  0
  -21.9896   -9.0259   20.4645 C   0  0  0  0  0  0
  -22.7227  -10.2139   20.3056 C   0  0  0  0  0  0
  -21.6847   -6.0742   22.5281 C   0  0  0  0  0  0
  -21.4015   -6.5644   23.8219 C   0  0  0  0  0  0
  -21.3665   -5.6790   24.9177 C   0  0  0  0  0  0
  -21.6040   -4.3055   24.7217 C   0  0  0  0  0  0
  -21.8816   -3.8153   23.4339 C   0  0  0  0  0  0
  -21.9189   -4.6972   22.3400 C   0  0  0  0  0  0
  -22.7843  -13.5258   21.1847 C   0  0  0  0  0  0
  -22.1655   -4.2166   21.0971 F   0  0  0  0  0  0
  -21.5639   -3.4532   25.7732 F   0  0  0  0  0  0
  -30.0305  -13.3047   20.4463 N   0  0  0  0  0  0
  -26.3004  -12.9300   20.3349 N   0  0  0  0  0  0
  -25.9285  -11.6466   20.5738 N   0  0  0  0  0  0
  -22.0456  -12.8270   22.0399 N   0  0  0  0  0  0
  -25.4310  -15.1872   20.4191 N   0  0  0  0  0  0
  -31.7973  -14.7162   20.1359 O   0  0  0  0  0  0
  -21.6619   -6.8883   21.4244 O   0  0  0  0  0  0
  -22.3545  -14.5574   20.6699 O   0  0  0  0  0  0
  -24.6172  -31.8670   23.2094 C   0  0  0  0  0  0
  -25.9069  -32.4809   23.8380 C   0  0  1  0  0  0
  -27.2282  -27.4224   20.0990 C   0  0  0  0  0  0
  -25.5918  -33.8610   24.2315 N   0  0  0  0  0  0
  -23.4051  -30.4901   21.5486 C   0  0  2  0  0  0
  -24.8525  -28.9570   20.1088 C   0  0  0  0  0  0
  -22.7420  -29.4664   22.4973 C   0  0  0  0  0  0
  -18.0296  -28.1352   22.8483 C   0  0  0  0  0  0
  -24.1484  -36.7314   23.2632 C   0  0  0  0  0  0
  -25.9332  -30.8278   21.3650 C   0  0  0  0  0  0
  -26.0122  -29.4624   20.7110 C   0  0  0  0  0  0
  -27.2083  -28.7027   20.7016 C   0  0  0  0  0  0
  -26.0567  -26.9408   19.4793 C   0  0  0  0  0  0
  -24.8709  -27.6964   19.4868 C   0  0  0  0  0  0
  -23.6144  -29.8243   20.1605 C   0  0  0  0  0  0
  -25.4102  -36.3102   24.0333 C   0  0  1  0  0  0
  -20.5884  -28.3673   23.1325 C   0  0  2  0  0  0
  -20.6811  -26.9417   22.5394 C   0  0  0  0  0  0
  -19.5786  -26.6344   21.5223 C   0  0  0  0  0  0
  -18.1957  -26.7904   22.1601 C   0  0  0  0  0  0
  -19.1535  -28.8822   23.2917 C   0  0  0  0  0  0
  -18.9440  -30.1423   23.8925 C   0  0  0  0  0  0
  -17.6440  -30.6571   24.0561 C   0  0  0  0  0  0
  -25.9029  -34.9473   23.5117 C   0  0  0  0  0  0
  -16.5339  -29.9070   23.6281 C   0  0  0  0  0  0
  -16.7282  -28.6486   23.0303 C   0  0  0  0  0  0
  -26.4484  -31.6579   25.0709 C   0  0  0  0  0  0
  -25.3744  -31.3697   26.1454 C   0  0  0  0  0  0
  -27.0315  -30.3025   24.6078 C   0  0  0  0  0  0
  -27.6059  -32.4301   25.7477 C   0  0  0  0  0  0
  -27.5579  -37.1810   24.8461 C   0  0  0  0  0  0
  -21.4143  -29.3080   22.3756 N   0  0  0  0  0  0
  -26.4290  -37.3789   23.9404 N   0  0  0  0  0  0
  -24.6692  -31.0774   22.0990 N   0  0  0  0  0  0
  -23.4181  -28.8182   23.3003 O   0  0  0  0  0  0
  -28.3547  -26.6266   20.1192 O   0  0  0  0  0  0
  -26.5589  -34.8937   22.4680 O   0  0  0  0  0  0
  -23.5366  -32.1430   23.7484 O   0  0  0  0  0  0
  -30.8197  -18.7047   22.4485 C   0  0  0  0  0  0
  -29.9916  -19.3459   21.5456 C   0  0  0  0  0  0
  -30.1655  -16.8597   21.2824 C   0  0  0  0  0  0
  -29.0876  -21.5095   20.7114 C   0  0  0  0  0  0
  -31.5575  -19.3519   23.5829 C   0  0  0  0  0  0
  -28.8380  -24.1404   20.3107 C   0  0  0  0  0  0
  -28.2029  -25.4265   20.9106 C   0  0  0  0  0  0
  -28.6970  -22.9107   21.2623 C   0  0  2  0  0  0
  -30.9133  -17.3118   22.2912 N   0  0  0  0  0  0
  -29.6876  -20.6829   21.5938 N   0  0  0  0  0  0
  -29.8965  -15.4706   21.1278 N   0  0  0  0  0  0
  -28.8467  -21.2025   19.5408 O   0  0  0  0  0  0
  -29.3979  -23.1485   22.3782 F   0  0  0  0  0  0
  -29.3093  -18.1569   20.4323 S   0  0  0  0  0  0
  -31.4768  -12.4552   19.1184 H   0  0  0  0  0  0
  -30.3549  -11.3153   19.8123 H   0  0  0  0  0  0
  -29.7416  -11.7900   17.4294 H   0  0  0  0  0  0
  -29.6582  -13.4998   17.7623 H   0  0  0  0  0  0
  -27.8320  -11.3091   18.8121 H   0  0  0  0  0  0
  -27.3679  -12.6396   17.7875 H   0  0  0  0  0  0
  -27.7050  -14.2499   19.5803 H   0  0  0  0  0  0
  -28.6857  -11.9275   21.3102 H   0  0  0  0  0  0
  -28.4512  -13.5439   21.8876 H   0  0  0  0  0  0
  -25.2746   -9.5686   22.4763 H   0  0  0  0  0  0
  -23.9989   -7.4630   22.7466 H   0  0  0  0  0  0
  -21.0834   -8.8796   19.8941 H   0  0  0  0  0  0
  -22.3701  -10.9683   19.6169 H   0  0  0  0  0  0
  -21.2013   -7.6149   23.9741 H   0  0  0  0  0  0
  -21.1479   -6.0505   25.9081 H   0  0  0  0  0  0
  -22.0583   -2.7614   23.2828 H   0  0  0  0  0  0
  -22.4041  -11.9945   22.4834 H   0  0  0  0  0  0
  -21.1074  -13.1315   22.2575 H   0  0  0  0  0  0
  -24.6700  -15.8416   20.5618 H   0  0  0  0  0  0
  -26.2850  -15.6352   20.1134 H   0  0  0  0  0  0
  -26.7144  -32.5511   23.1138 H   0  0  0  0  0  0
  -25.0122  -33.9742   25.0500 H   0  0  0  0  0  0
  -22.6935  -31.3067   21.4099 H   0  0  0  0  0  0
  -23.3740  -35.9651   23.3290 H   0  0  0  0  0  0
  -24.3587  -36.8925   22.2047 H   0  0  0  0  0  0
  -23.7244  -37.6523   23.6649 H   0  0  0  0  0  0
  -26.0460  -31.5934   20.5957 H   0  0  0  0  0  0
  -26.8209  -30.8789   21.9842 H   0  0  0  0  0  0
  -28.1033  -29.0827   21.1740 H   0  0  0  0  0  0
  -26.0620  -25.9722   19.0004 H   0  0  0  0  0  0
  -23.9830  -27.3048   19.0083 H   0  0  0  0  0  0
  -23.7256  -30.5982   19.3996 H   0  0  0  0  0  0
  -22.7377  -29.2441   19.8654 H   0  0  0  0  0  0
  -25.1279  -36.1956   25.0826 H   0  0  0  0  0  0
  -20.9993  -28.3202   24.1446 H   0  0  0  0  0  0
  -20.5784  -26.2304   23.3597 H   0  0  0  0  0  0
  -21.6680  -26.7495   22.1154 H   0  0  0  0  0  0
  -19.6934  -25.6236   21.1292 H   0  0  0  0  0  0
  -19.6712  -27.3125   20.6718 H   0  0  0  0  0  0
  -17.4249  -26.6679   21.3978 H   0  0  0  0  0  0
  -18.0317  -26.0036   22.8980 H   0  0  0  0  0  0
  -19.7921  -30.7232   24.2301 H   0  0  0  0  0  0
  -17.4978  -31.6239   24.5171 H   0  0  0  0  0  0
  -15.5334  -30.2965   23.7563 H   0  0  0  0  0  0
  -15.8684  -28.0803   22.6989 H   0  0  0  0  0  0
  -24.5916  -30.7042   25.7786 H   0  0  0  0  0  0
  -24.8947  -32.2870   26.4899 H   0  0  0  0  0  0
  -25.8109  -30.8872   27.0210 H   0  0  0  0  0  0
  -26.2860  -29.6791   24.1128 H   0  0  0  0  0  0
  -27.4080  -29.7261   25.4534 H   0  0  0  0  0  0
  -27.8701  -30.4341   23.9234 H   0  0  0  0  0  0
  -27.2666  -33.3584   26.2090 H   0  0  0  0  0  0
  -28.3860  -32.6876   25.0300 H   0  0  0  0  0  0
  -28.0730  -31.8395   26.5363 H   0  0  0  0  0  0
  -28.2597  -38.0103   24.7516 H   0  0  0  0  0  0
  -28.1074  -36.2647   24.6276 H   0  0  0  0  0  0
  -27.2311  -37.1449   25.8865 H   0  0  0  0  0  0
  -20.9304  -29.8875   21.7038 H   0  0  0  0  0  0
  -26.0176  -38.2867   24.1409 H   0  0  0  0  0  0
  -30.8629  -19.7784   24.3062 H   0  0  0  0  0  0
  -32.1964  -20.1582   23.2264 H   0  0  0  0  0  0
  -32.1906  -18.6441   24.1191 H   0  0  0  0  0  0
  -29.8918  -24.3188   20.0973 H   0  0  0  0  0  0
  -28.3619  -23.9222   19.3550 H   0  0  0  0  0  0
  -28.6561  -25.6314   21.8817 H   0  0  0  0  0  0
  -27.1531  -25.2149   21.1253 H   0  0  0  0  0  0
  -27.6567  -22.8287   21.5795 H   0  0  0  0  0  0
  -29.9103  -21.1544   22.4618 H   0  0  0  0  0  0
  -28.9572  -15.1829   21.3521 H   0  0  0  0  0  0
  1 25  1  0  0  0
  1 30  2  0  0  0
  1 81  1  0  0  0
  2  3  1  0  0  0
  2 25  1  0  0  0
  2 85  1  0  0  0
  2 86  1  0  0  0
  3  4  1  0  0  0
  3 87  1  0  0  0
  3 88  1  0  0  0
  4  5  1  0  0  0
  4 89  1  0  0  0
  4 90  1  0  0  0
  5  6  1  0  0  0
  5 26  1  0  0  0
  5 91  1  0  0  0
  6 25  1  0  0  0
  6 92  1  0  0  0
  6 93  1  0  0  0
  7  8  2  0  0  0
  7 26  1  0  0  0
  7 29  1  0  0  0
  8  9  1  0  0  0
  8 22  1  0  0  0
  9 10  1  0  0  0
  9 27  2  0  0  0
 10 11  2  0  0  0
 10 15  1  0  0  0
 11 12  1  0  0  0
 11 94  1  0  0  0
 12 13  2  0  0  0
 12 95  1  0  0  0
 13 14  1  0  0  0
 13 31  1  0  0  0
 14 15  2  0  0  0
 14 96  1  0  0  0
 15 97  1  0  0  0
 16 17  2  0  0  0
 16 21  1  0  0  0
 16 31  1  0  0  0
 17 18  1  0  0  0
 17 98  1  0  0  0
 18 19  2  0  0  0
 18 99  1  0  0  0
 19 20  1  0  0  0
 19 24  1  0  0  0
 20 21  2  0  0  0
 20100  1  0  0  0
 21 23  1  0  0  0
 22 28  1  0  0  0
 22 32  2  0  0  0
 26 27  1  0  0  0
 28101  1  0  0  0
 28102  1  0  0  0
 29103  1  0  0  0
 29104  1  0  0  0
 33 34  1  0  0  0
 33 66  1  0  0  0
 33 70  2  0  0  0
 34 36  1  0  0  0
 34 59  1  0  0  0
 34105  1  0  0  0
 35 44  2  0  0  0
 35 45  1  0  0  0
 35 68  1  0  0  0
 36 56  1  0  0  0
 36106  1  0  0  0
 37 39  1  0  0  0
 37 47  1  0  0  0
 37 66  1  0  0  0
 37107  1  0  0  0
 38 43  2  0  0  0
 38 46  1  0  0  0
 38 47  1  0  0  0
 39 64  1  0  0  0
 39 67  2  0  0  0
 40 52  1  0  0  0
 40 53  2  0  0  0
 40 58  1  0  0  0
 41108  1  0  0  0
 41109  1  0  0  0
 41110  1  0  0  0
 41 48  1  0  0  0
 42 43  1  0  0  0
 42 66  1  0  0  0
 42111  1  0  0  0
 42112  1  0  0  0
 43 44  1  0  0  0
 44113  1  0  0  0
 45 46  2  0  0  0
 45114  1  0  0  0
 46115  1  0  0  0
 47116  1  0  0  0
 47117  1  0  0  0
 48 56  1  0  0  0
 48 65  1  0  0  0
 48118  1  0  0  0
 49 50  1  0  0  0
 49 53  1  0  0  0
 49 64  1  0  0  0
 49119  1  0  0  0
 50 51  1  0  0  0
 50120  1  0  0  0
 50121  1  0  0  0
 51 52  1  0  0  0
 51122  1  0  0  0
 51123  1  0  0  0
 52124  1  0  0  0
 52125  1  0  0  0
 53 54  1  0  0  0
 54 55  2  0  0  0
 54126  1  0  0  0
 55 57  1  0  0  0
 55127  1  0  0  0
 56 69  2  0  0  0
 57 58  2  0  0  0
 57128  1  0  0  0
 58129  1  0  0  0
 59 60  1  0  0  0
 59 61  1  0  0  0
 59 62  1  0  0  0
 60130  1  0  0  0
 60131  1  0  0  0
 60132  1  0  0  0
 61133  1  0  0  0
 61134  1  0  0  0
 61135  1  0  0  0
 62136  1  0  0  0
 62137  1  0  0  0
 62138  1  0  0  0
 63 65  1  0  0  0
 63139  1  0  0  0
 63140  1  0  0  0
 63141  1  0  0  0
 64142  1  0  0  0
 65143  1  0  0  0
 68 77  1  0  0  0
 71 72  2  0  0  0
 71 75  1  0  0  0
 71 79  1  0  0  0
 72 80  1  0  0  0
 72 84  1  0  0  0
 73 79  2  0  0  0
 73 81  1  0  0  0
 73 84  1  0  0  0
 74 78  1  0  0  0
 74 80  1  0  0  0
 74 82  2  0  0  0
 75144  1  0  0  0
 75145  1  0  0  0
 75146  1  0  0  0
 76 77  1  0  0  0
 76 78  1  0  0  0
 76147  1  0  0  0
 76148  1  0  0  0
 77149  1  0  0  0
 77150  1  0  0  0
 78 83  1  0  0  0
 78151  1  0  0  0
 80152  1  0  0  0
 81153  1  0  0  0
M  ISO  4   1 100  68 101  77 101  81 100
M  END
> <chiral flag>
0

> <version>
0

> <s_m_source_file>
/data/baiqing/PycharmProjects/Reinvent-master-3.2/result/LINK_invent/BTK/process_docking_weight1_custom_product_contain_oxygen_bond_distance_aromatic_linkinvent_7_9_3/rearranged_h_0186.sdf

> <i_m_source_file_index>
38

> <r_mmod_Potential_Energy-OPLS-2005>
-139.560440063477

> <r_mmod_Stretch_Energy-OPLS-2005>
39.6282806396484

> <r_mmod_Bend_Energy-OPLS-2005>
111.070755004883

> <r_mmod_Torsional_Energy-OPLS-2005>
253.734100341797

> <r_mmod_Improper_Torsional_Energy-OPLS-2005>
5.38330984115601

> <r_mmod_Van_der_Waal_Energy-OPLS-2005>
128.052017211914

> <r_mmod_Electrostatic_Energy-OPLS-2005>
-454.204620361328

> <r_mmod_Solvation_Energy-OPLS-2005>
-239.901702880859

> <b_mmod_Minimization_Converged-OPLS-2005>
0

> <r_mmod_RMS_Derivative-OPLS-2005>
2.59030222892761

$$$$
39
                    3D
 Structure written by MMmdl.
155163  0  0  1  0            999 V2000
  -30.6058  -14.7499   20.4526 C   0  0  0  0  0  0
  -30.4330  -12.4519   19.4901 C   0  0  0  0  0  0
  -29.5181  -12.5185   18.2458 C   0  0  0  0  0  0
  -28.0412  -12.3458   18.6491 C   0  0  0  0  0  0
  -27.6460  -13.2364   19.8572 C   0  0  2  0  0  0
  -28.6865  -13.1607   20.9976 C   0  0  0  0  0  0
  -25.2516  -13.8210   20.5698 C   0  0  0  0  0  0
  -24.1808  -13.0450   20.9203 C   0  0  0  0  0  0
  -24.6408  -11.6930   20.8740 C   0  0  0  0  0  0
  -23.9091  -10.4303   21.0400 C   0  0  0  0  0  0
  -24.3636   -9.4214   21.9181 C   0  0  0  0  0  0
  -23.6308   -8.2249   22.0749 C   0  0  0  0  0  0
  -22.4285   -8.0288   21.3544 C   0  0  0  0  0  0
  -21.9925   -9.0267   20.4647 C   0  0  0  0  0  0
  -22.7260  -10.2143   20.3052 C   0  0  0  0  0  0
  -21.6859   -6.0748   22.5283 C   0  0  0  0  0  0
  -21.4019   -6.5649   23.8219 C   0  0  0  0  0  0
  -21.3656   -5.6794   24.9176 C   0  0  0  0  0  0
  -21.6042   -4.3059   24.7220 C   0  0  0  0  0  0
  -21.8818   -3.8155   23.4339 C   0  0  0  0  0  0
  -21.9193   -4.6976   22.3399 C   0  0  0  0  0  0
  -22.7827  -13.5230   21.1857 C   0  0  0  0  0  0
  -22.1659   -4.2163   21.0977 F   0  0  0  0  0  0
  -21.5623   -3.4539   25.7733 F   0  0  0  0  0  0
  -29.9952  -13.5120   20.4311 N   0  0  0  0  0  0
  -26.2957  -12.9430   20.3297 N   0  0  0  0  0  0
  -25.9345  -11.6566   20.5755 N   0  0  0  0  0  0
  -22.0462  -12.8229   22.0409 N   0  0  0  0  0  0
  -25.4198  -15.1935   20.4121 N   0  0  0  0  0  0
  -31.7755  -14.8508   20.0664 O   0  0  0  0  0  0
  -21.6641   -6.8891   21.4243 O   0  0  0  0  0  0
  -22.3513  -14.5531   20.6695 O   0  0  0  0  0  0
  -24.6331  -31.8543   23.1993 C   0  0  0  0  0  0
  -25.9150  -32.4748   23.8338 C   0  0  1  0  0  0
  -27.2132  -27.2387   20.1250 C   0  0  0  0  0  0
  -25.5938  -33.8553   24.2254 N   0  0  0  0  0  0
  -23.4302  -30.4789   21.5432 C   0  0  2  0  0  0
  -24.8766  -28.9284   20.1067 C   0  0  0  0  0  0
  -22.7511  -29.4600   22.4907 C   0  0  0  0  0  0
  -18.0292  -28.1383   22.8478 C   0  0  0  0  0  0
  -24.1490  -36.7283   23.2642 C   0  0  0  0  0  0
  -25.9797  -30.7564   21.3874 C   0  0  0  0  0  0
  -26.0488  -29.3791   20.7265 C   0  0  0  0  0  0
  -27.2161  -28.5444   20.7314 C   0  0  0  0  0  0
  -26.0232  -26.8808   19.4474 C   0  0  0  0  0  0
  -24.8711  -27.6878   19.4566 C   0  0  0  0  0  0
  -23.6490  -29.8175   20.1578 C   0  0  0  0  0  0
  -25.4116  -36.3068   24.0328 C   0  0  1  0  0  0
  -20.5897  -28.3700   23.1257 C   0  0  2  0  0  0
  -20.6777  -26.9415   22.5402 C   0  0  0  0  0  0
  -19.5753  -26.6377   21.5207 C   0  0  0  0  0  0
  -18.1935  -26.7923   22.1620 C   0  0  0  0  0  0
  -19.1546  -28.8859   23.2862 C   0  0  0  0  0  0
  -18.9467  -30.1457   23.8881 C   0  0  0  0  0  0
  -17.6466  -30.6584   24.0557 C   0  0  0  0  0  0
  -25.9060  -34.9439   23.5096 C   0  0  0  0  0  0
  -16.5358  -29.9078   23.6332 C   0  0  0  0  0  0
  -16.7277  -28.6498   23.0351 C   0  0  0  0  0  0
  -26.4500  -31.6584   25.0744 C   0  0  0  0  0  0
  -25.3709  -31.3746   26.1457 C   0  0  0  0  0  0
  -27.0360  -30.2992   24.6271 C   0  0  0  0  0  0
  -27.6042  -32.4337   25.7516 C   0  0  0  0  0  0
  -27.5579  -37.1798   24.8463 C   0  0  0  0  0  0
  -21.4217  -29.3048   22.3648 N   0  0  0  0  0  0
  -26.4288  -37.3770   23.9409 N   0  0  0  0  0  0
  -24.7000  -31.0486   22.0986 N   0  0  0  0  0  0
  -23.4203  -28.8138   23.3011 O   0  0  0  0  0  0
  -28.2879  -26.3121   20.2197 O   0  0  0  0  0  0
  -26.5636  -34.8915   22.4668 O   0  0  0  0  0  0
  -23.5476  -32.1387   23.7271 O   0  0  0  0  0  0
  -29.3051  -18.2212   17.9172 C   0  0  0  0  0  0
  -29.5956  -17.0867   18.6906 C   0  0  0  0  0  0
  -29.1640  -19.4746   18.5333 C   0  0  0  0  0  0
  -29.7379  -17.1804   20.0891 C   0  0  0  0  0  0
  -29.3424  -19.6095   19.9228 C   0  0  0  0  0  0
  -30.3502  -22.4672   18.8670 C   0  0  0  0  0  0
  -28.8136  -23.6536   20.5205 C   0  0  0  0  0  0
  -30.1415  -23.0650   17.4810 C   0  0  0  0  0  0
  -28.0937  -24.8793   19.7645 C   0  0  0  0  0  0
  -29.1039  -22.2466   19.7458 C   0  0  2  0  0  0
  -29.5981  -18.4548   20.6707 N   0  0  0  0  0  0
  -29.8595  -15.8755   20.7888 N   0  0  0  0  0  0
  -29.2329  -20.9295   20.5219 N   0  0  0  0  0  0
  -31.4929  -22.1694   19.2280 O   0  0  0  0  0  0
  -29.1108  -23.7868   21.7130 O   0  0  0  0  0  0
  -31.4773  -12.5641   19.1943 H   0  0  0  0  0  0
  -30.3656  -11.4726   19.9667 H   0  0  0  0  0  0
  -29.8040  -11.7514   17.5251 H   0  0  0  0  0  0
  -29.6520  -13.4768   17.7411 H   0  0  0  0  0  0
  -27.8889  -11.2956   18.8990 H   0  0  0  0  0  0
  -27.3909  -12.5527   17.7981 H   0  0  0  0  0  0
  -27.6451  -14.2618   19.4861 H   0  0  0  0  0  0
  -28.7148  -12.1599   21.4313 H   0  0  0  0  0  0
  -28.4167  -13.8363   21.8103 H   0  0  0  0  0  0
  -25.2779   -9.5696   22.4758 H   0  0  0  0  0  0
  -24.0020   -7.4640   22.7470 H   0  0  0  0  0  0
  -21.0852   -8.8796   19.8959 H   0  0  0  0  0  0
  -22.3721  -10.9684   19.6159 H   0  0  0  0  0  0
  -21.2018   -7.6158   23.9732 H   0  0  0  0  0  0
  -21.1475   -6.0520   25.9083 H   0  0  0  0  0  0
  -22.0597   -2.7619   23.2833 H   0  0  0  0  0  0
  -22.4082  -11.9915   22.4835 H   0  0  0  0  0  0
  -21.1072  -13.1255   22.2585 H   0  0  0  0  0  0
  -24.6494  -15.8443   20.5218 H   0  0  0  0  0  0
  -26.2662  -15.6367   20.0790 H   0  0  0  0  0  0
  -26.7215  -32.5385   23.1073 H   0  0  0  0  0  0
  -25.0066  -33.9687   25.0386 H   0  0  0  0  0  0
  -22.7278  -31.3027   21.3992 H   0  0  0  0  0  0
  -23.3757  -35.9611   23.3295 H   0  0  0  0  0  0
  -24.3580  -36.8918   22.2058 H   0  0  0  0  0  0
  -23.7239  -37.6479   23.6673 H   0  0  0  0  0  0
  -26.1280  -31.5171   20.6195 H   0  0  0  0  0  0
  -26.8536  -30.7995   22.0259 H   0  0  0  0  0  0
  -28.1060  -28.8791   21.2457 H   0  0  0  0  0  0
  -25.9339  -25.9535   18.9042 H   0  0  0  0  0  0
  -23.9788  -27.3440   18.9511 H   0  0  0  0  0  0
  -23.7754  -30.5965   19.4052 H   0  0  0  0  0  0
  -22.7659  -29.2544   19.8505 H   0  0  0  0  0  0
  -25.1299  -36.1913   25.0820 H   0  0  0  0  0  0
  -20.9988  -28.3279   24.1379 H   0  0  0  0  0  0
  -20.5668  -26.2317   23.3614 H   0  0  0  0  0  0
  -21.6647  -26.7430   22.1205 H   0  0  0  0  0  0
  -19.6916  -25.6285   21.1245 H   0  0  0  0  0  0
  -19.6686  -27.3180   20.6730 H   0  0  0  0  0  0
  -17.4204  -26.6664   21.4024 H   0  0  0  0  0  0
  -18.0338  -26.0066   22.9017 H   0  0  0  0  0  0
  -19.7944  -30.7271   24.2248 H   0  0  0  0  0  0
  -17.5022  -31.6265   24.5157 H   0  0  0  0  0  0
  -15.5356  -30.2973   23.7668 H   0  0  0  0  0  0
  -15.8679  -28.0811   22.7072 H   0  0  0  0  0  0
  -24.5879  -30.7102   25.7784 H   0  0  0  0  0  0
  -24.8909  -32.2921   26.4866 H   0  0  0  0  0  0
  -25.8014  -30.8928   27.0245 H   0  0  0  0  0  0
  -26.2968  -29.6725   24.1268 H   0  0  0  0  0  0
  -27.3989  -29.7269   25.4820 H   0  0  0  0  0  0
  -27.8867  -30.4249   23.9570 H   0  0  0  0  0  0
  -27.2634  -33.3636   26.2075 H   0  0  0  0  0  0
  -28.3854  -32.6899   25.0350 H   0  0  0  0  0  0
  -28.0706  -31.8481   26.5447 H   0  0  0  0  0  0
  -28.2591  -38.0101   24.7518 H   0  0  0  0  0  0
  -28.1079  -36.2633   24.6274 H   0  0  0  0  0  0
  -27.2300  -37.1431   25.8867 H   0  0  0  0  0  0
  -20.9406  -29.8778   21.6856 H   0  0  0  0  0  0
  -26.0166  -38.2846   24.1403 H   0  0  0  0  0  0
  -29.1720  -18.1264   16.8489 H   0  0  0  0  0  0
  -29.6653  -16.1323   18.1867 H   0  0  0  0  0  0
  -28.9188  -20.3117   17.8985 H   0  0  0  0  0  0
  -29.0949  -23.0086   17.1833 H   0  0  0  0  0  0
  -30.7323  -22.5201   16.7453 H   0  0  0  0  0  0
  -30.4518  -24.1092   17.4683 H   0  0  0  0  0  0
  -27.0443  -24.6115   19.8610 H   0  0  0  0  0  0
  -28.3314  -24.8244   18.7027 H   0  0  0  0  0  0
  -28.2535  -22.0973   19.0807 H   0  0  0  0  0  0
  -29.0674  -15.6662   21.3746 H   0  0  0  0  0  0
  -29.4421  -21.0278   21.5079 H   0  0  0  0  0  0
  1 25  1  0  0  0
  1 30  2  0  0  0
  1 82  1  0  0  0
  2  3  1  0  0  0
  2 25  1  0  0  0
  2 86  1  0  0  0
  2 87  1  0  0  0
  3  4  1  0  0  0
  3 88  1  0  0  0
  3 89  1  0  0  0
  4  5  1  0  0  0
  4 90  1  0  0  0
  4 91  1  0  0  0
  5  6  1  0  0  0
  5 26  1  0  0  0
  5 92  1  0  0  0
  6 25  1  0  0  0
  6 93  1  0  0  0
  6 94  1  0  0  0
  7  8  2  0  0  0
  7 26  1  0  0  0
  7 29  1  0  0  0
  8  9  1  0  0  0
  8 22  1  0  0  0
  9 10  1  0  0  0
  9 27  2  0  0  0
 10 11  2  0  0  0
 10 15  1  0  0  0
 11 12  1  0  0  0
 11 95  1  0  0  0
 12 13  2  0  0  0
 12 96  1  0  0  0
 13 14  1  0  0  0
 13 31  1  0  0  0
 14 15  2  0  0  0
 14 97  1  0  0  0
 15 98  1  0  0  0
 16 17  2  0  0  0
 16 21  1  0  0  0
 16 31  1  0  0  0
 17 18  1  0  0  0
 17 99  1  0  0  0
 18 19  2  0  0  0
 18100  1  0  0  0
 19 20  1  0  0  0
 19 24  1  0  0  0
 20 21  2  0  0  0
 20101  1  0  0  0
 21 23  1  0  0  0
 22 28  1  0  0  0
 22 32  2  0  0  0
 26 27  1  0  0  0
 28102  1  0  0  0
 28103  1  0  0  0
 29104  1  0  0  0
 29105  1  0  0  0
 33 34  1  0  0  0
 33 66  1  0  0  0
 33 70  2  0  0  0
 34 36  1  0  0  0
 34 59  1  0  0  0
 34106  1  0  0  0
 35 44  2  0  0  0
 35 45  1  0  0  0
 35 68  1  0  0  0
 36 56  1  0  0  0
 36107  1  0  0  0
 37 39  1  0  0  0
 37 47  1  0  0  0
 37 66  1  0  0  0
 37108  1  0  0  0
 38 43  2  0  0  0
 38 46  1  0  0  0
 38 47  1  0  0  0
 39 64  1  0  0  0
 39 67  2  0  0  0
 40 52  1  0  0  0
 40 53  2  0  0  0
 40 58  1  0  0  0
 41109  1  0  0  0
 41110  1  0  0  0
 41111  1  0  0  0
 41 48  1  0  0  0
 42 43  1  0  0  0
 42 66  1  0  0  0
 42112  1  0  0  0
 42113  1  0  0  0
 43 44  1  0  0  0
 44114  1  0  0  0
 45 46  2  0  0  0
 45115  1  0  0  0
 46116  1  0  0  0
 47117  1  0  0  0
 47118  1  0  0  0
 48 56  1  0  0  0
 48 65  1  0  0  0
 48119  1  0  0  0
 49 50  1  0  0  0
 49 53  1  0  0  0
 49 64  1  0  0  0
 49120  1  0  0  0
 50 51  1  0  0  0
 50121  1  0  0  0
 50122  1  0  0  0
 51 52  1  0  0  0
 51123  1  0  0  0
 51124  1  0  0  0
 52125  1  0  0  0
 52126  1  0  0  0
 53 54  1  0  0  0
 54 55  2  0  0  0
 54127  1  0  0  0
 55 57  1  0  0  0
 55128  1  0  0  0
 56 69  2  0  0  0
 57 58  2  0  0  0
 57129  1  0  0  0
 58130  1  0  0  0
 59 60  1  0  0  0
 59 61  1  0  0  0
 59 62  1  0  0  0
 60131  1  0  0  0
 60132  1  0  0  0
 60133  1  0  0  0
 61134  1  0  0  0
 61135  1  0  0  0
 61136  1  0  0  0
 62137  1  0  0  0
 62138  1  0  0  0
 62139  1  0  0  0
 63 65  1  0  0  0
 63140  1  0  0  0
 63141  1  0  0  0
 63142  1  0  0  0
 64143  1  0  0  0
 65144  1  0  0  0
 68 79  1  0  0  0
 71 72  2  0  0  0
 71 73  1  0  0  0
 71145  1  0  0  0
 72 74  1  0  0  0
 72146  1  0  0  0
 73 75  2  0  0  0
 73147  1  0  0  0
 74 81  2  0  0  0
 74 82  1  0  0  0
 75 81  1  0  0  0
 75 83  1  0  0  0
 76 78  1  0  0  0
 76 80  1  0  0  0
 76 84  2  0  0  0
 77 79  1  0  0  0
 77 80  1  0  0  0
 77 85  2  0  0  0
 78148  1  0  0  0
 78149  1  0  0  0
 78150  1  0  0  0
 79151  1  0  0  0
 79152  1  0  0  0
 80 83  1  0  0  0
 80153  1  0  0  0
 82154  1  0  0  0
 83155  1  0  0  0
M  ISO  4   1 100  68 101  79 101  82 100
M  END
> <chiral flag>
0

> <version>
0

> <s_m_source_file>
/data/baiqing/PycharmProjects/Reinvent-master-3.2/result/LINK_invent/BTK/process_docking_weight1_custom_product_contain_oxygen_bond_distance_aromatic_linkinvent_7_9_3/rearranged_h_0186.sdf

> <i_m_source_file_index>
39

> <r_mmod_Potential_Energy-OPLS-2005>
-98.3984756469727

> <r_mmod_Stretch_Energy-OPLS-2005>
138.322280883789

> <r_mmod_Bend_Energy-OPLS-2005>
178.594390869141

> <r_mmod_Torsional_Energy-OPLS-2005>
246.088241577148

> <r_mmod_Improper_Torsional_Energy-OPLS-2005>
5.63263273239136

> <r_mmod_Van_der_Waal_Energy-OPLS-2005>
143.233367919922

> <r_mmod_Electrostatic_Energy-OPLS-2005>
-622.283935546875

> <r_mmod_Solvation_Energy-OPLS-2005>
-282.741729736328

> <b_mmod_Minimization_Converged-OPLS-2005>
0

> <r_mmod_RMS_Derivative-OPLS-2005>
0.874758660793304

$$$$
40
                    3D
 Structure written by MMmdl.
164172  0  0  1  0            999 V2000
  -30.7423  -14.5414   20.5703 C   0  0  0  0  0  0
  -30.4336  -12.3440   19.4547 C   0  0  0  0  0  0
  -29.5125  -12.4954   18.2252 C   0  0  0  0  0  0
  -28.0347  -12.3560   18.6406 C   0  0  0  0  0  0
  -27.6704  -13.2216   19.8784 C   0  0  2  0  0  0
  -28.7166  -13.0706   21.0101 C   0  0  0  0  0  0
  -25.2673  -13.8186   20.5739 C   0  0  0  0  0  0
  -24.1929  -13.0459   20.9210 C   0  0  0  0  0  0
  -24.6503  -11.6936   20.8744 C   0  0  0  0  0  0
  -23.9154  -10.4314   21.0395 C   0  0  0  0  0  0
  -24.3683   -9.4226   21.9190 C   0  0  0  0  0  0
  -23.6331   -8.2270   22.0767 C   0  0  0  0  0  0
  -22.4313   -8.0318   21.3551 C   0  0  0  0  0  0
  -21.9958   -9.0315   20.4672 C   0  0  0  0  0  0
  -22.7309  -10.2182   20.3066 C   0  0  0  0  0  0
  -21.6859   -6.0760   22.5290 C   0  0  0  0  0  0
  -21.4025   -6.5679   23.8224 C   0  0  0  0  0  0
  -21.3651   -5.6823   24.9188 C   0  0  0  0  0  0
  -21.6027   -4.3082   24.7226 C   0  0  0  0  0  0
  -21.8815   -3.8182   23.4350 C   0  0  0  0  0  0
  -21.9199   -4.6988   22.3411 C   0  0  0  0  0  0
  -22.7957  -13.5262   21.1845 C   0  0  0  0  0  0
  -22.1666   -4.2170   21.0975 F   0  0  0  0  0  0
  -21.5608   -3.4567   25.7734 F   0  0  0  0  0  0
  -30.0450  -13.3688   20.4491 N   0  0  0  0  0  0
  -26.3144  -12.9390   20.3430 N   0  0  0  0  0  0
  -25.9447  -11.6548   20.5842 N   0  0  0  0  0  0
  -22.0588  -12.8246   22.0391 N   0  0  0  0  0  0
  -25.4369  -15.1917   20.4176 N   0  0  0  0  0  0
  -31.8621  -14.6659   20.0671 O   0  0  0  0  0  0
  -21.6676   -6.8918   21.4250 O   0  0  0  0  0  0
  -22.3657  -14.5583   20.6709 O   0  0  0  0  0  0
  -24.6195  -31.8615   23.2026 C   0  0  0  0  0  0
  -25.9032  -32.4809   23.8359 C   0  0  1  0  0  0
  -27.2546  -27.3867   20.1376 C   0  0  0  0  0  0
  -25.5858  -33.8606   24.2295 N   0  0  0  0  0  0
  -23.4145  -30.4815   21.5390 C   0  0  2  0  0  0
  -24.8691  -28.9470   20.1052 C   0  0  0  0  0  0
  -22.7497  -29.4619   22.4933 C   0  0  0  0  0  0
  -18.0350  -28.1359   22.8579 C   0  0  0  0  0  0
  -24.1509  -36.7292   23.2649 C   0  0  0  0  0  0
  -25.9443  -30.8323   21.3480 C   0  0  0  0  0  0
  -26.0283  -29.4606   20.6994 C   0  0  0  0  0  0
  -27.2206  -28.6897   20.7035 C   0  0  0  0  0  0
  -26.0776  -26.9068   19.5117 C   0  0  0  0  0  0
  -24.8964  -27.6772   19.5013 C   0  0  0  0  0  0
  -23.6240  -29.8103   20.1545 C   0  0  0  0  0  0
  -25.4129  -36.3114   24.0368 C   0  0  1  0  0  0
  -20.5947  -28.3769   23.1477 C   0  0  2  0  0  0
  -20.6854  -26.9458   22.5721 C   0  0  0  0  0  0
  -19.5921  -26.6357   21.5404 C   0  0  0  0  0  0
  -18.2117  -26.7834   22.1885 C   0  0  0  0  0  0
  -19.1563  -28.8932   23.2920 C   0  0  0  0  0  0
  -18.9372  -30.1637   23.8758 C   0  0  0  0  0  0
  -17.6329  -30.6721   24.0314 C   0  0  0  0  0  0
  -25.9070  -34.9492   23.5136 C   0  0  0  0  0  0
  -16.5294  -29.9057   23.6207 C   0  0  0  0  0  0
  -16.7293  -28.6399   23.0349 C   0  0  0  0  0  0
  -26.4498  -31.6571   25.0657 C   0  0  0  0  0  0
  -25.3777  -31.3581   26.1376 C   0  0  0  0  0  0
  -27.0291  -30.3031   24.5961 C   0  0  0  0  0  0
  -27.6151  -32.4215   25.7395 C   0  0  0  0  0  0
  -27.5627  -37.1780   24.8483 C   0  0  0  0  0  0
  -21.4204  -29.3012   22.3746 N   0  0  0  0  0  0
  -26.4309  -37.3804   23.9446 N   0  0  0  0  0  0
  -24.6796  -31.0678   22.0923 N   0  0  0  0  0  0
  -23.4246  -28.8192   23.3015 O   0  0  0  0  0  0
  -28.4290  -26.6359   20.2057 O   0  0  0  0  0  0
  -26.5640  -34.8937   22.4700 O   0  0  0  0  0  0
  -23.5387  -32.1444   23.7380 O   0  0  0  0  0  0
  -31.5884  -18.9330   20.7471 C   0  0  0  0  0  0
  -30.6144  -19.4857   21.5494 C   0  0  0  0  0  0
  -30.4552  -16.9841   21.2213 C   0  0  0  0  0  0
  -27.6015  -24.0413   23.7169 C   0  0  0  0  0  0
  -26.9730  -22.2543   22.0120 C   0  0  0  0  0  0
  -28.8136  -24.7178   18.8162 C   0  0  0  0  0  0
  -30.5382  -20.9240   22.0811 C   0  0  0  0  0  0
  -29.4373  -24.6349   21.3067 C   0  0  0  0  0  0
  -28.1058  -22.8766   22.8481 C   0  0  0  0  0  0
  -29.3871  -23.2016   22.0198 C   0  0  1  0  0  0
  -28.4160  -25.1730   20.2317 C   0  0  1  0  0  0
  -31.4801  -17.5393   20.5578 N   0  0  0  0  0  0
  -30.1169  -15.5784   21.1926 N   0  0  0  0  0  0
  -29.8417  -21.9788   21.2570 N   0  3  0  0  0  0
  -29.5235  -18.2122   22.1080 S   0  0  0  0  0  0
  -31.4774  -12.4242   19.1483 H   0  0  0  0  0  0
  -30.3276  -11.3447   19.8841 H   0  0  0  0  0  0
  -29.7593  -11.7329   17.4831 H   0  0  0  0  0  0
  -29.6833  -13.4565   17.7378 H   0  0  0  0  0  0
  -27.8564  -11.3040   18.8657 H   0  0  0  0  0  0
  -27.3814  -12.6000   17.8004 H   0  0  0  0  0  0
  -27.6961  -14.2604   19.5499 H   0  0  0  0  0  0
  -28.7045  -12.0582   21.4154 H   0  0  0  0  0  0
  -28.4795  -13.7206   21.8534 H   0  0  0  0  0  0
  -25.2810   -9.5702   22.4800 H   0  0  0  0  0  0
  -24.0023   -7.4662   22.7500 H   0  0  0  0  0  0
  -21.0883   -8.8879   19.8987 H   0  0  0  0  0  0
  -22.3773  -10.9754   19.6216 H   0  0  0  0  0  0
  -21.2036   -7.6180   23.9724 H   0  0  0  0  0  0
  -21.1462   -6.0557   25.9078 H   0  0  0  0  0  0
  -22.0590   -2.7634   23.2846 H   0  0  0  0  0  0
  -22.4192  -11.9906   22.4779 H   0  0  0  0  0  0
  -21.1216  -13.1288   22.2581 H   0  0  0  0  0  0
  -24.6706  -15.8393   20.5573 H   0  0  0  0  0  0
  -26.2953  -15.6438   20.1273 H   0  0  0  0  0  0
  -26.7080  -32.5583   23.1115 H   0  0  0  0  0  0
  -24.9884  -33.9767   25.0356 H   0  0  0  0  0  0
  -22.7071  -31.2981   21.3989 H   0  0  0  0  0  0
  -23.3816  -35.9585   23.3296 H   0  0  0  0  0  0
  -24.3588  -36.8896   22.2065 H   0  0  0  0  0  0
  -23.7206  -37.6485   23.6623 H   0  0  0  0  0  0
  -26.0503  -31.6104   20.5882 H   0  0  0  0  0  0
  -26.8339  -30.8960   21.9652 H   0  0  0  0  0  0
  -28.1054  -29.0890   21.1782 H   0  0  0  0  0  0
  -26.0651  -25.9439   19.0195 H   0  0  0  0  0  0
  -24.0090  -27.2972   19.0174 H   0  0  0  0  0  0
  -23.7255  -30.5927   19.3977 H   0  0  0  0  0  0
  -22.7539  -29.2177   19.8605 H   0  0  0  0  0  0
  -25.1329  -36.1995   25.0869 H   0  0  0  0  0  0
  -20.9996  -28.3439   24.1619 H   0  0  0  0  0  0
  -20.5494  -26.2486   23.3985 H   0  0  0  0  0  0
  -21.6776  -26.7318   22.1730 H   0  0  0  0  0  0
  -19.7157  -25.6227   21.1566 H   0  0  0  0  0  0
  -19.6864  -27.3190   20.6961 H   0  0  0  0  0  0
  -18.0703  -26.0085   22.9438 H   0  0  0  0  0  0
  -17.4391  -26.6274   21.4338 H   0  0  0  0  0  0
  -19.7758  -30.7656   24.2004 H   0  0  0  0  0  0
  -17.4786  -31.6567   24.4544 H   0  0  0  0  0  0
  -15.5252  -30.2885   23.7502 H   0  0  0  0  0  0
  -15.8756  -28.0556   22.7193 H   0  0  0  0  0  0
  -24.6064  -30.6821   25.7641 H   0  0  0  0  0  0
  -24.8853  -32.2690   26.4789 H   0  0  0  0  0  0
  -25.8204  -30.8778   27.0104 H   0  0  0  0  0  0
  -26.2793  -29.6756   24.1125 H   0  0  0  0  0  0
  -27.4200  -29.7287   25.4357 H   0  0  0  0  0  0
  -27.8583  -30.4383   23.9017 H   0  0  0  0  0  0
  -27.2889  -33.3540   26.1975 H   0  0  0  0  0  0
  -28.3968  -32.6631   25.0193 H   0  0  0  0  0  0
  -28.0750  -31.8242   26.5257 H   0  0  0  0  0  0
  -28.2667  -38.0078   24.7585 H   0  0  0  0  0  0
  -28.1108  -36.2607   24.6258 H   0  0  0  0  0  0
  -27.2311  -37.1382   25.8876 H   0  0  0  0  0  0
  -20.9339  -29.8644   21.6907 H   0  0  0  0  0  0
  -26.0235  -38.2913   24.1381 H   0  0  0  0  0  0
  -32.4199  -19.4512   20.2887 H   0  0  0  0  0  0
  -26.8555  -23.6844   24.4289 H   0  0  0  0  0  0
  -27.1426  -24.8300   23.1213 H   0  0  0  0  0  0
  -28.4114  -24.4788   24.3098 H   0  0  0  0  0  0
  -26.0417  -22.2202   22.5758 H   0  0  0  0  0  0
  -27.2014  -21.2251   21.7316 H   0  0  0  0  0  0
  -26.7933  -22.8065   21.0946 H   0  0  0  0  0  0
  -29.0178  -23.6492   18.7819 H   0  0  0  0  0  0
  -29.7194  -25.2350   18.4930 H   0  0  0  0  0  0
  -28.0354  -24.9364   18.0821 H   0  0  0  0  0  0
  -31.5531  -21.2874   22.2580 H   0  0  0  0  0  0
  -30.0915  -20.8721   23.0729 H   0  0  0  0  0  0
  -30.4475  -24.8005   20.9418 H   0  0  0  0  0  0
  -29.3496  -25.3524   22.1255 H   0  0  0  0  0  0
  -28.3712  -22.1102   23.5786 H   0  0  0  0  0  0
  -30.1685  -23.3326   22.7710 H   0  0  0  0  0  0
  -27.4231  -24.8113   20.4870 H   0  0  0  0  0  0
  -29.2422  -15.3410   21.6292 H   0  0  0  0  0  0
  -29.0308  -21.5619   20.8331 H   0  0  0  0  0  0
  -30.4817  -22.2438   20.5255 H   0  0  0  0  0  0
  1 25  1  0  0  0
  1 30  2  0  0  0
  1 83  1  0  0  0
  2  3  1  0  0  0
  2 25  1  0  0  0
  2 86  1  0  0  0
  2 87  1  0  0  0
  3  4  1  0  0  0
  3 88  1  0  0  0
  3 89  1  0  0  0
  4  5  1  0  0  0
  4 90  1  0  0  0
  4 91  1  0  0  0
  5  6  1  0  0  0
  5 26  1  0  0  0
  5 92  1  0  0  0
  6 25  1  0  0  0
  6 93  1  0  0  0
  6 94  1  0  0  0
  7  8  2  0  0  0
  7 26  1  0  0  0
  7 29  1  0  0  0
  8  9  1  0  0  0
  8 22  1  0  0  0
  9 10  1  0  0  0
  9 27  2  0  0  0
 10 11  2  0  0  0
 10 15  1  0  0  0
 11 12  1  0  0  0
 11 95  1  0  0  0
 12 13  2  0  0  0
 12 96  1  0  0  0
 13 14  1  0  0  0
 13 31  1  0  0  0
 14 15  2  0  0  0
 14 97  1  0  0  0
 15 98  1  0  0  0
 16 17  2  0  0  0
 16 21  1  0  0  0
 16 31  1  0  0  0
 17 18  1  0  0  0
 17 99  1  0  0  0
 18 19  2  0  0  0
 18100  1  0  0  0
 19 20  1  0  0  0
 19 24  1  0  0  0
 20 21  2  0  0  0
 20101  1  0  0  0
 21 23  1  0  0  0
 22 28  1  0  0  0
 22 32  2  0  0  0
 26 27  1  0  0  0
 28102  1  0  0  0
 28103  1  0  0  0
 29104  1  0  0  0
 29105  1  0  0  0
 33 34  1  0  0  0
 33 66  1  0  0  0
 33 70  2  0  0  0
 34 36  1  0  0  0
 34 59  1  0  0  0
 34106  1  0  0  0
 35 44  2  0  0  0
 35 45  1  0  0  0
 35 68  1  0  0  0
 36 56  1  0  0  0
 36107  1  0  0  0
 37 39  1  0  0  0
 37 47  1  0  0  0
 37 66  1  0  0  0
 37108  1  0  0  0
 38 43  2  0  0  0
 38 46  1  0  0  0
 38 47  1  0  0  0
 39 64  1  0  0  0
 39 67  2  0  0  0
 40 52  1  0  0  0
 40 53  2  0  0  0
 40 58  1  0  0  0
 41109  1  0  0  0
 41110  1  0  0  0
 41111  1  0  0  0
 41 48  1  0  0  0
 42 43  1  0  0  0
 42 66  1  0  0  0
 42112  1  0  0  0
 42113  1  0  0  0
 43 44  1  0  0  0
 44114  1  0  0  0
 45 46  2  0  0  0
 45115  1  0  0  0
 46116  1  0  0  0
 47117  1  0  0  0
 47118  1  0  0  0
 48 56  1  0  0  0
 48 65  1  0  0  0
 48119  1  0  0  0
 49 50  1  0  0  0
 49 53  1  0  0  0
 49 64  1  0  0  0
 49120  1  0  0  0
 50 51  1  0  0  0
 50121  1  0  0  0
 50122  1  0  0  0
 51 52  1  0  0  0
 51123  1  0  0  0
 51124  1  0  0  0
 52125  1  0  0  0
 52126  1  0  0  0
 53 54  1  0  0  0
 54 55  2  0  0  0
 54127  1  0  0  0
 55 57  1  0  0  0
 55128  1  0  0  0
 56 69  2  0  0  0
 57 58  2  0  0  0
 57129  1  0  0  0
 58130  1  0  0  0
 59 60  1  0  0  0
 59 61  1  0  0  0
 59 62  1  0  0  0
 60131  1  0  0  0
 60132  1  0  0  0
 60133  1  0  0  0
 61134  1  0  0  0
 61135  1  0  0  0
 61136  1  0  0  0
 62137  1  0  0  0
 62138  1  0  0  0
 62139  1  0  0  0
 63 65  1  0  0  0
 63140  1  0  0  0
 63141  1  0  0  0
 63142  1  0  0  0
 64143  1  0  0  0
 65144  1  0  0  0
 68 81  1  0  0  0
 71 72  2  0  0  0
 71 82  1  0  0  0
 71145  1  0  0  0
 72 77  1  0  0  0
 72 85  1  0  0  0
 73 82  2  0  0  0
 73 83  1  0  0  0
 73 85  1  0  0  0
 74146  1  0  0  0
 74147  1  0  0  0
 74148  1  0  0  0
 74 79  1  0  0  0
 75 79  1  0  0  0
 75149  1  0  0  0
 75150  1  0  0  0
 75151  1  0  0  0
 76152  1  0  0  0
 76153  1  0  0  0
 76154  1  0  0  0
 76 81  1  0  0  0
 77 84  1  0  0  0
 77155  1  0  0  0
 77156  1  0  0  0
 78 81  1  0  0  0
 78157  1  0  0  0
 78158  1  0  0  0
 78 80  1  0  0  0
 79 80  1  0  0  0
 79159  1  0  0  0
 80 84  1  0  0  0
 80160  1  0  0  0
 81161  1  0  0  0
 83162  1  0  0  0
 84163  1  0  0  0
 84164  1  0  0  0
M  CHG  1  84   1
M  ISO  4   1 100  68 101  81 101  83 100
M  END
> <chiral flag>
0

> <version>
0

> <s_m_source_file>
/data/baiqing/PycharmProjects/Reinvent-master-3.2/result/LINK_invent/BTK/process_docking_weight1_custom_product_contain_oxygen_bond_distance_aromatic_linkinvent_7_9_3/rearranged_h_0186.sdf

> <i_m_source_file_index>
40

> <r_mmod_Potential_Energy-OPLS-2005>
-196.693023681641

> <r_mmod_Stretch_Energy-OPLS-2005>
62.7524185180664

> <r_mmod_Bend_Energy-OPLS-2005>
157.981552124023

> <r_mmod_Torsional_Energy-OPLS-2005>
235.893478393555

> <r_mmod_Improper_Torsional_Energy-OPLS-2005>
2.84730911254883

> <r_mmod_Van_der_Waal_Energy-OPLS-2005>
119.58186340332

> <r_mmod_Electrostatic_Energy-OPLS-2005>
-314.825317382812

> <r_mmod_Solvation_Energy-OPLS-2005>
-486.270629882812

> <b_mmod_Minimization_Converged-OPLS-2005>
0

> <r_mmod_RMS_Derivative-OPLS-2005>
7.84790658950806

$$$$
41
                    3D
 Structure written by MMmdl.
171179  0  0  1  0            999 V2000
  -30.7644  -14.4435   20.5376 C   0  0  0  0  0  0
  -30.3929  -12.2849   19.4292 C   0  0  0  0  0  0
  -29.4839  -12.4856   18.2029 C   0  0  0  0  0  0
  -28.0053  -12.3580   18.6145 C   0  0  0  0  0  0
  -27.6495  -13.2187   19.8586 C   0  0  2  0  0  0
  -28.6931  -13.0588   20.9873 C   0  0  0  0  0  0
  -25.2547  -13.8190   20.5668 C   0  0  0  0  0  0
  -24.1822  -13.0455   20.9176 C   0  0  0  0  0  0
  -24.6373  -11.6923   20.8705 C   0  0  0  0  0  0
  -23.9045  -10.4305   21.0387 C   0  0  0  0  0  0
  -24.3604   -9.4225   21.9167 C   0  0  0  0  0  0
  -23.6297   -8.2252   22.0751 C   0  0  0  0  0  0
  -22.4280   -8.0275   21.3547 C   0  0  0  0  0  0
  -21.9900   -9.0237   20.4641 C   0  0  0  0  0  0
  -22.7216  -10.2125   20.3052 C   0  0  0  0  0  0
  -21.6875   -6.0722   22.5272 C   0  0  0  0  0  0
  -21.4017   -6.5629   23.8196 C   0  0  0  0  0  0
  -21.3663   -5.6791   24.9162 C   0  0  0  0  0  0
  -21.6053   -4.3051   24.7221 C   0  0  0  0  0  0
  -21.8824   -3.8138   23.4343 C   0  0  0  0  0  0
  -21.9198   -4.6948   22.3397 C   0  0  0  0  0  0
  -22.7843  -13.5225   21.1842 C   0  0  0  0  0  0
  -22.1670   -4.2130   21.0976 F   0  0  0  0  0  0
  -21.5629   -3.4547   25.7736 F   0  0  0  0  0  0
  -30.0201  -13.3142   20.4118 N   0  0  0  0  0  0
  -26.2969  -12.9380   20.3312 N   0  0  0  0  0  0
  -25.9299  -11.6524   20.5728 N   0  0  0  0  0  0
  -22.0502  -12.8209   22.0395 N   0  0  0  0  0  0
  -25.4282  -15.1921   20.4071 N   0  0  0  0  0  0
  -31.9330  -14.4692   20.1768 O   0  0  0  0  0  0
  -21.6662   -6.8868   21.4240 O   0  0  0  0  0  0
  -22.3506  -14.5530   20.6690 O   0  0  0  0  0  0
  -24.6143  -31.8695   23.2131 C   0  0  0  0  0  0
  -25.9044  -32.4824   23.8403 C   0  0  1  0  0  0
  -27.2174  -27.4390   20.0727 C   0  0  0  0  0  0
  -25.5901  -33.8622   24.2326 N   0  0  0  0  0  0
  -23.3974  -30.4996   21.5564 C   0  0  2  0  0  0
  -24.8352  -28.9690   20.1208 C   0  0  0  0  0  0
  -22.7382  -29.4687   22.5009 C   0  0  0  0  0  0
  -18.0258  -28.1373   22.8473 C   0  0  0  0  0  0
  -24.1494  -36.7330   23.2630 C   0  0  0  0  0  0
  -25.9283  -30.8355   21.3646 C   0  0  0  0  0  0
  -26.0010  -29.4713   20.7106 C   0  0  0  0  0  0
  -27.1966  -28.7164   20.6797 C   0  0  0  0  0  0
  -26.0213  -26.9470   19.5034 C   0  0  0  0  0  0
  -24.8398  -27.7039   19.5162 C   0  0  0  0  0  0
  -23.6009  -29.8378   20.1699 C   0  0  0  0  0  0
  -25.4104  -36.3114   24.0335 C   0  0  1  0  0  0
  -20.5842  -28.3660   23.1328 C   0  0  2  0  0  0
  -20.6766  -26.9401   22.5410 C   0  0  0  0  0  0
  -19.5762  -26.6392   21.5196 C   0  0  0  0  0  0
  -18.1932  -26.7910   22.1606 C   0  0  0  0  0  0
  -19.1503  -28.8824   23.2902 C   0  0  0  0  0  0
  -18.9430  -30.1419   23.8930 C   0  0  0  0  0  0
  -17.6442  -30.6581   24.0560 C   0  0  0  0  0  0
  -25.9037  -34.9478   23.5130 C   0  0  0  0  0  0
  -16.5335  -29.9076   23.6336 C   0  0  0  0  0  0
  -16.7251  -28.6490   23.0365 C   0  0  0  0  0  0
  -26.4478  -31.6572   25.0714 C   0  0  0  0  0  0
  -25.3754  -31.3625   26.1468 C   0  0  0  0  0  0
  -27.0300  -30.3029   24.6050 C   0  0  0  0  0  0
  -27.6092  -32.4243   25.7478 C   0  0  0  0  0  0
  -27.5582  -37.1817   24.8459 C   0  0  0  0  0  0
  -21.4113  -29.3047   22.3749 N   0  0  0  0  0  0
  -26.4293  -37.3793   23.9397 N   0  0  0  0  0  0
  -24.6657  -31.0820   22.1025 N   0  0  0  0  0  0
  -23.4150  -28.8204   23.3032 O   0  0  0  0  0  0
  -28.4013  -26.7311   20.0328 O   0  0  0  0  0  0
  -26.5596  -34.8925   22.4691 O   0  0  0  0  0  0
  -23.5350  -32.1451   23.7541 O   0  0  0  0  0  0
  -29.6030  -17.9760   21.2620 C   0  0  0  0  0  0
  -28.7694  -18.3186   22.3045 C   0  0  0  0  0  0
  -28.6587  -19.8601   20.3899 C   0  0  0  0  0  0
  -28.1688  -22.1453   19.5197 C   0  0  0  0  0  0
  -28.6479  -17.6359   23.6282 C   0  0  0  0  0  0
  -33.7413  -17.9315   22.2112 C   0  0  0  0  0  0
  -28.6924  -22.6875   17.0881 C   0  0  0  0  0  0
  -31.8971  -17.2354   18.8906 C   0  0  0  0  0  0
  -33.3081  -17.0417   21.0380 C   0  0  0  0  0  0
  -28.2721  -24.6328   18.6555 C   0  0  0  0  0  0
  -28.3539  -25.2969   20.0556 C   0  0  0  0  0  0
  -30.6769  -16.9007   21.2252 C   0  0  2  0  0  0
  -28.7967  -23.1739   18.5488 C   0  0  1  0  0  0
  -31.9362  -17.4292   20.4286 C   0  0  2  0  0  0
  -29.4157  -18.7962   20.1426 N   0  0  0  0  0  0
  -28.7092  -20.9204   19.4590 N   0  0  0  0  0  0
  -30.1208  -15.5628   20.9142 N   0  0  0  0  0  0
  -27.2303  -22.4445   20.2594 O   0  0  0  0  0  0
  -27.8659  -19.7873   21.9580 S   0  0  0  0  0  0
  -31.4419  -12.3315   19.1292 H   0  0  0  0  0  0
  -30.2491  -11.2912   19.8575 H   0  0  0  0  0  0
  -29.7211  -11.7524   17.4308 H   0  0  0  0  0  0
  -29.6649  -13.4685   17.7624 H   0  0  0  0  0  0
  -27.8119  -11.3052   18.8229 H   0  0  0  0  0  0
  -27.3590  -12.6230   17.7774 H   0  0  0  0  0  0
  -27.6754  -14.2591   19.5308 H   0  0  0  0  0  0
  -28.6636  -12.0509   21.4029 H   0  0  0  0  0  0
  -28.4717  -13.7317   21.8170 H   0  0  0  0  0  0
  -25.2743   -9.5708   22.4737 H   0  0  0  0  0  0
  -24.0012   -7.4649   22.7474 H   0  0  0  0  0  0
  -21.0835   -8.8742   19.8937 H   0  0  0  0  0  0
  -22.3669  -10.9653   19.6159 H   0  0  0  0  0  0
  -21.2019   -7.6140   23.9688 H   0  0  0  0  0  0
  -21.1485   -6.0525   25.9062 H   0  0  0  0  0  0
  -22.0606   -2.7601   23.2854 H   0  0  0  0  0  0
  -22.4147  -11.9874   22.4768 H   0  0  0  0  0  0
  -21.1103  -13.1201   22.2603 H   0  0  0  0  0  0
  -24.6639  -15.8480   20.5204 H   0  0  0  0  0  0
  -26.2795  -15.6309   20.0810 H   0  0  0  0  0  0
  -26.7097  -32.5530   23.1150 H   0  0  0  0  0  0
  -25.0094  -33.9780   25.0500 H   0  0  0  0  0  0
  -22.6867  -31.3167   21.4213 H   0  0  0  0  0  0
  -23.3755  -35.9670   23.3309 H   0  0  0  0  0  0
  -24.3591  -36.8947   22.2047 H   0  0  0  0  0  0
  -23.7272  -37.6542   23.6648 H   0  0  0  0  0  0
  -26.0383  -31.5990   20.5922 H   0  0  0  0  0  0
  -26.8185  -30.8874   21.9790 H   0  0  0  0  0  0
  -28.1007  -29.1076   21.1265 H   0  0  0  0  0  0
  -25.9648  -25.9850   19.0318 H   0  0  0  0  0  0
  -23.9445  -27.3091   19.0565 H   0  0  0  0  0  0
  -23.7068  -30.6144   19.4111 H   0  0  0  0  0  0
  -22.7228  -29.2596   19.8748 H   0  0  0  0  0  0
  -25.1284  -36.2006   25.0833 H   0  0  0  0  0  0
  -20.9916  -28.3224   24.1456 H   0  0  0  0  0  0
  -20.5695  -26.2251   23.3578 H   0  0  0  0  0  0
  -21.6640  -26.7486   22.1197 H   0  0  0  0  0  0
  -19.6951  -25.6307   21.1225 H   0  0  0  0  0  0
  -19.6725  -27.3197   20.6722 H   0  0  0  0  0  0
  -17.4202  -26.6631   21.4013 H   0  0  0  0  0  0
  -18.0362  -26.0023   22.8986 H   0  0  0  0  0  0
  -19.7905  -30.7207   24.2337 H   0  0  0  0  0  0
  -17.5011  -31.6278   24.5122 H   0  0  0  0  0  0
  -15.5340  -30.3012   23.7647 H   0  0  0  0  0  0
  -15.8634  -28.0832   22.7100 H   0  0  0  0  0  0
  -24.5979  -30.6904   25.7802 H   0  0  0  0  0  0
  -24.8861  -32.2734   26.4925 H   0  0  0  0  0  0
  -25.8133  -30.8812   27.0222 H   0  0  0  0  0  0
  -26.2812  -29.6788   24.1162 H   0  0  0  0  0  0
  -27.4152  -29.7270   25.4471 H   0  0  0  0  0  0
  -27.8613  -30.4365   23.9124 H   0  0  0  0  0  0
  -27.2778  -33.3561   26.2072 H   0  0  0  0  0  0
  -28.3914  -32.6752   25.0293 H   0  0  0  0  0  0
  -28.0734  -31.8318   26.5374 H   0  0  0  0  0  0
  -28.2601  -38.0122   24.7521 H   0  0  0  0  0  0
  -28.1087  -36.2649   24.6278 H   0  0  0  0  0  0
  -27.2289  -37.1461   25.8862 H   0  0  0  0  0  0
  -20.9248  -29.8757   21.6982 H   0  0  0  0  0  0
  -26.0206  -38.2883   24.1394 H   0  0  0  0  0  0
  -28.3811  -16.5864   23.4987 H   0  0  0  0  0  0
  -27.8847  -18.1056   24.2493 H   0  0  0  0  0  0
  -29.5913  -17.6769   24.1747 H   0  0  0  0  0  0
  -34.6927  -17.5921   22.6209 H   0  0  0  0  0  0
  -33.0139  -17.9178   23.0222 H   0  0  0  0  0  0
  -33.8759  -18.9661   21.8929 H   0  0  0  0  0  0
  -29.1765  -21.7222   16.9367 H   0  0  0  0  0  0
  -29.1812  -23.3819   16.4061 H   0  0  0  0  0  0
  -27.6542  -22.5956   16.7680 H   0  0  0  0  0  0
  -32.6389  -17.8755   18.4110 H   0  0  0  0  0  0
  -30.9277  -17.4976   18.4658 H   0  0  0  0  0  0
  -32.1168  -16.2231   18.5651 H   0  0  0  0  0  0
  -33.3233  -16.0081   21.3753 H   0  0  0  0  0  0
  -34.0761  -17.1119   20.2665 H   0  0  0  0  0  0
  -28.8593  -25.2455   17.9692 H   0  0  0  0  0  0
  -27.2618  -24.6479   18.2540 H   0  0  0  0  0  0
  -29.2802  -24.9813   20.5351 H   0  0  0  0  0  0
  -27.5526  -24.9571   20.7126 H   0  0  0  0  0  0
  -31.0188  -16.7899   22.2555 H   0  0  0  0  0  0
  -29.8571  -23.2105   18.8037 H   0  0  0  0  0  0
  -31.9306  -18.5138   20.5510 H   0  0  0  0  0  0
  -29.3766  -20.7875   18.7155 H   0  0  0  0  0  0
  -29.1367  -15.4599   21.0978 H   0  0  0  0  0  0
  1 25  1  0  0  0
  1 30  2  0  0  0
  1 87  1  0  0  0
  2  3  1  0  0  0
  2 25  1  0  0  0
  2 90  1  0  0  0
  2 91  1  0  0  0
  3  4  1  0  0  0
  3 92  1  0  0  0
  3 93  1  0  0  0
  4  5  1  0  0  0
  4 94  1  0  0  0
  4 95  1  0  0  0
  5  6  1  0  0  0
  5 26  1  0  0  0
  5 96  1  0  0  0
  6 25  1  0  0  0
  6 97  1  0  0  0
  6 98  1  0  0  0
  7  8  2  0  0  0
  7 26  1  0  0  0
  7 29  1  0  0  0
  8  9  1  0  0  0
  8 22  1  0  0  0
  9 10  1  0  0  0
  9 27  2  0  0  0
 10 11  2  0  0  0
 10 15  1  0  0  0
 11 12  1  0  0  0
 11 99  1  0  0  0
 12 13  2  0  0  0
 12100  1  0  0  0
 13 14  1  0  0  0
 13 31  1  0  0  0
 14 15  2  0  0  0
 14101  1  0  0  0
 15102  1  0  0  0
 16 17  2  0  0  0
 16 21  1  0  0  0
 16 31  1  0  0  0
 17 18  1  0  0  0
 17103  1  0  0  0
 18 19  2  0  0  0
 18104  1  0  0  0
 19 20  1  0  0  0
 19 24  1  0  0  0
 20 21  2  0  0  0
 20105  1  0  0  0
 21 23  1  0  0  0
 22 28  1  0  0  0
 22 32  2  0  0  0
 26 27  1  0  0  0
 28106  1  0  0  0
 28107  1  0  0  0
 29108  1  0  0  0
 29109  1  0  0  0
 33 34  1  0  0  0
 33 66  1  0  0  0
 33 70  2  0  0  0
 34 36  1  0  0  0
 34 59  1  0  0  0
 34110  1  0  0  0
 35 44  2  0  0  0
 35 45  1  0  0  0
 35 68  1  0  0  0
 36 56  1  0  0  0
 36111  1  0  0  0
 37 39  1  0  0  0
 37 47  1  0  0  0
 37 66  1  0  0  0
 37112  1  0  0  0
 38 43  2  0  0  0
 38 46  1  0  0  0
 38 47  1  0  0  0
 39 64  1  0  0  0
 39 67  2  0  0  0
 40 52  1  0  0  0
 40 53  2  0  0  0
 40 58  1  0  0  0
 41113  1  0  0  0
 41114  1  0  0  0
 41115  1  0  0  0
 41 48  1  0  0  0
 42 43  1  0  0  0
 42 66  1  0  0  0
 42116  1  0  0  0
 42117  1  0  0  0
 43 44  1  0  0  0
 44118  1  0  0  0
 45 46  2  0  0  0
 45119  1  0  0  0
 46120  1  0  0  0
 47121  1  0  0  0
 47122  1  0  0  0
 48 56  1  0  0  0
 48 65  1  0  0  0
 48123  1  0  0  0
 49 50  1  0  0  0
 49 53  1  0  0  0
 49 64  1  0  0  0
 49124  1  0  0  0
 50 51  1  0  0  0
 50125  1  0  0  0
 50126  1  0  0  0
 51 52  1  0  0  0
 51127  1  0  0  0
 51128  1  0  0  0
 52129  1  0  0  0
 52130  1  0  0  0
 53 54  1  0  0  0
 54 55  2  0  0  0
 54131  1  0  0  0
 55 57  1  0  0  0
 55132  1  0  0  0
 56 69  2  0  0  0
 57 58  2  0  0  0
 57133  1  0  0  0
 58134  1  0  0  0
 59 60  1  0  0  0
 59 61  1  0  0  0
 59 62  1  0  0  0
 60135  1  0  0  0
 60136  1  0  0  0
 60137  1  0  0  0
 61138  1  0  0  0
 61139  1  0  0  0
 61140  1  0  0  0
 62141  1  0  0  0
 62142  1  0  0  0
 62143  1  0  0  0
 63 65  1  0  0  0
 63144  1  0  0  0
 63145  1  0  0  0
 63146  1  0  0  0
 64147  1  0  0  0
 65148  1  0  0  0
 68 81  1  0  0  0
 71 72  2  0  0  0
 71 82  1  0  0  0
 71 85  1  0  0  0
 72 75  1  0  0  0
 72 89  1  0  0  0
 73 85  2  0  0  0
 73 86  1  0  0  0
 73 89  1  0  0  0
 74 83  1  0  0  0
 74 86  1  0  0  0
 74 88  2  0  0  0
 75149  1  0  0  0
 75150  1  0  0  0
 75151  1  0  0  0
 76 79  1  0  0  0
 76152  1  0  0  0
 76153  1  0  0  0
 76154  1  0  0  0
 77155  1  0  0  0
 77156  1  0  0  0
 77157  1  0  0  0
 77 83  1  0  0  0
 78158  1  0  0  0
 78159  1  0  0  0
 78160  1  0  0  0
 78 84  1  0  0  0
 79 84  1  0  0  0
 79161  1  0  0  0
 79162  1  0  0  0
 80 81  1  0  0  0
 80 83  1  0  0  0
 80163  1  0  0  0
 80164  1  0  0  0
 81165  1  0  0  0
 81166  1  0  0  0
 82 84  1  0  0  0
 82 87  1  0  0  0
 82167  1  0  0  0
 83168  1  0  0  0
 84169  1  0  0  0
 86170  1  0  0  0
 87171  1  0  0  0
M  ISO  4   1 100  68 101  81 101  87 100
M  END
> <chiral flag>
0

> <version>
0

> <s_m_source_file>
/data/baiqing/PycharmProjects/Reinvent-master-3.2/result/LINK_invent/BTK/process_docking_weight1_custom_product_contain_oxygen_bond_distance_aromatic_linkinvent_7_9_3/rearranged_h_0186.sdf

> <i_m_source_file_index>
41

> <r_mmod_Potential_Energy-OPLS-2005>
-158.446105957031

> <r_mmod_Stretch_Energy-OPLS-2005>
39.4109535217285

> <r_mmod_Bend_Energy-OPLS-2005>
140.941436767578

> <r_mmod_Torsional_Energy-OPLS-2005>
241.547927856445

> <r_mmod_Improper_Torsional_Energy-OPLS-2005>
4.54528999328613

> <r_mmod_Van_der_Waal_Energy-OPLS-2005>
142.611999511719

> <r_mmod_Electrostatic_Energy-OPLS-2005>
-538.609497070312

> <r_mmod_Solvation_Energy-OPLS-2005>
-210.113464355469

> <b_mmod_Minimization_Converged-OPLS-2005>
0

> <r_mmod_RMS_Derivative-OPLS-2005>
2.72819423675537

$$$$
42
                    3D
 Structure written by MMmdl.
156164  0  0  1  0            999 V2000
  -30.6606  -14.5541   20.4735 C   0  0  0  0  0  0
  -30.4290  -12.3175   19.4587 C   0  0  0  0  0  0
  -29.5025  -12.4226   18.2267 C   0  0  0  0  0  0
  -28.0184  -12.3267   18.6325 C   0  0  0  0  0  0
  -27.6550  -13.2081   19.8585 C   0  0  2  0  0  0
  -28.6959  -13.0526   20.9900 C   0  0  0  0  0  0
  -25.2566  -13.8171   20.5660 C   0  0  0  0  0  0
  -24.1826  -13.0446   20.9186 C   0  0  0  0  0  0
  -24.6381  -11.6913   20.8749 C   0  0  0  0  0  0
  -23.9053  -10.4296   21.0413 C   0  0  0  0  0  0
  -24.3610   -9.4209   21.9186 C   0  0  0  0  0  0
  -23.6292   -8.2240   22.0753 C   0  0  0  0  0  0
  -22.4274   -8.0279   21.3542 C   0  0  0  0  0  0
  -21.9904   -9.0255   20.4647 C   0  0  0  0  0  0
  -22.7229  -10.2137   20.3059 C   0  0  0  0  0  0
  -21.6851   -6.0737   22.5278 C   0  0  0  0  0  0
  -21.4017   -6.5642   23.8214 C   0  0  0  0  0  0
  -21.3657   -5.6794   24.9174 C   0  0  0  0  0  0
  -21.6044   -4.3059   24.7224 C   0  0  0  0  0  0
  -21.8818   -3.8149   23.4346 C   0  0  0  0  0  0
  -21.9193   -4.6965   22.3402 C   0  0  0  0  0  0
  -22.7846  -13.5246   21.1852 C   0  0  0  0  0  0
  -22.1659   -4.2150   21.0978 F   0  0  0  0  0  0
  -21.5627   -3.4543   25.7737 F   0  0  0  0  0  0
  -30.0216  -13.3494   20.4283 N   0  0  0  0  0  0
  -26.2990  -12.9342   20.3300 N   0  0  0  0  0  0
  -25.9308  -11.6509   20.5780 N   0  0  0  0  0  0
  -22.0482  -12.8243   22.0405 N   0  0  0  0  0  0
  -25.4290  -15.1885   20.4044 N   0  0  0  0  0  0
  -31.8374  -14.6858   20.1222 O   0  0  0  0  0  0
  -21.6638   -6.8878   21.4237 O   0  0  0  0  0  0
  -22.3532  -14.5553   20.6698 O   0  0  0  0  0  0
  -24.6173  -31.8659   23.2080 C   0  0  0  0  0  0
  -25.9058  -32.4809   23.8378 C   0  0  1  0  0  0
  -27.2333  -27.4043   20.0952 C   0  0  0  0  0  0
  -25.5901  -33.8607   24.2306 N   0  0  0  0  0  0
  -23.4061  -30.4906   21.5481 C   0  0  2  0  0  0
  -24.8506  -28.9522   20.1120 C   0  0  0  0  0  0
  -22.7426  -29.4657   22.4968 C   0  0  0  0  0  0
  -18.0276  -28.1385   22.8492 C   0  0  0  0  0  0
  -24.1486  -36.7319   23.2639 C   0  0  0  0  0  0
  -25.9375  -30.8202   21.3663 C   0  0  0  0  0  0
  -26.0112  -29.4513   20.7152 C   0  0  0  0  0  0
  -27.1994  -28.6816   20.7103 C   0  0  0  0  0  0
  -26.0476  -26.9238   19.4915 C   0  0  0  0  0  0
  -24.8650  -27.6880   19.4992 C   0  0  0  0  0  0
  -23.6157  -29.8248   20.1618 C   0  0  0  0  0  0
  -25.4105  -36.3105   24.0333 C   0  0  1  0  0  0
  -20.5870  -28.3675   23.1310 C   0  0  2  0  0  0
  -20.6767  -26.9408   22.5419 C   0  0  0  0  0  0
  -19.5743  -26.6390   21.5219 C   0  0  0  0  0  0
  -18.1923  -26.7930   22.1629 C   0  0  0  0  0  0
  -19.1526  -28.8844   23.2899 C   0  0  0  0  0  0
  -18.9456  -30.1448   23.8913 C   0  0  0  0  0  0
  -17.6459  -30.6589   24.0572 C   0  0  0  0  0  0
  -25.9035  -34.9471   23.5118 C   0  0  0  0  0  0
  -16.5349  -29.9095   23.6324 C   0  0  0  0  0  0
  -16.7267  -28.6513   23.0342 C   0  0  0  0  0  0
  -26.4473  -31.6596   25.0720 C   0  0  0  0  0  0
  -25.3729  -31.3723   26.1465 C   0  0  0  0  0  0
  -27.0308  -30.3032   24.6118 C   0  0  0  0  0  0
  -27.6040  -32.4323   25.7489 C   0  0  0  0  0  0
  -27.5578  -37.1813   24.8461 C   0  0  0  0  0  0
  -21.4149  -29.3038   22.3708 N   0  0  0  0  0  0
  -26.4290  -37.3790   23.9409 N   0  0  0  0  0  0
  -24.6720  -31.0744   22.0987 N   0  0  0  0  0  0
  -23.4188  -28.8197   23.3018 O   0  0  0  0  0  0
  -28.4073  -26.6660   20.1294 O   0  0  0  0  0  0
  -26.5606  -34.8929   22.4686 O   0  0  0  0  0  0
  -23.5361  -32.1425   23.7461 O   0  0  0  0  0  0
  -29.7053  -17.9308   17.8150 C   0  0  0  0  0  0
  -29.5487  -19.1630   18.4561 C   0  0  0  0  0  0
  -29.8347  -16.7716   18.5887 C   0  0  0  0  0  0
  -29.5098  -19.2281   19.8636 C   0  0  0  0  0  0
  -29.8301  -16.8617   20.0050 C   0  0  0  0  0  0
  -28.6508  -21.5691   19.9836 C   0  0  0  0  0  0
  -30.5334  -23.2057   19.6168 C   0  0  0  0  0  0
  -28.0978  -24.1338   19.7095 C   0  0  0  0  0  0
  -28.5916  -25.5478   19.2359 C   0  0  0  0  0  0
  -29.1233  -23.0410   20.2289 C   0  0  1  0  0  0
  -29.6620  -18.0861   20.6091 N   0  0  0  0  0  0
  -29.4131  -20.5403   20.4391 N   0  0  0  0  0  0
  -29.8871  -15.6329   20.7597 N   0  0  0  0  0  0
  -27.5790  -21.3645   19.4054 O   0  0  0  0  0  0
  -29.9304  -15.5877   17.9466 F   0  0  0  0  0  0
  -31.4729  -12.4172   19.1555 H   0  0  0  0  0  0
  -30.3466  -11.3296   19.9141 H   0  0  0  0  0  0
  -29.7390  -11.6249   17.5212 H   0  0  0  0  0  0
  -29.6830  -13.3463   17.6851 H   0  0  0  0  0  0
  -27.8173  -11.2800   18.8626 H   0  0  0  0  0  0
  -27.3783  -12.5763   17.7853 H   0  0  0  0  0  0
  -27.6827  -14.2421   19.5143 H   0  0  0  0  0  0
  -28.6801  -12.0367   21.3874 H   0  0  0  0  0  0
  -28.4570  -13.7045   21.8314 H   0  0  0  0  0  0
  -25.2756   -9.5696   22.4754 H   0  0  0  0  0  0
  -24.0011   -7.4634   22.7470 H   0  0  0  0  0  0
  -21.0836   -8.8777   19.8949 H   0  0  0  0  0  0
  -22.3690  -10.9679   19.6169 H   0  0  0  0  0  0
  -21.2009   -7.6149   23.9722 H   0  0  0  0  0  0
  -21.1479   -6.0519   25.9079 H   0  0  0  0  0  0
  -22.0598   -2.7611   23.2844 H   0  0  0  0  0  0
  -22.4101  -11.9914   22.4808 H   0  0  0  0  0  0
  -21.1097  -13.1271   22.2597 H   0  0  0  0  0  0
  -24.6590  -15.8417   20.5033 H   0  0  0  0  0  0
  -26.2726  -15.6237   20.0545 H   0  0  0  0  0  0
  -26.7132  -32.5509   23.1141 H   0  0  0  0  0  0
  -25.0038  -33.9759   25.0442 H   0  0  0  0  0  0
  -22.6959  -31.3087   21.4098 H   0  0  0  0  0  0
  -23.3739  -35.9662   23.3305 H   0  0  0  0  0  0
  -24.3583  -36.8934   22.2054 H   0  0  0  0  0  0
  -23.7250  -37.6527   23.6655 H   0  0  0  0  0  0
  -26.0543  -31.5832   20.5955 H   0  0  0  0  0  0
  -26.8243  -30.8738   21.9861 H   0  0  0  0  0  0
  -28.0939  -29.0627   21.1828 H   0  0  0  0  0  0
  -26.0109  -25.9509   19.0241 H   0  0  0  0  0  0
  -23.9711  -27.2957   19.0335 H   0  0  0  0  0  0
  -23.7300  -30.6016   19.4048 H   0  0  0  0  0  0
  -22.7370  -29.2508   19.8616 H   0  0  0  0  0  0
  -25.1283  -36.1965   25.0825 H   0  0  0  0  0  0
  -20.9966  -28.3252   24.1431 H   0  0  0  0  0  0
  -20.5685  -26.2285   23.3611 H   0  0  0  0  0  0
  -21.6638  -26.7458   22.1205 H   0  0  0  0  0  0
  -19.6907  -25.6305   21.1238 H   0  0  0  0  0  0
  -19.6680  -27.3211   20.6759 H   0  0  0  0  0  0
  -17.4195  -26.6683   21.4029 H   0  0  0  0  0  0
  -18.0319  -26.0071   22.9022 H   0  0  0  0  0  0
  -19.7932  -30.7258   24.2293 H   0  0  0  0  0  0
  -17.5016  -31.6268   24.5176 H   0  0  0  0  0  0
  -15.5351  -30.3007   23.7634 H   0  0  0  0  0  0
  -15.8668  -28.0844   22.7039 H   0  0  0  0  0  0
  -24.5886  -30.7088   25.7806 H   0  0  0  0  0  0
  -24.8942  -32.2891   26.4914 H   0  0  0  0  0  0
  -25.8070  -30.8886   27.0223 H   0  0  0  0  0  0
  -26.2862  -29.6797   24.1153 H   0  0  0  0  0  0
  -27.4049  -29.7266   25.4588 H   0  0  0  0  0  0
  -27.8709  -30.4344   23.9294 H   0  0  0  0  0  0
  -27.2643  -33.3608   26.2091 H   0  0  0  0  0  0
  -28.3837  -32.6907   25.0312 H   0  0  0  0  0  0
  -28.0721  -31.8434   26.5387 H   0  0  0  0  0  0
  -28.2596  -38.0110   24.7504 H   0  0  0  0  0  0
  -28.1071  -36.2639   24.6284 H   0  0  0  0  0  0
  -27.2301  -37.1467   25.8866 H   0  0  0  0  0  0
  -20.9313  -29.8761   21.6928 H   0  0  0  0  0  0
  -26.0176  -38.2870   24.1400 H   0  0  0  0  0  0
  -29.7167  -17.8715   16.7367 H   0  0  0  0  0  0
  -29.4605  -20.0511   17.8468 H   0  0  0  0  0  0
  -31.2056  -22.3880   19.8793 H   0  0  0  0  0  0
  -31.0179  -24.1136   19.9758 H   0  0  0  0  0  0
  -30.4903  -23.2512   18.5276 H   0  0  0  0  0  0
  -27.5895  -23.7282   18.8343 H   0  0  0  0  0  0
  -27.3025  -24.2557   20.4451 H   0  0  0  0  0  0
  -28.1189  -25.7834   18.2809 H   0  0  0  0  0  0
  -29.6462  -25.5305   18.9740 H   0  0  0  0  0  0
  -29.2219  -23.1647   21.3080 H   0  0  0  0  0  0
  -30.1203  -20.7698   21.1216 H   0  0  0  0  0  0
  -29.0454  -15.4258   21.2704 H   0  0  0  0  0  0
  1 25  1  0  0  0
  1 30  2  0  0  0
  1 83  1  0  0  0
  2  3  1  0  0  0
  2 25  1  0  0  0
  2 86  1  0  0  0
  2 87  1  0  0  0
  3  4  1  0  0  0
  3 88  1  0  0  0
  3 89  1  0  0  0
  4  5  1  0  0  0
  4 90  1  0  0  0
  4 91  1  0  0  0
  5  6  1  0  0  0
  5 26  1  0  0  0
  5 92  1  0  0  0
  6 25  1  0  0  0
  6 93  1  0  0  0
  6 94  1  0  0  0
  7  8  2  0  0  0
  7 26  1  0  0  0
  7 29  1  0  0  0
  8  9  1  0  0  0
  8 22  1  0  0  0
  9 10  1  0  0  0
  9 27  2  0  0  0
 10 11  2  0  0  0
 10 15  1  0  0  0
 11 12  1  0  0  0
 11 95  1  0  0  0
 12 13  2  0  0  0
 12 96  1  0  0  0
 13 14  1  0  0  0
 13 31  1  0  0  0
 14 15  2  0  0  0
 14 97  1  0  0  0
 15 98  1  0  0  0
 16 17  2  0  0  0
 16 21  1  0  0  0
 16 31  1  0  0  0
 17 18  1  0  0  0
 17 99  1  0  0  0
 18 19  2  0  0  0
 18100  1  0  0  0
 19 20  1  0  0  0
 19 24  1  0  0  0
 20 21  2  0  0  0
 20101  1  0  0  0
 21 23  1  0  0  0
 22 28  1  0  0  0
 22 32  2  0  0  0
 26 27  1  0  0  0
 28102  1  0  0  0
 28103  1  0  0  0
 29104  1  0  0  0
 29105  1  0  0  0
 33 34  1  0  0  0
 33 66  1  0  0  0
 33 70  2  0  0  0
 34 36  1  0  0  0
 34 59  1  0  0  0
 34106  1  0  0  0
 35 44  2  0  0  0
 35 45  1  0  0  0
 35 68  1  0  0  0
 36 56  1  0  0  0
 36107  1  0  0  0
 37 39  1  0  0  0
 37 47  1  0  0  0
 37 66  1  0  0  0
 37108  1  0  0  0
 38 43  2  0  0  0
 38 46  1  0  0  0
 38 47  1  0  0  0
 39 64  1  0  0  0
 39 67  2  0  0  0
 40 52  1  0  0  0
 40 53  2  0  0  0
 40 58  1  0  0  0
 41109  1  0  0  0
 41110  1  0  0  0
 41111  1  0  0  0
 41 48  1  0  0  0
 42 43  1  0  0  0
 42 66  1  0  0  0
 42112  1  0  0  0
 42113  1  0  0  0
 43 44  1  0  0  0
 44114  1  0  0  0
 45 46  2  0  0  0
 45115  1  0  0  0
 46116  1  0  0  0
 47117  1  0  0  0
 47118  1  0  0  0
 48 56  1  0  0  0
 48 65  1  0  0  0
 48119  1  0  0  0
 49 50  1  0  0  0
 49 53  1  0  0  0
 49 64  1  0  0  0
 49120  1  0  0  0
 50 51  1  0  0  0
 50121  1  0  0  0
 50122  1  0  0  0
 51 52  1  0  0  0
 51123  1  0  0  0
 51124  1  0  0  0
 52125  1  0  0  0
 52126  1  0  0  0
 53 54  1  0  0  0
 54 55  2  0  0  0
 54127  1  0  0  0
 55 57  1  0  0  0
 55128  1  0  0  0
 56 69  2  0  0  0
 57 58  2  0  0  0
 57129  1  0  0  0
 58130  1  0  0  0
 59 60  1  0  0  0
 59 61  1  0  0  0
 59 62  1  0  0  0
 60131  1  0  0  0
 60132  1  0  0  0
 60133  1  0  0  0
 61134  1  0  0  0
 61135  1  0  0  0
 61136  1  0  0  0
 62137  1  0  0  0
 62138  1  0  0  0
 62139  1  0  0  0
 63 65  1  0  0  0
 63140  1  0  0  0
 63141  1  0  0  0
 63142  1  0  0  0
 64143  1  0  0  0
 65144  1  0  0  0
 68 79  1  0  0  0
 71 72  2  0  0  0
 71 73  1  0  0  0
 71145  1  0  0  0
 72 74  1  0  0  0
 72146  1  0  0  0
 73 75  2  0  0  0
 73 85  1  0  0  0
 74 81  2  0  0  0
 74 82  1  0  0  0
 75 81  1  0  0  0
 75 83  1  0  0  0
 76 80  1  0  0  0
 76 82  1  0  0  0
 76 84  2  0  0  0
 77147  1  0  0  0
 77148  1  0  0  0
 77149  1  0  0  0
 77 80  1  0  0  0
 78 79  1  0  0  0
 78 80  1  0  0  0
 78150  1  0  0  0
 78151  1  0  0  0
 79152  1  0  0  0
 79153  1  0  0  0
 80154  1  0  0  0
 82155  1  0  0  0
 83156  1  0  0  0
M  ISO  4   1 100  68 101  79 101  83 100
M  END
> <chiral flag>
0

> <version>
0

> <s_m_source_file>
/data/baiqing/PycharmProjects/Reinvent-master-3.2/result/LINK_invent/BTK/process_docking_weight1_custom_product_contain_oxygen_bond_distance_aromatic_linkinvent_7_9_3/rearranged_h_0186.sdf

> <i_m_source_file_index>
42

> <r_mmod_Potential_Energy-OPLS-2005>
-139.276626586914

> <r_mmod_Stretch_Energy-OPLS-2005>
53.4775314331055

> <r_mmod_Bend_Energy-OPLS-2005>
117.723487854004

> <r_mmod_Torsional_Energy-OPLS-2005>
297.563171386719

> <r_mmod_Improper_Torsional_Energy-OPLS-2005>
6.7474889755249

> <r_mmod_Van_der_Waal_Energy-OPLS-2005>
168.782409667969

> <r_mmod_Electrostatic_Energy-OPLS-2005>
-575.568908691406

> <r_mmod_Solvation_Energy-OPLS-2005>
-233.962310791016

> <b_mmod_Minimization_Converged-OPLS-2005>
0

> <r_mmod_RMS_Derivative-OPLS-2005>
0.803828835487366

$$$$
43
                    3D
 Structure written by MMmdl.
156164  0  0  1  0            999 V2000
  -30.6323  -14.7331   20.5259 C   0  0  0  0  0  0
  -30.4280  -12.4641   19.4751 C   0  0  0  0  0  0
  -29.5046  -12.5170   18.2366 C   0  0  0  0  0  0
  -28.0293  -12.3430   18.6428 C   0  0  0  0  0  0
  -27.6400  -13.2297   19.8535 C   0  0  2  0  0  0
  -28.6779  -13.1206   20.9862 C   0  0  0  0  0  0
  -25.2504  -13.8193   20.5700 C   0  0  0  0  0  0
  -24.1785  -13.0440   20.9191 C   0  0  0  0  0  0
  -24.6381  -11.6921   20.8753 C   0  0  0  0  0  0
  -23.9071  -10.4293   21.0415 C   0  0  0  0  0  0
  -24.3622   -9.4208   21.9187 C   0  0  0  0  0  0
  -23.6299   -8.2237   22.0760 C   0  0  0  0  0  0
  -22.4278   -8.0278   21.3547 C   0  0  0  0  0  0
  -21.9922   -9.0258   20.4647 C   0  0  0  0  0  0
  -22.7256  -10.2136   20.3058 C   0  0  0  0  0  0
  -21.6858   -6.0739   22.5288 C   0  0  0  0  0  0
  -21.4019   -6.5643   23.8226 C   0  0  0  0  0  0
  -21.3655   -5.6792   24.9187 C   0  0  0  0  0  0
  -21.6040   -4.3056   24.7235 C   0  0  0  0  0  0
  -21.8826   -3.8149   23.4358 C   0  0  0  0  0  0
  -21.9189   -4.6964   22.3410 C   0  0  0  0  0  0
  -22.7809  -13.5224   21.1859 C   0  0  0  0  0  0
  -22.1663   -4.2159   21.0988 F   0  0  0  0  0  0
  -21.5621   -3.4529   25.7743 F   0  0  0  0  0  0
  -29.9813  -13.5142   20.4278 N   0  0  0  0  0  0
  -26.2912  -12.9388   20.3277 N   0  0  0  0  0  0
  -25.9300  -11.6532   20.5741 N   0  0  0  0  0  0
  -22.0452  -12.8217   22.0419 N   0  0  0  0  0  0
  -25.4236  -15.1928   20.4194 N   0  0  0  0  0  0
  -31.7793  -14.8249   20.0730 O   0  0  0  0  0  0
  -21.6644   -6.8874   21.4246 O   0  0  0  0  0  0
  -22.3494  -14.5528   20.6711 O   0  0  0  0  0  0
  -24.6311  -31.8548   23.1977 C   0  0  0  0  0  0
  -25.9137  -32.4749   23.8317 C   0  0  1  0  0  0
  -27.2127  -27.2587   20.1433 C   0  0  0  0  0  0
  -25.5944  -33.8553   24.2241 N   0  0  0  0  0  0
  -23.4290  -30.4772   21.5402 C   0  0  2  0  0  0
  -24.8783  -28.9258   20.1083 C   0  0  0  0  0  0
  -22.7504  -29.4599   22.4893 C   0  0  0  0  0  0
  -18.0290  -28.1395   22.8481 C   0  0  0  0  0  0
  -24.1491  -36.7280   23.2636 C   0  0  0  0  0  0
  -25.9752  -30.7684   21.3791 C   0  0  0  0  0  0
  -26.0495  -29.3912   20.7216 C   0  0  0  0  0  0
  -27.2233  -28.5697   20.7282 C   0  0  0  0  0  0
  -26.0278  -26.8685   19.4862 C   0  0  0  0  0  0
  -24.8732  -27.6725   19.4770 C   0  0  0  0  0  0
  -23.6492  -29.8119   20.1560 C   0  0  0  0  0  0
  -25.4120  -36.3064   24.0320 C   0  0  1  0  0  0
  -20.5897  -28.3705   23.1263 C   0  0  2  0  0  0
  -20.6785  -26.9418   22.5412 C   0  0  0  0  0  0
  -19.5762  -26.6383   21.5216 C   0  0  0  0  0  0
  -18.1932  -26.7938   22.1621 C   0  0  0  0  0  0
  -19.1545  -28.8866   23.2863 C   0  0  0  0  0  0
  -18.9471  -30.1465   23.8879 C   0  0  0  0  0  0
  -17.6475  -30.6589   24.0562 C   0  0  0  0  0  0
  -25.9064  -34.9437   23.5080 C   0  0  0  0  0  0
  -16.5358  -29.9086   23.6344 C   0  0  0  0  0  0
  -16.7278  -28.6514   23.0350 C   0  0  0  0  0  0
  -26.4501  -31.6581   25.0711 C   0  0  0  0  0  0
  -25.3734  -31.3750   26.1440 C   0  0  0  0  0  0
  -27.0350  -30.2993   24.6215 C   0  0  0  0  0  0
  -27.6046  -32.4336   25.7497 C   0  0  0  0  0  0
  -27.5574  -37.1790   24.8460 C   0  0  0  0  0  0
  -21.4214  -29.3039   22.3644 N   0  0  0  0  0  0
  -26.4284  -37.3772   23.9411 N   0  0  0  0  0  0
  -24.6972  -31.0516   22.0952 N   0  0  0  0  0  0
  -23.4206  -28.8133   23.2986 O   0  0  0  0  0  0
  -28.2721  -26.3257   20.1959 O   0  0  0  0  0  0
  -26.5632  -34.8917   22.4641 O   0  0  0  0  0  0
  -23.5463  -32.1365   23.7271 O   0  0  0  0  0  0
  -27.8996  -20.0729   21.4289 C   0  0  0  0  0  0
  -28.6191  -21.0856   20.8031 C   0  0  0  0  0  0
  -29.5093  -18.6108   20.5713 C   0  0  0  0  0  0
  -28.7407  -23.6614   20.4011 C   0  0  0  0  0  0
  -26.6602  -20.2481   22.2585 C   0  0  0  0  0  0
  -28.1827  -25.2423   22.3558 C   0  0  0  0  0  0
  -29.4091  -16.0009   22.2388 C   0  0  0  0  0  0
  -30.2833  -17.2630   20.2472 C   0  0  0  0  0  0
  -27.9629  -25.0030   20.8526 C   0  0  1  0  0  0
  -28.3775  -18.7445   21.2744 N   0  0  0  0  0  0
  -28.2564  -22.4468   20.8586 N   0  0  0  0  0  0
  -29.9368  -15.8989   20.8727 N   0  0  0  0  0  0
  -29.7343  -23.7363   19.6757 O   0  0  0  0  0  0
  -30.0018  -20.2721   20.0068 S   0  0  0  0  0  0
  -31.4671  -12.5911   19.1657 H   0  0  0  0  0  0
  -30.3870  -11.4823   19.9471 H   0  0  0  0  0  0
  -29.7845  -11.7440   17.5211 H   0  0  0  0  0  0
  -29.6333  -13.4710   17.7247 H   0  0  0  0  0  0
  -27.8774  -11.2927   18.8904 H   0  0  0  0  0  0
  -27.3759  -12.5521   17.7952 H   0  0  0  0  0  0
  -27.6457  -14.2597   19.4974 H   0  0  0  0  0  0
  -28.7213  -12.1015   21.3737 H   0  0  0  0  0  0
  -28.3659  -13.7282   21.8297 H   0  0  0  0  0  0
  -25.2772   -9.5668   22.4764 H   0  0  0  0  0  0
  -23.9999   -7.4628   22.7485 H   0  0  0  0  0  0
  -21.0854   -8.8787   19.8956 H   0  0  0  0  0  0
  -22.3726  -10.9673   19.6166 H   0  0  0  0  0  0
  -21.2022   -7.6154   23.9741 H   0  0  0  0  0  0
  -21.1468   -6.0517   25.9093 H   0  0  0  0  0  0
  -22.0608   -2.7609   23.2859 H   0  0  0  0  0  0
  -22.4055  -11.9875   22.4800 H   0  0  0  0  0  0
  -21.1076  -13.1256   22.2631 H   0  0  0  0  0  0
  -24.6685  -15.8557   20.5559 H   0  0  0  0  0  0
  -26.2943  -15.6370   20.1541 H   0  0  0  0  0  0
  -26.7203  -32.5394   23.1060 H   0  0  0  0  0  0
  -25.0108  -33.9691   25.0401 H   0  0  0  0  0  0
  -22.7249  -31.2985   21.3923 H   0  0  0  0  0  0
  -23.3750  -35.9612   23.3301 H   0  0  0  0  0  0
  -24.3578  -36.8916   22.2050 H   0  0  0  0  0  0
  -23.7259  -37.6486   23.6668 H   0  0  0  0  0  0
  -26.1154  -31.5264   20.6073 H   0  0  0  0  0  0
  -26.8523  -30.8182   22.0129 H   0  0  0  0  0  0
  -28.1170  -28.9134   21.2298 H   0  0  0  0  0  0
  -25.9783  -25.9053   18.9978 H   0  0  0  0  0  0
  -23.9801  -27.3126   18.9850 H   0  0  0  0  0  0
  -23.7729  -30.5873   19.3990 H   0  0  0  0  0  0
  -22.7681  -29.2438   19.8525 H   0  0  0  0  0  0
  -25.1301  -36.1899   25.0814 H   0  0  0  0  0  0
  -20.9987  -28.3285   24.1390 H   0  0  0  0  0  0
  -20.5697  -26.2301   23.3614 H   0  0  0  0  0  0
  -21.6643  -26.7447   22.1192 H   0  0  0  0  0  0
  -19.6923  -25.6291   21.1249 H   0  0  0  0  0  0
  -19.6706  -27.3189   20.6744 H   0  0  0  0  0  0
  -17.4209  -26.6686   21.4019 H   0  0  0  0  0  0
  -18.0315  -26.0083   22.9021 H   0  0  0  0  0  0
  -19.7945  -30.7279   24.2232 H   0  0  0  0  0  0
  -17.5031  -31.6268   24.5162 H   0  0  0  0  0  0
  -15.5359  -30.2979   23.7688 H   0  0  0  0  0  0
  -15.8681  -28.0831   22.7066 H   0  0  0  0  0  0
  -24.5902  -30.7099   25.7784 H   0  0  0  0  0  0
  -24.8921  -32.2924   26.4833 H   0  0  0  0  0  0
  -25.8049  -30.8958   27.0235 H   0  0  0  0  0  0
  -26.2937  -29.6736   24.1229 H   0  0  0  0  0  0
  -27.4017  -29.7263   25.4739 H   0  0  0  0  0  0
  -27.8819  -30.4254   23.9471 H   0  0  0  0  0  0
  -27.2636  -33.3636   26.2055 H   0  0  0  0  0  0
  -28.3864  -32.6909   25.0341 H   0  0  0  0  0  0
  -28.0700  -31.8484   26.5436 H   0  0  0  0  0  0
  -28.2579  -38.0098   24.7509 H   0  0  0  0  0  0
  -28.1085  -36.2626   24.6276 H   0  0  0  0  0  0
  -27.2289  -37.1430   25.8863 H   0  0  0  0  0  0
  -20.9390  -29.8767   21.6859 H   0  0  0  0  0  0
  -26.0154  -38.2839   24.1431 H   0  0  0  0  0  0
  -26.5648  -21.2603   22.6496 H   0  0  0  0  0  0
  -26.6629  -19.5802   23.1212 H   0  0  0  0  0  0
  -25.7612  -20.0306   21.6814 H   0  0  0  0  0  0
  -28.0266  -24.3366   22.9450 H   0  0  0  0  0  0
  -27.4957  -25.9976   22.7378 H   0  0  0  0  0  0
  -29.1970  -25.5912   22.5488 H   0  0  0  0  0  0
  -28.3205  -16.0672   22.2205 H   0  0  0  0  0  0
  -29.7936  -16.8851   22.7454 H   0  0  0  0  0  0
  -29.6903  -15.1549   22.8685 H   0  0  0  0  0  0
  -30.2388  -17.1359   19.1647 H   0  0  0  0  0  0
  -31.3333  -17.4563   20.4695 H   0  0  0  0  0  0
  -26.9090  -24.7649   20.7175 H   0  0  0  0  0  0
  -27.4225  -22.5926   21.4101 H   0  0  0  0  0  0
  1 25  1  0  0  0
  1 30  2  0  0  0
  1 82  1  0  0  0
  2  3  1  0  0  0
  2 25  1  0  0  0
  2 85  1  0  0  0
  2 86  1  0  0  0
  3  4  1  0  0  0
  3 87  1  0  0  0
  3 88  1  0  0  0
  4  5  1  0  0  0
  4 89  1  0  0  0
  4 90  1  0  0  0
  5  6  1  0  0  0
  5 26  1  0  0  0
  5 91  1  0  0  0
  6 25  1  0  0  0
  6 92  1  0  0  0
  6 93  1  0  0  0
  7  8  2  0  0  0
  7 26  1  0  0  0
  7 29  1  0  0  0
  8  9  1  0  0  0
  8 22  1  0  0  0
  9 10  1  0  0  0
  9 27  2  0  0  0
 10 11  2  0  0  0
 10 15  1  0  0  0
 11 12  1  0  0  0
 11 94  1  0  0  0
 12 13  2  0  0  0
 12 95  1  0  0  0
 13 14  1  0  0  0
 13 31  1  0  0  0
 14 15  2  0  0  0
 14 96  1  0  0  0
 15 97  1  0  0  0
 16 17  2  0  0  0
 16 21  1  0  0  0
 16 31  1  0  0  0
 17 18  1  0  0  0
 17 98  1  0  0  0
 18 19  2  0  0  0
 18 99  1  0  0  0
 19 20  1  0  0  0
 19 24  1  0  0  0
 20 21  2  0  0  0
 20100  1  0  0  0
 21 23  1  0  0  0
 22 28  1  0  0  0
 22 32  2  0  0  0
 26 27  1  0  0  0
 28101  1  0  0  0
 28102  1  0  0  0
 29103  1  0  0  0
 29104  1  0  0  0
 33 34  1  0  0  0
 33 66  1  0  0  0
 33 70  2  0  0  0
 34 36  1  0  0  0
 34 59  1  0  0  0
 34105  1  0  0  0
 35 44  2  0  0  0
 35 45  1  0  0  0
 35 68  1  0  0  0
 36 56  1  0  0  0
 36106  1  0  0  0
 37 39  1  0  0  0
 37 47  1  0  0  0
 37 66  1  0  0  0
 37107  1  0  0  0
 38 43  2  0  0  0
 38 46  1  0  0  0
 38 47  1  0  0  0
 39 64  1  0  0  0
 39 67  2  0  0  0
 40 52  1  0  0  0
 40 53  2  0  0  0
 40 58  1  0  0  0
 41108  1  0  0  0
 41109  1  0  0  0
 41110  1  0  0  0
 41 48  1  0  0  0
 42 43  1  0  0  0
 42 66  1  0  0  0
 42111  1  0  0  0
 42112  1  0  0  0
 43 44  1  0  0  0
 44113  1  0  0  0
 45 46  2  0  0  0
 45114  1  0  0  0
 46115  1  0  0  0
 47116  1  0  0  0
 47117  1  0  0  0
 48 56  1  0  0  0
 48 65  1  0  0  0
 48118  1  0  0  0
 49 50  1  0  0  0
 49 53  1  0  0  0
 49 64  1  0  0  0
 49119  1  0  0  0
 50 51  1  0  0  0
 50120  1  0  0  0
 50121  1  0  0  0
 51 52  1  0  0  0
 51122  1  0  0  0
 51123  1  0  0  0
 52124  1  0  0  0
 52125  1  0  0  0
 53 54  1  0  0  0
 54 55  2  0  0  0
 54126  1  0  0  0
 55 57  1  0  0  0
 55127  1  0  0  0
 56 69  2  0  0  0
 57 58  2  0  0  0
 57128  1  0  0  0
 58129  1  0  0  0
 59 60  1  0  0  0
 59 61  1  0  0  0
 59 62  1  0  0  0
 60130  1  0  0  0
 60131  1  0  0  0
 60132  1  0  0  0
 61133  1  0  0  0
 61134  1  0  0  0
 61135  1  0  0  0
 62136  1  0  0  0
 62137  1  0  0  0
 62138  1  0  0  0
 63 65  1  0  0  0
 63139  1  0  0  0
 63140  1  0  0  0
 63141  1  0  0  0
 64142  1  0  0  0
 65143  1  0  0  0
 68 79  1  0  0  0
 71 72  2  0  0  0
 71 75  1  0  0  0
 71 80  1  0  0  0
 72 81  1  0  0  0
 72 84  1  0  0  0
 73 78  1  0  0  0
 73 80  2  0  0  0
 73 84  1  0  0  0
 74 79  1  0  0  0
 74 81  1  0  0  0
 74 83  2  0  0  0
 75144  1  0  0  0
 75145  1  0  0  0
 75146  1  0  0  0
 76147  1  0  0  0
 76148  1  0  0  0
 76149  1  0  0  0
 76 79  1  0  0  0
 77 82  1  0  0  0
 77150  1  0  0  0
 77151  1  0  0  0
 77152  1  0  0  0
 78 82  1  0  0  0
 78153  1  0  0  0
 78154  1  0  0  0
 79155  1  0  0  0
 81156  1  0  0  0
M  ISO  4   1 100  68 101  79 101  82 100
M  END
> <chiral flag>
0

> <version>
0

> <s_m_source_file>
/data/baiqing/PycharmProjects/Reinvent-master-3.2/result/LINK_invent/BTK/process_docking_weight1_custom_product_contain_oxygen_bond_distance_aromatic_linkinvent_7_9_3/rearranged_h_0186.sdf

> <i_m_source_file_index>
43

> <r_mmod_Potential_Energy-OPLS-2005>
200.8701171875

> <r_mmod_Stretch_Energy-OPLS-2005>
123.703155517578

> <r_mmod_Bend_Energy-OPLS-2005>
206.626602172852

> <r_mmod_Torsional_Energy-OPLS-2005>
272.671661376953

> <r_mmod_Improper_Torsional_Energy-OPLS-2005>
8.22353839874268

> <r_mmod_Van_der_Waal_Energy-OPLS-2005>
120.649063110352

> <r_mmod_Electrostatic_Energy-OPLS-2005>
-380.910888671875

> <r_mmod_Solvation_Energy-OPLS-2005>
-233.446334838867

> <b_mmod_Minimization_Converged-OPLS-2005>
0

> <r_mmod_RMS_Derivative-OPLS-2005>
1.94284546375275

$$$$
44
                    3D
 Structure written by MMmdl.
156164  0  0  1  0            999 V2000
  -30.6756  -14.7222   20.4935 C   0  0  0  0  0  0
  -30.4358  -12.4469   19.4791 C   0  0  0  0  0  0
  -29.5161  -12.5188   18.2413 C   0  0  0  0  0  0
  -28.0449  -12.3361   18.6585 C   0  0  0  0  0  0
  -27.6517  -13.2331   19.8623 C   0  0  2  0  0  0
  -28.6979  -13.1597   20.9954 C   0  0  0  0  0  0
  -25.2550  -13.8209   20.5705 C   0  0  0  0  0  0
  -24.1832  -13.0447   20.9198 C   0  0  0  0  0  0
  -24.6418  -11.6920   20.8743 C   0  0  0  0  0  0
  -23.9080  -10.4294   21.0390 C   0  0  0  0  0  0
  -24.3617   -9.4205   21.9168 C   0  0  0  0  0  0
  -23.6283   -8.2243   22.0746 C   0  0  0  0  0  0
  -22.4269   -8.0274   21.3540 C   0  0  0  0  0  0
  -21.9898   -9.0253   20.4647 C   0  0  0  0  0  0
  -22.7235  -10.2128   20.3052 C   0  0  0  0  0  0
  -21.6854   -6.0720   22.5279 C   0  0  0  0  0  0
  -21.4011   -6.5628   23.8208 C   0  0  0  0  0  0
  -21.3649   -5.6787   24.9170 C   0  0  0  0  0  0
  -21.6035   -4.3045   24.7221 C   0  0  0  0  0  0
  -21.8824   -3.8130   23.4348 C   0  0  0  0  0  0
  -21.9199   -4.6955   22.3403 C   0  0  0  0  0  0
  -22.7845  -13.5220   21.1859 C   0  0  0  0  0  0
  -22.1663   -4.2134   21.0977 F   0  0  0  0  0  0
  -21.5626   -3.4530   25.7731 F   0  0  0  0  0  0
  -30.0041  -13.5147   20.4181 N   0  0  0  0  0  0
  -26.3004  -12.9416   20.3347 N   0  0  0  0  0  0
  -25.9360  -11.6559   20.5784 N   0  0  0  0  0  0
  -22.0509  -12.8216   22.0429 N   0  0  0  0  0  0
  -25.4267  -15.1921   20.4083 N   0  0  0  0  0  0
  -31.8348  -14.7839   20.0765 O   0  0  0  0  0  0
  -21.6640   -6.8858   21.4238 O   0  0  0  0  0  0
  -22.3522  -14.5534   20.6720 O   0  0  0  0  0  0
  -24.6285  -31.8570   23.2001 C   0  0  0  0  0  0
  -25.9122  -32.4773   23.8337 C   0  0  1  0  0  0
  -27.2160  -27.2773   20.1188 C   0  0  0  0  0  0
  -25.5943  -33.8585   24.2264 N   0  0  0  0  0  0
  -23.4260  -30.4814   21.5421 C   0  0  2  0  0  0
  -24.8732  -28.9348   20.1098 C   0  0  0  0  0  0
  -22.7495  -29.4619   22.4921 C   0  0  0  0  0  0
  -18.0284  -28.1401   22.8514 C   0  0  0  0  0  0
  -24.1475  -36.7250   23.2650 C   0  0  0  0  0  0
  -25.9730  -30.7728   21.3807 C   0  0  0  0  0  0
  -26.0452  -29.3975   20.7225 C   0  0  0  0  0  0
  -27.2213  -28.5793   20.7206 C   0  0  0  0  0  0
  -26.0240  -26.8927   19.4617 C   0  0  0  0  0  0
  -24.8664  -27.6887   19.4703 C   0  0  0  0  0  0
  -23.6438  -29.8167   20.1581 C   0  0  0  0  0  0
  -25.4110  -36.3076   24.0343 C   0  0  1  0  0  0
  -20.5898  -28.3699   23.1291 C   0  0  2  0  0  0
  -20.6777  -26.9421   22.5423 C   0  0  0  0  0  0
  -19.5759  -26.6375   21.5234 C   0  0  0  0  0  0
  -18.1927  -26.7961   22.1607 C   0  0  0  0  0  0
  -19.1548  -28.8857   23.2900 C   0  0  0  0  0  0
  -18.9481  -30.1466   23.8900 C   0  0  0  0  0  0
  -17.6489  -30.6615   24.0571 C   0  0  0  0  0  0
  -25.9059  -34.9450   23.5097 C   0  0  0  0  0  0
  -16.5365  -29.9119   23.6357 C   0  0  0  0  0  0
  -16.7269  -28.6534   23.0380 C   0  0  0  0  0  0
  -26.4461  -31.6601   25.0727 C   0  0  0  0  0  0
  -25.3724  -31.3924   26.1530 C   0  0  0  0  0  0
  -27.0165  -30.2954   24.6241 C   0  0  0  0  0  0
  -27.6140  -32.4259   25.7396 C   0  0  0  0  0  0
  -27.5577  -37.1794   24.8491 C   0  0  0  0  0  0
  -21.4209  -29.3054   22.3666 N   0  0  0  0  0  0
  -26.4277  -37.3782   23.9437 N   0  0  0  0  0  0
  -24.6943  -31.0557   22.0965 N   0  0  0  0  0  0
  -23.4214  -28.8161   23.2998 O   0  0  0  0  0  0
  -28.2880  -26.3572   20.1784 O   0  0  0  0  0  0
  -26.5604  -34.8942   22.4659 O   0  0  0  0  0  0
  -23.5431  -32.1363   23.7305 O   0  0  0  0  0  0
  -30.9345  -19.5422   20.5732 C   0  0  0  0  0  0
  -29.9352  -18.6409   20.2183 C   0  0  0  0  0  0
  -29.2556  -21.1492   20.3646 C   0  0  0  0  0  0
  -29.0195  -23.7789   20.3543 C   0  0  0  0  0  0
  -32.3791  -19.2190   20.8264 C   0  0  0  0  0  0
  -27.5256  -24.9923   22.0496 C   0  0  0  0  0  0
  -29.5041  -16.2564   22.0495 C   0  0  0  0  0  0
  -30.0579  -17.1223   19.7786 C   0  0  0  0  0  0
  -27.9402  -24.9442   20.5671 C   0  0  1  0  0  0
  -30.5482  -20.9133   20.6475 N   0  0  0  0  0  0
  -28.5885  -22.4647   20.4007 N   0  0  0  0  0  0
  -29.9745  -15.9108   20.7097 N   0  0  0  0  0  0
  -30.1973  -24.0803   20.1392 O   0  0  0  0  0  0
  -28.4319  -19.5857   20.0309 S   0  0  0  0  0  0
  -31.4789  -12.5467   19.1725 H   0  0  0  0  0  0
  -30.3664  -11.4657   19.9535 H   0  0  0  0  0  0
  -29.8004  -11.7552   17.5163 H   0  0  0  0  0  0
  -29.6429  -13.4811   17.7412 H   0  0  0  0  0  0
  -27.9124  -11.2864   18.9262 H   0  0  0  0  0  0
  -27.3810  -12.5229   17.8144 H   0  0  0  0  0  0
  -27.6502  -14.2591   19.4922 H   0  0  0  0  0  0
  -28.7342  -12.1613   21.4335 H   0  0  0  0  0  0
  -28.4152  -13.8251   21.8077 H   0  0  0  0  0  0
  -25.2769   -9.5671   22.4743 H   0  0  0  0  0  0
  -23.9984   -7.4622   22.7454 H   0  0  0  0  0  0
  -21.0828   -8.8768   19.8950 H   0  0  0  0  0  0
  -22.3692  -10.9661   19.6157 H   0  0  0  0  0  0
  -21.1995   -7.6145   23.9708 H   0  0  0  0  0  0
  -21.1462   -6.0513   25.9069 H   0  0  0  0  0  0
  -22.0615   -2.7595   23.2851 H   0  0  0  0  0  0
  -22.4109  -11.9845   22.4775 H   0  0  0  0  0  0
  -21.1137  -13.1238   22.2662 H   0  0  0  0  0  0
  -24.6652  -15.8537   20.5155 H   0  0  0  0  0  0
  -26.2851  -15.6242   20.0929 H   0  0  0  0  0  0
  -26.7193  -32.5403   23.1080 H   0  0  0  0  0  0
  -25.0165  -33.9725   25.0452 H   0  0  0  0  0  0
  -22.7246  -31.3039   21.3965 H   0  0  0  0  0  0
  -23.3819  -35.9504   23.3234 H   0  0  0  0  0  0
  -24.3582  -36.8932   22.2085 H   0  0  0  0  0  0
  -23.7117  -37.6380   23.6705 H   0  0  0  0  0  0
  -26.1148  -31.5357   20.6134 H   0  0  0  0  0  0
  -26.8494  -30.8159   22.0150 H   0  0  0  0  0  0
  -28.1145  -28.9213   21.2246 H   0  0  0  0  0  0
  -25.9544  -25.9538   18.9340 H   0  0  0  0  0  0
  -23.9721  -27.3331   18.9748 H   0  0  0  0  0  0
  -23.7677  -30.5902   19.4013 H   0  0  0  0  0  0
  -22.7639  -29.2469   19.8524 H   0  0  0  0  0  0
  -25.1308  -36.1898   25.0839 H   0  0  0  0  0  0
  -20.9984  -28.3253   24.1409 H   0  0  0  0  0  0
  -20.5678  -26.2319   23.3627 H   0  0  0  0  0  0
  -21.6650  -26.7460   22.1193 H   0  0  0  0  0  0
  -19.6925  -25.6287   21.1257 H   0  0  0  0  0  0
  -19.6705  -27.3198   20.6781 H   0  0  0  0  0  0
  -17.4216  -26.6769   21.3980 H   0  0  0  0  0  0
  -18.0277  -26.0071   22.8965 H   0  0  0  0  0  0
  -19.7959  -30.7293   24.2243 H   0  0  0  0  0  0
  -17.5055  -31.6312   24.5167 H   0  0  0  0  0  0
  -15.5372  -30.3047   23.7718 H   0  0  0  0  0  0
  -15.8653  -28.0861   22.7117 H   0  0  0  0  0  0
  -24.5663  -30.7538   25.7891 H   0  0  0  0  0  0
  -24.9217  -32.3194   26.5097 H   0  0  0  0  0  0
  -25.7976  -30.8899   27.0219 H   0  0  0  0  0  0
  -26.2645  -29.6779   24.1301 H   0  0  0  0  0  0
  -27.3794  -29.7188   25.4752 H   0  0  0  0  0  0
  -27.8607  -30.4119   23.9453 H   0  0  0  0  0  0
  -27.2940  -33.3738   26.1728 H   0  0  0  0  0  0
  -28.4044  -32.6451   25.0210 H   0  0  0  0  0  0
  -28.0643  -31.8462   26.5455 H   0  0  0  0  0  0
  -28.2669  -38.0012   24.7453 H   0  0  0  0  0  0
  -28.0963  -36.2556   24.6372 H   0  0  0  0  0  0
  -27.2306  -37.1526   25.8894 H   0  0  0  0  0  0
  -20.9372  -29.8770   21.6874 H   0  0  0  0  0  0
  -26.0151  -38.2853   24.1438 H   0  0  0  0  0  0
  -32.5743  -19.1027   21.8925 H   0  0  0  0  0  0
  -33.0424  -20.0058   20.4606 H   0  0  0  0  0  0
  -32.6836  -18.2949   20.3383 H   0  0  0  0  0  0
  -27.3499  -23.9964   22.4577 H   0  0  0  0  0  0
  -26.6019  -25.5562   22.1788 H   0  0  0  0  0  0
  -28.2927  -25.4758   22.6558 H   0  0  0  0  0  0
  -28.4606  -16.5727   22.0097 H   0  0  0  0  0  0
  -30.0896  -17.0794   22.4612 H   0  0  0  0  0  0
  -29.5837  -15.4308   22.7570 H   0  0  0  0  0  0
  -30.9755  -17.0280   19.1949 H   0  0  0  0  0  0
  -29.2764  -16.9508   19.0367 H   0  0  0  0  0  0
  -27.0847  -24.5908   19.9962 H   0  0  0  0  0  0
  -27.5851  -22.3889   20.4849 H   0  0  0  0  0  0
  1 25  1  0  0  0
  1 30  2  0  0  0
  1 82  1  0  0  0
  2  3  1  0  0  0
  2 25  1  0  0  0
  2 85  1  0  0  0
  2 86  1  0  0  0
  3  4  1  0  0  0
  3 87  1  0  0  0
  3 88  1  0  0  0
  4  5  1  0  0  0
  4 89  1  0  0  0
  4 90  1  0  0  0
  5  6  1  0  0  0
  5 26  1  0  0  0
  5 91  1  0  0  0
  6 25  1  0  0  0
  6 92  1  0  0  0
  6 93  1  0  0  0
  7  8  2  0  0  0
  7 26  1  0  0  0
  7 29  1  0  0  0
  8  9  1  0  0  0
  8 22  1  0  0  0
  9 10  1  0  0  0
  9 27  2  0  0  0
 10 11  2  0  0  0
 10 15  1  0  0  0
 11 12  1  0  0  0
 11 94  1  0  0  0
 12 13  2  0  0  0
 12 95  1  0  0  0
 13 14  1  0  0  0
 13 31  1  0  0  0
 14 15  2  0  0  0
 14 96  1  0  0  0
 15 97  1  0  0  0
 16 17  2  0  0  0
 16 21  1  0  0  0
 16 31  1  0  0  0
 17 18  1  0  0  0
 17 98  1  0  0  0
 18 19  2  0  0  0
 18 99  1  0  0  0
 19 20  1  0  0  0
 19 24  1  0  0  0
 20 21  2  0  0  0
 20100  1  0  0  0
 21 23  1  0  0  0
 22 28  1  0  0  0
 22 32  2  0  0  0
 26 27  1  0  0  0
 28101  1  0  0  0
 28102  1  0  0  0
 29103  1  0  0  0
 29104  1  0  0  0
 33 34  1  0  0  0
 33 66  1  0  0  0
 33 70  2  0  0  0
 34 36  1  0  0  0
 34 59  1  0  0  0
 34105  1  0  0  0
 35 44  2  0  0  0
 35 45  1  0  0  0
 35 68  1  0  0  0
 36 56  1  0  0  0
 36106  1  0  0  0
 37 39  1  0  0  0
 37 47  1  0  0  0
 37 66  1  0  0  0
 37107  1  0  0  0
 38 43  2  0  0  0
 38 46  1  0  0  0
 38 47  1  0  0  0
 39 64  1  0  0  0
 39 67  2  0  0  0
 40 52  1  0  0  0
 40 53  2  0  0  0
 40 58  1  0  0  0
 41108  1  0  0  0
 41109  1  0  0  0
 41110  1  0  0  0
 41 48  1  0  0  0
 42 43  1  0  0  0
 42 66  1  0  0  0
 42111  1  0  0  0
 42112  1  0  0  0
 43 44  1  0  0  0
 44113  1  0  0  0
 45 46  2  0  0  0
 45114  1  0  0  0
 46115  1  0  0  0
 47116  1  0  0  0
 47117  1  0  0  0
 48 56  1  0  0  0
 48 65  1  0  0  0
 48118  1  0  0  0
 49 50  1  0  0  0
 49 53  1  0  0  0
 49 64  1  0  0  0
 49119  1  0  0  0
 50 51  1  0  0  0
 50120  1  0  0  0
 50121  1  0  0  0
 51 52  1  0  0  0
 51122  1  0  0  0
 51123  1  0  0  0
 52124  1  0  0  0
 52125  1  0  0  0
 53 54  1  0  0  0
 54 55  2  0  0  0
 54126  1  0  0  0
 55 57  1  0  0  0
 55127  1  0  0  0
 56 69  2  0  0  0
 57 58  2  0  0  0
 57128  1  0  0  0
 58129  1  0  0  0
 59 60  1  0  0  0
 59 61  1  0  0  0
 59 62  1  0  0  0
 60130  1  0  0  0
 60131  1  0  0  0
 60132  1  0  0  0
 61133  1  0  0  0
 61134  1  0  0  0
 61135  1  0  0  0
 62136  1  0  0  0
 62137  1  0  0  0
 62138  1  0  0  0
 63 65  1  0  0  0
 63139  1  0  0  0
 63140  1  0  0  0
 63141  1  0  0  0
 64142  1  0  0  0
 65143  1  0  0  0
 68 79  1  0  0  0
 71 72  2  0  0  0
 71 75  1  0  0  0
 71 80  1  0  0  0
 72 78  1  0  0  0
 72 84  1  0  0  0
 73 80  2  0  0  0
 73 81  1  0  0  0
 73 84  1  0  0  0
 74 79  1  0  0  0
 74 81  1  0  0  0
 74 83  2  0  0  0
 75144  1  0  0  0
 75145  1  0  0  0
 75146  1  0  0  0
 76147  1  0  0  0
 76148  1  0  0  0
 76149  1  0  0  0
 76 79  1  0  0  0
 77 82  1  0  0  0
 77150  1  0  0  0
 77151  1  0  0  0
 77152  1  0  0  0
 78 82  1  0  0  0
 78153  1  0  0  0
 78154  1  0  0  0
 79155  1  0  0  0
 81156  1  0  0  0
M  ISO  4   1 100  68 101  79 101  82 100
M  END
> <chiral flag>
0

> <version>
0

> <s_m_source_file>
/data/baiqing/PycharmProjects/Reinvent-master-3.2/result/LINK_invent/BTK/process_docking_weight1_custom_product_contain_oxygen_bond_distance_aromatic_linkinvent_7_9_3/rearranged_h_0186.sdf

> <i_m_source_file_index>
44

> <r_mmod_Potential_Energy-OPLS-2005>
184.658645629883

> <r_mmod_Stretch_Energy-OPLS-2005>
112.956008911133

> <r_mmod_Bend_Energy-OPLS-2005>
176.133651733398

> <r_mmod_Torsional_Energy-OPLS-2005>
287.349700927734

> <r_mmod_Improper_Torsional_Energy-OPLS-2005>
10.775673866272

> <r_mmod_Van_der_Waal_Energy-OPLS-2005>
117.631965637207

> <r_mmod_Electrostatic_Energy-OPLS-2005>
-355.868286132812

> <r_mmod_Solvation_Energy-OPLS-2005>
-241.99626159668

> <b_mmod_Minimization_Converged-OPLS-2005>
0

> <r_mmod_RMS_Derivative-OPLS-2005>
3.3779079914093

$$$$
45
                    3D
 Structure written by MMmdl.
156164  0  0  1  0            999 V2000
  -30.6202  -14.7461   20.4581 C   0  0  0  0  0  0
  -30.4284  -12.4461   19.4951 C   0  0  0  0  0  0
  -29.5182  -12.5123   18.2482 C   0  0  0  0  0  0
  -28.0424  -12.3352   18.6522 C   0  0  0  0  0  0
  -27.6451  -13.2338   19.8542 C   0  0  2  0  0  0
  -28.6850  -13.1713   20.9965 C   0  0  0  0  0  0
  -25.2515  -13.8197   20.5679 C   0  0  0  0  0  0
  -24.1803  -13.0432   20.9194 C   0  0  0  0  0  0
  -24.6395  -11.6914   20.8733 C   0  0  0  0  0  0
  -23.9076  -10.4288   21.0405 C   0  0  0  0  0  0
  -24.3621   -9.4207   21.9188 C   0  0  0  0  0  0
  -23.6288   -8.2245   22.0760 C   0  0  0  0  0  0
  -22.4276   -8.0280   21.3546 C   0  0  0  0  0  0
  -21.9909   -9.0258   20.4656 C   0  0  0  0  0  0
  -22.7243  -10.2133   20.3065 C   0  0  0  0  0  0
  -21.6847   -6.0735   22.5277 C   0  0  0  0  0  0
  -21.4015   -6.5646   23.8211 C   0  0  0  0  0  0
  -21.3657   -5.6801   24.9177 C   0  0  0  0  0  0
  -21.6038   -4.3063   24.7226 C   0  0  0  0  0  0
  -21.8815   -3.8149   23.4350 C   0  0  0  0  0  0
  -21.9190   -4.6961   22.3407 C   0  0  0  0  0  0
  -22.7833  -13.5225   21.1847 C   0  0  0  0  0  0
  -22.1660   -4.2147   21.0981 F   0  0  0  0  0  0
  -21.5623   -3.4552   25.7739 F   0  0  0  0  0  0
  -29.9945  -13.5162   20.4280 N   0  0  0  0  0  0
  -26.2953  -12.9409   20.3287 N   0  0  0  0  0  0
  -25.9332  -11.6546   20.5736 N   0  0  0  0  0  0
  -22.0476  -12.8228   22.0413 N   0  0  0  0  0  0
  -25.4183  -15.1916   20.4103 N   0  0  0  0  0  0
  -31.7888  -14.8400   20.0753 O   0  0  0  0  0  0
  -21.6639   -6.8877   21.4238 O   0  0  0  0  0  0
  -22.3527  -14.5519   20.6669 O   0  0  0  0  0  0
  -24.6351  -31.8565   23.2043 C   0  0  0  0  0  0
  -25.9170  -32.4761   23.8367 C   0  0  1  0  0  0
  -27.1910  -27.2123   20.1327 C   0  0  0  0  0  0
  -25.5943  -33.8564   24.2270 N   0  0  0  0  0  0
  -23.4320  -30.4852   21.5493 C   0  0  2  0  0  0
  -24.8801  -28.9460   20.1068 C   0  0  0  0  0  0
  -22.7512  -29.4623   22.4913 C   0  0  0  0  0  0
  -18.0305  -28.1389   22.8492 C   0  0  0  0  0  0
  -24.1497  -36.7284   23.2641 C   0  0  0  0  0  0
  -25.9862  -30.7457   21.4065 C   0  0  0  0  0  0
  -26.0515  -29.3666   20.7500 C   0  0  0  0  0  0
  -27.2068  -28.5057   20.7726 C   0  0  0  0  0  0
  -26.0433  -26.9608   19.3533 C   0  0  0  0  0  0
  -24.8834  -27.7470   19.3930 C   0  0  0  0  0  0
  -23.6532  -29.8344   20.1618 C   0  0  0  0  0  0
  -25.4118  -36.3063   24.0331 C   0  0  1  0  0  0
  -20.5914  -28.3712   23.1257 C   0  0  2  0  0  0
  -20.6804  -26.9426   22.5396 C   0  0  0  0  0  0
  -19.5768  -26.6391   21.5212 C   0  0  0  0  0  0
  -18.1954  -26.7934   22.1626 C   0  0  0  0  0  0
  -19.1562  -28.8863   23.2870 C   0  0  0  0  0  0
  -18.9488  -30.1463   23.8885 C   0  0  0  0  0  0
  -17.6488  -30.6587   24.0561 C   0  0  0  0  0  0
  -25.9060  -34.9440   23.5097 C   0  0  0  0  0  0
  -16.5378  -29.9082   23.6337 C   0  0  0  0  0  0
  -16.7295  -28.6502   23.0360 C   0  0  0  0  0  0
  -26.4519  -31.6592   25.0769 C   0  0  0  0  0  0
  -25.3724  -31.3771   26.1474 C   0  0  0  0  0  0
  -27.0372  -30.2992   24.6313 C   0  0  0  0  0  0
  -27.6059  -32.4341   25.7546 C   0  0  0  0  0  0
  -27.5578  -37.1802   24.8461 C   0  0  0  0  0  0
  -21.4219  -29.3068   22.3646 N   0  0  0  0  0  0
  -26.4288  -37.3764   23.9405 N   0  0  0  0  0  0
  -24.7034  -31.0487   22.1071 N   0  0  0  0  0  0
  -23.4193  -28.8157   23.3015 O   0  0  0  0  0  0
  -28.2117  -26.2105   20.1813 O   0  0  0  0  0  0
  -26.5638  -34.8911   22.4669 O   0  0  0  0  0  0
  -23.5487  -32.1424   23.7301 O   0  0  0  0  0  0
  -30.6657  -19.0793   21.7728 C   0  0  0  0  0  0
  -29.9598  -18.6766   20.6626 C   0  0  0  0  0  0
  -29.5221  -21.0480   20.6978 C   0  0  0  0  0  0
  -29.0909  -23.6572   20.6417 C   0  0  0  0  0  0
  -26.4843  -23.6409   18.7311 C   0  0  0  0  0  0
  -25.9818  -22.9997   21.1476 C   0  0  0  0  0  0
  -30.0033  -17.2464   19.9737 C   0  0  0  0  0  0
  -27.8957  -24.7637   20.6343 C   0  0  1  0  0  0
  -26.5272  -24.1015   20.2071 C   0  0  0  0  0  0
  -29.2926  -19.8325   20.0941 N   0  0  0  0  0  0
  -28.8546  -22.3189   20.3296 N   0  0  0  0  0  0
  -29.8680  -15.8910   20.6831 N   0  0  0  0  0  0
  -30.2281  -24.0354   20.9376 O   0  0  0  0  0  0
  -30.5834  -20.8215   22.0859 S   0  0  0  0  0  0
  -31.4758  -12.5449   19.2050 H   0  0  0  0  0  0
  -30.3438  -11.4673   19.9709 H   0  0  0  0  0  0
  -29.8040  -11.7425   17.5295 H   0  0  0  0  0  0
  -29.6514  -13.4699   17.7415 H   0  0  0  0  0  0
  -27.8997  -11.2859   18.9143 H   0  0  0  0  0  0
  -27.3900  -12.5255   17.7999 H   0  0  0  0  0  0
  -27.6398  -14.2556   19.4743 H   0  0  0  0  0  0
  -28.7095  -12.1747   21.4383 H   0  0  0  0  0  0
  -28.4133  -13.8529   21.8034 H   0  0  0  0  0  0
  -25.2761   -9.5683   22.4774 H   0  0  0  0  0  0
  -23.9988   -7.4641   22.7489 H   0  0  0  0  0  0
  -21.0838   -8.8785   19.8972 H   0  0  0  0  0  0
  -22.3699  -10.9674   19.6186 H   0  0  0  0  0  0
  -21.2015   -7.6155   23.9709 H   0  0  0  0  0  0
  -21.1483   -6.0538   25.9074 H   0  0  0  0  0  0
  -22.0595   -2.7611   23.2857 H   0  0  0  0  0  0
  -22.4089  -11.9906   22.4830 H   0  0  0  0  0  0
  -21.1093  -13.1268   22.2594 H   0  0  0  0  0  0
  -24.6417  -15.8369   20.5077 H   0  0  0  0  0  0
  -26.2643  -15.6388   20.0799 H   0  0  0  0  0  0
  -26.7233  -32.5388   23.1092 H   0  0  0  0  0  0
  -25.0017  -33.9697   25.0365 H   0  0  0  0  0  0
  -22.7315  -31.3113   21.4092 H   0  0  0  0  0  0
  -23.3747  -35.9624   23.3297 H   0  0  0  0  0  0
  -24.3592  -36.8911   22.2054 H   0  0  0  0  0  0
  -23.7265  -37.6495   23.6667 H   0  0  0  0  0  0
  -26.1415  -31.5050   20.6380 H   0  0  0  0  0  0
  -26.8593  -30.7891   22.0460 H   0  0  0  0  0  0
  -28.0869  -28.8094   21.3230 H   0  0  0  0  0  0
  -25.9993  -26.1129   18.6980 H   0  0  0  0  0  0
  -24.0140  -27.4468   18.8242 H   0  0  0  0  0  0
  -23.7775  -30.6195   19.4149 H   0  0  0  0  0  0
  -22.7711  -29.2732   19.8496 H   0  0  0  0  0  0
  -25.1304  -36.1901   25.0827 H   0  0  0  0  0  0
  -21.0018  -28.3282   24.1373 H   0  0  0  0  0  0
  -20.5726  -26.2312   23.3601 H   0  0  0  0  0  0
  -21.6671  -26.7460   22.1179 H   0  0  0  0  0  0
  -19.6930  -25.6306   21.1233 H   0  0  0  0  0  0
  -19.6695  -27.3210   20.6746 H   0  0  0  0  0  0
  -17.4224  -26.6697   21.4021 H   0  0  0  0  0  0
  -18.0342  -26.0074   22.9022 H   0  0  0  0  0  0
  -19.7967  -30.7284   24.2242 H   0  0  0  0  0  0
  -17.5042  -31.6274   24.5161 H   0  0  0  0  0  0
  -15.5371  -30.2981   23.7667 H   0  0  0  0  0  0
  -15.8698  -28.0809   22.7079 H   0  0  0  0  0  0
  -24.5898  -30.7121   25.7803 H   0  0  0  0  0  0
  -24.8922  -32.2959   26.4854 H   0  0  0  0  0  0
  -25.8026  -30.8978   27.0277 H   0  0  0  0  0  0
  -26.2991  -29.6746   24.1271 H   0  0  0  0  0  0
  -27.3943  -29.7253   25.4873 H   0  0  0  0  0  0
  -27.8922  -30.4234   23.9664 H   0  0  0  0  0  0
  -27.2646  -33.3632   26.2121 H   0  0  0  0  0  0
  -28.3877  -32.6918   25.0390 H   0  0  0  0  0  0
  -28.0720  -31.8474   26.5472 H   0  0  0  0  0  0
  -28.2591  -38.0103   24.7498 H   0  0  0  0  0  0
  -28.1088  -36.2635   24.6296 H   0  0  0  0  0  0
  -27.2304  -37.1458   25.8869 H   0  0  0  0  0  0
  -20.9389  -29.8776   21.6853 H   0  0  0  0  0  0
  -26.0164  -38.2841   24.1390 H   0  0  0  0  0  0
  -31.2943  -18.4578   22.3981 H   0  0  0  0  0  0
  -26.9531  -22.6714   18.5729 H   0  0  0  0  0  0
  -26.9959  -24.3433   18.0734 H   0  0  0  0  0  0
  -25.4537  -23.5588   18.3835 H   0  0  0  0  0  0
  -24.9312  -22.8036   20.9264 H   0  0  0  0  0  0
  -26.0285  -23.3135   22.1908 H   0  0  0  0  0  0
  -26.4882  -22.0404   21.0678 H   0  0  0  0  0  0
  -29.2185  -17.2338   19.2181 H   0  0  0  0  0  0
  -30.9224  -17.2050   19.3888 H   0  0  0  0  0  0
  -27.7631  -24.9380   21.7026 H   0  0  0  0  0  0
  -25.7455  -24.8314   20.3707 H   0  0  0  0  0  0
  -27.9621  -22.1791   19.8803 H   0  0  0  0  0  0
  -28.9555  -15.7226   21.0773 H   0  0  0  0  0  0
  1 25  1  0  0  0
  1 30  2  0  0  0
  1 82  1  0  0  0
  2  3  1  0  0  0
  2 25  1  0  0  0
  2 85  1  0  0  0
  2 86  1  0  0  0
  3  4  1  0  0  0
  3 87  1  0  0  0
  3 88  1  0  0  0
  4  5  1  0  0  0
  4 89  1  0  0  0
  4 90  1  0  0  0
  5  6  1  0  0  0
  5 26  1  0  0  0
  5 91  1  0  0  0
  6 25  1  0  0  0
  6 92  1  0  0  0
  6 93  1  0  0  0
  7  8  2  0  0  0
  7 26  1  0  0  0
  7 29  1  0  0  0
  8  9  1  0  0  0
  8 22  1  0  0  0
  9 10  1  0  0  0
  9 27  2  0  0  0
 10 11  2  0  0  0
 10 15  1  0  0  0
 11 12  1  0  0  0
 11 94  1  0  0  0
 12 13  2  0  0  0
 12 95  1  0  0  0
 13 14  1  0  0  0
 13 31  1  0  0  0
 14 15  2  0  0  0
 14 96  1  0  0  0
 15 97  1  0  0  0
 16 17  2  0  0  0
 16 21  1  0  0  0
 16 31  1  0  0  0
 17 18  1  0  0  0
 17 98  1  0  0  0
 18 19  2  0  0  0
 18 99  1  0  0  0
 19 20  1  0  0  0
 19 24  1  0  0  0
 20 21  2  0  0  0
 20100  1  0  0  0
 21 23  1  0  0  0
 22 28  1  0  0  0
 22 32  2  0  0  0
 26 27  1  0  0  0
 28101  1  0  0  0
 28102  1  0  0  0
 29103  1  0  0  0
 29104  1  0  0  0
 33 34  1  0  0  0
 33 66  1  0  0  0
 33 70  2  0  0  0
 34 36  1  0  0  0
 34 59  1  0  0  0
 34105  1  0  0  0
 35 44  2  0  0  0
 35 45  1  0  0  0
 35 68  1  0  0  0
 36 56  1  0  0  0
 36106  1  0  0  0
 37 39  1  0  0  0
 37 47  1  0  0  0
 37 66  1  0  0  0
 37107  1  0  0  0
 38 43  2  0  0  0
 38 46  1  0  0  0
 38 47  1  0  0  0
 39 64  1  0  0  0
 39 67  2  0  0  0
 40 52  1  0  0  0
 40 53  2  0  0  0
 40 58  1  0  0  0
 41108  1  0  0  0
 41109  1  0  0  0
 41110  1  0  0  0
 41 48  1  0  0  0
 42 43  1  0  0  0
 42 66  1  0  0  0
 42111  1  0  0  0
 42112  1  0  0  0
 43 44  1  0  0  0
 44113  1  0  0  0
 45 46  2  0  0  0
 45114  1  0  0  0
 46115  1  0  0  0
 47116  1  0  0  0
 47117  1  0  0  0
 48 56  1  0  0  0
 48 65  1  0  0  0
 48118  1  0  0  0
 49 50  1  0  0  0
 49 53  1  0  0  0
 49 64  1  0  0  0
 49119  1  0  0  0
 50 51  1  0  0  0
 50120  1  0  0  0
 50121  1  0  0  0
 51 52  1  0  0  0
 51122  1  0  0  0
 51123  1  0  0  0
 52124  1  0  0  0
 52125  1  0  0  0
 53 54  1  0  0  0
 54 55  2  0  0  0
 54126  1  0  0  0
 55 57  1  0  0  0
 55127  1  0  0  0
 56 69  2  0  0  0
 57 58  2  0  0  0
 57128  1  0  0  0
 58129  1  0  0  0
 59 60  1  0  0  0
 59 61  1  0  0  0
 59 62  1  0  0  0
 60130  1  0  0  0
 60131  1  0  0  0
 60132  1  0  0  0
 61133  1  0  0  0
 61134  1  0  0  0
 61135  1  0  0  0
 62136  1  0  0  0
 62137  1  0  0  0
 62138  1  0  0  0
 63 65  1  0  0  0
 63139  1  0  0  0
 63140  1  0  0  0
 63141  1  0  0  0
 64142  1  0  0  0
 65143  1  0  0  0
 68 78  1  0  0  0
 71 72  2  0  0  0
 71 84  1  0  0  0
 71144  1  0  0  0
 72 77  1  0  0  0
 72 80  1  0  0  0
 73 80  2  0  0  0
 73 81  1  0  0  0
 73 84  1  0  0  0
 74 78  1  0  0  0
 74 81  1  0  0  0
 74 83  2  0  0  0
 75145  1  0  0  0
 75146  1  0  0  0
 75147  1  0  0  0
 75 79  1  0  0  0
 76 79  1  0  0  0
 76148  1  0  0  0
 76149  1  0  0  0
 76150  1  0  0  0
 77 82  1  0  0  0
 77151  1  0  0  0
 77152  1  0  0  0
 78 79  1  0  0  0
 78153  1  0  0  0
 79154  1  0  0  0
 81155  1  0  0  0
 82156  1  0  0  0
M  ISO  4   1 100  68 101  78 101  82 100
M  END
> <chiral flag>
0

> <version>
0

> <s_m_source_file>
/data/baiqing/PycharmProjects/Reinvent-master-3.2/result/LINK_invent/BTK/process_docking_weight1_custom_product_contain_oxygen_bond_distance_aromatic_linkinvent_7_9_3/rearranged_h_0186.sdf

> <i_m_source_file_index>
45

> <r_mmod_Potential_Energy-OPLS-2005>
136.491806030273

> <r_mmod_Stretch_Energy-OPLS-2005>
147.135833740234

> <r_mmod_Bend_Energy-OPLS-2005>
207.794906616211

> <r_mmod_Torsional_Energy-OPLS-2005>
250.457473754883

> <r_mmod_Improper_Torsional_Energy-OPLS-2005>
8.45751285552979

> <r_mmod_Van_der_Waal_Energy-OPLS-2005>
136.806488037109

> <r_mmod_Electrostatic_Energy-OPLS-2005>
-483.095245361328

> <r_mmod_Solvation_Energy-OPLS-2005>
-243.043243408203

> <b_mmod_Minimization_Converged-OPLS-2005>
0

> <r_mmod_RMS_Derivative-OPLS-2005>
2.12537598609924

$$$$
46
                    3D
 Structure written by MMmdl.
160168  0  0  1  0            999 V2000
  -30.6301  -14.6078   20.4791 C   0  0  0  0  0  0
  -30.4285  -12.3728   19.4262 C   0  0  0  0  0  0
  -29.4964  -12.5074   18.2033 C   0  0  0  0  0  0
  -28.0175  -12.3566   18.6133 C   0  0  0  0  0  0
  -27.6459  -13.2147   19.8536 C   0  0  2  0  0  0
  -28.6976  -13.0682   20.9766 C   0  0  0  0  0  0
  -25.2520  -13.8162   20.5649 C   0  0  0  0  0  0
  -24.1813  -13.0414   20.9194 C   0  0  0  0  0  0
  -24.6409  -11.6901   20.8765 C   0  0  0  0  0  0
  -23.9088  -10.4280   21.0423 C   0  0  0  0  0  0
  -24.3652   -9.4192   21.9181 C   0  0  0  0  0  0
  -23.6314   -8.2236   22.0767 C   0  0  0  0  0  0
  -22.4288   -8.0288   21.3568 C   0  0  0  0  0  0
  -21.9935   -9.0252   20.4654 C   0  0  0  0  0  0
  -22.7268  -10.2123   20.3057 C   0  0  0  0  0  0
  -21.6863   -6.0736   22.5278 C   0  0  0  0  0  0
  -21.4017   -6.5644   23.8203 C   0  0  0  0  0  0
  -21.3663   -5.6809   24.9172 C   0  0  0  0  0  0
  -21.6052   -4.3069   24.7230 C   0  0  0  0  0  0
  -21.8821   -3.8153   23.4353 C   0  0  0  0  0  0
  -21.9197   -4.6964   22.3404 C   0  0  0  0  0  0
  -22.7828  -13.5203   21.1850 C   0  0  0  0  0  0
  -22.1653   -4.2144   21.0975 F   0  0  0  0  0  0
  -21.5638   -3.4550   25.7747 F   0  0  0  0  0  0
  -30.0077  -13.3944   20.3982 N   0  0  0  0  0  0
  -26.2947  -12.9343   20.3283 N   0  0  0  0  0  0
  -25.9327  -11.6499   20.5756 N   0  0  0  0  0  0
  -22.0504  -12.8177   22.0417 N   0  0  0  0  0  0
  -25.4181  -15.1893   20.4045 N   0  0  0  0  0  0
  -31.8253  -14.7440   20.2011 O   0  0  0  0  0  0
  -21.6664   -6.8882   21.4245 O   0  0  0  0  0  0
  -22.3480  -14.5492   20.6681 O   0  0  0  0  0  0
  -24.6219  -31.8632   23.2056 C   0  0  0  0  0  0
  -25.9087  -32.4782   23.8362 C   0  0  1  0  0  0
  -27.2157  -27.3473   20.0953 C   0  0  0  0  0  0
  -25.5918  -33.8594   24.2295 N   0  0  0  0  0  0
  -23.4093  -30.4884   21.5491 C   0  0  2  0  0  0
  -24.8509  -28.9453   20.1084 C   0  0  0  0  0  0
  -22.7425  -29.4637   22.4965 C   0  0  0  0  0  0
  -18.0269  -28.1374   22.8497 C   0  0  0  0  0  0
  -24.1494  -36.7292   23.2632 C   0  0  0  0  0  0
  -25.9472  -30.8002   21.3710 C   0  0  0  0  0  0
  -26.0179  -29.4305   20.7093 C   0  0  0  0  0  0
  -27.2007  -28.6410   20.6958 C   0  0  0  0  0  0
  -26.0197  -26.8934   19.4950 C   0  0  0  0  0  0
  -24.8501  -27.6801   19.4974 C   0  0  0  0  0  0
  -23.6177  -29.8242   20.1625 C   0  0  0  0  0  0
  -25.4121  -36.3081   24.0325 C   0  0  1  0  0  0
  -20.5863  -28.3669   23.1310 C   0  0  2  0  0  0
  -20.6768  -26.9408   22.5410 C   0  0  0  0  0  0
  -19.5742  -26.6374   21.5216 C   0  0  0  0  0  0
  -18.1911  -26.7914   22.1628 C   0  0  0  0  0  0
  -19.1517  -28.8840   23.2896 C   0  0  0  0  0  0
  -18.9441  -30.1452   23.8902 C   0  0  0  0  0  0
  -17.6444  -30.6585   24.0563 C   0  0  0  0  0  0
  -25.9056  -34.9451   23.5105 C   0  0  0  0  0  0
  -16.5339  -29.9084   23.6319 C   0  0  0  0  0  0
  -16.7254  -28.6496   23.0359 C   0  0  0  0  0  0
  -26.4477  -31.6574   25.0718 C   0  0  0  0  0  0
  -25.3716  -31.3686   26.1443 C   0  0  0  0  0  0
  -27.0298  -30.2988   24.6150 C   0  0  0  0  0  0
  -27.6035  -32.4292   25.7499 C   0  0  0  0  0  0
  -27.5583  -37.1803   24.8458 C   0  0  0  0  0  0
  -21.4146  -29.3031   22.3706 N   0  0  0  0  0  0
  -26.4295  -37.3776   23.9402 N   0  0  0  0  0  0
  -24.6778  -31.0665   22.0992 N   0  0  0  0  0  0
  -23.4180  -28.8182   23.3030 O   0  0  0  0  0  0
  -28.3704  -26.5645   20.1272 O   0  0  0  0  0  0
  -26.5637  -34.8912   22.4680 O   0  0  0  0  0  0
  -23.5400  -32.1437   23.7412 O   0  0  0  0  0  0
  -29.6576  -19.3585   20.9947 C   0  0  0  0  0  0
  -30.7289  -19.2247   21.8581 C   0  0  0  0  0  0
  -30.0801  -17.0609   20.8465 C   0  0  0  0  0  0
  -26.9589  -22.7599   18.3762 C   0  0  0  0  0  0
  -28.8044  -20.5813   18.3569 C   0  0  0  0  0  0
  -30.2846  -22.2087   19.5066 C   0  0  0  0  0  0
  -27.9692  -23.9916   20.3762 C   0  0  0  0  0  0
  -28.4273  -25.2346   19.5110 C   0  0  0  0  0  0
  -27.7479  -22.5655   19.6932 C   0  0  2  0  0  0
  -28.9340  -21.4773   19.6156 C   0  0  0  0  0  0
  -29.2874  -18.0949   20.4548 N   0  0  0  0  0  0
  -28.9485  -20.5950   20.8138 N   0  0  0  0  0  0
  -29.7880  -15.6787   20.5567 N   0  0  0  0  0  0
  -31.4760  -20.4310   22.8727 S   0  5  0  0  0  0
  -31.3795  -17.5953   21.9022 S   0  0  0  0  0  0
  -31.4686  -12.4965   19.1233 H   0  0  0  0  0  0
  -30.3525  -11.3779   19.8645 H   0  0  0  0  0  0
  -29.7540  -11.7662   17.4456 H   0  0  0  0  0  0
  -29.6438  -13.4833   17.7356 H   0  0  0  0  0  0
  -27.8352  -11.3010   18.8159 H   0  0  0  0  0  0
  -27.3720  -12.6184   17.7735 H   0  0  0  0  0  0
  -27.6534  -14.2497   19.5143 H   0  0  0  0  0  0
  -28.7036  -12.0499   21.3678 H   0  0  0  0  0  0
  -28.4598  -13.7162   21.8211 H   0  0  0  0  0  0
  -25.2813   -9.5642   22.4727 H   0  0  0  0  0  0
  -24.0023   -7.4636   22.7488 H   0  0  0  0  0  0
  -21.0869   -8.8779   19.8942 H   0  0  0  0  0  0
  -22.3764  -10.9661   19.6145 H   0  0  0  0  0  0
  -21.2000   -7.6155   23.9696 H   0  0  0  0  0  0
  -21.1481   -6.0548   25.9074 H   0  0  0  0  0  0
  -22.0599   -2.7609   23.2868 H   0  0  0  0  0  0
  -22.4199  -11.9861   22.4788 H   0  0  0  0  0  0
  -21.1106  -13.1129   22.2621 H   0  0  0  0  0  0
  -24.6487  -15.8397   20.5238 H   0  0  0  0  0  0
  -26.2610  -15.6416   20.0741 H   0  0  0  0  0  0
  -26.7137  -32.5446   23.1100 H   0  0  0  0  0  0
  -25.0028  -33.9746   25.0408 H   0  0  0  0  0  0
  -22.6986  -31.3061   21.4125 H   0  0  0  0  0  0
  -23.3754  -35.9620   23.3281 H   0  0  0  0  0  0
  -24.3582  -36.8923   22.2041 H   0  0  0  0  0  0
  -23.7251  -37.6487   23.6680 H   0  0  0  0  0  0
  -26.0777  -31.5687   20.6074 H   0  0  0  0  0  0
  -26.8259  -30.8429   22.0018 H   0  0  0  0  0  0
  -28.0987  -29.0184   21.1640 H   0  0  0  0  0  0
  -25.9491  -25.9193   19.0338 H   0  0  0  0  0  0
  -23.9484  -27.2996   19.0379 H   0  0  0  0  0  0
  -23.7281  -30.6023   19.4051 H   0  0  0  0  0  0
  -22.7360  -29.2512   19.8681 H   0  0  0  0  0  0
  -25.1305  -36.1912   25.0817 H   0  0  0  0  0  0
  -20.9956  -28.3235   24.1434 H   0  0  0  0  0  0
  -20.5682  -26.2283   23.3598 H   0  0  0  0  0  0
  -21.6633  -26.7461   22.1197 H   0  0  0  0  0  0
  -19.6913  -25.6282   21.1254 H   0  0  0  0  0  0
  -19.6675  -27.3178   20.6739 H   0  0  0  0  0  0
  -17.4189  -26.6659   21.4025 H   0  0  0  0  0  0
  -18.0325  -26.0055   22.9027 H   0  0  0  0  0  0
  -19.7928  -30.7270   24.2270 H   0  0  0  0  0  0
  -17.5004  -31.6277   24.5149 H   0  0  0  0  0  0
  -15.5345  -30.3002   23.7634 H   0  0  0  0  0  0
  -15.8652  -28.0820   22.7088 H   0  0  0  0  0  0
  -24.5926  -30.6999   25.7766 H   0  0  0  0  0  0
  -24.8884  -32.2842   26.4860 H   0  0  0  0  0  0
  -25.8061  -30.8876   27.0216 H   0  0  0  0  0  0
  -26.2859  -29.6753   24.1184 H   0  0  0  0  0  0
  -27.3969  -29.7222   25.4645 H   0  0  0  0  0  0
  -27.8745  -30.4218   23.9372 H   0  0  0  0  0  0
  -27.2640  -33.3577   26.2096 H   0  0  0  0  0  0
  -28.3867  -32.6860   25.0360 H   0  0  0  0  0  0
  -28.0691  -31.8404   26.5408 H   0  0  0  0  0  0
  -28.2587  -38.0115   24.7539 H   0  0  0  0  0  0
  -28.1100  -36.2651   24.6259 H   0  0  0  0  0  0
  -27.2310  -37.1412   25.8862 H   0  0  0  0  0  0
  -20.9311  -29.8711   21.6884 H   0  0  0  0  0  0
  -26.0166  -38.2838   24.1417 H   0  0  0  0  0  0
  -27.5950  -23.1202   17.5666 H   0  0  0  0  0  0
  -26.4832  -21.8360   18.0432 H   0  0  0  0  0  0
  -26.1485  -23.4772   18.5014 H   0  0  0  0  0  0
  -28.8267  -21.1603   17.4330 H   0  0  0  0  0  0
  -27.8853  -19.9938   18.3657 H   0  0  0  0  0  0
  -29.6301  -19.8732   18.2763 H   0  0  0  0  0  0
  -30.3042  -22.8899   18.6544 H   0  0  0  0  0  0
  -31.1073  -21.5064   19.3698 H   0  0  0  0  0  0
  -30.5117  -22.7894   20.4001 H   0  0  0  0  0  0
  -27.0028  -24.2698   20.7982 H   0  0  0  0  0  0
  -28.6239  -23.8825   21.2401 H   0  0  0  0  0  0
  -27.9283  -25.2571   18.5434 H   0  0  0  0  0  0
  -29.4766  -25.0759   19.2619 H   0  0  0  0  0  0
  -27.0055  -22.0856   20.3341 H   0  0  0  0  0  0
  -29.2260  -21.1700   21.6059 H   0  0  0  0  0  0
  -28.8124  -15.4519   20.4893 H   0  0  0  0  0  0
  1 25  1  0  0  0
  1 30  2  0  0  0
  1 83  1  0  0  0
  2  3  1  0  0  0
  2 25  1  0  0  0
  2 86  1  0  0  0
  2 87  1  0  0  0
  3  4  1  0  0  0
  3 88  1  0  0  0
  3 89  1  0  0  0
  4  5  1  0  0  0
  4 90  1  0  0  0
  4 91  1  0  0  0
  5  6  1  0  0  0
  5 26  1  0  0  0
  5 92  1  0  0  0
  6 25  1  0  0  0
  6 93  1  0  0  0
  6 94  1  0  0  0
  7  8  2  0  0  0
  7 26  1  0  0  0
  7 29  1  0  0  0
  8  9  1  0  0  0
  8 22  1  0  0  0
  9 10  1  0  0  0
  9 27  2  0  0  0
 10 11  2  0  0  0
 10 15  1  0  0  0
 11 12  1  0  0  0
 11 95  1  0  0  0
 12 13  2  0  0  0
 12 96  1  0  0  0
 13 14  1  0  0  0
 13 31  1  0  0  0
 14 15  2  0  0  0
 14 97  1  0  0  0
 15 98  1  0  0  0
 16 17  2  0  0  0
 16 21  1  0  0  0
 16 31  1  0  0  0
 17 18  1  0  0  0
 17 99  1  0  0  0
 18 19  2  0  0  0
 18100  1  0  0  0
 19 20  1  0  0  0
 19 24  1  0  0  0
 20 21  2  0  0  0
 20101  1  0  0  0
 21 23  1  0  0  0
 22 28  1  0  0  0
 22 32  2  0  0  0
 26 27  1  0  0  0
 28102  1  0  0  0
 28103  1  0  0  0
 29104  1  0  0  0
 29105  1  0  0  0
 33 34  1  0  0  0
 33 66  1  0  0  0
 33 70  2  0  0  0
 34 36  1  0  0  0
 34 59  1  0  0  0
 34106  1  0  0  0
 35 44  2  0  0  0
 35 45  1  0  0  0
 35 68  1  0  0  0
 36 56  1  0  0  0
 36107  1  0  0  0
 37 39  1  0  0  0
 37 47  1  0  0  0
 37 66  1  0  0  0
 37108  1  0  0  0
 38 43  2  0  0  0
 38 46  1  0  0  0
 38 47  1  0  0  0
 39 64  1  0  0  0
 39 67  2  0  0  0
 40 52  1  0  0  0
 40 53  2  0  0  0
 40 58  1  0  0  0
 41109  1  0  0  0
 41110  1  0  0  0
 41111  1  0  0  0
 41 48  1  0  0  0
 42 43  1  0  0  0
 42 66  1  0  0  0
 42112  1  0  0  0
 42113  1  0  0  0
 43 44  1  0  0  0
 44114  1  0  0  0
 45 46  2  0  0  0
 45115  1  0  0  0
 46116  1  0  0  0
 47117  1  0  0  0
 47118  1  0  0  0
 48 56  1  0  0  0
 48 65  1  0  0  0
 48119  1  0  0  0
 49 50  1  0  0  0
 49 53  1  0  0  0
 49 64  1  0  0  0
 49120  1  0  0  0
 50 51  1  0  0  0
 50121  1  0  0  0
 50122  1  0  0  0
 51 52  1  0  0  0
 51123  1  0  0  0
 51124  1  0  0  0
 52125  1  0  0  0
 52126  1  0  0  0
 53 54  1  0  0  0
 54 55  2  0  0  0
 54127  1  0  0  0
 55 57  1  0  0  0
 55128  1  0  0  0
 56 69  2  0  0  0
 57 58  2  0  0  0
 57129  1  0  0  0
 58130  1  0  0  0
 59 60  1  0  0  0
 59 61  1  0  0  0
 59 62  1  0  0  0
 60131  1  0  0  0
 60132  1  0  0  0
 60133  1  0  0  0
 61134  1  0  0  0
 61135  1  0  0  0
 61136  1  0  0  0
 62137  1  0  0  0
 62138  1  0  0  0
 62139  1  0  0  0
 63 65  1  0  0  0
 63140  1  0  0  0
 63141  1  0  0  0
 63142  1  0  0  0
 64143  1  0  0  0
 65144  1  0  0  0
 68 78  1  0  0  0
 71 72  2  0  0  0
 71 81  1  0  0  0
 71 82  1  0  0  0
 72 84  1  0  0  0
 72 85  1  0  0  0
 73 81  2  0  0  0
 73 83  1  0  0  0
 73 85  1  0  0  0
 74145  1  0  0  0
 74146  1  0  0  0
 74147  1  0  0  0
 74 79  1  0  0  0
 75148  1  0  0  0
 75149  1  0  0  0
 75150  1  0  0  0
 75 80  1  0  0  0
 76 80  1  0  0  0
 76151  1  0  0  0
 76152  1  0  0  0
 76153  1  0  0  0
 77 78  1  0  0  0
 77 79  1  0  0  0
 77154  1  0  0  0
 77155  1  0  0  0
 78156  1  0  0  0
 78157  1  0  0  0
 79 80  1  0  0  0
 79158  1  0  0  0
 80 82  1  0  0  0
 82159  1  0  0  0
 83160  1  0  0  0
M  CHG  1  84  -1
M  ISO  4   1 100  68 101  78 101  83 100
M  END
> <chiral flag>
0

> <version>
0

> <s_m_source_file>
/data/baiqing/PycharmProjects/Reinvent-master-3.2/result/LINK_invent/BTK/process_docking_weight1_custom_product_contain_oxygen_bond_distance_aromatic_linkinvent_7_9_3/rearranged_h_0186.sdf

> <i_m_source_file_index>
46

> <r_mmod_Potential_Energy-OPLS-2005>
-381.060455322266

> <r_mmod_Stretch_Energy-OPLS-2005>
67.5550003051758

> <r_mmod_Bend_Energy-OPLS-2005>
155.007125854492

> <r_mmod_Torsional_Energy-OPLS-2005>
256.201141357422

> <r_mmod_Improper_Torsional_Energy-OPLS-2005>
14.7885370254517

> <r_mmod_Van_der_Waal_Energy-OPLS-2005>
129.42643737793

> <r_mmod_Electrostatic_Energy-OPLS-2005>
-594.738525390625

> <r_mmod_Solvation_Energy-OPLS-2005>
-448.257476806641

> <b_mmod_Minimization_Converged-OPLS-2005>
0

> <r_mmod_RMS_Derivative-OPLS-2005>
3.0221164226532

$$$$
47
                    3D
 Structure written by MMmdl.
171179  0  0  1  0            999 V2000
  -30.7102  -14.4407   20.6295 C   0  0  0  0  0  0
  -30.4319  -12.3045   19.4209 C   0  0  0  0  0  0
  -29.5056  -12.5445   18.2122 C   0  0  0  0  0  0
  -28.0254  -12.3969   18.6178 C   0  0  0  0  0  0
  -27.6697  -13.2080   19.8929 C   0  0  2  0  0  0
  -28.7087  -12.9457   21.0071 C   0  0  0  0  0  0
  -25.2512  -13.8086   20.5561 C   0  0  0  0  0  0
  -24.1810  -13.0378   20.9151 C   0  0  0  0  0  0
  -24.6421  -11.6871   20.8746 C   0  0  0  0  0  0
  -23.9098  -10.4280   21.0425 C   0  0  0  0  0  0
  -24.3641   -9.4191   21.9199 C   0  0  0  0  0  0
  -23.6293   -8.2233   22.0759 C   0  0  0  0  0  0
  -22.4268   -8.0291   21.3558 C   0  0  0  0  0  0
  -21.9930   -9.0268   20.4658 C   0  0  0  0  0  0
  -22.7279  -10.2131   20.3073 C   0  0  0  0  0  0
  -21.6844   -6.0742   22.5293 C   0  0  0  0  0  0
  -21.4009   -6.5642   23.8237 C   0  0  0  0  0  0
  -21.3651   -5.6773   24.9188 C   0  0  0  0  0  0
  -21.6055   -4.3051   24.7216 C   0  0  0  0  0  0
  -21.8822   -3.8156   23.4336 C   0  0  0  0  0  0
  -21.9183   -4.6973   22.3400 C   0  0  0  0  0  0
  -22.7837  -13.5185   21.1829 C   0  0  0  0  0  0
  -22.1660   -4.2177   21.0960 F   0  0  0  0  0  0
  -21.5640   -3.4523   25.7722 F   0  0  0  0  0  0
  -30.0520  -13.2571   20.4752 N   0  0  0  0  0  0
  -26.3056  -12.9329   20.3437 N   0  0  0  0  0  0
  -25.9370  -11.6486   20.5832 N   0  0  0  0  0  0
  -22.0491  -12.8184   22.0393 N   0  0  0  0  0  0
  -25.3986  -15.1762   20.3713 N   0  0  0  0  0  0
  -31.7650  -14.7086   20.0414 O   0  0  0  0  0  0
  -21.6643   -6.8881   21.4241 O   0  0  0  0  0  0
  -22.3535  -14.5518   20.6728 O   0  0  0  0  0  0
  -24.6158  -31.8667   23.2086 C   0  0  0  0  0  0
  -25.9056  -32.4810   23.8393 C   0  0  1  0  0  0
  -27.2458  -27.4340   20.0898 C   0  0  0  0  0  0
  -25.5915  -33.8607   24.2336 N   0  0  0  0  0  0
  -23.4045  -30.4864   21.5496 C   0  0  2  0  0  0
  -24.8535  -28.9439   20.1214 C   0  0  0  0  0  0
  -22.7408  -29.4654   22.5005 C   0  0  0  0  0  0
  -18.0273  -28.1359   22.8485 C   0  0  0  0  0  0
  -24.1484  -36.7297   23.2640 C   0  0  0  0  0  0
  -25.9331  -30.8295   21.3616 C   0  0  0  0  0  0
  -26.0140  -29.4621   20.7110 C   0  0  0  0  0  0
  -27.2155  -28.7157   20.6882 C   0  0  0  0  0  0
  -26.0689  -26.9231   19.5070 C   0  0  0  0  0  0
  -24.8748  -27.6725   19.5190 C   0  0  0  0  0  0
  -23.6148  -29.8113   20.1675 C   0  0  0  0  0  0
  -25.4106  -36.3105   24.0345 C   0  0  1  0  0  0
  -20.5858  -28.3651   23.1312 C   0  0  2  0  0  0
  -20.6760  -26.9380   22.5423 C   0  0  0  0  0  0
  -19.5752  -26.6356   21.5212 C   0  0  0  0  0  0
  -18.1920  -26.7903   22.1608 C   0  0  0  0  0  0
  -19.1520  -28.8816   23.2893 C   0  0  0  0  0  0
  -18.9452  -30.1422   23.8913 C   0  0  0  0  0  0
  -17.6463  -30.6566   24.0550 C   0  0  0  0  0  0
  -25.9039  -34.9474   23.5140 C   0  0  0  0  0  0
  -16.5351  -29.9070   23.6321 C   0  0  0  0  0  0
  -16.7269  -28.6477   23.0353 C   0  0  0  0  0  0
  -26.4486  -31.6581   25.0713 C   0  0  0  0  0  0
  -25.3762  -31.3667   26.1459 C   0  0  0  0  0  0
  -27.0307  -30.3033   24.6055 C   0  0  0  0  0  0
  -27.6052  -32.4291   25.7484 C   0  0  0  0  0  0
  -27.5586  -37.1802   24.8468 C   0  0  0  0  0  0
  -21.4137  -29.3029   22.3731 N   0  0  0  0  0  0
  -26.4291  -37.3794   23.9428 N   0  0  0  0  0  0
  -24.6694  -31.0751   22.0984 N   0  0  0  0  0  0
  -23.4170  -28.8197   23.3049 O   0  0  0  0  0  0
  -28.4120  -26.6985   20.0499 O   0  0  0  0  0  0
  -26.5582  -34.8923   22.4692 O   0  0  0  0  0  0
  -23.5350  -32.1411   23.7484 O   0  0  0  0  0  0
  -28.0030  -18.3919   20.6321 C   0  0  0  0  0  0
  -29.3162  -18.6479   20.2959 C   0  0  0  0  0  0
  -29.5660  -16.5472   21.1311 C   0  0  0  0  0  0
  -29.9164  -21.0368   20.1659 C   0  0  0  0  0  0
  -31.4800  -22.1294   18.5286 C   0  0  0  0  0  0
  -24.7891  -18.6698   21.8101 C   0  0  0  0  0  0
  -26.7008  -20.0170   22.7324 C   0  0  0  0  0  0
  -25.1651  -20.9917   21.0061 C   0  0  0  0  0  0
  -26.7651  -19.1852   20.2938 C   0  0  0  0  0  0
  -29.9287  -23.6560   19.8305 C   0  0  0  0  0  0
  -28.4305  -25.5193   20.8748 C   0  0  0  0  0  0
  -30.0944  -22.2345   19.1958 C   0  0  2  0  0  0
  -28.4890  -24.1650   20.1108 C   0  0  2  0  0  0
  -25.8796  -19.7049   21.4646 C   0  0  0  0  0  0
  -30.1990  -17.5705   20.5313 N   0  0  0  0  0  0
  -29.6919  -19.8311   19.6074 N   0  0  0  0  0  0
  -30.1359  -15.2953   21.4876 N   0  0  0  0  0  0
  -30.0348  -21.1951   21.3838 O   0  0  0  0  0  0
  -27.8581  -23.2625   20.8607 F   0  0  0  0  0  0
  -27.8800  -16.8702   21.4722 S   0  0  0  0  0  0
  -31.4789  -12.4046   19.1296 H   0  0  0  0  0  0
  -30.3229  -11.2824   19.7875 H   0  0  0  0  0  0
  -29.7455  -11.8532   17.4044 H   0  0  0  0  0  0
  -29.6799  -13.5456   17.8136 H   0  0  0  0  0  0
  -27.8253  -11.3379   18.7838 H   0  0  0  0  0  0
  -27.3851  -12.7015   17.7910 H   0  0  0  0  0  0
  -27.7214  -14.2660   19.6333 H   0  0  0  0  0  0
  -28.6756  -11.8975   21.3088 H   0  0  0  0  0  0
  -28.4551  -13.4989   21.9114 H   0  0  0  0  0  0
  -25.2782   -9.5649   22.4767 H   0  0  0  0  0  0
  -23.9989   -7.4616   22.7465 H   0  0  0  0  0  0
  -21.0881   -8.8801   19.8941 H   0  0  0  0  0  0
  -22.3760  -10.9673   19.6185 H   0  0  0  0  0  0
  -21.2001   -7.6154   23.9734 H   0  0  0  0  0  0
  -21.1481   -6.0518   25.9084 H   0  0  0  0  0  0
  -22.0606   -2.7619   23.2832 H   0  0  0  0  0  0
  -22.4079  -11.9800   22.4725 H   0  0  0  0  0  0
  -21.1151  -13.1291   22.2655 H   0  0  0  0  0  0
  -24.6250  -15.8177   20.4927 H   0  0  0  0  0  0
  -26.2439  -15.6324   20.0582 H   0  0  0  0  0  0
  -26.7117  -32.5518   23.1148 H   0  0  0  0  0  0
  -25.0122  -33.9764   25.0517 H   0  0  0  0  0  0
  -22.6950  -31.3035   21.4055 H   0  0  0  0  0  0
  -23.3760  -35.9616   23.3297 H   0  0  0  0  0  0
  -24.3591  -36.8912   22.2061 H   0  0  0  0  0  0
  -23.7209  -37.6490   23.6648 H   0  0  0  0  0  0
  -26.0443  -31.5935   20.5913 H   0  0  0  0  0  0
  -26.8214  -30.8847   21.9798 H   0  0  0  0  0  0
  -28.1150  -29.1172   21.1347 H   0  0  0  0  0  0
  -26.0764  -25.9496   19.0369 H   0  0  0  0  0  0
  -23.9813  -27.2644   19.0669 H   0  0  0  0  0  0
  -23.7262  -30.5816   19.4039 H   0  0  0  0  0  0
  -22.7378  -29.2319   19.8727 H   0  0  0  0  0  0
  -25.1281  -36.1977   25.0837 H   0  0  0  0  0  0
  -20.9945  -28.3207   24.1435 H   0  0  0  0  0  0
  -20.5638  -26.2259   23.3611 H   0  0  0  0  0  0
  -21.6630  -26.7406   22.1234 H   0  0  0  0  0  0
  -19.6910  -25.6264   21.1246 H   0  0  0  0  0  0
  -19.6692  -27.3158   20.6733 H   0  0  0  0  0  0
  -17.4193  -26.6664   21.3998 H   0  0  0  0  0  0
  -18.0308  -26.0033   22.8989 H   0  0  0  0  0  0
  -19.7930  -30.7225   24.2292 H   0  0  0  0  0  0
  -17.5021  -31.6256   24.5145 H   0  0  0  0  0  0
  -15.5354  -30.2992   23.7637 H   0  0  0  0  0  0
  -15.8656  -28.0814   22.7085 H   0  0  0  0  0  0
  -24.5935  -30.7012   25.7803 H   0  0  0  0  0  0
  -24.8951  -32.2807   26.4943 H   0  0  0  0  0  0
  -25.8136  -30.8818   27.0191 H   0  0  0  0  0  0
  -26.2826  -29.6790   24.1144 H   0  0  0  0  0  0
  -27.4137  -29.7271   25.4489 H   0  0  0  0  0  0
  -27.8643  -30.4376   23.9152 H   0  0  0  0  0  0
  -27.2666  -33.3569   26.2105 H   0  0  0  0  0  0
  -28.3851  -32.6880   25.0311 H   0  0  0  0  0  0
  -28.0720  -31.8379   26.5367 H   0  0  0  0  0  0
  -28.2598  -38.0107   24.7545 H   0  0  0  0  0  0
  -28.1092  -36.2645   24.6262 H   0  0  0  0  0  0
  -27.2311  -37.1413   25.8870 H   0  0  0  0  0  0
  -20.9299  -29.8768   21.6969 H   0  0  0  0  0  0
  -26.0184  -38.2873   24.1434 H   0  0  0  0  0  0
  -31.6941  -21.1207   18.1710 H   0  0  0  0  0  0
  -32.2732  -22.4054   19.2248 H   0  0  0  0  0  0
  -31.5505  -22.7927   17.6659 H   0  0  0  0  0  0
  -24.1200  -19.0396   22.5882 H   0  0  0  0  0  0
  -25.2108  -17.7341   22.1743 H   0  0  0  0  0  0
  -24.1713  -18.4338   20.9428 H   0  0  0  0  0  0
  -26.0879  -20.4987   23.4943 H   0  0  0  0  0  0
  -27.5372  -20.6812   22.5112 H   0  0  0  0  0  0
  -27.1064  -19.1140   23.1888 H   0  0  0  0  0  0
  -24.5338  -21.4061   21.7930 H   0  0  0  0  0  0
  -24.5259  -20.7985   20.1430 H   0  0  0  0  0  0
  -25.8736  -21.7673   20.7155 H   0  0  0  0  0  0
  -26.1553  -18.6096   19.5955 H   0  0  0  0  0  0
  -27.0781  -20.0471   19.7058 H   0  0  0  0  0  0
  -30.3922  -24.3866   19.1648 H   0  0  0  0  0  0
  -30.5146  -23.7049   20.7492 H   0  0  0  0  0  0
  -29.2943  -25.5937   21.5361 H   0  0  0  0  0  0
  -27.5684  -25.5173   21.5455 H   0  0  0  0  0  0
  -29.3420  -22.1243   18.4128 H   0  0  0  0  0  0
  -27.9129  -24.2327   19.1877 H   0  0  0  0  0  0
  -29.7104  -19.7796   18.5976 H   0  0  0  0  0  0
  -29.5312  -14.7901   22.1164 H   0  0  0  0  0  0
  1 25  1  0  0  0
  1 30  2  0  0  0
  1 87  1  0  0  0
  2  3  1  0  0  0
  2 25  1  0  0  0
  2 91  1  0  0  0
  2 92  1  0  0  0
  3  4  1  0  0  0
  3 93  1  0  0  0
  3 94  1  0  0  0
  4  5  1  0  0  0
  4 95  1  0  0  0
  4 96  1  0  0  0
  5  6  1  0  0  0
  5 26  1  0  0  0
  5 97  1  0  0  0
  6 25  1  0  0  0
  6 98  1  0  0  0
  6 99  1  0  0  0
  7  8  2  0  0  0
  7 26  1  0  0  0
  7 29  1  0  0  0
  8  9  1  0  0  0
  8 22  1  0  0  0
  9 10  1  0  0  0
  9 27  2  0  0  0
 10 11  2  0  0  0
 10 15  1  0  0  0
 11 12  1  0  0  0
 11100  1  0  0  0
 12 13  2  0  0  0
 12101  1  0  0  0
 13 14  1  0  0  0
 13 31  1  0  0  0
 14 15  2  0  0  0
 14102  1  0  0  0
 15103  1  0  0  0
 16 17  2  0  0  0
 16 21  1  0  0  0
 16 31  1  0  0  0
 17 18  1  0  0  0
 17104  1  0  0  0
 18 19  2  0  0  0
 18105  1  0  0  0
 19 20  1  0  0  0
 19 24  1  0  0  0
 20 21  2  0  0  0
 20106  1  0  0  0
 21 23  1  0  0  0
 22 28  1  0  0  0
 22 32  2  0  0  0
 26 27  1  0  0  0
 28107  1  0  0  0
 28108  1  0  0  0
 29109  1  0  0  0
 29110  1  0  0  0
 33 34  1  0  0  0
 33 66  1  0  0  0
 33 70  2  0  0  0
 34 36  1  0  0  0
 34 59  1  0  0  0
 34111  1  0  0  0
 35 44  2  0  0  0
 35 45  1  0  0  0
 35 68  1  0  0  0
 36 56  1  0  0  0
 36112  1  0  0  0
 37 39  1  0  0  0
 37 47  1  0  0  0
 37 66  1  0  0  0
 37113  1  0  0  0
 38 43  2  0  0  0
 38 46  1  0  0  0
 38 47  1  0  0  0
 39 64  1  0  0  0
 39 67  2  0  0  0
 40 52  1  0  0  0
 40 53  2  0  0  0
 40 58  1  0  0  0
 41114  1  0  0  0
 41115  1  0  0  0
 41116  1  0  0  0
 41 48  1  0  0  0
 42 43  1  0  0  0
 42 66  1  0  0  0
 42117  1  0  0  0
 42118  1  0  0  0
 43 44  1  0  0  0
 44119  1  0  0  0
 45 46  2  0  0  0
 45120  1  0  0  0
 46121  1  0  0  0
 47122  1  0  0  0
 47123  1  0  0  0
 48 56  1  0  0  0
 48 65  1  0  0  0
 48124  1  0  0  0
 49 50  1  0  0  0
 49 53  1  0  0  0
 49 64  1  0  0  0
 49125  1  0  0  0
 50 51  1  0  0  0
 50126  1  0  0  0
 50127  1  0  0  0
 51 52  1  0  0  0
 51128  1  0  0  0
 51129  1  0  0  0
 52130  1  0  0  0
 52131  1  0  0  0
 53 54  1  0  0  0
 54 55  2  0  0  0
 54132  1  0  0  0
 55 57  1  0  0  0
 55133  1  0  0  0
 56 69  2  0  0  0
 57 58  2  0  0  0
 57134  1  0  0  0
 58135  1  0  0  0
 59 60  1  0  0  0
 59 61  1  0  0  0
 59 62  1  0  0  0
 60136  1  0  0  0
 60137  1  0  0  0
 60138  1  0  0  0
 61139  1  0  0  0
 61140  1  0  0  0
 61141  1  0  0  0
 62142  1  0  0  0
 62143  1  0  0  0
 62144  1  0  0  0
 63 65  1  0  0  0
 63145  1  0  0  0
 63146  1  0  0  0
 63147  1  0  0  0
 64148  1  0  0  0
 65149  1  0  0  0
 68 81  1  0  0  0
 71 72  2  0  0  0
 71 79  1  0  0  0
 71 90  1  0  0  0
 72 85  1  0  0  0
 72 86  1  0  0  0
 73 85  2  0  0  0
 73 87  1  0  0  0
 73 90  1  0  0  0
 74 82  1  0  0  0
 74 86  1  0  0  0
 74 88  2  0  0  0
 75150  1  0  0  0
 75151  1  0  0  0
 75152  1  0  0  0
 75 82  1  0  0  0
 76153  1  0  0  0
 76154  1  0  0  0
 76155  1  0  0  0
 76 84  1  0  0  0
 77 84  1  0  0  0
 77156  1  0  0  0
 77157  1  0  0  0
 77158  1  0  0  0
 78 84  1  0  0  0
 78159  1  0  0  0
 78160  1  0  0  0
 78161  1  0  0  0
 79 84  1  0  0  0
 79162  1  0  0  0
 79163  1  0  0  0
 80 82  1  0  0  0
 80 83  1  0  0  0
 80164  1  0  0  0
 80165  1  0  0  0
 81 83  1  0  0  0
 81166  1  0  0  0
 81167  1  0  0  0
 82168  1  0  0  0
 83 89  1  0  0  0
 83169  1  0  0  0
 86170  1  0  0  0
 87171  1  0  0  0
M  ISO  4   1 100  68 101  81 101  87 100
M  END
> <chiral flag>
0

> <version>
0

> <s_m_source_file>
/data/baiqing/PycharmProjects/Reinvent-master-3.2/result/LINK_invent/BTK/process_docking_weight1_custom_product_contain_oxygen_bond_distance_aromatic_linkinvent_7_9_3/rearranged_h_0186.sdf

> <i_m_source_file_index>
47

> <r_mmod_Potential_Energy-OPLS-2005>
-119.100105285645

> <r_mmod_Stretch_Energy-OPLS-2005>
40.240161895752

> <r_mmod_Bend_Energy-OPLS-2005>
118.77269744873

> <r_mmod_Torsional_Energy-OPLS-2005>
286.806243896484

> <r_mmod_Improper_Torsional_Energy-OPLS-2005>
7.47585391998291

> <r_mmod_Van_der_Waal_Energy-OPLS-2005>
113.093795776367

> <r_mmod_Electrostatic_Energy-OPLS-2005>
-462.537414550781

> <r_mmod_Solvation_Energy-OPLS-2005>
-232.703170776367

> <b_mmod_Minimization_Converged-OPLS-2005>
0

> <r_mmod_RMS_Derivative-OPLS-2005>
3.1375994682312

$$$$
48
                    3D
 Structure written by MMmdl.
153161  0  0  1  0            999 V2000
  -30.6258  -14.7240   20.4526 C   0  0  0  0  0  0
  -30.4230  -12.4399   19.4734 C   0  0  0  0  0  0
  -29.5048  -12.4994   18.2337 C   0  0  0  0  0  0
  -28.0303  -12.3310   18.6467 C   0  0  0  0  0  0
  -27.6381  -13.2325   19.8480 C   0  0  2  0  0  0
  -28.6819  -13.1710   20.9837 C   0  0  0  0  0  0
  -25.2492  -13.8198   20.5689 C   0  0  0  0  0  0
  -24.1792  -13.0444   20.9224 C   0  0  0  0  0  0
  -24.6385  -11.6924   20.8761 C   0  0  0  0  0  0
  -23.9064  -10.4295   21.0414 C   0  0  0  0  0  0
  -24.3619   -9.4210   21.9187 C   0  0  0  0  0  0
  -23.6297   -8.2245   22.0755 C   0  0  0  0  0  0
  -22.4278   -8.0280   21.3549 C   0  0  0  0  0  0
  -21.9913   -9.0251   20.4648 C   0  0  0  0  0  0
  -22.7240  -10.2133   20.3059 C   0  0  0  0  0  0
  -21.6853   -6.0734   22.5281 C   0  0  0  0  0  0
  -21.4010   -6.5640   23.8214 C   0  0  0  0  0  0
  -21.3661   -5.6794   24.9177 C   0  0  0  0  0  0
  -21.6046   -4.3057   24.7227 C   0  0  0  0  0  0
  -21.8819   -3.8148   23.4349 C   0  0  0  0  0  0
  -21.9192   -4.6962   22.3403 C   0  0  0  0  0  0
  -22.7815  -13.5225   21.1877 C   0  0  0  0  0  0
  -22.1663   -4.2149   21.0980 F   0  0  0  0  0  0
  -21.5629   -3.4541   25.7738 F   0  0  0  0  0  0
  -29.9820  -13.5100   20.3969 N   0  0  0  0  0  0
  -26.2913  -12.9411   20.3274 N   0  0  0  0  0  0
  -25.9312  -11.6552   20.5758 N   0  0  0  0  0  0
  -22.0462  -12.8210   22.0429 N   0  0  0  0  0  0
  -25.4173  -15.1917   20.4062 N   0  0  0  0  0  0
  -31.8207  -14.7930   20.1537 O   0  0  0  0  0  0
  -21.6643   -6.8877   21.4242 O   0  0  0  0  0  0
  -22.3499  -14.5531   20.6722 O   0  0  0  0  0  0
  -24.6295  -31.8546   23.1957 C   0  0  0  0  0  0
  -25.9122  -32.4746   23.8305 C   0  0  1  0  0  0
  -27.2266  -27.2727   20.1168 C   0  0  0  0  0  0
  -25.5926  -33.8549   24.2234 N   0  0  0  0  0  0
  -23.4247  -30.4754   21.5389 C   0  0  2  0  0  0
  -24.8706  -28.9183   20.1066 C   0  0  0  0  0  0
  -22.7487  -29.4595   22.4906 C   0  0  0  0  0  0
  -18.0290  -28.1387   22.8489 C   0  0  0  0  0  0
  -24.1491  -36.7271   23.2638 C   0  0  0  0  0  0
  -25.9677  -30.7714   21.3701 C   0  0  0  0  0  0
  -26.0398  -29.3945   20.7107 C   0  0  0  0  0  0
  -27.2151  -28.5827   20.7037 C   0  0  0  0  0  0
  -26.0245  -26.8432   19.5166 C   0  0  0  0  0  0
  -24.8671  -27.6502   19.5015 C   0  0  0  0  0  0
  -23.6406  -29.8047   20.1558 C   0  0  0  0  0  0
  -25.4118  -36.3057   24.0323 C   0  0  1  0  0  0
  -20.5891  -28.3690   23.1274 C   0  0  2  0  0  0
  -20.6772  -26.9409   22.5406 C   0  0  0  0  0  0
  -19.5750  -26.6381   21.5208 C   0  0  0  0  0  0
  -18.1932  -26.7930   22.1625 C   0  0  0  0  0  0
  -19.1543  -28.8857   23.2877 C   0  0  0  0  0  0
  -18.9469  -30.1460   23.8893 C   0  0  0  0  0  0
  -17.6469  -30.6589   24.0566 C   0  0  0  0  0  0
  -25.9060  -34.9434   23.5080 C   0  0  0  0  0  0
  -16.5359  -29.9090   23.6331 C   0  0  0  0  0  0
  -16.7277  -28.6506   23.0353 C   0  0  0  0  0  0
  -26.4497  -31.6578   25.0701 C   0  0  0  0  0  0
  -25.3718  -31.3736   26.1422 C   0  0  0  0  0  0
  -27.0335  -30.2996   24.6173 C   0  0  0  0  0  0
  -27.6052  -32.4317   25.7479 C   0  0  0  0  0  0
  -27.5577  -37.1786   24.8466 C   0  0  0  0  0  0
  -21.4194  -29.3038   22.3662 N   0  0  0  0  0  0
  -26.4284  -37.3762   23.9417 N   0  0  0  0  0  0
  -24.6932  -31.0520   22.0920 N   0  0  0  0  0  0
  -23.4198  -28.8140   23.3000 O   0  0  0  0  0  0
  -28.3652  -26.4445   20.2074 O   0  0  0  0  0  0
  -26.5635  -34.8917   22.4652 O   0  0  0  0  0  0
  -23.5446  -32.1358   23.7263 O   0  0  0  0  0  0
  -28.4989  -19.1041   21.0695 C   0  0  0  0  0  0
  -29.6630  -18.6608   20.4525 C   0  0  0  0  0  0
  -29.0984  -21.1977   20.1990 C   0  0  0  0  0  0
  -28.2991  -23.7370   20.1996 C   0  0  0  0  0  0
  -27.5748  -18.2601   21.8922 C   0  0  0  0  0  0
  -28.3016  -25.1640   17.9982 C   0  0  0  0  0  0
  -30.4636  -17.2941   20.4502 C   0  0  0  0  0  0
  -28.6351  -25.1453   19.5017 C   0  0  1  0  0  0
  -28.1981  -20.4994   20.9178 N   0  0  0  0  0  0
  -29.0782  -22.6402   19.8683 N   0  0  0  0  0  0
  -29.8908  -15.8899   20.6180 N   0  0  0  0  0  0
  -27.3655  -23.6686   21.0030 O   0  0  0  0  0  0
  -30.3805  -20.0785   19.6382 S   0  0  0  0  0  0
  -31.4665  -12.5509   19.1726 H   0  0  0  0  0  0
  -30.3553  -11.4650   19.9592 H   0  0  0  0  0  0
  -29.7838  -11.7249   17.5178 H   0  0  0  0  0  0
  -29.6373  -13.4532   17.7202 H   0  0  0  0  0  0
  -27.8820  -11.2826   18.9090 H   0  0  0  0  0  0
  -27.3741  -12.5258   17.7976 H   0  0  0  0  0  0
  -27.6322  -14.2533   19.4657 H   0  0  0  0  0  0
  -28.7118  -12.1771   21.4327 H   0  0  0  0  0  0
  -28.4233  -13.8635   21.7865 H   0  0  0  0  0  0
  -25.2757   -9.5687   22.4768 H   0  0  0  0  0  0
  -24.0005   -7.4632   22.7469 H   0  0  0  0  0  0
  -21.0849   -8.8767   19.8948 H   0  0  0  0  0  0
  -22.3694  -10.9674   19.6171 H   0  0  0  0  0  0
  -21.2001   -7.6148   23.9715 H   0  0  0  0  0  0
  -21.1485   -6.0525   25.9079 H   0  0  0  0  0  0
  -22.0597   -2.7609   23.2847 H   0  0  0  0  0  0
  -22.4083  -11.9868   22.4810 H   0  0  0  0  0  0
  -21.1077  -13.1227   22.2637 H   0  0  0  0  0  0
  -24.6402  -15.8373   20.4927 H   0  0  0  0  0  0
  -26.2446  -15.6197   20.0130 H   0  0  0  0  0  0
  -26.7185  -32.5393   23.1041 H   0  0  0  0  0  0
  -25.0084  -33.9692   25.0385 H   0  0  0  0  0  0
  -22.7203  -31.2964   21.3904 H   0  0  0  0  0  0
  -23.3757  -35.9599   23.3300 H   0  0  0  0  0  0
  -24.3581  -36.8892   22.2053 H   0  0  0  0  0  0
  -23.7242  -37.6470   23.6666 H   0  0  0  0  0  0
  -26.1029  -31.5323   20.6009 H   0  0  0  0  0  0
  -26.8469  -30.8201   22.0008 H   0  0  0  0  0  0
  -28.1131  -28.9437   21.1855 H   0  0  0  0  0  0
  -25.9386  -25.8528   19.1028 H   0  0  0  0  0  0
  -23.9636  -27.2691   19.0455 H   0  0  0  0  0  0
  -23.7634  -30.5789   19.3979 H   0  0  0  0  0  0
  -22.7593  -29.2361   19.8532 H   0  0  0  0  0  0
  -25.1299  -36.1889   25.0813 H   0  0  0  0  0  0
  -20.9993  -28.3261   24.1391 H   0  0  0  0  0  0
  -20.5664  -26.2298   23.3607 H   0  0  0  0  0  0
  -21.6640  -26.7424   22.1206 H   0  0  0  0  0  0
  -19.6919  -25.6292   21.1239 H   0  0  0  0  0  0
  -19.6698  -27.3192   20.6741 H   0  0  0  0  0  0
  -17.4198  -26.6672   21.4033 H   0  0  0  0  0  0
  -18.0343  -26.0070   22.9024 H   0  0  0  0  0  0
  -19.7946  -30.7274   24.2261 H   0  0  0  0  0  0
  -17.5026  -31.6273   24.5163 H   0  0  0  0  0  0
  -15.5360  -30.2996   23.7660 H   0  0  0  0  0  0
  -15.8671  -28.0827   22.7074 H   0  0  0  0  0  0
  -24.5915  -30.7058   25.7754 H   0  0  0  0  0  0
  -24.8886  -32.2905   26.4804 H   0  0  0  0  0  0
  -25.8034  -30.8953   27.0221 H   0  0  0  0  0  0
  -26.2909  -29.6752   24.1194 H   0  0  0  0  0  0
  -27.4020  -29.7253   25.4681 H   0  0  0  0  0  0
  -27.8782  -30.4274   23.9401 H   0  0  0  0  0  0
  -27.2672  -33.3639   26.2015 H   0  0  0  0  0  0
  -28.3887  -32.6833   25.0319 H   0  0  0  0  0  0
  -28.0686  -31.8459   26.5429 H   0  0  0  0  0  0
  -28.2576  -38.0101   24.7521 H   0  0  0  0  0  0
  -28.1087  -36.2629   24.6269 H   0  0  0  0  0  0
  -27.2298  -37.1396   25.8868 H   0  0  0  0  0  0
  -20.9370  -29.8760   21.6874 H   0  0  0  0  0  0
  -26.0155  -38.2827   24.1441 H   0  0  0  0  0  0
  -28.1277  -17.5665   22.5255 H   0  0  0  0  0  0
  -26.9126  -17.6715   21.2579 H   0  0  0  0  0  0
  -26.9471  -18.8654   22.5468 H   0  0  0  0  0  0
  -28.9141  -24.4404   17.4601 H   0  0  0  0  0  0
  -28.5051  -26.1432   17.5651 H   0  0  0  0  0  0
  -27.2673  -24.9023   17.7881 H   0  0  0  0  0  0
  -31.2342  -17.3834   21.2175 H   0  0  0  0  0  0
  -31.0242  -17.2688   19.5141 H   0  0  0  0  0  0
  -29.7257  -25.1511   19.5234 H   0  0  0  0  0  0
  -29.8221  -22.8931   19.2347 H   0  0  0  0  0  0
  -28.9045  -15.7956   20.8023 H   0  0  0  0  0  0
  1 25  1  0  0  0
  1 30  2  0  0  0
  1 81  1  0  0  0
  2  3  1  0  0  0
  2 25  1  0  0  0
  2 84  1  0  0  0
  2 85  1  0  0  0
  3  4  1  0  0  0
  3 86  1  0  0  0
  3 87  1  0  0  0
  4  5  1  0  0  0
  4 88  1  0  0  0
  4 89  1  0  0  0
  5  6  1  0  0  0
  5 26  1  0  0  0
  5 90  1  0  0  0
  6 25  1  0  0  0
  6 91  1  0  0  0
  6 92  1  0  0  0
  7  8  2  0  0  0
  7 26  1  0  0  0
  7 29  1  0  0  0
  8  9  1  0  0  0
  8 22  1  0  0  0
  9 10  1  0  0  0
  9 27  2  0  0  0
 10 11  2  0  0  0
 10 15  1  0  0  0
 11 12  1  0  0  0
 11 93  1  0  0  0
 12 13  2  0  0  0
 12 94  1  0  0  0
 13 14  1  0  0  0
 13 31  1  0  0  0
 14 15  2  0  0  0
 14 95  1  0  0  0
 15 96  1  0  0  0
 16 17  2  0  0  0
 16 21  1  0  0  0
 16 31  1  0  0  0
 17 18  1  0  0  0
 17 97  1  0  0  0
 18 19  2  0  0  0
 18 98  1  0  0  0
 19 20  1  0  0  0
 19 24  1  0  0  0
 20 21  2  0  0  0
 20 99  1  0  0  0
 21 23  1  0  0  0
 22 28  1  0  0  0
 22 32  2  0  0  0
 26 27  1  0  0  0
 28100  1  0  0  0
 28101  1  0  0  0
 29102  1  0  0  0
 29103  1  0  0  0
 33 34  1  0  0  0
 33 66  1  0  0  0
 33 70  2  0  0  0
 34 36  1  0  0  0
 34 59  1  0  0  0
 34104  1  0  0  0
 35 44  2  0  0  0
 35 45  1  0  0  0
 35 68  1  0  0  0
 36 56  1  0  0  0
 36105  1  0  0  0
 37 39  1  0  0  0
 37 47  1  0  0  0
 37 66  1  0  0  0
 37106  1  0  0  0
 38 43  2  0  0  0
 38 46  1  0  0  0
 38 47  1  0  0  0
 39 64  1  0  0  0
 39 67  2  0  0  0
 40 52  1  0  0  0
 40 53  2  0  0  0
 40 58  1  0  0  0
 41107  1  0  0  0
 41108  1  0  0  0
 41109  1  0  0  0
 41 48  1  0  0  0
 42 43  1  0  0  0
 42 66  1  0  0  0
 42110  1  0  0  0
 42111  1  0  0  0
 43 44  1  0  0  0
 44112  1  0  0  0
 45 46  2  0  0  0
 45113  1  0  0  0
 46114  1  0  0  0
 47115  1  0  0  0
 47116  1  0  0  0
 48 56  1  0  0  0
 48 65  1  0  0  0
 48117  1  0  0  0
 49 50  1  0  0  0
 49 53  1  0  0  0
 49 64  1  0  0  0
 49118  1  0  0  0
 50 51  1  0  0  0
 50119  1  0  0  0
 50120  1  0  0  0
 51 52  1  0  0  0
 51121  1  0  0  0
 51122  1  0  0  0
 52123  1  0  0  0
 52124  1  0  0  0
 53 54  1  0  0  0
 54 55  2  0  0  0
 54125  1  0  0  0
 55 57  1  0  0  0
 55126  1  0  0  0
 56 69  2  0  0  0
 57 58  2  0  0  0
 57127  1  0  0  0
 58128  1  0  0  0
 59 60  1  0  0  0
 59 61  1  0  0  0
 59 62  1  0  0  0
 60129  1  0  0  0
 60130  1  0  0  0
 60131  1  0  0  0
 61132  1  0  0  0
 61133  1  0  0  0
 61134  1  0  0  0
 62135  1  0  0  0
 62136  1  0  0  0
 62137  1  0  0  0
 63 65  1  0  0  0
 63138  1  0  0  0
 63139  1  0  0  0
 63140  1  0  0  0
 64141  1  0  0  0
 65142  1  0  0  0
 68 78  1  0  0  0
 71 72  2  0  0  0
 71 75  1  0  0  0
 71 79  1  0  0  0
 72 77  1  0  0  0
 72 83  1  0  0  0
 73 79  2  0  0  0
 73 80  1  0  0  0
 73 83  1  0  0  0
 74 78  1  0  0  0
 74 80  1  0  0  0
 74 82  2  0  0  0
 75143  1  0  0  0
 75144  1  0  0  0
 75145  1  0  0  0
 76146  1  0  0  0
 76147  1  0  0  0
 76148  1  0  0  0
 76 78  1  0  0  0
 77 81  1  0  0  0
 77149  1  0  0  0
 77150  1  0  0  0
 78151  1  0  0  0
 80152  1  0  0  0
 81153  1  0  0  0
M  ISO  4   1 100  68 101  78 101  81 100
M  END
> <chiral flag>
0

> <version>
0

> <s_m_source_file>
/data/baiqing/PycharmProjects/Reinvent-master-3.2/result/LINK_invent/BTK/process_docking_weight1_custom_product_contain_oxygen_bond_distance_aromatic_linkinvent_7_9_3/rearranged_h_0186.sdf

> <i_m_source_file_index>
48

> <r_mmod_Potential_Energy-OPLS-2005>
28.953727722168

> <r_mmod_Stretch_Energy-OPLS-2005>
108.086158752441

> <r_mmod_Bend_Energy-OPLS-2005>
221.51985168457

> <r_mmod_Torsional_Energy-OPLS-2005>
202.276611328125

> <r_mmod_Improper_Torsional_Energy-OPLS-2005>
5.7061824798584

> <r_mmod_Van_der_Waal_Energy-OPLS-2005>
109.752449035645

> <r_mmod_Electrostatic_Energy-OPLS-2005>
-437.361358642578

> <r_mmod_Solvation_Energy-OPLS-2005>
-257.200775146484

> <b_mmod_Minimization_Converged-OPLS-2005>
0

> <r_mmod_RMS_Derivative-OPLS-2005>
0.888943493366241

$$$$
49
                    3D
 Structure written by MMmdl.
153161  0  0  1  0            999 V2000
  -30.7219  -14.4754   20.5824 C   0  0  0  0  0  0
  -30.4133  -12.3139   19.4243 C   0  0  0  0  0  0
  -29.4870  -12.4962   18.2050 C   0  0  0  0  0  0
  -28.0118  -12.3540   18.6238 C   0  0  0  0  0  0
  -27.6581  -13.2083   19.8702 C   0  0  2  0  0  0
  -28.6997  -13.0184   20.9948 C   0  0  0  0  0  0
  -25.2593  -13.8163   20.5681 C   0  0  0  0  0  0
  -24.1847  -13.0435   20.9165 C   0  0  0  0  0  0
  -24.6403  -11.6901   20.8741 C   0  0  0  0  0  0
  -23.9075  -10.4288   21.0409 C   0  0  0  0  0  0
  -24.3625   -9.4204   21.9185 C   0  0  0  0  0  0
  -23.6293   -8.2242   22.0758 C   0  0  0  0  0  0
  -22.4277   -8.0284   21.3551 C   0  0  0  0  0  0
  -21.9916   -9.0261   20.4652 C   0  0  0  0  0  0
  -22.7250  -10.2134   20.3055 C   0  0  0  0  0  0
  -21.6857   -6.0742   22.5277 C   0  0  0  0  0  0
  -21.4016   -6.5649   23.8211 C   0  0  0  0  0  0
  -21.3657   -5.6797   24.9174 C   0  0  0  0  0  0
  -21.6042   -4.3060   24.7227 C   0  0  0  0  0  0
  -21.8817   -3.8152   23.4345 C   0  0  0  0  0  0
  -21.9201   -4.6968   22.3403 C   0  0  0  0  0  0
  -22.7877  -13.5245   21.1822 C   0  0  0  0  0  0
  -22.1666   -4.2157   21.0979 F   0  0  0  0  0  0
  -21.5631   -3.4535   25.7738 F   0  0  0  0  0  0
  -30.0257  -13.3152   20.4336 N   0  0  0  0  0  0
  -26.3021  -12.9334   20.3366 N   0  0  0  0  0  0
  -25.9332  -11.6494   20.5789 N   0  0  0  0  0  0
  -22.0536  -12.8237   22.0386 N   0  0  0  0  0  0
  -25.4321  -15.1882   20.4083 N   0  0  0  0  0  0
  -31.8420  -14.6346   20.0912 O   0  0  0  0  0  0
  -21.6643   -6.8882   21.4239 O   0  0  0  0  0  0
  -22.3565  -14.5562   20.6685 O   0  0  0  0  0  0
  -24.6155  -31.8657   23.2099 C   0  0  0  0  0  0
  -25.9029  -32.4828   23.8389 C   0  0  1  0  0  0
  -27.2338  -27.4309   20.1056 C   0  0  0  0  0  0
  -25.5901  -33.8629   24.2316 N   0  0  0  0  0  0
  -23.4047  -30.4894   21.5483 C   0  0  2  0  0  0
  -24.8545  -28.9538   20.1128 C   0  0  0  0  0  0
  -22.7420  -29.4646   22.4973 C   0  0  0  0  0  0
  -18.0268  -28.1377   22.8518 C   0  0  0  0  0  0
  -24.1491  -36.7306   23.2645 C   0  0  0  0  0  0
  -25.9330  -30.8314   21.3617 C   0  0  0  0  0  0
  -26.0137  -29.4655   20.7122 C   0  0  0  0  0  0
  -27.2107  -28.7111   20.7042 C   0  0  0  0  0  0
  -26.0620  -26.9306   19.5025 C   0  0  0  0  0  0
  -24.8748  -27.6859   19.5042 C   0  0  0  0  0  0
  -23.6153  -29.8186   20.1638 C   0  0  0  0  0  0
  -25.4113  -36.3110   24.0338 C   0  0  1  0  0  0
  -20.5863  -28.3659   23.1333 C   0  0  2  0  0  0
  -20.6773  -26.9398   22.5435 C   0  0  0  0  0  0
  -19.5753  -26.6379   21.5241 C   0  0  0  0  0  0
  -18.1920  -26.7932   22.1630 C   0  0  0  0  0  0
  -19.1525  -28.8834   23.2924 C   0  0  0  0  0  0
  -18.9448  -30.1444   23.8923 C   0  0  0  0  0  0
  -17.6459  -30.6603   24.0572 C   0  0  0  0  0  0
  -25.9030  -34.9478   23.5121 C   0  0  0  0  0  0
  -16.5341  -29.9106   23.6333 C   0  0  0  0  0  0
  -16.7259  -28.6517   23.0371 C   0  0  0  0  0  0
  -26.4462  -31.6622   25.0720 C   0  0  0  0  0  0
  -25.3720  -31.3723   26.1468 C   0  0  0  0  0  0
  -27.0297  -30.3080   24.6074 C   0  0  0  0  0  0
  -27.6055  -32.4343   25.7466 C   0  0  0  0  0  0
  -27.5577  -37.1804   24.8465 C   0  0  0  0  0  0
  -21.4145  -29.3023   22.3730 N   0  0  0  0  0  0
  -26.4293  -37.3796   23.9413 N   0  0  0  0  0  0
  -24.6691  -31.0764   22.0981 N   0  0  0  0  0  0
  -23.4196  -28.8170   23.2998 O   0  0  0  0  0  0
  -28.3752  -26.6625   20.1008 O   0  0  0  0  0  0
  -26.5598  -34.8935   22.4676 O   0  0  0  0  0  0
  -23.5359  -32.1371   23.7513 O   0  0  0  0  0  0
  -28.9172  -18.4914   22.2347 C   0  0  0  0  0  0
  -29.9432  -18.0364   21.4365 C   0  0  0  0  0  0
  -29.2660  -20.3948   21.0230 C   0  0  0  0  0  0
  -28.8484  -24.2363   20.4690 C   0  0  0  0  0  0
  -29.5672  -23.1676   22.6673 C   0  0  0  0  0  0
  -30.7507  -16.7636   21.5779 C   0  0  0  0  0  0
  -28.3401  -25.5799   21.0522 C   0  0  0  0  0  0
  -28.7557  -22.9654   21.3701 C   0  0  2  0  0  0
  -28.5600  -19.8332   22.0075 N   0  0  0  0  0  0
  -29.2140  -21.7490   20.6816 N   0  0  0  0  0  0
  -30.0979  -15.4894   21.2198 N   0  0  0  0  0  0
  -29.3242  -24.1898   19.3283 O   0  0  0  0  0  0
  -30.3960  -19.2683   20.2681 S   0  0  0  0  0  0
  -31.4589  -12.4004   19.1222 H   0  0  0  0  0  0
  -30.3085  -11.3090   19.8361 H   0  0  0  0  0  0
  -29.7264  -11.7616   17.4347 H   0  0  0  0  0  0
  -29.6513  -13.4766   17.7548 H   0  0  0  0  0  0
  -27.8309  -11.2992   18.8344 H   0  0  0  0  0  0
  -27.3550  -12.6107   17.7926 H   0  0  0  0  0  0
  -27.6965  -14.2510   19.5557 H   0  0  0  0  0  0
  -28.6841  -11.9930   21.3657 H   0  0  0  0  0  0
  -28.4592  -13.6439   21.8548 H   0  0  0  0  0  0
  -25.2765   -9.5681   22.4757 H   0  0  0  0  0  0
  -24.0005   -7.4637   22.7473 H   0  0  0  0  0  0
  -21.0848   -8.8771   19.8959 H   0  0  0  0  0  0
  -22.3703  -10.9670   19.6159 H   0  0  0  0  0  0
  -21.1995   -7.6156   23.9720 H   0  0  0  0  0  0
  -21.1482   -6.0529   25.9082 H   0  0  0  0  0  0
  -22.0596   -2.7610   23.2845 H   0  0  0  0  0  0
  -22.4169  -11.9887   22.4736 H   0  0  0  0  0  0
  -21.1165  -13.1261   22.2624 H   0  0  0  0  0  0
  -24.6633  -15.8417   20.5125 H   0  0  0  0  0  0
  -26.2870  -15.6288   20.0904 H   0  0  0  0  0  0
  -26.7101  -32.5536   23.1164 H   0  0  0  0  0  0
  -25.0085  -33.9797   25.0486 H   0  0  0  0  0  0
  -22.6944  -31.3064   21.4075 H   0  0  0  0  0  0
  -23.3763  -35.9632   23.3327 H   0  0  0  0  0  0
  -24.3580  -36.8895   22.2056 H   0  0  0  0  0  0
  -23.7244  -37.6517   23.6645 H   0  0  0  0  0  0
  -26.0370  -31.5937   20.5892 H   0  0  0  0  0  0
  -26.8278  -30.8936   21.9707 H   0  0  0  0  0  0
  -28.1056  -29.0996   21.1700 H   0  0  0  0  0  0
  -26.0691  -25.9533   19.0395 H   0  0  0  0  0  0
  -23.9824  -27.2858   19.0405 H   0  0  0  0  0  0
  -23.7179  -30.5916   19.4017 H   0  0  0  0  0  0
  -22.7441  -29.2310   19.8705 H   0  0  0  0  0  0
  -25.1295  -36.1962   25.0830 H   0  0  0  0  0  0
  -20.9943  -28.3213   24.1455 H   0  0  0  0  0  0
  -20.5719  -26.2252   23.3609 H   0  0  0  0  0  0
  -21.6632  -26.7477   22.1175 H   0  0  0  0  0  0
  -19.6924  -25.6295   21.1256 H   0  0  0  0  0  0
  -19.6717  -27.3217   20.6798 H   0  0  0  0  0  0
  -17.4209  -26.6729   21.4008 H   0  0  0  0  0  0
  -18.0279  -26.0067   22.8997 H   0  0  0  0  0  0
  -19.7922  -30.7267   24.2296 H   0  0  0  0  0  0
  -17.5014  -31.6290   24.5160 H   0  0  0  0  0  0
  -15.5346  -30.3040   23.7655 H   0  0  0  0  0  0
  -15.8640  -28.0863   22.7075 H   0  0  0  0  0  0
  -24.5901  -30.7067   25.7797 H   0  0  0  0  0  0
  -24.8901  -32.2880   26.4905 H   0  0  0  0  0  0
  -25.8063  -30.8892   27.0228 H   0  0  0  0  0  0
  -26.2820  -29.6853   24.1155 H   0  0  0  0  0  0
  -27.4123  -29.7318   25.4508 H   0  0  0  0  0  0
  -27.8635  -30.4442   23.9179 H   0  0  0  0  0  0
  -27.2680  -33.3644   26.2047 H   0  0  0  0  0  0
  -28.3849  -32.6892   25.0270 H   0  0  0  0  0  0
  -28.0734  -31.8454   26.5366 H   0  0  0  0  0  0
  -28.2594  -38.0101   24.7507 H   0  0  0  0  0  0
  -28.1055  -36.2629   24.6278 H   0  0  0  0  0  0
  -27.2279  -37.1424   25.8861 H   0  0  0  0  0  0
  -20.9293  -29.8748   21.6966 H   0  0  0  0  0  0
  -26.0177  -38.2863   24.1444 H   0  0  0  0  0  0
  -28.4507  -17.9621   23.0543 H   0  0  0  0  0  0
  -29.1795  -23.9905   23.2696 H   0  0  0  0  0  0
  -30.6186  -23.3757   22.4601 H   0  0  0  0  0  0
  -29.5320  -22.2784   23.2974 H   0  0  0  0  0  0
  -31.0694  -16.6741   22.6169 H   0  0  0  0  0  0
  -31.6798  -16.8917   21.0194 H   0  0  0  0  0  0
  -28.9806  -25.8557   21.8908 H   0  0  0  0  0  0
  -27.3381  -25.4315   21.4584 H   0  0  0  0  0  0
  -27.7079  -22.8172   21.6357 H   0  0  0  0  0  0
  -29.7002  -21.9732   19.8160 H   0  0  0  0  0  0
  -29.1640  -15.3180   21.5601 H   0  0  0  0  0  0
  1 25  1  0  0  0
  1 30  2  0  0  0
  1 81  1  0  0  0
  2  3  1  0  0  0
  2 25  1  0  0  0
  2 84  1  0  0  0
  2 85  1  0  0  0
  3  4  1  0  0  0
  3 86  1  0  0  0
  3 87  1  0  0  0
  4  5  1  0  0  0
  4 88  1  0  0  0
  4 89  1  0  0  0
  5  6  1  0  0  0
  5 26  1  0  0  0
  5 90  1  0  0  0
  6 25  1  0  0  0
  6 91  1  0  0  0
  6 92  1  0  0  0
  7  8  2  0  0  0
  7 26  1  0  0  0
  7 29  1  0  0  0
  8  9  1  0  0  0
  8 22  1  0  0  0
  9 10  1  0  0  0
  9 27  2  0  0  0
 10 11  2  0  0  0
 10 15  1  0  0  0
 11 12  1  0  0  0
 11 93  1  0  0  0
 12 13  2  0  0  0
 12 94  1  0  0  0
 13 14  1  0  0  0
 13 31  1  0  0  0
 14 15  2  0  0  0
 14 95  1  0  0  0
 15 96  1  0  0  0
 16 17  2  0  0  0
 16 21  1  0  0  0
 16 31  1  0  0  0
 17 18  1  0  0  0
 17 97  1  0  0  0
 18 19  2  0  0  0
 18 98  1  0  0  0
 19 20  1  0  0  0
 19 24  1  0  0  0
 20 21  2  0  0  0
 20 99  1  0  0  0
 21 23  1  0  0  0
 22 28  1  0  0  0
 22 32  2  0  0  0
 26 27  1  0  0  0
 28100  1  0  0  0
 28101  1  0  0  0
 29102  1  0  0  0
 29103  1  0  0  0
 33 34  1  0  0  0
 33 66  1  0  0  0
 33 70  2  0  0  0
 34 36  1  0  0  0
 34 59  1  0  0  0
 34104  1  0  0  0
 35 44  2  0  0  0
 35 45  1  0  0  0
 35 68  1  0  0  0
 36 56  1  0  0  0
 36105  1  0  0  0
 37 39  1  0  0  0
 37 47  1  0  0  0
 37 66  1  0  0  0
 37106  1  0  0  0
 38 43  2  0  0  0
 38 46  1  0  0  0
 38 47  1  0  0  0
 39 64  1  0  0  0
 39 67  2  0  0  0
 40 52  1  0  0  0
 40 53  2  0  0  0
 40 58  1  0  0  0
 41107  1  0  0  0
 41108  1  0  0  0
 41109  1  0  0  0
 41 48  1  0  0  0
 42 43  1  0  0  0
 42 66  1  0  0  0
 42110  1  0  0  0
 42111  1  0  0  0
 43 44  1  0  0  0
 44112  1  0  0  0
 45 46  2  0  0  0
 45113  1  0  0  0
 46114  1  0  0  0
 47115  1  0  0  0
 47116  1  0  0  0
 48 56  1  0  0  0
 48 65  1  0  0  0
 48117  1  0  0  0
 49 50  1  0  0  0
 49 53  1  0  0  0
 49 64  1  0  0  0
 49118  1  0  0  0
 50 51  1  0  0  0
 50119  1  0  0  0
 50120  1  0  0  0
 51 52  1  0  0  0
 51121  1  0  0  0
 51122  1  0  0  0
 52123  1  0  0  0
 52124  1  0  0  0
 53 54  1  0  0  0
 54 55  2  0  0  0
 54125  1  0  0  0
 55 57  1  0  0  0
 55126  1  0  0  0
 56 69  2  0  0  0
 57 58  2  0  0  0
 57127  1  0  0  0
 58128  1  0  0  0
 59 60  1  0  0  0
 59 61  1  0  0  0
 59 62  1  0  0  0
 60129  1  0  0  0
 60130  1  0  0  0
 60131  1  0  0  0
 61132  1  0  0  0
 61133  1  0  0  0
 61134  1  0  0  0
 62135  1  0  0  0
 62136  1  0  0  0
 62137  1  0  0  0
 63 65  1  0  0  0
 63138  1  0  0  0
 63139  1  0  0  0
 63140  1  0  0  0
 64141  1  0  0  0
 65142  1  0  0  0
 68 77  1  0  0  0
 71 72  2  0  0  0
 71 79  1  0  0  0
 71143  1  0  0  0
 72 76  1  0  0  0
 72 83  1  0  0  0
 73 79  2  0  0  0
 73 80  1  0  0  0
 73 83  1  0  0  0
 74 77  1  0  0  0
 74 78  1  0  0  0
 74 82  2  0  0  0
 75144  1  0  0  0
 75145  1  0  0  0
 75146  1  0  0  0
 75 78  1  0  0  0
 76 81  1  0  0  0
 76147  1  0  0  0
 76148  1  0  0  0
 77149  1  0  0  0
 77150  1  0  0  0
 78 80  1  0  0  0
 78151  1  0  0  0
 80152  1  0  0  0
 81153  1  0  0  0
M  ISO  4   1 100  68 101  77 101  81 100
M  END
> <chiral flag>
0

> <version>
0

> <s_m_source_file>
/data/baiqing/PycharmProjects/Reinvent-master-3.2/result/LINK_invent/BTK/process_docking_weight1_custom_product_contain_oxygen_bond_distance_aromatic_linkinvent_7_9_3/rearranged_h_0186.sdf

> <i_m_source_file_index>
49

> <r_mmod_Potential_Energy-OPLS-2005>
-146.560302734375

> <r_mmod_Stretch_Energy-OPLS-2005>
37.6100120544434

> <r_mmod_Bend_Energy-OPLS-2005>
93.3895797729492

> <r_mmod_Torsional_Energy-OPLS-2005>
219.743377685547

> <r_mmod_Improper_Torsional_Energy-OPLS-2005>
3.39511704444885

> <r_mmod_Van_der_Waal_Energy-OPLS-2005>
125.22777557373

> <r_mmod_Electrostatic_Energy-OPLS-2005>
-401.58984375

> <r_mmod_Solvation_Energy-OPLS-2005>
-238.116821289062

> <b_mmod_Minimization_Converged-OPLS-2005>
0

> <r_mmod_RMS_Derivative-OPLS-2005>
2.63423871994019

$$$$
50
                    3D
 Structure written by MMmdl.
162170  0  0  1  0            999 V2000
  -30.5838  -14.7716   20.4468 C   0  0  0  0  0  0
  -30.4426  -12.4762   19.4497 C   0  0  0  0  0  0
  -29.5026  -12.4890   18.2238 C   0  0  0  0  0  0
  -28.0345  -12.2987   18.6579 C   0  0  0  0  0  0
  -27.6358  -13.2194   19.8416 C   0  0  2  0  0  0
  -28.6886  -13.1732   20.9682 C   0  0  0  0  0  0
  -25.2497  -13.8170   20.5690 C   0  0  0  0  0  0
  -24.1785  -13.0423   20.9209 C   0  0  0  0  0  0
  -24.6359  -11.6902   20.8756 C   0  0  0  0  0  0
  -23.9035  -10.4281   21.0416 C   0  0  0  0  0  0
  -24.3596   -9.4202   21.9193 C   0  0  0  0  0  0
  -23.6277   -8.2238   22.0760 C   0  0  0  0  0  0
  -22.4265   -8.0272   21.3550 C   0  0  0  0  0  0
  -21.9891   -9.0242   20.4653 C   0  0  0  0  0  0
  -22.7209  -10.2121   20.3064 C   0  0  0  0  0  0
  -21.6854   -6.0721   22.5276 C   0  0  0  0  0  0
  -21.4012   -6.5626   23.8205 C   0  0  0  0  0  0
  -21.3661   -5.6783   24.9168 C   0  0  0  0  0  0
  -21.6044   -4.3047   24.7227 C   0  0  0  0  0  0
  -21.8822   -3.8131   23.4352 C   0  0  0  0  0  0
  -21.9190   -4.6946   22.3402 C   0  0  0  0  0  0
  -22.7811  -13.5217   21.1876 C   0  0  0  0  0  0
  -22.1659   -4.2133   21.0984 F   0  0  0  0  0  0
  -21.5634   -3.4531   25.7741 F   0  0  0  0  0  0
  -29.9757  -13.5396   20.3643 N   0  0  0  0  0  0
  -26.2910  -12.9344   20.3283 N   0  0  0  0  0  0
  -25.9291  -11.6504   20.5783 N   0  0  0  0  0  0
  -22.0459  -12.8216   22.0434 N   0  0  0  0  0  0
  -25.4151  -15.1896   20.4062 N   0  0  0  0  0  0
  -31.8014  -14.8683   20.2625 O   0  0  0  0  0  0
  -21.6638   -6.8866   21.4241 O   0  0  0  0  0  0
  -22.3494  -14.5531   20.6725 O   0  0  0  0  0  0
  -24.6304  -31.8537   23.1976 C   0  0  0  0  0  0
  -25.9112  -32.4749   23.8322 C   0  0  1  0  0  0
  -27.2156  -27.2367   20.1283 C   0  0  0  0  0  0
  -25.5910  -33.8556   24.2229 N   0  0  0  0  0  0
  -23.4299  -30.4783   21.5400 C   0  0  2  0  0  0
  -24.8791  -28.9247   20.1128 C   0  0  0  0  0  0
  -22.7510  -29.4574   22.4871 C   0  0  0  0  0  0
  -18.0306  -28.1373   22.8461 C   0  0  0  0  0  0
  -24.1476  -36.7222   23.2662 C   0  0  0  0  0  0
  -25.9827  -30.7576   21.3873 C   0  0  0  0  0  0
  -26.0544  -29.3818   20.7210 C   0  0  0  0  0  0
  -27.2267  -28.5527   20.7133 C   0  0  0  0  0  0
  -26.0112  -26.8554   19.4964 C   0  0  0  0  0  0
  -24.8643  -27.6703   19.4890 C   0  0  0  0  0  0
  -23.6528  -29.8166   20.1563 C   0  0  0  0  0  0
  -25.4113  -36.3049   24.0338 C   0  0  1  0  0  0
  -20.5908  -28.3679   23.1245 C   0  0  2  0  0  0
  -20.6797  -26.9394   22.5400 C   0  0  0  0  0  0
  -19.5774  -26.6350   21.5199 C   0  0  0  0  0  0
  -18.1946  -26.7907   22.1610 C   0  0  0  0  0  0
  -19.1559  -28.8839   23.2854 C   0  0  0  0  0  0
  -18.9506  -30.1442   23.8873 C   0  0  0  0  0  0
  -17.6514  -30.6592   24.0536 C   0  0  0  0  0  0
  -25.9061  -34.9434   23.5082 C   0  0  0  0  0  0
  -16.5392  -29.9080   23.6350 C   0  0  0  0  0  0
  -16.7296  -28.6494   23.0363 C   0  0  0  0  0  0
  -26.4490  -31.6620   25.0737 C   0  0  0  0  0  0
  -25.3689  -31.3801   26.1442 C   0  0  0  0  0  0
  -27.0412  -30.3060   24.6274 C   0  0  0  0  0  0
  -27.6026  -32.4410   25.7493 C   0  0  0  0  0  0
  -27.5557  -37.1767   24.8480 C   0  0  0  0  0  0
  -21.4222  -29.3022   22.3624 N   0  0  0  0  0  0
  -26.4267  -37.3758   23.9437 N   0  0  0  0  0  0
  -24.6996  -31.0473   22.0968 N   0  0  0  0  0  0
  -23.4208  -28.8097   23.2958 O   0  0  0  0  0  0
  -28.3060  -26.3259   20.1668 O   0  0  0  0  0  0
  -26.5648  -34.8912   22.4664 O   0  0  0  0  0  0
  -23.5451  -32.1372   23.7249 O   0  0  0  0  0  0
  -29.9999  -19.3737   22.2351 C   0  0  0  0  0  0
  -29.6551  -19.6675   20.9168 C   0  0  0  0  0  0
  -29.9173  -17.2805   20.8188 C   0  0  0  0  0  0
  -28.7742  -22.1503   20.5895 C   0  0  0  0  0  0
  -28.9483  -20.9110   23.9915 C   0  0  0  0  0  0
  -31.4073  -21.2097   23.2980 C   0  0  0  0  0  0
  -29.9413  -23.7193   18.9065 C   0  0  0  0  0  0
  -30.1946  -24.1239   21.3657 C   0  0  0  0  0  0
  -28.0347  -24.8311   20.2338 C   0  0  0  0  0  0
  -30.2213  -20.2514   23.4399 C   0  0  0  0  0  0
  -29.2086  -23.6888   20.2653 C   0  0  0  0  0  0
  -29.5952  -18.4393   20.1411 N   0  0  0  0  0  0
  -29.6267  -21.0657   20.3874 N   0  0  0  0  0  0
  -29.7630  -15.8886   20.3452 N   0  0  0  0  0  0
  -27.6273  -21.9571   20.9978 O   0  0  0  0  0  0
  -30.2989  -17.6472   22.4879 S   0  0  0  0  0  0
  -31.4744  -12.6346   19.1310 H   0  0  0  0  0  0
  -30.4233  -11.5061   19.9493 H   0  0  0  0  0  0
  -29.7882  -11.7031   17.5230 H   0  0  0  0  0  0
  -29.6067  -13.4329   17.6853 H   0  0  0  0  0  0
  -27.9166  -11.2550   18.9534 H   0  0  0  0  0  0
  -27.3615  -12.4523   17.8135 H   0  0  0  0  0  0
  -27.6203  -14.2319   19.4396 H   0  0  0  0  0  0
  -28.7421  -12.1792   21.4155 H   0  0  0  0  0  0
  -28.4255  -13.8609   21.7742 H   0  0  0  0  0  0
  -25.2739   -9.5685   22.4766 H   0  0  0  0  0  0
  -23.9984   -7.4634   22.7483 H   0  0  0  0  0  0
  -21.0822   -8.8756   19.8959 H   0  0  0  0  0  0
  -22.3667  -10.9661   19.6177 H   0  0  0  0  0  0
  -21.2005   -7.6136   23.9709 H   0  0  0  0  0  0
  -21.1481   -6.0511   25.9073 H   0  0  0  0  0  0
  -22.0601   -2.7593   23.2855 H   0  0  0  0  0  0
  -22.4065  -11.9860   22.4796 H   0  0  0  0  0  0
  -21.1094  -13.1274   22.2697 H   0  0  0  0  0  0
  -24.6335  -15.8303   20.4988 H   0  0  0  0  0  0
  -26.2533  -15.6414   20.0675 H   0  0  0  0  0  0
  -26.7167  -32.5390   23.1045 H   0  0  0  0  0  0
  -25.0060  -33.9699   25.0379 H   0  0  0  0  0  0
  -22.7276  -31.3022   21.3932 H   0  0  0  0  0  0
  -23.3774  -35.9517   23.3336 H   0  0  0  0  0  0
  -24.3556  -36.8820   22.2070 H   0  0  0  0  0  0
  -23.7174  -37.6401   23.6680 H   0  0  0  0  0  0
  -26.1417  -31.5284   20.6319 H   0  0  0  0  0  0
  -26.8504  -30.7904   22.0347 H   0  0  0  0  0  0
  -28.1270  -28.8971   21.2023 H   0  0  0  0  0  0
  -25.9161  -25.9045   18.9963 H   0  0  0  0  0  0
  -23.9640  -27.3165   19.0048 H   0  0  0  0  0  0
  -23.7847  -30.5949   19.4035 H   0  0  0  0  0  0
  -22.7706  -29.2552   19.8437 H   0  0  0  0  0  0
  -25.1303  -36.1886   25.0828 H   0  0  0  0  0  0
  -20.9999  -28.3259   24.1368 H   0  0  0  0  0  0
  -20.5681  -26.2289   23.3611 H   0  0  0  0  0  0
  -21.6667  -26.7395   22.1206 H   0  0  0  0  0  0
  -19.6938  -25.6246   21.1252 H   0  0  0  0  0  0
  -19.6725  -27.3140   20.6711 H   0  0  0  0  0  0
  -17.4218  -26.6648   21.4014 H   0  0  0  0  0  0
  -18.0361  -26.0043   22.9008 H   0  0  0  0  0  0
  -19.7998  -30.7236   24.2222 H   0  0  0  0  0  0
  -17.5102  -31.6284   24.5120 H   0  0  0  0  0  0
  -15.5403  -30.3003   23.7688 H   0  0  0  0  0  0
  -15.8685  -28.0810   22.7115 H   0  0  0  0  0  0
  -24.5826  -30.7213   25.7739 H   0  0  0  0  0  0
  -24.8934  -32.3005   26.4868 H   0  0  0  0  0  0
  -25.7955  -30.8946   27.0227 H   0  0  0  0  0  0
  -26.3058  -29.6761   24.1260 H   0  0  0  0  0  0
  -27.4091  -29.7372   25.4816 H   0  0  0  0  0  0
  -27.8908  -30.4391   23.9570 H   0  0  0  0  0  0
  -27.2620  -33.3735   26.2012 H   0  0  0  0  0  0
  -28.3838  -32.6939   25.0312 H   0  0  0  0  0  0
  -28.0688  -31.8587   26.5451 H   0  0  0  0  0  0
  -28.2580  -38.0058   24.7549 H   0  0  0  0  0  0
  -28.1047  -36.2592   24.6300 H   0  0  0  0  0  0
  -27.2284  -37.1397   25.8885 H   0  0  0  0  0  0
  -20.9405  -29.8730   21.6819 H   0  0  0  0  0  0
  -26.0140  -38.2818   24.1511 H   0  0  0  0  0  0
  -28.1791  -20.1654   24.1956 H   0  0  0  0  0  0
  -28.5263  -21.6461   23.3152 H   0  0  0  0  0  0
  -29.1532  -21.4323   24.9270 H   0  0  0  0  0  0
  -32.3335  -20.6674   23.1059 H   0  0  0  0  0  0
  -31.5513  -21.7992   24.2044 H   0  0  0  0  0  0
  -31.2623  -21.8981   22.4760 H   0  0  0  0  0  0
  -30.8422  -23.1047   18.9112 H   0  0  0  0  0  0
  -30.2499  -24.7330   18.6495 H   0  0  0  0  0  0
  -29.3065  -23.3607   18.0960 H   0  0  0  0  0  0
  -31.1710  -23.6569   21.2377 H   0  0  0  0  0  0
  -29.8266  -23.8730   22.3613 H   0  0  0  0  0  0
  -30.3699  -25.2000   21.3472 H   0  0  0  0  0  0
  -27.4093  -24.6811   21.1142 H   0  0  0  0  0  0
  -27.4100  -24.5524   19.3876 H   0  0  0  0  0  0
  -30.5244  -19.5875   24.2502 H   0  0  0  0  0  0
  -30.4590  -21.3102   19.8704 H   0  0  0  0  0  0
  -28.8220  -15.6647   20.0704 H   0  0  0  0  0  0
  1 25  1  0  0  0
  1 30  2  0  0  0
  1 84  1  0  0  0
  2  3  1  0  0  0
  2 25  1  0  0  0
  2 87  1  0  0  0
  2 88  1  0  0  0
  3  4  1  0  0  0
  3 89  1  0  0  0
  3 90  1  0  0  0
  4  5  1  0  0  0
  4 91  1  0  0  0
  4 92  1  0  0  0
  5  6  1  0  0  0
  5 26  1  0  0  0
  5 93  1  0  0  0
  6 25  1  0  0  0
  6 94  1  0  0  0
  6 95  1  0  0  0
  7  8  2  0  0  0
  7 26  1  0  0  0
  7 29  1  0  0  0
  8  9  1  0  0  0
  8 22  1  0  0  0
  9 10  1  0  0  0
  9 27  2  0  0  0
 10 11  2  0  0  0
 10 15  1  0  0  0
 11 12  1  0  0  0
 11 96  1  0  0  0
 12 13  2  0  0  0
 12 97  1  0  0  0
 13 14  1  0  0  0
 13 31  1  0  0  0
 14 15  2  0  0  0
 14 98  1  0  0  0
 15 99  1  0  0  0
 16 17  2  0  0  0
 16 21  1  0  0  0
 16 31  1  0  0  0
 17 18  1  0  0  0
 17100  1  0  0  0
 18 19  2  0  0  0
 18101  1  0  0  0
 19 20  1  0  0  0
 19 24  1  0  0  0
 20 21  2  0  0  0
 20102  1  0  0  0
 21 23  1  0  0  0
 22 28  1  0  0  0
 22 32  2  0  0  0
 26 27  1  0  0  0
 28103  1  0  0  0
 28104  1  0  0  0
 29105  1  0  0  0
 29106  1  0  0  0
 33 34  1  0  0  0
 33 66  1  0  0  0
 33 70  2  0  0  0
 34 36  1  0  0  0
 34 59  1  0  0  0
 34107  1  0  0  0
 35 44  2  0  0  0
 35 45  1  0  0  0
 35 68  1  0  0  0
 36 56  1  0  0  0
 36108  1  0  0  0
 37 39  1  0  0  0
 37 47  1  0  0  0
 37 66  1  0  0  0
 37109  1  0  0  0
 38 43  2  0  0  0
 38 46  1  0  0  0
 38 47  1  0  0  0
 39 64  1  0  0  0
 39 67  2  0  0  0
 40 52  1  0  0  0
 40 53  2  0  0  0
 40 58  1  0  0  0
 41110  1  0  0  0
 41111  1  0  0  0
 41112  1  0  0  0
 41 48  1  0  0  0
 42 43  1  0  0  0
 42 66  1  0  0  0
 42113  1  0  0  0
 42114  1  0  0  0
 43 44  1  0  0  0
 44115  1  0  0  0
 45 46  2  0  0  0
 45116  1  0  0  0
 46117  1  0  0  0
 47118  1  0  0  0
 47119  1  0  0  0
 48 56  1  0  0  0
 48 65  1  0  0  0
 48120  1  0  0  0
 49 50  1  0  0  0
 49 53  1  0  0  0
 49 64  1  0  0  0
 49121  1  0  0  0
 50 51  1  0  0  0
 50122  1  0  0  0
 50123  1  0  0  0
 51 52  1  0  0  0
 51124  1  0  0  0
 51125  1  0  0  0
 52126  1  0  0  0
 52127  1  0  0  0
 53 54  1  0  0  0
 54 55  2  0  0  0
 54128  1  0  0  0
 55 57  1  0  0  0
 55129  1  0  0  0
 56 69  2  0  0  0
 57 58  2  0  0  0
 57130  1  0  0  0
 58131  1  0  0  0
 59 60  1  0  0  0
 59 61  1  0  0  0
 59 62  1  0  0  0
 60132  1  0  0  0
 60133  1  0  0  0
 60134  1  0  0  0
 61135  1  0  0  0
 61136  1  0  0  0
 61137  1  0  0  0
 62138  1  0  0  0
 62139  1  0  0  0
 62140  1  0  0  0
 63 65  1  0  0  0
 63141  1  0  0  0
 63142  1  0  0  0
 63143  1  0  0  0
 64144  1  0  0  0
 65145  1  0  0  0
 68 79  1  0  0  0
 71 72  2  0  0  0
 71 80  1  0  0  0
 71 86  1  0  0  0
 72 82  1  0  0  0
 72 83  1  0  0  0
 73 82  2  0  0  0
 73 84  1  0  0  0
 73 86  1  0  0  0
 74 81  1  0  0  0
 74 83  1  0  0  0
 74 85  2  0  0  0
 75146  1  0  0  0
 75147  1  0  0  0
 75148  1  0  0  0
 75 80  1  0  0  0
 76 80  1  0  0  0
 76149  1  0  0  0
 76150  1  0  0  0
 76151  1  0  0  0
 77152  1  0  0  0
 77153  1  0  0  0
 77154  1  0  0  0
 77 81  1  0  0  0
 78 81  1  0  0  0
 78155  1  0  0  0
 78156  1  0  0  0
 78157  1  0  0  0
 79 81  1  0  0  0
 79158  1  0  0  0
 79159  1  0  0  0
 80160  1  0  0  0
 83161  1  0  0  0
 84162  1  0  0  0
M  ISO  4   1 100  68 101  79 101  84 100
M  END
> <chiral flag>
0

> <version>
0

> <s_m_source_file>
/data/baiqing/PycharmProjects/Reinvent-master-3.2/result/LINK_invent/BTK/process_docking_weight1_custom_product_contain_oxygen_bond_distance_aromatic_linkinvent_7_9_3/rearranged_h_0186.sdf

> <i_m_source_file_index>
50

> <r_mmod_Potential_Energy-OPLS-2005>
165.104263305664

> <r_mmod_Stretch_Energy-OPLS-2005>
138.145263671875

> <r_mmod_Bend_Energy-OPLS-2005>
183.413650512695

> <r_mmod_Torsional_Energy-OPLS-2005>
290.332824707031

> <r_mmod_Improper_Torsional_Energy-OPLS-2005>
13.8713293075562

> <r_mmod_Van_der_Waal_Energy-OPLS-2005>
111.495094299316

> <r_mmod_Electrostatic_Energy-OPLS-2005>
-449.325927734375

> <r_mmod_Solvation_Energy-OPLS-2005>
-226.700378417969

> <b_mmod_Minimization_Converged-OPLS-2005>
0

> <r_mmod_RMS_Derivative-OPLS-2005>
2.50878095626831

$$$$
51
                    3D
 Structure written by MMmdl.
157165  0  0  1  0            999 V2000
  -30.6700  -14.4879   20.5198 C   0  0  0  0  0  0
  -30.4111  -12.2967   19.4353 C   0  0  0  0  0  0
  -29.4949  -12.5151   18.2123 C   0  0  0  0  0  0
  -28.0125  -12.3810   18.6161 C   0  0  0  0  0  0
  -27.6560  -13.2119   19.8784 C   0  0  2  0  0  0
  -28.6975  -12.9877   21.0005 C   0  0  0  0  0  0
  -25.2579  -13.8174   20.5792 C   0  0  0  0  0  0
  -24.1815  -13.0416   20.9181 C   0  0  0  0  0  0
  -24.6368  -11.6893   20.8707 C   0  0  0  0  0  0
  -23.9040  -10.4272   21.0386 C   0  0  0  0  0  0
  -24.3587   -9.4201   21.9177 C   0  0  0  0  0  0
  -23.6272   -8.2223   22.0742 C   0  0  0  0  0  0
  -22.4256   -8.0250   21.3542 C   0  0  0  0  0  0
  -21.9866   -9.0219   20.4648 C   0  0  0  0  0  0
  -22.7193  -10.2112   20.3073 C   0  0  0  0  0  0
  -21.6839   -6.0716   22.5295 C   0  0  0  0  0  0
  -21.3985   -6.5614   23.8227 C   0  0  0  0  0  0
  -21.3679   -5.6773   24.9189 C   0  0  0  0  0  0
  -21.6067   -4.3037   24.7234 C   0  0  0  0  0  0
  -21.8816   -3.8126   23.4350 C   0  0  0  0  0  0
  -21.9188   -4.6947   22.3416 C   0  0  0  0  0  0
  -22.7851  -13.5212   21.1881 C   0  0  0  0  0  0
  -22.1668   -4.2136   21.0988 F   0  0  0  0  0  0
  -21.5656   -3.4532   25.7746 F   0  0  0  0  0  0
  -30.0272  -13.2907   20.4496 N   0  0  0  0  0  0
  -26.2994  -12.9347   20.3400 N   0  0  0  0  0  0
  -25.9292  -11.6501   20.5718 N   0  0  0  0  0  0
  -22.0502  -12.8187   22.0444 N   0  0  0  0  0  0
  -25.4370  -15.1897   20.4389 N   0  0  0  0  0  0
  -31.8261  -14.6433   20.1122 O   0  0  0  0  0  0
  -21.6622   -6.8852   21.4252 O   0  0  0  0  0  0
  -22.3560  -14.5528   20.6766 O   0  0  0  0  0  0
  -24.6186  -31.8693   23.2108 C   0  0  0  0  0  0
  -25.9055  -32.4833   23.8403 C   0  0  1  0  0  0
  -27.2164  -27.4077   20.0865 C   0  0  0  0  0  0
  -25.5883  -33.8624   24.2327 N   0  0  0  0  0  0
  -23.4106  -30.4938   21.5524 C   0  0  2  0  0  0
  -24.8539  -28.9679   20.1059 C   0  0  0  0  0  0
  -22.7447  -29.4657   22.4969 C   0  0  0  0  0  0
  -18.0291  -28.1387   22.8473 C   0  0  0  0  0  0
  -24.1484  -36.7316   23.2647 C   0  0  0  0  0  0
  -25.9470  -30.8176   21.3791 C   0  0  0  0  0  0
  -26.0183  -29.4579   20.7108 C   0  0  0  0  0  0
  -27.2073  -28.6871   20.6942 C   0  0  0  0  0  0
  -26.0433  -26.9606   19.4368 C   0  0  0  0  0  0
  -24.8611  -27.7206   19.4608 C   0  0  0  0  0  0
  -23.6186  -29.8384   20.1621 C   0  0  0  0  0  0
  -25.4102  -36.3111   24.0357 C   0  0  1  0  0  0
  -20.5883  -28.3670   23.1298 C   0  0  2  0  0  0
  -20.6780  -26.9407   22.5399 C   0  0  0  0  0  0
  -19.5754  -26.6385   21.5201 C   0  0  0  0  0  0
  -18.1938  -26.7931   22.1613 C   0  0  0  0  0  0
  -19.1552  -28.8852   23.2881 C   0  0  0  0  0  0
  -18.9469  -30.1458   23.8905 C   0  0  0  0  0  0
  -17.6476  -30.6595   24.0553 C   0  0  0  0  0  0
  -25.9037  -34.9483   23.5137 C   0  0  0  0  0  0
  -16.5364  -29.9094   23.6315 C   0  0  0  0  0  0
  -16.7296  -28.6513   23.0331 C   0  0  0  0  0  0
  -26.4416  -31.6645   25.0773 C   0  0  0  0  0  0
  -25.3644  -31.3853   26.1515 C   0  0  0  0  0  0
  -27.0228  -30.3057   24.6226 C   0  0  0  0  0  0
  -27.5976  -32.4398   25.7513 C   0  0  0  0  0  0
  -27.5599  -37.1804   24.8456 C   0  0  0  0  0  0
  -21.4185  -29.3028   22.3705 N   0  0  0  0  0  0
  -26.4288  -37.3795   23.9426 N   0  0  0  0  0  0
  -24.6774  -31.0734   22.1049 N   0  0  0  0  0  0
  -23.4208  -28.8177   23.3008 O   0  0  0  0  0  0
  -28.3263  -26.5816   20.1501 O   0  0  0  0  0  0
  -26.5589  -34.8937   22.4708 O   0  0  0  0  0  0
  -23.5356  -32.1460   23.7459 O   0  0  0  0  0  0
  -29.9218  -18.7473   18.6987 C   0  0  0  0  0  0
  -29.3661  -19.0170   19.9430 C   0  0  0  0  0  0
  -29.9056  -16.8092   20.2485 C   0  0  0  0  0  0
  -30.0357  -19.5103   17.4582 C   0  0  0  0  0  0
  -29.2871  -21.5151   20.1552 C   0  0  0  0  0  0
  -28.2043  -25.4393   22.2917 C   0  0  0  0  0  0
  -28.9094  -24.1135   20.2094 C   0  0  0  0  0  0
  -28.3580  -22.6857   20.5625 C   0  0  1  0  0  0
  -28.0585  -25.2921   20.7677 C   0  0  2  0  0  0
  -29.3013  -17.8834   20.7877 N   0  0  0  0  0  0
  -29.2631  -20.4324   17.0572 N   0  0  0  0  0  0
  -28.8004  -20.2669   20.3418 N   0  0  0  0  0  0
  -29.9112  -15.5387   20.9009 N   0  0  0  0  0  0
  -30.4122  -21.7440   19.6985 O   0  0  0  0  0  0
  -27.0810  -22.4785   19.9666 O   0  0  0  0  0  0
  -30.5480  -17.1183   18.6352 S   0  0  0  0  0  0
  -31.4630  -12.3639   19.1548 H   0  0  0  0  0  0
  -30.2741  -11.2890   19.8320 H   0  0  0  0  0  0
  -29.7330  -11.7982   17.4261 H   0  0  0  0  0  0
  -29.6794  -13.5057   17.7913 H   0  0  0  0  0  0
  -27.8084  -11.3240   18.7911 H   0  0  0  0  0  0
  -27.3716  -12.6785   17.7876 H   0  0  0  0  0  0
  -27.6938  -14.2624   19.5862 H   0  0  0  0  0  0
  -28.6709  -11.9481   21.3337 H   0  0  0  0  0  0
  -28.4647  -13.5825   21.8869 H   0  0  0  0  0  0
  -25.2741   -9.5663   22.4734 H   0  0  0  0  0  0
  -24.0008   -7.4591   22.7432 H   0  0  0  0  0  0
  -21.0812   -8.8699   19.8931 H   0  0  0  0  0  0
  -22.3639  -10.9628   19.6158 H   0  0  0  0  0  0
  -21.1941   -7.6117   23.9711 H   0  0  0  0  0  0
  -21.1538   -6.0519   25.9101 H   0  0  0  0  0  0
  -22.0588   -2.7586   23.2868 H   0  0  0  0  0  0
  -22.4108  -11.9824   22.4789 H   0  0  0  0  0  0
  -21.1145  -13.1256   22.2697 H   0  0  0  0  0  0
  -24.6845  -15.8532   20.5951 H   0  0  0  0  0  0
  -26.3146  -15.6375   20.2057 H   0  0  0  0  0  0
  -26.7124  -32.5496   23.1163 H   0  0  0  0  0  0
  -24.9979  -33.9765   25.0428 H   0  0  0  0  0  0
  -22.7025  -31.3144   21.4187 H   0  0  0  0  0  0
  -23.3748  -35.9633   23.3268 H   0  0  0  0  0  0
  -24.3609  -36.8971   22.2068 H   0  0  0  0  0  0
  -23.7197  -37.6503   23.6681 H   0  0  0  0  0  0
  -26.0874  -31.5896   20.6208 H   0  0  0  0  0  0
  -26.8256  -30.8494   22.0125 H   0  0  0  0  0  0
  -28.1041  -29.0484   21.1757 H   0  0  0  0  0  0
  -26.0218  -26.0098   18.9220 H   0  0  0  0  0  0
  -23.9700  -27.3465   18.9752 H   0  0  0  0  0  0
  -23.7346  -30.6227   19.4118 H   0  0  0  0  0  0
  -22.7361  -29.2694   19.8613 H   0  0  0  0  0  0
  -25.1269  -36.1986   25.0842 H   0  0  0  0  0  0
  -21.0002  -28.3246   24.1410 H   0  0  0  0  0  0
  -20.5690  -26.2301   23.3604 H   0  0  0  0  0  0
  -21.6650  -26.7434   22.1200 H   0  0  0  0  0  0
  -19.6910  -25.6295   21.1257 H   0  0  0  0  0  0
  -19.6701  -27.3192   20.6734 H   0  0  0  0  0  0
  -17.4206  -26.6700   21.4015 H   0  0  0  0  0  0
  -18.0322  -26.0090   22.9024 H   0  0  0  0  0  0
  -19.7953  -30.7267   24.2291 H   0  0  0  0  0  0
  -17.5030  -31.6270   24.5161 H   0  0  0  0  0  0
  -15.5377  -30.2987   23.7638 H   0  0  0  0  0  0
  -15.8699  -28.0841   22.7022 H   0  0  0  0  0  0
  -24.5688  -30.7380   25.7833 H   0  0  0  0  0  0
  -24.8995  -32.3087   26.4987 H   0  0  0  0  0  0
  -25.7901  -30.8929   27.0267 H   0  0  0  0  0  0
  -26.2834  -29.6884   24.1123 H   0  0  0  0  0  0
  -27.3780  -29.7237   25.4735 H   0  0  0  0  0  0
  -27.8760  -30.4334   23.9563 H   0  0  0  0  0  0
  -27.2542  -33.3640   26.2168 H   0  0  0  0  0  0
  -28.3695  -32.7093   25.0300 H   0  0  0  0  0  0
  -28.0755  -31.8524   26.5357 H   0  0  0  0  0  0
  -28.2561  -38.0144   24.7536 H   0  0  0  0  0  0
  -28.1149  -36.2685   24.6218 H   0  0  0  0  0  0
  -27.2360  -37.1382   25.8866 H   0  0  0  0  0  0
  -20.9399  -29.8769   21.6913 H   0  0  0  0  0  0
  -26.0186  -38.2881   24.1411 H   0  0  0  0  0  0
  -30.8796  -19.2298   16.8203 H   0  0  0  0  0  0
  -29.2397  -25.3542   22.6221 H   0  0  0  0  0  0
  -27.6281  -24.6671   22.8022 H   0  0  0  0  0  0
  -27.8221  -26.3975   22.6404 H   0  0  0  0  0  0
  -29.0070  -24.2077   19.1264 H   0  0  0  0  0  0
  -29.9245  -24.2117   20.6017 H   0  0  0  0  0  0
  -28.2381  -22.6122   21.6448 H   0  0  0  0  0  0
  -27.0225  -25.0081   20.5981 H   0  0  0  0  0  0
  -28.5131  -20.6289   17.7108 H   0  0  0  0  0  0
  -27.9416  -20.2253   20.8710 H   0  0  0  0  0  0
  -29.0864  -15.3228   21.4374 H   0  0  0  0  0  0
  -26.4640  -23.0838   20.3662 H   0  0  0  0  0  0
  1 25  1  0  0  0
  1 30  2  0  0  0
  1 83  1  0  0  0
  2  3  1  0  0  0
  2 25  1  0  0  0
  2 87  1  0  0  0
  2 88  1  0  0  0
  3  4  1  0  0  0
  3 89  1  0  0  0
  3 90  1  0  0  0
  4  5  1  0  0  0
  4 91  1  0  0  0
  4 92  1  0  0  0
  5  6  1  0  0  0
  5 26  1  0  0  0
  5 93  1  0  0  0
  6 25  1  0  0  0
  6 94  1  0  0  0
  6 95  1  0  0  0
  7  8  2  0  0  0
  7 26  1  0  0  0
  7 29  1  0  0  0
  8  9  1  0  0  0
  8 22  1  0  0  0
  9 10  1  0  0  0
  9 27  2  0  0  0
 10 11  2  0  0  0
 10 15  1  0  0  0
 11 12  1  0  0  0
 11 96  1  0  0  0
 12 13  2  0  0  0
 12 97  1  0  0  0
 13 14  1  0  0  0
 13 31  1  0  0  0
 14 15  2  0  0  0
 14 98  1  0  0  0
 15 99  1  0  0  0
 16 17  2  0  0  0
 16 21  1  0  0  0
 16 31  1  0  0  0
 17 18  1  0  0  0
 17100  1  0  0  0
 18 19  2  0  0  0
 18101  1  0  0  0
 19 20  1  0  0  0
 19 24  1  0  0  0
 20 21  2  0  0  0
 20102  1  0  0  0
 21 23  1  0  0  0
 22 28  1  0  0  0
 22 32  2  0  0  0
 26 27  1  0  0  0
 28103  1  0  0  0
 28104  1  0  0  0
 29105  1  0  0  0
 29106  1  0  0  0
 33 34  1  0  0  0
 33 66  1  0  0  0
 33 70  2  0  0  0
 34 36  1  0  0  0
 34 59  1  0  0  0
 34107  1  0  0  0
 35 44  2  0  0  0
 35 45  1  0  0  0
 35 68  1  0  0  0
 36 56  1  0  0  0
 36108  1  0  0  0
 37 39  1  0  0  0
 37 47  1  0  0  0
 37 66  1  0  0  0
 37109  1  0  0  0
 38 43  2  0  0  0
 38 46  1  0  0  0
 38 47  1  0  0  0
 39 64  1  0  0  0
 39 67  2  0  0  0
 40 52  1  0  0  0
 40 53  2  0  0  0
 40 58  1  0  0  0
 41110  1  0  0  0
 41111  1  0  0  0
 41112  1  0  0  0
 41 48  1  0  0  0
 42 43  1  0  0  0
 42 66  1  0  0  0
 42113  1  0  0  0
 42114  1  0  0  0
 43 44  1  0  0  0
 44115  1  0  0  0
 45 46  2  0  0  0
 45116  1  0  0  0
 46117  1  0  0  0
 47118  1  0  0  0
 47119  1  0  0  0
 48 56  1  0  0  0
 48 65  1  0  0  0
 48120  1  0  0  0
 49 50  1  0  0  0
 49 53  1  0  0  0
 49 64  1  0  0  0
 49121  1  0  0  0
 50 51  1  0  0  0
 50122  1  0  0  0
 50123  1  0  0  0
 51 52  1  0  0  0
 51124  1  0  0  0
 51125  1  0  0  0
 52126  1  0  0  0
 52127  1  0  0  0
 53 54  1  0  0  0
 54 55  2  0  0  0
 54128  1  0  0  0
 55 57  1  0  0  0
 55129  1  0  0  0
 56 69  2  0  0  0
 57 58  2  0  0  0
 57130  1  0  0  0
 58131  1  0  0  0
 59 60  1  0  0  0
 59 61  1  0  0  0
 59 62  1  0  0  0
 60132  1  0  0  0
 60133  1  0  0  0
 60134  1  0  0  0
 61135  1  0  0  0
 61136  1  0  0  0
 61137  1  0  0  0
 62138  1  0  0  0
 62139  1  0  0  0
 62140  1  0  0  0
 63 65  1  0  0  0
 63141  1  0  0  0
 63142  1  0  0  0
 63143  1  0  0  0
 64144  1  0  0  0
 65145  1  0  0  0
 68 79  1  0  0  0
 71 72  2  0  0  0
 71 74  1  0  0  0
 71 86  1  0  0  0
 72 80  1  0  0  0
 72 82  1  0  0  0
 73 80  2  0  0  0
 73 83  1  0  0  0
 73 86  1  0  0  0
 74 81  2  0  0  0
 74146  1  0  0  0
 75 78  1  0  0  0
 75 82  1  0  0  0
 75 84  2  0  0  0
 76147  1  0  0  0
 76148  1  0  0  0
 76149  1  0  0  0
 76 79  1  0  0  0
 77 78  1  0  0  0
 77 79  1  0  0  0
 77150  1  0  0  0
 77151  1  0  0  0
 78 85  1  0  0  0
 78152  1  0  0  0
 79153  1  0  0  0
 81154  1  0  0  0
 82155  1  0  0  0
 83156  1  0  0  0
 85157  1  0  0  0
M  ISO  4   1 100  68 101  79 101  83 100
M  END
> <chiral flag>
0

> <version>
0

> <s_m_source_file>
/data/baiqing/PycharmProjects/Reinvent-master-3.2/result/LINK_invent/BTK/process_docking_weight1_custom_product_contain_oxygen_bond_distance_aromatic_linkinvent_7_9_3/rearranged_h_0186.sdf

> <i_m_source_file_index>
51

> <r_mmod_Potential_Energy-OPLS-2005>
-122.022689819336

> <r_mmod_Stretch_Energy-OPLS-2005>
42.3864364624023

> <r_mmod_Bend_Energy-OPLS-2005>
102.740692138672

> <r_mmod_Torsional_Energy-OPLS-2005>
274.979339599609

> <r_mmod_Improper_Torsional_Energy-OPLS-2005>
5.76226997375488

> <r_mmod_Van_der_Waal_Energy-OPLS-2005>
136.442901611328

> <r_mmod_Electrostatic_Energy-OPLS-2005>
-446.533599853516

> <r_mmod_Solvation_Energy-OPLS-2005>
-259.699188232422

> <b_mmod_Minimization_Converged-OPLS-2005>
0

> <r_mmod_RMS_Derivative-OPLS-2005>
5.12878894805908

$$$$
52
                    3D
 Structure written by MMmdl.
142149  0  0  1  0            999 V2000
  -30.1478  -16.0964   20.2742 C   0  0  0  0  0  0
  -30.3768  -13.4236   19.5591 C   0  0  0  0  0  0
  -29.5644  -12.7872   18.3796 C   0  0  0  0  0  0
  -28.1777  -12.3293   18.8407 C   0  0  0  0  0  0
  -27.5805  -13.3635   19.8140 C   0  0  2  0  0  0
  -28.5571  -13.8948   20.9062 C   0  0  0  0  0  0
  -25.2238  -13.8380   20.5876 C   0  0  0  0  0  0
  -24.1677  -13.0452   20.9308 C   0  0  0  0  0  0
  -24.6453  -11.6985   20.8750 C   0  0  0  0  0  0
  -23.9167  -10.4305   21.0369 C   0  0  0  0  0  0
  -24.3684   -9.4218   21.9164 C   0  0  0  0  0  0
  -23.6333   -8.2263   22.0749 C   0  0  0  0  0  0
  -22.4312   -8.0300   21.3542 C   0  0  0  0  0  0
  -21.9964   -9.0277   20.4638 C   0  0  0  0  0  0
  -22.7320  -10.2143   20.3034 C   0  0  0  0  0  0
  -21.6867   -6.0749   22.5278 C   0  0  0  0  0  0
  -21.4028   -6.5648   23.8213 C   0  0  0  0  0  0
  -21.3664   -5.6796   24.9173 C   0  0  0  0  0  0
  -21.6044   -4.3058   24.7221 C   0  0  0  0  0  0
  -21.8817   -3.8152   23.4342 C   0  0  0  0  0  0
  -21.9197   -4.6973   22.3399 C   0  0  0  0  0  0
  -22.7676  -13.5135   21.1929 C   0  0  0  0  0  0
  -22.1662   -4.2158   21.0975 F   0  0  0  0  0  0
  -21.5625   -3.4539   25.7731 F   0  0  0  0  0  0
  -29.6622  -14.6520   20.2296 N   0  0  0  0  0  0
  -26.2750  -12.9816   20.3331 N   0  0  0  0  0  0
  -25.9423  -11.6822   20.5681 N   0  0  0  0  0  0
  -22.0359  -12.8100   22.0483 N   0  0  0  0  0  0
  -25.3777  -15.2134   20.4356 N   0  0  0  0  0  0
  -31.3824  -15.9241   20.1222 O   0  0  0  0  0  0
  -21.6661   -6.8901   21.4245 O   0  0  0  0  0  0
  -22.3334  -14.5430   20.6768 O   0  0  0  0  0  0
  -24.7133  -31.7616   23.1241 C   0  0  0  0  0  0
  -25.9560  -32.4276   23.7910 C   0  0  1  0  0  0
  -27.2423  -26.3803   20.2393 C   0  0  0  0  0  0
  -25.6004  -33.8122   24.1758 N   0  0  0  0  0  0
  -23.5551  -30.3475   21.4847 C   0  0  2  0  0  0
  -25.0176  -28.6214   20.1203 C   0  0  0  0  0  0
  -22.7904  -29.4102   22.4613 C   0  0  0  0  0  0
  -18.0359  -28.1438   22.8438 C   0  0  0  0  0  0
  -24.1499  -36.7078   23.2661 C   0  0  0  0  0  0
  -26.1463  -30.3851   21.4401 C   0  0  0  0  0  0
  -26.2074  -28.9149   20.7944 C   0  0  0  0  0  0
  -27.2831  -27.8301   20.8183 C   0  0  0  0  0  0
  -26.0228  -26.3822   19.4895 C   0  0  0  0  0  0
  -24.9841  -27.3853   19.4430 C   0  0  0  0  0  0
  -23.8272  -29.6148   20.1327 C   0  0  0  0  0  0
  -25.4162  -36.2787   24.0256 C   0  0  1  0  0  0
  -20.6010  -28.3809   23.1085 C   0  0  2  0  0  0
  -20.6808  -26.9438   22.5413 C   0  0  0  0  0  0
  -19.5790  -26.6356   21.5223 C   0  0  0  0  0  0
  -18.1971  -26.7958   22.1614 C   0  0  0  0  0  0
  -19.1633  -28.8955   23.2733 C   0  0  0  0  0  0
  -18.9532  -30.1531   23.8791 C   0  0  0  0  0  0
  -17.6518  -30.6611   24.0543 C   0  0  0  0  0  0
  -25.9158  -34.9184   23.4871 C   0  0  0  0  0  0
  -16.5405  -29.9086   23.6359 C   0  0  0  0  0  0
  -16.7337  -28.6512   23.0370 C   0  0  0  0  0  0
  -26.4636  -31.6457   25.0672 C   0  0  0  0  0  0
  -25.3613  -31.3869   26.1222 C   0  0  0  0  0  0
  -27.0626  -30.2762   24.6816 C   0  0  0  0  0  0
  -27.6022  -32.4403   25.7502 C   0  0  0  0  0  0
  -27.5556  -37.1697   24.8466 C   0  0  0  0  0  0
  -21.4521  -29.2990   22.3365 N   0  0  0  0  0  0
  -26.4264  -37.3582   23.9400 N   0  0  0  0  0  0
  -24.8320  -30.8733   22.0678 N   0  0  0  0  0  0
  -23.4197  -28.7760   23.3110 O   0  0  0  0  0  0
  -28.1594  -25.0178   20.3754 O   0  0  0  0  0  0
  -26.5851  -34.8826   22.4525 O   0  0  0  0  0  0
  -23.6083  -32.0845   23.5985 O   0  0  0  0  0  0
  -29.5131  -19.2802   20.1538 C   0  0  0  0  0  0
  -27.2051  -20.6463   20.9798 C   0  0  0  0  0  0
  -28.3096  -23.1309   19.9814 C   0  0  0  0  0  0
  -28.6077  -21.0705   20.5223 C   0  0  2  0  0  0
  -29.4731  -17.6236   20.3287 N   0  0  0  0  0  0
  -30.5666  -19.5509   19.5779 O   0  0  0  0  0  0
  -31.3403  -13.7287   19.1505 H   0  0  0  0  0  0
  -30.6330  -12.6633   20.2995 H   0  0  0  0  0  0
  -30.1122  -11.9517   17.9416 H   0  0  0  0  0  0
  -29.4529  -13.5298   17.5883 H   0  0  0  0  0  0
  -28.2861  -11.3717   19.3516 H   0  0  0  0  0  0
  -27.5185  -12.1585   17.9885 H   0  0  0  0  0  0
  -27.3826  -14.2207   19.1683 H   0  0  0  0  0  0
  -28.9111  -13.0981   21.5623 H   0  0  0  0  0  0
  -28.0327  -14.5980   21.5547 H   0  0  0  0  0  0
  -25.2819   -9.5693   22.4754 H   0  0  0  0  0  0
  -24.0029   -7.4661   22.7482 H   0  0  0  0  0  0
  -21.0890   -8.8810   19.8950 H   0  0  0  0  0  0
  -22.3774  -10.9682   19.6145 H   0  0  0  0  0  0
  -21.2028   -7.6156   23.9721 H   0  0  0  0  0  0
  -21.1487   -6.0524   25.9077 H   0  0  0  0  0  0
  -22.0590   -2.7614   23.2837 H   0  0  0  0  0  0
  -22.4018  -11.9787   22.4883 H   0  0  0  0  0  0
  -21.0959  -13.1077   22.2680 H   0  0  0  0  0  0
  -24.6093  -15.8635   20.5610 H   0  0  0  0  0  0
  -26.2359  -15.6640   20.1429 H   0  0  0  0  0  0
  -26.7675  -32.4671   23.0641 H   0  0  0  0  0  0
  -24.9998  -33.9107   24.9810 H   0  0  0  0  0  0
  -22.8987  -31.1926   21.2671 H   0  0  0  0  0  0
  -23.3780  -35.9387   23.3257 H   0  0  0  0  0  0
  -24.3550  -36.8829   22.2089 H   0  0  0  0  0  0
  -23.7249  -37.6222   23.6812 H   0  0  0  0  0  0
  -26.3844  -31.0879   20.6406 H   0  0  0  0  0  0
  -26.9846  -30.4632   22.1190 H   0  0  0  0  0  0
  -28.1640  -28.0679   21.3976 H   0  0  0  0  0  0
  -25.8056  -25.4675   18.9559 H   0  0  0  0  0  0
  -24.0971  -27.1468   18.8723 H   0  0  0  0  0  0
  -24.0264  -30.3623   19.3640 H   0  0  0  0  0  0
  -22.9262  -29.0964   19.8015 H   0  0  0  0  0  0
  -25.1390  -36.1505   25.0746 H   0  0  0  0  0  0
  -21.0081  -28.3460   24.1216 H   0  0  0  0  0  0
  -20.5641  -26.2443   23.3704 H   0  0  0  0  0  0
  -21.6667  -26.7330   22.1251 H   0  0  0  0  0  0
  -19.6939  -25.6237   21.1323 H   0  0  0  0  0  0
  -19.6744  -27.3107   20.6708 H   0  0  0  0  0  0
  -17.4245  -26.6705   21.4013 H   0  0  0  0  0  0
  -18.0343  -26.0128   22.9033 H   0  0  0  0  0  0
  -19.8008  -30.7374   24.2114 H   0  0  0  0  0  0
  -17.5066  -31.6279   24.5167 H   0  0  0  0  0  0
  -15.5401  -30.2952   23.7744 H   0  0  0  0  0  0
  -15.8739  -28.0795   22.7142 H   0  0  0  0  0  0
  -24.5847  -30.7171   25.7505 H   0  0  0  0  0  0
  -24.8749  -32.3118   26.4332 H   0  0  0  0  0  0
  -25.7706  -30.9234   27.0206 H   0  0  0  0  0  0
  -26.3405  -29.6266   24.1863 H   0  0  0  0  0  0
  -27.3975  -29.7352   25.5676 H   0  0  0  0  0  0
  -27.9412  -30.3814   24.0452 H   0  0  0  0  0  0
  -27.2519  -33.3814   26.1754 H   0  0  0  0  0  0
  -28.3987  -32.6793   25.0444 H   0  0  0  0  0  0
  -28.0522  -31.8762   26.5681 H   0  0  0  0  0  0
  -28.2528  -38.0031   24.7502 H   0  0  0  0  0  0
  -28.1096  -36.2548   24.6312 H   0  0  0  0  0  0
  -27.2267  -37.1347   25.8868 H   0  0  0  0  0  0
  -20.9900  -29.8597   21.6342 H   0  0  0  0  0  0
  -26.0063  -38.2619   24.1403 H   0  0  0  0  0  0
  -27.1993  -19.6464   21.4149 H   0  0  0  0  0  0
  -26.5101  -20.6463   20.1398 H   0  0  0  0  0  0
  -26.8169  -21.3329   21.7321 H   0  0  0  0  0  0
  -27.4122  -23.0340   19.3702 H   0  0  0  0  0  0
  -29.1019  -23.2187   19.2381 H   0  0  0  0  0  0
  -29.1681  -21.2485   21.4401 H   0  0  0  0  0  0
  -30.4272  -17.8104   20.0499 H   0  0  0  0  0  0
  1 25  1  0  0  0
  1 30  2  0  0  0
  1 75  1  0  0  0
  2  3  1  0  0  0
  2 25  1  0  0  0
  2 77  1  0  0  0
  2 78  1  0  0  0
  3  4  1  0  0  0
  3 79  1  0  0  0
  3 80  1  0  0  0
  4  5  1  0  0  0
  4 81  1  0  0  0
  4 82  1  0  0  0
  5  6  1  0  0  0
  5 26  1  0  0  0
  5 83  1  0  0  0
  6 25  1  0  0  0
  6 84  1  0  0  0
  6 85  1  0  0  0
  7  8  2  0  0  0
  7 26  1  0  0  0
  7 29  1  0  0  0
  8  9  1  0  0  0
  8 22  1  0  0  0
  9 10  1  0  0  0
  9 27  2  0  0  0
 10 11  2  0  0  0
 10 15  1  0  0  0
 11 12  1  0  0  0
 11 86  1  0  0  0
 12 13  2  0  0  0
 12 87  1  0  0  0
 13 14  1  0  0  0
 13 31  1  0  0  0
 14 15  2  0  0  0
 14 88  1  0  0  0
 15 89  1  0  0  0
 16 17  2  0  0  0
 16 21  1  0  0  0
 16 31  1  0  0  0
 17 18  1  0  0  0
 17 90  1  0  0  0
 18 19  2  0  0  0
 18 91  1  0  0  0
 19 20  1  0  0  0
 19 24  1  0  0  0
 20 21  2  0  0  0
 20 92  1  0  0  0
 21 23  1  0  0  0
 22 28  1  0  0  0
 22 32  2  0  0  0
 26 27  1  0  0  0
 28 93  1  0  0  0
 28 94  1  0  0  0
 29 95  1  0  0  0
 29 96  1  0  0  0
 33 34  1  0  0  0
 33 66  1  0  0  0
 33 70  2  0  0  0
 34 36  1  0  0  0
 34 59  1  0  0  0
 34 97  1  0  0  0
 35 44  2  0  0  0
 35 45  1  0  0  0
 35 68  1  0  0  0
 36 56  1  0  0  0
 36 98  1  0  0  0
 37 39  1  0  0  0
 37 47  1  0  0  0
 37 66  1  0  0  0
 37 99  1  0  0  0
 38 43  2  0  0  0
 38 46  1  0  0  0
 38 47  1  0  0  0
 39 64  1  0  0  0
 39 67  2  0  0  0
 40 52  1  0  0  0
 40 53  2  0  0  0
 40 58  1  0  0  0
 41100  1  0  0  0
 41101  1  0  0  0
 41102  1  0  0  0
 41 48  1  0  0  0
 42 43  1  0  0  0
 42 66  1  0  0  0
 42103  1  0  0  0
 42104  1  0  0  0
 43 44  1  0  0  0
 44105  1  0  0  0
 45 46  2  0  0  0
 45106  1  0  0  0
 46107  1  0  0  0
 47108  1  0  0  0
 47109  1  0  0  0
 48 56  1  0  0  0
 48 65  1  0  0  0
 48110  1  0  0  0
 49 50  1  0  0  0
 49 53  1  0  0  0
 49 64  1  0  0  0
 49111  1  0  0  0
 50 51  1  0  0  0
 50112  1  0  0  0
 50113  1  0  0  0
 51 52  1  0  0  0
 51114  1  0  0  0
 51115  1  0  0  0
 52116  1  0  0  0
 52117  1  0  0  0
 53 54  1  0  0  0
 54 55  2  0  0  0
 54118  1  0  0  0
 55 57  1  0  0  0
 55119  1  0  0  0
 56 69  2  0  0  0
 57 58  2  0  0  0
 57120  1  0  0  0
 58121  1  0  0  0
 59 60  1  0  0  0
 59 61  1  0  0  0
 59 62  1  0  0  0
 60122  1  0  0  0
 60123  1  0  0  0
 60124  1  0  0  0
 61125  1  0  0  0
 61126  1  0  0  0
 61127  1  0  0  0
 62128  1  0  0  0
 62129  1  0  0  0
 62130  1  0  0  0
 63 65  1  0  0  0
 63131  1  0  0  0
 63132  1  0  0  0
 63133  1  0  0  0
 64134  1  0  0  0
 65135  1  0  0  0
 68 73  1  0  0  0
 71 74  1  0  0  0
 71 75  1  0  0  0
 71 76  2  0  0  0
 72136  1  0  0  0
 72137  1  0  0  0
 72138  1  0  0  0
 72 74  1  0  0  0
 73 74  1  0  0  0
 73139  1  0  0  0
 73140  1  0  0  0
 74141  1  0  0  0
 75142  1  0  0  0
M  ISO  4   1 100  68 101  73 101  75 100
M  END
> <chiral flag>
0

> <version>
0

> <s_m_source_file>
/data/baiqing/PycharmProjects/Reinvent-master-3.2/result/LINK_invent/BTK/process_docking_weight1_custom_product_contain_oxygen_bond_distance_aromatic_linkinvent_7_9_3/rearranged_h_0186.sdf

> <i_m_source_file_index>
52

> <r_mmod_Potential_Energy-OPLS-2005>
4575.2275390625

> <r_mmod_Stretch_Energy-OPLS-2005>
2011.63024902344

> <r_mmod_Bend_Energy-OPLS-2005>
1153.64721679688

> <r_mmod_Torsional_Energy-OPLS-2005>
225.764083862305

> <r_mmod_Improper_Torsional_Energy-OPLS-2005>
3.53998708724976

> <r_mmod_Van_der_Waal_Energy-OPLS-2005>
113.293601989746

> <r_mmod_Electrostatic_Energy-OPLS-2005>
-442.655700683594

> <r_mmod_Solvation_Energy-OPLS-2005>
-206.276840209961

> <b_mmod_Minimization_Converged-OPLS-2005>
0

> <r_mmod_RMS_Derivative-OPLS-2005>
0.383098602294922

$$$$
53
                    3D
 Structure written by MMmdl.
154162  0  0  1  0            999 V2000
  -30.4563  -15.2052   20.3670 C   0  0  0  0  0  0
  -30.4375  -12.7587   19.5345 C   0  0  0  0  0  0
  -29.5360  -12.5680   18.2889 C   0  0  0  0  0  0
  -28.0790  -12.3074   18.7086 C   0  0  0  0  0  0
  -27.6158  -13.2720   19.8294 C   0  0  2  0  0  0
  -28.6487  -13.4172   20.9685 C   0  0  0  0  0  0
  -25.2396  -13.8246   20.5736 C   0  0  0  0  0  0
  -24.1746  -13.0440   20.9257 C   0  0  0  0  0  0
  -24.6397  -11.6935   20.8762 C   0  0  0  0  0  0
  -23.9092  -10.4293   21.0406 C   0  0  0  0  0  0
  -24.3637   -9.4206   21.9184 C   0  0  0  0  0  0
  -23.6305   -8.2244   22.0755 C   0  0  0  0  0  0
  -22.4285   -8.0285   21.3547 C   0  0  0  0  0  0
  -21.9925   -9.0260   20.4648 C   0  0  0  0  0  0
  -22.7262  -10.2135   20.3056 C   0  0  0  0  0  0
  -21.6855   -6.0739   22.5279 C   0  0  0  0  0  0
  -21.4017   -6.5642   23.8212 C   0  0  0  0  0  0
  -21.3661   -5.6793   24.9174 C   0  0  0  0  0  0
  -21.6043   -4.3056   24.7224 C   0  0  0  0  0  0
  -21.8819   -3.8149   23.4345 C   0  0  0  0  0  0
  -21.9193   -4.6966   22.3401 C   0  0  0  0  0  0
  -22.7763  -13.5193   21.1903 C   0  0  0  0  0  0
  -22.1660   -4.2152   21.0978 F   0  0  0  0  0  0
  -21.5629   -3.4539   25.7737 F   0  0  0  0  0  0
  -29.8944  -13.9013   20.3549 N   0  0  0  0  0  0
  -26.2827  -12.9519   20.3226 N   0  0  0  0  0  0
  -25.9335  -11.6626   20.5727 N   0  0  0  0  0  0
  -22.0419  -12.8175   22.0455 N   0  0  0  0  0  0
  -25.4022  -15.1981   20.4158 N   0  0  0  0  0  0
  -31.6651  -15.2086   20.0985 O   0  0  0  0  0  0
  -21.6644   -6.8885   21.4243 O   0  0  0  0  0  0
  -22.3442  -14.5492   20.6741 O   0  0  0  0  0  0
  -24.6590  -31.8266   23.1727 C   0  0  0  0  0  0
  -25.9287  -32.4602   23.8181 C   0  0  1  0  0  0
  -27.2198  -26.9634   20.1783 C   0  0  0  0  0  0
  -25.5967  -33.8415   24.2087 N   0  0  0  0  0  0
  -23.4722  -30.4387   21.5207 C   0  0  2  0  0  0
  -24.9261  -28.8325   20.1082 C   0  0  0  0  0  0
  -22.7648  -29.4452   22.4787 C   0  0  0  0  0  0
  -18.0319  -28.1405   22.8468 C   0  0  0  0  0  0
  -24.1493  -36.7215   23.2647 C   0  0  0  0  0  0
  -26.0385  -30.6437   21.3989 C   0  0  0  0  0  0
  -26.1065  -29.2372   20.7430 C   0  0  0  0  0  0
  -27.2466  -28.3211   20.7577 C   0  0  0  0  0  0
  -26.0160  -26.7060   19.4853 C   0  0  0  0  0  0
  -24.9044  -27.5868   19.4595 C   0  0  0  0  0  0
  -23.7097  -29.7553   20.1455 C   0  0  0  0  0  0
  -25.4132  -36.2976   24.0301 C   0  0  1  0  0  0
  -20.5941  -28.3746   23.1196 C   0  0  2  0  0  0
  -20.6795  -26.9430   22.5405 C   0  0  0  0  0  0
  -19.5769  -26.6375   21.5216 C   0  0  0  0  0  0
  -18.1951  -26.7939   22.1624 C   0  0  0  0  0  0
  -19.1580  -28.8897   23.2820 C   0  0  0  0  0  0
  -18.9491  -30.1487   23.8853 C   0  0  0  0  0  0
  -17.6485  -30.6596   24.0556 C   0  0  0  0  0  0
  -25.9095  -34.9357   23.5015 C   0  0  0  0  0  0
  -16.5376  -29.9084   23.6342 C   0  0  0  0  0  0
  -16.7302  -28.6504   23.0361 C   0  0  0  0  0  0
  -26.4550  -31.6538   25.0698 C   0  0  0  0  0  0
  -25.3686  -31.3783   26.1362 C   0  0  0  0  0  0
  -27.0445  -30.2908   24.6416 C   0  0  0  0  0  0
  -27.6042  -32.4346   25.7501 C   0  0  0  0  0  0
  -27.5569  -37.1764   24.8464 C   0  0  0  0  0  0
  -21.4321  -29.3040   22.3543 N   0  0  0  0  0  0
  -26.4280  -37.3708   23.9407 N   0  0  0  0  0  0
  -24.7441  -30.9960   22.0845 N   0  0  0  0  0  0
  -23.4214  -28.8024   23.3018 O   0  0  0  0  0  0
  -28.2301  -25.8820   20.2941 O   0  0  0  0  0  0
  -26.5705  -34.8887   22.4611 O   0  0  0  0  0  0
  -23.5669  -32.1221   23.6842 O   0  0  0  0  0  0
  -33.4658  -18.5234   20.6349 C   0  0  0  0  0  0
  -33.6065  -18.8232   19.3067 C   0  0  0  0  0  0
  -31.3053  -18.3176   19.9130 C   0  0  0  0  0  0
  -29.1801  -19.5614   20.6750 C   0  0  0  0  0  0
  -30.2490  -23.1486   20.9754 C   0  0  0  0  0  0
  -28.8934  -21.1156   19.9425 C   0  0  0  0  0  0
  -28.0881  -24.2902   19.9387 C   0  0  0  0  0  0
  -29.8332  -18.0441   19.9854 C   0  0  2  0  0  0
  -28.8105  -22.7854   20.5845 C   0  0  2  0  0  0
  -32.1343  -18.2392   20.9695 N   0  0  0  0  0  0
  -29.6733  -16.4518   20.4359 N   0  0  0  0  0  0
  -28.8486  -19.5182   21.8633 O   0  0  0  0  0  0
  -34.7854  -19.1399   18.7176 F   0  0  0  0  0  0
  -32.1205  -18.7677   18.4121 S   0  0  0  0  0  0
  -31.4636  -12.9412   19.2131 H   0  0  0  0  0  0
  -30.4786  -11.8424   20.1259 H   0  0  0  0  0  0
  -29.9034  -11.7447   17.6750 H   0  0  0  0  0  0
  -29.5839  -13.4619   17.6651 H   0  0  0  0  0  0
  -28.0187  -11.2782   19.0643 H   0  0  0  0  0  0
  -27.4144  -12.3726   17.8462 H   0  0  0  0  0  0
  -27.5418  -14.2471   19.3466 H   0  0  0  0  0  0
  -28.7956  -12.4741   21.4968 H   0  0  0  0  0  0
  -28.2991  -14.1374   21.7098 H   0  0  0  0  0  0
  -25.2780   -9.5680   22.4764 H   0  0  0  0  0  0
  -24.0011   -7.4633   22.7475 H   0  0  0  0  0  0
  -21.0855   -8.8785   19.8953 H   0  0  0  0  0  0
  -22.3721  -10.9677   19.6167 H   0  0  0  0  0  0
  -21.2011   -7.6150   23.9717 H   0  0  0  0  0  0
  -21.1483   -6.0523   25.9077 H   0  0  0  0  0  0
  -22.0595   -2.7611   23.2843 H   0  0  0  0  0  0
  -22.4051  -11.9849   22.4855 H   0  0  0  0  0  0
  -21.1030  -13.1186   22.2656 H   0  0  0  0  0  0
  -24.6273  -15.8439   20.5229 H   0  0  0  0  0  0
  -26.2334  -15.6381   20.0446 H   0  0  0  0  0  0
  -26.7354  -32.5149   23.0897 H   0  0  0  0  0  0
  -25.0062  -33.9496   25.0202 H   0  0  0  0  0  0
  -22.7836  -31.2692   21.3520 H   0  0  0  0  0  0
  -23.3763  -35.9537   23.3281 H   0  0  0  0  0  0
  -24.3572  -36.8888   22.2067 H   0  0  0  0  0  0
  -23.7243  -37.6393   23.6720 H   0  0  0  0  0  0
  -26.2157  -31.3867   20.6203 H   0  0  0  0  0  0
  -26.9000  -30.6990   22.0524 H   0  0  0  0  0  0
  -28.1374  -28.6247   21.2893 H   0  0  0  0  0  0
  -25.8963  -25.7568   18.9844 H   0  0  0  0  0  0
  -24.0082  -27.2732   18.9421 H   0  0  0  0  0  0
  -23.8606  -30.5244   19.3871 H   0  0  0  0  0  0
  -22.8206  -29.2067   19.8301 H   0  0  0  0  0  0
  -25.1330  -36.1775   25.0793 H   0  0  0  0  0  0
  -21.0034  -28.3354   24.1317 H   0  0  0  0  0  0
  -20.5676  -26.2365   23.3644 H   0  0  0  0  0  0
  -21.6659  -26.7406   22.1211 H   0  0  0  0  0  0
  -19.6927  -25.6274   21.1274 H   0  0  0  0  0  0
  -19.6707  -27.3162   20.6727 H   0  0  0  0  0  0
  -17.4220  -26.6682   21.4029 H   0  0  0  0  0  0
  -18.0345  -26.0092   22.9032 H   0  0  0  0  0  0
  -19.7967  -30.7315   24.2203 H   0  0  0  0  0  0
  -17.5037  -31.6272   24.5166 H   0  0  0  0  0  0
  -15.5374  -30.2971   23.7689 H   0  0  0  0  0  0
  -15.8704  -28.0808   22.7100 H   0  0  0  0  0  0
  -24.5877  -30.7121   25.7677 H   0  0  0  0  0  0
  -24.8865  -32.2983   26.4675 H   0  0  0  0  0  0
  -25.7926  -30.9026   27.0214 H   0  0  0  0  0  0
  -26.3108  -29.6586   24.1403 H   0  0  0  0  0  0
  -27.3965  -29.7268   25.5064 H   0  0  0  0  0  0
  -27.9052  -30.4094   23.9832 H   0  0  0  0  0  0
  -27.2605  -33.3683   26.1964 H   0  0  0  0  0  0
  -28.3914  -32.6849   25.0377 H   0  0  0  0  0  0
  -28.0644  -31.8552   26.5515 H   0  0  0  0  0  0
  -28.2568  -38.0077   24.7510 H   0  0  0  0  0  0
  -28.1084  -36.2602   24.6293 H   0  0  0  0  0  0
  -27.2285  -37.1408   25.8867 H   0  0  0  0  0  0
  -20.9568  -29.8732   21.6678 H   0  0  0  0  0  0
  -26.0129  -38.2767   24.1414 H   0  0  0  0  0  0
  -34.2363  -18.4913   21.3918 H   0  0  0  0  0  0
  -30.7109  -22.3604   21.5710 H   0  0  0  0  0  0
  -30.2772  -24.0652   21.5659 H   0  0  0  0  0  0
  -30.8669  -23.3049   20.0908 H   0  0  0  0  0  0
  -27.9272  -20.9642   19.4617 H   0  0  0  0  0  0
  -29.5925  -21.1481   19.1072 H   0  0  0  0  0  0
  -27.0165  -24.0969   19.9714 H   0  0  0  0  0  0
  -28.3240  -24.2671   18.8746 H   0  0  0  0  0  0
  -29.4744  -18.0361   18.9561 H   0  0  0  0  0  0
  -28.2838  -22.6549   21.5305 H   0  0  0  0  0  0
  -28.7240  -16.2648   20.7170 H   0  0  0  0  0  0
  1 25  1  0  0  0
  1 30  2  0  0  0
  1 81  1  0  0  0
  2  3  1  0  0  0
  2 25  1  0  0  0
  2 85  1  0  0  0
  2 86  1  0  0  0
  3  4  1  0  0  0
  3 87  1  0  0  0
  3 88  1  0  0  0
  4  5  1  0  0  0
  4 89  1  0  0  0
  4 90  1  0  0  0
  5  6  1  0  0  0
  5 26  1  0  0  0
  5 91  1  0  0  0
  6 25  1  0  0  0
  6 92  1  0  0  0
  6 93  1  0  0  0
  7  8  2  0  0  0
  7 26  1  0  0  0
  7 29  1  0  0  0
  8  9  1  0  0  0
  8 22  1  0  0  0
  9 10  1  0  0  0
  9 27  2  0  0  0
 10 11  2  0  0  0
 10 15  1  0  0  0
 11 12  1  0  0  0
 11 94  1  0  0  0
 12 13  2  0  0  0
 12 95  1  0  0  0
 13 14  1  0  0  0
 13 31  1  0  0  0
 14 15  2  0  0  0
 14 96  1  0  0  0
 15 97  1  0  0  0
 16 17  2  0  0  0
 16 21  1  0  0  0
 16 31  1  0  0  0
 17 18  1  0  0  0
 17 98  1  0  0  0
 18 19  2  0  0  0
 18 99  1  0  0  0
 19 20  1  0  0  0
 19 24  1  0  0  0
 20 21  2  0  0  0
 20100  1  0  0  0
 21 23  1  0  0  0
 22 28  1  0  0  0
 22 32  2  0  0  0
 26 27  1  0  0  0
 28101  1  0  0  0
 28102  1  0  0  0
 29103  1  0  0  0
 29104  1  0  0  0
 33 34  1  0  0  0
 33 66  1  0  0  0
 33 70  2  0  0  0
 34 36  1  0  0  0
 34 59  1  0  0  0
 34105  1  0  0  0
 35 44  2  0  0  0
 35 45  1  0  0  0
 35 68  1  0  0  0
 36 56  1  0  0  0
 36106  1  0  0  0
 37 39  1  0  0  0
 37 47  1  0  0  0
 37 66  1  0  0  0
 37107  1  0  0  0
 38 43  2  0  0  0
 38 46  1  0  0  0
 38 47  1  0  0  0
 39 64  1  0  0  0
 39 67  2  0  0  0
 40 52  1  0  0  0
 40 53  2  0  0  0
 40 58  1  0  0  0
 41108  1  0  0  0
 41109  1  0  0  0
 41110  1  0  0  0
 41 48  1  0  0  0
 42 43  1  0  0  0
 42 66  1  0  0  0
 42111  1  0  0  0
 42112  1  0  0  0
 43 44  1  0  0  0
 44113  1  0  0  0
 45 46  2  0  0  0
 45114  1  0  0  0
 46115  1  0  0  0
 47116  1  0  0  0
 47117  1  0  0  0
 48 56  1  0  0  0
 48 65  1  0  0  0
 48118  1  0  0  0
 49 50  1  0  0  0
 49 53  1  0  0  0
 49 64  1  0  0  0
 49119  1  0  0  0
 50 51  1  0  0  0
 50120  1  0  0  0
 50121  1  0  0  0
 51 52  1  0  0  0
 51122  1  0  0  0
 51123  1  0  0  0
 52124  1  0  0  0
 52125  1  0  0  0
 53 54  1  0  0  0
 54 55  2  0  0  0
 54126  1  0  0  0
 55 57  1  0  0  0
 55127  1  0  0  0
 56 69  2  0  0  0
 57 58  2  0  0  0
 57128  1  0  0  0
 58129  1  0  0  0
 59 60  1  0  0  0
 59 61  1  0  0  0
 59 62  1  0  0  0
 60130  1  0  0  0
 60131  1  0  0  0
 60132  1  0  0  0
 61133  1  0  0  0
 61134  1  0  0  0
 61135  1  0  0  0
 62136  1  0  0  0
 62137  1  0  0  0
 62138  1  0  0  0
 63 65  1  0  0  0
 63139  1  0  0  0
 63140  1  0  0  0
 63141  1  0  0  0
 64142  1  0  0  0
 65143  1  0  0  0
 68 77  1  0  0  0
 71 72  2  0  0  0
 71 80  1  0  0  0
 71144  1  0  0  0
 72 83  1  0  0  0
 72 84  1  0  0  0
 73 78  1  0  0  0
 73 80  2  0  0  0
 73 84  1  0  0  0
 74 76  1  0  0  0
 74 78  1  0  0  0
 74 82  2  0  0  0
 75145  1  0  0  0
 75146  1  0  0  0
 75147  1  0  0  0
 75 79  1  0  0  0
 76 79  1  0  0  0
 76148  1  0  0  0
 76149  1  0  0  0
 77 79  1  0  0  0
 77150  1  0  0  0
 77151  1  0  0  0
 78 81  1  0  0  0
 78152  1  0  0  0
 79153  1  0  0  0
 81154  1  0  0  0
M  ISO  4   1 100  68 101  77 101  81 100
M  END
> <chiral flag>
0

> <version>
0

> <s_m_source_file>
/data/baiqing/PycharmProjects/Reinvent-master-3.2/result/LINK_invent/BTK/process_docking_weight1_custom_product_contain_oxygen_bond_distance_aromatic_linkinvent_7_9_3/rearranged_h_0186.sdf

> <i_m_source_file_index>
53

> <r_mmod_Potential_Energy-OPLS-2005>
1021.31353759766

> <r_mmod_Stretch_Energy-OPLS-2005>
568.663696289062

> <r_mmod_Bend_Energy-OPLS-2005>
418.153228759766

> <r_mmod_Torsional_Energy-OPLS-2005>
199.436965942383

> <r_mmod_Improper_Torsional_Energy-OPLS-2005>
5.78476619720459

> <r_mmod_Van_der_Waal_Energy-OPLS-2005>
98.075927734375

> <r_mmod_Electrostatic_Energy-OPLS-2005>
-421.186309814453

> <r_mmod_Solvation_Energy-OPLS-2005>
-248.068725585938

> <b_mmod_Minimization_Converged-OPLS-2005>
0

> <r_mmod_RMS_Derivative-OPLS-2005>
0.359703332185745

$$$$
54
                    3D
 Structure written by MMmdl.
153161  0  0  1  0            999 V2000
  -30.6271  -14.7056   20.5733 C   0  0  0  0  0  0
  -30.4351  -12.4586   19.4638 C   0  0  0  0  0  0
  -29.5090  -12.5448   18.2287 C   0  0  0  0  0  0
  -28.0310  -12.3629   18.6285 C   0  0  0  0  0  0
  -27.6482  -13.2231   19.8598 C   0  0  2  0  0  0
  -28.6872  -13.0522   20.9824 C   0  0  0  0  0  0
  -25.2540  -13.8185   20.5678 C   0  0  0  0  0  0
  -24.1810  -13.0445   20.9181 C   0  0  0  0  0  0
  -24.6383  -11.6916   20.8716 C   0  0  0  0  0  0
  -23.9055  -10.4299   21.0394 C   0  0  0  0  0  0
  -24.3608   -9.4218   21.9177 C   0  0  0  0  0  0
  -23.6285   -8.2251   22.0755 C   0  0  0  0  0  0
  -22.4268   -8.0281   21.3545 C   0  0  0  0  0  0
  -21.9896   -9.0255   20.4648 C   0  0  0  0  0  0
  -22.7221  -10.2136   20.3052 C   0  0  0  0  0  0
  -21.6855   -6.0728   22.5279 C   0  0  0  0  0  0
  -21.4019   -6.5635   23.8211 C   0  0  0  0  0  0
  -21.3661   -5.6789   24.9172 C   0  0  0  0  0  0
  -21.6044   -4.3053   24.7223 C   0  0  0  0  0  0
  -21.8819   -3.8142   23.4346 C   0  0  0  0  0  0
  -21.9196   -4.6955   22.3401 C   0  0  0  0  0  0
  -22.7838  -13.5240   21.1861 C   0  0  0  0  0  0
  -22.1664   -4.2144   21.0977 F   0  0  0  0  0  0
  -21.5626   -3.4537   25.7735 F   0  0  0  0  0  0
  -29.9916  -13.4792   20.4513 N   0  0  0  0  0  0
  -26.2952  -12.9368   20.3273 N   0  0  0  0  0  0
  -25.9306  -11.6518   20.5707 N   0  0  0  0  0  0
  -22.0483  -12.8231   22.0415 N   0  0  0  0  0  0
  -25.4268  -15.1911   20.4138 N   0  0  0  0  0  0
  -31.7370  -14.8222   20.0398 O   0  0  0  0  0  0
  -21.6638   -6.8871   21.4239 O   0  0  0  0  0  0
  -22.3519  -14.5546   20.6715 O   0  0  0  0  0  0
  -24.6285  -31.8567   23.1977 C   0  0  0  0  0  0
  -25.9125  -32.4762   23.8312 C   0  0  1  0  0  0
  -27.2190  -27.2829   20.1284 C   0  0  0  0  0  0
  -25.5929  -33.8562   24.2251 N   0  0  0  0  0  0
  -23.4243  -30.4766   21.5419 C   0  0  2  0  0  0
  -24.8706  -28.9199   20.1121 C   0  0  0  0  0  0
  -22.7490  -29.4600   22.4937 C   0  0  0  0  0  0
  -18.0301  -28.1384   22.8480 C   0  0  0  0  0  0
  -24.1488  -36.7286   23.2635 C   0  0  0  0  0  0
  -25.9667  -30.7751   21.3723 C   0  0  0  0  0  0
  -26.0401  -29.3975   20.7179 C   0  0  0  0  0  0
  -27.2193  -28.5916   20.7111 C   0  0  0  0  0  0
  -26.0333  -26.8623   19.4944 C   0  0  0  0  0  0
  -24.8703  -27.6588   19.4907 C   0  0  0  0  0  0
  -23.6404  -29.8054   20.1592 C   0  0  0  0  0  0
  -25.4113  -36.3074   24.0325 C   0  0  1  0  0  0
  -20.5899  -28.3689   23.1287 C   0  0  2  0  0  0
  -20.6789  -26.9417   22.5395 C   0  0  0  0  0  0
  -19.5769  -26.6409   21.5193 C   0  0  0  0  0  0
  -18.1951  -26.7938   22.1608 C   0  0  0  0  0  0
  -19.1549  -28.8855   23.2885 C   0  0  0  0  0  0
  -18.9464  -30.1454   23.8902 C   0  0  0  0  0  0
  -17.6460  -30.6574   24.0570 C   0  0  0  0  0  0
  -25.9053  -34.9447   23.5090 C   0  0  0  0  0  0
  -16.5355  -29.9074   23.6327 C   0  0  0  0  0  0
  -16.7287  -28.6498   23.0343 C   0  0  0  0  0  0
  -26.4498  -31.6584   25.0697 C   0  0  0  0  0  0
  -25.3717  -31.3732   26.1414 C   0  0  0  0  0  0
  -27.0335  -30.3002   24.6168 C   0  0  0  0  0  0
  -27.6056  -32.4315   25.7471 C   0  0  0  0  0  0
  -27.5581  -37.1800   24.8466 C   0  0  0  0  0  0
  -21.4200  -29.3048   22.3688 N   0  0  0  0  0  0
  -26.4293  -37.3772   23.9407 N   0  0  0  0  0  0
  -24.6924  -31.0542   22.0939 N   0  0  0  0  0  0
  -23.4201  -28.8148   23.3030 O   0  0  0  0  0  0
  -28.3343  -26.4256   20.1360 O   0  0  0  0  0  0
  -26.5627  -34.8924   22.4664 O   0  0  0  0  0  0
  -23.5445  -32.1384   23.7289 O   0  0  0  0  0  0
  -29.7272  -17.3409   20.6154 C   0  0  0  0  0  0
  -29.0631  -19.7260   20.0203 C   0  0  0  0  0  0
  -28.9359  -22.3198   20.4216 C   0  0  0  0  0  0
  -29.1546  -15.7865   22.5552 C   0  0  0  0  0  0
  -27.1415  -24.8579   21.7293 C   0  0  0  0  0  0
  -28.4591  -23.7165   19.7865 C   0  0  0  0  0  0
  -30.1075  -16.0143   21.3703 C   0  0  2  0  0  0
  -28.2865  -25.0342   20.7098 C   0  0  1  0  0  0
  -28.9085  -17.4415   19.5490 N   0  0  0  0  0  0
  -28.5643  -18.7764   19.1997 N   0  0  0  0  0  0
  -28.7219  -21.1362   19.7501 N   0  0  0  0  0  0
  -29.5128  -22.3317   21.5110 O   0  0  0  0  0  0
  -30.0910  -18.9882   21.2872 S   0  0  0  0  0  0
  -31.4745  -12.5877   19.1578 H   0  0  0  0  0  0
  -30.3934  -11.4601   19.9021 H   0  0  0  0  0  0
  -29.7927  -11.7958   17.4886 H   0  0  0  0  0  0
  -29.6382  -13.5156   17.7469 H   0  0  0  0  0  0
  -27.8755  -11.3072   18.8539 H   0  0  0  0  0  0
  -27.3784  -12.5942   17.7863 H   0  0  0  0  0  0
  -27.6725  -14.2647   19.5396 H   0  0  0  0  0  0
  -28.7343  -12.0053   21.2850 H   0  0  0  0  0  0
  -28.3655  -13.5594   21.8796 H   0  0  0  0  0  0
  -25.2753   -9.5697   22.4747 H   0  0  0  0  0  0
  -23.9998   -7.4645   22.7478 H   0  0  0  0  0  0
  -21.0825   -8.8777   19.8954 H   0  0  0  0  0  0
  -22.3682  -10.9673   19.6164 H   0  0  0  0  0  0
  -21.2014   -7.6147   23.9711 H   0  0  0  0  0  0
  -21.1483   -6.0521   25.9076 H   0  0  0  0  0  0
  -22.0594   -2.7602   23.2850 H   0  0  0  0  0  0
  -22.4094  -11.9899   22.4816 H   0  0  0  0  0  0
  -21.1111  -13.1275   22.2630 H   0  0  0  0  0  0
  -24.6636  -15.8485   20.5292 H   0  0  0  0  0  0
  -26.2837  -15.6298   20.0997 H   0  0  0  0  0  0
  -26.7191  -32.5419   23.1048 H   0  0  0  0  0  0
  -25.0076  -33.9690   25.0398 H   0  0  0  0  0  0
  -22.7198  -31.2979   21.3949 H   0  0  0  0  0  0
  -23.3752  -35.9618   23.3299 H   0  0  0  0  0  0
  -24.3577  -36.8912   22.2052 H   0  0  0  0  0  0
  -23.7246  -37.6488   23.6657 H   0  0  0  0  0  0
  -26.1001  -31.5340   20.6001 H   0  0  0  0  0  0
  -26.8462  -30.8273   22.0024 H   0  0  0  0  0  0
  -28.1200  -28.9529   21.1873 H   0  0  0  0  0  0
  -26.0023  -25.8929   19.0163 H   0  0  0  0  0  0
  -23.9741  -27.2882   19.0125 H   0  0  0  0  0  0
  -23.7634  -30.5799   19.4013 H   0  0  0  0  0  0
  -22.7586  -29.2375   19.8564 H   0  0  0  0  0  0
  -25.1297  -36.1919   25.0816 H   0  0  0  0  0  0
  -20.9993  -28.3258   24.1408 H   0  0  0  0  0  0
  -20.5708  -26.2287   23.3587 H   0  0  0  0  0  0
  -21.6652  -26.7470   22.1166 H   0  0  0  0  0  0
  -19.6930  -25.6327   21.1205 H   0  0  0  0  0  0
  -19.6715  -27.3241   20.6739 H   0  0  0  0  0  0
  -17.4221  -26.6708   21.4007 H   0  0  0  0  0  0
  -18.0339  -26.0072   22.8991 H   0  0  0  0  0  0
  -19.7930  -30.7279   24.2271 H   0  0  0  0  0  0
  -17.5007  -31.6252   24.5176 H   0  0  0  0  0  0
  -15.5353  -30.2971   23.7636 H   0  0  0  0  0  0
  -15.8693  -28.0814   22.7046 H   0  0  0  0  0  0
  -24.5891  -30.7088   25.7731 H   0  0  0  0  0  0
  -24.8898  -32.2901   26.4820 H   0  0  0  0  0  0
  -25.8021  -30.8916   27.0202 H   0  0  0  0  0  0
  -26.2908  -29.6753   24.1192 H   0  0  0  0  0  0
  -27.4031  -29.7260   25.4675 H   0  0  0  0  0  0
  -27.8780  -30.4279   23.9388 H   0  0  0  0  0  0
  -27.2669  -33.3614   26.2045 H   0  0  0  0  0  0
  -28.3861  -32.6880   25.0296 H   0  0  0  0  0  0
  -28.0724  -31.8441   26.5388 H   0  0  0  0  0  0
  -28.2601  -38.0094   24.7502 H   0  0  0  0  0  0
  -28.1075  -36.2627   24.6298 H   0  0  0  0  0  0
  -27.2298  -37.1455   25.8869 H   0  0  0  0  0  0
  -20.9377  -29.8762   21.6886 H   0  0  0  0  0  0
  -26.0178  -38.2850   24.1397 H   0  0  0  0  0  0
  -29.1846  -16.6396   23.2331 H   0  0  0  0  0  0
  -29.4404  -14.9172   23.1476 H   0  0  0  0  0  0
  -28.1199  -15.6883   22.2253 H   0  0  0  0  0  0
  -27.2820  -23.9549   22.3234 H   0  0  0  0  0  0
  -26.1734  -24.7650   21.2388 H   0  0  0  0  0  0
  -27.0917  -25.6946   22.4259 H   0  0  0  0  0  0
  -27.5264  -23.5425   19.2500 H   0  0  0  0  0  0
  -29.1940  -23.9522   19.0167 H   0  0  0  0  0  0
  -31.0328  -16.2961   21.8736 H   0  0  0  0  0  0
  -29.1905  -25.0384   21.3188 H   0  0  0  0  0  0
  -28.2127  -21.2532   18.8869 H   0  0  0  0  0  0
  1 25  1  0  0  0
  1 30  2  0  0  0
  1 77  1  0  0  0
  2  3  1  0  0  0
  2 25  1  0  0  0
  2 84  1  0  0  0
  2 85  1  0  0  0
  3  4  1  0  0  0
  3 86  1  0  0  0
  3 87  1  0  0  0
  4  5  1  0  0  0
  4 88  1  0  0  0
  4 89  1  0  0  0
  5  6  1  0  0  0
  5 26  1  0  0  0
  5 90  1  0  0  0
  6 25  1  0  0  0
  6 91  1  0  0  0
  6 92  1  0  0  0
  7  8  2  0  0  0
  7 26  1  0  0  0
  7 29  1  0  0  0
  8  9  1  0  0  0
  8 22  1  0  0  0
  9 10  1  0  0  0
  9 27  2  0  0  0
 10 11  2  0  0  0
 10 15  1  0  0  0
 11 12  1  0  0  0
 11 93  1  0  0  0
 12 13  2  0  0  0
 12 94  1  0  0  0
 13 14  1  0  0  0
 13 31  1  0  0  0
 14 15  2  0  0  0
 14 95  1  0  0  0
 15 96  1  0  0  0
 16 17  2  0  0  0
 16 21  1  0  0  0
 16 31  1  0  0  0
 17 18  1  0  0  0
 17 97  1  0  0  0
 18 19  2  0  0  0
 18 98  1  0  0  0
 19 20  1  0  0  0
 19 24  1  0  0  0
 20 21  2  0  0  0
 20 99  1  0  0  0
 21 23  1  0  0  0
 22 28  1  0  0  0
 22 32  2  0  0  0
 26 27  1  0  0  0
 28100  1  0  0  0
 28101  1  0  0  0
 29102  1  0  0  0
 29103  1  0  0  0
 33 34  1  0  0  0
 33 66  1  0  0  0
 33 70  2  0  0  0
 34 36  1  0  0  0
 34 59  1  0  0  0
 34104  1  0  0  0
 35 44  2  0  0  0
 35 45  1  0  0  0
 35 68  1  0  0  0
 36 56  1  0  0  0
 36105  1  0  0  0
 37 39  1  0  0  0
 37 47  1  0  0  0
 37 66  1  0  0  0
 37106  1  0  0  0
 38 43  2  0  0  0
 38 46  1  0  0  0
 38 47  1  0  0  0
 39 64  1  0  0  0
 39 67  2  0  0  0
 40 52  1  0  0  0
 40 53  2  0  0  0
 40 58  1  0  0  0
 41107  1  0  0  0
 41108  1  0  0  0
 41109  1  0  0  0
 41 48  1  0  0  0
 42 43  1  0  0  0
 42 66  1  0  0  0
 42110  1  0  0  0
 42111  1  0  0  0
 43 44  1  0  0  0
 44112  1  0  0  0
 45 46  2  0  0  0
 45113  1  0  0  0
 46114  1  0  0  0
 47115  1  0  0  0
 47116  1  0  0  0
 48 56  1  0  0  0
 48 65  1  0  0  0
 48117  1  0  0  0
 49 50  1  0  0  0
 49 53  1  0  0  0
 49 64  1  0  0  0
 49118  1  0  0  0
 50 51  1  0  0  0
 50119  1  0  0  0
 50120  1  0  0  0
 51 52  1  0  0  0
 51121  1  0  0  0
 51122  1  0  0  0
 52123  1  0  0  0
 52124  1  0  0  0
 53 54  1  0  0  0
 54 55  2  0  0  0
 54125  1  0  0  0
 55 57  1  0  0  0
 55126  1  0  0  0
 56 69  2  0  0  0
 57 58  2  0  0  0
 57127  1  0  0  0
 58128  1  0  0  0
 59 60  1  0  0  0
 59 61  1  0  0  0
 59 62  1  0  0  0
 60129  1  0  0  0
 60130  1  0  0  0
 60131  1  0  0  0
 61132  1  0  0  0
 61133  1  0  0  0
 61134  1  0  0  0
 62135  1  0  0  0
 62136  1  0  0  0
 62137  1  0  0  0
 63 65  1  0  0  0
 63138  1  0  0  0
 63139  1  0  0  0
 63140  1  0  0  0
 64141  1  0  0  0
 65142  1  0  0  0
 68 78  1  0  0  0
 71 77  1  0  0  0
 71 79  2  0  0  0
 71 83  1  0  0  0
 72 80  2  0  0  0
 72 81  1  0  0  0
 72 83  1  0  0  0
 73 76  1  0  0  0
 73 81  1  0  0  0
 73 82  2  0  0  0
 74143  1  0  0  0
 74144  1  0  0  0
 74145  1  0  0  0
 74 77  1  0  0  0
 75146  1  0  0  0
 75147  1  0  0  0
 75148  1  0  0  0
 75 78  1  0  0  0
 76 78  1  0  0  0
 76149  1  0  0  0
 76150  1  0  0  0
 77151  1  0  0  0
 78152  1  0  0  0
 79 80  1  0  0  0
 81153  1  0  0  0
M  ISO  4   1 100  68 101  77 100  78 101
M  END
> <chiral flag>
0

> <version>
0

> <s_m_source_file>
/data/baiqing/PycharmProjects/Reinvent-master-3.2/result/LINK_invent/BTK/process_docking_weight1_custom_product_contain_oxygen_bond_distance_aromatic_linkinvent_7_9_3/rearranged_h_0186.sdf

> <i_m_source_file_index>
54

> <r_mmod_Potential_Energy-OPLS-2005>
79.3010787963867

> <r_mmod_Stretch_Energy-OPLS-2005>
112.931159973145

> <r_mmod_Bend_Energy-OPLS-2005>
220.363327026367

> <r_mmod_Torsional_Energy-OPLS-2005>
171.027893066406

> <r_mmod_Improper_Torsional_Energy-OPLS-2005>
2.94508624076843

> <r_mmod_Van_der_Waal_Energy-OPLS-2005>
114.92268371582

> <r_mmod_Electrostatic_Energy-OPLS-2005>
-383.079345703125

> <r_mmod_Solvation_Energy-OPLS-2005>
-222.496017456055

> <b_mmod_Minimization_Converged-OPLS-2005>
0

> <r_mmod_RMS_Derivative-OPLS-2005>
1.14038622379303

$$$$
55
                    3D
 Structure written by MMmdl.
157165  0  0  1  0            999 V2000
  -30.6795  -14.5048   20.5746 C   0  0  0  0  0  0
  -30.4241  -12.3294   19.4302 C   0  0  0  0  0  0
  -29.4968  -12.5270   18.2110 C   0  0  0  0  0  0
  -28.0195  -12.3770   18.6238 C   0  0  0  0  0  0
  -27.6614  -13.2158   19.8790 C   0  0  2  0  0  0
  -28.6981  -13.0017   21.0056 C   0  0  0  0  0  0
  -25.2574  -13.8192   20.5692 C   0  0  0  0  0  0
  -24.1830  -13.0457   20.9184 C   0  0  0  0  0  0
  -24.6388  -11.6924   20.8721 C   0  0  0  0  0  0
  -23.9056  -10.4300   21.0382 C   0  0  0  0  0  0
  -24.3613   -9.4232   21.9177 C   0  0  0  0  0  0
  -23.6298   -8.2262   22.0746 C   0  0  0  0  0  0
  -22.4286   -8.0276   21.3524 C   0  0  0  0  0  0
  -21.9898   -9.0247   20.4630 C   0  0  0  0  0  0
  -22.7219  -10.2136   20.3039 C   0  0  0  0  0  0
  -21.6863   -6.0729   22.5277 C   0  0  0  0  0  0
  -21.4018   -6.5633   23.8210 C   0  0  0  0  0  0
  -21.3660   -5.6789   24.9177 C   0  0  0  0  0  0
  -21.6038   -4.3048   24.7225 C   0  0  0  0  0  0
  -21.8827   -3.8139   23.4347 C   0  0  0  0  0  0
  -21.9194   -4.6954   22.3401 C   0  0  0  0  0  0
  -22.7851  -13.5249   21.1844 C   0  0  0  0  0  0
  -22.1664   -4.2136   21.0976 F   0  0  0  0  0  0
  -21.5620   -3.4531   25.7740 F   0  0  0  0  0  0
  -30.0336  -13.3077   20.4652 N   0  0  0  0  0  0
  -26.3008  -12.9370   20.3364 N   0  0  0  0  0  0
  -25.9316  -11.6521   20.5744 N   0  0  0  0  0  0
  -22.0483  -12.8241   22.0396 N   0  0  0  0  0  0
  -25.4363  -15.1911   20.4128 N   0  0  0  0  0  0
  -31.7956  -14.6962   20.0777 O   0  0  0  0  0  0
  -21.6644   -6.8874   21.4237 O   0  0  0  0  0  0
  -22.3542  -14.5571   20.6717 O   0  0  0  0  0  0
  -24.6138  -31.8627   23.2050 C   0  0  0  0  0  0
  -25.9044  -32.4787   23.8357 C   0  0  1  0  0  0
  -27.2602  -27.4022   20.1355 C   0  0  0  0  0  0
  -25.5869  -33.8577   24.2298 N   0  0  0  0  0  0
  -23.4081  -30.4766   21.5440 C   0  0  2  0  0  0
  -24.8694  -28.9294   20.1227 C   0  0  0  0  0  0
  -22.7401  -29.4609   22.4991 C   0  0  0  0  0  0
  -18.0233  -28.1391   22.8512 C   0  0  0  0  0  0
  -24.1450  -36.7263   23.2643 C   0  0  0  0  0  0
  -25.9383  -30.8152   21.3717 C   0  0  0  0  0  0
  -26.0217  -29.4439   20.7282 C   0  0  0  0  0  0
  -27.2228  -28.6896   20.7269 C   0  0  0  0  0  0
  -26.0966  -26.9083   19.5154 C   0  0  0  0  0  0
  -24.9032  -27.6641   19.5058 C   0  0  0  0  0  0
  -23.6246  -29.7927   20.1648 C   0  0  0  0  0  0
  -25.4082  -36.3090   24.0337 C   0  0  1  0  0  0
  -20.5830  -28.3655   23.1319 C   0  0  2  0  0  0
  -20.6688  -26.9380   22.5423 C   0  0  0  0  0  0
  -19.5675  -26.6397   21.5198 C   0  0  0  0  0  0
  -18.1873  -26.7937   22.1643 C   0  0  0  0  0  0
  -19.1493  -28.8846   23.2908 C   0  0  0  0  0  0
  -18.9437  -30.1456   23.8918 C   0  0  0  0  0  0
  -17.6450  -30.6611   24.0564 C   0  0  0  0  0  0
  -25.9021  -34.9453   23.5123 C   0  0  0  0  0  0
  -16.5333  -29.9119   23.6342 C   0  0  0  0  0  0
  -16.7232  -28.6526   23.0381 C   0  0  0  0  0  0
  -26.4474  -31.6573   25.0692 C   0  0  0  0  0  0
  -25.3752  -31.3666   26.1447 C   0  0  0  0  0  0
  -27.0287  -30.2990   24.6118 C   0  0  0  0  0  0
  -27.6041  -32.4300   25.7466 C   0  0  0  0  0  0
  -27.5550  -37.1770   24.8483 C   0  0  0  0  0  0
  -21.4133  -29.2995   22.3714 N   0  0  0  0  0  0
  -26.4266  -37.3780   23.9428 N   0  0  0  0  0  0
  -24.6692  -31.0691   22.0980 N   0  0  0  0  0  0
  -23.4146  -28.8178   23.3077 O   0  0  0  0  0  0
  -28.4402  -26.6769   20.0757 O   0  0  0  0  0  0
  -26.5601  -34.8931   22.4700 O   0  0  0  0  0  0
  -23.5319  -32.1401   23.7428 O   0  0  0  0  0  0
  -29.5031  -19.0456   20.8101 C   0  0  0  0  0  0
  -29.8440  -16.8249   20.6833 C   0  0  0  0  0  0
  -30.9723  -23.2474   21.0276 C   0  0  0  0  0  0
  -27.8729  -25.6035   22.2793 C   0  0  0  0  0  0
  -29.3871  -20.4625   21.4182 C   0  0  0  0  0  0
  -28.6752  -24.1432   20.2730 C   0  0  0  0  0  0
  -29.4506  -22.9740   21.0087 C   0  0  1  0  0  0
  -28.6913  -25.5556   20.9717 C   0  0  2  0  0  0
  -29.6843  -17.8959   21.4994 N   0  0  0  0  0  0
  -29.7491  -17.0371   19.3581 N   0  0  0  0  0  0
  -30.0059  -15.5002   21.1957 N   0  0  0  0  0  0
  -29.1987  -21.5982   20.4529 N   0  3  0  0  0  0
  -29.4608  -18.6814   19.0989 S   0  0  0  0  0  0
  -31.4699  -12.4334   19.1282 H   0  0  0  0  0  0
  -30.3246  -11.3165   19.8211 H   0  0  0  0  0  0
  -29.7342  -11.8078   17.4261 H   0  0  0  0  0  0
  -29.6593  -13.5168   17.7813 H   0  0  0  0  0  0
  -27.8379  -11.3204   18.8223 H   0  0  0  0  0  0
  -27.3642  -12.6433   17.7928 H   0  0  0  0  0  0
  -27.7031  -14.2647   19.5815 H   0  0  0  0  0  0
  -28.6733  -11.9672   21.3491 H   0  0  0  0  0  0
  -28.4479  -13.6056   21.8805 H   0  0  0  0  0  0
  -25.2759   -9.5710   22.4755 H   0  0  0  0  0  0
  -23.9989   -7.4652   22.7486 H   0  0  0  0  0  0
  -21.0809   -8.8773   19.8959 H   0  0  0  0  0  0
  -22.3662  -10.9671   19.6149 H   0  0  0  0  0  0
  -21.2027   -7.6140   23.9710 H   0  0  0  0  0  0
  -21.1467   -6.0516   25.9076 H   0  0  0  0  0  0
  -22.0603   -2.7594   23.2856 H   0  0  0  0  0  0
  -22.4077  -11.9875   22.4745 H   0  0  0  0  0  0
  -21.1105  -13.1281   22.2597 H   0  0  0  0  0  0
  -24.6848  -15.8612   20.5374 H   0  0  0  0  0  0
  -26.2893  -15.6142   20.0701 H   0  0  0  0  0  0
  -26.7115  -32.5517   23.1114 H   0  0  0  0  0  0
  -24.9984  -33.9728   25.0421 H   0  0  0  0  0  0
  -22.6980  -31.2917   21.3901 H   0  0  0  0  0  0
  -23.3728  -35.9580   23.3359 H   0  0  0  0  0  0
  -24.3521  -36.8834   22.2046 H   0  0  0  0  0  0
  -23.7197  -37.6469   23.6647 H   0  0  0  0  0  0
  -26.0614  -31.5788   20.6030 H   0  0  0  0  0  0
  -26.8178  -30.8696   21.9995 H   0  0  0  0  0  0
  -28.1170  -29.0864   21.1891 H   0  0  0  0  0  0
  -26.1223  -25.9432   19.0308 H   0  0  0  0  0  0
  -24.0254  -27.2666   19.0161 H   0  0  0  0  0  0
  -23.7257  -30.5575   19.3931 H   0  0  0  0  0  0
  -22.7550  -29.1966   19.8832 H   0  0  0  0  0  0
  -25.1259  -36.1928   25.0824 H   0  0  0  0  0  0
  -20.9917  -28.3231   24.1444 H   0  0  0  0  0  0
  -20.5524  -26.2269   23.3612 H   0  0  0  0  0  0
  -21.6558  -26.7359   22.1251 H   0  0  0  0  0  0
  -19.6807  -25.6315   21.1195 H   0  0  0  0  0  0
  -19.6619  -27.3241   20.6751 H   0  0  0  0  0  0
  -17.4102  -26.6681   21.4085 H   0  0  0  0  0  0
  -18.0306  -26.0074   22.9039 H   0  0  0  0  0  0
  -19.7927  -30.7244   24.2314 H   0  0  0  0  0  0
  -17.5022  -31.6304   24.5141 H   0  0  0  0  0  0
  -15.5343  -30.3038   23.7669 H   0  0  0  0  0  0
  -15.8617  -28.0856   22.7121 H   0  0  0  0  0  0
  -24.5941  -30.6989   25.7805 H   0  0  0  0  0  0
  -24.8914  -32.2794   26.4935 H   0  0  0  0  0  0
  -25.8119  -30.8820   27.0188 H   0  0  0  0  0  0
  -26.2829  -29.6761   24.1155 H   0  0  0  0  0  0
  -27.4006  -29.7240   25.4617 H   0  0  0  0  0  0
  -27.8712  -30.4255   23.9307 H   0  0  0  0  0  0
  -27.2651  -33.3597   26.2059 H   0  0  0  0  0  0
  -28.3841  -32.6877   25.0285 H   0  0  0  0  0  0
  -28.0721  -31.8402   26.5366 H   0  0  0  0  0  0
  -28.2597  -38.0038   24.7504 H   0  0  0  0  0  0
  -28.1005  -36.2567   24.6333 H   0  0  0  0  0  0
  -27.2258  -37.1464   25.8885 H   0  0  0  0  0  0
  -20.9325  -29.8682   21.6893 H   0  0  0  0  0  0
  -26.0145  -38.2839   24.1485 H   0  0  0  0  0  0
  -31.5410  -22.3936   21.3922 H   0  0  0  0  0  0
  -31.2262  -24.0847   21.6783 H   0  0  0  0  0  0
  -31.3519  -23.4736   20.0300 H   0  0  0  0  0  0
  -26.8089  -25.4558   22.0942 H   0  0  0  0  0  0
  -27.9910  -26.5608   22.7876 H   0  0  0  0  0  0
  -28.1959  -24.8351   22.9821 H   0  0  0  0  0  0
  -30.2944  -20.6223   22.0020 H   0  0  0  0  0  0
  -28.5683  -20.4707   22.1389 H   0  0  0  0  0  0
  -27.6357  -23.8533   20.1194 H   0  0  0  0  0  0
  -29.0949  -24.2587   19.2706 H   0  0  0  0  0  0
  -29.0997  -22.9466   22.0396 H   0  0  0  0  0  0
  -29.7242  -25.7346   21.2655 H   0  0  0  0  0  0
  -29.2949  -15.2071   21.8454 H   0  0  0  0  0  0
  -29.8177  -21.4563   19.6728 H   0  0  0  0  0  0
  -28.2543  -21.5361   20.1090 H   0  0  0  0  0  0
  1 25  1  0  0  0
  1 30  2  0  0  0
  1 81  1  0  0  0
  2  3  1  0  0  0
  2 25  1  0  0  0
  2 84  1  0  0  0
  2 85  1  0  0  0
  3  4  1  0  0  0
  3 86  1  0  0  0
  3 87  1  0  0  0
  4  5  1  0  0  0
  4 88  1  0  0  0
  4 89  1  0  0  0
  5  6  1  0  0  0
  5 26  1  0  0  0
  5 90  1  0  0  0
  6 25  1  0  0  0
  6 91  1  0  0  0
  6 92  1  0  0  0
  7  8  2  0  0  0
  7 26  1  0  0  0
  7 29  1  0  0  0
  8  9  1  0  0  0
  8 22  1  0  0  0
  9 10  1  0  0  0
  9 27  2  0  0  0
 10 11  2  0  0  0
 10 15  1  0  0  0
 11 12  1  0  0  0
 11 93  1  0  0  0
 12 13  2  0  0  0
 12 94  1  0  0  0
 13 14  1  0  0  0
 13 31  1  0  0  0
 14 15  2  0  0  0
 14 95  1  0  0  0
 15 96  1  0  0  0
 16 17  2  0  0  0
 16 21  1  0  0  0
 16 31  1  0  0  0
 17 18  1  0  0  0
 17 97  1  0  0  0
 18 19  2  0  0  0
 18 98  1  0  0  0
 19 20  1  0  0  0
 19 24  1  0  0  0
 20 21  2  0  0  0
 20 99  1  0  0  0
 21 23  1  0  0  0
 22 28  1  0  0  0
 22 32  2  0  0  0
 26 27  1  0  0  0
 28100  1  0  0  0
 28101  1  0  0  0
 29102  1  0  0  0
 29103  1  0  0  0
 33 34  1  0  0  0
 33 66  1  0  0  0
 33 70  2  0  0  0
 34 36  1  0  0  0
 34 59  1  0  0  0
 34104  1  0  0  0
 35 44  2  0  0  0
 35 45  1  0  0  0
 35 68  1  0  0  0
 36 56  1  0  0  0
 36105  1  0  0  0
 37 39  1  0  0  0
 37 47  1  0  0  0
 37 66  1  0  0  0
 37106  1  0  0  0
 38 43  2  0  0  0
 38 46  1  0  0  0
 38 47  1  0  0  0
 39 64  1  0  0  0
 39 67  2  0  0  0
 40 52  1  0  0  0
 40 53  2  0  0  0
 40 58  1  0  0  0
 41107  1  0  0  0
 41108  1  0  0  0
 41109  1  0  0  0
 41 48  1  0  0  0
 42 43  1  0  0  0
 42 66  1  0  0  0
 42110  1  0  0  0
 42111  1  0  0  0
 43 44  1  0  0  0
 44112  1  0  0  0
 45 46  2  0  0  0
 45113  1  0  0  0
 46114  1  0  0  0
 47115  1  0  0  0
 47116  1  0  0  0
 48 56  1  0  0  0
 48 65  1  0  0  0
 48117  1  0  0  0
 49 50  1  0  0  0
 49 53  1  0  0  0
 49 64  1  0  0  0
 49118  1  0  0  0
 50 51  1  0  0  0
 50119  1  0  0  0
 50120  1  0  0  0
 51 52  1  0  0  0
 51121  1  0  0  0
 51122  1  0  0  0
 52123  1  0  0  0
 52124  1  0  0  0
 53 54  1  0  0  0
 54 55  2  0  0  0
 54125  1  0  0  0
 55 57  1  0  0  0
 55126  1  0  0  0
 56 69  2  0  0  0
 57 58  2  0  0  0
 57127  1  0  0  0
 58128  1  0  0  0
 59 60  1  0  0  0
 59 61  1  0  0  0
 59 62  1  0  0  0
 60129  1  0  0  0
 60130  1  0  0  0
 60131  1  0  0  0
 61132  1  0  0  0
 61133  1  0  0  0
 61134  1  0  0  0
 62135  1  0  0  0
 62136  1  0  0  0
 62137  1  0  0  0
 63 65  1  0  0  0
 63138  1  0  0  0
 63139  1  0  0  0
 63140  1  0  0  0
 64141  1  0  0  0
 65142  1  0  0  0
 68 78  1  0  0  0
 71 75  1  0  0  0
 71 79  2  0  0  0
 71 83  1  0  0  0
 72 79  1  0  0  0
 72 80  2  0  0  0
 72 81  1  0  0  0
 73143  1  0  0  0
 73144  1  0  0  0
 73145  1  0  0  0
 73 77  1  0  0  0
 74146  1  0  0  0
 74147  1  0  0  0
 74148  1  0  0  0
 74 78  1  0  0  0
 75 82  1  0  0  0
 75149  1  0  0  0
 75150  1  0  0  0
 76 77  1  0  0  0
 76 78  1  0  0  0
 76151  1  0  0  0
 76152  1  0  0  0
 77 82  1  0  0  0
 77153  1  0  0  0
 78154  1  0  0  0
 80 83  1  0  0  0
 81155  1  0  0  0
 82156  1  0  0  0
 82157  1  0  0  0
M  CHG  1  82   1
M  ISO  4   1 100  68 101  78 101  81 100
M  END
> <chiral flag>
0

> <version>
0

> <s_m_source_file>
/data/baiqing/PycharmProjects/Reinvent-master-3.2/result/LINK_invent/BTK/process_docking_weight1_custom_product_contain_oxygen_bond_distance_aromatic_linkinvent_7_9_3/rearranged_h_0186.sdf

> <i_m_source_file_index>
55

> <r_mmod_Potential_Energy-OPLS-2005>
-275.374755859375

> <r_mmod_Stretch_Energy-OPLS-2005>
51.4836616516113

> <r_mmod_Bend_Energy-OPLS-2005>
123.856796264648

> <r_mmod_Torsional_Energy-OPLS-2005>
263.895690917969

> <r_mmod_Improper_Torsional_Energy-OPLS-2005>
4.44030046463013

> <r_mmod_Van_der_Waal_Energy-OPLS-2005>
119.950325012207

> <r_mmod_Electrostatic_Energy-OPLS-2005>
-356.064178466797

> <r_mmod_Solvation_Energy-OPLS-2005>
-498.517547607422

> <b_mmod_Minimization_Converged-OPLS-2005>
0

> <r_mmod_RMS_Derivative-OPLS-2005>
3.65467500686646

$$$$
56
                    3D
 Structure written by MMmdl.
171179  0  0  1  0            999 V2000
  -30.7303  -14.4381   20.6056 C   0  0  0  0  0  0
  -30.4036  -12.2999   19.4188 C   0  0  0  0  0  0
  -29.4855  -12.5010   18.1985 C   0  0  0  0  0  0
  -28.0070  -12.3647   18.6120 C   0  0  0  0  0  0
  -27.6529  -13.2079   19.8669 C   0  0  2  0  0  0
  -28.6915  -13.0114   20.9911 C   0  0  0  0  0  0
  -25.2592  -13.8176   20.5690 C   0  0  0  0  0  0
  -24.1848  -13.0469   20.9183 C   0  0  0  0  0  0
  -24.6390  -11.6915   20.8732 C   0  0  0  0  0  0
  -23.9060  -10.4300   21.0402 C   0  0  0  0  0  0
  -24.3621   -9.4221   21.9178 C   0  0  0  0  0  0
  -23.6301   -8.2254   22.0769 C   0  0  0  0  0  0
  -22.4283   -8.0290   21.3557 C   0  0  0  0  0  0
  -21.9912   -9.0260   20.4667 C   0  0  0  0  0  0
  -22.7232  -10.2135   20.3068 C   0  0  0  0  0  0
  -21.6855   -6.0745   22.5281 C   0  0  0  0  0  0
  -21.4014   -6.5650   23.8211 C   0  0  0  0  0  0
  -21.3653   -5.6801   24.9169 C   0  0  0  0  0  0
  -21.6051   -4.3066   24.7222 C   0  0  0  0  0  0
  -21.8820   -3.8160   23.4341 C   0  0  0  0  0  0
  -21.9205   -4.6978   22.3400 C   0  0  0  0  0  0
  -22.7872  -13.5262   21.1838 C   0  0  0  0  0  0
  -22.1668   -4.2164   21.0976 F   0  0  0  0  0  0
  -21.5622   -3.4550   25.7728 F   0  0  0  0  0  0
  -30.0139  -13.3005   20.4235 N   0  0  0  0  0  0
  -26.2994  -12.9335   20.3343 N   0  0  0  0  0  0
  -25.9301  -11.6494   20.5739 N   0  0  0  0  0  0
  -22.0507  -12.8247   22.0375 N   0  0  0  0  0  0
  -25.4374  -15.1900   20.4080 N   0  0  0  0  0  0
  -31.9046  -14.5186   20.2575 O   0  0  0  0  0  0
  -21.6660   -6.8884   21.4242 O   0  0  0  0  0  0
  -22.3563  -14.5569   20.6676 O   0  0  0  0  0  0
  -24.6152  -31.8688   23.2107 C   0  0  0  0  0  0
  -25.9040  -32.4845   23.8414 C   0  0  1  0  0  0
  -27.2398  -27.4491   20.0891 C   0  0  0  0  0  0
  -25.5928  -33.8651   24.2351 N   0  0  0  0  0  0
  -23.4020  -30.4953   21.5496 C   0  0  2  0  0  0
  -24.8488  -28.9700   20.1042 C   0  0  0  0  0  0
  -22.7419  -29.4657   22.4956 C   0  0  0  0  0  0
  -18.0281  -28.1367   22.8505 C   0  0  0  0  0  0
  -24.1480  -36.7311   23.2628 C   0  0  0  0  0  0
  -25.9278  -30.8424   21.3568 C   0  0  0  0  0  0
  -26.0064  -29.4778   20.7054 C   0  0  0  0  0  0
  -27.1986  -28.7217   20.7034 C   0  0  0  0  0  0
  -26.0578  -26.9471   19.5009 C   0  0  0  0  0  0
  -24.8711  -27.7043   19.4978 C   0  0  0  0  0  0
  -23.6086  -29.8329   20.1606 C   0  0  0  0  0  0
  -25.4098  -36.3129   24.0334 C   0  0  1  0  0  0
  -20.5866  -28.3654   23.1300 C   0  0  2  0  0  0
  -20.6768  -26.9383   22.5413 C   0  0  0  0  0  0
  -19.5746  -26.6370   21.5213 C   0  0  0  0  0  0
  -18.1921  -26.7904   22.1619 C   0  0  0  0  0  0
  -19.1527  -28.8817   23.2906 C   0  0  0  0  0  0
  -18.9464  -30.1427   23.8918 C   0  0  0  0  0  0
  -17.6470  -30.6583   24.0554 C   0  0  0  0  0  0
  -25.9035  -34.9495   23.5123 C   0  0  0  0  0  0
  -16.5358  -29.9094   23.6332 C   0  0  0  0  0  0
  -16.7265  -28.6502   23.0358 C   0  0  0  0  0  0
  -26.4476  -31.6614   25.0729 C   0  0  0  0  0  0
  -25.3758  -31.3732   26.1506 C   0  0  0  0  0  0
  -27.0293  -30.3077   24.6030 C   0  0  0  0  0  0
  -27.6054  -32.4331   25.7492 C   0  0  0  0  0  0
  -27.5569  -37.1811   24.8469 C   0  0  0  0  0  0
  -21.4139  -29.3044   22.3716 N   0  0  0  0  0  0
  -26.4275  -37.3819   23.9422 N   0  0  0  0  0  0
  -24.6673  -31.0806   22.1004 N   0  0  0  0  0  0
  -23.4208  -28.8163   23.2955 O   0  0  0  0  0  0
  -28.3821  -26.6853   20.2073 O   0  0  0  0  0  0
  -26.5566  -34.8927   22.4684 O   0  0  0  0  0  0
  -23.5354  -32.1419   23.7520 O   0  0  0  0  0  0
  -30.9573  -18.7609   19.9089 C   0  0  0  0  0  0
  -30.3347  -18.0585   20.9390 C   0  0  0  0  0  0
  -29.3832  -20.3341   20.5078 C   0  0  0  0  0  0
  -29.0598  -22.7178   19.8161 C   0  0  0  0  0  0
  -29.3115  -24.4861   17.1741 C   0  0  0  0  0  0
  -32.7781  -17.0959   19.1198 C   0  0  0  0  0  0
  -33.2478  -19.5100   19.2417 C   0  0  0  0  0  0
  -31.6342  -18.5566   17.5264 C   0  0  0  0  0  0
  -30.6782  -16.7379   21.6178 C   0  0  0  0  0  0
  -29.0450  -26.1596   19.0564 C   0  0  0  0  0  0
  -27.9750  -23.7242   19.3174 C   0  0  1  0  0  0
  -28.4321  -24.9058   18.3730 C   0  0  2  0  0  0
  -32.1360  -18.4749   18.9824 C   0  0  0  0  0  0
  -30.3853  -20.0262   19.6960 N   0  0  0  0  0  0
  -28.6431  -21.5488   20.3690 N   0  0  0  0  0  0
  -30.0636  -15.5033   21.0908 N   0  0  0  0  0  0
  -26.8452  -23.0128   18.6805 N   0  3  0  0  0  0
  -30.2552  -23.0144   19.7277 O   0  0  0  0  0  0
  -29.0148  -19.0180   21.6177 S   0  0  0  0  0  0
  -31.4502  -12.3792   19.1197 H   0  0  0  0  0  0
  -30.2835  -11.2952   19.8258 H   0  0  0  0  0  0
  -29.7211  -11.7731   17.4217 H   0  0  0  0  0  0
  -29.6628  -13.4852   17.7612 H   0  0  0  0  0  0
  -27.8132  -11.3083   18.8030 H   0  0  0  0  0  0
  -27.3582  -12.6425   17.7803 H   0  0  0  0  0  0
  -27.6916  -14.2528   19.5608 H   0  0  0  0  0  0
  -28.6670  -11.9865   21.3648 H   0  0  0  0  0  0
  -28.4600  -13.6420   21.8507 H   0  0  0  0  0  0
  -25.2750   -9.5713   22.4763 H   0  0  0  0  0  0
  -24.0026   -7.4650   22.7485 H   0  0  0  0  0  0
  -21.0851   -8.8762   19.8955 H   0  0  0  0  0  0
  -22.3679  -10.9680   19.6193 H   0  0  0  0  0  0
  -21.1992   -7.6158   23.9707 H   0  0  0  0  0  0
  -21.1476   -6.0535   25.9064 H   0  0  0  0  0  0
  -22.0608   -2.7630   23.2835 H   0  0  0  0  0  0
  -22.4099  -11.9882   22.4731 H   0  0  0  0  0  0
  -21.1129  -13.1291   22.2580 H   0  0  0  0  0  0
  -24.6820  -15.8567   20.5241 H   0  0  0  0  0  0
  -26.2943  -15.6183   20.0818 H   0  0  0  0  0  0
  -26.7097  -32.5547   23.1170 H   0  0  0  0  0  0
  -25.0238  -33.9870   25.0594 H   0  0  0  0  0  0
  -22.6906  -31.3127   21.4152 H   0  0  0  0  0  0
  -23.3758  -35.9635   23.3334 H   0  0  0  0  0  0
  -24.3558  -36.8887   22.2033 H   0  0  0  0  0  0
  -23.7208  -37.6514   23.6624 H   0  0  0  0  0  0
  -26.0227  -31.6044   20.5833 H   0  0  0  0  0  0
  -26.8255  -30.9108   21.9606 H   0  0  0  0  0  0
  -28.0844  -29.1084   21.1878 H   0  0  0  0  0  0
  -26.0087  -25.9550   19.0928 H   0  0  0  0  0  0
  -23.9766  -27.3023   19.0426 H   0  0  0  0  0  0
  -23.7096  -30.6137   19.4068 H   0  0  0  0  0  0
  -22.7349  -29.2520   19.8628 H   0  0  0  0  0  0
  -25.1267  -36.1998   25.0821 H   0  0  0  0  0  0
  -20.9974  -28.3225   24.1406 H   0  0  0  0  0  0
  -20.5651  -26.2280   23.3615 H   0  0  0  0  0  0
  -21.6639  -26.7408   22.1201 H   0  0  0  0  0  0
  -19.6909  -25.6289   21.1228 H   0  0  0  0  0  0
  -19.6661  -27.3192   20.6753 H   0  0  0  0  0  0
  -17.4189  -26.6671   21.4020 H   0  0  0  0  0  0
  -18.0307  -26.0007   22.8981 H   0  0  0  0  0  0
  -19.7942  -30.7244   24.2262 H   0  0  0  0  0  0
  -17.5034  -31.6257   24.5166 H   0  0  0  0  0  0
  -15.5362  -30.3019   23.7623 H   0  0  0  0  0  0
  -15.8659  -28.0837   22.7057 H   0  0  0  0  0  0
  -24.5904  -30.7093   25.7881 H   0  0  0  0  0  0
  -24.8989  -32.2910   26.4967 H   0  0  0  0  0  0
  -25.8130  -30.8908   27.0258 H   0  0  0  0  0  0
  -26.2811  -29.6872   24.1084 H   0  0  0  0  0  0
  -27.4130  -29.7269   25.4427 H   0  0  0  0  0  0
  -27.8619  -30.4456   23.9123 H   0  0  0  0  0  0
  -27.2664  -33.3628   26.2078 H   0  0  0  0  0  0
  -28.3862  -32.6889   25.0319 H   0  0  0  0  0  0
  -28.0717  -31.8447   26.5407 H   0  0  0  0  0  0
  -28.2608  -38.0084   24.7521 H   0  0  0  0  0  0
  -28.1038  -36.2628   24.6303 H   0  0  0  0  0  0
  -27.2297  -37.1472   25.8870 H   0  0  0  0  0  0
  -20.9285  -29.8840   21.7006 H   0  0  0  0  0  0
  -26.0179  -38.2899   24.1453 H   0  0  0  0  0  0
  -29.3757  -25.2940   16.4443 H   0  0  0  0  0  0
  -28.9122  -23.6159   16.6536 H   0  0  0  0  0  0
  -30.3348  -24.2602   17.4721 H   0  0  0  0  0  0
  -33.1462  -16.8873   20.1225 H   0  0  0  0  0  0
  -33.6375  -16.9869   18.4577 H   0  0  0  0  0  0
  -32.0649  -16.3402   18.8070 H   0  0  0  0  0  0
  -33.5737  -19.4727   20.2827 H   0  0  0  0  0  0
  -32.9113  -20.5267   19.0391 H   0  0  0  0  0  0
  -34.1207  -19.3310   18.6147 H   0  0  0  0  0  0
  -30.8062  -17.8617   17.3719 H   0  0  0  0  0  0
  -32.4158  -18.3061   16.8105 H   0  0  0  0  0  0
  -31.2680  -19.5514   17.2762 H   0  0  0  0  0  0
  -30.3364  -16.7957   22.6519 H   0  0  0  0  0  0
  -31.7565  -16.6316   21.7184 H   0  0  0  0  0  0
  -29.1488  -26.9649   18.3260 H   0  0  0  0  0  0
  -30.0609  -25.9244   19.3756 H   0  0  0  0  0  0
  -27.5632  -24.1780   20.2201 H   0  0  0  0  0  0
  -27.5356  -25.2771   17.8855 H   0  0  0  0  0  0
  -27.6909  -21.4963   20.6969 H   0  0  0  0  0  0
  -29.0789  -15.3715   21.2653 H   0  0  0  0  0  0
  -27.1775  -22.3921   17.9617 H   0  0  0  0  0  0
  -26.2151  -23.6720   18.2605 H   0  0  0  0  0  0
  -26.3170  -22.4834   19.3489 H   0  0  0  0  0  0
  1 25  1  0  0  0
  1 30  2  0  0  0
  1 86  1  0  0  0
  2  3  1  0  0  0
  2 25  1  0  0  0
  2 90  1  0  0  0
  2 91  1  0  0  0
  3  4  1  0  0  0
  3 92  1  0  0  0
  3 93  1  0  0  0
  4  5  1  0  0  0
  4 94  1  0  0  0
  4 95  1  0  0  0
  5  6  1  0  0  0
  5 26  1  0  0  0
  5 96  1  0  0  0
  6 25  1  0  0  0
  6 97  1  0  0  0
  6 98  1  0  0  0
  7  8  2  0  0  0
  7 26  1  0  0  0
  7 29  1  0  0  0
  8  9  1  0  0  0
  8 22  1  0  0  0
  9 10  1  0  0  0
  9 27  2  0  0  0
 10 11  2  0  0  0
 10 15  1  0  0  0
 11 12  1  0  0  0
 11 99  1  0  0  0
 12 13  2  0  0  0
 12100  1  0  0  0
 13 14  1  0  0  0
 13 31  1  0  0  0
 14 15  2  0  0  0
 14101  1  0  0  0
 15102  1  0  0  0
 16 17  2  0  0  0
 16 21  1  0  0  0
 16 31  1  0  0  0
 17 18  1  0  0  0
 17103  1  0  0  0
 18 19  2  0  0  0
 18104  1  0  0  0
 19 20  1  0  0  0
 19 24  1  0  0  0
 20 21  2  0  0  0
 20105  1  0  0  0
 21 23  1  0  0  0
 22 28  1  0  0  0
 22 32  2  0  0  0
 26 27  1  0  0  0
 28106  1  0  0  0
 28107  1  0  0  0
 29108  1  0  0  0
 29109  1  0  0  0
 33 34  1  0  0  0
 33 66  1  0  0  0
 33 70  2  0  0  0
 34 36  1  0  0  0
 34 59  1  0  0  0
 34110  1  0  0  0
 35 44  2  0  0  0
 35 45  1  0  0  0
 35 68  1  0  0  0
 36 56  1  0  0  0
 36111  1  0  0  0
 37 39  1  0  0  0
 37 47  1  0  0  0
 37 66  1  0  0  0
 37112  1  0  0  0
 38 43  2  0  0  0
 38 46  1  0  0  0
 38 47  1  0  0  0
 39 64  1  0  0  0
 39 67  2  0  0  0
 40 52  1  0  0  0
 40 53  2  0  0  0
 40 58  1  0  0  0
 41113  1  0  0  0
 41114  1  0  0  0
 41115  1  0  0  0
 41 48  1  0  0  0
 42 43  1  0  0  0
 42 66  1  0  0  0
 42116  1  0  0  0
 42117  1  0  0  0
 43 44  1  0  0  0
 44118  1  0  0  0
 45 46  2  0  0  0
 45119  1  0  0  0
 46120  1  0  0  0
 47121  1  0  0  0
 47122  1  0  0  0
 48 56  1  0  0  0
 48 65  1  0  0  0
 48123  1  0  0  0
 49 50  1  0  0  0
 49 53  1  0  0  0
 49 64  1  0  0  0
 49124  1  0  0  0
 50 51  1  0  0  0
 50125  1  0  0  0
 50126  1  0  0  0
 51 52  1  0  0  0
 51127  1  0  0  0
 51128  1  0  0  0
 52129  1  0  0  0
 52130  1  0  0  0
 53 54  1  0  0  0
 54 55  2  0  0  0
 54131  1  0  0  0
 55 57  1  0  0  0
 55132  1  0  0  0
 56 69  2  0  0  0
 57 58  2  0  0  0
 57133  1  0  0  0
 58134  1  0  0  0
 59 60  1  0  0  0
 59 61  1  0  0  0
 59 62  1  0  0  0
 60135  1  0  0  0
 60136  1  0  0  0
 60137  1  0  0  0
 61138  1  0  0  0
 61139  1  0  0  0
 61140  1  0  0  0
 62141  1  0  0  0
 62142  1  0  0  0
 62143  1  0  0  0
 63 65  1  0  0  0
 63144  1  0  0  0
 63145  1  0  0  0
 63146  1  0  0  0
 64147  1  0  0  0
 65148  1  0  0  0
 68 80  1  0  0  0
 71 72  2  0  0  0
 71 83  1  0  0  0
 71 84  1  0  0  0
 72 79  1  0  0  0
 72 89  1  0  0  0
 73 84  2  0  0  0
 73 85  1  0  0  0
 73 89  1  0  0  0
 74 81  1  0  0  0
 74 85  1  0  0  0
 74 88  2  0  0  0
 75149  1  0  0  0
 75150  1  0  0  0
 75151  1  0  0  0
 75 82  1  0  0  0
 76152  1  0  0  0
 76153  1  0  0  0
 76154  1  0  0  0
 76 83  1  0  0  0
 77 83  1  0  0  0
 77155  1  0  0  0
 77156  1  0  0  0
 77157  1  0  0  0
 78 83  1  0  0  0
 78158  1  0  0  0
 78159  1  0  0  0
 78160  1  0  0  0
 79 86  1  0  0  0
 79161  1  0  0  0
 79162  1  0  0  0
 80 82  1  0  0  0
 80163  1  0  0  0
 80164  1  0  0  0
 81 82  1  0  0  0
 81 87  1  0  0  0
 81165  1  0  0  0
 82166  1  0  0  0
 85167  1  0  0  0
 86168  1  0  0  0
 87169  1  0  0  0
 87170  1  0  0  0
 87171  1  0  0  0
M  CHG  1  87   1
M  ISO  4   1 100  68 101  80 101  86 100
M  END
> <chiral flag>
0

> <version>
0

> <s_m_source_file>
/data/baiqing/PycharmProjects/Reinvent-master-3.2/result/LINK_invent/BTK/process_docking_weight1_custom_product_contain_oxygen_bond_distance_aromatic_linkinvent_7_9_3/rearranged_h_0186.sdf

> <i_m_source_file_index>
56

> <r_mmod_Potential_Energy-OPLS-2005>
-459.611907958984

> <r_mmod_Stretch_Energy-OPLS-2005>
43.9610404968262

> <r_mmod_Bend_Energy-OPLS-2005>
150.224243164062

> <r_mmod_Torsional_Energy-OPLS-2005>
219.609603881836

> <r_mmod_Improper_Torsional_Energy-OPLS-2005>
3.78703570365906

> <r_mmod_Van_der_Waal_Energy-OPLS-2005>
140.542266845703

> <r_mmod_Electrostatic_Energy-OPLS-2005>
-497.563446044922

> <r_mmod_Solvation_Energy-OPLS-2005>
-541.726745605469

> <b_mmod_Minimization_Converged-OPLS-2005>
0

> <r_mmod_RMS_Derivative-OPLS-2005>
3.48476505279541

$$$$
57
                    3D
 Structure written by MMmdl.
160168  0  0  1  0            999 V2000
  -30.5283  -15.0035   20.4012 C   0  0  0  0  0  0
  -30.4482  -12.6293   19.4734 C   0  0  0  0  0  0
  -29.5157  -12.5219   18.2421 C   0  0  0  0  0  0
  -28.0591  -12.2831   18.6843 C   0  0  0  0  0  0
  -27.6271  -13.2410   19.8243 C   0  0  2  0  0  0
  -28.6774  -13.3073   20.9533 C   0  0  0  0  0  0
  -25.2489  -13.8193   20.5748 C   0  0  0  0  0  0
  -24.1797  -13.0435   20.9244 C   0  0  0  0  0  0
  -24.6410  -11.6912   20.8781 C   0  0  0  0  0  0
  -23.9089  -10.4283   21.0425 C   0  0  0  0  0  0
  -24.3639   -9.4195   21.9200 C   0  0  0  0  0  0
  -23.6303   -8.2238   22.0766 C   0  0  0  0  0  0
  -22.4285   -8.0295   21.3560 C   0  0  0  0  0  0
  -21.9934   -9.0263   20.4657 C   0  0  0  0  0  0
  -22.7276  -10.2127   20.3064 C   0  0  0  0  0  0
  -21.6839   -6.0753   22.5291 C   0  0  0  0  0  0
  -21.4013   -6.5657   23.8226 C   0  0  0  0  0  0
  -21.3655   -5.6803   24.9194 C   0  0  0  0  0  0
  -21.6035   -4.3066   24.7232 C   0  0  0  0  0  0
  -21.8822   -3.8162   23.4353 C   0  0  0  0  0  0
  -21.9191   -4.6978   22.3410 C   0  0  0  0  0  0
  -22.7817  -13.5219   21.1879 C   0  0  0  0  0  0
  -22.1657   -4.2176   21.0983 F   0  0  0  0  0  0
  -21.5622   -3.4547   25.7735 F   0  0  0  0  0  0
  -29.9386  -13.7356   20.3326 N   0  0  0  0  0  0
  -26.2892  -12.9411   20.3224 N   0  0  0  0  0  0
  -25.9330  -11.6549   20.5738 N   0  0  0  0  0  0
  -22.0447  -12.8195   22.0398 N   0  0  0  0  0  0
  -25.4183  -15.1936   20.4255 N   0  0  0  0  0  0
  -31.7527  -15.0523   20.2397 O   0  0  0  0  0  0
  -21.6642   -6.8891   21.4248 O   0  0  0  0  0  0
  -22.3514  -14.5537   20.6712 O   0  0  0  0  0  0
  -24.6457  -31.8408   23.1785 C   0  0  0  0  0  0
  -25.9212  -32.4662   23.8197 C   0  0  1  0  0  0
  -27.2402  -27.1081   20.1448 C   0  0  0  0  0  0
  -25.5992  -33.8474   24.2138 N   0  0  0  0  0  0
  -23.4503  -30.4566   21.5254 C   0  0  2  0  0  0
  -24.9022  -28.8744   20.1051 C   0  0  0  0  0  0
  -22.7568  -29.4538   22.4811 C   0  0  0  0  0  0
  -18.0299  -28.1398   22.8493 C   0  0  0  0  0  0
  -24.1490  -36.7226   23.2651 C   0  0  0  0  0  0
  -26.0056  -30.7080   21.3731 C   0  0  0  0  0  0
  -26.0777  -29.3132   20.7233 C   0  0  0  0  0  0
  -27.2368  -28.4473   20.7264 C   0  0  0  0  0  0
  -26.0185  -26.7693   19.5185 C   0  0  0  0  0  0
  -24.8851  -27.6149   19.4882 C   0  0  0  0  0  0
  -23.6784  -29.7769   20.1455 C   0  0  0  0  0  0
  -25.4121  -36.2990   24.0303 C   0  0  1  0  0  0
  -20.5935  -28.3721   23.1233 C   0  0  2  0  0  0
  -20.6785  -26.9425   22.5391 C   0  0  0  0  0  0
  -19.5754  -26.6387   21.5202 C   0  0  0  0  0  0
  -18.1933  -26.7948   22.1611 C   0  0  0  0  0  0
  -19.1571  -28.8865   23.2879 C   0  0  0  0  0  0
  -18.9503  -30.1479   23.8888 C   0  0  0  0  0  0
  -17.6506  -30.6597   24.0583 C   0  0  0  0  0  0
  -25.9095  -34.9378   23.5017 C   0  0  0  0  0  0
  -16.5388  -29.9110   23.6353 C   0  0  0  0  0  0
  -16.7295  -28.6535   23.0353 C   0  0  0  0  0  0
  -26.4549  -31.6535   25.0627 C   0  0  0  0  0  0
  -25.3749  -31.3723   26.1322 C   0  0  0  0  0  0
  -27.0418  -30.2955   24.6134 C   0  0  0  0  0  0
  -27.6093  -32.4283   25.7420 C   0  0  0  0  0  0
  -27.5546  -37.1745   24.8474 C   0  0  0  0  0  0
  -21.4257  -29.3071   22.3603 N   0  0  0  0  0  0
  -26.4265  -37.3712   23.9424 N   0  0  0  0  0  0
  -24.7220  -31.0222   22.0835 N   0  0  0  0  0  0
  -23.4213  -28.8115   23.2972 O   0  0  0  0  0  0
  -28.3346  -26.1547   20.2756 O   0  0  0  0  0  0
  -26.5673  -34.8899   22.4591 O   0  0  0  0  0  0
  -23.5564  -32.1314   23.6959 O   0  0  0  0  0  0
  -29.4987  -20.1784   20.4389 C   0  0  0  0  0  0
  -30.4589  -20.0595   21.4359 C   0  0  0  0  0  0
  -29.9185  -17.6965   20.5469 C   0  0  0  0  0  0
  -29.9942  -21.6883   18.5389 C   0  0  0  0  0  0
  -27.9896  -24.7009   18.2456 C   0  0  0  0  0  0
  -30.1389  -25.0749   19.4161 C   0  0  0  0  0  0
  -28.7045  -23.1618   20.3812 C   0  0  0  0  0  0
  -28.9700  -21.5761   19.6898 C   0  0  2  0  0  0
  -28.6488  -24.7369   19.6405 C   0  0  0  0  0  0
  -29.2082  -18.7798   19.9941 N   0  0  0  0  0  0
  -31.0651  -21.0678   22.1825 N   0  0  0  0  0  0
  -29.7179  -16.1803   20.3321 N   0  0  0  0  0  0
  -27.6834  -21.1369   19.1334 N   0  3  0  0  0  0
  -31.0229  -18.3902   21.7342 S   0  0  0  0  0  0
  -31.4730  -12.8137   19.1460 H   0  0  0  0  0  0
  -30.4765  -11.6890   20.0252 H   0  0  0  0  0  0
  -29.8432  -11.7134   17.5864 H   0  0  0  0  0  0
  -29.5727  -13.4366   17.6511 H   0  0  0  0  0  0
  -27.9915  -11.2506   19.0290 H   0  0  0  0  0  0
  -27.3790  -12.3620   17.8354 H   0  0  0  0  0  0
  -27.5729  -14.2274   19.3618 H   0  0  0  0  0  0
  -28.7884  -12.3437   21.4521 H   0  0  0  0  0  0
  -28.3708  -14.0221   21.7186 H   0  0  0  0  0  0
  -25.2790   -9.5663   22.4789 H   0  0  0  0  0  0
  -24.0010   -7.4626   22.7483 H   0  0  0  0  0  0
  -21.0875   -8.8795   19.8949 H   0  0  0  0  0  0
  -22.3764  -10.9676   19.6172 H   0  0  0  0  0  0
  -21.2007   -7.6169   23.9750 H   0  0  0  0  0  0
  -21.1464   -6.0530   25.9098 H   0  0  0  0  0  0
  -22.0597   -2.7625   23.2847 H   0  0  0  0  0  0
  -22.4033  -11.9833   22.4765 H   0  0  0  0  0  0
  -21.1058  -13.1205   22.2577 H   0  0  0  0  0  0
  -24.6529  -15.8438   20.5709 H   0  0  0  0  0  0
  -26.2688  -15.6485   20.1226 H   0  0  0  0  0  0
  -26.7266  -32.5260   23.0908 H   0  0  0  0  0  0
  -25.0164  -33.9601   25.0304 H   0  0  0  0  0  0
  -22.7536  -31.2806   21.3596 H   0  0  0  0  0  0
  -23.3739  -35.9582   23.3339 H   0  0  0  0  0  0
  -24.3610  -36.8817   22.2066 H   0  0  0  0  0  0
  -23.7232  -37.6412   23.6693 H   0  0  0  0  0  0
  -26.1401  -31.4514   20.5871 H   0  0  0  0  0  0
  -26.8872  -30.7825   21.9972 H   0  0  0  0  0  0
  -28.1286  -28.7839   21.2361 H   0  0  0  0  0  0
  -25.8744  -25.7935   19.0944 H   0  0  0  0  0  0
  -23.9803  -27.2598   19.0179 H   0  0  0  0  0  0
  -23.8076  -30.5491   19.3845 H   0  0  0  0  0  0
  -22.7969  -29.2094   19.8391 H   0  0  0  0  0  0
  -25.1302  -36.1800   25.0791 H   0  0  0  0  0  0
  -21.0049  -28.3280   24.1338 H   0  0  0  0  0  0
  -20.5668  -26.2322   23.3596 H   0  0  0  0  0  0
  -21.6643  -26.7396   22.1182 H   0  0  0  0  0  0
  -19.6952  -25.6310   21.1191 H   0  0  0  0  0  0
  -19.6715  -27.3227   20.6770 H   0  0  0  0  0  0
  -17.4221  -26.6727   21.4009 H   0  0  0  0  0  0
  -18.0342  -26.0081   22.8997 H   0  0  0  0  0  0
  -19.7999  -30.7304   24.2199 H   0  0  0  0  0  0
  -17.5081  -31.6275   24.5195 H   0  0  0  0  0  0
  -15.5405  -30.3019   23.7691 H   0  0  0  0  0  0
  -15.8693  -28.0870   22.7046 H   0  0  0  0  0  0
  -24.6029  -30.6950   25.7660 H   0  0  0  0  0  0
  -24.8839  -32.2891   26.4593 H   0  0  0  0  0  0
  -25.8064  -30.9035   27.0187 H   0  0  0  0  0  0
  -26.3014  -29.6662   24.1165 H   0  0  0  0  0  0
  -27.4152  -29.7238   25.4644 H   0  0  0  0  0  0
  -27.8867  -30.4249   23.9367 H   0  0  0  0  0  0
  -27.2742  -33.3684   26.1834 H   0  0  0  0  0  0
  -28.3986  -32.6646   25.0272 H   0  0  0  0  0  0
  -28.0663  -31.8478   26.5437 H   0  0  0  0  0  0
  -28.2510  -38.0085   24.7494 H   0  0  0  0  0  0
  -28.1053  -36.2573   24.6309 H   0  0  0  0  0  0
  -27.2273  -37.1388   25.8882 H   0  0  0  0  0  0
  -20.9434  -29.8824   21.6839 H   0  0  0  0  0  0
  -26.0101  -38.2761   24.1484 H   0  0  0  0  0  0
  -31.0009  -21.8228   18.9401 H   0  0  0  0  0  0
  -29.7980  -22.5000   17.8517 H   0  0  0  0  0  0
  -30.0224  -20.7784   17.9360 H   0  0  0  0  0  0
  -26.9923  -24.2695   18.2694 H   0  0  0  0  0  0
  -28.5583  -24.1377   17.5146 H   0  0  0  0  0  0
  -27.9247  -25.7049   17.8222 H   0  0  0  0  0  0
  -30.6830  -24.2977   18.8840 H   0  0  0  0  0  0
  -30.6404  -25.2049   20.3753 H   0  0  0  0  0  0
  -30.2768  -26.0046   18.8602 H   0  0  0  0  0  0
  -29.4727  -23.2601   21.1478 H   0  0  0  0  0  0
  -27.7850  -23.0814   20.9630 H   0  0  0  0  0  0
  -30.7633  -22.0361   22.2137 H   0  0  0  0  0  0
  -31.7373  -20.8566   22.9152 H   0  0  0  0  0  0
  -28.7587  -15.9478   20.1416 H   0  0  0  0  0  0
  -27.8404  -20.2646   18.6619 H   0  0  0  0  0  0
  -27.2774  -21.8003   18.5027 H   0  0  0  0  0  0
  -27.0430  -20.9493   19.8855 H   0  0  0  0  0  0
  1 25  1  0  0  0
  1 30  2  0  0  0
  1 82  1  0  0  0
  2  3  1  0  0  0
  2 25  1  0  0  0
  2 85  1  0  0  0
  2 86  1  0  0  0
  3  4  1  0  0  0
  3 87  1  0  0  0
  3 88  1  0  0  0
  4  5  1  0  0  0
  4 89  1  0  0  0
  4 90  1  0  0  0
  5  6  1  0  0  0
  5 26  1  0  0  0
  5 91  1  0  0  0
  6 25  1  0  0  0
  6 92  1  0  0  0
  6 93  1  0  0  0
  7  8  2  0  0  0
  7 26  1  0  0  0
  7 29  1  0  0  0
  8  9  1  0  0  0
  8 22  1  0  0  0
  9 10  1  0  0  0
  9 27  2  0  0  0
 10 11  2  0  0  0
 10 15  1  0  0  0
 11 12  1  0  0  0
 11 94  1  0  0  0
 12 13  2  0  0  0
 12 95  1  0  0  0
 13 14  1  0  0  0
 13 31  1  0  0  0
 14 15  2  0  0  0
 14 96  1  0  0  0
 15 97  1  0  0  0
 16 17  2  0  0  0
 16 21  1  0  0  0
 16 31  1  0  0  0
 17 18  1  0  0  0
 17 98  1  0  0  0
 18 19  2  0  0  0
 18 99  1  0  0  0
 19 20  1  0  0  0
 19 24  1  0  0  0
 20 21  2  0  0  0
 20100  1  0  0  0
 21 23  1  0  0  0
 22 28  1  0  0  0
 22 32  2  0  0  0
 26 27  1  0  0  0
 28101  1  0  0  0
 28102  1  0  0  0
 29103  1  0  0  0
 29104  1  0  0  0
 33 34  1  0  0  0
 33 66  1  0  0  0
 33 70  2  0  0  0
 34 36  1  0  0  0
 34 59  1  0  0  0
 34105  1  0  0  0
 35 44  2  0  0  0
 35 45  1  0  0  0
 35 68  1  0  0  0
 36 56  1  0  0  0
 36106  1  0  0  0
 37 39  1  0  0  0
 37 47  1  0  0  0
 37 66  1  0  0  0
 37107  1  0  0  0
 38 43  2  0  0  0
 38 46  1  0  0  0
 38 47  1  0  0  0
 39 64  1  0  0  0
 39 67  2  0  0  0
 40 52  1  0  0  0
 40 53  2  0  0  0
 40 58  1  0  0  0
 41108  1  0  0  0
 41109  1  0  0  0
 41110  1  0  0  0
 41 48  1  0  0  0
 42 43  1  0  0  0
 42 66  1  0  0  0
 42111  1  0  0  0
 42112  1  0  0  0
 43 44  1  0  0  0
 44113  1  0  0  0
 45 46  2  0  0  0
 45114  1  0  0  0
 46115  1  0  0  0
 47116  1  0  0  0
 47117  1  0  0  0
 48 56  1  0  0  0
 48 65  1  0  0  0
 48118  1  0  0  0
 49 50  1  0  0  0
 49 53  1  0  0  0
 49 64  1  0  0  0
 49119  1  0  0  0
 50 51  1  0  0  0
 50120  1  0  0  0
 50121  1  0  0  0
 51 52  1  0  0  0
 51122  1  0  0  0
 51123  1  0  0  0
 52124  1  0  0  0
 52125  1  0  0  0
 53 54  1  0  0  0
 54 55  2  0  0  0
 54126  1  0  0  0
 55 57  1  0  0  0
 55127  1  0  0  0
 56 69  2  0  0  0
 57 58  2  0  0  0
 57128  1  0  0  0
 58129  1  0  0  0
 59 60  1  0  0  0
 59 61  1  0  0  0
 59 62  1  0  0  0
 60130  1  0  0  0
 60131  1  0  0  0
 60132  1  0  0  0
 61133  1  0  0  0
 61134  1  0  0  0
 61135  1  0  0  0
 62136  1  0  0  0
 62137  1  0  0  0
 62138  1  0  0  0
 63 65  1  0  0  0
 63139  1  0  0  0
 63140  1  0  0  0
 63141  1  0  0  0
 64142  1  0  0  0
 65143  1  0  0  0
 68 79  1  0  0  0
 71 72  2  0  0  0
 71 78  1  0  0  0
 71 80  1  0  0  0
 72 81  1  0  0  0
 72 84  1  0  0  0
 73 80  2  0  0  0
 73 82  1  0  0  0
 73 84  1  0  0  0
 74144  1  0  0  0
 74145  1  0  0  0
 74146  1  0  0  0
 74 78  1  0  0  0
 75147  1  0  0  0
 75148  1  0  0  0
 75149  1  0  0  0
 75 79  1  0  0  0
 76 79  1  0  0  0
 76150  1  0  0  0
 76151  1  0  0  0
 76152  1  0  0  0
 77 78  1  0  0  0
 77 79  1  0  0  0
 77153  1  0  0  0
 77154  1  0  0  0
 78 83  1  0  0  0
 81155  1  0  0  0
 81156  1  0  0  0
 82157  1  0  0  0
 83158  1  0  0  0
 83159  1  0  0  0
 83160  1  0  0  0
M  CHG  1  83   1
M  ISO  4   1 100  68 101  79 101  82 100
M  END
> <chiral flag>
0

> <version>
0

> <s_m_source_file>
/data/baiqing/PycharmProjects/Reinvent-master-3.2/result/LINK_invent/BTK/process_docking_weight1_custom_product_contain_oxygen_bond_distance_aromatic_linkinvent_7_9_3/rearranged_h_0186.sdf

> <i_m_source_file_index>
57

> <r_mmod_Potential_Energy-OPLS-2005>
419.933013916016

> <r_mmod_Stretch_Energy-OPLS-2005>
337.456787109375

> <r_mmod_Bend_Energy-OPLS-2005>
359.410278320312

> <r_mmod_Torsional_Energy-OPLS-2005>
236.003067016602

> <r_mmod_Improper_Torsional_Energy-OPLS-2005>
9.74605369567871

> <r_mmod_Van_der_Waal_Energy-OPLS-2005>
113.581512451172

> <r_mmod_Electrostatic_Energy-OPLS-2005>
-355.682312011719

> <r_mmod_Solvation_Energy-OPLS-2005>
-505.853973388672

> <b_mmod_Minimization_Converged-OPLS-2005>
0

> <r_mmod_RMS_Derivative-OPLS-2005>
4.26522874832153

$$$$
58
                    3D
 Structure written by MMmdl.
168176  0  0  1  0            999 V2000
  -30.7696  -14.3970   20.6515 C   0  0  0  0  0  0
  -30.4393  -12.3038   19.3955 C   0  0  0  0  0  0
  -29.5123  -12.5382   18.1872 C   0  0  0  0  0  0
  -28.0292  -12.3979   18.5909 C   0  0  0  0  0  0
  -27.6790  -13.2031   19.8740 C   0  0  2  0  0  0
  -28.7200  -12.9617   20.9921 C   0  0  0  0  0  0
  -25.2679  -13.8065   20.5655 C   0  0  0  0  0  0
  -24.1945  -13.0409   20.9186 C   0  0  0  0  0  0
  -24.6498  -11.6841   20.8726 C   0  0  0  0  0  0
  -23.9182  -10.4227   21.0438 C   0  0  0  0  0  0
  -24.3661   -9.4123   21.9282 C   0  0  0  0  0  0
  -23.6270   -8.2195   22.0844 C   0  0  0  0  0  0
  -22.4260   -8.0263   21.3602 C   0  0  0  0  0  0
  -21.9939   -9.0289   20.4721 C   0  0  0  0  0  0
  -22.7319  -10.2125   20.3128 C   0  0  0  0  0  0
  -21.6821   -6.0726   22.5330 C   0  0  0  0  0  0
  -21.4005   -6.5629   23.8266 C   0  0  0  0  0  0
  -21.3668   -5.6787   24.9242 C   0  0  0  0  0  0
  -21.6006   -4.3049   24.7274 C   0  0  0  0  0  0
  -21.8813   -3.8135   23.4407 C   0  0  0  0  0  0
  -21.9179   -4.6957   22.3451 C   0  0  0  0  0  0
  -22.7939  -13.5233   21.1790 C   0  0  0  0  0  0
  -22.1634   -4.2135   21.1032 F   0  0  0  0  0  0
  -21.5648   -3.4533   25.7793 F   0  0  0  0  0  0
  -30.0575  -13.2558   20.4482 N   0  0  0  0  0  0
  -26.3165  -12.9291   20.3346 N   0  0  0  0  0  0
  -25.9431  -11.6457   20.5744 N   0  0  0  0  0  0
  -22.0467  -12.8355   22.0295 N   0  0  0  0  0  0
  -25.4360  -15.1794   20.4113 N   0  0  0  0  0  0
  -31.8106  -14.6649   20.0458 O   0  0  0  0  0  0
  -21.6592   -6.8880   21.4283 O   0  0  0  0  0  0
  -22.3681  -14.5591   20.6589 O   0  0  0  0  0  0
  -24.6125  -31.8598   23.2133 C   0  0  0  0  0  0
  -25.9047  -32.4852   23.8473 C   0  0  1  0  0  0
  -27.3264  -27.4970   20.1544 C   0  0  0  0  0  0
  -25.5888  -33.8636   24.2454 N   0  0  0  0  0  0
  -23.4180  -30.4680   21.5401 C   0  0  2  0  0  0
  -24.8986  -28.9455   20.1161 C   0  0  0  0  0  0
  -22.7504  -29.4509   22.4932 C   0  0  0  0  0  0
  -18.0282  -28.1357   22.8288 C   0  0  0  0  0  0
  -24.1470  -36.7286   23.2633 C   0  0  0  0  0  0
  -25.9309  -30.8684   21.3437 C   0  0  0  0  0  0
  -26.0398  -29.5083   20.6969 C   0  0  0  0  0  0
  -27.2549  -28.7941   20.7024 C   0  0  0  0  0  0
  -26.1762  -26.9530   19.5288 C   0  0  0  0  0  0
  -24.9638  -27.6725   19.5158 C   0  0  0  0  0  0
  -23.6442  -29.7830   20.1628 C   0  0  0  0  0  0
  -25.4069  -36.3142   24.0383 C   0  0  1  0  0  0
  -20.5848  -28.3587   23.1266 C   0  0  2  0  0  0
  -20.6799  -26.9334   22.5338 C   0  0  0  0  0  0
  -19.5820  -26.6362   21.5071 C   0  0  0  0  0  0
  -18.2005  -26.7849   22.1499 C   0  0  0  0  0  0
  -19.1518  -28.8761   23.2818 C   0  0  0  0  0  0
  -18.9470  -30.1350   23.8854 C   0  0  0  0  0  0
  -17.6490  -30.6456   24.0621 C   0  0  0  0  0  0
  -25.8991  -34.9484   23.5187 C   0  0  0  0  0  0
  -16.5392  -29.9013   23.6246 C   0  0  0  0  0  0
  -16.7282  -28.6461   23.0172 C   0  0  0  0  0  0
  -26.4471  -31.6625   25.0766 C   0  0  0  0  0  0
  -25.3770  -31.3711   26.1563 C   0  0  0  0  0  0
  -27.0323  -30.3124   24.6013 C   0  0  0  0  0  0
  -27.6065  -32.4288   25.7504 C   0  0  0  0  0  0
  -27.5588  -37.1809   24.8486 C   0  0  0  0  0  0
  -21.4197  -29.3027   22.3793 N   0  0  0  0  0  0
  -26.4283  -37.3818   23.9435 N   0  0  0  0  0  0
  -24.6732  -31.0727   22.0980 N   0  0  0  0  0  0
  -23.4263  -28.8028   23.2962 O   0  0  0  0  0  0
  -28.5255  -26.8289   20.2953 O   0  0  0  0  0  0
  -26.5536  -34.8933   22.4724 O   0  0  0  0  0  0
  -23.5299  -32.1356   23.7518 O   0  0  0  0  0  0
  -29.5404  -18.3496   23.1861 C   0  0  0  0  0  0
  -29.9999  -17.6369   22.0999 C   0  0  0  0  0  0
  -28.7594  -19.6832   21.5107 C   0  0  0  0  0  0
  -27.6188  -21.9054   21.4332 C   0  0  0  0  0  0
  -28.4701  -18.0160   25.4439 C   0  0  0  0  0  0
  -30.7957  -19.0540   25.2408 C   0  0  0  0  0  0
  -26.1836  -23.2613   19.8034 C   0  0  0  0  0  0
  -26.9975  -25.1714   22.1271 C   0  0  0  0  0  0
  -30.9099  -16.4359   22.0829 C   0  0  0  0  0  0
  -28.6291  -25.4255   20.0936 C   0  0  0  0  0  0
  -29.7820  -18.0650   24.6467 C   0  0  0  0  0  0
  -27.5453  -23.1571   20.5352 C   0  0  1  0  0  0
  -28.0329  -24.4948   21.1924 C   0  0  2  0  0  0
  -28.8495  -19.5158   22.8342 N   0  0  0  0  0  0
  -28.2486  -20.8460   20.8898 N   0  0  0  0  0  0
  -30.2725  -15.2160   21.5876 N   0  0  0  0  0  0
  -27.0738  -21.9055   22.5380 O   0  0  0  0  0  0
  -29.5059  -18.3800   20.5954 S   0  0  0  0  0  0
  -31.4880  -12.4022   19.0944 H   0  0  0  0  0  0
  -30.3376  -11.2799   19.7631 H   0  0  0  0  0  0
  -29.7558  -11.8332   17.3900 H   0  0  0  0  0  0
  -29.7014  -13.5359   17.7812 H   0  0  0  0  0  0
  -27.8175  -11.3376   18.7400 H   0  0  0  0  0  0
  -27.3974  -12.7196   17.7621 H   0  0  0  0  0  0
  -27.7352  -14.2593   19.6069 H   0  0  0  0  0  0
  -28.6999  -11.9232   21.3284 H   0  0  0  0  0  0
  -28.4655  -13.5545   21.8730 H   0  0  0  0  0  0
  -25.2831   -9.5509   22.4869 H   0  0  0  0  0  0
  -23.9944   -7.4556   22.7578 H   0  0  0  0  0  0
  -21.0871   -8.8838   19.9027 H   0  0  0  0  0  0
  -22.3863  -10.9680   19.6206 H   0  0  0  0  0  0
  -21.1971   -7.6124   23.9788 H   0  0  0  0  0  0
  -21.1511   -6.0512   25.9154 H   0  0  0  0  0  0
  -22.0576   -2.7585   23.2933 H   0  0  0  0  0  0
  -22.3904  -12.0005   22.4836 H   0  0  0  0  0  0
  -21.1131  -13.1613   22.2395 H   0  0  0  0  0  0
  -24.6646  -15.8248   20.5270 H   0  0  0  0  0  0
  -26.2894  -15.6389   20.1253 H   0  0  0  0  0  0
  -26.7183  -32.5659   23.1311 H   0  0  0  0  0  0
  -25.0235  -33.9834   25.0754 H   0  0  0  0  0  0
  -22.7205  -31.2839   21.3747 H   0  0  0  0  0  0
  -23.3763  -35.9605   23.3323 H   0  0  0  0  0  0
  -24.3565  -36.8836   22.2050 H   0  0  0  0  0  0
  -23.7215  -37.6481   23.6598 H   0  0  0  0  0  0
  -26.0319  -31.6362   20.5763 H   0  0  0  0  0  0
  -26.8192  -30.9397   21.9615 H   0  0  0  0  0  0
  -28.1295  -29.2473   21.1587 H   0  0  0  0  0  0
  -26.2196  -25.9592   19.1074 H   0  0  0  0  0  0
  -24.0865  -27.2293   19.0843 H   0  0  0  0  0  0
  -23.7857  -30.5489   19.3991 H   0  0  0  0  0  0
  -22.7853  -29.1849   19.8432 H   0  0  0  0  0  0
  -25.1251  -36.2042   25.0892 H   0  0  0  0  0  0
  -20.9958  -28.3138   24.1366 H   0  0  0  0  0  0
  -20.5597  -26.2268   23.3574 H   0  0  0  0  0  0
  -21.6692  -26.7320   22.1226 H   0  0  0  0  0  0
  -19.6659  -27.3183   20.6586 H   0  0  0  0  0  0
  -19.6970  -25.6263   21.1129 H   0  0  0  0  0  0
  -17.4210  -26.6370   21.4009 H   0  0  0  0  0  0
  -18.0586  -26.0016   22.8965 H   0  0  0  0  0  0
  -19.7966  -30.7072   24.2293 H   0  0  0  0  0  0
  -17.5034  -31.6052   24.5378 H   0  0  0  0  0  0
  -15.5386  -30.2887   23.7459 H   0  0  0  0  0  0
  -15.8693  -28.0842   22.6738 H   0  0  0  0  0  0
  -24.5921  -30.7068   25.7961 H   0  0  0  0  0  0
  -24.8970  -32.2847   26.5064 H   0  0  0  0  0  0
  -25.8168  -30.8898   27.0321 H   0  0  0  0  0  0
  -26.2905  -29.6872   24.1048 H   0  0  0  0  0  0
  -27.4225  -29.7345   25.4400 H   0  0  0  0  0  0
  -27.8649  -30.4542   23.9122 H   0  0  0  0  0  0
  -27.2758  -33.3575   26.2146 H   0  0  0  0  0  0
  -28.3847  -32.6842   25.0313 H   0  0  0  0  0  0
  -28.0768  -31.8375   26.5370 H   0  0  0  0  0  0
  -28.2631  -38.0098   24.7516 H   0  0  0  0  0  0
  -28.1098  -36.2613   24.6356 H   0  0  0  0  0  0
  -27.2307  -37.1515   25.8905 H   0  0  0  0  0  0
  -20.9450  -29.8987   21.7167 H   0  0  0  0  0  0
  -26.0203  -38.2906   24.1461 H   0  0  0  0  0  0
  -27.8145  -17.2292   25.0646 H   0  0  0  0  0  0
  -27.9286  -18.9635   25.3948 H   0  0  0  0  0  0
  -28.6759  -17.7997   26.4943 H   0  0  0  0  0  0
  -31.7402  -19.0204   24.6950 H   0  0  0  0  0  0
  -31.0116  -18.8090   26.2815 H   0  0  0  0  0  0
  -30.4224  -20.0785   25.2045 H   0  0  0  0  0  0
  -25.7792  -22.3010   19.4662 H   0  0  0  0  0  0
  -26.3191  -23.8814   18.9229 H   0  0  0  0  0  0
  -25.4100  -23.7249   20.4121 H   0  0  0  0  0  0
  -26.6534  -24.5497   22.9466 H   0  0  0  0  0  0
  -27.4804  -26.0445   22.5764 H   0  0  0  0  0  0
  -26.1000  -25.5065   21.5984 H   0  0  0  0  0  0
  -31.2893  -16.2222   23.0817 H   0  0  0  0  0  0
  -31.8105  -16.6720   21.5106 H   0  0  0  0  0  0
  -29.7115  -25.2152   20.0788 H   0  0  0  0  0  0
  -28.2654  -25.1946   19.0904 H   0  0  0  0  0  0
  -30.2142  -17.0729   24.7643 H   0  0  0  0  0  0
  -28.2850  -22.9692   19.7447 H   0  0  0  0  0  0
  -28.8741  -24.2356   21.8499 H   0  0  0  0  0  0
  -28.5023  -20.9450   19.9170 H   0  0  0  0  0  0
  -29.4179  -14.9263   22.0348 H   0  0  0  0  0  0
  1 25  1  0  0  0
  1 30  2  0  0  0
  1 86  1  0  0  0
  2  3  1  0  0  0
  2 25  1  0  0  0
  2 89  1  0  0  0
  2 90  1  0  0  0
  3  4  1  0  0  0
  3 91  1  0  0  0
  3 92  1  0  0  0
  4  5  1  0  0  0
  4 93  1  0  0  0
  4 94  1  0  0  0
  5  6  1  0  0  0
  5 26  1  0  0  0
  5 95  1  0  0  0
  6 25  1  0  0  0
  6 96  1  0  0  0
  6 97  1  0  0  0
  7  8  2  0  0  0
  7 26  1  0  0  0
  7 29  1  0  0  0
  8  9  1  0  0  0
  8 22  1  0  0  0
  9 10  1  0  0  0
  9 27  2  0  0  0
 10 11  2  0  0  0
 10 15  1  0  0  0
 11 12  1  0  0  0
 11 98  1  0  0  0
 12 13  2  0  0  0
 12 99  1  0  0  0
 13 14  1  0  0  0
 13 31  1  0  0  0
 14 15  2  0  0  0
 14100  1  0  0  0
 15101  1  0  0  0
 16 17  2  0  0  0
 16 21  1  0  0  0
 16 31  1  0  0  0
 17 18  1  0  0  0
 17102  1  0  0  0
 18 19  2  0  0  0
 18103  1  0  0  0
 19 20  1  0  0  0
 19 24  1  0  0  0
 20 21  2  0  0  0
 20104  1  0  0  0
 21 23  1  0  0  0
 22 28  1  0  0  0
 22 32  2  0  0  0
 26 27  1  0  0  0
 28105  1  0  0  0
 28106  1  0  0  0
 29107  1  0  0  0
 29108  1  0  0  0
 33 34  1  0  0  0
 33 66  1  0  0  0
 33 70  2  0  0  0
 34 36  1  0  0  0
 34 59  1  0  0  0
 34109  1  0  0  0
 35 44  2  0  0  0
 35 45  1  0  0  0
 35 68  1  0  0  0
 36 56  1  0  0  0
 36110  1  0  0  0
 37 39  1  0  0  0
 37 47  1  0  0  0
 37 66  1  0  0  0
 37111  1  0  0  0
 38 43  2  0  0  0
 38 46  1  0  0  0
 38 47  1  0  0  0
 39 64  1  0  0  0
 39 67  2  0  0  0
 40 52  1  0  0  0
 40 53  2  0  0  0
 40 58  1  0  0  0
 41112  1  0  0  0
 41113  1  0  0  0
 41114  1  0  0  0
 41 48  1  0  0  0
 42 43  1  0  0  0
 42 66  1  0  0  0
 42115  1  0  0  0
 42116  1  0  0  0
 43 44  1  0  0  0
 44117  1  0  0  0
 45 46  2  0  0  0
 45118  1  0  0  0
 46119  1  0  0  0
 47120  1  0  0  0
 47121  1  0  0  0
 48 56  1  0  0  0
 48 65  1  0  0  0
 48122  1  0  0  0
 49 50  1  0  0  0
 49 53  1  0  0  0
 49 64  1  0  0  0
 49123  1  0  0  0
 50 51  1  0  0  0
 50124  1  0  0  0
 50125  1  0  0  0
 51 52  1  0  0  0
 51126  1  0  0  0
 51127  1  0  0  0
 52128  1  0  0  0
 52129  1  0  0  0
 53 54  1  0  0  0
 54 55  2  0  0  0
 54130  1  0  0  0
 55 57  1  0  0  0
 55131  1  0  0  0
 56 69  2  0  0  0
 57 58  2  0  0  0
 57132  1  0  0  0
 58133  1  0  0  0
 59 60  1  0  0  0
 59 61  1  0  0  0
 59 62  1  0  0  0
 60134  1  0  0  0
 60135  1  0  0  0
 60136  1  0  0  0
 61137  1  0  0  0
 61138  1  0  0  0
 61139  1  0  0  0
 62140  1  0  0  0
 62141  1  0  0  0
 62142  1  0  0  0
 63 65  1  0  0  0
 63143  1  0  0  0
 63144  1  0  0  0
 63145  1  0  0  0
 64146  1  0  0  0
 65147  1  0  0  0
 68 80  1  0  0  0
 71 72  2  0  0  0
 71 81  1  0  0  0
 71 84  1  0  0  0
 72 79  1  0  0  0
 72 88  1  0  0  0
 73 84  2  0  0  0
 73 85  1  0  0  0
 73 88  1  0  0  0
 74 82  1  0  0  0
 74 85  1  0  0  0
 74 87  2  0  0  0
 75148  1  0  0  0
 75149  1  0  0  0
 75150  1  0  0  0
 75 81  1  0  0  0
 76 81  1  0  0  0
 76151  1  0  0  0
 76152  1  0  0  0
 76153  1  0  0  0
 77154  1  0  0  0
 77155  1  0  0  0
 77156  1  0  0  0
 77 82  1  0  0  0
 78157  1  0  0  0
 78158  1  0  0  0
 78159  1  0  0  0
 78 83  1  0  0  0
 79 86  1  0  0  0
 79160  1  0  0  0
 79161  1  0  0  0
 80 83  1  0  0  0
 80162  1  0  0  0
 80163  1  0  0  0
 81164  1  0  0  0
 82 83  1  0  0  0
 82165  1  0  0  0
 83166  1  0  0  0
 85167  1  0  0  0
 86168  1  0  0  0
M  ISO  4   1 100  68 101  80 101  86 100
M  END
> <chiral flag>
0

> <version>
0

> <s_m_source_file>
/data/baiqing/PycharmProjects/Reinvent-master-3.2/result/LINK_invent/BTK/process_docking_weight1_custom_product_contain_oxygen_bond_distance_aromatic_linkinvent_7_9_3/rearranged_h_0186.sdf

> <i_m_source_file_index>
58

> <r_mmod_Potential_Energy-OPLS-2005>
-174.07453918457

> <r_mmod_Stretch_Energy-OPLS-2005>
39.3675117492676

> <r_mmod_Bend_Energy-OPLS-2005>
131.053802490234

> <r_mmod_Torsional_Energy-OPLS-2005>
202.726699829102

> <r_mmod_Improper_Torsional_Energy-OPLS-2005>
3.14500308036804

> <r_mmod_Van_der_Waal_Energy-OPLS-2005>
137.395553588867

> <r_mmod_Electrostatic_Energy-OPLS-2005>
-469.961578369141

> <r_mmod_Solvation_Energy-OPLS-2005>
-238.418029785156

> <b_mmod_Minimization_Converged-OPLS-2005>
0

> <r_mmod_RMS_Derivative-OPLS-2005>
15.2295589447021

$$$$
59
                    3D
 Structure written by MMmdl.
149157  0  0  1  0            999 V2000
  -30.5907  -14.7505   20.4706 C   0  0  0  0  0  0
  -30.4420  -12.4569   19.4782 C   0  0  0  0  0  0
  -29.5158  -12.5153   18.2414 C   0  0  0  0  0  0
  -28.0412  -12.3366   18.6519 C   0  0  0  0  0  0
  -27.6485  -13.2281   19.8596 C   0  0  2  0  0  0
  -28.6920  -13.1384   20.9961 C   0  0  0  0  0  0
  -25.2539  -13.8189   20.5698 C   0  0  0  0  0  0
  -24.1818  -13.0441   20.9200 C   0  0  0  0  0  0
  -24.6400  -11.6916   20.8742 C   0  0  0  0  0  0
  -23.9071  -10.4295   21.0403 C   0  0  0  0  0  0
  -24.3620   -9.4209   21.9182 C   0  0  0  0  0  0
  -23.6293   -8.2245   22.0753 C   0  0  0  0  0  0
  -22.4276   -8.0282   21.3543 C   0  0  0  0  0  0
  -21.9913   -9.0256   20.4646 C   0  0  0  0  0  0
  -22.7243  -10.2135   20.3054 C   0  0  0  0  0  0
  -21.6855   -6.0736   22.5277 C   0  0  0  0  0  0
  -21.4015   -6.5639   23.8210 C   0  0  0  0  0  0
  -21.3660   -5.6792   24.9171 C   0  0  0  0  0  0
  -21.6044   -4.3055   24.7223 C   0  0  0  0  0  0
  -21.8819   -3.8146   23.4346 C   0  0  0  0  0  0
  -21.9193   -4.6963   22.3402 C   0  0  0  0  0  0
  -22.7837  -13.5226   21.1859 C   0  0  0  0  0  0
  -22.1662   -4.2149   21.0980 F   0  0  0  0  0  0
  -21.5629   -3.4540   25.7736 F   0  0  0  0  0  0
  -29.9987  -13.5043   20.4292 N   0  0  0  0  0  0
  -26.2971  -12.9389   20.3308 N   0  0  0  0  0  0
  -25.9333  -11.6534   20.5757 N   0  0  0  0  0  0
  -22.0482  -12.8216   22.0416 N   0  0  0  0  0  0
  -25.4241  -15.1912   20.4115 N   0  0  0  0  0  0
  -31.7527  -14.8878   20.0723 O   0  0  0  0  0  0
  -21.6639   -6.8879   21.4239 O   0  0  0  0  0  0
  -22.3524  -14.5534   20.6707 O   0  0  0  0  0  0
  -24.6329  -31.8537   23.1983 C   0  0  0  0  0  0
  -25.9147  -32.4745   23.8331 C   0  0  1  0  0  0
  -27.2160  -27.2471   20.1314 C   0  0  0  0  0  0
  -25.5935  -33.8548   24.2244 N   0  0  0  0  0  0
  -23.4307  -30.4770   21.5414 C   0  0  2  0  0  0
  -24.8796  -28.9284   20.1042 C   0  0  0  0  0  0
  -22.7516  -29.4590   22.4900 C   0  0  0  0  0  0
  -18.0292  -28.1388   22.8478 C   0  0  0  0  0  0
  -24.1492  -36.7280   23.2641 C   0  0  0  0  0  0
  -25.9788  -30.7622   21.3825 C   0  0  0  0  0  0
  -26.0515  -29.3857   20.7205 C   0  0  0  0  0  0
  -27.2227  -28.5576   20.7236 C   0  0  0  0  0  0
  -26.0293  -26.8784   19.4577 C   0  0  0  0  0  0
  -24.8752  -27.6837   19.4595 C   0  0  0  0  0  0
  -23.6498  -29.8147   20.1562 C   0  0  0  0  0  0
  -25.4120  -36.3065   24.0324 C   0  0  1  0  0  0
  -20.5900  -28.3698   23.1260 C   0  0  2  0  0  0
  -20.6780  -26.9413   22.5407 C   0  0  0  0  0  0
  -19.5755  -26.6382   21.5211 C   0  0  0  0  0  0
  -18.1935  -26.7929   22.1623 C   0  0  0  0  0  0
  -19.1547  -28.8861   23.2860 C   0  0  0  0  0  0
  -18.9469  -30.1459   23.8882 C   0  0  0  0  0  0
  -17.6470  -30.6587   24.0560 C   0  0  0  0  0  0
  -25.9060  -34.9435   23.5086 C   0  0  0  0  0  0
  -16.5358  -29.9083   23.6336 C   0  0  0  0  0  0
  -16.7279  -28.6503   23.0351 C   0  0  0  0  0  0
  -26.4508  -31.6578   25.0727 C   0  0  0  0  0  0
  -25.3723  -31.3737   26.1441 C   0  0  0  0  0  0
  -27.0362  -30.2990   24.6236 C   0  0  0  0  0  0
  -27.6054  -32.4328   25.7502 C   0  0  0  0  0  0
  -27.5575  -37.1795   24.8467 C   0  0  0  0  0  0
  -21.4222  -29.3040   22.3647 N   0  0  0  0  0  0
  -26.4291  -37.3764   23.9407 N   0  0  0  0  0  0
  -24.6997  -31.0489   22.0966 N   0  0  0  0  0  0
  -23.4209  -28.8124   23.3001 O   0  0  0  0  0  0
  -28.2835  -26.3132   20.2299 O   0  0  0  0  0  0
  -26.5637  -34.8913   22.4658 O   0  0  0  0  0  0
  -23.5474  -32.1365   23.7268 O   0  0  0  0  0  0
  -29.8583  -19.3072   19.4408 C   0  0  0  0  0  0
  -29.6910  -19.9247   20.6736 C   0  0  0  0  0  0
  -29.8851  -17.2887   20.6354 C   0  0  0  0  0  0
  -29.7692  -21.3806   21.0800 C   0  0  0  0  0  0
  -29.2112  -23.8161   20.5065 C   0  0  0  0  0  0
  -26.9877  -24.5540   21.4389 C   0  0  0  0  0  0
  -27.9778  -24.8206   20.2795 C   0  0  1  0  0  0
  -29.9769  -17.8771   19.4282 N   0  0  0  0  0  0
  -29.8114  -15.8252   20.8676 N   0  0  0  0  0  0
  -29.0675  -22.4162   20.4360 N   0  0  0  0  0  0
  -30.2956  -24.3580   20.7549 O   0  0  0  0  0  0
  -30.7656  -21.6465   22.4139 S   0  0  0  0  0  0
  -29.5773  -18.5658   21.8605 S   0  0  0  0  0  0
  -31.4817  -12.5898   19.1745 H   0  0  0  0  0  0
  -30.3952  -11.4739   19.9491 H   0  0  0  0  0  0
  -29.7987  -11.7462   17.5216 H   0  0  0  0  0  0
  -29.6415  -13.4724   17.7323 H   0  0  0  0  0  0
  -27.8963  -11.2862   18.9074 H   0  0  0  0  0  0
  -27.3846  -12.5359   17.8043 H   0  0  0  0  0  0
  -27.6506  -14.2546   19.4917 H   0  0  0  0  0  0
  -28.7263  -12.1293   21.4091 H   0  0  0  0  0  0
  -28.4186  -13.7914   21.8259 H   0  0  0  0  0  0
  -25.2766   -9.5686   22.4757 H   0  0  0  0  0  0
  -24.0003   -7.4637   22.7474 H   0  0  0  0  0  0
  -21.0844   -8.8777   19.8952 H   0  0  0  0  0  0
  -22.3702  -10.9673   19.6164 H   0  0  0  0  0  0
  -21.2007   -7.6146   23.9713 H   0  0  0  0  0  0
  -21.1482   -6.0522   25.9074 H   0  0  0  0  0  0
  -22.0599   -2.7609   23.2846 H   0  0  0  0  0  0
  -22.4099  -11.9877   22.4801 H   0  0  0  0  0  0
  -21.1099  -13.1235   22.2621 H   0  0  0  0  0  0
  -24.6548  -15.8440   20.5172 H   0  0  0  0  0  0
  -26.2677  -15.6287   20.0636 H   0  0  0  0  0  0
  -26.7208  -32.5390   23.1067 H   0  0  0  0  0  0
  -25.0074  -33.9681   25.0383 H   0  0  0  0  0  0
  -22.7279  -31.2998   21.3959 H   0  0  0  0  0  0
  -23.3750  -35.9617   23.3313 H   0  0  0  0  0  0
  -24.3576  -36.8900   22.2054 H   0  0  0  0  0  0
  -23.7251  -37.6485   23.6664 H   0  0  0  0  0  0
  -26.1223  -31.5247   20.6156 H   0  0  0  0  0  0
  -26.8541  -30.8076   22.0185 H   0  0  0  0  0  0
  -28.1139  -28.8955   21.2336 H   0  0  0  0  0  0
  -25.9558  -25.9294   18.9495 H   0  0  0  0  0  0
  -23.9820  -27.3322   18.9613 H   0  0  0  0  0  0
  -23.7732  -30.5930   19.4021 H   0  0  0  0  0  0
  -22.7679  -29.2486   19.8506 H   0  0  0  0  0  0
  -25.1303  -36.1910   25.0818 H   0  0  0  0  0  0
  -20.9985  -28.3279   24.1383 H   0  0  0  0  0  0
  -20.5681  -26.2309   23.3614 H   0  0  0  0  0  0
  -21.6647  -26.7436   22.1198 H   0  0  0  0  0  0
  -19.6920  -25.6291   21.1244 H   0  0  0  0  0  0
  -19.6694  -27.3190   20.6739 H   0  0  0  0  0  0
  -17.4204  -26.6670   21.4027 H   0  0  0  0  0  0
  -18.0331  -26.0077   22.9026 H   0  0  0  0  0  0
  -19.7948  -30.7274   24.2248 H   0  0  0  0  0  0
  -17.5026  -31.6269   24.5160 H   0  0  0  0  0  0
  -15.5357  -30.2979   23.7672 H   0  0  0  0  0  0
  -15.8680  -28.0820   22.7071 H   0  0  0  0  0  0
  -24.5905  -30.7080   25.7766 H   0  0  0  0  0  0
  -24.8907  -32.2911   26.4838 H   0  0  0  0  0  0
  -25.8031  -30.8932   27.0234 H   0  0  0  0  0  0
  -26.2957  -29.6725   24.1250 H   0  0  0  0  0  0
  -27.4020  -29.7266   25.4770 H   0  0  0  0  0  0
  -27.8848  -30.4254   23.9507 H   0  0  0  0  0  0
  -27.2657  -33.3639   26.2049 H   0  0  0  0  0  0
  -28.3879  -32.6871   25.0339 H   0  0  0  0  0  0
  -28.0706  -31.8476   26.5442 H   0  0  0  0  0  0
  -28.2596  -38.0087   24.7497 H   0  0  0  0  0  0
  -28.1067  -36.2614   24.6316 H   0  0  0  0  0  0
  -27.2288  -37.1475   25.8868 H   0  0  0  0  0  0
  -20.9411  -29.8769   21.6855 H   0  0  0  0  0  0
  -26.0170  -38.2841   24.1398 H   0  0  0  0  0  0
  -29.9914  -19.8237   18.5003 H   0  0  0  0  0  0
  -26.7834  -23.4901   21.5627 H   0  0  0  0  0  0
  -26.0198  -25.0283   21.2913 H   0  0  0  0  0  0
  -27.3899  -24.9200   22.3842 H   0  0  0  0  0  0
  -27.5311  -24.5190   19.3324 H   0  0  0  0  0  0
  -28.9811  -15.5410   21.3629 H   0  0  0  0  0  0
  -28.2705  -22.1090   19.9016 H   0  0  0  0  0  0
  1 25  1  0  0  0
  1 30  2  0  0  0
  1 79  1  0  0  0
  2  3  1  0  0  0
  2 25  1  0  0  0
  2 84  1  0  0  0
  2 85  1  0  0  0
  3  4  1  0  0  0
  3 86  1  0  0  0
  3 87  1  0  0  0
  4  5  1  0  0  0
  4 88  1  0  0  0
  4 89  1  0  0  0
  5  6  1  0  0  0
  5 26  1  0  0  0
  5 90  1  0  0  0
  6 25  1  0  0  0
  6 91  1  0  0  0
  6 92  1  0  0  0
  7  8  2  0  0  0
  7 26  1  0  0  0
  7 29  1  0  0  0
  8  9  1  0  0  0
  8 22  1  0  0  0
  9 10  1  0  0  0
  9 27  2  0  0  0
 10 11  2  0  0  0
 10 15  1  0  0  0
 11 12  1  0  0  0
 11 93  1  0  0  0
 12 13  2  0  0  0
 12 94  1  0  0  0
 13 14  1  0  0  0
 13 31  1  0  0  0
 14 15  2  0  0  0
 14 95  1  0  0  0
 15 96  1  0  0  0
 16 17  2  0  0  0
 16 21  1  0  0  0
 16 31  1  0  0  0
 17 18  1  0  0  0
 17 97  1  0  0  0
 18 19  2  0  0  0
 18 98  1  0  0  0
 19 20  1  0  0  0
 19 24  1  0  0  0
 20 21  2  0  0  0
 20 99  1  0  0  0
 21 23  1  0  0  0
 22 28  1  0  0  0
 22 32  2  0  0  0
 26 27  1  0  0  0
 28100  1  0  0  0
 28101  1  0  0  0
 29102  1  0  0  0
 29103  1  0  0  0
 33 34  1  0  0  0
 33 66  1  0  0  0
 33 70  2  0  0  0
 34 36  1  0  0  0
 34 59  1  0  0  0
 34104  1  0  0  0
 35 44  2  0  0  0
 35 45  1  0  0  0
 35 68  1  0  0  0
 36 56  1  0  0  0
 36105  1  0  0  0
 37 39  1  0  0  0
 37 47  1  0  0  0
 37 66  1  0  0  0
 37106  1  0  0  0
 38 43  2  0  0  0
 38 46  1  0  0  0
 38 47  1  0  0  0
 39 64  1  0  0  0
 39 67  2  0  0  0
 40 52  1  0  0  0
 40 53  2  0  0  0
 40 58  1  0  0  0
 41107  1  0  0  0
 41108  1  0  0  0
 41109  1  0  0  0
 41 48  1  0  0  0
 42 43  1  0  0  0
 42 66  1  0  0  0
 42110  1  0  0  0
 42111  1  0  0  0
 43 44  1  0  0  0
 44112  1  0  0  0
 45 46  2  0  0  0
 45113  1  0  0  0
 46114  1  0  0  0
 47115  1  0  0  0
 47116  1  0  0  0
 48 56  1  0  0  0
 48 65  1  0  0  0
 48117  1  0  0  0
 49 50  1  0  0  0
 49 53  1  0  0  0
 49 64  1  0  0  0
 49118  1  0  0  0
 50 51  1  0  0  0
 50119  1  0  0  0
 50120  1  0  0  0
 51 52  1  0  0  0
 51121  1  0  0  0
 51122  1  0  0  0
 52123  1  0  0  0
 52124  1  0  0  0
 53 54  1  0  0  0
 54 55  2  0  0  0
 54125  1  0  0  0
 55 57  1  0  0  0
 55126  1  0  0  0
 56 69  2  0  0  0
 57 58  2  0  0  0
 57127  1  0  0  0
 58128  1  0  0  0
 59 60  1  0  0  0
 59 61  1  0  0  0
 59 62  1  0  0  0
 60129  1  0  0  0
 60130  1  0  0  0
 60131  1  0  0  0
 61132  1  0  0  0
 61133  1  0  0  0
 61134  1  0  0  0
 62135  1  0  0  0
 62136  1  0  0  0
 62137  1  0  0  0
 63 65  1  0  0  0
 63138  1  0  0  0
 63139  1  0  0  0
 63140  1  0  0  0
 64141  1  0  0  0
 65142  1  0  0  0
 68 77  1  0  0  0
 71 72  2  0  0  0
 71 78  1  0  0  0
 71143  1  0  0  0
 72 74  1  0  0  0
 72 83  1  0  0  0
 73 78  2  0  0  0
 73 79  1  0  0  0
 73 83  1  0  0  0
 74 80  1  0  0  0
 74 82  2  0  0  0
 75 77  1  0  0  0
 75 80  1  0  0  0
 75 81  2  0  0  0
 76144  1  0  0  0
 76145  1  0  0  0
 76146  1  0  0  0
 76 77  1  0  0  0
 77147  1  0  0  0
 79148  1  0  0  0
 80149  1  0  0  0
M  ISO  4   1 100  68 101  77 101  79 100
M  END
> <chiral flag>
0

> <version>
0

> <s_m_source_file>
/data/baiqing/PycharmProjects/Reinvent-master-3.2/result/LINK_invent/BTK/process_docking_weight1_custom_product_contain_oxygen_bond_distance_aromatic_linkinvent_7_9_3/rearranged_h_0186.sdf

> <i_m_source_file_index>
59

> <r_mmod_Potential_Energy-OPLS-2005>
69.7018890380859

> <r_mmod_Stretch_Energy-OPLS-2005>
130.910491943359

> <r_mmod_Bend_Energy-OPLS-2005>
173.938613891602

> <r_mmod_Torsional_Energy-OPLS-2005>
277.588195800781

> <r_mmod_Improper_Torsional_Energy-OPLS-2005>
4.6759786605835

> <r_mmod_Van_der_Waal_Energy-OPLS-2005>
139.98681640625

> <r_mmod_Electrostatic_Energy-OPLS-2005>
-450.020629882812

> <r_mmod_Solvation_Energy-OPLS-2005>
-301.096496582031

> <b_mmod_Minimization_Converged-OPLS-2005>
0

> <r_mmod_RMS_Derivative-OPLS-2005>
0.557021379470825

$$$$
60
                    3D
 Structure written by MMmdl.
154162  0  0  1  0            999 V2000
  -30.6278  -14.7253   20.4771 C   0  0  0  0  0  0
  -30.4248  -12.4350   19.4944 C   0  0  0  0  0  0
  -29.5181  -12.4875   18.2472 C   0  0  0  0  0  0
  -28.0389  -12.3300   18.6480 C   0  0  0  0  0  0
  -27.6362  -13.2352   19.8447 C   0  0  2  0  0  0
  -28.6766  -13.1741   20.9839 C   0  0  0  0  0  0
  -25.2454  -13.8152   20.5773 C   0  0  0  0  0  0
  -24.1734  -13.0418   20.9241 C   0  0  0  0  0  0
  -24.6332  -11.6904   20.8704 C   0  0  0  0  0  0
  -23.8984  -10.4286   21.0363 C   0  0  0  0  0  0
  -24.3555   -9.4231   21.9148 C   0  0  0  0  0  0
  -23.6296   -8.2239   22.0703 C   0  0  0  0  0  0
  -22.4279   -8.0244   21.3513 C   0  0  0  0  0  0
  -21.9901   -9.0190   20.4603 C   0  0  0  0  0  0
  -22.7160  -10.2106   20.3015 C   0  0  0  0  0  0
  -21.6855   -6.0730   22.5313 C   0  0  0  0  0  0
  -21.4001   -6.5629   23.8249 C   0  0  0  0  0  0
  -21.3677   -5.6772   24.9212 C   0  0  0  0  0  0
  -21.6081   -4.3034   24.7242 C   0  0  0  0  0  0
  -21.8818   -3.8135   23.4343 C   0  0  0  0  0  0
  -21.9203   -4.6963   22.3415 C   0  0  0  0  0  0
  -22.7766  -13.5247   21.1897 C   0  0  0  0  0  0
  -22.1651   -4.2153   21.0977 F   0  0  0  0  0  0
  -21.5659   -3.4518   25.7738 F   0  0  0  0  0  0
  -29.9814  -13.5129   20.4072 N   0  0  0  0  0  0
  -26.2887  -12.9394   20.3237 N   0  0  0  0  0  0
  -25.9268  -11.6532   20.5674 N   0  0  0  0  0  0
  -22.0369  -12.8240   22.0423 N   0  0  0  0  0  0
  -25.4075  -15.1871   20.4354 N   0  0  0  0  0  0
  -31.8130  -14.8023   20.1471 O   0  0  0  0  0  0
  -21.6638   -6.8846   21.4255 O   0  0  0  0  0  0
  -22.3499  -14.5581   20.6746 O   0  0  0  0  0  0
  -24.6321  -31.8565   23.1986 C   0  0  0  0  0  0
  -25.9156  -32.4758   23.8329 C   0  0  1  0  0  0
  -27.2109  -27.2747   20.1346 C   0  0  0  0  0  0
  -25.5962  -33.8538   24.2265 N   0  0  0  0  0  0
  -23.4279  -30.4783   21.5443 C   0  0  2  0  0  0
  -24.8712  -28.9253   20.1124 C   0  0  0  0  0  0
  -22.7521  -29.4601   22.4927 C   0  0  0  0  0  0
  -18.0303  -28.1416   22.8480 C   0  0  0  0  0  0
  -24.1492  -36.7259   23.2630 C   0  0  0  0  0  0
  -25.9700  -30.7773   21.3704 C   0  0  0  0  0  0
  -26.0449  -29.3980   20.7159 C   0  0  0  0  0  0
  -27.2223  -28.5860   20.7121 C   0  0  0  0  0  0
  -26.0212  -26.8636   19.5001 C   0  0  0  0  0  0
  -24.8636  -27.6661   19.4903 C   0  0  0  0  0  0
  -23.6411  -29.8118   20.1602 C   0  0  0  0  0  0
  -25.4113  -36.3043   24.0326 C   0  0  1  0  0  0
  -20.5907  -28.3706   23.1296 C   0  0  2  0  0  0
  -20.6780  -26.9423   22.5424 C   0  0  0  0  0  0
  -19.5765  -26.6407   21.5217 C   0  0  0  0  0  0
  -18.1947  -26.7963   22.1624 C   0  0  0  0  0  0
  -19.1553  -28.8882   23.2878 C   0  0  0  0  0  0
  -18.9460  -30.1490   23.8879 C   0  0  0  0  0  0
  -17.6445  -30.6596   24.0577 C   0  0  0  0  0  0
  -25.9057  -34.9419   23.5093 C   0  0  0  0  0  0
  -16.5352  -29.9085   23.6343 C   0  0  0  0  0  0
  -16.7274  -28.6530   23.0323 C   0  0  0  0  0  0
  -26.4512  -31.6561   25.0698 C   0  0  0  0  0  0
  -25.3741  -31.3692   26.1422 C   0  0  0  0  0  0
  -27.0341  -30.2980   24.6145 C   0  0  0  0  0  0
  -27.6101  -32.4284   25.7466 C   0  0  0  0  0  0
  -27.5589  -37.1782   24.8459 C   0  0  0  0  0  0
  -21.4224  -29.3038   22.3667 N   0  0  0  0  0  0
  -26.4274  -37.3758   23.9421 N   0  0  0  0  0  0
  -24.6965  -31.0549   22.0965 N   0  0  0  0  0  0
  -23.4215  -28.8141   23.3047 O   0  0  0  0  0  0
  -28.2885  -26.3683   20.1512 O   0  0  0  0  0  0
  -26.5607  -34.8910   22.4651 O   0  0  0  0  0  0
  -23.5486  -32.1376   23.7312 O   0  0  0  0  0  0
  -28.0885  -20.3731   20.0700 C   0  0  0  0  0  0
  -28.3948  -18.9461   20.1386 C   0  0  0  0  0  0
  -29.6481  -18.6474   20.6435 C   0  0  0  0  0  0
  -29.0280  -21.2405   20.5985 C   0  0  0  0  0  0
  -28.3994  -23.6837   20.1575 C   0  0  0  0  0  0
  -27.4215  -17.8864   19.7157 C   0  0  0  0  0  0
  -28.8392  -25.2261   22.2361 C   0  0  0  0  0  0
  -30.4739  -17.3024   20.7954 C   0  0  0  0  0  0
  -28.0955  -25.0824   20.8990 C   0  0  1  0  0  0
  -28.9567  -22.6207   20.8494 N   0  0  0  0  0  0
  -29.9044  -15.8836   20.7368 N   0  0  0  0  0  0
  -28.0942  -23.5728   18.9668 O   0  0  0  0  0  0
  -30.3763  -20.2057   21.1366 S   0  0  0  0  0  0
  -31.4736  -12.5377   19.2095 H   0  0  0  0  0  0
  -30.3435  -11.4657   19.9888 H   0  0  0  0  0  0
  -29.8065  -11.7037   17.5448 H   0  0  0  0  0  0
  -29.6621  -13.4368   17.7269 H   0  0  0  0  0  0
  -27.8845  -11.2848   18.9173 H   0  0  0  0  0  0
  -27.3935  -12.5204   17.7906 H   0  0  0  0  0  0
  -27.6320  -14.2549   19.4627 H   0  0  0  0  0  0
  -28.6968  -12.1819   21.4352 H   0  0  0  0  0  0
  -28.4157  -13.8636   21.7903 H   0  0  0  0  0  0
  -25.2668   -9.5816   22.4740 H   0  0  0  0  0  0
  -24.0080   -7.4636   22.7398 H   0  0  0  0  0  0
  -21.0850   -8.8680   19.8876 H   0  0  0  0  0  0
  -22.3581  -10.9639   19.6125 H   0  0  0  0  0  0
  -21.1936   -7.6135   23.9779 H   0  0  0  0  0  0
  -21.1493   -6.0452   25.9132 H   0  0  0  0  0  0
  -22.0565   -2.7599   23.2812 H   0  0  0  0  0  0
  -22.4000  -11.9896   22.4798 H   0  0  0  0  0  0
  -21.0951  -13.1210   22.2544 H   0  0  0  0  0  0
  -24.6362  -15.8319   20.5727 H   0  0  0  0  0  0
  -26.2500  -15.6329   20.1010 H   0  0  0  0  0  0
  -26.7201  -32.5414   23.1053 H   0  0  0  0  0  0
  -25.0156  -33.9660   25.0446 H   0  0  0  0  0  0
  -22.7257  -31.3018   21.4013 H   0  0  0  0  0  0
  -23.3771  -35.9575   23.3256 H   0  0  0  0  0  0
  -24.3606  -36.8926   22.2058 H   0  0  0  0  0  0
  -23.7223  -37.6437   23.6679 H   0  0  0  0  0  0
  -26.0985  -31.5381   20.5984 H   0  0  0  0  0  0
  -26.8523  -30.8325   21.9960 H   0  0  0  0  0  0
  -28.1248  -28.9429   21.1856 H   0  0  0  0  0  0
  -25.9808  -25.8931   19.0265 H   0  0  0  0  0  0
  -23.9654  -27.3000   19.0095 H   0  0  0  0  0  0
  -23.7639  -30.5868   19.4022 H   0  0  0  0  0  0
  -22.7587  -29.2444   19.8602 H   0  0  0  0  0  0
  -25.1289  -36.1886   25.0814 H   0  0  0  0  0  0
  -21.0014  -28.3286   24.1420 H   0  0  0  0  0  0
  -20.5731  -26.2300   23.3614 H   0  0  0  0  0  0
  -21.6642  -26.7471   22.1213 H   0  0  0  0  0  0
  -19.6928  -25.6324   21.1241 H   0  0  0  0  0  0
  -19.6730  -27.3226   20.6754 H   0  0  0  0  0  0
  -17.4233  -26.6740   21.4001 H   0  0  0  0  0  0
  -18.0310  -26.0116   22.9024 H   0  0  0  0  0  0
  -19.7917  -30.7330   24.2253 H   0  0  0  0  0  0
  -17.4981  -31.6273   24.5184 H   0  0  0  0  0  0
  -15.5344  -30.2961   23.7680 H   0  0  0  0  0  0
  -15.8692  -28.0849   22.6998 H   0  0  0  0  0  0
  -24.5948  -30.7001   25.7747 H   0  0  0  0  0  0
  -24.8866  -32.2835   26.4808 H   0  0  0  0  0  0
  -25.8052  -30.8905   27.0221 H   0  0  0  0  0  0
  -26.2889  -29.6737   24.1184 H   0  0  0  0  0  0
  -27.4060  -29.7225   25.4635 H   0  0  0  0  0  0
  -27.8765  -30.4256   23.9337 H   0  0  0  0  0  0
  -27.2754  -33.3627   26.1981 H   0  0  0  0  0  0
  -28.3931  -32.6766   25.0287 H   0  0  0  0  0  0
  -28.0734  -31.8427   26.5419 H   0  0  0  0  0  0
  -28.2555  -38.0120   24.7536 H   0  0  0  0  0  0
  -28.1125  -36.2653   24.6226 H   0  0  0  0  0  0
  -27.2325  -37.1377   25.8862 H   0  0  0  0  0  0
  -20.9425  -29.8715   21.6810 H   0  0  0  0  0  0
  -26.0153  -38.2825   24.1445 H   0  0  0  0  0  0
  -27.1347  -20.7090   19.6789 H   0  0  0  0  0  0
  -27.8350  -17.2322   18.9483 H   0  0  0  0  0  0
  -26.4918  -18.3029   19.3254 H   0  0  0  0  0  0
  -27.1615  -17.2681   20.5748 H   0  0  0  0  0  0
  -28.6350  -24.3898   22.9095 H   0  0  0  0  0  0
  -28.5303  -26.1345   22.7517 H   0  0  0  0  0  0
  -29.9146  -25.2863   22.0837 H   0  0  0  0  0  0
  -31.0237  -17.3636   21.7362 H   0  0  0  0  0  0
  -31.2583  -17.3494   20.0402 H   0  0  0  0  0  0
  -27.0387  -25.0060   21.1582 H   0  0  0  0  0  0
  -29.3513  -22.8983   21.7395 H   0  0  0  0  0  0
  -28.9317  -15.7650   20.9654 H   0  0  0  0  0  0
  1 25  1  0  0  0
  1 30  2  0  0  0
  1 81  1  0  0  0
  2  3  1  0  0  0
  2 25  1  0  0  0
  2 84  1  0  0  0
  2 85  1  0  0  0
  3  4  1  0  0  0
  3 86  1  0  0  0
  3 87  1  0  0  0
  4  5  1  0  0  0
  4 88  1  0  0  0
  4 89  1  0  0  0
  5  6  1  0  0  0
  5 26  1  0  0  0
  5 90  1  0  0  0
  6 25  1  0  0  0
  6 91  1  0  0  0
  6 92  1  0  0  0
  7  8  2  0  0  0
  7 26  1  0  0  0
  7 29  1  0  0  0
  8  9  1  0  0  0
  8 22  1  0  0  0
  9 10  1  0  0  0
  9 27  2  0  0  0
 10 11  2  0  0  0
 10 15  1  0  0  0
 11 12  1  0  0  0
 11 93  1  0  0  0
 12 13  2  0  0  0
 12 94  1  0  0  0
 13 14  1  0  0  0
 13 31  1  0  0  0
 14 15  2  0  0  0
 14 95  1  0  0  0
 15 96  1  0  0  0
 16 17  2  0  0  0
 16 21  1  0  0  0
 16 31  1  0  0  0
 17 18  1  0  0  0
 17 97  1  0  0  0
 18 19  2  0  0  0
 18 98  1  0  0  0
 19 20  1  0  0  0
 19 24  1  0  0  0
 20 21  2  0  0  0
 20 99  1  0  0  0
 21 23  1  0  0  0
 22 28  1  0  0  0
 22 32  2  0  0  0
 26 27  1  0  0  0
 28100  1  0  0  0
 28101  1  0  0  0
 29102  1  0  0  0
 29103  1  0  0  0
 33 34  1  0  0  0
 33 66  1  0  0  0
 33 70  2  0  0  0
 34 36  1  0  0  0
 34 59  1  0  0  0
 34104  1  0  0  0
 35 44  2  0  0  0
 35 45  1  0  0  0
 35 68  1  0  0  0
 36 56  1  0  0  0
 36105  1  0  0  0
 37 39  1  0  0  0
 37 47  1  0  0  0
 37 66  1  0  0  0
 37106  1  0  0  0
 38 43  2  0  0  0
 38 46  1  0  0  0
 38 47  1  0  0  0
 39 64  1  0  0  0
 39 67  2  0  0  0
 40 52  1  0  0  0
 40 53  2  0  0  0
 40 58  1  0  0  0
 41107  1  0  0  0
 41108  1  0  0  0
 41109  1  0  0  0
 41 48  1  0  0  0
 42 43  1  0  0  0
 42 66  1  0  0  0
 42110  1  0  0  0
 42111  1  0  0  0
 43 44  1  0  0  0
 44112  1  0  0  0
 45 46  2  0  0  0
 45113  1  0  0  0
 46114  1  0  0  0
 47115  1  0  0  0
 47116  1  0  0  0
 48 56  1  0  0  0
 48 65  1  0  0  0
 48117  1  0  0  0
 49 50  1  0  0  0
 49 53  1  0  0  0
 49 64  1  0  0  0
 49118  1  0  0  0
 50 51  1  0  0  0
 50119  1  0  0  0
 50120  1  0  0  0
 51 52  1  0  0  0
 51121  1  0  0  0
 51122  1  0  0  0
 52123  1  0  0  0
 52124  1  0  0  0
 53 54  1  0  0  0
 54 55  2  0  0  0
 54125  1  0  0  0
 55 57  1  0  0  0
 55126  1  0  0  0
 56 69  2  0  0  0
 57 58  2  0  0  0
 57127  1  0  0  0
 58128  1  0  0  0
 59 60  1  0  0  0
 59 61  1  0  0  0
 59 62  1  0  0  0
 60129  1  0  0  0
 60130  1  0  0  0
 60131  1  0  0  0
 61132  1  0  0  0
 61133  1  0  0  0
 61134  1  0  0  0
 62135  1  0  0  0
 62136  1  0  0  0
 62137  1  0  0  0
 63 65  1  0  0  0
 63138  1  0  0  0
 63139  1  0  0  0
 63140  1  0  0  0
 64141  1  0  0  0
 65142  1  0  0  0
 68 79  1  0  0  0
 71 72  1  0  0  0
 71 74  2  0  0  0
 71143  1  0  0  0
 72 73  2  0  0  0
 72 76  1  0  0  0
 73 78  1  0  0  0
 73 83  1  0  0  0
 74 80  1  0  0  0
 74 83  1  0  0  0
 75 79  1  0  0  0
 75 80  1  0  0  0
 75 82  2  0  0  0
 76144  1  0  0  0
 76145  1  0  0  0
 76146  1  0  0  0
 77147  1  0  0  0
 77148  1  0  0  0
 77149  1  0  0  0
 77 79  1  0  0  0
 78 81  1  0  0  0
 78150  1  0  0  0
 78151  1  0  0  0
 79152  1  0  0  0
 80153  1  0  0  0
 81154  1  0  0  0
M  ISO  4   1 100  68 101  79 101  81 100
M  END
> <chiral flag>
0

> <version>
0

> <s_m_source_file>
/data/baiqing/PycharmProjects/Reinvent-master-3.2/result/LINK_invent/BTK/process_docking_weight1_custom_product_contain_oxygen_bond_distance_aromatic_linkinvent_7_9_3/rearranged_h_0186.sdf

> <i_m_source_file_index>
60

> <r_mmod_Potential_Energy-OPLS-2005>
81.6610260009766

> <r_mmod_Stretch_Energy-OPLS-2005>
107.812164306641

> <r_mmod_Bend_Energy-OPLS-2005>
176.314788818359

> <r_mmod_Torsional_Energy-OPLS-2005>
253.897338867188

> <r_mmod_Improper_Torsional_Energy-OPLS-2005>
4.40116310119629

> <r_mmod_Van_der_Waal_Energy-OPLS-2005>
108.958633422852

> <r_mmod_Electrostatic_Energy-OPLS-2005>
-415.506530761719

> <r_mmod_Solvation_Energy-OPLS-2005>
-234.188537597656

> <b_mmod_Minimization_Converged-OPLS-2005>
0

> <r_mmod_RMS_Derivative-OPLS-2005>
5.01176881790161

$$$$
61
                    3D
 Structure written by MMmdl.
156164  0  0  1  0            999 V2000
  -30.5902  -14.7259   20.4729 C   0  0  0  0  0  0
  -30.4429  -12.4458   19.4590 C   0  0  0  0  0  0
  -29.5130  -12.5125   18.2263 C   0  0  0  0  0  0
  -28.0373  -12.3330   18.6390 C   0  0  0  0  0  0
  -27.6432  -13.2208   19.8492 C   0  0  2  0  0  0
  -28.6903  -13.1278   20.9815 C   0  0  0  0  0  0
  -25.2527  -13.8167   20.5689 C   0  0  0  0  0  0
  -24.1805  -13.0425   20.9198 C   0  0  0  0  0  0
  -24.6379  -11.6900   20.8727 C   0  0  0  0  0  0
  -23.9047  -10.4290   21.0385 C   0  0  0  0  0  0
  -24.3607   -9.4212   21.9160 C   0  0  0  0  0  0
  -23.6298   -8.2241   22.0738 C   0  0  0  0  0  0
  -22.4277   -8.0270   21.3531 C   0  0  0  0  0  0
  -21.9901   -9.0236   20.4632 C   0  0  0  0  0  0
  -22.7219  -10.2122   20.3040 C   0  0  0  0  0  0
  -21.6854   -6.0732   22.5266 C   0  0  0  0  0  0
  -21.4022   -6.5635   23.8201 C   0  0  0  0  0  0
  -21.3661   -5.6785   24.9161 C   0  0  0  0  0  0
  -21.6041   -4.3048   24.7209 C   0  0  0  0  0  0
  -21.8822   -3.8143   23.4330 C   0  0  0  0  0  0
  -21.9198   -4.6960   22.3389 C   0  0  0  0  0  0
  -22.7828  -13.5216   21.1855 C   0  0  0  0  0  0
  -22.1661   -4.2147   21.0967 F   0  0  0  0  0  0
  -21.5629   -3.4529   25.7722 F   0  0  0  0  0  0
  -29.9936  -13.4883   20.4057 N   0  0  0  0  0  0
  -26.2939  -12.9346   20.3262 N   0  0  0  0  0  0
  -25.9310  -11.6504   20.5730 N   0  0  0  0  0  0
  -22.0463  -12.8225   22.0419 N   0  0  0  0  0  0
  -25.4209  -15.1898   20.4105 N   0  0  0  0  0  0
  -31.7846  -14.8572   20.1840 O   0  0  0  0  0  0
  -21.6638   -6.8873   21.4228 O   0  0  0  0  0  0
  -22.3520  -14.5513   20.6686 O   0  0  0  0  0  0
  -24.6315  -31.8550   23.1985 C   0  0  0  0  0  0
  -25.9139  -32.4752   23.8332 C   0  0  1  0  0  0
  -27.2213  -27.2649   20.1244 C   0  0  0  0  0  0
  -25.5931  -33.8554   24.2253 N   0  0  0  0  0  0
  -23.4280  -30.4793   21.5426 C   0  0  2  0  0  0
  -24.8738  -28.9271   20.1119 C   0  0  0  0  0  0
  -22.7505  -29.4612   22.4921 C   0  0  0  0  0  0
  -18.0292  -28.1392   22.8480 C   0  0  0  0  0  0
  -24.1490  -36.7293   23.2645 C   0  0  0  0  0  0
  -25.9749  -30.7697   21.3782 C   0  0  0  0  0  0
  -26.0477  -29.3934   20.7185 C   0  0  0  0  0  0
  -27.2245  -28.5765   20.7107 C   0  0  0  0  0  0
  -26.0193  -26.8675   19.4928 C   0  0  0  0  0  0
  -24.8654  -27.6726   19.4892 C   0  0  0  0  0  0
  -23.6453  -29.8145   20.1584 C   0  0  0  0  0  0
  -25.4118  -36.3074   24.0327 C   0  0  1  0  0  0
  -20.5896  -28.3706   23.1265 C   0  0  2  0  0  0
  -20.6780  -26.9422   22.5405 C   0  0  0  0  0  0
  -19.5756  -26.6385   21.5212 C   0  0  0  0  0  0
  -18.1935  -26.7931   22.1621 C   0  0  0  0  0  0
  -19.1543  -28.8864   23.2864 C   0  0  0  0  0  0
  -18.9464  -30.1467   23.8880 C   0  0  0  0  0  0
  -17.6462  -30.6588   24.0563 C   0  0  0  0  0  0
  -25.9060  -34.9439   23.5095 C   0  0  0  0  0  0
  -16.5354  -29.9087   23.6332 C   0  0  0  0  0  0
  -16.7277  -28.6508   23.0344 C   0  0  0  0  0  0
  -26.4503  -31.6577   25.0722 C   0  0  0  0  0  0
  -25.3724  -31.3725   26.1445 C   0  0  0  0  0  0
  -27.0355  -30.2984   24.6228 C   0  0  0  0  0  0
  -27.6050  -32.4329   25.7494 C   0  0  0  0  0  0
  -27.5584  -37.1803   24.8463 C   0  0  0  0  0  0
  -21.4211  -29.3052   22.3657 N   0  0  0  0  0  0
  -26.4293  -37.3772   23.9412 N   0  0  0  0  0  0
  -24.6975  -31.0520   22.0961 N   0  0  0  0  0  0
  -23.4205  -28.8145   23.3013 O   0  0  0  0  0  0
  -28.3207  -26.3733   20.1726 O   0  0  0  0  0  0
  -26.5632  -34.8917   22.4667 O   0  0  0  0  0  0
  -23.5467  -32.1373   23.7283 O   0  0  0  0  0  0
  -30.6318  -19.3250   21.4844 C   0  0  0  0  0  0
  -29.7814  -19.8704   20.5195 C   0  0  0  0  0  0
  -29.9333  -17.2652   20.6263 C   0  0  0  0  0  0
  -28.8743  -22.2482   20.6210 C   0  0  0  0  0  0
  -31.0111  -19.8161   23.9249 C   0  0  0  0  0  0
  -32.9818  -19.7365   22.3180 C   0  0  0  0  0  0
  -28.0595  -24.8883   20.1101 C   0  0  0  0  0  0
  -29.2249  -23.7786   20.2735 C   0  0  2  0  0  0
  -31.4919  -20.0757   22.4882 C   0  0  0  0  0  0
  -30.6955  -17.8977   21.5261 N   0  0  0  0  0  0
  -29.6561  -21.2171   20.1360 N   0  0  0  0  0  0
  -29.7363  -15.8044   20.6056 N   0  0  0  0  0  0
  -27.9018  -22.0055   21.3393 O   0  0  0  0  0  0
  -29.9850  -23.7919   19.1738 F   0  0  0  0  0  0
  -31.4168  -21.3977   22.3238 F   0  0  0  0  0  0
  -29.0136  -18.4886   19.6756 S   0  0  0  0  0  0
  -31.4815  -12.5886   19.1548 H   0  0  0  0  0  0
  -30.4007  -11.4608   19.9271 H   0  0  0  0  0  0
  -29.7958  -11.7506   17.4984 H   0  0  0  0  0  0
  -29.6383  -13.4732   17.7233 H   0  0  0  0  0  0
  -27.8911  -11.2814   18.8895 H   0  0  0  0  0  0
  -27.3809  -12.5355   17.7911 H   0  0  0  0  0  0
  -27.6416  -14.2451   19.4787 H   0  0  0  0  0  0
  -28.7237  -12.1202   21.3970 H   0  0  0  0  0  0
  -28.4288  -13.7880   21.8099 H   0  0  0  0  0  0
  -25.2749   -9.5698   22.4738 H   0  0  0  0  0  0
  -24.0004   -7.4634   22.7457 H   0  0  0  0  0  0
  -21.0830   -8.8743   19.8948 H   0  0  0  0  0  0
  -22.3654  -10.9655   19.6155 H   0  0  0  0  0  0
  -21.2022   -7.6143   23.9708 H   0  0  0  0  0  0
  -21.1477   -6.0510   25.9064 H   0  0  0  0  0  0
  -22.0610   -2.7608   23.2818 H   0  0  0  0  0  0
  -22.4090  -11.9918   22.4858 H   0  0  0  0  0  0
  -21.1064  -13.1238   22.2579 H   0  0  0  0  0  0
  -24.6470  -15.8365   20.5188 H   0  0  0  0  0  0
  -26.2535  -15.6325   20.0464 H   0  0  0  0  0  0
  -26.7210  -32.5388   23.1080 H   0  0  0  0  0  0
  -25.0061  -33.9686   25.0388 H   0  0  0  0  0  0
  -22.7247  -31.3014   21.3967 H   0  0  0  0  0  0
  -23.3748  -35.9628   23.3297 H   0  0  0  0  0  0
  -24.3589  -36.8920   22.2060 H   0  0  0  0  0  0
  -23.7241  -37.6492   23.6672 H   0  0  0  0  0  0
  -26.1161  -31.5323   20.6111 H   0  0  0  0  0  0
  -26.8519  -30.8149   22.0127 H   0  0  0  0  0  0
  -28.1231  -28.9302   21.1967 H   0  0  0  0  0  0
  -25.9305  -25.9126   18.9987 H   0  0  0  0  0  0
  -23.9678  -27.3096   19.0075 H   0  0  0  0  0  0
  -23.7703  -30.5910   19.4030 H   0  0  0  0  0  0
  -22.7629  -29.2494   19.8522 H   0  0  0  0  0  0
  -25.1299  -36.1926   25.0819 H   0  0  0  0  0  0
  -20.9990  -28.3285   24.1386 H   0  0  0  0  0  0
  -20.5681  -26.2320   23.3617 H   0  0  0  0  0  0
  -21.6647  -26.7446   22.1197 H   0  0  0  0  0  0
  -19.6918  -25.6296   21.1248 H   0  0  0  0  0  0
  -19.6688  -27.3189   20.6738 H   0  0  0  0  0  0
  -17.4207  -26.6678   21.4021 H   0  0  0  0  0  0
  -18.0333  -26.0074   22.9016 H   0  0  0  0  0  0
  -19.7942  -30.7287   24.2238 H   0  0  0  0  0  0
  -17.5016  -31.6262   24.5176 H   0  0  0  0  0  0
  -15.5353  -30.2979   23.7666 H   0  0  0  0  0  0
  -15.8681  -28.0825   22.7059 H   0  0  0  0  0  0
  -24.5897  -30.7081   25.7770 H   0  0  0  0  0  0
  -24.8926  -32.2892   26.4876 H   0  0  0  0  0  0
  -25.8046  -30.8892   27.0216 H   0  0  0  0  0  0
  -26.2941  -29.6722   24.1253 H   0  0  0  0  0  0
  -27.4013  -29.7263   25.4766 H   0  0  0  0  0  0
  -27.8830  -30.4237   23.9490 H   0  0  0  0  0  0
  -27.2642  -33.3622   26.2072 H   0  0  0  0  0  0
  -28.3858  -32.6905   25.0325 H   0  0  0  0  0  0
  -28.0730  -31.8460   26.5410 H   0  0  0  0  0  0
  -28.2596  -38.0103   24.7512 H   0  0  0  0  0  0
  -28.1079  -36.2634   24.6279 H   0  0  0  0  0  0
  -27.2306  -37.1443   25.8865 H   0  0  0  0  0  0
  -20.9404  -29.8783   21.6860 H   0  0  0  0  0  0
  -26.0171  -38.2847   24.1397 H   0  0  0  0  0  0
  -31.1095  -18.7635   24.1902 H   0  0  0  0  0  0
  -29.9625  -20.0915   24.0451 H   0  0  0  0  0  0
  -31.5890  -20.3923   24.6469 H   0  0  0  0  0  0
  -33.1710  -18.6744   22.4735 H   0  0  0  0  0  0
  -33.5950  -20.2880   23.0304 H   0  0  0  0  0  0
  -33.3296  -19.9909   21.3168 H   0  0  0  0  0  0
  -27.2942  -24.6733   20.8566 H   0  0  0  0  0  0
  -27.6065  -24.6664   19.1451 H   0  0  0  0  0  0
  -29.8780  -24.1110   21.0798 H   0  0  0  0  0  0
  -30.3810  -21.5493   19.5126 H   0  0  0  0  0  0
  -28.7691  -15.5281   20.6107 H   0  0  0  0  0  0
  1 25  1  0  0  0
  1 30  2  0  0  0
  1 82  1  0  0  0
  2  3  1  0  0  0
  2 25  1  0  0  0
  2 87  1  0  0  0
  2 88  1  0  0  0
  3  4  1  0  0  0
  3 89  1  0  0  0
  3 90  1  0  0  0
  4  5  1  0  0  0
  4 91  1  0  0  0
  4 92  1  0  0  0
  5  6  1  0  0  0
  5 26  1  0  0  0
  5 93  1  0  0  0
  6 25  1  0  0  0
  6 94  1  0  0  0
  6 95  1  0  0  0
  7  8  2  0  0  0
  7 26  1  0  0  0
  7 29  1  0  0  0
  8  9  1  0  0  0
  8 22  1  0  0  0
  9 10  1  0  0  0
  9 27  2  0  0  0
 10 11  2  0  0  0
 10 15  1  0  0  0
 11 12  1  0  0  0
 11 96  1  0  0  0
 12 13  2  0  0  0
 12 97  1  0  0  0
 13 14  1  0  0  0
 13 31  1  0  0  0
 14 15  2  0  0  0
 14 98  1  0  0  0
 15 99  1  0  0  0
 16 17  2  0  0  0
 16 21  1  0  0  0
 16 31  1  0  0  0
 17 18  1  0  0  0
 17100  1  0  0  0
 18 19  2  0  0  0
 18101  1  0  0  0
 19 20  1  0  0  0
 19 24  1  0  0  0
 20 21  2  0  0  0
 20102  1  0  0  0
 21 23  1  0  0  0
 22 28  1  0  0  0
 22 32  2  0  0  0
 26 27  1  0  0  0
 28103  1  0  0  0
 28104  1  0  0  0
 29105  1  0  0  0
 29106  1  0  0  0
 33 34  1  0  0  0
 33 66  1  0  0  0
 33 70  2  0  0  0
 34 36  1  0  0  0
 34 59  1  0  0  0
 34107  1  0  0  0
 35 44  2  0  0  0
 35 45  1  0  0  0
 35 68  1  0  0  0
 36 56  1  0  0  0
 36108  1  0  0  0
 37 39  1  0  0  0
 37 47  1  0  0  0
 37 66  1  0  0  0
 37109  1  0  0  0
 38 43  2  0  0  0
 38 46  1  0  0  0
 38 47  1  0  0  0
 39 64  1  0  0  0
 39 67  2  0  0  0
 40 52  1  0  0  0
 40 53  2  0  0  0
 40 58  1  0  0  0
 41110  1  0  0  0
 41111  1  0  0  0
 41112  1  0  0  0
 41 48  1  0  0  0
 42 43  1  0  0  0
 42 66  1  0  0  0
 42113  1  0  0  0
 42114  1  0  0  0
 43 44  1  0  0  0
 44115  1  0  0  0
 45 46  2  0  0  0
 45116  1  0  0  0
 46117  1  0  0  0
 47118  1  0  0  0
 47119  1  0  0  0
 48 56  1  0  0  0
 48 65  1  0  0  0
 48120  1  0  0  0
 49 50  1  0  0  0
 49 53  1  0  0  0
 49 64  1  0  0  0
 49121  1  0  0  0
 50 51  1  0  0  0
 50122  1  0  0  0
 50123  1  0  0  0
 51 52  1  0  0  0
 51124  1  0  0  0
 51125  1  0  0  0
 52126  1  0  0  0
 52127  1  0  0  0
 53 54  1  0  0  0
 54 55  2  0  0  0
 54128  1  0  0  0
 55 57  1  0  0  0
 55129  1  0  0  0
 56 69  2  0  0  0
 57 58  2  0  0  0
 57130  1  0  0  0
 58131  1  0  0  0
 59 60  1  0  0  0
 59 61  1  0  0  0
 59 62  1  0  0  0
 60132  1  0  0  0
 60133  1  0  0  0
 60134  1  0  0  0
 61135  1  0  0  0
 61136  1  0  0  0
 61137  1  0  0  0
 62138  1  0  0  0
 62139  1  0  0  0
 62140  1  0  0  0
 63 65  1  0  0  0
 63141  1  0  0  0
 63142  1  0  0  0
 63143  1  0  0  0
 64144  1  0  0  0
 65145  1  0  0  0
 68 77  1  0  0  0
 71 72  2  0  0  0
 71 79  1  0  0  0
 71 80  1  0  0  0
 72 81  1  0  0  0
 72 86  1  0  0  0
 73 80  2  0  0  0
 73 82  1  0  0  0
 73 86  1  0  0  0
 74 78  1  0  0  0
 74 81  1  0  0  0
 74 83  2  0  0  0
 75146  1  0  0  0
 75147  1  0  0  0
 75148  1  0  0  0
 75 79  1  0  0  0
 76 79  1  0  0  0
 76149  1  0  0  0
 76150  1  0  0  0
 76151  1  0  0  0
 77 78  1  0  0  0
 77152  1  0  0  0
 77153  1  0  0  0
 78 84  1  0  0  0
 78154  1  0  0  0
 79 85  1  0  0  0
 81155  1  0  0  0
 82156  1  0  0  0
M  ISO  4   1 100  68 101  77 101  82 100
M  END
> <chiral flag>
0

> <version>
0

> <s_m_source_file>
/data/baiqing/PycharmProjects/Reinvent-master-3.2/result/LINK_invent/BTK/process_docking_weight1_custom_product_contain_oxygen_bond_distance_aromatic_linkinvent_7_9_3/rearranged_h_0186.sdf

> <i_m_source_file_index>
61

> <r_mmod_Potential_Energy-OPLS-2005>
86.020881652832

> <r_mmod_Stretch_Energy-OPLS-2005>
106.844764709473

> <r_mmod_Bend_Energy-OPLS-2005>
162.51042175293

> <r_mmod_Torsional_Energy-OPLS-2005>
250.266876220703

> <r_mmod_Improper_Torsional_Energy-OPLS-2005>
8.4222469329834

> <r_mmod_Van_der_Waal_Energy-OPLS-2005>
117.401245117188

> <r_mmod_Electrostatic_Energy-OPLS-2005>
-410.887145996094

> <r_mmod_Solvation_Energy-OPLS-2005>
-228.630966186523

> <b_mmod_Minimization_Converged-OPLS-2005>
0

> <r_mmod_RMS_Derivative-OPLS-2005>
1.61552488803864

$$$$
62
                    3D
 Structure written by MMmdl.
163171  0  0  1  0            999 V2000
  -29.1819  -15.9894   20.7972 C   0  0  0  0  0  0
  -30.1572  -13.5321   19.7519 C   0  0  0  0  0  0
  -29.5193  -12.8345   18.4894 C   0  0  0  0  0  0
  -28.1323  -12.2685   18.8200 C   0  0  0  0  0  0
  -27.4618  -13.2260   19.8148 C   0  0  2  0  0  0
  -28.2717  -13.5406   21.0666 C   0  0  0  0  0  0
  -25.1654  -13.7712   20.5331 C   0  0  0  0  0  0
  -24.1170  -13.0082   20.9223 C   0  0  0  0  0  0
  -24.5875  -11.6594   20.8803 C   0  0  0  0  0  0
  -23.8730  -10.4066   21.0562 C   0  0  0  0  0  0
  -24.3439   -9.4030   21.9286 C   0  0  0  0  0  0
  -23.6178   -8.2051   22.0781 C   0  0  0  0  0  0
  -22.4162   -8.0129   21.3558 C   0  0  0  0  0  0
  -21.9741   -9.0071   20.4669 C   0  0  0  0  0  0
  -22.6991  -10.1955   20.3128 C   0  0  0  0  0  0
  -21.6786   -6.0658   22.5303 C   0  0  0  0  0  0
  -21.3958   -6.5589   23.8228 C   0  0  0  0  0  0
  -21.3631   -5.6754   24.9199 C   0  0  0  0  0  0
  -21.6040   -4.3020   24.7258 C   0  0  0  0  0  0
  -21.8819   -3.8101   23.4386 C   0  0  0  0  0  0
  -21.9171   -4.6903   22.3436 C   0  0  0  0  0  0
  -22.7350  -13.5049   21.1978 C   0  0  0  0  0  0
  -22.1661   -4.2106   21.1012 F   0  0  0  0  0  0
  -21.5640   -3.4511   25.7774 F   0  0  0  0  0  0
  -29.1804  -14.5088   20.5440 N   0  0  0  0  0  0
  -26.1675  -12.8791   20.2517 N   0  0  0  0  0  0
  -25.8631  -11.6039   20.5420 N   0  0  0  0  0  0
  -22.0038  -12.8153   22.0618 N   0  0  0  0  0  0
  -25.3532  -15.1310   20.3575 N   0  0  0  0  0  0
  -30.4416  -16.1136   20.5571 O   0  0  0  0  0  0
  -21.6534   -6.8753   21.4249 O   0  0  0  0  0  0
  -22.3166  -14.5395   20.6795 O   0  0  0  0  0  0
  -24.6473  -31.9387   23.2360 C   0  0  0  0  0  0
  -25.9410  -32.5100   23.8669 C   0  0  1  0  0  0
  -26.2375  -27.2572   20.3013 C   0  0  0  0  0  0
  -25.6270  -33.8864   24.2573 N   0  0  0  0  0  0
  -23.4530  -30.5659   21.6101 C   0  0  2  0  0  0
  -24.8935  -29.3804   19.7923 C   0  0  0  0  0  0
  -23.1004  -29.4448   22.6386 C   0  0  0  0  0  0
  -18.7706  -27.3954   22.5344 C   0  0  0  0  0  0
  -24.1509  -36.7385   23.2586 C   0  0  0  0  0  0
  -25.9899  -30.8460   21.4582 C   0  0  0  0  0  0
  -25.9459  -29.5567   20.6793 C   0  0  0  0  0  0
  -26.8006  -28.4516   20.8493 C   0  0  0  0  0  0
  -25.9669  -27.3377   18.9704 C   0  0  0  0  0  0
  -25.0424  -28.3821   18.7807 C   0  0  0  0  0  0
  -23.6406  -30.1737   20.0942 C   0  0  0  0  0  0
  -25.4126  -36.3238   24.0314 C   0  0  1  0  0  0
  -21.4803  -27.8135   23.5317 C   0  0  2  0  0  0
  -22.6448  -26.3720   22.6608 C   0  0  0  0  0  0
  -21.0762  -25.1714   20.8584 C   0  0  0  0  0  0
  -19.1862  -26.0263   21.3934 C   0  0  0  0  0  0
  -19.7754  -28.1480   23.3757 C   0  0  0  0  0  0
  -19.3206  -29.4389   23.9574 C   0  0  0  0  0  0
  -18.0164  -30.0099   23.9152 C   0  0  0  0  0  0
  -25.9127  -34.9625   23.5168 C   0  0  0  0  0  0
  -17.0258  -29.2486   23.2906 C   0  0  0  0  0  0
  -17.4083  -28.0135   22.6361 C   0  0  0  0  0  0
  -26.4587  -31.6710   25.0993 C   0  0  0  0  0  0
  -25.3680  -31.3867   26.1590 C   0  0  0  0  0  0
  -27.0451  -30.3077   24.6579 C   0  0  0  0  0  0
  -27.6154  -32.4348   25.7820 C   0  0  0  0  0  0
  -27.5609  -37.1872   24.8439 C   0  0  0  0  0  0
  -21.8703  -29.1561   22.9886 N   0  0  0  0  0  0
  -26.4301  -37.3916   23.9427 N   0  0  0  0  0  0
  -24.7045  -31.1846   22.1126 N   0  0  0  0  0  0
  -23.9643  -28.8608   23.2684 O   0  0  0  0  0  0
  -24.9358  -26.9071   20.8246 O   0  0  0  0  0  0
  -26.5550  -34.8997   22.4645 O   0  0  0  0  0  0
  -23.5650  -32.2045   23.7801 O   0  0  0  0  0  0
  -24.4744  -20.7115   22.0889 C   0  0  0  0  0  0
  -23.8244  -19.5202   21.7024 C   0  0  0  0  0  0
  -26.5550  -18.4148   21.4875 C   0  0  0  0  0  0
  -21.6959  -18.4836   22.1277 C   0  0  0  0  0  0
  -20.8372  -25.0742   23.1211 C   0  0  0  0  0  0
  -20.2399  -18.4329   21.6725 C   0  0  0  0  0  0
  -20.4324  -28.5746   20.6606 C   0  0  0  0  0  0
  -23.1666  -27.1327   20.3964 C   0  0  0  0  0  0
  -23.5059  -22.5315   22.6706 C   0  0  1  0  0  0
  -21.2834  -27.2942   21.2365 C   0  0  1  0  0  0
  -24.6484  -23.5742   22.5902 C   0  0  0  0  0  0
  -26.0199  -19.8877   21.9240 N   0  0  0  0  0  0
  -22.4724  -19.4339   21.5823 N   0  0  0  0  0  0
  -28.1210  -17.3082   21.1728 N   0  0  0  0  0  0
  -21.8578  -23.6502   23.0391 N   0  0  0  0  0  0
  -22.0918  -17.7019   22.9955 O   0  0  0  0  0  0
  -19.9416  -25.0948   23.9705 O   0  0  0  0  0  0
  -25.8458  -23.0166   22.4313 F   0  0  0  0  0  0
  -24.4325  -24.3737   21.5540 F   0  0  0  0  0  0
  -24.7159  -24.2811   23.7235 F   0  0  0  0  0  0
  -24.8122  -17.9570   21.2698 S   0  0  0  0  0  0
  -31.0236  -14.0895   19.3960 H   0  0  0  0  0  0
  -30.5842  -12.7885   20.4276 H   0  0  0  0  0  0
  -30.1786  -12.0627   18.0908 H   0  0  0  0  0  0
  -29.4164  -13.5871   17.7045 H   0  0  0  0  0  0
  -28.2427  -11.2821   19.2716 H   0  0  0  0  0  0
  -27.5351  -12.1425   17.9168 H   0  0  0  0  0  0
  -27.3179  -14.1297   19.2135 H   0  0  0  0  0  0
  -28.7286  -12.6667   21.5374 H   0  0  0  0  0  0
  -27.6748  -14.0312   21.8402 H   0  0  0  0  0  0
  -25.2584   -9.5527   22.4867 H   0  0  0  0  0  0
  -23.9906   -7.4408   22.7463 H   0  0  0  0  0  0
  -21.0682   -8.8566   19.8973 H   0  0  0  0  0  0
  -22.3475  -10.9528   19.6272 H   0  0  0  0  0  0
  -21.1929   -7.6095   23.9723 H   0  0  0  0  0  0
  -21.1465   -6.0491   25.9104 H   0  0  0  0  0  0
  -22.0639   -2.7569   23.2890 H   0  0  0  0  0  0
  -22.3598  -11.9769   22.4968 H   0  0  0  0  0  0
  -21.0727  -13.1318   22.2907 H   0  0  0  0  0  0
  -24.5733  -15.7728   20.4490 H   0  0  0  0  0  0
  -26.1786  -15.5568   19.9593 H   0  0  0  0  0  0
  -26.7531  -32.5635   23.1453 H   0  0  0  0  0  0
  -25.0491  -34.0081   25.0758 H   0  0  0  0  0  0
  -22.6452  -31.3019   21.6360 H   0  0  0  0  0  0
  -23.3816  -35.9675   23.3240 H   0  0  0  0  0  0
  -24.3622  -36.9024   22.2009 H   0  0  0  0  0  0
  -23.7190  -37.6555   23.6595 H   0  0  0  0  0  0
  -26.2537  -31.6598   20.7812 H   0  0  0  0  0  0
  -26.8228  -30.7371   22.1387 H   0  0  0  0  0  0
  -27.5525  -28.4374   21.6264 H   0  0  0  0  0  0
  -25.8712  -26.4587   18.3472 H   0  0  0  0  0  0
  -24.3579  -28.3312   17.9480 H   0  0  0  0  0  0
  -23.7392  -31.1040   19.5367 H   0  0  0  0  0  0
  -22.7631  -29.7155   19.6681 H   0  0  0  0  0  0
  -25.1272  -36.2154   25.0796 H   0  0  0  0  0  0
  -21.7044  -27.8188   24.5994 H   0  0  0  0  0  0
  -23.0145  -25.7899   23.5125 H   0  0  0  0  0  0
  -23.6746  -26.6369   22.5345 H   0  0  0  0  0  0
  -21.0637  -24.0809   20.8323 H   0  0  0  0  0  0
  -21.2972  -25.2974   19.7950 H   0  0  0  0  0  0
  -18.7040  -26.2706   20.4471 H   0  0  0  0  0  0
  -18.5498  -25.2032   21.7227 H   0  0  0  0  0  0
  -20.0505  -30.0102   24.5155 H   0  0  0  0  0  0
  -17.8047  -30.9603   24.3866 H   0  0  0  0  0  0
  -16.0046  -29.6131   23.2580 H   0  0  0  0  0  0
  -16.6139  -27.5134   22.1018 H   0  0  0  0  0  0
  -24.5897  -30.7238   25.7800 H   0  0  0  0  0  0
  -24.8839  -32.3046   26.4918 H   0  0  0  0  0  0
  -25.7869  -30.9043   27.0425 H   0  0  0  0  0  0
  -26.3114  -29.6825   24.1510 H   0  0  0  0  0  0
  -27.3916  -29.7365   25.5202 H   0  0  0  0  0  0
  -27.9091  -30.4255   24.0038 H   0  0  0  0  0  0
  -27.2790  -33.3631   26.2436 H   0  0  0  0  0  0
  -28.3983  -32.6919   25.0671 H   0  0  0  0  0  0
  -28.0777  -31.8405   26.5710 H   0  0  0  0  0  0
  -28.2579  -38.0219   24.7604 H   0  0  0  0  0  0
  -28.1160  -36.2770   24.6137 H   0  0  0  0  0  0
  -27.2326  -37.1353   25.8829 H   0  0  0  0  0  0
  -21.1202  -29.7124   22.6055 H   0  0  0  0  0  0
  -26.0230  -38.2990   24.1504 H   0  0  0  0  0  0
  -19.8050  -19.4295   21.6052 H   0  0  0  0  0  0
  -19.6361  -17.8507   22.3697 H   0  0  0  0  0  0
  -20.1698  -17.9515   20.6967 H   0  0  0  0  0  0
  -19.4125  -28.3652   20.3243 H   0  0  0  0  0  0
  -20.8682  -28.9986   19.7525 H   0  0  0  0  0  0
  -20.3069  -29.4558   21.2783 H   0  0  0  0  0  0
  -22.9762  -27.6283   19.4603 H   0  0  0  0  0  0
  -23.1625  -26.1385   19.9617 H   0  0  0  0  0  0
  -23.5224  -22.2517   23.7253 H   0  0  0  0  0  0
  -20.9137  -27.1711   20.2067 H   0  0  0  0  0  0
  -22.0167  -20.1011   20.9720 H   0  0  0  0  0  0
  -28.8513  -18.0045   21.2220 H   0  0  0  0  0  0
  -21.3808  -23.0425   23.6886 H   0  0  0  0  0  0
  1 25  1  0  0  0
  1 30  2  0  0  0
  1 84  1  0  0  0
  2  3  1  0  0  0
  2 25  1  0  0  0
  2 92  1  0  0  0
  2 93  1  0  0  0
  3  4  1  0  0  0
  3 94  1  0  0  0
  3 95  1  0  0  0
  4  5  1  0  0  0
  4 96  1  0  0  0
  4 97  1  0  0  0
  5  6  1  0  0  0
  5 26  1  0  0  0
  5 98  1  0  0  0
  6 25  1  0  0  0
  6 99  1  0  0  0
  6100  1  0  0  0
  7  8  2  0  0  0
  7 26  1  0  0  0
  7 29  1  0  0  0
  8  9  1  0  0  0
  8 22  1  0  0  0
  9 10  1  0  0  0
  9 27  2  0  0  0
 10 11  2  0  0  0
 10 15  1  0  0  0
 11 12  1  0  0  0
 11101  1  0  0  0
 12 13  2  0  0  0
 12102  1  0  0  0
 13 14  1  0  0  0
 13 31  1  0  0  0
 14 15  2  0  0  0
 14103  1  0  0  0
 15104  1  0  0  0
 16 17  2  0  0  0
 16 21  1  0  0  0
 16 31  1  0  0  0
 17 18  1  0  0  0
 17105  1  0  0  0
 18 19  2  0  0  0
 18106  1  0  0  0
 19 20  1  0  0  0
 19 24  1  0  0  0
 20 21  2  0  0  0
 20107  1  0  0  0
 21 23  1  0  0  0
 22 28  1  0  0  0
 22 32  2  0  0  0
 26 27  1  0  0  0
 28108  1  0  0  0
 28109  1  0  0  0
 29110  1  0  0  0
 29111  1  0  0  0
 33 34  1  0  0  0
 33 66  1  0  0  0
 33 70  2  0  0  0
 34 36  1  0  0  0
 34 59  1  0  0  0
 34112  1  0  0  0
 35 44  2  0  0  0
 35 45  1  0  0  0
 35 68  1  0  0  0
 36 56  1  0  0  0
 36113  1  0  0  0
 37 39  1  0  0  0
 37 47  1  0  0  0
 37 66  1  0  0  0
 37114  1  0  0  0
 38 43  2  0  0  0
 38 46  1  0  0  0
 38 47  1  0  0  0
 39 64  1  0  0  0
 39 67  2  0  0  0
 40 52  1  0  0  0
 40 53  2  0  0  0
 40 58  1  0  0  0
 41115  1  0  0  0
 41116  1  0  0  0
 41117  1  0  0  0
 41 48  1  0  0  0
 42 43  1  0  0  0
 42 66  1  0  0  0
 42118  1  0  0  0
 42119  1  0  0  0
 43 44  1  0  0  0
 44120  1  0  0  0
 45 46  2  0  0  0
 45121  1  0  0  0
 46122  1  0  0  0
 47123  1  0  0  0
 47124  1  0  0  0
 48 56  1  0  0  0
 48 65  1  0  0  0
 48125  1  0  0  0
 49 50  1  0  0  0
 49 53  1  0  0  0
 49 64  1  0  0  0
 49126  1  0  0  0
 50 51  1  0  0  0
 50127  1  0  0  0
 50128  1  0  0  0
 51 52  1  0  0  0
 51129  1  0  0  0
 51130  1  0  0  0
 52131  1  0  0  0
 52132  1  0  0  0
 53 54  1  0  0  0
 54 55  2  0  0  0
 54133  1  0  0  0
 55 57  1  0  0  0
 55134  1  0  0  0
 56 69  2  0  0  0
 57 58  2  0  0  0
 57135  1  0  0  0
 58136  1  0  0  0
 59 60  1  0  0  0
 59 61  1  0  0  0
 59 62  1  0  0  0
 60137  1  0  0  0
 60138  1  0  0  0
 60139  1  0  0  0
 61140  1  0  0  0
 61141  1  0  0  0
 61142  1  0  0  0
 62143  1  0  0  0
 62144  1  0  0  0
 62145  1  0  0  0
 63 65  1  0  0  0
 63146  1  0  0  0
 63147  1  0  0  0
 63148  1  0  0  0
 64149  1  0  0  0
 65150  1  0  0  0
 68 78  1  0  0  0
 71 72  2  0  0  0
 71 79  1  0  0  0
 71 82  1  0  0  0
 72 83  1  0  0  0
 72 91  1  0  0  0
 73 82  2  0  0  0
 73 84  1  0  0  0
 73 91  1  0  0  0
 74 76  1  0  0  0
 74 83  1  0  0  0
 74 86  2  0  0  0
 75 80  1  0  0  0
 75 85  1  0  0  0
 75 87  2  0  0  0
 76151  1  0  0  0
 76152  1  0  0  0
 76153  1  0  0  0
 77154  1  0  0  0
 77155  1  0  0  0
 77156  1  0  0  0
 77 80  1  0  0  0
 78 80  1  0  0  0
 78157  1  0  0  0
 78158  1  0  0  0
 79 81  1  0  0  0
 79 85  1  0  0  0
 79159  1  0  0  0
 80160  1  0  0  0
 81 88  1  0  0  0
 81 89  1  0  0  0
 81 90  1  0  0  0
 83161  1  0  0  0
 84162  1  0  0  0
 85163  1  0  0  0
M  ISO  4   1 100  68 101  78 101  84 100
M  END
> <chiral flag>
0

> <version>
0

> <s_m_source_file>
/data/baiqing/PycharmProjects/Reinvent-master-3.2/result/LINK_invent/BTK/process_docking_weight1_custom_product_contain_oxygen_bond_distance_aromatic_linkinvent_7_9_3/rearranged_h_0186.sdf

> <i_m_source_file_index>
62

> <r_mmod_Potential_Energy-OPLS-2005>
17312.09375

> <r_mmod_Stretch_Energy-OPLS-2005>
8429.3017578125

> <r_mmod_Bend_Energy-OPLS-2005>
1871.21911621094

> <r_mmod_Torsional_Energy-OPLS-2005>
557.660461425781

> <r_mmod_Improper_Torsional_Energy-OPLS-2005>
38.6010398864746

> <r_mmod_Van_der_Waal_Energy-OPLS-2005>
2226.48876953125

> <r_mmod_Electrostatic_Energy-OPLS-2005>
-499.566864013672

> <r_mmod_Solvation_Energy-OPLS-2005>
-268.295623779297

> <b_mmod_Minimization_Converged-OPLS-2005>
0

> <r_mmod_RMS_Derivative-OPLS-2005>
9.57779121398926

$$$$
63
                    3D
 Structure written by MMmdl.
157165  0  0  1  0            999 V2000
  -30.6565  -14.5635   20.4980 C   0  0  0  0  0  0
  -30.4270  -12.3370   19.4482 C   0  0  0  0  0  0
  -29.5085  -12.4974   18.2194 C   0  0  0  0  0  0
  -28.0258  -12.3568   18.6270 C   0  0  0  0  0  0
  -27.6584  -13.2123   19.8728 C   0  0  2  0  0  0
  -28.7024  -13.0393   20.9992 C   0  0  0  0  0  0
  -25.2562  -13.8145   20.5687 C   0  0  0  0  0  0
  -24.1818  -13.0426   20.9163 C   0  0  0  0  0  0
  -24.6397  -11.6896   20.8747 C   0  0  0  0  0  0
  -23.9071  -10.4295   21.0412 C   0  0  0  0  0  0
  -24.3643   -9.4214   21.9187 C   0  0  0  0  0  0
  -23.6311   -8.2248   22.0748 C   0  0  0  0  0  0
  -22.4286   -8.0294   21.3542 C   0  0  0  0  0  0
  -21.9932   -9.0275   20.4645 C   0  0  0  0  0  0
  -22.7253  -10.2147   20.3055 C   0  0  0  0  0  0
  -21.6841   -6.0765   22.5271 C   0  0  0  0  0  0
  -21.4026   -6.5660   23.8220 C   0  0  0  0  0  0
  -21.3654   -5.6799   24.9178 C   0  0  0  0  0  0
  -21.6044   -4.3067   24.7211 C   0  0  0  0  0  0
  -21.8799   -3.8165   23.4330 C   0  0  0  0  0  0
  -21.9197   -4.6994   22.3389 C   0  0  0  0  0  0
  -22.7861  -13.5256   21.1826 C   0  0  0  0  0  0
  -22.1645   -4.2182   21.0966 F   0  0  0  0  0  0
  -21.5633   -3.4540   25.7718 F   0  0  0  0  0  0
  -30.0210  -13.3572   20.4302 N   0  0  0  0  0  0
  -26.3024  -12.9335   20.3370 N   0  0  0  0  0  0
  -25.9335  -11.6493   20.5804 N   0  0  0  0  0  0
  -22.0501  -12.8271   22.0390 N   0  0  0  0  0  0
  -25.4240  -15.1863   20.4087 N   0  0  0  0  0  0
  -31.8141  -14.7145   20.0992 O   0  0  0  0  0  0
  -21.6624   -6.8904   21.4230 O   0  0  0  0  0  0
  -22.3542  -14.5574   20.6685 O   0  0  0  0  0  0
  -24.6202  -31.8596   23.2031 C   0  0  0  0  0  0
  -25.9073  -32.4769   23.8328 C   0  0  1  0  0  0
  -27.2482  -27.3704   20.1168 C   0  0  0  0  0  0
  -25.5940  -33.8577   24.2290 N   0  0  0  0  0  0
  -23.4109  -30.4860   21.5387 C   0  0  2  0  0  0
  -24.8637  -28.9342   20.1112 C   0  0  0  0  0  0
  -22.7405  -29.4660   22.4864 C   0  0  0  0  0  0
  -18.0300  -28.1398   22.8513 C   0  0  0  0  0  0
  -24.1487  -36.7298   23.2642 C   0  0  0  0  0  0
  -25.9427  -30.8134   21.3542 C   0  0  0  0  0  0
  -26.0211  -29.4373   20.7144 C   0  0  0  0  0  0
  -27.2097  -28.6632   20.7119 C   0  0  0  0  0  0
  -26.0671  -26.8959   19.5008 C   0  0  0  0  0  0
  -24.8853  -27.6671   19.5001 C   0  0  0  0  0  0
  -23.6237  -29.8070   20.1572 C   0  0  0  0  0  0
  -25.4104  -36.3084   24.0344 C   0  0  1  0  0  0
  -20.5893  -28.3699   23.1279 C   0  0  2  0  0  0
  -20.6764  -26.9402   22.5429 C   0  0  0  0  0  0
  -19.5737  -26.6393   21.5218 C   0  0  0  0  0  0
  -18.1923  -26.7950   22.1628 C   0  0  0  0  0  0
  -19.1553  -28.8862   23.2926 C   0  0  0  0  0  0
  -18.9454  -30.1465   23.8921 C   0  0  0  0  0  0
  -17.6445  -30.6591   24.0585 C   0  0  0  0  0  0
  -25.9022  -34.9447   23.5111 C   0  0  0  0  0  0
  -16.5346  -29.9088   23.6326 C   0  0  0  0  0  0
  -16.7286  -28.6531   23.0327 C   0  0  0  0  0  0
  -26.4508  -31.6564   25.0656 C   0  0  0  0  0  0
  -25.3772  -31.3645   26.1390 C   0  0  0  0  0  0
  -27.0323  -30.3019   24.6025 C   0  0  0  0  0  0
  -27.6113  -32.4244   25.7430 C   0  0  0  0  0  0
  -27.5570  -37.1801   24.8461 C   0  0  0  0  0  0
  -21.4123  -29.3072   22.3632 N   0  0  0  0  0  0
  -26.4277  -37.3773   23.9430 N   0  0  0  0  0  0
  -24.6783  -31.0664   22.0930 N   0  0  0  0  0  0
  -23.4174  -28.8168   23.2882 O   0  0  0  0  0  0
  -28.4322  -26.6350   20.1818 O   0  0  0  0  0  0
  -26.5564  -34.8912   22.4650 O   0  0  0  0  0  0
  -23.5388  -32.1308   23.7448 O   0  0  0  0  0  0
  -28.4166  -17.8126   19.2940 C   0  0  0  0  0  0
  -29.4266  -18.0782   20.1853 C   0  0  0  0  0  0
  -28.7211  -20.2320   19.6861 C   0  0  0  0  0  0
  -26.8741  -23.6740   20.7294 C   0  0  0  0  0  0
  -28.7439  -24.5137   22.1134 C   0  0  0  0  0  0
  -30.3174  -17.0584   20.9042 C   0  0  0  0  0  0
  -29.2549  -22.7669   20.3728 C   0  0  0  0  0  0
  -28.5866  -25.2671   19.6881 C   0  0  0  0  0  0
  -28.3634  -24.0540   20.6898 C   0  0  0  0  0  0
  -29.5847  -19.4741   20.3940 N   0  0  0  0  0  0
  -28.6070  -21.6343   19.6861 N   0  0  0  0  0  0
  -29.8973  -15.6306   20.8526 N   0  0  0  0  0  0
  -27.6504  -19.2620   18.6827 S   0  0  0  0  0  0
  -31.4739  -12.4292   19.1559 H   0  0  0  0  0  0
  -30.3244  -11.3351   19.8697 H   0  0  0  0  0  0
  -29.7635  -11.7616   17.4550 H   0  0  0  0  0  0
  -29.6737  -13.4766   17.7646 H   0  0  0  0  0  0
  -27.8354  -11.3042   18.8372 H   0  0  0  0  0  0
  -27.3815  -12.6146   17.7853 H   0  0  0  0  0  0
  -27.6915  -14.2534   19.5518 H   0  0  0  0  0  0
  -28.6871  -12.0160   21.3831 H   0  0  0  0  0  0
  -28.4719  -13.6752   21.8551 H   0  0  0  0  0  0
  -25.2816   -9.5690   22.4762 H   0  0  0  0  0  0
  -24.0020   -7.4644   22.7484 H   0  0  0  0  0  0
  -21.0864   -8.8822   19.8971 H   0  0  0  0  0  0
  -22.3741  -10.9707   19.6172 H   0  0  0  0  0  0
  -21.1999   -7.6166   23.9735 H   0  0  0  0  0  0
  -21.1499   -6.0528   25.9083 H   0  0  0  0  0  0
  -22.0583   -2.7631   23.2806 H   0  0  0  0  0  0
  -22.4125  -11.9966   22.4836 H   0  0  0  0  0  0
  -21.1108  -13.1312   22.2552 H   0  0  0  0  0  0
  -24.6544  -15.8381   20.5161 H   0  0  0  0  0  0
  -26.2722  -15.6362   20.0927 H   0  0  0  0  0  0
  -26.7136  -32.5488   23.1069 H   0  0  0  0  0  0
  -25.0170  -33.9695   25.0510 H   0  0  0  0  0  0
  -22.7074  -31.3093   21.3908 H   0  0  0  0  0  0
  -23.3732  -35.9630   23.3287 H   0  0  0  0  0  0
  -24.3569  -36.8922   22.2052 H   0  0  0  0  0  0
  -23.7241  -37.6512   23.6645 H   0  0  0  0  0  0
  -26.0287  -31.5597   20.5628 H   0  0  0  0  0  0
  -26.8438  -30.8985   21.9496 H   0  0  0  0  0  0
  -28.1045  -29.0452   21.1865 H   0  0  0  0  0  0
  -26.0357  -25.9256   19.0328 H   0  0  0  0  0  0
  -23.9940  -27.2728   19.0351 H   0  0  0  0  0  0
  -23.7371  -30.5757   19.3906 H   0  0  0  0  0  0
  -22.7470  -29.2295   19.8602 H   0  0  0  0  0  0
  -25.1275  -36.1916   25.0826 H   0  0  0  0  0  0
  -21.0104  -28.3305   24.1349 H   0  0  0  0  0  0
  -20.5617  -26.2291   23.3638 H   0  0  0  0  0  0
  -21.6622  -26.7361   22.1233 H   0  0  0  0  0  0
  -19.6854  -25.6308   21.1232 H   0  0  0  0  0  0
  -19.6692  -27.3220   20.6771 H   0  0  0  0  0  0
  -17.4192  -26.6756   21.4044 H   0  0  0  0  0  0
  -18.0309  -26.0088   22.9018 H   0  0  0  0  0  0
  -19.7909  -30.7332   24.2276 H   0  0  0  0  0  0
  -17.4966  -31.6258   24.5198 H   0  0  0  0  0  0
  -15.5343  -30.2981   23.7629 H   0  0  0  0  0  0
  -15.8699  -28.0873   22.6954 H   0  0  0  0  0  0
  -24.6063  -30.6851   25.7737 H   0  0  0  0  0  0
  -24.8799  -32.2760   26.4719 H   0  0  0  0  0  0
  -25.8133  -30.8942   27.0205 H   0  0  0  0  0  0
  -26.2830  -29.6757   24.1163 H   0  0  0  0  0  0
  -27.4202  -29.7283   25.4448 H   0  0  0  0  0  0
  -27.8611  -30.4350   23.9060 H   0  0  0  0  0  0
  -27.2822  -33.3599   26.1949 H   0  0  0  0  0  0
  -28.3976  -32.6680   25.0277 H   0  0  0  0  0  0
  -28.0691  -31.8349   26.5377 H   0  0  0  0  0  0
  -28.2580  -38.0102   24.7504 H   0  0  0  0  0  0
  -28.1064  -36.2641   24.6276 H   0  0  0  0  0  0
  -27.2279  -37.1447   25.8853 H   0  0  0  0  0  0
  -20.9228  -29.8812   21.6905 H   0  0  0  0  0  0
  -26.0154  -38.2831   24.1447 H   0  0  0  0  0  0
  -28.0777  -16.8502   18.9413 H   0  0  0  0  0  0
  -26.5095  -23.4224   19.7347 H   0  0  0  0  0  0
  -26.2637  -24.4886   21.1198 H   0  0  0  0  0  0
  -26.7033  -22.8005   21.3618 H   0  0  0  0  0  0
  -28.5279  -23.7381   22.8491 H   0  0  0  0  0  0
  -28.1683  -25.3887   22.4187 H   0  0  0  0  0  0
  -29.7993  -24.7728   22.2016 H   0  0  0  0  0  0
  -30.3632  -17.3178   21.9605 H   0  0  0  0  0  0
  -31.3418  -17.1639   20.5406 H   0  0  0  0  0  0
  -29.6307  -22.3395   21.3034 H   0  0  0  0  0  0
  -30.1476  -23.0467   19.8089 H   0  0  0  0  0  0
  -28.0567  -25.1189   18.7474 H   0  0  0  0  0  0
  -29.6361  -25.2314   19.3909 H   0  0  0  0  0  0
  -27.8508  -21.9392   19.0835 H   0  0  0  0  0  0
  -28.9612  -15.4328   21.1712 H   0  0  0  0  0  0
  1 25  1  0  0  0
  1 30  2  0  0  0
  1 82  1  0  0  0
  2  3  1  0  0  0
  2 25  1  0  0  0
  2 84  1  0  0  0
  2 85  1  0  0  0
  3  4  1  0  0  0
  3 86  1  0  0  0
  3 87  1  0  0  0
  4  5  1  0  0  0
  4 88  1  0  0  0
  4 89  1  0  0  0
  5  6  1  0  0  0
  5 26  1  0  0  0
  5 90  1  0  0  0
  6 25  1  0  0  0
  6 91  1  0  0  0
  6 92  1  0  0  0
  7  8  2  0  0  0
  7 26  1  0  0  0
  7 29  1  0  0  0
  8  9  1  0  0  0
  8 22  1  0  0  0
  9 10  1  0  0  0
  9 27  2  0  0  0
 10 11  2  0  0  0
 10 15  1  0  0  0
 11 12  1  0  0  0
 11 93  1  0  0  0
 12 13  2  0  0  0
 12 94  1  0  0  0
 13 14  1  0  0  0
 13 31  1  0  0  0
 14 15  2  0  0  0
 14 95  1  0  0  0
 15 96  1  0  0  0
 16 17  2  0  0  0
 16 21  1  0  0  0
 16 31  1  0  0  0
 17 18  1  0  0  0
 17 97  1  0  0  0
 18 19  2  0  0  0
 18 98  1  0  0  0
 19 20  1  0  0  0
 19 24  1  0  0  0
 20 21  2  0  0  0
 20 99  1  0  0  0
 21 23  1  0  0  0
 22 28  1  0  0  0
 22 32  2  0  0  0
 26 27  1  0  0  0
 28100  1  0  0  0
 28101  1  0  0  0
 29102  1  0  0  0
 29103  1  0  0  0
 33 34  1  0  0  0
 33 66  1  0  0  0
 33 70  2  0  0  0
 34 36  1  0  0  0
 34 59  1  0  0  0
 34104  1  0  0  0
 35 44  2  0  0  0
 35 45  1  0  0  0
 35 68  1  0  0  0
 36 56  1  0  0  0
 36105  1  0  0  0
 37 39  1  0  0  0
 37 47  1  0  0  0
 37 66  1  0  0  0
 37106  1  0  0  0
 38 43  2  0  0  0
 38 46  1  0  0  0
 38 47  1  0  0  0
 39 64  1  0  0  0
 39 67  2  0  0  0
 40 52  1  0  0  0
 40 53  2  0  0  0
 40 58  1  0  0  0
 41107  1  0  0  0
 41108  1  0  0  0
 41109  1  0  0  0
 41 48  1  0  0  0
 42 43  1  0  0  0
 42 66  1  0  0  0
 42110  1  0  0  0
 42111  1  0  0  0
 43 44  1  0  0  0
 44112  1  0  0  0
 45 46  2  0  0  0
 45113  1  0  0  0
 46114  1  0  0  0
 47115  1  0  0  0
 47116  1  0  0  0
 48 56  1  0  0  0
 48 65  1  0  0  0
 48117  1  0  0  0
 49 50  1  0  0  0
 49 53  1  0  0  0
 49 64  1  0  0  0
 49118  1  0  0  0
 50 51  1  0  0  0
 50119  1  0  0  0
 50120  1  0  0  0
 51 52  1  0  0  0
 51121  1  0  0  0
 51122  1  0  0  0
 52123  1  0  0  0
 52124  1  0  0  0
 53 54  1  0  0  0
 54 55  2  0  0  0
 54125  1  0  0  0
 55 57  1  0  0  0
 55126  1  0  0  0
 56 69  2  0  0  0
 57 58  2  0  0  0
 57127  1  0  0  0
 58128  1  0  0  0
 59 60  1  0  0  0
 59 61  1  0  0  0
 59 62  1  0  0  0
 60129  1  0  0  0
 60130  1  0  0  0
 60131  1  0  0  0
 61132  1  0  0  0
 61133  1  0  0  0
 61134  1  0  0  0
 62135  1  0  0  0
 62136  1  0  0  0
 62137  1  0  0  0
 63 65  1  0  0  0
 63138  1  0  0  0
 63139  1  0  0  0
 63140  1  0  0  0
 64141  1  0  0  0
 65142  1  0  0  0
 68 78  1  0  0  0
 71 72  2  0  0  0
 71 83  1  0  0  0
 71143  1  0  0  0
 72 76  1  0  0  0
 72 80  1  0  0  0
 73 80  2  0  0  0
 73 81  1  0  0  0
 73 83  1  0  0  0
 74144  1  0  0  0
 74145  1  0  0  0
 74146  1  0  0  0
 74 79  1  0  0  0
 75 79  1  0  0  0
 75147  1  0  0  0
 75148  1  0  0  0
 75149  1  0  0  0
 76 82  1  0  0  0
 76150  1  0  0  0
 76151  1  0  0  0
 77 79  1  0  0  0
 77 81  1  0  0  0
 77152  1  0  0  0
 77153  1  0  0  0
 78 79  1  0  0  0
 78154  1  0  0  0
 78155  1  0  0  0
 81156  1  0  0  0
 82157  1  0  0  0
M  ISO  4   1 100  68 101  78 101  82 100
M  END
> <chiral flag>
0

> <version>
0

> <s_m_source_file>
/data/baiqing/PycharmProjects/Reinvent-master-3.2/result/LINK_invent/BTK/process_docking_weight1_custom_product_contain_oxygen_bond_distance_aromatic_linkinvent_7_9_3/rearranged_h_0186.sdf

> <i_m_source_file_index>
63

> <r_mmod_Potential_Energy-OPLS-2005>
-211.076538085938

> <r_mmod_Stretch_Energy-OPLS-2005>
56.1099014282227

> <r_mmod_Bend_Energy-OPLS-2005>
136.210205078125

> <r_mmod_Torsional_Energy-OPLS-2005>
210.722381591797

> <r_mmod_Improper_Torsional_Energy-OPLS-2005>
4.01188182830811

> <r_mmod_Van_der_Waal_Energy-OPLS-2005>
120.151245117188

> <r_mmod_Electrostatic_Energy-OPLS-2005>
-540.760925292969

> <r_mmod_Solvation_Energy-OPLS-2005>
-225.242706298828

> <b_mmod_Minimization_Converged-OPLS-2005>
0

> <r_mmod_RMS_Derivative-OPLS-2005>
5.87128877639771

$$$$
64
                    3D
 Structure written by MMmdl.
156164  0  0  1  0            999 V2000
  -30.6084  -14.7247   20.4783 C   0  0  0  0  0  0
  -30.4368  -12.4429   19.4739 C   0  0  0  0  0  0
  -29.5135  -12.5245   18.2377 C   0  0  0  0  0  0
  -28.0378  -12.3504   18.6450 C   0  0  0  0  0  0
  -27.6497  -13.2317   19.8620 C   0  0  2  0  0  0
  -28.6937  -13.1318   20.9972 C   0  0  0  0  0  0
  -25.2533  -13.8201   20.5692 C   0  0  0  0  0  0
  -24.1821  -13.0443   20.9205 C   0  0  0  0  0  0
  -24.6416  -11.6921   20.8746 C   0  0  0  0  0  0
  -23.9088  -10.4293   21.0409 C   0  0  0  0  0  0
  -24.3632   -9.4202   21.9190 C   0  0  0  0  0  0
  -23.6298   -8.2244   22.0763 C   0  0  0  0  0  0
  -22.4275   -8.0293   21.3552 C   0  0  0  0  0  0
  -21.9924   -9.0265   20.4652 C   0  0  0  0  0  0
  -22.7263  -10.2140   20.3059 C   0  0  0  0  0  0
  -21.6852   -6.0749   22.5277 C   0  0  0  0  0  0
  -21.4016   -6.5647   23.8215 C   0  0  0  0  0  0
  -21.3657   -5.6793   24.9175 C   0  0  0  0  0  0
  -21.6048   -4.3059   24.7218 C   0  0  0  0  0  0
  -21.8819   -3.8155   23.4336 C   0  0  0  0  0  0
  -21.9190   -4.6976   22.3396 C   0  0  0  0  0  0
  -22.7841  -13.5229   21.1851 C   0  0  0  0  0  0
  -22.1661   -4.2162   21.0975 F   0  0  0  0  0  0
  -21.5622   -3.4542   25.7733 F   0  0  0  0  0  0
  -30.0039  -13.4870   20.4314 N   0  0  0  0  0  0
  -26.2985  -12.9415   20.3326 N   0  0  0  0  0  0
  -25.9352  -11.6555   20.5763 N   0  0  0  0  0  0
  -22.0470  -12.8221   22.0402 N   0  0  0  0  0  0
  -25.4212  -15.1925   20.4080 N   0  0  0  0  0  0
  -31.7725  -14.8518   20.0827 O   0  0  0  0  0  0
  -21.6641   -6.8892   21.4242 O   0  0  0  0  0  0
  -22.3526  -14.5535   20.6694 O   0  0  0  0  0  0
  -24.6298  -31.8562   23.2001 C   0  0  0  0  0  0
  -25.9133  -32.4756   23.8347 C   0  0  1  0  0  0
  -27.2148  -27.2626   20.1302 C   0  0  0  0  0  0
  -25.5934  -33.8556   24.2262 N   0  0  0  0  0  0
  -23.4265  -30.4806   21.5433 C   0  0  2  0  0  0
  -24.8750  -28.9344   20.1075 C   0  0  0  0  0  0
  -22.7509  -29.4587   22.4890 C   0  0  0  0  0  0
  -18.0300  -28.1378   22.8483 C   0  0  0  0  0  0
  -24.1488  -36.7267   23.2629 C   0  0  0  0  0  0
  -25.9747  -30.7704   21.3827 C   0  0  0  0  0  0
  -26.0472  -29.3952   20.7198 C   0  0  0  0  0  0
  -27.2206  -28.5738   20.7175 C   0  0  0  0  0  0
  -26.0244  -26.8822   19.4695 C   0  0  0  0  0  0
  -24.8696  -27.6869   19.4699 C   0  0  0  0  0  0
  -23.6452  -29.8200   20.1575 C   0  0  0  0  0  0
  -25.4114  -36.3055   24.0320 C   0  0  1  0  0  0
  -20.5909  -28.3686   23.1255 C   0  0  2  0  0  0
  -20.6777  -26.9391   22.5405 C   0  0  0  0  0  0
  -19.5759  -26.6380   21.5191 C   0  0  0  0  0  0
  -18.1936  -26.7932   22.1602 C   0  0  0  0  0  0
  -19.1558  -28.8850   23.2868 C   0  0  0  0  0  0
  -18.9481  -30.1462   23.8871 C   0  0  0  0  0  0
  -17.6474  -30.6574   24.0560 C   0  0  0  0  0  0
  -25.9078  -34.9429   23.5099 C   0  0  0  0  0  0
  -16.5367  -29.9072   23.6324 C   0  0  0  0  0  0
  -16.7288  -28.6498   23.0340 C   0  0  0  0  0  0
  -26.4503  -31.6580   25.0736 C   0  0  0  0  0  0
  -25.3710  -31.3751   26.1452 C   0  0  0  0  0  0
  -27.0346  -30.2982   24.6248 C   0  0  0  0  0  0
  -27.6057  -32.4330   25.7495 C   0  0  0  0  0  0
  -27.5601  -37.1764   24.8444 C   0  0  0  0  0  0
  -21.4214  -29.3028   22.3635 N   0  0  0  0  0  0
  -26.4275  -37.3770   23.9429 N   0  0  0  0  0  0
  -24.6959  -31.0542   22.0969 N   0  0  0  0  0  0
  -23.4220  -28.8104   23.2967 O   0  0  0  0  0  0
  -28.2970  -26.3499   20.2241 O   0  0  0  0  0  0
  -26.5641  -34.8897   22.4665 O   0  0  0  0  0  0
  -23.5446  -32.1376   23.7297 O   0  0  0  0  0  0
  -30.3909  -19.2569   19.4978 C   0  0  0  0  0  0
  -29.6306  -19.8653   20.4966 C   0  0  0  0  0  0
  -29.9188  -17.2603   20.6235 C   0  0  0  0  0  0
  -29.1282  -22.3000   19.9271 C   0  0  0  0  0  0
  -31.1113  -19.9495   18.3804 C   0  0  0  0  0  0
  -27.1044  -24.5806   21.4894 C   0  0  0  0  0  0
  -29.2805  -23.8364   20.3777 C   0  0  2  0  0  0
  -28.0287  -24.8578   20.2844 C   0  0  2  0  0  0
  -30.5364  -17.8377   19.5805 N   0  0  0  0  0  0
  -29.3907  -21.2292   20.7646 N   0  0  0  0  0  0
  -29.8385  -15.8029   20.8728 N   0  0  0  0  0  0
  -30.3545  -24.4084   19.5476 N   0  3  0  0  0  0
  -28.8248  -22.0963   18.7504 O   0  0  0  0  0  0
  -29.0890  -18.5421   21.5778 S   0  0  0  0  0  0
  -31.4776  -12.5647   19.1708 H   0  0  0  0  0  0
  -30.3752  -11.4564   19.9365 H   0  0  0  0  0  0
  -29.7909  -11.7654   17.5057 H   0  0  0  0  0  0
  -29.6482  -13.4884   17.7444 H   0  0  0  0  0  0
  -27.8809  -11.2986   18.8845 H   0  0  0  0  0  0
  -27.3858  -12.5698   17.7992 H   0  0  0  0  0  0
  -27.6535  -14.2621   19.5058 H   0  0  0  0  0  0
  -28.7207  -12.1219   21.4088 H   0  0  0  0  0  0
  -28.4263  -13.7854   21.8279 H   0  0  0  0  0  0
  -25.2769   -9.5682   22.4773 H   0  0  0  0  0  0
  -24.0004   -7.4644   22.7492 H   0  0  0  0  0  0
  -21.0855   -8.8797   19.8958 H   0  0  0  0  0  0
  -22.3721  -10.9690   19.6174 H   0  0  0  0  0  0
  -21.2013   -7.6154   23.9722 H   0  0  0  0  0  0
  -21.1479   -6.0522   25.9078 H   0  0  0  0  0  0
  -22.0596   -2.7617   23.2833 H   0  0  0  0  0  0
  -22.4067  -11.9865   22.4770 H   0  0  0  0  0  0
  -21.1091  -13.1273   22.2609 H   0  0  0  0  0  0
  -24.6463  -15.8405   20.5003 H   0  0  0  0  0  0
  -26.2613  -15.6298   20.0497 H   0  0  0  0  0  0
  -26.7182  -32.5422   23.1074 H   0  0  0  0  0  0
  -25.0060  -33.9706   25.0394 H   0  0  0  0  0  0
  -22.7196  -31.3008   21.3998 H   0  0  0  0  0  0
  -23.3771  -35.9576   23.3234 H   0  0  0  0  0  0
  -24.3590  -36.8969   22.2059 H   0  0  0  0  0  0
  -23.7213  -37.6431   23.6709 H   0  0  0  0  0  0
  -26.1224  -31.5329   20.6174 H   0  0  0  0  0  0
  -26.8487  -30.8144   22.0215 H   0  0  0  0  0  0
  -28.1164  -28.9188   21.2150 H   0  0  0  0  0  0
  -25.9426  -25.9318   18.9663 H   0  0  0  0  0  0
  -23.9743  -27.3322   18.9791 H   0  0  0  0  0  0
  -23.7665  -30.5995   19.4039 H   0  0  0  0  0  0
  -22.7649  -29.2531   19.8503 H   0  0  0  0  0  0
  -25.1280  -36.1889   25.0805 H   0  0  0  0  0  0
  -21.0012  -28.3270   24.1377 H   0  0  0  0  0  0
  -20.5646  -26.2280   23.3614 H   0  0  0  0  0  0
  -21.6647  -26.7390   22.1219 H   0  0  0  0  0  0
  -19.6907  -25.6290   21.1227 H   0  0  0  0  0  0
  -19.6706  -27.3188   20.6720 H   0  0  0  0  0  0
  -17.4208  -26.6689   21.4005 H   0  0  0  0  0  0
  -18.0325  -26.0070   22.8992 H   0  0  0  0  0  0
  -19.7954  -30.7297   24.2205 H   0  0  0  0  0  0
  -17.5025  -31.6243   24.5190 H   0  0  0  0  0  0
  -15.5371  -30.2966   23.7657 H   0  0  0  0  0  0
  -15.8687  -28.0819   22.7042 H   0  0  0  0  0  0
  -24.5890  -30.7092   25.7785 H   0  0  0  0  0  0
  -24.8887  -32.2930   26.4819 H   0  0  0  0  0  0
  -25.8013  -30.8972   27.0259 H   0  0  0  0  0  0
  -26.2939  -29.6725   24.1254 H   0  0  0  0  0  0
  -27.3987  -29.7262   25.4792 H   0  0  0  0  0  0
  -27.8837  -30.4232   23.9522 H   0  0  0  0  0  0
  -27.2675  -33.3654   26.2020 H   0  0  0  0  0  0
  -28.3878  -32.6853   25.0325 H   0  0  0  0  0  0
  -28.0696  -31.8487   26.5452 H   0  0  0  0  0  0
  -28.2521  -38.0155   24.7610 H   0  0  0  0  0  0
  -28.1207  -36.2692   24.6114 H   0  0  0  0  0  0
  -27.2353  -37.1223   25.8853 H   0  0  0  0  0  0
  -20.9384  -29.8781   21.6874 H   0  0  0  0  0  0
  -26.0149  -38.2822   24.1527 H   0  0  0  0  0  0
  -30.4491  -20.1239   17.5337 H   0  0  0  0  0  0
  -31.9592  -19.3656   18.0203 H   0  0  0  0  0  0
  -31.5023  -20.9157   18.6956 H   0  0  0  0  0  0
  -26.8948  -23.5154   21.5982 H   0  0  0  0  0  0
  -26.1416  -25.0827   21.4107 H   0  0  0  0  0  0
  -27.5720  -24.9184   22.4135 H   0  0  0  0  0  0
  -29.6512  -23.8419   21.4032 H   0  0  0  0  0  0
  -27.5018  -24.5807   19.3731 H   0  0  0  0  0  0
  -29.4396  -21.4749   21.7448 H   0  0  0  0  0  0
  -28.9995  -15.5242   21.3566 H   0  0  0  0  0  0
  -30.0695  -24.3992   18.5829 H   0  0  0  0  0  0
  -31.1913  -23.8607   19.6354 H   0  0  0  0  0  0
  -30.5458  -25.3564   19.8196 H   0  0  0  0  0  0
  1 25  1  0  0  0
  1 30  2  0  0  0
  1 81  1  0  0  0
  2  3  1  0  0  0
  2 25  1  0  0  0
  2 85  1  0  0  0
  2 86  1  0  0  0
  3  4  1  0  0  0
  3 87  1  0  0  0
  3 88  1  0  0  0
  4  5  1  0  0  0
  4 89  1  0  0  0
  4 90  1  0  0  0
  5  6  1  0  0  0
  5 26  1  0  0  0
  5 91  1  0  0  0
  6 25  1  0  0  0
  6 92  1  0  0  0
  6 93  1  0  0  0
  7  8  2  0  0  0
  7 26  1  0  0  0
  7 29  1  0  0  0
  8  9  1  0  0  0
  8 22  1  0  0  0
  9 10  1  0  0  0
  9 27  2  0  0  0
 10 11  2  0  0  0
 10 15  1  0  0  0
 11 12  1  0  0  0
 11 94  1  0  0  0
 12 13  2  0  0  0
 12 95  1  0  0  0
 13 14  1  0  0  0
 13 31  1  0  0  0
 14 15  2  0  0  0
 14 96  1  0  0  0
 15 97  1  0  0  0
 16 17  2  0  0  0
 16 21  1  0  0  0
 16 31  1  0  0  0
 17 18  1  0  0  0
 17 98  1  0  0  0
 18 19  2  0  0  0
 18 99  1  0  0  0
 19 20  1  0  0  0
 19 24  1  0  0  0
 20 21  2  0  0  0
 20100  1  0  0  0
 21 23  1  0  0  0
 22 28  1  0  0  0
 22 32  2  0  0  0
 26 27  1  0  0  0
 28101  1  0  0  0
 28102  1  0  0  0
 29103  1  0  0  0
 29104  1  0  0  0
 33 34  1  0  0  0
 33 66  1  0  0  0
 33 70  2  0  0  0
 34 36  1  0  0  0
 34 59  1  0  0  0
 34105  1  0  0  0
 35 44  2  0  0  0
 35 45  1  0  0  0
 35 68  1  0  0  0
 36 56  1  0  0  0
 36106  1  0  0  0
 37 39  1  0  0  0
 37 47  1  0  0  0
 37 66  1  0  0  0
 37107  1  0  0  0
 38 43  2  0  0  0
 38 46  1  0  0  0
 38 47  1  0  0  0
 39 64  1  0  0  0
 39 67  2  0  0  0
 40 52  1  0  0  0
 40 53  2  0  0  0
 40 58  1  0  0  0
 41108  1  0  0  0
 41109  1  0  0  0
 41110  1  0  0  0
 41 48  1  0  0  0
 42 43  1  0  0  0
 42 66  1  0  0  0
 42111  1  0  0  0
 42112  1  0  0  0
 43 44  1  0  0  0
 44113  1  0  0  0
 45 46  2  0  0  0
 45114  1  0  0  0
 46115  1  0  0  0
 47116  1  0  0  0
 47117  1  0  0  0
 48 56  1  0  0  0
 48 65  1  0  0  0
 48118  1  0  0  0
 49 50  1  0  0  0
 49 53  1  0  0  0
 49 64  1  0  0  0
 49119  1  0  0  0
 50 51  1  0  0  0
 50120  1  0  0  0
 50121  1  0  0  0
 51 52  1  0  0  0
 51122  1  0  0  0
 51123  1  0  0  0
 52124  1  0  0  0
 52125  1  0  0  0
 53 54  1  0  0  0
 54 55  2  0  0  0
 54126  1  0  0  0
 55 57  1  0  0  0
 55127  1  0  0  0
 56 69  2  0  0  0
 57 58  2  0  0  0
 57128  1  0  0  0
 58129  1  0  0  0
 59 60  1  0  0  0
 59 61  1  0  0  0
 59 62  1  0  0  0
 60130  1  0  0  0
 60131  1  0  0  0
 60132  1  0  0  0
 61133  1  0  0  0
 61134  1  0  0  0
 61135  1  0  0  0
 62136  1  0  0  0
 62137  1  0  0  0
 62138  1  0  0  0
 63 65  1  0  0  0
 63139  1  0  0  0
 63140  1  0  0  0
 63141  1  0  0  0
 64142  1  0  0  0
 65143  1  0  0  0
 68 78  1  0  0  0
 71 72  2  0  0  0
 71 75  1  0  0  0
 71 79  1  0  0  0
 72 80  1  0  0  0
 72 84  1  0  0  0
 73 79  2  0  0  0
 73 81  1  0  0  0
 73 84  1  0  0  0
 74 77  1  0  0  0
 74 80  1  0  0  0
 74 83  2  0  0  0
 75144  1  0  0  0
 75145  1  0  0  0
 75146  1  0  0  0
 76147  1  0  0  0
 76148  1  0  0  0
 76149  1  0  0  0
 76 78  1  0  0  0
 77 78  1  0  0  0
 77 82  1  0  0  0
 77150  1  0  0  0
 78151  1  0  0  0
 80152  1  0  0  0
 81153  1  0  0  0
 82154  1  0  0  0
 82155  1  0  0  0
 82156  1  0  0  0
M  CHG  1  82   1
M  ISO  4   1 100  68 101  78 101  81 100
M  END
> <chiral flag>
0

> <version>
0

> <s_m_source_file>
/data/baiqing/PycharmProjects/Reinvent-master-3.2/result/LINK_invent/BTK/process_docking_weight1_custom_product_contain_oxygen_bond_distance_aromatic_linkinvent_7_9_3/rearranged_h_0186.sdf

> <i_m_source_file_index>
64

> <r_mmod_Potential_Energy-OPLS-2005>
-254.099822998047

> <r_mmod_Stretch_Energy-OPLS-2005>
113.203018188477

> <r_mmod_Bend_Energy-OPLS-2005>
167.624816894531

> <r_mmod_Torsional_Energy-OPLS-2005>
250.110610961914

> <r_mmod_Improper_Torsional_Energy-OPLS-2005>
4.04755020141602

> <r_mmod_Van_der_Waal_Energy-OPLS-2005>
119.277847290039

> <r_mmod_Electrostatic_Energy-OPLS-2005>
-486.238128662109

> <r_mmod_Solvation_Energy-OPLS-2005>
-503.464111328125

> <b_mmod_Minimization_Converged-OPLS-2005>
0

> <r_mmod_RMS_Derivative-OPLS-2005>
2.04166126251221

$$$$
65
                    3D
 Structure written by MMmdl.
164172  0  0  1  0            999 V2000
  -30.5334  -14.7869   20.4905 C   0  0  0  0  0  0
  -30.4632  -12.4953   19.4582 C   0  0  0  0  0  0
  -29.5240  -12.5385   18.2284 C   0  0  0  0  0  0
  -28.0455  -12.3517   18.6340 C   0  0  0  0  0  0
  -27.6459  -13.2289   19.8502 C   0  0  2  0  0  0
  -28.6929  -13.1091   20.9807 C   0  0  0  0  0  0
  -25.2460  -13.8169   20.5614 C   0  0  0  0  0  0
  -24.1792  -13.0418   20.9217 C   0  0  0  0  0  0
  -24.6393  -11.6915   20.8734 C   0  0  0  0  0  0
  -23.9060  -10.4303   21.0406 C   0  0  0  0  0  0
  -24.3614   -9.4224   21.9186 C   0  0  0  0  0  0
  -23.6298   -8.2249   22.0754 C   0  0  0  0  0  0
  -22.4287   -8.0290   21.3544 C   0  0  0  0  0  0
  -21.9911   -9.0260   20.4640 C   0  0  0  0  0  0
  -22.7234  -10.2149   20.3058 C   0  0  0  0  0  0
  -21.6864   -6.0745   22.5298 C   0  0  0  0  0  0
  -21.3999   -6.5640   23.8234 C   0  0  0  0  0  0
  -21.3651   -5.6777   24.9172 C   0  0  0  0  0  0
  -21.6054   -4.3048   24.7215 C   0  0  0  0  0  0
  -21.8821   -3.8148   23.4331 C   0  0  0  0  0  0
  -21.9192   -4.6972   22.3395 C   0  0  0  0  0  0
  -22.7806  -13.5211   21.1854 C   0  0  0  0  0  0
  -22.1672   -4.2158   21.0971 F   0  0  0  0  0  0
  -21.5632   -3.4527   25.7722 F   0  0  0  0  0  0
  -29.9952  -13.5154   20.4248 N   0  0  0  0  0  0
  -26.2934  -12.9412   20.3208 N   0  0  0  0  0  0
  -25.9321  -11.6552   20.5714 N   0  0  0  0  0  0
  -22.0410  -12.8265   22.0441 N   0  0  0  0  0  0
  -25.3899  -15.1890   20.3924 N   0  0  0  0  0  0
  -31.6928  -14.9893   20.1106 O   0  0  0  0  0  0
  -21.6644   -6.8894   21.4261 O   0  0  0  0  0  0
  -22.3508  -14.5506   20.6663 O   0  0  0  0  0  0
  -24.6315  -31.8533   23.1966 C   0  0  0  0  0  0
  -25.9143  -32.4723   23.8311 C   0  0  1  0  0  0
  -27.2195  -27.2403   20.1292 C   0  0  0  0  0  0
  -25.5939  -33.8526   24.2231 N   0  0  0  0  0  0
  -23.4286  -30.4732   21.5426 C   0  0  2  0  0  0
  -24.8765  -28.9197   20.1065 C   0  0  0  0  0  0
  -22.7507  -29.4575   22.4936 C   0  0  0  0  0  0
  -18.0287  -28.1344   22.8493 C   0  0  0  0  0  0
  -24.1490  -36.7266   23.2644 C   0  0  0  0  0  0
  -25.9764  -30.7559   21.3826 C   0  0  0  0  0  0
  -26.0482  -29.3781   20.7226 C   0  0  0  0  0  0
  -27.2190  -28.5487   20.7279 C   0  0  0  0  0  0
  -26.0291  -26.8677   19.4632 C   0  0  0  0  0  0
  -24.8726  -27.6723   19.4671 C   0  0  0  0  0  0
  -23.6449  -29.8031   20.1597 C   0  0  0  0  0  0
  -25.4118  -36.3047   24.0328 C   0  0  1  0  0  0
  -20.5887  -28.3650   23.1276 C   0  0  2  0  0  0
  -20.6767  -26.9367   22.5406 C   0  0  0  0  0  0
  -19.5746  -26.6344   21.5206 C   0  0  0  0  0  0
  -18.1925  -26.7899   22.1613 C   0  0  0  0  0  0
  -19.1540  -28.8827   23.2863 C   0  0  0  0  0  0
  -18.9466  -30.1438   23.8854 C   0  0  0  0  0  0
  -17.6465  -30.6560   24.0541 C   0  0  0  0  0  0
  -25.9072  -34.9419   23.5087 C   0  0  0  0  0  0
  -16.5353  -29.9051   23.6330 C   0  0  0  0  0  0
  -16.7270  -28.6456   23.0374 C   0  0  0  0  0  0
  -26.4500  -31.6561   25.0712 C   0  0  0  0  0  0
  -25.3727  -31.3718   26.1439 C   0  0  0  0  0  0
  -27.0368  -30.2974   24.6227 C   0  0  0  0  0  0
  -27.6038  -32.4322   25.7489 C   0  0  0  0  0  0
  -27.5578  -37.1787   24.8465 C   0  0  0  0  0  0
  -21.4211  -29.3004   22.3676 N   0  0  0  0  0  0
  -26.4284  -37.3755   23.9420 N   0  0  0  0  0  0
  -24.6977  -31.0470   22.0953 N   0  0  0  0  0  0
  -23.4201  -28.8130   23.3049 O   0  0  0  0  0  0
  -28.3030  -26.3229   20.2152 O   0  0  0  0  0  0
  -26.5637  -34.8912   22.4650 O   0  0  0  0  0  0
  -23.5469  -32.1373   23.7243 O   0  0  0  0  0  0
  -28.4492  -19.0586   21.8961 C   0  0  0  0  0  0
  -29.3151  -19.5275   20.9117 C   0  0  0  0  0  0
  -29.4605  -17.2494   21.0198 C   0  0  0  0  0  0
  -28.7970  -23.6950   22.0929 C   0  0  0  0  0  0
  -27.3174  -21.7096   19.7242 C   0  0  0  0  0  0
  -27.6964  -16.7252   22.6987 C   0  0  0  0  0  0
  -28.0927  -24.8499   19.9170 C   0  0  0  0  0  0
  -28.9703  -23.6323   20.5690 C   0  0  2  0  0  0
  -28.7818  -22.0908   20.0093 C   0  0  1  0  0  0
  -27.6084  -19.8239   22.9064 C   0  0  0  0  0  0
  -28.1696  -19.7987   24.3523 C   0  0  0  0  0  0
  -29.9844  -18.3496   20.3987 N   0  0  0  0  0  0
  -28.5022  -17.6410   21.8875 N   0  0  0  0  0  0
  -29.6237  -20.9305   20.5619 N   0  0  0  0  0  0
  -29.6292  -15.7708   20.8646 N   0  0  0  0  0  0
  -27.5359  -21.1148   22.6214 F   0  0  0  0  0  0
  -26.3440  -19.3989   22.9315 F   0  0  0  0  0  0
  -29.4051  -20.3009   24.3830 F   0  0  0  0  0  0
  -28.2204  -18.5655   24.8549 F   0  0  0  0  0  0
  -27.3976  -20.5337   25.1563 F   0  0  0  0  0  0
  -31.4918  -12.6852   19.1456 H   0  0  0  0  0  0
  -30.4696  -11.5072   19.9196 H   0  0  0  0  0  0
  -29.8179  -11.7719   17.5093 H   0  0  0  0  0  0
  -29.6380  -13.4951   17.7164 H   0  0  0  0  0  0
  -27.9009  -11.3009   18.8792 H   0  0  0  0  0  0
  -27.3896  -12.5580   17.7862 H   0  0  0  0  0  0
  -27.6466  -14.2596   19.4931 H   0  0  0  0  0  0
  -28.7379  -12.0825   21.3476 H   0  0  0  0  0  0
  -28.4094  -13.7146   21.8424 H   0  0  0  0  0  0
  -25.2759   -9.5728   22.4753 H   0  0  0  0  0  0
  -24.0032   -7.4652   22.7484 H   0  0  0  0  0  0
  -21.0840   -8.8772   19.8951 H   0  0  0  0  0  0
  -22.3683  -10.9685   19.6168 H   0  0  0  0  0  0
  -21.1985   -7.6155   23.9738 H   0  0  0  0  0  0
  -21.1469   -6.0501   25.9086 H   0  0  0  0  0  0
  -22.0601   -2.7615   23.2820 H   0  0  0  0  0  0
  -22.3989  -11.9981   22.4947 H   0  0  0  0  0  0
  -21.0989  -13.1304   22.2499 H   0  0  0  0  0  0
  -24.5519  -15.7625   20.4129 H   0  0  0  0  0  0
  -26.1512  -15.6289   19.8923 H   0  0  0  0  0  0
  -26.7204  -32.5361   23.1051 H   0  0  0  0  0  0
  -25.0091  -33.9653   25.0377 H   0  0  0  0  0  0
  -22.7251  -31.2946   21.3947 H   0  0  0  0  0  0
  -23.3760  -35.9591   23.3296 H   0  0  0  0  0  0
  -24.3592  -36.8895   22.2062 H   0  0  0  0  0  0
  -23.7237  -37.6461   23.6675 H   0  0  0  0  0  0
  -26.1266  -31.5186   20.6168 H   0  0  0  0  0  0
  -26.8483  -30.7972   22.0230 H   0  0  0  0  0  0
  -28.1072  -28.8913   21.2388 H   0  0  0  0  0  0
  -25.9528  -25.9271   18.9411 H   0  0  0  0  0  0
  -23.9803  -27.3141   18.9723 H   0  0  0  0  0  0
  -23.7590  -30.5740   19.3976 H   0  0  0  0  0  0
  -22.7643  -29.2291   19.8641 H   0  0  0  0  0  0
  -25.1305  -36.1890   25.0822 H   0  0  0  0  0  0
  -20.9974  -28.3207   24.1403 H   0  0  0  0  0  0
  -20.5644  -26.2261   23.3611 H   0  0  0  0  0  0
  -21.6640  -26.7386   22.1219 H   0  0  0  0  0  0
  -19.6903  -25.6255   21.1238 H   0  0  0  0  0  0
  -19.6685  -27.3145   20.6734 H   0  0  0  0  0  0
  -17.4213  -26.6672   21.3994 H   0  0  0  0  0  0
  -18.0298  -26.0017   22.8980 H   0  0  0  0  0  0
  -19.7953  -30.7257   24.2194 H   0  0  0  0  0  0
  -17.5030  -31.6256   24.5111 H   0  0  0  0  0  0
  -15.5352  -30.2935   23.7675 H   0  0  0  0  0  0
  -15.8681  -28.0755   22.7125 H   0  0  0  0  0  0
  -24.5894  -30.7067   25.7788 H   0  0  0  0  0  0
  -24.8927  -32.2885   26.4871 H   0  0  0  0  0  0
  -25.8055  -30.8903   27.0216 H   0  0  0  0  0  0
  -26.2970  -29.6698   24.1239 H   0  0  0  0  0  0
  -27.4029  -29.7259   25.4768 H   0  0  0  0  0  0
  -27.8856  -30.4248   23.9504 H   0  0  0  0  0  0
  -27.2617  -33.3621   26.2049 H   0  0  0  0  0  0
  -28.3849  -32.6883   25.0318 H   0  0  0  0  0  0
  -28.0702  -31.8462   26.5421 H   0  0  0  0  0  0
  -28.2587  -38.0089   24.7526 H   0  0  0  0  0  0
  -28.1075  -36.2627   24.6273 H   0  0  0  0  0  0
  -27.2303  -37.1414   25.8865 H   0  0  0  0  0  0
  -20.9396  -29.8749   21.6910 H   0  0  0  0  0  0
  -26.0159  -38.2829   24.1410 H   0  0  0  0  0  0
  -29.0622  -24.6820   22.4731 H   0  0  0  0  0  0
  -29.4302  -22.9659   22.5984 H   0  0  0  0  0  0
  -27.7636  -23.5129   22.3842 H   0  0  0  0  0  0
  -26.8848  -22.4012   19.0006 H   0  0  0  0  0  0
  -26.6708  -21.7472   20.5968 H   0  0  0  0  0  0
  -27.2468  -20.7137   19.2855 H   0  0  0  0  0  0
  -28.2595  -16.4036   23.5755 H   0  0  0  0  0  0
  -27.4119  -15.8457   22.1232 H   0  0  0  0  0  0
  -26.7657  -17.1760   23.0261 H   0  0  0  0  0  0
  -27.0657  -24.5971   20.1786 H   0  0  0  0  0  0
  -28.1563  -24.7533   18.8324 H   0  0  0  0  0  0
  -30.0112  -23.8899   20.3735 H   0  0  0  0  0  0
  -29.1916  -22.1659   19.0020 H   0  0  0  0  0  0
  -30.5554  -20.9983   20.1626 H   0  0  0  0  0  0
  -28.8050  -15.2953   21.1918 H   0  0  0  0  0  0
  1 25  1  0  0  0
  1 30  2  0  0  0
  1 85  1  0  0  0
  2  3  1  0  0  0
  2 25  1  0  0  0
  2 91  1  0  0  0
  2 92  1  0  0  0
  3  4  1  0  0  0
  3 93  1  0  0  0
  3 94  1  0  0  0
  4  5  1  0  0  0
  4 95  1  0  0  0
  4 96  1  0  0  0
  5  6  1  0  0  0
  5 26  1  0  0  0
  5 97  1  0  0  0
  6 25  1  0  0  0
  6 98  1  0  0  0
  6 99  1  0  0  0
  7  8  2  0  0  0
  7 26  1  0  0  0
  7 29  1  0  0  0
  8  9  1  0  0  0
  8 22  1  0  0  0
  9 10  1  0  0  0
  9 27  2  0  0  0
 10 11  2  0  0  0
 10 15  1  0  0  0
 11 12  1  0  0  0
 11100  1  0  0  0
 12 13  2  0  0  0
 12101  1  0  0  0
 13 14  1  0  0  0
 13 31  1  0  0  0
 14 15  2  0  0  0
 14102  1  0  0  0
 15103  1  0  0  0
 16 17  2  0  0  0
 16 21  1  0  0  0
 16 31  1  0  0  0
 17 18  1  0  0  0
 17104  1  0  0  0
 18 19  2  0  0  0
 18105  1  0  0  0
 19 20  1  0  0  0
 19 24  1  0  0  0
 20 21  2  0  0  0
 20106  1  0  0  0
 21 23  1  0  0  0
 22 28  1  0  0  0
 22 32  2  0  0  0
 26 27  1  0  0  0
 28107  1  0  0  0
 28108  1  0  0  0
 29109  1  0  0  0
 29110  1  0  0  0
 33 34  1  0  0  0
 33 66  1  0  0  0
 33 70  2  0  0  0
 34 36  1  0  0  0
 34 59  1  0  0  0
 34111  1  0  0  0
 35 44  2  0  0  0
 35 45  1  0  0  0
 35 68  1  0  0  0
 36 56  1  0  0  0
 36112  1  0  0  0
 37 39  1  0  0  0
 37 47  1  0  0  0
 37 66  1  0  0  0
 37113  1  0  0  0
 38 43  2  0  0  0
 38 46  1  0  0  0
 38 47  1  0  0  0
 39 64  1  0  0  0
 39 67  2  0  0  0
 40 52  1  0  0  0
 40 53  2  0  0  0
 40 58  1  0  0  0
 41114  1  0  0  0
 41115  1  0  0  0
 41116  1  0  0  0
 41 48  1  0  0  0
 42 43  1  0  0  0
 42 66  1  0  0  0
 42117  1  0  0  0
 42118  1  0  0  0
 43 44  1  0  0  0
 44119  1  0  0  0
 45 46  2  0  0  0
 45120  1  0  0  0
 46121  1  0  0  0
 47122  1  0  0  0
 47123  1  0  0  0
 48 56  1  0  0  0
 48 65  1  0  0  0
 48124  1  0  0  0
 49 50  1  0  0  0
 49 53  1  0  0  0
 49 64  1  0  0  0
 49125  1  0  0  0
 50 51  1  0  0  0
 50126  1  0  0  0
 50127  1  0  0  0
 51 52  1  0  0  0
 51128  1  0  0  0
 51129  1  0  0  0
 52130  1  0  0  0
 52131  1  0  0  0
 53 54  1  0  0  0
 54 55  2  0  0  0
 54132  1  0  0  0
 55 57  1  0  0  0
 55133  1  0  0  0
 56 69  2  0  0  0
 57 58  2  0  0  0
 57134  1  0  0  0
 58135  1  0  0  0
 59 60  1  0  0  0
 59 61  1  0  0  0
 59 62  1  0  0  0
 60136  1  0  0  0
 60137  1  0  0  0
 60138  1  0  0  0
 61139  1  0  0  0
 61140  1  0  0  0
 61141  1  0  0  0
 62142  1  0  0  0
 62143  1  0  0  0
 62144  1  0  0  0
 63 65  1  0  0  0
 63145  1  0  0  0
 63146  1  0  0  0
 63147  1  0  0  0
 64148  1  0  0  0
 65149  1  0  0  0
 68 77  1  0  0  0
 71 72  2  0  0  0
 71 80  1  0  0  0
 71 83  1  0  0  0
 72 82  1  0  0  0
 72 84  1  0  0  0
 73 82  2  0  0  0
 73 83  1  0  0  0
 73 85  1  0  0  0
 74150  1  0  0  0
 74151  1  0  0  0
 74152  1  0  0  0
 74 78  1  0  0  0
 75153  1  0  0  0
 75154  1  0  0  0
 75155  1  0  0  0
 75 79  1  0  0  0
 76 83  1  0  0  0
 76156  1  0  0  0
 76157  1  0  0  0
 76158  1  0  0  0
 77 78  1  0  0  0
 77159  1  0  0  0
 77160  1  0  0  0
 78 79  1  0  0  0
 78161  1  0  0  0
 79 84  1  0  0  0
 79162  1  0  0  0
 80 81  1  0  0  0
 80 86  1  0  0  0
 80 87  1  0  0  0
 81 88  1  0  0  0
 81 89  1  0  0  0
 81 90  1  0  0  0
 84163  1  0  0  0
 85164  1  0  0  0
M  ISO  4   1 100  68 101  77 101  85 100
M  END
> <chiral flag>
0

> <version>
0

> <s_m_source_file>
/data/baiqing/PycharmProjects/Reinvent-master-3.2/result/LINK_invent/BTK/process_docking_weight1_custom_product_contain_oxygen_bond_distance_aromatic_linkinvent_7_9_3/rearranged_h_0186.sdf

> <i_m_source_file_index>
65

> <r_mmod_Potential_Energy-OPLS-2005>
227.9970703125

> <r_mmod_Stretch_Energy-OPLS-2005>
147.165161132812

> <r_mmod_Bend_Energy-OPLS-2005>
255.791000366211

> <r_mmod_Torsional_Energy-OPLS-2005>
226.975540161133

> <r_mmod_Improper_Torsional_Energy-OPLS-2005>
9.24910068511963

> <r_mmod_Van_der_Waal_Energy-OPLS-2005>
123.308372497559

> <r_mmod_Electrostatic_Energy-OPLS-2005>
-412.231964111328

> <r_mmod_Solvation_Energy-OPLS-2005>
-227.474853515625

> <b_mmod_Minimization_Converged-OPLS-2005>
0

> <r_mmod_RMS_Derivative-OPLS-2005>
3.29119420051575

$$$$
66
                    3D
 Structure written by MMmdl.
167175  0  0  1  0            999 V2000
  -30.6922  -14.6085   20.5168 C   0  0  0  0  0  0
  -30.4713  -12.3542   19.4758 C   0  0  0  0  0  0
  -29.5484  -12.3205   18.2350 C   0  0  0  0  0  0
  -28.0384  -12.3578   18.5957 C   0  0  0  0  0  0
  -27.6770  -13.2067   19.8558 C   0  0  2  0  0  0
  -28.7274  -13.0485   20.9737 C   0  0  0  0  0  0
  -25.2707  -13.8158   20.5567 C   0  0  0  0  0  0
  -24.1932  -13.0465   20.9067 C   0  0  0  0  0  0
  -24.6502  -11.6932   20.8700 C   0  0  0  0  0  0
  -23.9149  -10.4333   21.0400 C   0  0  0  0  0  0
  -24.3677   -9.4248   21.9207 C   0  0  0  0  0  0
  -23.6349   -8.2289   22.0769 C   0  0  0  0  0  0
  -22.4361   -8.0330   21.3528 C   0  0  0  0  0  0
  -22.0010   -9.0294   20.4643 C   0  0  0  0  0  0
  -22.7322  -10.2176   20.3051 C   0  0  0  0  0  0
  -21.6854   -6.0827   22.5289 C   0  0  0  0  0  0
  -21.4070   -6.5709   23.8224 C   0  0  0  0  0  0
  -21.3665   -5.6815   24.9158 C   0  0  0  0  0  0
  -21.6043   -4.3084   24.7170 C   0  0  0  0  0  0
  -21.8834   -3.8209   23.4266 C   0  0  0  0  0  0
  -21.9144   -4.7052   22.3371 C   0  0  0  0  0  0
  -22.7959  -13.5294   21.1720 C   0  0  0  0  0  0
  -22.1618   -4.2292   21.0933 F   0  0  0  0  0  0
  -21.5607   -3.4548   25.7648 F   0  0  0  0  0  0
  -30.0286  -13.4139   20.3969 N   0  0  0  0  0  0
  -26.3178  -12.9336   20.3298 N   0  0  0  0  0  0
  -25.9438  -11.6500   20.5757 N   0  0  0  0  0  0
  -22.0584  -12.8320   22.0282 N   0  0  0  0  0  0
  -25.4343  -15.1871   20.3940 N   0  0  0  0  0  0
  -31.8591  -14.7286   20.1214 O   0  0  0  0  0  0
  -21.6654   -6.8983   21.4264 O   0  0  0  0  0  0
  -22.3657  -14.5608   20.6568 O   0  0  0  0  0  0
  -24.6184  -31.8634   23.2018 C   0  0  0  0  0  0
  -25.9031  -32.4820   23.8334 C   0  0  1  0  0  0
  -27.2400  -27.3773   20.1190 C   0  0  0  0  0  0
  -25.5882  -33.8617   24.2289 N   0  0  0  0  0  0
  -23.4097  -30.4827   21.5421 C   0  0  2  0  0  0
  -24.8596  -28.9351   20.1073 C   0  0  0  0  0  0
  -22.7425  -29.4633   22.4962 C   0  0  0  0  0  0
  -18.0272  -28.1391   22.8496 C   0  0  0  0  0  0
  -24.1475  -36.7313   23.2641 C   0  0  0  0  0  0
  -25.9371  -30.8142   21.3533 C   0  0  0  0  0  0
  -26.0170  -29.4385   20.7143 C   0  0  0  0  0  0
  -27.2043  -28.6649   20.7186 C   0  0  0  0  0  0
  -26.0710  -26.9109   19.4755 C   0  0  0  0  0  0
  -24.8846  -27.6775   19.4793 C   0  0  0  0  0  0
  -23.6223  -29.8071   20.1582 C   0  0  0  0  0  0
  -25.4105  -36.3122   24.0343 C   0  0  1  0  0  0
  -20.5865  -28.3689   23.1311 C   0  0  2  0  0  0
  -20.6768  -26.9421   22.5426 C   0  0  0  0  0  0
  -19.5741  -26.6385   21.5228 C   0  0  0  0  0  0
  -18.1915  -26.7943   22.1629 C   0  0  0  0  0  0
  -19.1519  -28.8858   23.2913 C   0  0  0  0  0  0
  -18.9460  -30.1457   23.8935 C   0  0  0  0  0  0
  -17.6458  -30.6600   24.0571 C   0  0  0  0  0  0
  -25.9044  -34.9491   23.5125 C   0  0  0  0  0  0
  -16.5353  -29.9113   23.6298 C   0  0  0  0  0  0
  -16.7252  -28.6528   23.0333 C   0  0  0  0  0  0
  -26.4438  -31.6582   25.0650 C   0  0  0  0  0  0
  -25.3687  -31.3633   26.1375 C   0  0  0  0  0  0
  -27.0270  -30.3066   24.5938 C   0  0  0  0  0  0
  -27.6018  -32.4267   25.7450 C   0  0  0  0  0  0
  -27.5582  -37.1804   24.8457 C   0  0  0  0  0  0
  -21.4151  -29.3060   22.3717 N   0  0  0  0  0  0
  -26.4281  -37.3816   23.9426 N   0  0  0  0  0  0
  -24.6744  -31.0677   22.0944 N   0  0  0  0  0  0
  -23.4179  -28.8194   23.3028 O   0  0  0  0  0  0
  -28.4082  -26.6258   20.2064 O   0  0  0  0  0  0
  -26.5619  -34.8947   22.4688 O   0  0  0  0  0  0
  -23.5344  -32.1417   23.7393 O   0  0  0  0  0  0
  -29.7442  -17.0503   18.6949 C   0  0  0  0  0  0
  -29.6121  -18.3355   18.1311 C   0  0  0  0  0  0
  -29.7498  -16.9677   20.1337 C   0  0  0  0  0  0
  -29.3182  -19.2855   20.1629 C   0  0  0  0  0  0
  -28.9494  -15.7477   16.5520 C   0  0  0  0  0  0
  -30.5409  -22.2650   20.1630 C   0  0  0  0  0  0
  -29.9344  -15.8893   22.3654 C   0  0  0  0  0  0
  -29.8768  -15.8330   17.7755 C   0  0  0  0  0  0
  -28.2669  -22.8483   21.2025 C   0  0  0  0  0  0
  -28.4907  -25.2209   19.8214 C   0  0  0  0  0  0
  -29.0712  -21.8245   20.3296 C   0  0  2  0  0  0
  -27.6290  -24.1533   20.5875 C   0  0  2  0  0  0
  -29.3967  -19.4273   18.8516 N   0  0  0  0  0  0
  -29.4974  -18.1381   20.8153 N   0  0  0  0  0  0
  -29.6988  -18.5816   16.7692 N   0  0  0  0  0  0
  -29.0514  -20.4480   20.8920 N   0  0  0  0  0  0
  -29.9774  -15.7192   20.9066 N   0  0  0  0  0  0
  -27.0391  -24.7595   21.6194 F   0  0  0  0  0  0
  -31.5150  -12.4769   19.1790 H   0  0  0  0  0  0
  -30.4337  -11.4023   20.0051 H   0  0  0  0  0  0
  -29.7698  -11.4037   17.6841 H   0  0  0  0  0  0
  -29.8142  -13.1028   17.5320 H   0  0  0  0  0  0
  -27.7055  -11.3313   18.7352 H   0  0  0  0  0  0
  -27.4755  -12.7154   17.7342 H   0  0  0  0  0  0
  -27.7063  -14.2515   19.5507 H   0  0  0  0  0  0
  -28.7629  -12.0169   21.3280 H   0  0  0  0  0  0
  -28.4806  -13.6540   21.8451 H   0  0  0  0  0  0
  -25.2817   -9.5727   22.4779 H   0  0  0  0  0  0
  -24.0052   -7.4695   22.7485 H   0  0  0  0  0  0
  -21.0961   -8.8786   19.8925 H   0  0  0  0  0  0
  -22.3776  -10.9710   19.6139 H   0  0  0  0  0  0
  -21.2174   -7.6240   23.9813 H   0  0  0  0  0  0
  -21.1455   -6.0516   25.9068 H   0  0  0  0  0  0
  -22.0613   -2.7695   23.2662 H   0  0  0  0  0  0
  -22.4147  -11.9944   22.4649 H   0  0  0  0  0  0
  -21.1209  -13.1371   22.2490 H   0  0  0  0  0  0
  -24.6469  -15.8223   20.4701 H   0  0  0  0  0  0
  -26.2696  -15.6395   20.0521 H   0  0  0  0  0  0
  -26.7113  -32.5522   23.1103 H   0  0  0  0  0  0
  -24.9994  -33.9765   25.0407 H   0  0  0  0  0  0
  -22.7014  -31.3012   21.3951 H   0  0  0  0  0  0
  -23.3769  -35.9607   23.3271 H   0  0  0  0  0  0
  -24.3581  -36.8963   22.2060 H   0  0  0  0  0  0
  -23.7169  -37.6490   23.6668 H   0  0  0  0  0  0
  -26.0266  -31.5617   20.5647 H   0  0  0  0  0  0
  -26.8359  -30.8983   21.9520 H   0  0  0  0  0  0
  -28.0932  -29.0427   21.2078 H   0  0  0  0  0  0
  -26.0569  -25.9529   18.9767 H   0  0  0  0  0  0
  -24.0000  -27.2907   18.9916 H   0  0  0  0  0  0
  -23.7360  -30.5780   19.3962 H   0  0  0  0  0  0
  -22.7459  -29.2295   19.8638 H   0  0  0  0  0  0
  -25.1271  -36.1986   25.0835 H   0  0  0  0  0  0
  -20.9961  -28.3247   24.1426 H   0  0  0  0  0  0
  -20.5671  -26.2300   23.3619 H   0  0  0  0  0  0
  -21.6632  -26.7452   22.1192 H   0  0  0  0  0  0
  -19.6907  -25.6287   21.1260 H   0  0  0  0  0  0
  -19.6690  -27.3194   20.6754 H   0  0  0  0  0  0
  -17.4193  -26.6699   21.4024 H   0  0  0  0  0  0
  -18.0311  -26.0076   22.9009 H   0  0  0  0  0  0
  -19.7952  -30.7254   24.2329 H   0  0  0  0  0  0
  -17.5034  -31.6293   24.5158 H   0  0  0  0  0  0
  -15.5357  -30.3061   23.7602 H   0  0  0  0  0  0
  -15.8644  -28.0874   22.7019 H   0  0  0  0  0  0
  -24.5911  -30.6942   25.7664 H   0  0  0  0  0  0
  -24.8791  -32.2749   26.4822 H   0  0  0  0  0  0
  -25.8022  -30.8791   27.0135 H   0  0  0  0  0  0
  -26.2776  -29.6848   24.1033 H   0  0  0  0  0  0
  -27.4177  -29.7262   25.4301 H   0  0  0  0  0  0
  -27.8536  -30.4469   23.8973 H   0  0  0  0  0  0
  -27.2680  -33.3611   26.1990 H   0  0  0  0  0  0
  -28.3882  -32.6748   25.0301 H   0  0  0  0  0  0
  -28.0618  -31.8378   26.5407 H   0  0  0  0  0  0
  -28.2543  -38.0162   24.7607 H   0  0  0  0  0  0
  -28.1141  -36.2702   24.6154 H   0  0  0  0  0  0
  -27.2318  -37.1275   25.8861 H   0  0  0  0  0  0
  -20.9317  -29.8828   21.6976 H   0  0  0  0  0  0
  -26.0178  -38.2890   24.1465 H   0  0  0  0  0  0
  -28.8423  -14.7117   16.2272 H   0  0  0  0  0  0
  -29.3242  -16.2968   15.6852 H   0  0  0  0  0  0
  -27.9564  -16.1201   16.8138 H   0  0  0  0  0  0
  -30.6660  -22.8924   19.2804 H   0  0  0  0  0  0
  -31.1994  -21.4004   20.0410 H   0  0  0  0  0  0
  -30.8995  -22.8164   21.0369 H   0  0  0  0  0  0
  -30.7166  -16.5928   22.6616 H   0  0  0  0  0  0
  -30.0882  -14.9616   22.9207 H   0  0  0  0  0  0
  -28.9739  -16.3079   22.6697 H   0  0  0  0  0  0
  -29.5443  -15.0032   18.3655 H   0  0  0  0  0  0
  -30.9171  -15.6825   17.4738 H   0  0  0  0  0  0
  -28.8483  -23.1123   22.0875 H   0  0  0  0  0  0
  -27.4092  -22.2972   21.5884 H   0  0  0  0  0  0
  -28.3133  -25.1348   18.7474 H   0  0  0  0  0  0
  -29.5368  -24.9549   19.9543 H   0  0  0  0  0  0
  -28.5944  -21.7770   19.3462 H   0  0  0  0  0  0
  -26.8083  -23.8540   19.9323 H   0  0  0  0  0  0
  -29.9281  -17.8327   16.1287 H   0  0  0  0  0  0
  -29.9030  -19.5170   16.4479 H   0  0  0  0  0  0
  -29.0544  -20.3422   21.9020 H   0  0  0  0  0  0
  1 25  1  0  0  0
  1 30  2  0  0  0
  1 87  1  0  0  0
  2  3  1  0  0  0
  2 25  1  0  0  0
  2 89  1  0  0  0
  2 90  1  0  0  0
  3  4  1  0  0  0
  3 91  1  0  0  0
  3 92  1  0  0  0
  4  5  1  0  0  0
  4 93  1  0  0  0
  4 94  1  0  0  0
  5  6  1  0  0  0
  5 26  1  0  0  0
  5 95  1  0  0  0
  6 25  1  0  0  0
  6 96  1  0  0  0
  6 97  1  0  0  0
  7  8  2  0  0  0
  7 26  1  0  0  0
  7 29  1  0  0  0
  8  9  1  0  0  0
  8 22  1  0  0  0
  9 10  1  0  0  0
  9 27  2  0  0  0
 10 11  2  0  0  0
 10 15  1  0  0  0
 11 12  1  0  0  0
 11 98  1  0  0  0
 12 13  2  0  0  0
 12 99  1  0  0  0
 13 14  1  0  0  0
 13 31  1  0  0  0
 14 15  2  0  0  0
 14100  1  0  0  0
 15101  1  0  0  0
 16 17  2  0  0  0
 16 21  1  0  0  0
 16 31  1  0  0  0
 17 18  1  0  0  0
 17102  1  0  0  0
 18 19  2  0  0  0
 18103  1  0  0  0
 19 20  1  0  0  0
 19 24  1  0  0  0
 20 21  2  0  0  0
 20104  1  0  0  0
 21 23  1  0  0  0
 22 28  1  0  0  0
 22 32  2  0  0  0
 26 27  1  0  0  0
 28105  1  0  0  0
 28106  1  0  0  0
 29107  1  0  0  0
 29108  1  0  0  0
 33 34  1  0  0  0
 33 66  1  0  0  0
 33 70  2  0  0  0
 34 36  1  0  0  0
 34 59  1  0  0  0
 34109  1  0  0  0
 35 44  2  0  0  0
 35 45  1  0  0  0
 35 68  1  0  0  0
 36 56  1  0  0  0
 36110  1  0  0  0
 37 39  1  0  0  0
 37 47  1  0  0  0
 37 66  1  0  0  0
 37111  1  0  0  0
 38 43  2  0  0  0
 38 46  1  0  0  0
 38 47  1  0  0  0
 39 64  1  0  0  0
 39 67  2  0  0  0
 40 52  1  0  0  0
 40 53  2  0  0  0
 40 58  1  0  0  0
 41112  1  0  0  0
 41113  1  0  0  0
 41114  1  0  0  0
 41 48  1  0  0  0
 42 43  1  0  0  0
 42 66  1  0  0  0
 42115  1  0  0  0
 42116  1  0  0  0
 43 44  1  0  0  0
 44117  1  0  0  0
 45 46  2  0  0  0
 45118  1  0  0  0
 46119  1  0  0  0
 47120  1  0  0  0
 47121  1  0  0  0
 48 56  1  0  0  0
 48 65  1  0  0  0
 48122  1  0  0  0
 49 50  1  0  0  0
 49 53  1  0  0  0
 49 64  1  0  0  0
 49123  1  0  0  0
 50 51  1  0  0  0
 50124  1  0  0  0
 50125  1  0  0  0
 51 52  1  0  0  0
 51126  1  0  0  0
 51127  1  0  0  0
 52128  1  0  0  0
 52129  1  0  0  0
 53 54  1  0  0  0
 54 55  2  0  0  0
 54130  1  0  0  0
 55 57  1  0  0  0
 55131  1  0  0  0
 56 69  2  0  0  0
 57 58  2  0  0  0
 57132  1  0  0  0
 58133  1  0  0  0
 59 60  1  0  0  0
 59 61  1  0  0  0
 59 62  1  0  0  0
 60134  1  0  0  0
 60135  1  0  0  0
 60136  1  0  0  0
 61137  1  0  0  0
 61138  1  0  0  0
 61139  1  0  0  0
 62140  1  0  0  0
 62141  1  0  0  0
 62142  1  0  0  0
 63 65  1  0  0  0
 63143  1  0  0  0
 63144  1  0  0  0
 63145  1  0  0  0
 64146  1  0  0  0
 65147  1  0  0  0
 68 80  1  0  0  0
 71 72  2  0  0  0
 71 73  1  0  0  0
 71 78  1  0  0  0
 72 83  1  0  0  0
 72 85  1  0  0  0
 73 84  2  0  0  0
 73 87  1  0  0  0
 74 83  2  0  0  0
 74 84  1  0  0  0
 74 86  1  0  0  0
 75 78  1  0  0  0
 75148  1  0  0  0
 75149  1  0  0  0
 75150  1  0  0  0
 76151  1  0  0  0
 76152  1  0  0  0
 76153  1  0  0  0
 76 81  1  0  0  0
 77 87  1  0  0  0
 77154  1  0  0  0
 77155  1  0  0  0
 77156  1  0  0  0
 78157  1  0  0  0
 78158  1  0  0  0
 79 81  1  0  0  0
 79 82  1  0  0  0
 79159  1  0  0  0
 79160  1  0  0  0
 80 82  1  0  0  0
 80161  1  0  0  0
 80162  1  0  0  0
 81 86  1  0  0  0
 81163  1  0  0  0
 82 88  1  0  0  0
 82164  1  0  0  0
 85165  1  0  0  0
 85166  1  0  0  0
 86167  1  0  0  0
M  ISO  4   1 100  68 101  80 101  87 100
M  END
> <chiral flag>
0

> <version>
0

> <s_m_source_file>
/data/baiqing/PycharmProjects/Reinvent-master-3.2/result/LINK_invent/BTK/process_docking_weight1_custom_product_contain_oxygen_bond_distance_aromatic_linkinvent_7_9_3/rearranged_h_0186.sdf

> <i_m_source_file_index>
66

> <r_mmod_Potential_Energy-OPLS-2005>
-248.146072387695

> <r_mmod_Stretch_Energy-OPLS-2005>
71.0469970703125

> <r_mmod_Bend_Energy-OPLS-2005>
183.781585693359

> <r_mmod_Torsional_Energy-OPLS-2005>
294.972137451172

> <r_mmod_Improper_Torsional_Energy-OPLS-2005>
7.40997409820557

> <r_mmod_Van_der_Waal_Energy-OPLS-2005>
179.061218261719

> <r_mmod_Electrostatic_Energy-OPLS-2005>
-806.212524414062

> <r_mmod_Solvation_Energy-OPLS-2005>
-216.963638305664

> <b_mmod_Minimization_Converged-OPLS-2005>
0

> <r_mmod_RMS_Derivative-OPLS-2005>
7.603271484375

$$$$
67
                    3D
 Structure written by MMmdl.
160168  0  0  1  0            999 V2000
  -30.5934  -14.7745   20.4260 C   0  0  0  0  0  0
  -30.4205  -12.4784   19.4368 C   0  0  0  0  0  0
  -29.4911  -12.5135   18.2024 C   0  0  0  0  0  0
  -28.0214  -12.3326   18.6231 C   0  0  0  0  0  0
  -27.6333  -13.2382   19.8199 C   0  0  2  0  0  0
  -28.6787  -13.1798   20.9539 C   0  0  0  0  0  0
  -25.2487  -13.8238   20.5642 C   0  0  0  0  0  0
  -24.1808  -13.0462   20.9152 C   0  0  0  0  0  0
  -24.6402  -11.6936   20.8678 C   0  0  0  0  0  0
  -23.9096  -10.4300   21.0339 C   0  0  0  0  0  0
  -24.3661   -9.4243   21.9150 C   0  0  0  0  0  0
  -23.6338   -8.2280   22.0752 C   0  0  0  0  0  0
  -22.4316   -8.0302   21.3540 C   0  0  0  0  0  0
  -21.9920   -9.0265   20.4647 C   0  0  0  0  0  0
  -22.7245  -10.2137   20.3026 C   0  0  0  0  0  0
  -21.6888   -6.0735   22.5271 C   0  0  0  0  0  0
  -21.4012   -6.5601   23.8200 C   0  0  0  0  0  0
  -21.3640   -5.6744   24.9159 C   0  0  0  0  0  0
  -21.6069   -4.3024   24.7210 C   0  0  0  0  0  0
  -21.8837   -3.8134   23.4316 C   0  0  0  0  0  0
  -21.9198   -4.6950   22.3390 C   0  0  0  0  0  0
  -22.7803  -13.5210   21.1793 C   0  0  0  0  0  0
  -22.1661   -4.2143   21.0964 F   0  0  0  0  0  0
  -21.5630   -3.4496   25.7715 F   0  0  0  0  0  0
  -29.9762  -13.5410   20.3734 N   0  0  0  0  0  0
  -26.2893  -12.9476   20.3089 N   0  0  0  0  0  0
  -25.9321  -11.6593   20.5605 N   0  0  0  0  0  0
  -22.0469  -12.8203   22.0342 N   0  0  0  0  0  0
  -25.4163  -15.1984   20.4156 N   0  0  0  0  0  0
  -31.7891  -14.8487   20.1391 O   0  0  0  0  0  0
  -21.6689   -6.8887   21.4244 O   0  0  0  0  0  0
  -22.3477  -14.5502   20.6607 O   0  0  0  0  0  0
  -24.6291  -31.8560   23.1956 C   0  0  0  0  0  0
  -25.9119  -32.4771   23.8326 C   0  0  1  0  0  0
  -27.2528  -27.2858   20.1382 C   0  0  0  0  0  0
  -25.5940  -33.8562   24.2279 N   0  0  0  0  0  0
  -23.4296  -30.4741   21.5328 C   0  0  2  0  0  0
  -24.8876  -28.9209   20.1034 C   0  0  0  0  0  0
  -22.7517  -29.4582   22.4834 C   0  0  0  0  0  0
  -18.0303  -28.1377   22.8469 C   0  0  0  0  0  0
  -24.1496  -36.7286   23.2625 C   0  0  0  0  0  0
  -25.9690  -30.7792   21.3715 C   0  0  0  0  0  0
  -26.0497  -29.4003   20.7201 C   0  0  0  0  0  0
  -27.2271  -28.5911   20.7303 C   0  0  0  0  0  0
  -26.0677  -26.8576   19.5012 C   0  0  0  0  0  0
  -24.9019  -27.6568   19.4833 C   0  0  0  0  0  0
  -23.6570  -29.8059   20.1487 C   0  0  0  0  0  0
  -25.4117  -36.3073   24.0331 C   0  0  1  0  0  0
  -20.5905  -28.3694   23.1248 C   0  0  2  0  0  0
  -20.6773  -26.9401   22.5401 C   0  0  0  0  0  0
  -19.5750  -26.6368   21.5195 C   0  0  0  0  0  0
  -18.1934  -26.7922   22.1607 C   0  0  0  0  0  0
  -19.1556  -28.8848   23.2863 C   0  0  0  0  0  0
  -18.9473  -30.1442   23.8901 C   0  0  0  0  0  0
  -17.6470  -30.6580   24.0556 C   0  0  0  0  0  0
  -25.9054  -34.9450   23.5114 C   0  0  0  0  0  0
  -16.5363  -29.9083   23.6303 C   0  0  0  0  0  0
  -16.7283  -28.6494   23.0332 C   0  0  0  0  0  0
  -26.4491  -31.6584   25.0706 C   0  0  0  0  0  0
  -25.3730  -31.3759   26.1451 C   0  0  0  0  0  0
  -27.0298  -30.2996   24.6156 C   0  0  0  0  0  0
  -27.6087  -32.4276   25.7476 C   0  0  0  0  0  0
  -27.5594  -37.1782   24.8445 C   0  0  0  0  0  0
  -21.4210  -29.3057   22.3636 N   0  0  0  0  0  0
  -26.4278  -37.3785   23.9435 N   0  0  0  0  0  0
  -24.6946  -31.0542   22.0921 N   0  0  0  0  0  0
  -23.4224  -28.8110   23.2920 O   0  0  0  0  0  0
  -28.3833  -26.4468   20.2723 O   0  0  0  0  0  0
  -26.5598  -34.8909   22.4660 O   0  0  0  0  0  0
  -23.5454  -32.1352   23.7268 O   0  0  0  0  0  0
  -30.5979  -17.7431   19.0822 C   0  0  0  0  0  0
  -29.9656  -17.3456   20.2456 C   0  0  0  0  0  0
  -29.5663  -19.7155   20.2466 C   0  0  0  0  0  0
  -31.1246  -16.9102   17.9618 C   0  0  0  0  0  0
  -30.4170  -26.8487   18.5817 C   0  0  0  0  0  0
  -30.7509  -22.6895   21.0003 C   0  0  0  0  0  0
  -30.0588  -25.3881   18.9104 C   0  0  0  0  0  0
  -29.4909  -22.4470   20.1440 C   0  0  2  0  0  0
  -28.6459  -25.1787   19.5249 C   0  0  1  0  0  0
  -28.4286  -23.7026   20.2361 C   0  0  1  0  0  0
  -29.3313  -18.5017   20.8620 N   0  0  0  0  0  0
  -29.8046  -15.9107   20.6401 N   0  0  0  0  0  0
  -29.0648  -21.0415   20.5447 N   0  0  0  0  0  0
  -27.2809  -23.2494   19.7207 F   0  0  0  0  0  0
  -30.6448  -19.4924   18.8855 S   0  0  0  0  0  0
  -31.4577  -12.6011   19.1216 H   0  0  0  0  0  0
  -30.3652  -11.5007   19.9139 H   0  0  0  0  0  0
  -29.7731  -11.7376   17.4897 H   0  0  0  0  0  0
  -29.6072  -13.4582   17.6687 H   0  0  0  0  0  0
  -27.8791  -11.2848   18.8858 H   0  0  0  0  0  0
  -27.3678  -12.5242   17.7709 H   0  0  0  0  0  0
  -27.6210  -14.2555   19.4219 H   0  0  0  0  0  0
  -28.7151  -12.1857   21.3958 H   0  0  0  0  0  0
  -28.4052  -13.8662   21.7559 H   0  0  0  0  0  0
  -25.2789   -9.5743   22.4742 H   0  0  0  0  0  0
  -24.0046   -7.4682   22.7472 H   0  0  0  0  0  0
  -21.0828   -8.8790   19.8964 H   0  0  0  0  0  0
  -22.3675  -10.9700   19.6169 H   0  0  0  0  0  0
  -21.1996   -7.6104   23.9707 H   0  0  0  0  0  0
  -21.1428   -6.0455   25.9057 H   0  0  0  0  0  0
  -22.0636   -2.7593   23.2825 H   0  0  0  0  0  0
  -22.4192  -12.0001   22.4891 H   0  0  0  0  0  0
  -21.1030  -13.1128   22.2494 H   0  0  0  0  0  0
  -24.6486  -15.8448   20.5623 H   0  0  0  0  0  0
  -26.2497  -15.6520   20.0643 H   0  0  0  0  0  0
  -26.7193  -32.5448   23.1084 H   0  0  0  0  0  0
  -25.0161  -33.9718   25.0474 H   0  0  0  0  0  0
  -22.7243  -31.2936   21.3828 H   0  0  0  0  0  0
  -23.3775  -35.9600   23.3260 H   0  0  0  0  0  0
  -24.3596  -36.8925   22.2043 H   0  0  0  0  0  0
  -23.7222  -37.6467   23.6666 H   0  0  0  0  0  0
  -26.0947  -31.5386   20.5988 H   0  0  0  0  0  0
  -26.8492  -30.8436   21.9994 H   0  0  0  0  0  0
  -28.1123  -28.9525   21.2363 H   0  0  0  0  0  0
  -26.0103  -25.8763   19.0553 H   0  0  0  0  0  0
  -24.0135  -27.2798   18.9981 H   0  0  0  0  0  0
  -23.7912  -30.5841   19.3958 H   0  0  0  0  0  0
  -22.7777  -29.2411   19.8334 H   0  0  0  0  0  0
  -25.1287  -36.1920   25.0818 H   0  0  0  0  0  0
  -21.0012  -28.3278   24.1359 H   0  0  0  0  0  0
  -20.5607  -26.2312   23.3617 H   0  0  0  0  0  0
  -21.6646  -26.7370   22.1238 H   0  0  0  0  0  0
  -19.6899  -25.6271   21.1242 H   0  0  0  0  0  0
  -19.6691  -27.3159   20.6713 H   0  0  0  0  0  0
  -17.4196  -26.6659   21.4021 H   0  0  0  0  0  0
  -18.0333  -26.0075   22.9010 H   0  0  0  0  0  0
  -19.7955  -30.7240   24.2293 H   0  0  0  0  0  0
  -17.5032  -31.6260   24.5156 H   0  0  0  0  0  0
  -15.5364  -30.2983   23.7619 H   0  0  0  0  0  0
  -15.8690  -28.0812   22.7048 H   0  0  0  0  0  0
  -24.5915  -30.7082   25.7803 H   0  0  0  0  0  0
  -24.8906  -32.2940   26.4823 H   0  0  0  0  0  0
  -25.8056  -30.8986   27.0258 H   0  0  0  0  0  0
  -26.2854  -29.6772   24.1174 H   0  0  0  0  0  0
  -27.3980  -29.7229   25.4649 H   0  0  0  0  0  0
  -27.8745  -30.4261   23.9379 H   0  0  0  0  0  0
  -27.2766  -33.3601   26.2057 H   0  0  0  0  0  0
  -28.3922  -32.6776   25.0308 H   0  0  0  0  0  0
  -28.0741  -31.8375   26.5385 H   0  0  0  0  0  0
  -28.2559  -38.0124   24.7568 H   0  0  0  0  0  0
  -28.1139  -36.2666   24.6177 H   0  0  0  0  0  0
  -27.2329  -37.1321   25.8839 H   0  0  0  0  0  0
  -20.9376  -29.8857   21.6924 H   0  0  0  0  0  0
  -26.0161  -38.2848   24.1481 H   0  0  0  0  0  0
  -32.1108  -16.5003   18.1764 H   0  0  0  0  0  0
  -31.2088  -17.5063   17.0530 H   0  0  0  0  0  0
  -30.4329  -16.0953   17.7508 H   0  0  0  0  0  0
  -31.3193  -26.9079   17.9716 H   0  0  0  0  0  0
  -30.6156  -27.3866   19.5115 H   0  0  0  0  0  0
  -29.6167  -27.3704   18.0593 H   0  0  0  0  0  0
  -31.1820  -23.6753   20.9197 H   0  0  0  0  0  0
  -31.5485  -21.9882   20.7432 H   0  0  0  0  0  0
  -30.5307  -22.5560   22.0593 H   0  0  0  0  0  0
  -30.8288  -25.0755   19.5938 H   0  0  0  0  0  0
  -30.1830  -24.7622   18.0257 H   0  0  0  0  0  0
  -29.7781  -22.3807   19.0933 H   0  0  0  0  0  0
  -28.0082  -25.1999   18.6408 H   0  0  0  0  0  0
  -28.2045  -23.8736   21.2891 H   0  0  0  0  0  0
  -28.9036  -15.6974   21.0365 H   0  0  0  0  0  0
  -28.5198  -21.0595   21.3973 H   0  0  0  0  0  0
  1 25  1  0  0  0
  1 30  2  0  0  0
  1 82  1  0  0  0
  2  3  1  0  0  0
  2 25  1  0  0  0
  2 86  1  0  0  0
  2 87  1  0  0  0
  3  4  1  0  0  0
  3 88  1  0  0  0
  3 89  1  0  0  0
  4  5  1  0  0  0
  4 90  1  0  0  0
  4 91  1  0  0  0
  5  6  1  0  0  0
  5 26  1  0  0  0
  5 92  1  0  0  0
  6 25  1  0  0  0
  6 93  1  0  0  0
  6 94  1  0  0  0
  7  8  2  0  0  0
  7 26  1  0  0  0
  7 29  1  0  0  0
  8  9  1  0  0  0
  8 22  1  0  0  0
  9 10  1  0  0  0
  9 27  2  0  0  0
 10 11  2  0  0  0
 10 15  1  0  0  0
 11 12  1  0  0  0
 11 95  1  0  0  0
 12 13  2  0  0  0
 12 96  1  0  0  0
 13 14  1  0  0  0
 13 31  1  0  0  0
 14 15  2  0  0  0
 14 97  1  0  0  0
 15 98  1  0  0  0
 16 17  2  0  0  0
 16 21  1  0  0  0
 16 31  1  0  0  0
 17 18  1  0  0  0
 17 99  1  0  0  0
 18 19  2  0  0  0
 18100  1  0  0  0
 19 20  1  0  0  0
 19 24  1  0  0  0
 20 21  2  0  0  0
 20101  1  0  0  0
 21 23  1  0  0  0
 22 28  1  0  0  0
 22 32  2  0  0  0
 26 27  1  0  0  0
 28102  1  0  0  0
 28103  1  0  0  0
 29104  1  0  0  0
 29105  1  0  0  0
 33 34  1  0  0  0
 33 66  1  0  0  0
 33 70  2  0  0  0
 34 36  1  0  0  0
 34 59  1  0  0  0
 34106  1  0  0  0
 35 44  2  0  0  0
 35 45  1  0  0  0
 35 68  1  0  0  0
 36 56  1  0  0  0
 36107  1  0  0  0
 37 39  1  0  0  0
 37 47  1  0  0  0
 37 66  1  0  0  0
 37108  1  0  0  0
 38 43  2  0  0  0
 38 46  1  0  0  0
 38 47  1  0  0  0
 39 64  1  0  0  0
 39 67  2  0  0  0
 40 52  1  0  0  0
 40 53  2  0  0  0
 40 58  1  0  0  0
 41109  1  0  0  0
 41110  1  0  0  0
 41111  1  0  0  0
 41 48  1  0  0  0
 42 43  1  0  0  0
 42 66  1  0  0  0
 42112  1  0  0  0
 42113  1  0  0  0
 43 44  1  0  0  0
 44114  1  0  0  0
 45 46  2  0  0  0
 45115  1  0  0  0
 46116  1  0  0  0
 47117  1  0  0  0
 47118  1  0  0  0
 48 56  1  0  0  0
 48 65  1  0  0  0
 48119  1  0  0  0
 49 50  1  0  0  0
 49 53  1  0  0  0
 49 64  1  0  0  0
 49120  1  0  0  0
 50 51  1  0  0  0
 50121  1  0  0  0
 50122  1  0  0  0
 51 52  1  0  0  0
 51123  1  0  0  0
 51124  1  0  0  0
 52125  1  0  0  0
 52126  1  0  0  0
 53 54  1  0  0  0
 54 55  2  0  0  0
 54127  1  0  0  0
 55 57  1  0  0  0
 55128  1  0  0  0
 56 69  2  0  0  0
 57 58  2  0  0  0
 57129  1  0  0  0
 58130  1  0  0  0
 59 60  1  0  0  0
 59 61  1  0  0  0
 59 62  1  0  0  0
 60131  1  0  0  0
 60132  1  0  0  0
 60133  1  0  0  0
 61134  1  0  0  0
 61135  1  0  0  0
 61136  1  0  0  0
 62137  1  0  0  0
 62138  1  0  0  0
 62139  1  0  0  0
 63 65  1  0  0  0
 63140  1  0  0  0
 63141  1  0  0  0
 63142  1  0  0  0
 64143  1  0  0  0
 65144  1  0  0  0
 68 79  1  0  0  0
 71 72  2  0  0  0
 71 74  1  0  0  0
 71 85  1  0  0  0
 72 81  1  0  0  0
 72 82  1  0  0  0
 73 81  2  0  0  0
 73 83  1  0  0  0
 73 85  1  0  0  0
 74145  1  0  0  0
 74146  1  0  0  0
 74147  1  0  0  0
 75 77  1  0  0  0
 75148  1  0  0  0
 75149  1  0  0  0
 75150  1  0  0  0
 76151  1  0  0  0
 76152  1  0  0  0
 76153  1  0  0  0
 76 78  1  0  0  0
 77154  1  0  0  0
 77155  1  0  0  0
 77 79  1  0  0  0
 78 80  1  0  0  0
 78 83  1  0  0  0
 78156  1  0  0  0
 79 80  1  0  0  0
 79157  1  0  0  0
 80 84  1  0  0  0
 80158  1  0  0  0
 82159  1  0  0  0
 83160  1  0  0  0
M  ISO  4   1 100  68 101  79 101  82 100
M  END
> <chiral flag>
0

> <version>
0

> <s_m_source_file>
/data/baiqing/PycharmProjects/Reinvent-master-3.2/result/LINK_invent/BTK/process_docking_weight1_custom_product_contain_oxygen_bond_distance_aromatic_linkinvent_7_9_3/rearranged_h_0186.sdf

> <i_m_source_file_index>
67

> <r_mmod_Potential_Energy-OPLS-2005>
212.57829284668

> <r_mmod_Stretch_Energy-OPLS-2005>
136.294540405273

> <r_mmod_Bend_Energy-OPLS-2005>
195.896423339844

> <r_mmod_Torsional_Energy-OPLS-2005>
248.901794433594

> <r_mmod_Improper_Torsional_Energy-OPLS-2005>
6.5076265335083

> <r_mmod_Van_der_Waal_Energy-OPLS-2005>
119.809143066406

> <r_mmod_Electrostatic_Energy-OPLS-2005>
-378.496551513672

> <r_mmod_Solvation_Energy-OPLS-2005>
-205.417938232422

> <b_mmod_Minimization_Converged-OPLS-2005>
0

> <r_mmod_RMS_Derivative-OPLS-2005>
6.20501804351807

$$$$
68
                    3D
 Structure written by MMmdl.
166174  0  0  1  0            999 V2000
  -30.7312  -14.7263   20.5151 C   0  0  0  0  0  0
  -30.4018  -12.4802   19.4879 C   0  0  0  0  0  0
  -29.4995  -12.5358   18.2405 C   0  0  0  0  0  0
  -28.0267  -12.3586   18.6462 C   0  0  0  0  0  0
  -27.6320  -13.2559   19.8483 C   0  0  2  0  0  0
  -28.6781  -13.2341   20.9829 C   0  0  0  0  0  0
  -25.2369  -13.8208   20.5505 C   0  0  0  0  0  0
  -24.1769  -13.0423   20.9186 C   0  0  0  0  0  0
  -24.6456  -11.6910   20.8831 C   0  0  0  0  0  0
  -23.9139  -10.4263   21.0480 C   0  0  0  0  0  0
  -24.3662   -9.4149   21.9252 C   0  0  0  0  0  0
  -23.6319   -8.2194   22.0776 C   0  0  0  0  0  0
  -22.4306   -8.0275   21.3544 C   0  0  0  0  0  0
  -21.9984   -9.0243   20.4634 C   0  0  0  0  0  0
  -22.7332  -10.2117   20.3079 C   0  0  0  0  0  0
  -21.6835   -6.0753   22.5271 C   0  0  0  0  0  0
  -21.4009   -6.5647   23.8214 C   0  0  0  0  0  0
  -21.3661   -5.6791   24.9171 C   0  0  0  0  0  0
  -21.6052   -4.3054   24.7210 C   0  0  0  0  0  0
  -21.8815   -3.8153   23.4330 C   0  0  0  0  0  0
  -21.9179   -4.6984   22.3391 C   0  0  0  0  0  0
  -22.7777  -13.5178   21.1846 C   0  0  0  0  0  0
  -22.1635   -4.2176   21.0966 F   0  0  0  0  0  0
  -21.5635   -3.4543   25.7725 F   0  0  0  0  0  0
  -29.9764  -13.5736   20.4017 N   0  0  0  0  0  0
  -26.2902  -12.9492   20.3313 N   0  0  0  0  0  0
  -25.9400  -11.6618   20.5869 N   0  0  0  0  0  0
  -22.0488  -12.8152   22.0453 N   0  0  0  0  0  0
  -25.3867  -15.1897   20.3532 N   0  0  0  0  0  0
  -31.9023  -14.6899   20.1380 O   0  0  0  0  0  0
  -21.6619   -6.8905   21.4243 O   0  0  0  0  0  0
  -22.3374  -14.5433   20.6666 O   0  0  0  0  0  0
  -24.6331  -31.8553   23.1917 C   0  0  0  0  0  0
  -25.9191  -32.4721   23.8258 C   0  0  1  0  0  0
  -27.2158  -27.2758   20.1113 C   0  0  0  0  0  0
  -25.6025  -33.8517   24.2224 N   0  0  0  0  0  0
  -23.4270  -30.4810   21.5336 C   0  0  2  0  0  0
  -24.8707  -28.9201   20.1164 C   0  0  0  0  0  0
  -22.7501  -29.4627   22.4871 C   0  0  0  0  0  0
  -18.0299  -28.1441   22.8443 C   0  0  0  0  0  0
  -24.1493  -36.7240   23.2632 C   0  0  0  0  0  0
  -25.9758  -30.7661   21.3723 C   0  0  0  0  0  0
  -26.0459  -29.3896   20.7179 C   0  0  0  0  0  0
  -27.2264  -28.5845   20.7001 C   0  0  0  0  0  0
  -26.0146  -26.8581   19.5014 C   0  0  0  0  0  0
  -24.8557  -27.6587   19.5035 C   0  0  0  0  0  0
  -23.6480  -29.8146   20.1526 C   0  0  0  0  0  0
  -25.4136  -36.3005   24.0279 C   0  0  1  0  0  0
  -20.5914  -28.3722   23.1248 C   0  0  2  0  0  0
  -20.6785  -26.9440   22.5377 C   0  0  0  0  0  0
  -19.5747  -26.6409   21.5185 C   0  0  0  0  0  0
  -18.1931  -26.7974   22.1604 C   0  0  0  0  0  0
  -19.1561  -28.8888   23.2837 C   0  0  0  0  0  0
  -18.9466  -30.1493   23.8846 C   0  0  0  0  0  0
  -17.6458  -30.6595   24.0574 C   0  0  0  0  0  0
  -25.9084  -34.9383   23.5015 C   0  0  0  0  0  0
  -16.5345  -29.9077   23.6379 C   0  0  0  0  0  0
  -16.7282  -28.6546   23.0308 C   0  0  0  0  0  0
  -26.4533  -31.6525   25.0650 C   0  0  0  0  0  0
  -25.3699  -31.3684   26.1328 C   0  0  0  0  0  0
  -27.0383  -30.2911   24.6175 C   0  0  0  0  0  0
  -27.6082  -32.4246   25.7481 C   0  0  0  0  0  0
  -27.5568  -37.1752   24.8479 C   0  0  0  0  0  0
  -21.4211  -29.3077   22.3636 N   0  0  0  0  0  0
  -26.4296  -37.3720   23.9395 N   0  0  0  0  0  0
  -24.6981  -31.0542   22.0876 N   0  0  0  0  0  0
  -23.4213  -28.8200   23.2982 O   0  0  0  0  0  0
  -28.3228  -26.4092   20.0574 O   0  0  0  0  0  0
  -26.5619  -34.8837   22.4558 O   0  0  0  0  0  0
  -23.5481  -32.1401   23.7222 O   0  0  0  0  0  0
  -30.5431  -19.1433   20.6428 C   0  0  0  0  0  0
  -29.3629  -18.4355   20.7941 C   0  0  0  0  0  0
  -29.1794  -21.0483   20.5729 C   0  0  0  0  0  0
  -26.5650  -15.6724   23.3915 C   0  0  0  0  0  0
  -29.5159  -15.9042   23.6405 C   0  0  0  0  0  0
  -27.1753  -23.3201   19.1257 C   0  0  0  0  0  0
  -29.3688  -25.2111   21.7901 C   0  0  0  0  0  0
  -27.2557  -16.9870   23.0024 C   0  0  0  0  0  0
  -29.1519  -16.9034   21.1823 C   0  0  2  0  0  0
  -28.7757  -16.8948   22.7117 C   0  0  2  0  0  0
  -28.4469  -23.6624   19.9229 C   0  0  1  0  0  0
  -28.2629  -25.0709   20.7294 C   0  0  2  0  0  0
  -30.4315  -20.5638   20.5464 N   0  0  0  0  0  0
  -28.8656  -22.4513   20.7393 N   0  0  0  0  0  0
  -30.3365  -15.9894   20.9283 N   0  0  0  0  0  0
  -28.0389  -19.6542   20.6985 S   0  0  0  0  0  0
  -31.4487  -12.5494   19.1850 H   0  0  0  0  0  0
  -30.3134  -11.5138   19.9858 H   0  0  0  0  0  0
  -29.7888  -11.7643   17.5276 H   0  0  0  0  0  0
  -29.6307  -13.4930   17.7318 H   0  0  0  0  0  0
  -27.8723  -11.3102   18.8948 H   0  0  0  0  0  0
  -27.3759  -12.5722   17.7959 H   0  0  0  0  0  0
  -27.6147  -14.2774   19.4695 H   0  0  0  0  0  0
  -28.7190  -12.2605   21.4732 H   0  0  0  0  0  0
  -28.4140  -13.9567   21.7440 H   0  0  0  0  0  0
  -25.2813   -9.5579   22.4844 H   0  0  0  0  0  0
  -23.9996   -7.4542   22.7464 H   0  0  0  0  0  0
  -21.0940   -8.8764   19.8891 H   0  0  0  0  0  0
  -22.3851  -10.9652   19.6153 H   0  0  0  0  0  0
  -21.2007   -7.6156   23.9744 H   0  0  0  0  0  0
  -21.1501   -6.0514   25.9089 H   0  0  0  0  0  0
  -22.0617   -2.7632   23.2800 H   0  0  0  0  0  0
  -22.4230  -11.9899   22.4899 H   0  0  0  0  0  0
  -21.1067  -13.1044   22.2624 H   0  0  0  0  0  0
  -24.6046  -15.8298   20.4277 H   0  0  0  0  0  0
  -26.2306  -15.6305   20.0134 H   0  0  0  0  0  0
  -26.7264  -32.5324   23.0985 H   0  0  0  0  0  0
  -25.0393  -33.9720   25.0511 H   0  0  0  0  0  0
  -22.7231  -31.3004   21.3788 H   0  0  0  0  0  0
  -23.3737  -35.9605   23.3322 H   0  0  0  0  0  0
  -24.3621  -36.8878   22.2068 H   0  0  0  0  0  0
  -23.7263  -37.6407   23.6696 H   0  0  0  0  0  0
  -26.1311  -31.5243   20.6034 H   0  0  0  0  0  0
  -26.8525  -30.8051   22.0083 H   0  0  0  0  0  0
  -28.1353  -28.9449   21.1565 H   0  0  0  0  0  0
  -25.9671  -25.9000   19.0088 H   0  0  0  0  0  0
  -23.9509  -27.2970   19.0327 H   0  0  0  0  0  0
  -23.7795  -30.5862   19.3936 H   0  0  0  0  0  0
  -22.7645  -29.2555   19.8435 H   0  0  0  0  0  0
  -25.1323  -36.1821   25.0763 H   0  0  0  0  0  0
  -21.0009  -28.3300   24.1369 H   0  0  0  0  0  0
  -20.5710  -26.2290   23.3561 H   0  0  0  0  0  0
  -21.6637  -26.7496   22.1132 H   0  0  0  0  0  0
  -19.6882  -25.6298   21.1256 H   0  0  0  0  0  0
  -19.6711  -27.3196   20.6687 H   0  0  0  0  0  0
  -17.4200  -26.6725   21.4008 H   0  0  0  0  0  0
  -18.0305  -26.0146   22.9027 H   0  0  0  0  0  0
  -19.7923  -30.7361   24.2178 H   0  0  0  0  0  0
  -17.4987  -31.6271   24.5180 H   0  0  0  0  0  0
  -15.5335  -30.2936   23.7734 H   0  0  0  0  0  0
  -15.8693  -28.0875   22.6964 H   0  0  0  0  0  0
  -24.5881  -30.7049   25.7590 H   0  0  0  0  0  0
  -24.8866  -32.2850   26.4701 H   0  0  0  0  0  0
  -25.7961  -30.8830   27.0112 H   0  0  0  0  0  0
  -26.2887  -29.6588   24.1372 H   0  0  0  0  0  0
  -27.4191  -29.7293   25.4720 H   0  0  0  0  0  0
  -27.8740  -30.4136   23.9288 H   0  0  0  0  0  0
  -27.2691  -33.3578   26.2006 H   0  0  0  0  0  0
  -28.3976  -32.6772   25.0384 H   0  0  0  0  0  0
  -28.0617  -31.8354   26.5460 H   0  0  0  0  0  0
  -28.2574  -38.0059   24.7534 H   0  0  0  0  0  0
  -28.1039  -36.2569   24.6288 H   0  0  0  0  0  0
  -27.2266  -37.1388   25.8874 H   0  0  0  0  0  0
  -20.9380  -29.8756   21.6825 H   0  0  0  0  0  0
  -26.0142  -38.2763   24.1385 H   0  0  0  0  0  0
  -31.5387  -18.7219   20.6910 H   0  0  0  0  0  0
  -25.4879  -15.8108   23.4953 H   0  0  0  0  0  0
  -26.9348  -15.2918   24.3426 H   0  0  0  0  0  0
  -26.7211  -14.8988   22.6482 H   0  0  0  0  0  0
  -29.2714  -16.1112   24.6830 H   0  0  0  0  0  0
  -30.5970  -16.0071   23.5561 H   0  0  0  0  0  0
  -29.2683  -14.8611   23.4609 H   0  0  0  0  0  0
  -26.9479  -24.0815   18.3788 H   0  0  0  0  0  0
  -26.3110  -23.2241   19.7851 H   0  0  0  0  0  0
  -27.2801  -22.3844   18.5753 H   0  0  0  0  0  0
  -29.3246  -26.1789   22.2943 H   0  0  0  0  0  0
  -30.3540  -25.1283   21.3306 H   0  0  0  0  0  0
  -29.2956  -24.4455   22.5615 H   0  0  0  0  0  0
  -27.0970  -17.6916   23.8203 H   0  0  0  0  0  0
  -26.7435  -17.4285   22.1482 H   0  0  0  0  0  0
  -28.3228  -16.4963   20.6035 H   0  0  0  0  0  0
  -29.1616  -17.8428   23.0886 H   0  0  0  0  0  0
  -29.2520  -23.8160   19.2001 H   0  0  0  0  0  0
  -27.3121  -25.0085   21.2642 H   0  0  0  0  0  0
  -29.4898  -22.8012   21.4595 H   0  0  0  0  0  0
  -31.1798  -16.5402   20.9501 H   0  0  0  0  0  0
  1 25  1  0  0  0
  1 30  2  0  0  0
  1 85  1  0  0  0
  2  3  1  0  0  0
  2 25  1  0  0  0
  2 87  1  0  0  0
  2 88  1  0  0  0
  3  4  1  0  0  0
  3 89  1  0  0  0
  3 90  1  0  0  0
  4  5  1  0  0  0
  4 91  1  0  0  0
  4 92  1  0  0  0
  5  6  1  0  0  0
  5 26  1  0  0  0
  5 93  1  0  0  0
  6 25  1  0  0  0
  6 94  1  0  0  0
  6 95  1  0  0  0
  7  8  2  0  0  0
  7 26  1  0  0  0
  7 29  1  0  0  0
  8  9  1  0  0  0
  8 22  1  0  0  0
  9 10  1  0  0  0
  9 27  2  0  0  0
 10 11  2  0  0  0
 10 15  1  0  0  0
 11 12  1  0  0  0
 11 96  1  0  0  0
 12 13  2  0  0  0
 12 97  1  0  0  0
 13 14  1  0  0  0
 13 31  1  0  0  0
 14 15  2  0  0  0
 14 98  1  0  0  0
 15 99  1  0  0  0
 16 17  2  0  0  0
 16 21  1  0  0  0
 16 31  1  0  0  0
 17 18  1  0  0  0
 17100  1  0  0  0
 18 19  2  0  0  0
 18101  1  0  0  0
 19 20  1  0  0  0
 19 24  1  0  0  0
 20 21  2  0  0  0
 20102  1  0  0  0
 21 23  1  0  0  0
 22 28  1  0  0  0
 22 32  2  0  0  0
 26 27  1  0  0  0
 28103  1  0  0  0
 28104  1  0  0  0
 29105  1  0  0  0
 29106  1  0  0  0
 33 34  1  0  0  0
 33 66  1  0  0  0
 33 70  2  0  0  0
 34 36  1  0  0  0
 34 59  1  0  0  0
 34107  1  0  0  0
 35 44  2  0  0  0
 35 45  1  0  0  0
 35 68  1  0  0  0
 36 56  1  0  0  0
 36108  1  0  0  0
 37 39  1  0  0  0
 37 47  1  0  0  0
 37 66  1  0  0  0
 37109  1  0  0  0
 38 43  2  0  0  0
 38 46  1  0  0  0
 38 47  1  0  0  0
 39 64  1  0  0  0
 39 67  2  0  0  0
 40 52  1  0  0  0
 40 53  2  0  0  0
 40 58  1  0  0  0
 41110  1  0  0  0
 41111  1  0  0  0
 41112  1  0  0  0
 41 48  1  0  0  0
 42 43  1  0  0  0
 42 66  1  0  0  0
 42113  1  0  0  0
 42114  1  0  0  0
 43 44  1  0  0  0
 44115  1  0  0  0
 45 46  2  0  0  0
 45116  1  0  0  0
 46117  1  0  0  0
 47118  1  0  0  0
 47119  1  0  0  0
 48 56  1  0  0  0
 48 65  1  0  0  0
 48120  1  0  0  0
 49 50  1  0  0  0
 49 53  1  0  0  0
 49 64  1  0  0  0
 49121  1  0  0  0
 50 51  1  0  0  0
 50122  1  0  0  0
 50123  1  0  0  0
 51 52  1  0  0  0
 51124  1  0  0  0
 51125  1  0  0  0
 52126  1  0  0  0
 52127  1  0  0  0
 53 54  1  0  0  0
 54 55  2  0  0  0
 54128  1  0  0  0
 55 57  1  0  0  0
 55129  1  0  0  0
 56 69  2  0  0  0
 57 58  2  0  0  0
 57130  1  0  0  0
 58131  1  0  0  0
 59 60  1  0  0  0
 59 61  1  0  0  0
 59 62  1  0  0  0
 60132  1  0  0  0
 60133  1  0  0  0
 60134  1  0  0  0
 61135  1  0  0  0
 61136  1  0  0  0
 61137  1  0  0  0
 62138  1  0  0  0
 62139  1  0  0  0
 62140  1  0  0  0
 63 65  1  0  0  0
 63141  1  0  0  0
 63142  1  0  0  0
 63143  1  0  0  0
 64144  1  0  0  0
 65145  1  0  0  0
 68 82  1  0  0  0
 71 72  2  0  0  0
 71 83  1  0  0  0
 71146  1  0  0  0
 72 79  1  0  0  0
 72 86  1  0  0  0
 73 83  2  0  0  0
 73 84  1  0  0  0
 73 86  1  0  0  0
 74 78  1  0  0  0
 74147  1  0  0  0
 74148  1  0  0  0
 74149  1  0  0  0
 75150  1  0  0  0
 75151  1  0  0  0
 75152  1  0  0  0
 75 80  1  0  0  0
 76153  1  0  0  0
 76154  1  0  0  0
 76155  1  0  0  0
 76 81  1  0  0  0
 77156  1  0  0  0
 77157  1  0  0  0
 77158  1  0  0  0
 77 82  1  0  0  0
 78 80  1  0  0  0
 78159  1  0  0  0
 78160  1  0  0  0
 79 80  1  0  0  0
 79 85  1  0  0  0
 79161  1  0  0  0
 80162  1  0  0  0
 81 82  1  0  0  0
 81 84  1  0  0  0
 81163  1  0  0  0
 82164  1  0  0  0
 84165  1  0  0  0
 85166  1  0  0  0
M  ISO  4   1 100  68 101  82 101  85 100
M  END
> <chiral flag>
0

> <version>
0

> <s_m_source_file>
/data/baiqing/PycharmProjects/Reinvent-master-3.2/result/LINK_invent/BTK/process_docking_weight1_custom_product_contain_oxygen_bond_distance_aromatic_linkinvent_7_9_3/rearranged_h_0186.sdf

> <i_m_source_file_index>
68

> <r_mmod_Potential_Energy-OPLS-2005>
181.604690551758

> <r_mmod_Stretch_Energy-OPLS-2005>
117.423858642578

> <r_mmod_Bend_Energy-OPLS-2005>
261.999481201172

> <r_mmod_Torsional_Energy-OPLS-2005>
306.247344970703

> <r_mmod_Improper_Torsional_Energy-OPLS-2005>
7.22553443908691

> <r_mmod_Van_der_Waal_Energy-OPLS-2005>
106.180274963379

> <r_mmod_Electrostatic_Energy-OPLS-2005>
-501.197387695312

> <r_mmod_Solvation_Energy-OPLS-2005>
-197.643936157227

> <b_mmod_Minimization_Converged-OPLS-2005>
0

> <r_mmod_RMS_Derivative-OPLS-2005>
4.71749925613403

$$$$
69
                    3D
 Structure written by MMmdl.
168176  0  0  1  0            999 V2000
  -30.6300  -14.6500   20.5193 C   0  0  0  0  0  0
  -30.4378  -12.3999   19.4535 C   0  0  0  0  0  0
  -29.5045  -12.5087   18.2274 C   0  0  0  0  0  0
  -28.0301  -12.3429   18.6437 C   0  0  0  0  0  0
  -27.6567  -13.2162   19.8694 C   0  0  2  0  0  0
  -28.7036  -13.0744   20.9968 C   0  0  0  0  0  0
  -25.2591  -13.8170   20.5710 C   0  0  0  0  0  0
  -24.1843  -13.0436   20.9191 C   0  0  0  0  0  0
  -24.6410  -11.6908   20.8752 C   0  0  0  0  0  0
  -23.9071  -10.4293   21.0422 C   0  0  0  0  0  0
  -24.3620   -9.4203   21.9190 C   0  0  0  0  0  0
  -23.6293   -8.2235   22.0755 C   0  0  0  0  0  0
  -22.4271   -8.0284   21.3544 C   0  0  0  0  0  0
  -21.9919   -9.0263   20.4636 C   0  0  0  0  0  0
  -22.7252  -10.2140   20.3057 C   0  0  0  0  0  0
  -21.6851   -6.0730   22.5276 C   0  0  0  0  0  0
  -21.4018   -6.5637   23.8206 C   0  0  0  0  0  0
  -21.3662   -5.6791   24.9172 C   0  0  0  0  0  0
  -21.6043   -4.3053   24.7224 C   0  0  0  0  0  0
  -21.8825   -3.8141   23.4348 C   0  0  0  0  0  0
  -21.9200   -4.6958   22.3403 C   0  0  0  0  0  0
  -22.7867  -13.5226   21.1861 C   0  0  0  0  0  0
  -22.1663   -4.2141   21.0984 F   0  0  0  0  0  0
  -21.5635   -3.4543   25.7741 F   0  0  0  0  0  0
  -30.0150  -13.4237   20.4326 N   0  0  0  0  0  0
  -26.3024  -12.9351   20.3377 N   0  0  0  0  0  0
  -25.9344  -11.6504   20.5783 N   0  0  0  0  0  0
  -22.0511  -12.8198   22.0405 N   0  0  0  0  0  0
  -25.4319  -15.1887   20.4125 N   0  0  0  0  0  0
  -31.7693  -14.7927   20.0632 O   0  0  0  0  0  0
  -21.6640   -6.8876   21.4235 O   0  0  0  0  0  0
  -22.3540  -14.5542   20.6730 O   0  0  0  0  0  0
  -24.6256  -31.8582   23.1996 C   0  0  0  0  0  0
  -25.9105  -32.4774   23.8326 C   0  0  1  0  0  0
  -27.2395  -27.3190   20.1059 C   0  0  0  0  0  0
  -25.5921  -33.8572   24.2244 N   0  0  0  0  0  0
  -23.4205  -30.4761   21.5455 C   0  0  2  0  0  0
  -24.8672  -28.9282   20.1123 C   0  0  0  0  0  0
  -22.7488  -29.4575   22.4958 C   0  0  0  0  0  0
  -18.0280  -28.1379   22.8476 C   0  0  0  0  0  0
  -24.1505  -36.7288   23.2636 C   0  0  0  0  0  0
  -25.9601  -30.7848   21.3730 C   0  0  0  0  0  0
  -26.0339  -29.4119   20.7153 C   0  0  0  0  0  0
  -27.2177  -28.6186   20.7015 C   0  0  0  0  0  0
  -26.0406  -26.8768   19.4998 C   0  0  0  0  0  0
  -24.8725  -27.6648   19.4995 C   0  0  0  0  0  0
  -23.6325  -29.8042   20.1633 C   0  0  0  0  0  0
  -25.4122  -36.3070   24.0325 C   0  0  1  0  0  0
  -20.5880  -28.3671   23.1286 C   0  0  2  0  0  0
  -20.6775  -26.9390   22.5407 C   0  0  0  0  0  0
  -19.5749  -26.6371   21.5211 C   0  0  0  0  0  0
  -18.1923  -26.7919   22.1613 C   0  0  0  0  0  0
  -19.1535  -28.8848   23.2873 C   0  0  0  0  0  0
  -18.9460  -30.1458   23.8866 C   0  0  0  0  0  0
  -17.6463  -30.6582   24.0551 C   0  0  0  0  0  0
  -25.9062  -34.9455   23.5084 C   0  0  0  0  0  0
  -16.5349  -29.9065   23.6347 C   0  0  0  0  0  0
  -16.7266  -28.6503   23.0325 C   0  0  0  0  0  0
  -26.4481  -31.6610   25.0725 C   0  0  0  0  0  0
  -25.3706  -31.3741   26.1454 C   0  0  0  0  0  0
  -27.0347  -30.3037   24.6215 C   0  0  0  0  0  0
  -27.6037  -32.4359   25.7490 C   0  0  0  0  0  0
  -27.5577  -37.1785   24.8450 C   0  0  0  0  0  0
  -21.4198  -29.3021   22.3703 N   0  0  0  0  0  0
  -26.4290  -37.3774   23.9402 N   0  0  0  0  0  0
  -24.6874  -31.0575   22.0957 N   0  0  0  0  0  0
  -23.4204  -28.8112   23.3041 O   0  0  0  0  0  0
  -28.4019  -26.5305   20.1524 O   0  0  0  0  0  0
  -26.5637  -34.8921   22.4657 O   0  0  0  0  0  0
  -23.5425  -32.1389   23.7329 O   0  0  0  0  0  0
  -31.3403  -16.0819   24.6425 C   0  0  0  0  0  0
  -31.4208  -15.9008   23.2321 C   0  0  0  0  0  0
  -30.0630  -16.3302   25.0715 C   0  0  0  0  0  0
  -30.2072  -16.0226   22.5971 C   0  0  0  0  0  0
  -29.1397  -21.1771   20.9262 C   0  0  0  0  0  0
  -31.3544  -19.0082   21.8062 C   0  0  0  0  0  0
  -29.8866  -24.3011   21.5897 C   0  0  0  0  0  0
  -27.3913  -23.9405   21.5704 C   0  0  0  0  0  0
  -28.9156  -22.4808   20.0410 C   0  0  0  0  0  0
  -30.0129  -17.3512   20.3468 C   0  0  0  0  0  0
  -28.4958  -25.1347   19.6545 C   0  0  0  0  0  0
  -29.9036  -15.9356   21.1250 C   0  0  1  0  0  0
  -29.9686  -18.7391   21.1697 C   0  0  2  0  0  0
  -28.6714  -23.9413   20.7073 C   0  0  0  0  0  0
  -31.4136  -19.9045   22.7831 N   0  0  0  0  0  0
  -29.5926  -19.9906   20.3940 N   0  0  0  0  0  0
  -28.9002  -21.2310   22.1326 O   0  0  0  0  0  0
  -32.3785  -18.4638   21.3973 O   0  0  0  0  0  0
  -28.9315  -16.3404   23.7482 S   0  0  0  0  0  0
  -31.4782  -12.5186   19.1470 H   0  0  0  0  0  0
  -30.3738  -11.4054   19.8971 H   0  0  0  0  0  0
  -29.7671  -11.7533   17.4855 H   0  0  0  0  0  0
  -29.6429  -13.4757   17.7410 H   0  0  0  0  0  0
  -27.8708  -11.2905   18.8831 H   0  0  0  0  0  0
  -27.3697  -12.5657   17.8045 H   0  0  0  0  0  0
  -27.6757  -14.2500   19.5265 H   0  0  0  0  0  0
  -28.7182  -12.0521   21.3782 H   0  0  0  0  0  0
  -28.4501  -13.6997   21.8530 H   0  0  0  0  0  0
  -25.2773   -9.5669   22.4757 H   0  0  0  0  0  0
  -24.0004   -7.4620   22.7472 H   0  0  0  0  0  0
  -21.0856   -8.8788   19.8931 H   0  0  0  0  0  0
  -22.3728  -10.9682   19.6164 H   0  0  0  0  0  0
  -21.2000   -7.6141   23.9708 H   0  0  0  0  0  0
  -21.1482   -6.0522   25.9078 H   0  0  0  0  0  0
  -22.0601   -2.7603   23.2857 H   0  0  0  0  0  0
  -22.4141  -11.9854   22.4766 H   0  0  0  0  0  0
  -21.1129  -13.1207   22.2624 H   0  0  0  0  0  0
  -24.6692  -15.8486   20.5236 H   0  0  0  0  0  0
  -26.2862  -15.6243   20.0889 H   0  0  0  0  0  0
  -26.7155  -32.5440   23.1053 H   0  0  0  0  0  0
  -25.0074  -33.9718   25.0392 H   0  0  0  0  0  0
  -22.7153  -31.2962   21.4004 H   0  0  0  0  0  0
  -23.3775  -35.9609   23.3295 H   0  0  0  0  0  0
  -24.3574  -36.8923   22.2044 H   0  0  0  0  0  0
  -23.7262  -37.6483   23.6683 H   0  0  0  0  0  0
  -26.0984  -31.5485   20.6065 H   0  0  0  0  0  0
  -26.8352  -30.8265   22.0090 H   0  0  0  0  0  0
  -28.1157  -28.9927   21.1752 H   0  0  0  0  0  0
  -25.9631  -25.9095   19.0322 H   0  0  0  0  0  0
  -23.9763  -27.2832   19.0279 H   0  0  0  0  0  0
  -23.7406  -30.5755   19.4009 H   0  0  0  0  0  0
  -22.7549  -29.2245   19.8713 H   0  0  0  0  0  0
  -25.1308  -36.1904   25.0816 H   0  0  0  0  0  0
  -20.9960  -28.3251   24.1408 H   0  0  0  0  0  0
  -20.5687  -26.2279   23.3610 H   0  0  0  0  0  0
  -21.6640  -26.7423   22.1185 H   0  0  0  0  0  0
  -19.6913  -25.6288   21.1229 H   0  0  0  0  0  0
  -19.6690  -27.3203   20.6767 H   0  0  0  0  0  0
  -17.4198  -26.6669   21.4008 H   0  0  0  0  0  0
  -18.0291  -26.0078   22.9025 H   0  0  0  0  0  0
  -19.7946  -30.7280   24.2203 H   0  0  0  0  0  0
  -17.5018  -31.6256   24.5155 H   0  0  0  0  0  0
  -15.5338  -30.2925   23.7738 H   0  0  0  0  0  0
  -15.8671  -28.0823   22.6999 H   0  0  0  0  0  0
  -24.5874  -30.7108   25.7759 H   0  0  0  0  0  0
  -24.8910  -32.2914   26.4895 H   0  0  0  0  0  0
  -25.8024  -30.8891   27.0222 H   0  0  0  0  0  0
  -26.2941  -29.6758   24.1259 H   0  0  0  0  0  0
  -27.4053  -29.7325   25.4731 H   0  0  0  0  0  0
  -27.8801  -30.4308   23.9444 H   0  0  0  0  0  0
  -27.2647  -33.3667   26.2043 H   0  0  0  0  0  0
  -28.3852  -32.6908   25.0320 H   0  0  0  0  0  0
  -28.0717  -31.8519   26.5422 H   0  0  0  0  0  0
  -28.2575  -38.0106   24.7536 H   0  0  0  0  0  0
  -28.1102  -36.2638   24.6248 H   0  0  0  0  0  0
  -27.2297  -37.1390   25.8853 H   0  0  0  0  0  0
  -20.9406  -29.8743   21.6890 H   0  0  0  0  0  0
  -26.0177  -38.2840   24.1435 H   0  0  0  0  0  0
  -32.2114  -16.0270   25.2827 H   0  0  0  0  0  0
  -32.3629  -15.7053   22.7369 H   0  0  0  0  0  0
  -29.7181  -16.5076   26.0831 H   0  0  0  0  0  0
  -30.0248  -23.6016   22.4131 H   0  0  0  0  0  0
  -29.7795  -25.2925   22.0307 H   0  0  0  0  0  0
  -30.8084  -24.3039   21.0067 H   0  0  0  0  0  0
  -27.4639  -23.2711   22.4256 H   0  0  0  0  0  0
  -26.5239  -23.6344   20.9849 H   0  0  0  0  0  0
  -27.1821  -24.9339   21.9695 H   0  0  0  0  0  0
  -28.0711  -22.2603   19.3872 H   0  0  0  0  0  0
  -29.7731  -22.5549   19.3724 H   0  0  0  0  0  0
  -29.1950  -17.3717   19.6276 H   0  0  0  0  0  0
  -30.9022  -17.3348   19.7150 H   0  0  0  0  0  0
  -27.7149  -24.8801   18.9432 H   0  0  0  0  0  0
  -29.3944  -25.1392   19.0363 H   0  0  0  0  0  0
  -28.8398  -15.7201   21.0579 H   0  0  0  0  0  0
  -29.2310  -18.6260   21.9640 H   0  0  0  0  0  0
  -30.5646  -20.4036   23.0295 H   0  0  0  0  0  0
  -32.2896  -20.1346   23.2285 H   0  0  0  0  0  0
  -29.8154  -19.9876   19.4089 H   0  0  0  0  0  0
  1 25  1  0  0  0
  1 30  2  0  0  0
  1 82  1  0  0  0
  2  3  1  0  0  0
  2 25  1  0  0  0
  2 90  1  0  0  0
  2 91  1  0  0  0
  3  4  1  0  0  0
  3 92  1  0  0  0
  3 93  1  0  0  0
  4  5  1  0  0  0
  4 94  1  0  0  0
  4 95  1  0  0  0
  5  6  1  0  0  0
  5 26  1  0  0  0
  5 96  1  0  0  0
  6 25  1  0  0  0
  6 97  1  0  0  0
  6 98  1  0  0  0
  7  8  2  0  0  0
  7 26  1  0  0  0
  7 29  1  0  0  0
  8  9  1  0  0  0
  8 22  1  0  0  0
  9 10  1  0  0  0
  9 27  2  0  0  0
 10 11  2  0  0  0
 10 15  1  0  0  0
 11 12  1  0  0  0
 11 99  1  0  0  0
 12 13  2  0  0  0
 12100  1  0  0  0
 13 14  1  0  0  0
 13 31  1  0  0  0
 14 15  2  0  0  0
 14101  1  0  0  0
 15102  1  0  0  0
 16 17  2  0  0  0
 16 21  1  0  0  0
 16 31  1  0  0  0
 17 18  1  0  0  0
 17103  1  0  0  0
 18 19  2  0  0  0
 18104  1  0  0  0
 19 20  1  0  0  0
 19 24  1  0  0  0
 20 21  2  0  0  0
 20105  1  0  0  0
 21 23  1  0  0  0
 22 28  1  0  0  0
 22 32  2  0  0  0
 26 27  1  0  0  0
 28106  1  0  0  0
 28107  1  0  0  0
 29108  1  0  0  0
 29109  1  0  0  0
 33 34  1  0  0  0
 33 66  1  0  0  0
 33 70  2  0  0  0
 34 36  1  0  0  0
 34 59  1  0  0  0
 34110  1  0  0  0
 35 44  2  0  0  0
 35 45  1  0  0  0
 35 68  1  0  0  0
 36 56  1  0  0  0
 36111  1  0  0  0
 37 39  1  0  0  0
 37 47  1  0  0  0
 37 66  1  0  0  0
 37112  1  0  0  0
 38 43  2  0  0  0
 38 46  1  0  0  0
 38 47  1  0  0  0
 39 64  1  0  0  0
 39 67  2  0  0  0
 40 52  1  0  0  0
 40 53  2  0  0  0
 40 58  1  0  0  0
 41113  1  0  0  0
 41114  1  0  0  0
 41115  1  0  0  0
 41 48  1  0  0  0
 42 43  1  0  0  0
 42 66  1  0  0  0
 42116  1  0  0  0
 42117  1  0  0  0
 43 44  1  0  0  0
 44118  1  0  0  0
 45 46  2  0  0  0
 45119  1  0  0  0
 46120  1  0  0  0
 47121  1  0  0  0
 47122  1  0  0  0
 48 56  1  0  0  0
 48 65  1  0  0  0
 48123  1  0  0  0
 49 50  1  0  0  0
 49 53  1  0  0  0
 49 64  1  0  0  0
 49124  1  0  0  0
 50 51  1  0  0  0
 50125  1  0  0  0
 50126  1  0  0  0
 51 52  1  0  0  0
 51127  1  0  0  0
 51128  1  0  0  0
 52129  1  0  0  0
 52130  1  0  0  0
 53 54  1  0  0  0
 54 55  2  0  0  0
 54131  1  0  0  0
 55 57  1  0  0  0
 55132  1  0  0  0
 56 69  2  0  0  0
 57 58  2  0  0  0
 57133  1  0  0  0
 58134  1  0  0  0
 59 60  1  0  0  0
 59 61  1  0  0  0
 59 62  1  0  0  0
 60135  1  0  0  0
 60136  1  0  0  0
 60137  1  0  0  0
 61138  1  0  0  0
 61139  1  0  0  0
 61140  1  0  0  0
 62141  1  0  0  0
 62142  1  0  0  0
 62143  1  0  0  0
 63 65  1  0  0  0
 63144  1  0  0  0
 63145  1  0  0  0
 63146  1  0  0  0
 64147  1  0  0  0
 65148  1  0  0  0
 68 81  1  0  0  0
 71 72  1  0  0  0
 71 73  2  0  0  0
 71149  1  0  0  0
 72 74  2  0  0  0
 72150  1  0  0  0
 73 89  1  0  0  0
 73151  1  0  0  0
 74 82  1  0  0  0
 74 89  1  0  0  0
 75 79  1  0  0  0
 75 86  1  0  0  0
 75 87  2  0  0  0
 76 83  1  0  0  0
 76 85  1  0  0  0
 76 88  2  0  0  0
 77152  1  0  0  0
 77153  1  0  0  0
 77154  1  0  0  0
 77 84  1  0  0  0
 78 84  1  0  0  0
 78155  1  0  0  0
 78156  1  0  0  0
 78157  1  0  0  0
 79 84  1  0  0  0
 79158  1  0  0  0
 79159  1  0  0  0
 80160  1  0  0  0
 80161  1  0  0  0
 80 82  1  0  0  0
 80 83  1  0  0  0
 81 84  1  0  0  0
 81162  1  0  0  0
 81163  1  0  0  0
 82164  1  0  0  0
 83 86  1  0  0  0
 83165  1  0  0  0
 85166  1  0  0  0
 85167  1  0  0  0
 86168  1  0  0  0
M  ISO  4   1 100  68 101  81 101  82 100
M  END
> <chiral flag>
0

> <version>
0

> <s_m_source_file>
/data/baiqing/PycharmProjects/Reinvent-master-3.2/result/LINK_invent/BTK/process_docking_weight1_custom_product_contain_oxygen_bond_distance_aromatic_linkinvent_7_9_3/rearranged_h_0186.sdf

> <i_m_source_file_index>
69

> <r_mmod_Potential_Energy-OPLS-2005>
-179.081741333008

> <r_mmod_Stretch_Energy-OPLS-2005>
105.305732727051

> <r_mmod_Bend_Energy-OPLS-2005>
168.93962097168

> <r_mmod_Torsional_Energy-OPLS-2005>
159.564529418945

> <r_mmod_Improper_Torsional_Energy-OPLS-2005>
2.59174656867981

> <r_mmod_Van_der_Waal_Energy-OPLS-2005>
120.326477050781

> <r_mmod_Electrostatic_Energy-OPLS-2005>
-542.515625

> <r_mmod_Solvation_Energy-OPLS-2005>
-238.849563598633

> <b_mmod_Minimization_Converged-OPLS-2005>
0

> <r_mmod_RMS_Derivative-OPLS-2005>
2.20908427238464

$$$$
70
                    3D
 Structure written by MMmdl.
157165  0  0  1  0            999 V2000
  -30.7017  -14.4302   20.5455 C   0  0  0  0  0  0
  -30.4202  -12.2682   19.4250 C   0  0  0  0  0  0
  -29.4964  -12.4885   18.2083 C   0  0  0  0  0  0
  -28.0144  -12.3681   18.6160 C   0  0  0  0  0  0
  -27.6652  -13.2013   19.8786 C   0  0  2  0  0  0
  -28.7042  -12.9657   21.0002 C   0  0  0  0  0  0
  -25.2606  -13.8155   20.5672 C   0  0  0  0  0  0
  -24.1849  -13.0440   20.9166 C   0  0  0  0  0  0
  -24.6393  -11.6904   20.8729 C   0  0  0  0  0  0
  -23.9053  -10.4294   21.0400 C   0  0  0  0  0  0
  -24.3607   -9.4211   21.9180 C   0  0  0  0  0  0
  -23.6287   -8.2246   22.0753 C   0  0  0  0  0  0
  -22.4271   -8.0281   21.3545 C   0  0  0  0  0  0
  -21.9901   -9.0254   20.4649 C   0  0  0  0  0  0
  -22.7224  -10.2136   20.3053 C   0  0  0  0  0  0
  -21.6857   -6.0732   22.5280 C   0  0  0  0  0  0
  -21.4014   -6.5636   23.8212 C   0  0  0  0  0  0
  -21.3658   -5.6790   24.9174 C   0  0  0  0  0  0
  -21.6045   -4.3053   24.7226 C   0  0  0  0  0  0
  -21.8819   -3.8143   23.4348 C   0  0  0  0  0  0
  -21.9193   -4.6960   22.3403 C   0  0  0  0  0  0
  -22.7873  -13.5243   21.1830 C   0  0  0  0  0  0
  -22.1660   -4.2145   21.0981 F   0  0  0  0  0  0
  -21.5632   -3.4536   25.7739 F   0  0  0  0  0  0
  -30.0434  -13.2464   20.4550 N   0  0  0  0  0  0
  -26.3040  -12.9314   20.3374 N   0  0  0  0  0  0
  -25.9321  -11.6479   20.5771 N   0  0  0  0  0  0
  -22.0511  -12.8245   22.0394 N   0  0  0  0  0  0
  -25.4342  -15.1875   20.4083 N   0  0  0  0  0  0
  -31.8374  -14.6133   20.0942 O   0  0  0  0  0  0
  -21.6643   -6.8874   21.4240 O   0  0  0  0  0  0
  -22.3560  -14.5548   20.6678 O   0  0  0  0  0  0
  -24.6111  -31.8700   23.2116 C   0  0  0  0  0  0
  -25.9016  -32.4831   23.8401 C   0  0  1  0  0  0
  -27.2370  -27.4623   20.0958 C   0  0  0  0  0  0
  -25.5884  -33.8629   24.2336 N   0  0  0  0  0  0
  -23.3970  -30.4933   21.5516 C   0  0  2  0  0  0
  -24.8430  -28.9605   20.1160 C   0  0  0  0  0  0
  -22.7387  -29.4669   22.5005 C   0  0  0  0  0  0
  -18.0267  -28.1375   22.8496 C   0  0  0  0  0  0
  -24.1486  -36.7323   23.2639 C   0  0  0  0  0  0
  -25.9219  -30.8453   21.3586 C   0  0  0  0  0  0
  -26.0002  -29.4813   20.7075 C   0  0  0  0  0  0
  -27.1995  -28.7401   20.6910 C   0  0  0  0  0  0
  -26.0641  -26.9493   19.4954 C   0  0  0  0  0  0
  -24.8684  -27.6927   19.5077 C   0  0  0  0  0  0
  -23.6032  -29.8233   20.1663 C   0  0  0  0  0  0
  -25.4105  -36.3120   24.0341 C   0  0  1  0  0  0
  -20.5854  -28.3654   23.1331 C   0  0  2  0  0  0
  -20.6758  -26.9395   22.5422 C   0  0  0  0  0  0
  -19.5740  -26.6386   21.5214 C   0  0  0  0  0  0
  -18.1917  -26.7923   22.1625 C   0  0  0  0  0  0
  -19.1515  -28.8830   23.2913 C   0  0  0  0  0  0
  -18.9446  -30.1439   23.8920 C   0  0  0  0  0  0
  -17.6449  -30.6583   24.0567 C   0  0  0  0  0  0
  -25.9027  -34.9482   23.5136 C   0  0  0  0  0  0
  -16.5340  -29.9088   23.6321 C   0  0  0  0  0  0
  -16.7257  -28.6503   23.0345 C   0  0  0  0  0  0
  -26.4463  -31.6599   25.0714 C   0  0  0  0  0  0
  -25.3744  -31.3695   26.1473 C   0  0  0  0  0  0
  -27.0289  -30.3049   24.6059 C   0  0  0  0  0  0
  -27.6045  -32.4316   25.7471 C   0  0  0  0  0  0
  -27.5583  -37.1814   24.8464 C   0  0  0  0  0  0
  -21.4119  -29.3027   22.3742 N   0  0  0  0  0  0
  -26.4296  -37.3799   23.9408 N   0  0  0  0  0  0
  -24.6616  -31.0829   22.0999 N   0  0  0  0  0  0
  -23.4174  -28.8214   23.3038 O   0  0  0  0  0  0
  -28.4295  -26.7759   20.1001 O   0  0  0  0  0  0
  -26.5592  -34.8930   22.4698 O   0  0  0  0  0  0
  -23.5313  -32.1436   23.7534 O   0  0  0  0  0  0
  -29.6209  -16.6416   18.8230 C   0  0  0  0  0  0
  -29.7695  -16.6390   20.2421 C   0  0  0  0  0  0
  -29.3946  -17.9558   18.5644 C   0  0  0  0  0  0
  -28.6504  -23.1698   18.9474 C   0  0  0  0  0  0
  -29.3175  -25.0533   21.4678 C   0  0  0  0  0  0
  -28.8452  -24.6892   18.9682 C   0  0  0  0  0  0
  -29.2173  -20.1096   19.9523 C   0  0  0  0  0  0
  -29.8126  -20.9706   18.8142 C   0  0  0  0  0  0
  -28.3920  -25.3587   20.2801 C   0  0  2  0  0  0
  -29.6149  -17.8419   20.7958 N   0  0  0  0  0  0
  -29.4242  -18.6809   19.7389 N   0  0  0  0  0  0
  -29.9656  -15.4565   20.9954 N   0  0  0  0  0  0
  -29.7478  -22.4100   19.0602 N   0  0  0  0  0  0
  -27.5269  -22.6917   18.7824 O   0  0  0  0  0  0
  -29.1737  -18.4731   17.3323 F   0  0  0  0  0  0
  -31.4671  -12.3535   19.1272 H   0  0  0  0  0  0
  -30.3040  -11.2552   19.8138 H   0  0  0  0  0  0
  -29.7255  -11.7621   17.4273 H   0  0  0  0  0  0
  -29.6820  -13.4702   17.7718 H   0  0  0  0  0  0
  -27.8091  -11.3131   18.8013 H   0  0  0  0  0  0
  -27.3711  -12.6591   17.7849 H   0  0  0  0  0  0
  -27.7131  -14.2504   19.5883 H   0  0  0  0  0  0
  -28.6640  -11.9304   21.3416 H   0  0  0  0  0  0
  -28.4757  -13.5707   21.8788 H   0  0  0  0  0  0
  -25.2756   -9.5689   22.4749 H   0  0  0  0  0  0
  -24.0000   -7.4636   22.7471 H   0  0  0  0  0  0
  -21.0833   -8.8770   19.8957 H   0  0  0  0  0  0
  -22.3681  -10.9672   19.6160 H   0  0  0  0  0  0
  -21.2006   -7.6145   23.9711 H   0  0  0  0  0  0
  -21.1482   -6.0523   25.9075 H   0  0  0  0  0  0
  -22.0600   -2.7606   23.2853 H   0  0  0  0  0  0
  -22.4115  -11.9902   22.4788 H   0  0  0  0  0  0
  -21.1132  -13.1282   22.2596 H   0  0  0  0  0  0
  -24.6697  -15.8444   20.5190 H   0  0  0  0  0  0
  -26.2901  -15.6270   20.0949 H   0  0  0  0  0  0
  -26.7088  -32.5556   23.1171 H   0  0  0  0  0  0
  -25.0036  -33.9793   25.0481 H   0  0  0  0  0  0
  -22.6841  -31.3091   21.4131 H   0  0  0  0  0  0
  -23.3740  -35.9664   23.3315 H   0  0  0  0  0  0
  -24.3582  -36.8922   22.2051 H   0  0  0  0  0  0
  -23.7244  -37.6537   23.6641 H   0  0  0  0  0  0
  -26.0275  -31.6121   20.5900 H   0  0  0  0  0  0
  -26.8122  -30.9006   21.9732 H   0  0  0  0  0  0
  -28.0959  -29.1412   21.1433 H   0  0  0  0  0  0
  -26.0667  -25.9852   19.0071 H   0  0  0  0  0  0
  -23.9789  -27.2877   19.0449 H   0  0  0  0  0  0
  -23.7074  -30.5968   19.4045 H   0  0  0  0  0  0
  -22.7283  -29.2401   19.8733 H   0  0  0  0  0  0
  -25.1281  -36.1993   25.0835 H   0  0  0  0  0  0
  -20.9948  -28.3218   24.1451 H   0  0  0  0  0  0
  -20.5663  -26.2261   23.3604 H   0  0  0  0  0  0
  -21.6630  -26.7446   22.1211 H   0  0  0  0  0  0
  -19.6901  -25.6304   21.1228 H   0  0  0  0  0  0
  -19.6681  -27.3211   20.6757 H   0  0  0  0  0  0
  -17.4190  -26.6677   21.4024 H   0  0  0  0  0  0
  -18.0316  -26.0057   22.9014 H   0  0  0  0  0  0
  -19.7923  -30.7246   24.2301 H   0  0  0  0  0  0
  -17.5007  -31.6265   24.5166 H   0  0  0  0  0  0
  -15.5342  -30.2999   23.7631 H   0  0  0  0  0  0
  -15.8658  -28.0831   22.7046 H   0  0  0  0  0  0
  -24.5905  -30.7055   25.7813 H   0  0  0  0  0  0
  -24.8950  -32.2849   26.4952 H   0  0  0  0  0  0
  -25.8109  -30.8841   27.0210 H   0  0  0  0  0  0
  -26.2819  -29.6814   24.1131 H   0  0  0  0  0  0
  -27.4096  -29.7278   25.4497 H   0  0  0  0  0  0
  -27.8636  -30.4382   23.9172 H   0  0  0  0  0  0
  -27.2661  -33.3595   26.2096 H   0  0  0  0  0  0
  -28.3826  -32.6914   25.0280 H   0  0  0  0  0  0
  -28.0745  -31.8413   26.5347 H   0  0  0  0  0  0
  -28.2610  -38.0104   24.7506 H   0  0  0  0  0  0
  -28.1071  -36.2636   24.6296 H   0  0  0  0  0  0
  -27.2301  -37.1471   25.8869 H   0  0  0  0  0  0
  -20.9274  -29.8752   21.6971 H   0  0  0  0  0  0
  -26.0192  -38.2882   24.1400 H   0  0  0  0  0  0
  -29.6610  -15.8312   18.1115 H   0  0  0  0  0  0
  -29.3361  -23.9882   21.6992 H   0  0  0  0  0  0
  -28.9824  -25.5753   22.3646 H   0  0  0  0  0  0
  -30.3405  -25.3704   21.2646 H   0  0  0  0  0  0
  -28.2679  -25.0990   18.1390 H   0  0  0  0  0  0
  -29.8852  -24.9404   18.7564 H   0  0  0  0  0  0
  -28.1453  -20.2847   20.0463 H   0  0  0  0  0  0
  -29.6721  -20.3879   20.9034 H   0  0  0  0  0  0
  -29.3013  -20.7709   17.8722 H   0  0  0  0  0  0
  -30.8592  -20.7045   18.6610 H   0  0  0  0  0  0
  -27.3963  -25.0047   20.5533 H   0  0  0  0  0  0
  -29.1965  -15.2059   21.5967 H   0  0  0  0  0  0
  -30.6300  -22.8844   19.2066 H   0  0  0  0  0  0
  1 25  1  0  0  0
  1 30  2  0  0  0
  1 82  1  0  0  0
  2  3  1  0  0  0
  2 25  1  0  0  0
  2 86  1  0  0  0
  2 87  1  0  0  0
  3  4  1  0  0  0
  3 88  1  0  0  0
  3 89  1  0  0  0
  4  5  1  0  0  0
  4 90  1  0  0  0
  4 91  1  0  0  0
  5  6  1  0  0  0
  5 26  1  0  0  0
  5 92  1  0  0  0
  6 25  1  0  0  0
  6 93  1  0  0  0
  6 94  1  0  0  0
  7  8  2  0  0  0
  7 26  1  0  0  0
  7 29  1  0  0  0
  8  9  1  0  0  0
  8 22  1  0  0  0
  9 10  1  0  0  0
  9 27  2  0  0  0
 10 11  2  0  0  0
 10 15  1  0  0  0
 11 12  1  0  0  0
 11 95  1  0  0  0
 12 13  2  0  0  0
 12 96  1  0  0  0
 13 14  1  0  0  0
 13 31  1  0  0  0
 14 15  2  0  0  0
 14 97  1  0  0  0
 15 98  1  0  0  0
 16 17  2  0  0  0
 16 21  1  0  0  0
 16 31  1  0  0  0
 17 18  1  0  0  0
 17 99  1  0  0  0
 18 19  2  0  0  0
 18100  1  0  0  0
 19 20  1  0  0  0
 19 24  1  0  0  0
 20 21  2  0  0  0
 20101  1  0  0  0
 21 23  1  0  0  0
 22 28  1  0  0  0
 22 32  2  0  0  0
 26 27  1  0  0  0
 28102  1  0  0  0
 28103  1  0  0  0
 29104  1  0  0  0
 29105  1  0  0  0
 33 34  1  0  0  0
 33 66  1  0  0  0
 33 70  2  0  0  0
 34 36  1  0  0  0
 34 59  1  0  0  0
 34106  1  0  0  0
 35 44  2  0  0  0
 35 45  1  0  0  0
 35 68  1  0  0  0
 36 56  1  0  0  0
 36107  1  0  0  0
 37 39  1  0  0  0
 37 47  1  0  0  0
 37 66  1  0  0  0
 37108  1  0  0  0
 38 43  2  0  0  0
 38 46  1  0  0  0
 38 47  1  0  0  0
 39 64  1  0  0  0
 39 67  2  0  0  0
 40 52  1  0  0  0
 40 53  2  0  0  0
 40 58  1  0  0  0
 41109  1  0  0  0
 41110  1  0  0  0
 41111  1  0  0  0
 41 48  1  0  0  0
 42 43  1  0  0  0
 42 66  1  0  0  0
 42112  1  0  0  0
 42113  1  0  0  0
 43 44  1  0  0  0
 44114  1  0  0  0
 45 46  2  0  0  0
 45115  1  0  0  0
 46116  1  0  0  0
 47117  1  0  0  0
 47118  1  0  0  0
 48 56  1  0  0  0
 48 65  1  0  0  0
 48119  1  0  0  0
 49 50  1  0  0  0
 49 53  1  0  0  0
 49 64  1  0  0  0
 49120  1  0  0  0
 50 51  1  0  0  0
 50121  1  0  0  0
 50122  1  0  0  0
 51 52  1  0  0  0
 51123  1  0  0  0
 51124  1  0  0  0
 52125  1  0  0  0
 52126  1  0  0  0
 53 54  1  0  0  0
 54 55  2  0  0  0
 54127  1  0  0  0
 55 57  1  0  0  0
 55128  1  0  0  0
 56 69  2  0  0  0
 57 58  2  0  0  0
 57129  1  0  0  0
 58130  1  0  0  0
 59 60  1  0  0  0
 59 61  1  0  0  0
 59 62  1  0  0  0
 60131  1  0  0  0
 60132  1  0  0  0
 60133  1  0  0  0
 61134  1  0  0  0
 61135  1  0  0  0
 61136  1  0  0  0
 62137  1  0  0  0
 62138  1  0  0  0
 62139  1  0  0  0
 63 65  1  0  0  0
 63140  1  0  0  0
 63141  1  0  0  0
 63142  1  0  0  0
 64143  1  0  0  0
 65144  1  0  0  0
 68 79  1  0  0  0
 71 72  1  0  0  0
 71 73  2  0  0  0
 71145  1  0  0  0
 72 80  2  0  0  0
 72 82  1  0  0  0
 73 81  1  0  0  0
 73 85  1  0  0  0
 74 76  1  0  0  0
 74 83  1  0  0  0
 74 84  2  0  0  0
 75146  1  0  0  0
 75147  1  0  0  0
 75148  1  0  0  0
 75 79  1  0  0  0
 76 79  1  0  0  0
 76149  1  0  0  0
 76150  1  0  0  0
 77 78  1  0  0  0
 77 81  1  0  0  0
 77151  1  0  0  0
 77152  1  0  0  0
 78 83  1  0  0  0
 78153  1  0  0  0
 78154  1  0  0  0
 79155  1  0  0  0
 80 81  1  0  0  0
 82156  1  0  0  0
 83157  1  0  0  0
M  ISO  4   1 100  68 101  79 101  82 100
M  END
> <chiral flag>
0

> <version>
0

> <s_m_source_file>
/data/baiqing/PycharmProjects/Reinvent-master-3.2/result/LINK_invent/BTK/process_docking_weight1_custom_product_contain_oxygen_bond_distance_aromatic_linkinvent_7_9_3/rearranged_h_0186.sdf

> <i_m_source_file_index>
70

> <r_mmod_Potential_Energy-OPLS-2005>
-128.679656982422

> <r_mmod_Stretch_Energy-OPLS-2005>
31.58180809021

> <r_mmod_Bend_Energy-OPLS-2005>
101.432220458984

> <r_mmod_Torsional_Energy-OPLS-2005>
253.512542724609

> <r_mmod_Improper_Torsional_Energy-OPLS-2005>
7.2248969078064

> <r_mmod_Van_der_Waal_Energy-OPLS-2005>
129.064849853516

> <r_mmod_Electrostatic_Energy-OPLS-2005>
-423.028503417969

> <r_mmod_Solvation_Energy-OPLS-2005>
-239.237869262695

> <b_mmod_Minimization_Converged-OPLS-2005>
0

> <r_mmod_RMS_Derivative-OPLS-2005>
0.556448757648468

$$$$
71
                    3D
 Structure written by MMmdl.
158166  0  0  1  0            999 V2000
  -30.5238  -14.9403   20.4311 C   0  0  0  0  0  0
  -30.4459  -12.5765   19.5057 C   0  0  0  0  0  0
  -29.5277  -12.5365   18.2602 C   0  0  0  0  0  0
  -28.0582  -12.3213   18.6699 C   0  0  0  0  0  0
  -27.6333  -13.2477   19.8385 C   0  0  2  0  0  0
  -28.6723  -13.2621   20.9793 C   0  0  0  0  0  0
  -25.2486  -13.8215   20.5699 C   0  0  0  0  0  0
  -24.1797  -13.0439   20.9211 C   0  0  0  0  0  0
  -24.6405  -11.6923   20.8730 C   0  0  0  0  0  0
  -23.9085  -10.4296   21.0395 C   0  0  0  0  0  0
  -24.3633   -9.4214   21.9178 C   0  0  0  0  0  0
  -23.6303   -8.2251   22.0749 C   0  0  0  0  0  0
  -22.4285   -8.0283   21.3542 C   0  0  0  0  0  0
  -21.9923   -9.0258   20.4647 C   0  0  0  0  0  0
  -22.7252  -10.2136   20.3051 C   0  0  0  0  0  0
  -21.6857   -6.0740   22.5282 C   0  0  0  0  0  0
  -21.4014   -6.5639   23.8216 C   0  0  0  0  0  0
  -21.3664   -5.6791   24.9180 C   0  0  0  0  0  0
  -21.6047   -4.3054   24.7227 C   0  0  0  0  0  0
  -21.8821   -3.8147   23.4345 C   0  0  0  0  0  0
  -21.9194   -4.6968   22.3405 C   0  0  0  0  0  0
  -22.7819  -13.5209   21.1876 C   0  0  0  0  0  0
  -22.1658   -4.2154   21.0982 F   0  0  0  0  0  0
  -21.5637   -3.4535   25.7738 F   0  0  0  0  0  0
  -29.9595  -13.6653   20.4010 N   0  0  0  0  0  0
  -26.2906  -12.9445   20.3220 N   0  0  0  0  0  0
  -25.9338  -11.6571   20.5710 N   0  0  0  0  0  0
  -22.0469  -12.8201   22.0437 N   0  0  0  0  0  0
  -25.4173  -15.1947   20.4151 N   0  0  0  0  0  0
  -31.7143  -15.0127   20.1055 O   0  0  0  0  0  0
  -21.6646   -6.8880   21.4240 O   0  0  0  0  0  0
  -22.3502  -14.5512   20.6721 O   0  0  0  0  0  0
  -24.6435  -31.8439   23.1885 C   0  0  0  0  0  0
  -25.9208  -32.4695   23.8275 C   0  0  1  0  0  0
  -27.2170  -27.1340   20.1545 C   0  0  0  0  0  0
  -25.5955  -33.8503   24.2189 N   0  0  0  0  0  0
  -23.4474  -30.4636   21.5343 C   0  0  2  0  0  0
  -24.8974  -28.8888   20.1135 C   0  0  0  0  0  0
  -22.7567  -29.4548   22.4861 C   0  0  0  0  0  0
  -18.0305  -28.1395   22.8477 C   0  0  0  0  0  0
  -24.1493  -36.7254   23.2642 C   0  0  0  0  0  0
  -26.0039  -30.7173   21.3884 C   0  0  0  0  0  0
  -26.0756  -29.3275   20.7314 C   0  0  0  0  0  0
  -27.2381  -28.4674   20.7328 C   0  0  0  0  0  0
  -26.0153  -26.8014   19.4914 C   0  0  0  0  0  0
  -24.8803  -27.6394   19.4771 C   0  0  0  0  0  0
  -23.6745  -29.7918   20.1544 C   0  0  0  0  0  0
  -25.4127  -36.3031   24.0314 C   0  0  1  0  0  0
  -20.5916  -28.3722   23.1235 C   0  0  2  0  0  0
  -20.6789  -26.9425   22.5405 C   0  0  0  0  0  0
  -19.5763  -26.6381   21.5214 C   0  0  0  0  0  0
  -18.1943  -26.7934   22.1623 C   0  0  0  0  0  0
  -19.1561  -28.8876   23.2850 C   0  0  0  0  0  0
  -18.9476  -30.1472   23.8877 C   0  0  0  0  0  0
  -17.6473  -30.6592   24.0558 C   0  0  0  0  0  0
  -25.9077  -34.9408   23.5060 C   0  0  0  0  0  0
  -16.5364  -29.9084   23.6336 C   0  0  0  0  0  0
  -16.7289  -28.6502   23.0359 C   0  0  0  0  0  0
  -26.4529  -31.6563   25.0717 C   0  0  0  0  0  0
  -25.3711  -31.3755   26.1411 C   0  0  0  0  0  0
  -27.0389  -30.2954   24.6304 C   0  0  0  0  0  0
  -27.6060  -32.4329   25.7503 C   0  0  0  0  0  0
  -27.5578  -37.1783   24.8463 C   0  0  0  0  0  0
  -21.4257  -29.3050   22.3609 N   0  0  0  0  0  0
  -26.4287  -37.3746   23.9407 N   0  0  0  0  0  0
  -24.7182  -31.0293   22.0923 N   0  0  0  0  0  0
  -23.4211  -28.8097   23.3012 O   0  0  0  0  0  0
  -28.2703  -26.1450   20.1901 O   0  0  0  0  0  0
  -26.5664  -34.8905   22.4640 O   0  0  0  0  0  0
  -23.5554  -32.1320   23.7103 O   0  0  0  0  0  0
  -28.8067  -17.9327   17.8033 C   0  0  0  0  0  0
  -30.3213  -17.4257   16.1967 C   0  0  0  0  0  0
  -29.9221  -17.7718   18.5949 C   0  0  0  0  0  0
  -29.2437  -19.2964   20.5564 C   0  0  0  0  0  0
  -28.6092  -21.7226   20.5959 C   0  0  0  0  0  0
  -27.7833  -24.7098   22.0538 C   0  0  0  0  0  0
  -29.7059  -16.3540   20.7586 C   0  0  0  0  0  0
  -30.0110  -17.8779   20.0921 C   0  0  1  0  0  0
  -28.9604  -23.2921   20.1638 C   0  0  2  0  0  0
  -27.9895  -24.6418   20.5307 C   0  0  2  0  0  0
  -29.0449  -17.7355   16.4390 N   0  0  0  0  0  0
  -29.4385  -20.5811   20.1601 N   0  0  0  0  0  0
  -29.2472  -23.2843   18.7197 N   0  3  0  0  0  0
  -27.6016  -21.5650   21.2826 O   0  0  0  0  0  0
  -31.3249  -17.3597   17.6343 S   0  0  0  0  0  0
  -31.4808  -12.7320   19.1985 H   0  0  0  0  0  0
  -30.4321  -11.6186   20.0271 H   0  0  0  0  0  0
  -29.8465  -11.7475   17.5782 H   0  0  0  0  0  0
  -29.6213  -13.4740   17.7098 H   0  0  0  0  0  0
  -27.9504  -11.2784   18.9692 H   0  0  0  0  0  0
  -27.3983  -12.4606   17.8124 H   0  0  0  0  0  0
  -27.6001  -14.2524   19.4159 H   0  0  0  0  0  0
  -28.7482  -12.2824   21.4529 H   0  0  0  0  0  0
  -28.3721  -13.9617   21.7613 H   0  0  0  0  0  0
  -25.2777   -9.5690   22.4758 H   0  0  0  0  0  0
  -24.0015   -7.4641   22.7463 H   0  0  0  0  0  0
  -21.0854   -8.8774   19.8955 H   0  0  0  0  0  0
  -22.3700  -10.9675   19.6165 H   0  0  0  0  0  0
  -21.1995   -7.6145   23.9719 H   0  0  0  0  0  0
  -21.1488   -6.0523   25.9084 H   0  0  0  0  0  0
  -22.0592   -2.7610   23.2847 H   0  0  0  0  0  0
  -22.4075  -11.9865   22.4840 H   0  0  0  0  0  0
  -21.1084  -13.1223   22.2627 H   0  0  0  0  0  0
  -24.6516  -15.8485   20.5333 H   0  0  0  0  0  0
  -26.2701  -15.6355   20.0971 H   0  0  0  0  0  0
  -26.7273  -32.5303   23.1004 H   0  0  0  0  0  0
  -25.0072  -33.9618   25.0315 H   0  0  0  0  0  0
  -22.7500  -31.2897   21.3791 H   0  0  0  0  0  0
  -23.3762  -35.9578   23.3287 H   0  0  0  0  0  0
  -24.3578  -36.8906   22.2059 H   0  0  0  0  0  0
  -23.7242  -37.6444   23.6692 H   0  0  0  0  0  0
  -26.1594  -31.4713   20.6158 H   0  0  0  0  0  0
  -26.8741  -30.7678   22.0314 H   0  0  0  0  0  0
  -28.1374  -28.8006   21.2317 H   0  0  0  0  0  0
  -25.9268  -25.8560   18.9782 H   0  0  0  0  0  0
  -23.9840  -27.3027   18.9747 H   0  0  0  0  0  0
  -23.8121  -30.5658   19.3983 H   0  0  0  0  0  0
  -22.7893  -29.2339   19.8437 H   0  0  0  0  0  0
  -25.1317  -36.1856   25.0806 H   0  0  0  0  0  0
  -21.0009  -28.3312   24.1357 H   0  0  0  0  0  0
  -20.5677  -26.2338   23.3626 H   0  0  0  0  0  0
  -21.6654  -26.7429   22.1205 H   0  0  0  0  0  0
  -19.6923  -25.6285   21.1260 H   0  0  0  0  0  0
  -19.6700  -27.3176   20.6731 H   0  0  0  0  0  0
  -17.4214  -26.6679   21.4026 H   0  0  0  0  0  0
  -18.0343  -26.0080   22.9022 H   0  0  0  0  0  0
  -19.7952  -30.7292   24.2239 H   0  0  0  0  0  0
  -17.5026  -31.6271   24.5160 H   0  0  0  0  0  0
  -15.5363  -30.2980   23.7670 H   0  0  0  0  0  0
  -15.8689  -28.0811   22.7090 H   0  0  0  0  0  0
  -24.5891  -30.7107   25.7725 H   0  0  0  0  0  0
  -24.8902  -32.2938   26.4789 H   0  0  0  0  0  0
  -25.7988  -30.8953   27.0220 H   0  0  0  0  0  0
  -26.3004  -29.6678   24.1301 H   0  0  0  0  0  0
  -27.3982  -29.7256   25.4884 H   0  0  0  0  0  0
  -27.8925  -30.4182   23.9634 H   0  0  0  0  0  0
  -27.2653  -33.3642   26.2040 H   0  0  0  0  0  0
  -28.3895  -32.6869   25.0349 H   0  0  0  0  0  0
  -28.0707  -31.8483   26.5454 H   0  0  0  0  0  0
  -28.2582  -38.0092   24.7517 H   0  0  0  0  0  0
  -28.1086  -36.2621   24.6279 H   0  0  0  0  0  0
  -27.2294  -37.1418   25.8865 H   0  0  0  0  0  0
  -20.9467  -29.8764   21.6788 H   0  0  0  0  0  0
  -26.0152  -38.2810   24.1419 H   0  0  0  0  0  0
  -27.8051  -18.1813   18.1278 H   0  0  0  0  0  0
  -30.6732  -17.2373   15.1914 H   0  0  0  0  0  0
  -28.4558  -19.0774   21.2831 H   0  0  0  0  0  0
  -27.4417  -23.7658   22.4716 H   0  0  0  0  0  0
  -27.0366  -25.4566   22.3237 H   0  0  0  0  0  0
  -28.7124  -24.9771   22.5564 H   0  0  0  0  0  0
  -28.6557  -16.1386   20.5670 H   0  0  0  0  0  0
  -29.7700  -16.4670   21.8407 H   0  0  0  0  0  0
  -31.0589  -18.0617   20.3317 H   0  0  0  0  0  0
  -29.9175  -23.4857   20.6493 H   0  0  0  0  0  0
  -27.0222  -24.3930   20.0999 H   0  0  0  0  0  0
  -28.4096  -23.1320   18.1861 H   0  0  0  0  0  0
  -29.8856  -22.5334   18.5197 H   0  0  0  0  0  0
  -29.6627  -24.1528   18.4313 H   0  0  0  0  0  0
  1 25  1  0  0  0
  1 30  2  0  0  0
  1 77  1  0  0  0
  2  3  1  0  0  0
  2 25  1  0  0  0
  2 86  1  0  0  0
  2 87  1  0  0  0
  3  4  1  0  0  0
  3 88  1  0  0  0
  3 89  1  0  0  0
  4  5  1  0  0  0
  4 90  1  0  0  0
  4 91  1  0  0  0
  5  6  1  0  0  0
  5 26  1  0  0  0
  5 92  1  0  0  0
  6 25  1  0  0  0
  6 93  1  0  0  0
  6 94  1  0  0  0
  7  8  2  0  0  0
  7 26  1  0  0  0
  7 29  1  0  0  0
  8  9  1  0  0  0
  8 22  1  0  0  0
  9 10  1  0  0  0
  9 27  2  0  0  0
 10 11  2  0  0  0
 10 15  1  0  0  0
 11 12  1  0  0  0
 11 95  1  0  0  0
 12 13  2  0  0  0
 12 96  1  0  0  0
 13 14  1  0  0  0
 13 31  1  0  0  0
 14 15  2  0  0  0
 14 97  1  0  0  0
 15 98  1  0  0  0
 16 17  2  0  0  0
 16 21  1  0  0  0
 16 31  1  0  0  0
 17 18  1  0  0  0
 17 99  1  0  0  0
 18 19  2  0  0  0
 18100  1  0  0  0
 19 20  1  0  0  0
 19 24  1  0  0  0
 20 21  2  0  0  0
 20101  1  0  0  0
 21 23  1  0  0  0
 22 28  1  0  0  0
 22 32  2  0  0  0
 26 27  1  0  0  0
 28102  1  0  0  0
 28103  1  0  0  0
 29104  1  0  0  0
 29105  1  0  0  0
 33 34  1  0  0  0
 33 66  1  0  0  0
 33 70  2  0  0  0
 34 36  1  0  0  0
 34 59  1  0  0  0
 34106  1  0  0  0
 35 44  2  0  0  0
 35 45  1  0  0  0
 35 68  1  0  0  0
 36 56  1  0  0  0
 36107  1  0  0  0
 37 39  1  0  0  0
 37 47  1  0  0  0
 37 66  1  0  0  0
 37108  1  0  0  0
 38 43  2  0  0  0
 38 46  1  0  0  0
 38 47  1  0  0  0
 39 64  1  0  0  0
 39 67  2  0  0  0
 40 52  1  0  0  0
 40 53  2  0  0  0
 40 58  1  0  0  0
 41109  1  0  0  0
 41110  1  0  0  0
 41111  1  0  0  0
 41 48  1  0  0  0
 42 43  1  0  0  0
 42 66  1  0  0  0
 42112  1  0  0  0
 42113  1  0  0  0
 43 44  1  0  0  0
 44114  1  0  0  0
 45 46  2  0  0  0
 45115  1  0  0  0
 46116  1  0  0  0
 47117  1  0  0  0
 47118  1  0  0  0
 48 56  1  0  0  0
 48 65  1  0  0  0
 48119  1  0  0  0
 49 50  1  0  0  0
 49 53  1  0  0  0
 49 64  1  0  0  0
 49120  1  0  0  0
 50 51  1  0  0  0
 50121  1  0  0  0
 50122  1  0  0  0
 51 52  1  0  0  0
 51123  1  0  0  0
 51124  1  0  0  0
 52125  1  0  0  0
 52126  1  0  0  0
 53 54  1  0  0  0
 54 55  2  0  0  0
 54127  1  0  0  0
 55 57  1  0  0  0
 55128  1  0  0  0
 56 69  2  0  0  0
 57 58  2  0  0  0
 57129  1  0  0  0
 58130  1  0  0  0
 59 60  1  0  0  0
 59 61  1  0  0  0
 59 62  1  0  0  0
 60131  1  0  0  0
 60132  1  0  0  0
 60133  1  0  0  0
 61134  1  0  0  0
 61135  1  0  0  0
 61136  1  0  0  0
 62137  1  0  0  0
 62138  1  0  0  0
 62139  1  0  0  0
 63 65  1  0  0  0
 63140  1  0  0  0
 63141  1  0  0  0
 63142  1  0  0  0
 64143  1  0  0  0
 65144  1  0  0  0
 68 80  1  0  0  0
 71 73  2  0  0  0
 71 81  1  0  0  0
 71145  1  0  0  0
 72 81  2  0  0  0
 72 85  1  0  0  0
 72146  1  0  0  0
 73 78  1  0  0  0
 73 85  1  0  0  0
 74 78  1  0  0  0
 74 82  2  0  0  0
 74147  1  0  0  0
 75 79  1  0  0  0
 75 82  1  0  0  0
 75 84  2  0  0  0
 76148  1  0  0  0
 76149  1  0  0  0
 76150  1  0  0  0
 76 80  1  0  0  0
 77151  1  0  0  0
 77152  1  0  0  0
 77 78  1  0  0  0
 78153  1  0  0  0
 79 80  1  0  0  0
 79 83  1  0  0  0
 79154  1  0  0  0
 80155  1  0  0  0
 83156  1  0  0  0
 83157  1  0  0  0
 83158  1  0  0  0
M  CHG  1  83   1
M  ISO  4   1 100  68 101  77 100  80 101
M  END
> <chiral flag>
0

> <version>
0

> <s_m_source_file>
/data/baiqing/PycharmProjects/Reinvent-master-3.2/result/LINK_invent/BTK/process_docking_weight1_custom_product_contain_oxygen_bond_distance_aromatic_linkinvent_7_9_3/rearranged_h_0186.sdf

> <i_m_source_file_index>
71

> <r_mmod_Potential_Energy-OPLS-2005>
150.038269042969

> <r_mmod_Stretch_Energy-OPLS-2005>
287.186706542969

> <r_mmod_Bend_Energy-OPLS-2005>
252.313888549805

> <r_mmod_Torsional_Energy-OPLS-2005>
178.299621582031

> <r_mmod_Improper_Torsional_Energy-OPLS-2005>
2.40502548217773

> <r_mmod_Van_der_Waal_Energy-OPLS-2005>
103.54320526123

> <r_mmod_Electrostatic_Energy-OPLS-2005>
-398.058166503906

> <r_mmod_Solvation_Energy-OPLS-2005>
-462.992614746094

> <b_mmod_Minimization_Converged-OPLS-2005>
0

> <r_mmod_RMS_Derivative-OPLS-2005>
0.934583604335785

$$$$
72
                    3D
 Structure written by MMmdl.
156164  0  0  1  0            999 V2000
  -30.6556  -14.6677   20.4434 C   0  0  0  0  0  0
  -30.4194  -12.3999   19.4734 C   0  0  0  0  0  0
  -29.5056  -12.4927   18.2337 C   0  0  0  0  0  0
  -28.0302  -12.3312   18.6457 C   0  0  0  0  0  0
  -27.6429  -13.2296   19.8521 C   0  0  2  0  0  0
  -28.6873  -13.1559   20.9882 C   0  0  0  0  0  0
  -25.2505  -13.8200   20.5688 C   0  0  0  0  0  0
  -24.1796  -13.0443   20.9204 C   0  0  0  0  0  0
  -24.6390  -11.6920   20.8747 C   0  0  0  0  0  0
  -23.9066  -10.4293   21.0400 C   0  0  0  0  0  0
  -24.3618   -9.4207   21.9177 C   0  0  0  0  0  0
  -23.6289   -8.2243   22.0748 C   0  0  0  0  0  0
  -22.4269   -8.0282   21.3540 C   0  0  0  0  0  0
  -21.9903   -9.0256   20.4643 C   0  0  0  0  0  0
  -22.7236  -10.2133   20.3054 C   0  0  0  0  0  0
  -21.6855   -6.0731   22.5278 C   0  0  0  0  0  0
  -21.4020   -6.5637   23.8211 C   0  0  0  0  0  0
  -21.3661   -5.6790   24.9170 C   0  0  0  0  0  0
  -21.6046   -4.3052   24.7223 C   0  0  0  0  0  0
  -21.8819   -3.8140   23.4347 C   0  0  0  0  0  0
  -21.9192   -4.6956   22.3402 C   0  0  0  0  0  0
  -22.7815  -13.5223   21.1864 C   0  0  0  0  0  0
  -22.1660   -4.2143   21.0979 F   0  0  0  0  0  0
  -21.5625   -3.4538   25.7736 F   0  0  0  0  0  0
  -29.9961  -13.4670   20.4049 N   0  0  0  0  0  0
  -26.2937  -12.9408   20.3286 N   0  0  0  0  0  0
  -25.9322  -11.6553   20.5769 N   0  0  0  0  0  0
  -22.0462  -12.8218   22.0424 N   0  0  0  0  0  0
  -25.4176  -15.1926   20.4098 N   0  0  0  0  0  0
  -31.8544  -14.7231   20.1632 O   0  0  0  0  0  0
  -21.6639   -6.8876   21.4239 O   0  0  0  0  0  0
  -22.3497  -14.5521   20.6702 O   0  0  0  0  0  0
  -24.6265  -31.8588   23.2020 C   0  0  0  0  0  0
  -25.9112  -32.4769   23.8354 C   0  0  1  0  0  0
  -27.2202  -27.3207   20.1244 C   0  0  0  0  0  0
  -25.5930  -33.8570   24.2281 N   0  0  0  0  0  0
  -23.4206  -30.4811   21.5447 C   0  0  2  0  0  0
  -24.8686  -28.9339   20.1131 C   0  0  0  0  0  0
  -22.7477  -29.4611   22.4940 C   0  0  0  0  0  0
  -18.0288  -28.1393   22.8482 C   0  0  0  0  0  0
  -24.1486  -36.7283   23.2636 C   0  0  0  0  0  0
  -25.9610  -30.7907   21.3726 C   0  0  0  0  0  0
  -26.0374  -29.4173   20.7171 C   0  0  0  0  0  0
  -27.2219  -28.6218   20.7123 C   0  0  0  0  0  0
  -26.0353  -26.8858   19.4989 C   0  0  0  0  0  0
  -24.8681  -27.6729   19.4955 C   0  0  0  0  0  0
  -23.6367  -29.8152   20.1604 C   0  0  0  0  0  0
  -25.4108  -36.3069   24.0327 C   0  0  1  0  0  0
  -20.5885  -28.3690   23.1286 C   0  0  2  0  0  0
  -20.6774  -26.9413   22.5414 C   0  0  0  0  0  0
  -19.5753  -26.6385   21.5213 C   0  0  0  0  0  0
  -18.1932  -26.7936   22.1621 C   0  0  0  0  0  0
  -19.1538  -28.8860   23.2880 C   0  0  0  0  0  0
  -18.9463  -30.1460   23.8898 C   0  0  0  0  0  0
  -17.6460  -30.6585   24.0570 C   0  0  0  0  0  0
  -25.9052  -34.9443   23.5103 C   0  0  0  0  0  0
  -16.5352  -29.9085   23.6331 C   0  0  0  0  0  0
  -16.7274  -28.6509   23.0342 C   0  0  0  0  0  0
  -26.4501  -31.6573   25.0718 C   0  0  0  0  0  0
  -25.3739  -31.3734   26.1458 C   0  0  0  0  0  0
  -27.0324  -30.2986   24.6167 C   0  0  0  0  0  0
  -27.6078  -32.4291   25.7475 C   0  0  0  0  0  0
  -27.5576  -37.1790   24.8460 C   0  0  0  0  0  0
  -21.4192  -29.3031   22.3678 N   0  0  0  0  0  0
  -26.4285  -37.3762   23.9412 N   0  0  0  0  0  0
  -24.6878  -31.0601   22.0973 N   0  0  0  0  0  0
  -23.4195  -28.8162   23.3031 O   0  0  0  0  0  0
  -28.3106  -26.4444   20.1334 O   0  0  0  0  0  0
  -26.5620  -34.8913   22.4670 O   0  0  0  0  0  0
  -23.5428  -32.1396   23.7350 O   0  0  0  0  0  0
  -30.0527  -20.6571   21.6658 C   0  0  0  0  0  0
  -28.6038  -20.5223   19.7762 C   0  0  0  0  0  0
  -29.1699  -21.3417   20.7904 C   0  0  0  0  0  0
  -30.3889  -19.2883   21.4702 C   0  0  0  0  0  0
  -29.8110  -18.5624   20.3990 C   0  0  0  0  0  0
  -28.5419  -23.8193   20.2434 C   0  0  0  0  0  0
  -30.4545  -17.0913   18.3986 C   0  0  0  0  0  0
  -28.8951  -25.4404   22.2444 C   0  0  0  0  0  0
  -30.3916  -17.1582   19.9428 C   0  0  2  0  0  0
  -28.1374  -25.2039   20.9276 C   0  0  1  0  0  0
  -28.8923  -19.1890   19.6006 N   0  0  0  0  0  0
  -28.8435  -22.7519   21.0531 N   0  0  0  0  0  0
  -29.9140  -15.8281   20.4906 N   0  0  0  0  0  0
  -28.5497  -23.7149   19.0147 O   0  0  0  0  0  0
  -31.3055  -18.7026   22.2792 F   0  0  0  0  0  0
  -31.4662  -12.4907   19.1775 H   0  0  0  0  0  0
  -30.3285  -11.4218   19.9499 H   0  0  0  0  0  0
  -29.7759  -11.7271   17.5050 H   0  0  0  0  0  0
  -29.6483  -13.4541   17.7380 H   0  0  0  0  0  0
  -27.8780  -11.2825   18.9038 H   0  0  0  0  0  0
  -27.3758  -12.5320   17.7970 H   0  0  0  0  0  0
  -27.6417  -14.2520   19.4754 H   0  0  0  0  0  0
  -28.7003  -12.1643   21.4433 H   0  0  0  0  0  0
  -28.4407  -13.8582   21.7863 H   0  0  0  0  0  0
  -25.2763   -9.5674   22.4753 H   0  0  0  0  0  0
  -23.9996   -7.4631   22.7463 H   0  0  0  0  0  0
  -21.0835   -8.8775   19.8948 H   0  0  0  0  0  0
  -22.3694  -10.9670   19.6164 H   0  0  0  0  0  0
  -21.2022   -7.6149   23.9715 H   0  0  0  0  0  0
  -21.1482   -6.0518   25.9073 H   0  0  0  0  0  0
  -22.0598   -2.7601   23.2850 H   0  0  0  0  0  0
  -22.4093  -11.9901   22.4838 H   0  0  0  0  0  0
  -21.1077  -13.1245   22.2629 H   0  0  0  0  0  0
  -24.6446  -15.8403   20.5156 H   0  0  0  0  0  0
  -26.2585  -15.6364   20.0634 H   0  0  0  0  0  0
  -26.7185  -32.5447   23.1107 H   0  0  0  0  0  0
  -25.0078  -33.9712   25.0427 H   0  0  0  0  0  0
  -22.7139  -31.3009   21.4007 H   0  0  0  0  0  0
  -23.3749  -35.9614   23.3287 H   0  0  0  0  0  0
  -24.3580  -36.8914   22.2051 H   0  0  0  0  0  0
  -23.7242  -37.6482   23.6671 H   0  0  0  0  0  0
  -26.0896  -31.5532   20.6029 H   0  0  0  0  0  0
  -26.8423  -30.8419   22.0007 H   0  0  0  0  0  0
  -28.1211  -28.9847   21.1906 H   0  0  0  0  0  0
  -26.0092  -25.9135   19.0270 H   0  0  0  0  0  0
  -23.9721  -27.2948   19.0227 H   0  0  0  0  0  0
  -23.7596  -30.5925   19.4049 H   0  0  0  0  0  0
  -22.7562  -29.2462   19.8562 H   0  0  0  0  0  0
  -25.1286  -36.1913   25.0819 H   0  0  0  0  0  0
  -20.9972  -28.3269   24.1407 H   0  0  0  0  0  0
  -20.5667  -26.2300   23.3613 H   0  0  0  0  0  0
  -21.6648  -26.7436   22.1216 H   0  0  0  0  0  0
  -19.6913  -25.6296   21.1240 H   0  0  0  0  0  0
  -19.6695  -27.3200   20.6749 H   0  0  0  0  0  0
  -17.4200  -26.6681   21.4027 H   0  0  0  0  0  0
  -18.0331  -26.0082   22.9019 H   0  0  0  0  0  0
  -19.7937  -30.7285   24.2258 H   0  0  0  0  0  0
  -17.5010  -31.6262   24.5179 H   0  0  0  0  0  0
  -15.5352  -30.2982   23.7660 H   0  0  0  0  0  0
  -15.8675  -28.0830   22.7050 H   0  0  0  0  0  0
  -24.5898  -30.7092   25.7801 H   0  0  0  0  0  0
  -24.8957  -32.2916   26.4881 H   0  0  0  0  0  0
  -25.8064  -30.8912   27.0232 H   0  0  0  0  0  0
  -26.2886  -29.6739   24.1207 H   0  0  0  0  0  0
  -27.4033  -29.7239   25.4663 H   0  0  0  0  0  0
  -27.8756  -30.4255   23.9371 H   0  0  0  0  0  0
  -27.2718  -33.3603   26.2045 H   0  0  0  0  0  0
  -28.3894  -32.6818   25.0297 H   0  0  0  0  0  0
  -28.0739  -31.8414   26.5392 H   0  0  0  0  0  0
  -28.2591  -38.0088   24.7505 H   0  0  0  0  0  0
  -28.1074  -36.2623   24.6279 H   0  0  0  0  0  0
  -27.2303  -37.1427   25.8865 H   0  0  0  0  0  0
  -20.9375  -29.8747   21.6880 H   0  0  0  0  0  0
  -26.0162  -38.2830   24.1435 H   0  0  0  0  0  0
  -30.5121  -21.1916   22.4840 H   0  0  0  0  0  0
  -27.8770  -20.9363   19.0926 H   0  0  0  0  0  0
  -30.9693  -17.9619   17.9912 H   0  0  0  0  0  0
  -29.4551  -17.0668   17.9631 H   0  0  0  0  0  0
  -30.9883  -16.2110   18.0411 H   0  0  0  0  0  0
  -28.7071  -24.6486   22.9688 H   0  0  0  0  0  0
  -28.5777  -26.3751   22.7067 H   0  0  0  0  0  0
  -29.9708  -25.5014   22.0760 H   0  0  0  0  0  0
  -31.4338  -17.2244   20.2615 H   0  0  0  0  0  0
  -27.0834  -25.0872   21.1867 H   0  0  0  0  0  0
  -28.9045  -23.0212   22.0260 H   0  0  0  0  0  0
  -28.9322  -15.7520   20.7027 H   0  0  0  0  0  0
  1 25  1  0  0  0
  1 30  2  0  0  0
  1 83  1  0  0  0
  2  3  1  0  0  0
  2 25  1  0  0  0
  2 86  1  0  0  0
  2 87  1  0  0  0
  3  4  1  0  0  0
  3 88  1  0  0  0
  3 89  1  0  0  0
  4  5  1  0  0  0
  4 90  1  0  0  0
  4 91  1  0  0  0
  5  6  1  0  0  0
  5 26  1  0  0  0
  5 92  1  0  0  0
  6 25  1  0  0  0
  6 93  1  0  0  0
  6 94  1  0  0  0
  7  8  2  0  0  0
  7 26  1  0  0  0
  7 29  1  0  0  0
  8  9  1  0  0  0
  8 22  1  0  0  0
  9 10  1  0  0  0
  9 27  2  0  0  0
 10 11  2  0  0  0
 10 15  1  0  0  0
 11 12  1  0  0  0
 11 95  1  0  0  0
 12 13  2  0  0  0
 12 96  1  0  0  0
 13 14  1  0  0  0
 13 31  1  0  0  0
 14 15  2  0  0  0
 14 97  1  0  0  0
 15 98  1  0  0  0
 16 17  2  0  0  0
 16 21  1  0  0  0
 16 31  1  0  0  0
 17 18  1  0  0  0
 17 99  1  0  0  0
 18 19  2  0  0  0
 18100  1  0  0  0
 19 20  1  0  0  0
 19 24  1  0  0  0
 20 21  2  0  0  0
 20101  1  0  0  0
 21 23  1  0  0  0
 22 28  1  0  0  0
 22 32  2  0  0  0
 26 27  1  0  0  0
 28102  1  0  0  0
 28103  1  0  0  0
 29104  1  0  0  0
 29105  1  0  0  0
 33 34  1  0  0  0
 33 66  1  0  0  0
 33 70  2  0  0  0
 34 36  1  0  0  0
 34 59  1  0  0  0
 34106  1  0  0  0
 35 44  2  0  0  0
 35 45  1  0  0  0
 35 68  1  0  0  0
 36 56  1  0  0  0
 36107  1  0  0  0
 37 39  1  0  0  0
 37 47  1  0  0  0
 37 66  1  0  0  0
 37108  1  0  0  0
 38 43  2  0  0  0
 38 46  1  0  0  0
 38 47  1  0  0  0
 39 64  1  0  0  0
 39 67  2  0  0  0
 40 52  1  0  0  0
 40 53  2  0  0  0
 40 58  1  0  0  0
 41109  1  0  0  0
 41110  1  0  0  0
 41111  1  0  0  0
 41 48  1  0  0  0
 42 43  1  0  0  0
 42 66  1  0  0  0
 42112  1  0  0  0
 42113  1  0  0  0
 43 44  1  0  0  0
 44114  1  0  0  0
 45 46  2  0  0  0
 45115  1  0  0  0
 46116  1  0  0  0
 47117  1  0  0  0
 47118  1  0  0  0
 48 56  1  0  0  0
 48 65  1  0  0  0
 48119  1  0  0  0
 49 50  1  0  0  0
 49 53  1  0  0  0
 49 64  1  0  0  0
 49120  1  0  0  0
 50 51  1  0  0  0
 50121  1  0  0  0
 50122  1  0  0  0
 51 52  1  0  0  0
 51123  1  0  0  0
 51124  1  0  0  0
 52125  1  0  0  0
 52126  1  0  0  0
 53 54  1  0  0  0
 54 55  2  0  0  0
 54127  1  0  0  0
 55 57  1  0  0  0
 55128  1  0  0  0
 56 69  2  0  0  0
 57 58  2  0  0  0
 57129  1  0  0  0
 58130  1  0  0  0
 59 60  1  0  0  0
 59 61  1  0  0  0
 59 62  1  0  0  0
 60131  1  0  0  0
 60132  1  0  0  0
 60133  1  0  0  0
 61134  1  0  0  0
 61135  1  0  0  0
 61136  1  0  0  0
 62137  1  0  0  0
 62138  1  0  0  0
 62139  1  0  0  0
 63 65  1  0  0  0
 63140  1  0  0  0
 63141  1  0  0  0
 63142  1  0  0  0
 64143  1  0  0  0
 65144  1  0  0  0
 68 80  1  0  0  0
 71 73  2  0  0  0
 71 74  1  0  0  0
 71145  1  0  0  0
 72 73  1  0  0  0
 72 81  2  0  0  0
 72146  1  0  0  0
 73 82  1  0  0  0
 74 75  2  0  0  0
 74 85  1  0  0  0
 75 79  1  0  0  0
 75 81  1  0  0  0
 76 80  1  0  0  0
 76 82  1  0  0  0
 76 84  2  0  0  0
 77147  1  0  0  0
 77148  1  0  0  0
 77149  1  0  0  0
 77 79  1  0  0  0
 78150  1  0  0  0
 78151  1  0  0  0
 78152  1  0  0  0
 78 80  1  0  0  0
 79 83  1  0  0  0
 79153  1  0  0  0
 80154  1  0  0  0
 82155  1  0  0  0
 83156  1  0  0  0
M  ISO  4   1 100  68 101  80 101  83 100
M  END
> <chiral flag>
0

> <version>
0

> <s_m_source_file>
/data/baiqing/PycharmProjects/Reinvent-master-3.2/result/LINK_invent/BTK/process_docking_weight1_custom_product_contain_oxygen_bond_distance_aromatic_linkinvent_7_9_3/rearranged_h_0186.sdf

> <i_m_source_file_index>
72

> <r_mmod_Potential_Energy-OPLS-2005>
-79.472038269043

> <r_mmod_Stretch_Energy-OPLS-2005>
86.3347930908203

> <r_mmod_Bend_Energy-OPLS-2005>
149.14892578125

> <r_mmod_Torsional_Energy-OPLS-2005>
263.3740234375

> <r_mmod_Improper_Torsional_Energy-OPLS-2005>
9.82711791992188

> <r_mmod_Van_der_Waal_Energy-OPLS-2005>
141.646072387695

> <r_mmod_Electrostatic_Energy-OPLS-2005>
-549.070556640625

> <r_mmod_Solvation_Energy-OPLS-2005>
-239.844207763672

> <b_mmod_Minimization_Converged-OPLS-2005>
0

> <r_mmod_RMS_Derivative-OPLS-2005>
1.17824077606201

$$$$
73
                    3D
 Structure written by MMmdl.
156164  0  0  1  0            999 V2000
  -30.6089  -14.6736   20.4972 C   0  0  0  0  0  0
  -30.4358  -12.4086   19.4677 C   0  0  0  0  0  0
  -29.5103  -12.5061   18.2342 C   0  0  0  0  0  0
  -28.0325  -12.3382   18.6418 C   0  0  0  0  0  0
  -27.6480  -13.2213   19.8574 C   0  0  2  0  0  0
  -28.6898  -13.1066   20.9911 C   0  0  0  0  0  0
  -25.2539  -13.8181   20.5694 C   0  0  0  0  0  0
  -24.1810  -13.0442   20.9190 C   0  0  0  0  0  0
  -24.6384  -11.6912   20.8735 C   0  0  0  0  0  0
  -23.9058  -10.4291   21.0401 C   0  0  0  0  0  0
  -24.3613   -9.4210   21.9183 C   0  0  0  0  0  0
  -23.6289   -8.2244   22.0753 C   0  0  0  0  0  0
  -22.4269   -8.0278   21.3542 C   0  0  0  0  0  0
  -21.9903   -9.0252   20.4643 C   0  0  0  0  0  0
  -22.7229  -10.2132   20.3052 C   0  0  0  0  0  0
  -21.6854   -6.0729   22.5274 C   0  0  0  0  0  0
  -21.4017   -6.5634   23.8207 C   0  0  0  0  0  0
  -21.3661   -5.6790   24.9172 C   0  0  0  0  0  0
  -21.6046   -4.3051   24.7223 C   0  0  0  0  0  0
  -21.8821   -3.8140   23.4343 C   0  0  0  0  0  0
  -21.9193   -4.6955   22.3400 C   0  0  0  0  0  0
  -22.7827  -13.5221   21.1857 C   0  0  0  0  0  0
  -22.1660   -4.2141   21.0975 F   0  0  0  0  0  0
  -21.5632   -3.4535   25.7737 F   0  0  0  0  0  0
  -30.0036  -13.4431   20.4309 N   0  0  0  0  0  0
  -26.2965  -12.9369   20.3302 N   0  0  0  0  0  0
  -25.9313  -11.6520   20.5746 N   0  0  0  0  0  0
  -22.0477  -12.8214   22.0416 N   0  0  0  0  0  0
  -25.4254  -15.1907   20.4113 N   0  0  0  0  0  0
  -31.7697  -14.8051   20.0973 O   0  0  0  0  0  0
  -21.6636   -6.8872   21.4238 O   0  0  0  0  0  0
  -22.3506  -14.5528   20.6702 O   0  0  0  0  0  0
  -24.6258  -31.8585   23.2015 C   0  0  0  0  0  0
  -25.9109  -32.4761   23.8347 C   0  0  1  0  0  0
  -27.2228  -27.3085   20.1129 C   0  0  0  0  0  0
  -25.5928  -33.8566   24.2266 N   0  0  0  0  0  0
  -23.4191  -30.4810   21.5450 C   0  0  2  0  0  0
  -24.8643  -28.9330   20.1072 C   0  0  0  0  0  0
  -22.7461  -29.4616   22.4942 C   0  0  0  0  0  0
  -18.0289  -28.1406   22.8532 C   0  0  0  0  0  0
  -24.1498  -36.7280   23.2637 C   0  0  0  0  0  0
  -25.9591  -30.7852   21.3737 C   0  0  0  0  0  0
  -26.0313  -29.4129   20.7130 C   0  0  0  0  0  0
  -27.2092  -28.6098   20.7080 C   0  0  0  0  0  0
  -26.0328  -26.8825   19.4830 C   0  0  0  0  0  0
  -24.8673  -27.6733   19.4865 C   0  0  0  0  0  0
  -23.6311  -29.8123   20.1608 C   0  0  0  0  0  0
  -25.4123  -36.3066   24.0321 C   0  0  1  0  0  0
  -20.5891  -28.3694   23.1271 C   0  0  2  0  0  0
  -20.6771  -26.9438   22.5354 C   0  0  0  0  0  0
  -19.5709  -26.6415   21.5203 C   0  0  0  0  0  0
  -18.1910  -26.7948   22.1669 C   0  0  0  0  0  0
  -19.1554  -28.8871   23.2890 C   0  0  0  0  0  0
  -18.9497  -30.1498   23.8862 C   0  0  0  0  0  0
  -17.6500  -30.6621   24.0582 C   0  0  0  0  0  0
  -25.9050  -34.9439   23.5087 C   0  0  0  0  0  0
  -16.5374  -29.9111   23.6397 C   0  0  0  0  0  0
  -16.7282  -28.6525   23.0422 C   0  0  0  0  0  0
  -26.4501  -31.6581   25.0724 C   0  0  0  0  0  0
  -25.3740  -31.3709   26.1451 C   0  0  0  0  0  0
  -27.0347  -30.3004   24.6190 C   0  0  0  0  0  0
  -27.6054  -32.4319   25.7500 C   0  0  0  0  0  0
  -27.5579  -37.1794   24.8464 C   0  0  0  0  0  0
  -21.4177  -29.3043   22.3659 N   0  0  0  0  0  0
  -26.4299  -37.3759   23.9397 N   0  0  0  0  0  0
  -24.6870  -31.0584   22.0969 N   0  0  0  0  0  0
  -23.4177  -28.8175   23.3043 O   0  0  0  0  0  0
  -28.3615  -26.4890   20.1880 O   0  0  0  0  0  0
  -26.5621  -34.8904   22.4652 O   0  0  0  0  0  0
  -23.5418  -32.1402   23.7331 O   0  0  0  0  0  0
  -28.5332  -20.6467   21.9006 C   0  0  0  0  0  0
  -28.9184  -21.0225   20.6331 C   0  0  0  0  0  0
  -29.5463  -18.7120   20.6863 C   0  0  0  0  0  0
  -29.0013  -24.0581   21.9214 C   0  0  0  0  0  0
  -28.7910  -22.4249   19.9154 C   0  0  0  0  0  0
  -30.2037  -17.3715   20.2340 C   0  0  0  0  0  0
  -29.8263  -15.9853   20.9450 C   0  0  0  0  0  0
  -28.4341  -25.0918   19.6730 C   0  0  0  0  0  0
  -28.2343  -23.7883   20.6081 C   0  0  2  0  0  0
  -26.7101  -23.6396   20.8905 C   0  0  0  0  0  0
  -29.4947  -19.8812   19.9758 N   0  0  0  0  0  0
  -26.2321  -24.7198   21.5060 F   0  0  0  0  0  0
  -26.0394  -23.4804   19.7481 F   0  0  0  0  0  0
  -26.4318  -22.5996   21.6699 F   0  0  0  0  0  0
  -28.8653  -18.9631   22.2855 S   0  0  0  0  0  0
  -31.4775  -12.5282   19.1679 H   0  0  0  0  0  0
  -30.3696  -11.4191   19.9232 H   0  0  0  0  0  0
  -29.7818  -11.7495   17.4972 H   0  0  0  0  0  0
  -29.6479  -13.4722   17.7471 H   0  0  0  0  0  0
  -27.8758  -11.2866   18.8860 H   0  0  0  0  0  0
  -27.3788  -12.5537   17.7956 H   0  0  0  0  0  0
  -27.6561  -14.2494   19.4973 H   0  0  0  0  0  0
  -28.7042  -12.0954   21.3998 H   0  0  0  0  0  0
  -28.4344  -13.7623   21.8249 H   0  0  0  0  0  0
  -25.2756   -9.5682   22.4760 H   0  0  0  0  0  0
  -23.9997   -7.4632   22.7469 H   0  0  0  0  0  0
  -21.0839   -8.8760   19.8951 H   0  0  0  0  0  0
  -22.3681  -10.9667   19.6158 H   0  0  0  0  0  0
  -21.2013   -7.6142   23.9709 H   0  0  0  0  0  0
  -21.1482   -6.0519   25.9076 H   0  0  0  0  0  0
  -22.0600   -2.7599   23.2844 H   0  0  0  0  0  0
  -22.4092  -11.9871   22.4805 H   0  0  0  0  0  0
  -21.1097  -13.1238   22.2634 H   0  0  0  0  0  0
  -24.6616  -15.8481   20.5233 H   0  0  0  0  0  0
  -26.2800  -15.6284   20.0906 H   0  0  0  0  0  0
  -26.7165  -32.5425   23.1083 H   0  0  0  0  0  0
  -25.0074  -33.9712   25.0409 H   0  0  0  0  0  0
  -22.7149  -31.3025   21.4018 H   0  0  0  0  0  0
  -23.3752  -35.9618   23.3305 H   0  0  0  0  0  0
  -24.3578  -36.8899   22.2047 H   0  0  0  0  0  0
  -23.7269  -37.6487   23.6663 H   0  0  0  0  0  0
  -26.0937  -31.5525   20.6099 H   0  0  0  0  0  0
  -26.8360  -30.8291   22.0080 H   0  0  0  0  0  0
  -28.1036  -28.9732   21.1946 H   0  0  0  0  0  0
  -25.9611  -25.9176   19.0084 H   0  0  0  0  0  0
  -23.9702  -27.2944   19.0178 H   0  0  0  0  0  0
  -23.7390  -30.5871   19.4007 H   0  0  0  0  0  0
  -22.7523  -29.2349   19.8674 H   0  0  0  0  0  0
  -25.1315  -36.1902   25.0815 H   0  0  0  0  0  0
  -21.0002  -28.3237   24.1391 H   0  0  0  0  0  0
  -20.5757  -26.2281   23.3515 H   0  0  0  0  0  0
  -21.6624  -26.7550   22.1074 H   0  0  0  0  0  0
  -19.6839  -25.6335   21.1205 H   0  0  0  0  0  0
  -19.6606  -27.3250   20.6749 H   0  0  0  0  0  0
  -17.4145  -26.6687   21.4109 H   0  0  0  0  0  0
  -18.0324  -26.0115   22.9089 H   0  0  0  0  0  0
  -19.8000  -30.7340   24.2149 H   0  0  0  0  0  0
  -17.5092  -31.6309   24.5187 H   0  0  0  0  0  0
  -15.5382  -30.3019   23.7765 H   0  0  0  0  0  0
  -15.8678  -28.0839   22.7152 H   0  0  0  0  0  0
  -24.5928  -30.7042   25.7779 H   0  0  0  0  0  0
  -24.8921  -32.2869   26.4882 H   0  0  0  0  0  0
  -25.8079  -30.8891   27.0225 H   0  0  0  0  0  0
  -26.2921  -29.6745   24.1223 H   0  0  0  0  0  0
  -27.4047  -29.7272   25.4704 H   0  0  0  0  0  0
  -27.8796  -30.4281   23.9413 H   0  0  0  0  0  0
  -27.2658  -33.3619   26.2076 H   0  0  0  0  0  0
  -28.3873  -32.6877   25.0335 H   0  0  0  0  0  0
  -28.0715  -31.8447   26.5425 H   0  0  0  0  0  0
  -28.2602  -38.0087   24.7504 H   0  0  0  0  0  0
  -28.1079  -36.2618   24.6313 H   0  0  0  0  0  0
  -27.2290  -37.1464   25.8866 H   0  0  0  0  0  0
  -20.9342  -29.8743   21.6855 H   0  0  0  0  0  0
  -26.0176  -38.2834   24.1386 H   0  0  0  0  0  0
  -28.0598  -21.2471   22.6636 H   0  0  0  0  0  0
  -30.0724  -24.1511   21.7453 H   0  0  0  0  0  0
  -28.8562  -23.2743   22.6595 H   0  0  0  0  0  0
  -28.6676  -24.9863   22.3853 H   0  0  0  0  0  0
  -28.2034  -22.2751   19.0097 H   0  0  0  0  0  0
  -29.7825  -22.6687   19.5355 H   0  0  0  0  0  0
  -31.2820  -17.5087   20.3115 H   0  0  0  0  0  0
  -30.0060  -17.2611   19.1679 H   0  0  0  0  0  0
  -28.7569  -15.8307   20.8156 H   0  0  0  0  0  0
  -29.9852  -16.0871   22.0182 H   0  0  0  0  0  0
  -27.8559  -24.9882   18.7569 H   0  0  0  0  0  0
  -29.4584  -25.0311   19.3054 H   0  0  0  0  0  0
  1 25  1  0  0  0
  1 30  2  0  0  0
  1 77  1  0  0  0
  2  3  1  0  0  0
  2 25  1  0  0  0
  2 86  1  0  0  0
  2 87  1  0  0  0
  3  4  1  0  0  0
  3 88  1  0  0  0
  3 89  1  0  0  0
  4  5  1  0  0  0
  4 90  1  0  0  0
  4 91  1  0  0  0
  5  6  1  0  0  0
  5 26  1  0  0  0
  5 92  1  0  0  0
  6 25  1  0  0  0
  6 93  1  0  0  0
  6 94  1  0  0  0
  7  8  2  0  0  0
  7 26  1  0  0  0
  7 29  1  0  0  0
  8  9  1  0  0  0
  8 22  1  0  0  0
  9 10  1  0  0  0
  9 27  2  0  0  0
 10 11  2  0  0  0
 10 15  1  0  0  0
 11 12  1  0  0  0
 11 95  1  0  0  0
 12 13  2  0  0  0
 12 96  1  0  0  0
 13 14  1  0  0  0
 13 31  1  0  0  0
 14 15  2  0  0  0
 14 97  1  0  0  0
 15 98  1  0  0  0
 16 17  2  0  0  0
 16 21  1  0  0  0
 16 31  1  0  0  0
 17 18  1  0  0  0
 17 99  1  0  0  0
 18 19  2  0  0  0
 18100  1  0  0  0
 19 20  1  0  0  0
 19 24  1  0  0  0
 20 21  2  0  0  0
 20101  1  0  0  0
 21 23  1  0  0  0
 22 28  1  0  0  0
 22 32  2  0  0  0
 26 27  1  0  0  0
 28102  1  0  0  0
 28103  1  0  0  0
 29104  1  0  0  0
 29105  1  0  0  0
 33 34  1  0  0  0
 33 66  1  0  0  0
 33 70  2  0  0  0
 34 36  1  0  0  0
 34 59  1  0  0  0
 34106  1  0  0  0
 35 44  2  0  0  0
 35 45  1  0  0  0
 35 68  1  0  0  0
 36 56  1  0  0  0
 36107  1  0  0  0
 37 39  1  0  0  0
 37 47  1  0  0  0
 37 66  1  0  0  0
 37108  1  0  0  0
 38 43  2  0  0  0
 38 46  1  0  0  0
 38 47  1  0  0  0
 39 64  1  0  0  0
 39 67  2  0  0  0
 40 52  1  0  0  0
 40 53  2  0  0  0
 40 58  1  0  0  0
 41109  1  0  0  0
 41110  1  0  0  0
 41111  1  0  0  0
 41 48  1  0  0  0
 42 43  1  0  0  0
 42 66  1  0  0  0
 42112  1  0  0  0
 42113  1  0  0  0
 43 44  1  0  0  0
 44114  1  0  0  0
 45 46  2  0  0  0
 45115  1  0  0  0
 46116  1  0  0  0
 47117  1  0  0  0
 47118  1  0  0  0
 48 56  1  0  0  0
 48 65  1  0  0  0
 48119  1  0  0  0
 49 50  1  0  0  0
 49 53  1  0  0  0
 49 64  1  0  0  0
 49120  1  0  0  0
 50 51  1  0  0  0
 50121  1  0  0  0
 50122  1  0  0  0
 51 52  1  0  0  0
 51123  1  0  0  0
 51124  1  0  0  0
 52125  1  0  0  0
 52126  1  0  0  0
 53 54  1  0  0  0
 54 55  2  0  0  0
 54127  1  0  0  0
 55 57  1  0  0  0
 55128  1  0  0  0
 56 69  2  0  0  0
 57 58  2  0  0  0
 57129  1  0  0  0
 58130  1  0  0  0
 59 60  1  0  0  0
 59 61  1  0  0  0
 59 62  1  0  0  0
 60131  1  0  0  0
 60132  1  0  0  0
 60133  1  0  0  0
 61134  1  0  0  0
 61135  1  0  0  0
 61136  1  0  0  0
 62137  1  0  0  0
 62138  1  0  0  0
 62139  1  0  0  0
 63 65  1  0  0  0
 63140  1  0  0  0
 63141  1  0  0  0
 63142  1  0  0  0
 64143  1  0  0  0
 65144  1  0  0  0
 68 78  1  0  0  0
 71 72  2  0  0  0
 71 85  1  0  0  0
 71145  1  0  0  0
 72 75  1  0  0  0
 72 81  1  0  0  0
 73 76  1  0  0  0
 73 81  2  0  0  0
 73 85  1  0  0  0
 74146  1  0  0  0
 74147  1  0  0  0
 74148  1  0  0  0
 74 79  1  0  0  0
 75 79  1  0  0  0
 75149  1  0  0  0
 75150  1  0  0  0
 76 77  1  0  0  0
 76151  1  0  0  0
 76152  1  0  0  0
 77153  1  0  0  0
 77154  1  0  0  0
 78 79  1  0  0  0
 78155  1  0  0  0
 78156  1  0  0  0
 79 80  1  0  0  0
 80 82  1  0  0  0
 80 83  1  0  0  0
 80 84  1  0  0  0
M  ISO  4   1 100  68 101  77 100  78 101
M  END
> <chiral flag>
0

> <version>
0

> <s_m_source_file>
/data/baiqing/PycharmProjects/Reinvent-master-3.2/result/LINK_invent/BTK/process_docking_weight1_custom_product_contain_oxygen_bond_distance_aromatic_linkinvent_7_9_3/rearranged_h_0186.sdf

> <i_m_source_file_index>
73

> <r_mmod_Potential_Energy-OPLS-2005>
27.1403675079346

> <r_mmod_Stretch_Energy-OPLS-2005>
101.335350036621

> <r_mmod_Bend_Energy-OPLS-2005>
168.263107299805

> <r_mmod_Torsional_Energy-OPLS-2005>
172.994033813477

> <r_mmod_Improper_Torsional_Energy-OPLS-2005>
3.10705399513245

> <r_mmod_Van_der_Waal_Energy-OPLS-2005>
118.888526916504

> <r_mmod_Electrostatic_Energy-OPLS-2005>
-391.490234375

> <r_mmod_Solvation_Energy-OPLS-2005>
-201.059219360352

> <b_mmod_Minimization_Converged-OPLS-2005>
0

> <r_mmod_RMS_Derivative-OPLS-2005>
1.67300450801849

$$$$
74
                    3D
 Structure written by MMmdl.
145152  0  0  1  0            999 V2000
  -30.1217  -16.1126   20.3036 C   0  0  0  0  0  0
  -30.3813  -13.4550   19.5165 C   0  0  0  0  0  0
  -29.5631  -12.7839   18.3603 C   0  0  0  0  0  0
  -28.1811  -12.3201   18.8360 C   0  0  0  0  0  0
  -27.5813  -13.3569   19.8038 C   0  0  2  0  0  0
  -28.5688  -13.8943   20.8800 C   0  0  0  0  0  0
  -25.2263  -13.8352   20.5877 C   0  0  0  0  0  0
  -24.1696  -13.0438   20.9322 C   0  0  0  0  0  0
  -24.6464  -11.6971   20.8760 C   0  0  0  0  0  0
  -23.9170  -10.4298   21.0376 C   0  0  0  0  0  0
  -24.3685   -9.4210   21.9168 C   0  0  0  0  0  0
  -23.6331   -8.2257   22.0751 C   0  0  0  0  0  0
  -22.4310   -8.0299   21.3544 C   0  0  0  0  0  0
  -21.9967   -9.0277   20.4640 C   0  0  0  0  0  0
  -22.7325  -10.2141   20.3036 C   0  0  0  0  0  0
  -21.6865   -6.0749   22.5278 C   0  0  0  0  0  0
  -21.4024   -6.5647   23.8214 C   0  0  0  0  0  0
  -21.3664   -5.6797   24.9173 C   0  0  0  0  0  0
  -21.6044   -4.3059   24.7222 C   0  0  0  0  0  0
  -21.8816   -3.8154   23.4340 C   0  0  0  0  0  0
  -21.9195   -4.6974   22.3399 C   0  0  0  0  0  0
  -22.7695  -13.5131   21.1936 C   0  0  0  0  0  0
  -22.1661   -4.2159   21.0977 F   0  0  0  0  0  0
  -21.5626   -3.4540   25.7732 F   0  0  0  0  0  0
  -29.6459  -14.6717   20.1743 N   0  0  0  0  0  0
  -26.2775  -12.9781   20.3320 N   0  0  0  0  0  0
  -25.9434  -11.6793   20.5678 N   0  0  0  0  0  0
  -22.0370  -12.8098   22.0484 N   0  0  0  0  0  0
  -25.3782  -15.2103   20.4330 N   0  0  0  0  0  0
  -31.3686  -15.9495   20.2946 O   0  0  0  0  0  0
  -21.6657   -6.8903   21.4245 O   0  0  0  0  0  0
  -22.3358  -14.5424   20.6767 O   0  0  0  0  0  0
  -24.7155  -31.7618   23.1241 C   0  0  0  0  0  0
  -25.9576  -32.4281   23.7910 C   0  0  1  0  0  0
  -27.2396  -26.3677   20.2562 C   0  0  0  0  0  0
  -25.6015  -33.8124   24.1763 N   0  0  0  0  0  0
  -23.5563  -30.3485   21.4873 C   0  0  2  0  0  0
  -25.0149  -28.6150   20.1379 C   0  0  0  0  0  0
  -22.7907  -29.4115   22.4635 C   0  0  0  0  0  0
  -18.0360  -28.1438   22.8437 C   0  0  0  0  0  0
  -24.1498  -36.7075   23.2661 C   0  0  0  0  0  0
  -26.1501  -30.3852   21.4378 C   0  0  0  0  0  0
  -26.2119  -28.9102   20.8000 C   0  0  0  0  0  0
  -27.2956  -27.8292   20.8093 C   0  0  0  0  0  0
  -26.0022  -26.3657   19.5355 C   0  0  0  0  0  0
  -24.9684  -27.3709   19.4802 C   0  0  0  0  0  0
  -23.8287  -29.6125   20.1395 C   0  0  0  0  0  0
  -25.4161  -36.2787   24.0257 C   0  0  1  0  0  0
  -20.6009  -28.3813   23.1084 C   0  0  2  0  0  0
  -20.6809  -26.9442   22.5409 C   0  0  0  0  0  0
  -19.5790  -26.6360   21.5220 C   0  0  0  0  0  0
  -18.1973  -26.7958   22.1615 C   0  0  0  0  0  0
  -19.1633  -28.8957   23.2730 C   0  0  0  0  0  0
  -18.9531  -30.1532   23.8790 C   0  0  0  0  0  0
  -17.6517  -30.6611   24.0543 C   0  0  0  0  0  0
  -25.9160  -34.9186   23.4873 C   0  0  0  0  0  0
  -16.5405  -29.9085   23.6358 C   0  0  0  0  0  0
  -16.7337  -28.6511   23.0371 C   0  0  0  0  0  0
  -26.4647  -31.6454   25.0668 C   0  0  0  0  0  0
  -25.3626  -31.3862   26.1221 C   0  0  0  0  0  0
  -27.0630  -30.2758   24.6800 C   0  0  0  0  0  0
  -27.6033  -32.4391   25.7505 C   0  0  0  0  0  0
  -27.5556  -37.1693   24.8466 C   0  0  0  0  0  0
  -21.4525  -29.2996   22.3372 N   0  0  0  0  0  0
  -26.4260  -37.3584   23.9406 N   0  0  0  0  0  0
  -24.8351  -30.8732   22.0681 N   0  0  0  0  0  0
  -23.4194  -28.7770   23.3133 O   0  0  0  0  0  0
  -28.1959  -25.0228   20.2202 O   0  0  0  0  0  0
  -26.5849  -34.8828   22.4524 O   0  0  0  0  0  0
  -23.6103  -32.0847   23.5985 O   0  0  0  0  0  0
  -29.5163  -19.2545   20.4205 C   0  0  0  0  0  0
  -29.5387  -21.3893   18.7265 C   0  0  0  0  0  0
  -27.2899  -20.6249   19.4938 C   0  0  0  0  0  0
  -28.2750  -23.1106   20.5333 C   0  0  0  0  0  0
  -28.6833  -21.0721   19.9665 C   0  0  0  0  0  0
  -29.3783  -17.6074   20.2276 N   0  0  0  0  0  0
  -30.5499  -19.4909   21.0491 O   0  0  0  0  0  0
  -31.3238  -13.7975   19.0878 H   0  0  0  0  0  0
  -30.6770  -12.7145   20.2622 H   0  0  0  0  0  0
  -30.1172  -11.9473   17.9327 H   0  0  0  0  0  0
  -29.4369  -13.5096   17.5555 H   0  0  0  0  0  0
  -28.2997  -11.3684   19.3553 H   0  0  0  0  0  0
  -27.5174  -12.1354   17.9903 H   0  0  0  0  0  0
  -27.3762  -14.2087   19.1532 H   0  0  0  0  0  0
  -28.9472  -13.0982   21.5235 H   0  0  0  0  0  0
  -28.0474  -14.5851   21.5438 H   0  0  0  0  0  0
  -25.2822   -9.5680   22.4758 H   0  0  0  0  0  0
  -24.0024   -7.4653   22.7484 H   0  0  0  0  0  0
  -21.0893   -8.8812   19.8950 H   0  0  0  0  0  0
  -22.3784  -10.9681   19.6147 H   0  0  0  0  0  0
  -21.2024   -7.6157   23.9721 H   0  0  0  0  0  0
  -21.1486   -6.0525   25.9077 H   0  0  0  0  0  0
  -22.0590   -2.7616   23.2837 H   0  0  0  0  0  0
  -22.4028  -11.9786   22.4890 H   0  0  0  0  0  0
  -21.0968  -13.1072   22.2673 H   0  0  0  0  0  0
  -24.6050  -15.8561   20.5503 H   0  0  0  0  0  0
  -26.2258  -15.6584   20.1118 H   0  0  0  0  0  0
  -26.7693  -32.4679   23.0644 H   0  0  0  0  0  0
  -25.0013  -33.9105   24.9819 H   0  0  0  0  0  0
  -22.9007  -31.1937   21.2674 H   0  0  0  0  0  0
  -23.3786  -35.9374   23.3242 H   0  0  0  0  0  0
  -24.3554  -36.8839   22.2091 H   0  0  0  0  0  0
  -23.7235  -37.6209   23.6819 H   0  0  0  0  0  0
  -26.3835  -31.0842   20.6336 H   0  0  0  0  0  0
  -26.9904  -30.4693   22.1137 H   0  0  0  0  0  0
  -28.2009  -28.0861   21.3410 H   0  0  0  0  0  0
  -25.7839  -25.4527   18.9996 H   0  0  0  0  0  0
  -24.0763  -27.1286   18.9190 H   0  0  0  0  0  0
  -24.0342  -30.3562   19.3688 H   0  0  0  0  0  0
  -22.9265  -29.0965   19.8068 H   0  0  0  0  0  0
  -25.1386  -36.1503   25.0745 H   0  0  0  0  0  0
  -21.0076  -28.3460   24.1217 H   0  0  0  0  0  0
  -20.5644  -26.2446   23.3699 H   0  0  0  0  0  0
  -21.6668  -26.7335   22.1246 H   0  0  0  0  0  0
  -19.6941  -25.6242   21.1319 H   0  0  0  0  0  0
  -19.6743  -27.3112   20.6704 H   0  0  0  0  0  0
  -17.4244  -26.6700   21.4016 H   0  0  0  0  0  0
  -18.0350  -26.0128   22.9035 H   0  0  0  0  0  0
  -19.8007  -30.7373   24.2116 H   0  0  0  0  0  0
  -17.5066  -31.6280   24.5166 H   0  0  0  0  0  0
  -15.5400  -30.2953   23.7743 H   0  0  0  0  0  0
  -15.8738  -28.0793   22.7146 H   0  0  0  0  0  0
  -24.5854  -30.7174   25.7503 H   0  0  0  0  0  0
  -24.8774  -32.3113   26.4344 H   0  0  0  0  0  0
  -25.7725  -30.9215   27.0197 H   0  0  0  0  0  0
  -26.3406  -29.6272   24.1837 H   0  0  0  0  0  0
  -27.3973  -29.7334   25.5654 H   0  0  0  0  0  0
  -27.9416  -30.3810   24.0435 H   0  0  0  0  0  0
  -27.2531  -33.3801   26.1761 H   0  0  0  0  0  0
  -28.4004  -32.6781   25.0453 H   0  0  0  0  0  0
  -28.0525  -31.8743   26.5684 H   0  0  0  0  0  0
  -28.2520  -38.0035   24.7515 H   0  0  0  0  0  0
  -28.1103  -36.2552   24.6293 H   0  0  0  0  0  0
  -27.2268  -37.1319   25.8866 H   0  0  0  0  0  0
  -20.9910  -29.8598   21.6341 H   0  0  0  0  0  0
  -26.0058  -38.2617   24.1424 H   0  0  0  0  0  0
  -29.7438  -20.5032   18.1242 H   0  0  0  0  0  0
  -30.4976  -21.8141   19.0243 H   0  0  0  0  0  0
  -29.0482  -22.1145   18.0770 H   0  0  0  0  0  0
  -27.3176  -19.6662   18.9752 H   0  0  0  0  0  0
  -26.8471  -21.3510   18.8117 H   0  0  0  0  0  0
  -26.6147  -20.5209   20.3431 H   0  0  0  0  0  0
  -28.9121  -23.1574   21.4166 H   0  0  0  0  0  0
  -27.2792  -22.9904   20.9599 H   0  0  0  0  0  0
  -28.4344  -17.4379   19.9143 H   0  0  0  0  0  0
  1 25  1  0  0  0
  1 30  2  0  0  0
  1 76  1  0  0  0
  2  3  1  0  0  0
  2 25  1  0  0  0
  2 78  1  0  0  0
  2 79  1  0  0  0
  3  4  1  0  0  0
  3 80  1  0  0  0
  3 81  1  0  0  0
  4  5  1  0  0  0
  4 82  1  0  0  0
  4 83  1  0  0  0
  5  6  1  0  0  0
  5 26  1  0  0  0
  5 84  1  0  0  0
  6 25  1  0  0  0
  6 85  1  0  0  0
  6 86  1  0  0  0
  7  8  2  0  0  0
  7 26  1  0  0  0
  7 29  1  0  0  0
  8  9  1  0  0  0
  8 22  1  0  0  0
  9 10  1  0  0  0
  9 27  2  0  0  0
 10 11  2  0  0  0
 10 15  1  0  0  0
 11 12  1  0  0  0
 11 87  1  0  0  0
 12 13  2  0  0  0
 12 88  1  0  0  0
 13 14  1  0  0  0
 13 31  1  0  0  0
 14 15  2  0  0  0
 14 89  1  0  0  0
 15 90  1  0  0  0
 16 17  2  0  0  0
 16 21  1  0  0  0
 16 31  1  0  0  0
 17 18  1  0  0  0
 17 91  1  0  0  0
 18 19  2  0  0  0
 18 92  1  0  0  0
 19 20  1  0  0  0
 19 24  1  0  0  0
 20 21  2  0  0  0
 20 93  1  0  0  0
 21 23  1  0  0  0
 22 28  1  0  0  0
 22 32  2  0  0  0
 26 27  1  0  0  0
 28 94  1  0  0  0
 28 95  1  0  0  0
 29 96  1  0  0  0
 29 97  1  0  0  0
 33 34  1  0  0  0
 33 66  1  0  0  0
 33 70  2  0  0  0
 34 36  1  0  0  0
 34 59  1  0  0  0
 34 98  1  0  0  0
 35 44  2  0  0  0
 35 45  1  0  0  0
 35 68  1  0  0  0
 36 56  1  0  0  0
 36 99  1  0  0  0
 37 39  1  0  0  0
 37 47  1  0  0  0
 37 66  1  0  0  0
 37100  1  0  0  0
 38 43  2  0  0  0
 38 46  1  0  0  0
 38 47  1  0  0  0
 39 64  1  0  0  0
 39 67  2  0  0  0
 40 52  1  0  0  0
 40 53  2  0  0  0
 40 58  1  0  0  0
 41101  1  0  0  0
 41102  1  0  0  0
 41103  1  0  0  0
 41 48  1  0  0  0
 42 43  1  0  0  0
 42 66  1  0  0  0
 42104  1  0  0  0
 42105  1  0  0  0
 43 44  1  0  0  0
 44106  1  0  0  0
 45 46  2  0  0  0
 45107  1  0  0  0
 46108  1  0  0  0
 47109  1  0  0  0
 47110  1  0  0  0
 48 56  1  0  0  0
 48 65  1  0  0  0
 48111  1  0  0  0
 49 50  1  0  0  0
 49 53  1  0  0  0
 49 64  1  0  0  0
 49112  1  0  0  0
 50 51  1  0  0  0
 50113  1  0  0  0
 50114  1  0  0  0
 51 52  1  0  0  0
 51115  1  0  0  0
 51116  1  0  0  0
 52117  1  0  0  0
 52118  1  0  0  0
 53 54  1  0  0  0
 54 55  2  0  0  0
 54119  1  0  0  0
 55 57  1  0  0  0
 55120  1  0  0  0
 56 69  2  0  0  0
 57 58  2  0  0  0
 57121  1  0  0  0
 58122  1  0  0  0
 59 60  1  0  0  0
 59 61  1  0  0  0
 59 62  1  0  0  0
 60123  1  0  0  0
 60124  1  0  0  0
 60125  1  0  0  0
 61126  1  0  0  0
 61127  1  0  0  0
 61128  1  0  0  0
 62129  1  0  0  0
 62130  1  0  0  0
 62131  1  0  0  0
 63 65  1  0  0  0
 63132  1  0  0  0
 63133  1  0  0  0
 63134  1  0  0  0
 64135  1  0  0  0
 65136  1  0  0  0
 68 74  1  0  0  0
 71 75  1  0  0  0
 71 76  1  0  0  0
 71 77  2  0  0  0
 72137  1  0  0  0
 72138  1  0  0  0
 72139  1  0  0  0
 72 75  1  0  0  0
 73 75  1  0  0  0
 73140  1  0  0  0
 73141  1  0  0  0
 73142  1  0  0  0
 74 75  1  0  0  0
 74143  1  0  0  0
 74144  1  0  0  0
 76145  1  0  0  0
M  ISO  4   1 100  68 101  74 101  76 100
M  END
> <chiral flag>
0

> <version>
0

> <s_m_source_file>
/data/baiqing/PycharmProjects/Reinvent-master-3.2/result/LINK_invent/BTK/process_docking_weight1_custom_product_contain_oxygen_bond_distance_aromatic_linkinvent_7_9_3/rearranged_h_0186.sdf

> <i_m_source_file_index>
74

> <r_mmod_Potential_Energy-OPLS-2005>
4490.6416015625

> <r_mmod_Stretch_Energy-OPLS-2005>
2041.53674316406

> <r_mmod_Bend_Energy-OPLS-2005>
957.200866699219

> <r_mmod_Torsional_Energy-OPLS-2005>
262.241241455078

> <r_mmod_Improper_Torsional_Energy-OPLS-2005>
6.40943908691406

> <r_mmod_Van_der_Waal_Energy-OPLS-2005>
112.25235748291

> <r_mmod_Electrostatic_Energy-OPLS-2005>
-403.741821289062

> <r_mmod_Solvation_Energy-OPLS-2005>
-231.623168945312

> <b_mmod_Minimization_Converged-OPLS-2005>
0

> <r_mmod_RMS_Derivative-OPLS-2005>
0.224121496081352

$$$$
75
                    3D
 Structure written by MMmdl.
156164  0  0  1  0            999 V2000
  -30.6108  -14.7158   20.4613 C   0  0  0  0  0  0
  -30.4372  -12.4332   19.4691 C   0  0  0  0  0  0
  -29.5145  -12.5120   18.2297 C   0  0  0  0  0  0
  -28.0383  -12.3478   18.6436 C   0  0  0  0  0  0
  -27.6529  -13.2275   19.8639 C   0  0  2  0  0  0
  -28.6989  -13.1202   20.9975 C   0  0  0  0  0  0
  -25.2548  -13.8183   20.5685 C   0  0  0  0  0  0
  -24.1848  -13.0433   20.9203 C   0  0  0  0  0  0
  -24.6428  -11.6909   20.8745 C   0  0  0  0  0  0
  -23.9101  -10.4286   21.0402 C   0  0  0  0  0  0
  -24.3656   -9.4207   21.9184 C   0  0  0  0  0  0
  -23.6331   -8.2239   22.0744 C   0  0  0  0  0  0
  -22.4314   -8.0280   21.3542 C   0  0  0  0  0  0
  -21.9959   -9.0236   20.4631 C   0  0  0  0  0  0
  -22.7279  -10.2119   20.3041 C   0  0  0  0  0  0
  -21.6850   -6.0750   22.5292 C   0  0  0  0  0  0
  -21.4003   -6.5647   23.8226 C   0  0  0  0  0  0
  -21.3666   -5.6801   24.9194 C   0  0  0  0  0  0
  -21.6038   -4.3060   24.7240 C   0  0  0  0  0  0
  -21.8821   -3.8161   23.4361 C   0  0  0  0  0  0
  -21.9189   -4.6978   22.3426 C   0  0  0  0  0  0
  -22.7863  -13.5209   21.1861 C   0  0  0  0  0  0
  -22.1657   -4.2171   21.1005 F   0  0  0  0  0  0
  -21.5650   -3.4547   25.7748 F   0  0  0  0  0  0
  -30.0081  -13.4750   20.4298 N   0  0  0  0  0  0
  -26.2999  -12.9387   20.3318 N   0  0  0  0  0  0
  -25.9372  -11.6543   20.5782 N   0  0  0  0  0  0
  -22.0494  -12.8150   22.0380 N   0  0  0  0  0  0
  -25.4238  -15.1896   20.4101 N   0  0  0  0  0  0
  -31.7595  -14.8529   20.0318 O   0  0  0  0  0  0
  -21.6650   -6.8885   21.4257 O   0  0  0  0  0  0
  -22.3554  -14.5529   20.6724 O   0  0  0  0  0  0
  -24.6253  -31.8594   23.2051 C   0  0  0  0  0  0
  -25.9101  -32.4779   23.8388 C   0  0  1  0  0  0
  -27.2248  -27.2844   20.1297 C   0  0  0  0  0  0
  -25.5954  -33.8589   24.2322 N   0  0  0  0  0  0
  -23.4228  -30.4798   21.5475 C   0  0  2  0  0  0
  -24.8759  -28.9396   20.1086 C   0  0  0  0  0  0
  -22.7502  -29.4579   22.4960 C   0  0  0  0  0  0
  -18.0283  -28.1309   22.8529 C   0  0  0  0  0  0
  -24.1495  -36.7240   23.2639 C   0  0  0  0  0  0
  -25.9679  -30.7798   21.3865 C   0  0  0  0  0  0
  -26.0450  -29.4069   20.7224 C   0  0  0  0  0  0
  -27.2216  -28.5919   20.7222 C   0  0  0  0  0  0
  -26.0331  -26.8883   19.4782 C   0  0  0  0  0  0
  -24.8768  -27.6909   19.4708 C   0  0  0  0  0  0
  -23.6394  -29.8151   20.1628 C   0  0  0  0  0  0
  -25.4128  -36.3071   24.0332 C   0  0  1  0  0  0
  -20.5893  -28.3617   23.1303 C   0  0  2  0  0  0
  -20.6756  -26.9337   22.5405 C   0  0  0  0  0  0
  -19.5720  -26.6337   21.5206 C   0  0  0  0  0  0
  -18.1908  -26.7869   22.1628 C   0  0  0  0  0  0
  -19.1538  -28.8783   23.2914 C   0  0  0  0  0  0
  -18.9455  -30.1396   23.8897 C   0  0  0  0  0  0
  -17.6448  -30.6534   24.0532 C   0  0  0  0  0  0
  -25.9057  -34.9448   23.5109 C   0  0  0  0  0  0
  -16.5341  -29.9006   23.6321 C   0  0  0  0  0  0
  -16.7267  -28.6407   23.0388 C   0  0  0  0  0  0
  -26.4505  -31.6585   25.0750 C   0  0  0  0  0  0
  -25.3741  -31.3662   26.1460 C   0  0  0  0  0  0
  -27.0373  -30.3031   24.6179 C   0  0  0  0  0  0
  -27.6064  -32.4347   25.7519 C   0  0  0  0  0  0
  -27.5585  -37.1785   24.8467 C   0  0  0  0  0  0
  -21.4210  -29.3002   22.3725 N   0  0  0  0  0  0
  -26.4294  -37.3786   23.9415 N   0  0  0  0  0  0
  -24.6898  -31.0574   22.1025 N   0  0  0  0  0  0
  -23.4237  -28.8111   23.3027 O   0  0  0  0  0  0
  -28.3240  -26.3971   20.2044 O   0  0  0  0  0  0
  -26.5611  -34.8910   22.4664 O   0  0  0  0  0  0
  -23.5404  -32.1420   23.7357 O   0  0  0  0  0  0
  -29.4811  -19.5323   20.2803 C   0  0  0  0  0  0
  -28.7399  -19.1385   19.1875 C   0  0  0  0  0  0
  -29.6949  -17.1350   20.3169 C   0  0  0  0  0  0
  -31.2536  -21.3310   20.2897 C   0  0  0  0  0  0
  -29.7877  -21.0199   22.2985 C   0  0  0  0  0  0
  -28.8745  -22.2438   20.2178 C   0  0  0  0  0  0
  -28.0834  -24.9259   20.0226 C   0  0  0  0  0  0
  -29.0785  -23.8134   20.6355 C   0  0  1  0  0  0
  -29.8170  -21.0175   20.7538 C   0  0  0  0  0  0
  -30.0162  -18.3348   20.9063 N   0  0  0  0  0  0
  -29.8731  -15.7932   20.9061 N   0  0  0  0  0  0
  -28.8817  -23.9458   22.0342 O   0  0  0  0  0  0
  -28.0994  -19.9954   18.3559 F   0  0  0  0  0  0
  -28.6813  -17.4043   18.8964 S   0  0  0  0  0  0
  -31.4837  -12.5429   19.1778 H   0  0  0  0  0  0
  -30.3674  -11.4445   19.9266 H   0  0  0  0  0  0
  -29.7897  -11.7404   17.5079 H   0  0  0  0  0  0
  -29.6565  -13.4670   17.7190 H   0  0  0  0  0  0
  -27.8888  -11.2945   18.8854 H   0  0  0  0  0  0
  -27.3806  -12.5590   17.7997 H   0  0  0  0  0  0
  -27.6605  -14.2588   19.5134 H   0  0  0  0  0  0
  -28.7271  -12.1066   21.4019 H   0  0  0  0  0  0
  -28.4352  -13.7704   21.8319 H   0  0  0  0  0  0
  -25.2808   -9.5681   22.4754 H   0  0  0  0  0  0
  -24.0052   -7.4623   22.7448 H   0  0  0  0  0  0
  -21.0899   -8.8742   19.8916 H   0  0  0  0  0  0
  -22.3751  -10.9656   19.6137 H   0  0  0  0  0  0
  -21.1979   -7.6139   23.9749 H   0  0  0  0  0  0
  -21.1490   -6.0518   25.9094 H   0  0  0  0  0  0
  -22.0592   -2.7623   23.2857 H   0  0  0  0  0  0
  -22.4128  -11.9823   22.4779 H   0  0  0  0  0  0
  -21.1071  -13.1093   22.2503 H   0  0  0  0  0  0
  -24.6490  -15.8361   20.5167 H   0  0  0  0  0  0
  -26.2604  -15.6334   20.0569 H   0  0  0  0  0  0
  -26.7162  -32.5454   23.1127 H   0  0  0  0  0  0
  -25.0185  -33.9774   25.0519 H   0  0  0  0  0  0
  -22.7122  -31.2970   21.4030 H   0  0  0  0  0  0
  -23.3814  -35.9509   23.3252 H   0  0  0  0  0  0
  -24.3602  -36.8904   22.2064 H   0  0  0  0  0  0
  -23.7162  -37.6394   23.6678 H   0  0  0  0  0  0
  -26.1096  -31.5540   20.6321 H   0  0  0  0  0  0
  -26.8447  -30.8225   22.0201 H   0  0  0  0  0  0
  -28.1122  -28.9443   21.2243 H   0  0  0  0  0  0
  -25.9643  -25.9324   18.9804 H   0  0  0  0  0  0
  -23.9867  -27.3317   18.9716 H   0  0  0  0  0  0
  -23.7462  -30.5913   19.4055 H   0  0  0  0  0  0
  -22.7643  -29.2351   19.8639 H   0  0  0  0  0  0
  -25.1299  -36.1920   25.0825 H   0  0  0  0  0  0
  -20.9973  -28.3120   24.1429 H   0  0  0  0  0  0
  -20.5627  -26.2201   23.3589 H   0  0  0  0  0  0
  -21.6612  -26.7340   22.1179 H   0  0  0  0  0  0
  -19.6866  -25.6261   21.1180 H   0  0  0  0  0  0
  -19.6625  -27.3191   20.6771 H   0  0  0  0  0  0
  -17.4178  -26.6681   21.4013 H   0  0  0  0  0  0
  -18.0267  -25.9962   22.8967 H   0  0  0  0  0  0
  -19.7933  -30.7225   24.2247 H   0  0  0  0  0  0
  -17.4987  -31.6222   24.5113 H   0  0  0  0  0  0
  -15.5331  -30.2887   23.7640 H   0  0  0  0  0  0
  -15.8677  -28.0687   22.7137 H   0  0  0  0  0  0
  -24.5931  -30.7016   25.7735 H   0  0  0  0  0  0
  -24.8916  -32.2799   26.4954 H   0  0  0  0  0  0
  -25.8074  -30.8767   27.0193 H   0  0  0  0  0  0
  -26.2942  -29.6786   24.1207 H   0  0  0  0  0  0
  -27.4109  -29.7272   25.4657 H   0  0  0  0  0  0
  -27.8795  -30.4371   23.9387 H   0  0  0  0  0  0
  -27.2683  -33.3688   26.2032 H   0  0  0  0  0  0
  -28.3900  -32.6860   25.0348 H   0  0  0  0  0  0
  -28.0695  -31.8512   26.5492 H   0  0  0  0  0  0
  -28.2548  -38.0141   24.7592 H   0  0  0  0  0  0
  -28.1140  -36.2667   24.6195 H   0  0  0  0  0  0
  -27.2302  -37.1287   25.8872 H   0  0  0  0  0  0
  -20.9350  -29.8779   21.7002 H   0  0  0  0  0  0
  -26.0156  -38.2844   24.1469 H   0  0  0  0  0  0
  -31.9683  -20.5947   20.6567 H   0  0  0  0  0  0
  -31.5895  -22.3065   20.6419 H   0  0  0  0  0  0
  -31.3217  -21.3352   19.2007 H   0  0  0  0  0  0
  -30.3639  -20.1972   22.7210 H   0  0  0  0  0  0
  -28.7687  -20.9396   22.6793 H   0  0  0  0  0  0
  -30.2344  -21.9206   22.7142 H   0  0  0  0  0  0
  -28.9451  -22.2280   19.1288 H   0  0  0  0  0  0
  -27.8360  -21.9794   20.4231 H   0  0  0  0  0  0
  -27.0916  -24.6774   20.4044 H   0  0  0  0  0  0
  -28.0365  -24.7614   18.9457 H   0  0  0  0  0  0
  -30.1010  -24.1058   20.3917 H   0  0  0  0  0  0
  -29.0544  -15.4890   21.4070 H   0  0  0  0  0  0
  -29.6651  -23.6317   22.4750 H   0  0  0  0  0  0
  1 25  1  0  0  0
  1 30  2  0  0  0
  1 81  1  0  0  0
  2  3  1  0  0  0
  2 25  1  0  0  0
  2 85  1  0  0  0
  2 86  1  0  0  0
  3  4  1  0  0  0
  3 87  1  0  0  0
  3 88  1  0  0  0
  4  5  1  0  0  0
  4 89  1  0  0  0
  4 90  1  0  0  0
  5  6  1  0  0  0
  5 26  1  0  0  0
  5 91  1  0  0  0
  6 25  1  0  0  0
  6 92  1  0  0  0
  6 93  1  0  0  0
  7  8  2  0  0  0
  7 26  1  0  0  0
  7 29  1  0  0  0
  8  9  1  0  0  0
  8 22  1  0  0  0
  9 10  1  0  0  0
  9 27  2  0  0  0
 10 11  2  0  0  0
 10 15  1  0  0  0
 11 12  1  0  0  0
 11 94  1  0  0  0
 12 13  2  0  0  0
 12 95  1  0  0  0
 13 14  1  0  0  0
 13 31  1  0  0  0
 14 15  2  0  0  0
 14 96  1  0  0  0
 15 97  1  0  0  0
 16 17  2  0  0  0
 16 21  1  0  0  0
 16 31  1  0  0  0
 17 18  1  0  0  0
 17 98  1  0  0  0
 18 19  2  0  0  0
 18 99  1  0  0  0
 19 20  1  0  0  0
 19 24  1  0  0  0
 20 21  2  0  0  0
 20100  1  0  0  0
 21 23  1  0  0  0
 22 28  1  0  0  0
 22 32  2  0  0  0
 26 27  1  0  0  0
 28101  1  0  0  0
 28102  1  0  0  0
 29103  1  0  0  0
 29104  1  0  0  0
 33 34  1  0  0  0
 33 66  1  0  0  0
 33 70  2  0  0  0
 34 36  1  0  0  0
 34 59  1  0  0  0
 34105  1  0  0  0
 35 44  2  0  0  0
 35 45  1  0  0  0
 35 68  1  0  0  0
 36 56  1  0  0  0
 36106  1  0  0  0
 37 39  1  0  0  0
 37 47  1  0  0  0
 37 66  1  0  0  0
 37107  1  0  0  0
 38 43  2  0  0  0
 38 46  1  0  0  0
 38 47  1  0  0  0
 39 64  1  0  0  0
 39 67  2  0  0  0
 40 52  1  0  0  0
 40 53  2  0  0  0
 40 58  1  0  0  0
 41108  1  0  0  0
 41109  1  0  0  0
 41110  1  0  0  0
 41 48  1  0  0  0
 42 43  1  0  0  0
 42 66  1  0  0  0
 42111  1  0  0  0
 42112  1  0  0  0
 43 44  1  0  0  0
 44113  1  0  0  0
 45 46  2  0  0  0
 45114  1  0  0  0
 46115  1  0  0  0
 47116  1  0  0  0
 47117  1  0  0  0
 48 56  1  0  0  0
 48 65  1  0  0  0
 48118  1  0  0  0
 49 50  1  0  0  0
 49 53  1  0  0  0
 49 64  1  0  0  0
 49119  1  0  0  0
 50 51  1  0  0  0
 50120  1  0  0  0
 50121  1  0  0  0
 51 52  1  0  0  0
 51122  1  0  0  0
 51123  1  0  0  0
 52124  1  0  0  0
 52125  1  0  0  0
 53 54  1  0  0  0
 54 55  2  0  0  0
 54126  1  0  0  0
 55 57  1  0  0  0
 55127  1  0  0  0
 56 69  2  0  0  0
 57 58  2  0  0  0
 57128  1  0  0  0
 58129  1  0  0  0
 59 60  1  0  0  0
 59 61  1  0  0  0
 59 62  1  0  0  0
 60130  1  0  0  0
 60131  1  0  0  0
 60132  1  0  0  0
 61133  1  0  0  0
 61134  1  0  0  0
 61135  1  0  0  0
 62136  1  0  0  0
 62137  1  0  0  0
 62138  1  0  0  0
 63 65  1  0  0  0
 63139  1  0  0  0
 63140  1  0  0  0
 63141  1  0  0  0
 64142  1  0  0  0
 65143  1  0  0  0
 68 77  1  0  0  0
 71 72  2  0  0  0
 71 79  1  0  0  0
 71 80  1  0  0  0
 72 83  1  0  0  0
 72 84  1  0  0  0
 73 80  2  0  0  0
 73 81  1  0  0  0
 73 84  1  0  0  0
 74144  1  0  0  0
 74145  1  0  0  0
 74146  1  0  0  0
 74 79  1  0  0  0
 75 79  1  0  0  0
 75147  1  0  0  0
 75148  1  0  0  0
 75149  1  0  0  0
 76 78  1  0  0  0
 76 79  1  0  0  0
 76150  1  0  0  0
 76151  1  0  0  0
 77 78  1  0  0  0
 77152  1  0  0  0
 77153  1  0  0  0
 78 82  1  0  0  0
 78154  1  0  0  0
 81155  1  0  0  0
 82156  1  0  0  0
M  ISO  4   1 100  68 101  77 101  81 100
M  END
> <chiral flag>
0

> <version>
0

> <s_m_source_file>
/data/baiqing/PycharmProjects/Reinvent-master-3.2/result/LINK_invent/BTK/process_docking_weight1_custom_product_contain_oxygen_bond_distance_aromatic_linkinvent_7_9_3/rearranged_h_0186.sdf

> <i_m_source_file_index>
75

> <r_mmod_Potential_Energy-OPLS-2005>
138.414916992188

> <r_mmod_Stretch_Energy-OPLS-2005>
123.455451965332

> <r_mmod_Bend_Energy-OPLS-2005>
166.648910522461

> <r_mmod_Torsional_Energy-OPLS-2005>
251.799407958984

> <r_mmod_Improper_Torsional_Energy-OPLS-2005>
6.6317777633667

> <r_mmod_Van_der_Waal_Energy-OPLS-2005>
117.691680908203

> <r_mmod_Electrostatic_Energy-OPLS-2005>
-369.310607910156

> <r_mmod_Solvation_Energy-OPLS-2005>
-230.260192871094

> <b_mmod_Minimization_Converged-OPLS-2005>
0

> <r_mmod_RMS_Derivative-OPLS-2005>
3.67642140388489

$$$$
76
                    3D
 Structure written by MMmdl.
160168  0  0  1  0            999 V2000
  -30.6091  -14.7055   20.4504 C   0  0  0  0  0  0
  -30.4363  -12.4364   19.4357 C   0  0  0  0  0  0
  -29.4856  -12.5017   18.2156 C   0  0  0  0  0  0
  -28.0166  -12.3337   18.6462 C   0  0  0  0  0  0
  -27.6452  -13.2168   19.8641 C   0  0  2  0  0  0
  -28.7021  -13.1220   20.9877 C   0  0  0  0  0  0
  -25.2563  -13.8190   20.5779 C   0  0  0  0  0  0
  -24.1824  -13.0436   20.9243 C   0  0  0  0  0  0
  -24.6423  -11.6921   20.8800 C   0  0  0  0  0  0
  -23.9087  -10.4302   21.0455 C   0  0  0  0  0  0
  -24.3635   -9.4201   21.9217 C   0  0  0  0  0  0
  -23.6314   -8.2226   22.0755 C   0  0  0  0  0  0
  -22.4288   -8.0286   21.3546 C   0  0  0  0  0  0
  -21.9936   -9.0274   20.4653 C   0  0  0  0  0  0
  -22.7266  -10.2159   20.3087 C   0  0  0  0  0  0
  -21.6843   -6.0751   22.5283 C   0  0  0  0  0  0
  -21.4030   -6.5664   23.8222 C   0  0  0  0  0  0
  -21.3649   -5.6811   24.9177 C   0  0  0  0  0  0
  -21.6014   -4.3074   24.7233 C   0  0  0  0  0  0
  -21.8825   -3.8177   23.4361 C   0  0  0  0  0  0
  -21.9216   -4.6985   22.3409 C   0  0  0  0  0  0
  -22.7861  -13.5246   21.1882 C   0  0  0  0  0  0
  -22.1672   -4.2172   21.0984 F   0  0  0  0  0  0
  -21.5612   -3.4560   25.7752 F   0  0  0  0  0  0
  -29.9966  -13.4764   20.3933 N   0  0  0  0  0  0
  -26.2971  -12.9359   20.3427 N   0  0  0  0  0  0
  -25.9352  -11.6511   20.5879 N   0  0  0  0  0  0
  -22.0534  -12.8186   22.0419 N   0  0  0  0  0  0
  -25.4310  -15.1905   20.4218 N   0  0  0  0  0  0
  -31.8062  -14.8117   20.1712 O   0  0  0  0  0  0
  -21.6636   -6.8891   21.4239 O   0  0  0  0  0  0
  -22.3551  -14.5546   20.6746 O   0  0  0  0  0  0
  -24.6264  -31.8553   23.2007 C   0  0  0  0  0  0
  -25.9091  -32.4765   23.8306 C   0  0  1  0  0  0
  -27.2146  -27.2807   20.0990 C   0  0  0  0  0  0
  -25.5880  -33.8552   24.2173 N   0  0  0  0  0  0
  -23.4183  -30.4763   21.5518 C   0  0  2  0  0  0
  -24.8623  -28.9247   20.1104 C   0  0  0  0  0  0
  -22.7493  -29.4526   22.5033 C   0  0  0  0  0  0
  -18.0261  -28.1344   22.8488 C   0  0  0  0  0  0
  -24.1490  -36.7268   23.2663 C   0  0  0  0  0  0
  -25.9614  -30.7693   21.3803 C   0  0  0  0  0  0
  -26.0368  -29.3955   20.7138 C   0  0  0  0  0  0
  -27.2169  -28.5826   20.7000 C   0  0  0  0  0  0
  -26.0195  -26.8737   19.4667 C   0  0  0  0  0  0
  -24.8534  -27.6658   19.4883 C   0  0  0  0  0  0
  -23.6326  -29.8160   20.1664 C   0  0  0  0  0  0
  -25.4110  -36.3019   24.0316 C   0  0  1  0  0  0
  -20.5873  -28.3584   23.1297 C   0  0  2  0  0  0
  -20.6790  -26.9325   22.5436 C   0  0  0  0  0  0
  -19.5772  -26.6331   21.5242 C   0  0  0  0  0  0
  -18.1912  -26.7877   22.1628 C   0  0  0  0  0  0
  -19.1522  -28.8786   23.2859 C   0  0  0  0  0  0
  -18.9483  -30.1422   23.8849 C   0  0  0  0  0  0
  -17.6486  -30.6567   24.0554 C   0  0  0  0  0  0
  -25.9053  -34.9437   23.5030 C   0  0  0  0  0  0
  -16.5364  -29.9066   23.6385 C   0  0  0  0  0  0
  -16.7252  -28.6508   23.0345 C   0  0  0  0  0  0
  -26.4467  -31.6653   25.0724 C   0  0  0  0  0  0
  -25.3634  -31.3846   26.1410 C   0  0  0  0  0  0
  -27.0328  -30.3077   24.6237 C   0  0  0  0  0  0
  -27.5979  -32.4459   25.7487 C   0  0  0  0  0  0
  -27.5573  -37.1754   24.8452 C   0  0  0  0  0  0
  -21.4227  -29.2929   22.3727 N   0  0  0  0  0  0
  -26.4260  -37.3739   23.9430 N   0  0  0  0  0  0
  -24.6876  -31.0503   22.1013 N   0  0  0  0  0  0
  -23.4196  -28.8087   23.3132 O   0  0  0  0  0  0
  -28.3153  -26.3931   20.1783 O   0  0  0  0  0  0
  -26.5688  -34.8912   22.4639 O   0  0  0  0  0  0
  -23.5416  -32.1420   23.7323 O   0  0  0  0  0  0
  -29.6175  -19.5855   20.1636 C   0  0  0  0  0  0
  -30.9540  -19.6107   20.5511 C   0  0  0  0  0  0
  -30.0846  -17.2504   20.4858 C   0  0  0  0  0  0
  -29.1000  -22.2672   19.7423 C   0  0  0  0  0  0
  -31.8734  -20.7728   20.7693 C   0  0  0  0  0  0
  -26.5465  -20.9920   18.1348 C   0  0  0  0  0  0
  -28.4866  -23.4274   21.9561 C   0  0  0  0  0  0
  -27.9524  -20.4019   18.3892 C   0  0  0  0  0  0
  -28.2353  -24.9432   19.7667 C   0  0  0  0  0  0
  -28.5916  -20.7409   19.7729 C   0  0  1  0  0  0
  -28.2505  -23.4387   20.4212 C   0  0  1  0  0  0
  -29.1583  -18.2119   20.2110 N   0  0  0  0  0  0
  -29.7879  -15.8092   20.5608 N   0  0  0  0  0  0
  -30.0954  -22.5752   19.0794 O   0  0  0  0  0  0
  -31.6370  -17.9968   20.8080 S   0  0  0  0  0  0
  -31.4695  -12.5871   19.1131 H   0  0  0  0  0  0
  -30.4085  -11.4485   19.8994 H   0  0  0  0  0  0
  -29.7451  -11.7312   17.4877 H   0  0  0  0  0  0
  -29.6008  -13.4585   17.7018 H   0  0  0  0  0  0
  -27.8620  -11.2828   18.8941 H   0  0  0  0  0  0
  -27.3464  -12.5511   17.8158 H   0  0  0  0  0  0
  -27.6491  -14.2424   19.4951 H   0  0  0  0  0  0
  -28.7397  -12.1156   21.4069 H   0  0  0  0  0  0
  -28.4619  -13.7889   21.8179 H   0  0  0  0  0  0
  -25.2788   -9.5660   22.4804 H   0  0  0  0  0  0
  -24.0038   -7.4605   22.7445 H   0  0  0  0  0  0
  -21.0874   -8.8802   19.8959 H   0  0  0  0  0  0
  -22.3729  -10.9717   19.6224 H   0  0  0  0  0  0
  -21.2013   -7.6191   23.9734 H   0  0  0  0  0  0
  -21.1443   -6.0547   25.9075 H   0  0  0  0  0  0
  -22.0612   -2.7650   23.2856 H   0  0  0  0  0  0
  -22.4202  -11.9830   22.4739 H   0  0  0  0  0  0
  -21.1180  -13.1192   22.2720 H   0  0  0  0  0  0
  -24.6722  -15.8504   20.5538 H   0  0  0  0  0  0
  -26.2711  -15.6338   20.0750 H   0  0  0  0  0  0
  -26.7140  -32.5440   23.1021 H   0  0  0  0  0  0
  -24.9839  -33.9634   25.0179 H   0  0  0  0  0  0
  -22.7143  -31.3032   21.4148 H   0  0  0  0  0  0
  -23.3752  -35.9595   23.3291 H   0  0  0  0  0  0
  -24.3585  -36.8996   22.2096 H   0  0  0  0  0  0
  -23.7261  -37.6436   23.6747 H   0  0  0  0  0  0
  -26.0957  -31.5350   20.6192 H   0  0  0  0  0  0
  -26.8378  -30.8084   22.0151 H   0  0  0  0  0  0
  -28.1197  -28.9226   21.1928 H   0  0  0  0  0  0
  -25.9555  -25.9147   18.9783 H   0  0  0  0  0  0
  -23.9511  -27.2846   19.0255 H   0  0  0  0  0  0
  -23.7556  -30.6023   19.4216 H   0  0  0  0  0  0
  -22.7466  -29.2542   19.8611 H   0  0  0  0  0  0
  -25.1298  -36.1833   25.0810 H   0  0  0  0  0  0
  -20.9934  -28.3155   24.1418 H   0  0  0  0  0  0
  -20.5763  -26.2161   23.3594 H   0  0  0  0  0  0
  -21.6620  -26.7395   22.1166 H   0  0  0  0  0  0
  -19.6921  -25.6238   21.1264 H   0  0  0  0  0  0
  -19.6756  -27.3164   20.6778 H   0  0  0  0  0  0
  -17.4211  -26.6648   21.4015 H   0  0  0  0  0  0
  -18.0276  -25.9988   22.8989 H   0  0  0  0  0  0
  -19.7953  -30.7249   24.2207 H   0  0  0  0  0  0
  -17.5040  -31.6272   24.5092 H   0  0  0  0  0  0
  -15.5359  -30.2955   23.7726 H   0  0  0  0  0  0
  -15.8660  -28.0875   22.7009 H   0  0  0  0  0  0
  -24.5749  -30.7275   25.7712 H   0  0  0  0  0  0
  -24.8872  -32.3045   26.4810 H   0  0  0  0  0  0
  -25.7848  -30.8998   27.0232 H   0  0  0  0  0  0
  -26.2882  -29.6843   24.1259 H   0  0  0  0  0  0
  -27.4014  -29.7349   25.4772 H   0  0  0  0  0  0
  -27.8756  -30.4399   23.9448 H   0  0  0  0  0  0
  -27.2517  -33.3798   26.1924 H   0  0  0  0  0  0
  -28.3769  -32.7047   25.0303 H   0  0  0  0  0  0
  -28.0612  -31.8731   26.5536 H   0  0  0  0  0  0
  -28.2468  -38.0173   24.7575 H   0  0  0  0  0  0
  -28.1178  -36.2686   24.6114 H   0  0  0  0  0  0
  -27.2305  -37.1182   25.8861 H   0  0  0  0  0  0
  -20.9416  -29.8634   21.6942 H   0  0  0  0  0  0
  -26.0138  -38.2779   24.1548 H   0  0  0  0  0  0
  -32.1575  -21.2308   19.8232 H   0  0  0  0  0  0
  -32.8016  -20.4637   21.2509 H   0  0  0  0  0  0
  -31.4264  -21.5338   21.4107 H   0  0  0  0  0  0
  -26.0744  -20.5133   17.2758 H   0  0  0  0  0  0
  -26.5839  -22.0583   17.9188 H   0  0  0  0  0  0
  -25.8787  -20.8456   18.9854 H   0  0  0  0  0  0
  -28.7215  -22.4315   22.3348 H   0  0  0  0  0  0
  -27.5911  -23.7646   22.4816 H   0  0  0  0  0  0
  -29.3054  -24.0852   22.2501 H   0  0  0  0  0  0
  -28.6249  -20.6877   17.5804 H   0  0  0  0  0  0
  -27.8551  -19.3210   18.2880 H   0  0  0  0  0  0
  -29.3125  -24.9944   19.9025 H   0  0  0  0  0  0
  -27.4740  -25.0182   20.5374 H   0  0  0  0  0  0
  -27.7917  -20.7144   20.5106 H   0  0  0  0  0  0
  -27.2353  -23.0609   20.2863 H   0  0  0  0  0  0
  -28.8118  -15.5881   20.6421 H   0  0  0  0  0  0
  1 25  1  0  0  0
  1 30  2  0  0  0
  1 83  1  0  0  0
  2  3  1  0  0  0
  2 25  1  0  0  0
  2 86  1  0  0  0
  2 87  1  0  0  0
  3  4  1  0  0  0
  3 88  1  0  0  0
  3 89  1  0  0  0
  4  5  1  0  0  0
  4 90  1  0  0  0
  4 91  1  0  0  0
  5  6  1  0  0  0
  5 26  1  0  0  0
  5 92  1  0  0  0
  6 25  1  0  0  0
  6 93  1  0  0  0
  6 94  1  0  0  0
  7  8  2  0  0  0
  7 26  1  0  0  0
  7 29  1  0  0  0
  8  9  1  0  0  0
  8 22  1  0  0  0
  9 10  1  0  0  0
  9 27  2  0  0  0
 10 11  2  0  0  0
 10 15  1  0  0  0
 11 12  1  0  0  0
 11 95  1  0  0  0
 12 13  2  0  0  0
 12 96  1  0  0  0
 13 14  1  0  0  0
 13 31  1  0  0  0
 14 15  2  0  0  0
 14 97  1  0  0  0
 15 98  1  0  0  0
 16 17  2  0  0  0
 16 21  1  0  0  0
 16 31  1  0  0  0
 17 18  1  0  0  0
 17 99  1  0  0  0
 18 19  2  0  0  0
 18100  1  0  0  0
 19 20  1  0  0  0
 19 24  1  0  0  0
 20 21  2  0  0  0
 20101  1  0  0  0
 21 23  1  0  0  0
 22 28  1  0  0  0
 22 32  2  0  0  0
 26 27  1  0  0  0
 28102  1  0  0  0
 28103  1  0  0  0
 29104  1  0  0  0
 29105  1  0  0  0
 33 34  1  0  0  0
 33 66  1  0  0  0
 33 70  2  0  0  0
 34 36  1  0  0  0
 34 59  1  0  0  0
 34106  1  0  0  0
 35 44  2  0  0  0
 35 45  1  0  0  0
 35 68  1  0  0  0
 36 56  1  0  0  0
 36107  1  0  0  0
 37 39  1  0  0  0
 37 47  1  0  0  0
 37 66  1  0  0  0
 37108  1  0  0  0
 38 43  2  0  0  0
 38 46  1  0  0  0
 38 47  1  0  0  0
 39 64  1  0  0  0
 39 67  2  0  0  0
 40 52  1  0  0  0
 40 53  2  0  0  0
 40 58  1  0  0  0
 41109  1  0  0  0
 41110  1  0  0  0
 41111  1  0  0  0
 41 48  1  0  0  0
 42 43  1  0  0  0
 42 66  1  0  0  0
 42112  1  0  0  0
 42113  1  0  0  0
 43 44  1  0  0  0
 44114  1  0  0  0
 45 46  2  0  0  0
 45115  1  0  0  0
 46116  1  0  0  0
 47117  1  0  0  0
 47118  1  0  0  0
 48 56  1  0  0  0
 48 65  1  0  0  0
 48119  1  0  0  0
 49 50  1  0  0  0
 49 53  1  0  0  0
 49 64  1  0  0  0
 49120  1  0  0  0
 50 51  1  0  0  0
 50121  1  0  0  0
 50122  1  0  0  0
 51 52  1  0  0  0
 51123  1  0  0  0
 51124  1  0  0  0
 52125  1  0  0  0
 52126  1  0  0  0
 53 54  1  0  0  0
 54 55  2  0  0  0
 54127  1  0  0  0
 55 57  1  0  0  0
 55128  1  0  0  0
 56 69  2  0  0  0
 57 58  2  0  0  0
 57129  1  0  0  0
 58130  1  0  0  0
 59 60  1  0  0  0
 59 61  1  0  0  0
 59 62  1  0  0  0
 60131  1  0  0  0
 60132  1  0  0  0
 60133  1  0  0  0
 61134  1  0  0  0
 61135  1  0  0  0
 61136  1  0  0  0
 62137  1  0  0  0
 62138  1  0  0  0
 62139  1  0  0  0
 63 65  1  0  0  0
 63140  1  0  0  0
 63141  1  0  0  0
 63142  1  0  0  0
 64143  1  0  0  0
 65144  1  0  0  0
 68 79  1  0  0  0
 71 72  2  0  0  0
 71 80  1  0  0  0
 71 82  1  0  0  0
 72 75  1  0  0  0
 72 85  1  0  0  0
 73 82  2  0  0  0
 73 83  1  0  0  0
 73 85  1  0  0  0
 74 80  1  0  0  0
 74 81  1  0  0  0
 74 84  2  0  0  0
 75145  1  0  0  0
 75146  1  0  0  0
 75147  1  0  0  0
 76 78  1  0  0  0
 76148  1  0  0  0
 76149  1  0  0  0
 76150  1  0  0  0
 77151  1  0  0  0
 77152  1  0  0  0
 77153  1  0  0  0
 77 81  1  0  0  0
 78154  1  0  0  0
 78155  1  0  0  0
 78 80  1  0  0  0
 79 81  1  0  0  0
 79156  1  0  0  0
 79157  1  0  0  0
 80158  1  0  0  0
 81159  1  0  0  0
 83160  1  0  0  0
M  ISO  4   1 100  68 101  79 101  83 100
M  END
> <chiral flag>
0

> <version>
0

> <s_m_source_file>
/data/baiqing/PycharmProjects/Reinvent-master-3.2/result/LINK_invent/BTK/process_docking_weight1_custom_product_contain_oxygen_bond_distance_aromatic_linkinvent_7_9_3/rearranged_h_0186.sdf

> <i_m_source_file_index>
76

> <r_mmod_Potential_Energy-OPLS-2005>
389.065795898438

> <r_mmod_Stretch_Energy-OPLS-2005>
121.194808959961

> <r_mmod_Bend_Energy-OPLS-2005>
395.647369384766

> <r_mmod_Torsional_Energy-OPLS-2005>
221.993927001953

> <r_mmod_Improper_Torsional_Energy-OPLS-2005>
7.74936580657959

> <r_mmod_Van_der_Waal_Energy-OPLS-2005>
128.668151855469

> <r_mmod_Electrostatic_Energy-OPLS-2005>
-346.040832519531

> <r_mmod_Solvation_Energy-OPLS-2005>
-213.552230834961

> <b_mmod_Minimization_Converged-OPLS-2005>
0

> <r_mmod_RMS_Derivative-OPLS-2005>
6.98561668395996

$$$$
77
                    3D
 Structure written by MMmdl.
151159  0  0  1  0            999 V2000
  -30.5094  -14.9818   20.4143 C   0  0  0  0  0  0
  -30.4532  -12.6084   19.5096 C   0  0  0  0  0  0
  -29.5293  -12.5328   18.2699 C   0  0  0  0  0  0
  -28.0661  -12.3029   18.6919 C   0  0  0  0  0  0
  -27.6333  -13.2453   19.8428 C   0  0  2  0  0  0
  -28.6735  -13.2765   20.9842 C   0  0  0  0  0  0
  -25.2471  -13.8217   20.5701 C   0  0  0  0  0  0
  -24.1777  -13.0443   20.9224 C   0  0  0  0  0  0
  -24.6391  -11.6924   20.8760 C   0  0  0  0  0  0
  -23.9081  -10.4293   21.0413 C   0  0  0  0  0  0
  -24.3630   -9.4202   21.9184 C   0  0  0  0  0  0
  -23.6301   -8.2236   22.0741 C   0  0  0  0  0  0
  -22.4281   -8.0281   21.3539 C   0  0  0  0  0  0
  -21.9925   -9.0253   20.4639 C   0  0  0  0  0  0
  -22.7258  -10.2137   20.3052 C   0  0  0  0  0  0
  -21.6853   -6.0736   22.5275 C   0  0  0  0  0  0
  -21.4014   -6.5639   23.8207 C   0  0  0  0  0  0
  -21.3660   -5.6797   24.9172 C   0  0  0  0  0  0
  -21.6044   -4.3053   24.7227 C   0  0  0  0  0  0
  -21.8820   -3.8148   23.4344 C   0  0  0  0  0  0
  -21.9190   -4.6962   22.3402 C   0  0  0  0  0  0
  -22.7803  -13.5211   21.1892 C   0  0  0  0  0  0
  -22.1661   -4.2146   21.0979 F   0  0  0  0  0  0
  -21.5630   -3.4539   25.7740 F   0  0  0  0  0  0
  -29.9536  -13.6994   20.3963 N   0  0  0  0  0  0
  -26.2896  -12.9444   20.3256 N   0  0  0  0  0  0
  -25.9324  -11.6575   20.5751 N   0  0  0  0  0  0
  -22.0468  -12.8172   22.0447 N   0  0  0  0  0  0
  -25.4154  -15.1941   20.4093 N   0  0  0  0  0  0
  -31.6964  -15.0867   20.0856 O   0  0  0  0  0  0
  -21.6636   -6.8880   21.4240 O   0  0  0  0  0  0
  -22.3472  -14.5507   20.6737 O   0  0  0  0  0  0
  -24.6463  -31.8424   23.1895 C   0  0  0  0  0  0
  -25.9223  -32.4692   23.8288 C   0  0  1  0  0  0
  -27.2150  -27.1156   20.1465 C   0  0  0  0  0  0
  -25.5956  -33.8500   24.2198 N   0  0  0  0  0  0
  -23.4515  -30.4624   21.5345 C   0  0  2  0  0  0
  -24.9025  -28.8899   20.1103 C   0  0  0  0  0  0
  -22.7593  -29.4523   22.4845 C   0  0  0  0  0  0
  -18.0321  -28.1388   22.8444 C   0  0  0  0  0  0
  -24.1491  -36.7253   23.2641 C   0  0  0  0  0  0
  -26.0114  -30.7089   21.3933 C   0  0  0  0  0  0
  -26.0820  -29.3187   20.7325 C   0  0  0  0  0  0
  -27.2401  -28.4483   20.7338 C   0  0  0  0  0  0
  -26.0091  -26.8005   19.4792 C   0  0  0  0  0  0
  -24.8803  -27.6455   19.4676 C   0  0  0  0  0  0
  -23.6814  -29.7953   20.1534 C   0  0  0  0  0  0
  -25.4126  -36.3042   24.0318 C   0  0  1  0  0  0
  -20.5928  -28.3728   23.1256 C   0  0  2  0  0  0
  -20.6793  -26.9411   22.5467 C   0  0  0  0  0  0
  -19.5803  -26.6333   21.5252 C   0  0  0  0  0  0
  -18.1972  -26.7921   22.1611 C   0  0  0  0  0  0
  -19.1566  -28.8863   23.2848 C   0  0  0  0  0  0
  -18.9471  -30.1452   23.8882 C   0  0  0  0  0  0
  -17.6459  -30.6562   24.0538 C   0  0  0  0  0  0
  -25.9073  -34.9410   23.5070 C   0  0  0  0  0  0
  -16.5356  -29.9059   23.6277 C   0  0  0  0  0  0
  -16.7293  -28.6482   23.0307 C   0  0  0  0  0  0
  -26.4534  -31.6568   25.0731 C   0  0  0  0  0  0
  -25.3708  -31.3756   26.1412 C   0  0  0  0  0  0
  -27.0407  -30.2968   24.6326 C   0  0  0  0  0  0
  -27.6073  -32.4336   25.7499 C   0  0  0  0  0  0
  -27.5579  -37.1790   24.8468 C   0  0  0  0  0  0
  -21.4274  -29.3055   22.3614 N   0  0  0  0  0  0
  -26.4296  -37.3750   23.9407 N   0  0  0  0  0  0
  -24.7230  -31.0257   22.0945 N   0  0  0  0  0  0
  -23.4232  -28.8054   23.2981 O   0  0  0  0  0  0
  -28.2407  -26.0936   20.2174 O   0  0  0  0  0  0
  -26.5654  -34.8905   22.4646 O   0  0  0  0  0  0
  -23.5570  -32.1303   23.7102 O   0  0  0  0  0  0
  -30.5414  -18.4445   19.8076 C   0  0  0  0  0  0
  -29.6979  -17.5531   20.4772 C   0  0  0  0  0  0
  -29.0568  -20.2592   20.4045 C   0  0  0  0  0  0
  -28.8193  -23.2475   20.2842 C   0  0  0  0  0  0
  -27.3936  -21.7099   21.6995 C   0  0  0  0  0  0
  -27.1958  -21.5572   19.2150 C   0  0  0  0  0  0
  -27.8471  -24.5871   20.0315 C   0  0  0  0  0  0
  -28.1997  -21.6913   20.3819 C   0  0  0  0  0  0
  -30.1752  -19.8559   19.7445 N   0  0  0  0  0  0
  -29.6777  -16.1133   20.6650 N   0  0  0  0  0  0
  -30.0339  -23.4217   20.4262 O   0  0  0  0  0  0
  -28.4017  -18.6729   21.0954 S   0  0  0  0  0  0
  -31.4815  -12.7838   19.1910 H   0  0  0  0  0  0
  -30.4685  -11.6588   20.0468 H   0  0  0  0  0  0
  -29.8580  -11.7370   17.5997 H   0  0  0  0  0  0
  -29.6000  -13.4621   17.7018 H   0  0  0  0  0  0
  -27.9816  -11.2673   19.0235 H   0  0  0  0  0  0
  -27.3977  -12.4055   17.8363 H   0  0  0  0  0  0
  -27.5978  -14.2432   19.4041 H   0  0  0  0  0  0
  -28.7631  -12.2994   21.4604 H   0  0  0  0  0  0
  -28.3621  -13.9717   21.7651 H   0  0  0  0  0  0
  -25.2777   -9.5665   22.4756 H   0  0  0  0  0  0
  -24.0005   -7.4622   22.7449 H   0  0  0  0  0  0
  -21.0856   -8.8782   19.8936 H   0  0  0  0  0  0
  -22.3723  -10.9674   19.6148 H   0  0  0  0  0  0
  -21.2007   -7.6147   23.9711 H   0  0  0  0  0  0
  -21.1481   -6.0525   25.9074 H   0  0  0  0  0  0
  -22.0596   -2.7605   23.2849 H   0  0  0  0  0  0
  -22.4121  -11.9847   22.4836 H   0  0  0  0  0  0
  -21.1065  -13.1140   22.2646 H   0  0  0  0  0  0
  -24.6454  -15.8471   20.5048 H   0  0  0  0  0  0
  -26.2558  -15.6270   20.0506 H   0  0  0  0  0  0
  -26.7284  -32.5295   23.1009 H   0  0  0  0  0  0
  -25.0118  -33.9609   25.0356 H   0  0  0  0  0  0
  -22.7561  -31.2895   21.3785 H   0  0  0  0  0  0
  -23.3769  -35.9566   23.3292 H   0  0  0  0  0  0
  -24.3575  -36.8890   22.2057 H   0  0  0  0  0  0
  -23.7224  -37.6440   23.6679 H   0  0  0  0  0  0
  -26.1734  -31.4633   20.6223 H   0  0  0  0  0  0
  -26.8814  -30.7583   22.0362 H   0  0  0  0  0  0
  -28.1372  -28.7710   21.2435 H   0  0  0  0  0  0
  -25.8956  -25.8556   18.9715 H   0  0  0  0  0  0
  -23.9830  -27.3156   18.9633 H   0  0  0  0  0  0
  -23.8253  -30.5719   19.4009 H   0  0  0  0  0  0
  -22.7963  -29.2416   19.8365 H   0  0  0  0  0  0
  -25.1313  -36.1880   25.0810 H   0  0  0  0  0  0
  -21.0004  -28.3336   24.1390 H   0  0  0  0  0  0
  -20.5635  -26.2368   23.3716 H   0  0  0  0  0  0
  -21.6662  -26.7365   22.1292 H   0  0  0  0  0  0
  -19.6987  -25.6209   21.1370 H   0  0  0  0  0  0
  -19.6784  -27.3090   20.6742 H   0  0  0  0  0  0
  -17.4279  -26.6702   21.3972 H   0  0  0  0  0  0
  -18.0327  -26.0067   22.9020 H   0  0  0  0  0  0
  -19.7951  -30.7262   24.2280 H   0  0  0  0  0  0
  -17.4992  -31.6246   24.5138 H   0  0  0  0  0  0
  -15.5355  -30.2956   23.7576 H   0  0  0  0  0  0
  -15.8697  -28.0792   22.7017 H   0  0  0  0  0  0
  -24.5901  -30.7085   25.7730 H   0  0  0  0  0  0
  -24.8866  -32.2931   26.4776 H   0  0  0  0  0  0
  -25.7976  -30.8972   27.0231 H   0  0  0  0  0  0
  -26.3030  -29.6682   24.1324 H   0  0  0  0  0  0
  -27.4012  -29.7275   25.4905 H   0  0  0  0  0  0
  -27.8944  -30.4212   23.9659 H   0  0  0  0  0  0
  -27.2687  -33.3667   26.2005 H   0  0  0  0  0  0
  -28.3911  -32.6841   25.0340 H   0  0  0  0  0  0
  -28.0707  -31.8502   26.5460 H   0  0  0  0  0  0
  -28.2603  -38.0083   24.7516 H   0  0  0  0  0  0
  -28.1070  -36.2615   24.6303 H   0  0  0  0  0  0
  -27.2288  -37.1442   25.8868 H   0  0  0  0  0  0
  -20.9477  -29.8827   21.6850 H   0  0  0  0  0  0
  -26.0169  -38.2818   24.1412 H   0  0  0  0  0  0
  -31.4398  -18.1566   19.2789 H   0  0  0  0  0  0
  -28.0644  -21.6461   22.5571 H   0  0  0  0  0  0
  -26.6993  -20.8737   21.7627 H   0  0  0  0  0  0
  -26.7886  -22.6070   21.8244 H   0  0  0  0  0  0
  -27.7108  -21.4849   18.2563 H   0  0  0  0  0  0
  -26.4972  -22.3924   19.1550 H   0  0  0  0  0  0
  -26.5897  -20.6566   19.3225 H   0  0  0  0  0  0
  -26.9473  -24.4298   20.6242 H   0  0  0  0  0  0
  -27.5288  -24.4900   18.9931 H   0  0  0  0  0  0
  -28.7918  -15.7990   21.0302 H   0  0  0  0  0  0
  1 25  1  0  0  0
  1 30  2  0  0  0
  1 80  1  0  0  0
  2  3  1  0  0  0
  2 25  1  0  0  0
  2 83  1  0  0  0
  2 84  1  0  0  0
  3  4  1  0  0  0
  3 85  1  0  0  0
  3 86  1  0  0  0
  4  5  1  0  0  0
  4 87  1  0  0  0
  4 88  1  0  0  0
  5  6  1  0  0  0
  5 26  1  0  0  0
  5 89  1  0  0  0
  6 25  1  0  0  0
  6 90  1  0  0  0
  6 91  1  0  0  0
  7  8  2  0  0  0
  7 26  1  0  0  0
  7 29  1  0  0  0
  8  9  1  0  0  0
  8 22  1  0  0  0
  9 10  1  0  0  0
  9 27  2  0  0  0
 10 11  2  0  0  0
 10 15  1  0  0  0
 11 12  1  0  0  0
 11 92  1  0  0  0
 12 13  2  0  0  0
 12 93  1  0  0  0
 13 14  1  0  0  0
 13 31  1  0  0  0
 14 15  2  0  0  0
 14 94  1  0  0  0
 15 95  1  0  0  0
 16 17  2  0  0  0
 16 21  1  0  0  0
 16 31  1  0  0  0
 17 18  1  0  0  0
 17 96  1  0  0  0
 18 19  2  0  0  0
 18 97  1  0  0  0
 19 20  1  0  0  0
 19 24  1  0  0  0
 20 21  2  0  0  0
 20 98  1  0  0  0
 21 23  1  0  0  0
 22 28  1  0  0  0
 22 32  2  0  0  0
 26 27  1  0  0  0
 28 99  1  0  0  0
 28100  1  0  0  0
 29101  1  0  0  0
 29102  1  0  0  0
 33 34  1  0  0  0
 33 66  1  0  0  0
 33 70  2  0  0  0
 34 36  1  0  0  0
 34 59  1  0  0  0
 34103  1  0  0  0
 35 44  2  0  0  0
 35 45  1  0  0  0
 35 68  1  0  0  0
 36 56  1  0  0  0
 36104  1  0  0  0
 37 39  1  0  0  0
 37 47  1  0  0  0
 37 66  1  0  0  0
 37105  1  0  0  0
 38 43  2  0  0  0
 38 46  1  0  0  0
 38 47  1  0  0  0
 39 64  1  0  0  0
 39 67  2  0  0  0
 40 52  1  0  0  0
 40 53  2  0  0  0
 40 58  1  0  0  0
 41106  1  0  0  0
 41107  1  0  0  0
 41108  1  0  0  0
 41 48  1  0  0  0
 42 43  1  0  0  0
 42 66  1  0  0  0
 42109  1  0  0  0
 42110  1  0  0  0
 43 44  1  0  0  0
 44111  1  0  0  0
 45 46  2  0  0  0
 45112  1  0  0  0
 46113  1  0  0  0
 47114  1  0  0  0
 47115  1  0  0  0
 48 56  1  0  0  0
 48 65  1  0  0  0
 48116  1  0  0  0
 49 50  1  0  0  0
 49 53  1  0  0  0
 49 64  1  0  0  0
 49117  1  0  0  0
 50 51  1  0  0  0
 50118  1  0  0  0
 50119  1  0  0  0
 51 52  1  0  0  0
 51120  1  0  0  0
 51121  1  0  0  0
 52122  1  0  0  0
 52123  1  0  0  0
 53 54  1  0  0  0
 54 55  2  0  0  0
 54124  1  0  0  0
 55 57  1  0  0  0
 55125  1  0  0  0
 56 69  2  0  0  0
 57 58  2  0  0  0
 57126  1  0  0  0
 58127  1  0  0  0
 59 60  1  0  0  0
 59 61  1  0  0  0
 59 62  1  0  0  0
 60128  1  0  0  0
 60129  1  0  0  0
 60130  1  0  0  0
 61131  1  0  0  0
 61132  1  0  0  0
 61133  1  0  0  0
 62134  1  0  0  0
 62135  1  0  0  0
 62136  1  0  0  0
 63 65  1  0  0  0
 63137  1  0  0  0
 63138  1  0  0  0
 63139  1  0  0  0
 64140  1  0  0  0
 65141  1  0  0  0
 68 77  1  0  0  0
 71 72  2  0  0  0
 71 79  1  0  0  0
 71142  1  0  0  0
 72 80  1  0  0  0
 72 82  1  0  0  0
 73 78  1  0  0  0
 73 79  2  0  0  0
 73 82  1  0  0  0
 74 77  1  0  0  0
 74 78  1  0  0  0
 74 81  2  0  0  0
 75143  1  0  0  0
 75144  1  0  0  0
 75145  1  0  0  0
 75 78  1  0  0  0
 76 78  1  0  0  0
 76146  1  0  0  0
 76147  1  0  0  0
 76148  1  0  0  0
 77149  1  0  0  0
 77150  1  0  0  0
 80151  1  0  0  0
M  ISO  4   1 100  68 101  77 101  80 100
M  END
> <chiral flag>
0

> <version>
0

> <s_m_source_file>
/data/baiqing/PycharmProjects/Reinvent-master-3.2/result/LINK_invent/BTK/process_docking_weight1_custom_product_contain_oxygen_bond_distance_aromatic_linkinvent_7_9_3/rearranged_h_0186.sdf

> <i_m_source_file_index>
77

> <r_mmod_Potential_Energy-OPLS-2005>
550.929626464844

> <r_mmod_Stretch_Energy-OPLS-2005>
268.905670166016

> <r_mmod_Bend_Energy-OPLS-2005>
306.344879150391

> <r_mmod_Torsional_Energy-OPLS-2005>
196.111572265625

> <r_mmod_Improper_Torsional_Energy-OPLS-2005>
4.75273609161377

> <r_mmod_Van_der_Waal_Energy-OPLS-2005>
113.488792419434

> <r_mmod_Electrostatic_Energy-OPLS-2005>
-313.756988525391

> <r_mmod_Solvation_Energy-OPLS-2005>
-244.311462402344

> <b_mmod_Minimization_Converged-OPLS-2005>
0

> <r_mmod_RMS_Derivative-OPLS-2005>
2.0631217956543

$$$$
78
                    3D
 Structure written by MMmdl.
162170  0  0  1  0            999 V2000
  -30.5865  -14.7498   20.4671 C   0  0  0  0  0  0
  -30.4339  -12.4602   19.4619 C   0  0  0  0  0  0
  -29.5062  -12.4904   18.2277 C   0  0  0  0  0  0
  -28.0329  -12.3133   18.6494 C   0  0  0  0  0  0
  -27.6358  -13.2230   19.8415 C   0  0  2  0  0  0
  -28.6813  -13.1602   20.9741 C   0  0  0  0  0  0
  -25.2477  -13.8160   20.5686 C   0  0  0  0  0  0
  -24.1781  -13.0427   20.9236 C   0  0  0  0  0  0
  -24.6347  -11.6900   20.8766 C   0  0  0  0  0  0
  -23.9031  -10.4290   21.0427 C   0  0  0  0  0  0
  -24.3587   -9.4209   21.9202 C   0  0  0  0  0  0
  -23.6275   -8.2240   22.0762 C   0  0  0  0  0  0
  -22.4263   -8.0274   21.3549 C   0  0  0  0  0  0
  -21.9878   -9.0245   20.4649 C   0  0  0  0  0  0
  -22.7199  -10.2131   20.3067 C   0  0  0  0  0  0
  -21.6840   -6.0724   22.5284 C   0  0  0  0  0  0
  -21.4017   -6.5640   23.8224 C   0  0  0  0  0  0
  -21.3659   -5.6798   24.9185 C   0  0  0  0  0  0
  -21.6042   -4.3055   24.7234 C   0  0  0  0  0  0
  -21.8815   -3.8150   23.4360 C   0  0  0  0  0  0
  -21.9186   -4.6962   22.3412 C   0  0  0  0  0  0
  -22.7814  -13.5235   21.1890 C   0  0  0  0  0  0
  -22.1659   -4.2145   21.0991 F   0  0  0  0  0  0
  -21.5619   -3.4544   25.7753 F   0  0  0  0  0  0
  -29.9747  -13.5222   20.3822 N   0  0  0  0  0  0
  -26.2890  -12.9354   20.3225 N   0  0  0  0  0  0
  -25.9273  -11.6503   20.5735 N   0  0  0  0  0  0
  -22.0422  -12.8248   22.0426 N   0  0  0  0  0  0
  -25.4151  -15.1902   20.4141 N   0  0  0  0  0  0
  -31.7877  -14.8413   20.2065 O   0  0  0  0  0  0
  -21.6633   -6.8864   21.4244 O   0  0  0  0  0  0
  -22.3517  -14.5542   20.6719 O   0  0  0  0  0  0
  -24.6314  -31.8573   23.1984 C   0  0  0  0  0  0
  -25.9147  -32.4772   23.8334 C   0  0  1  0  0  0
  -27.2097  -27.2526   20.1372 C   0  0  0  0  0  0
  -25.5947  -33.8565   24.2276 N   0  0  0  0  0  0
  -23.4274  -30.4804   21.5414 C   0  0  2  0  0  0
  -24.8727  -28.9204   20.1149 C   0  0  0  0  0  0
  -22.7492  -29.4621   22.4903 C   0  0  0  0  0  0
  -18.0289  -28.1395   22.8493 C   0  0  0  0  0  0
  -24.1494  -36.7286   23.2638 C   0  0  0  0  0  0
  -25.9720  -30.7662   21.3789 C   0  0  0  0  0  0
  -26.0445  -29.3855   20.7266 C   0  0  0  0  0  0
  -27.2178  -28.5636   20.7257 C   0  0  0  0  0  0
  -26.0192  -26.8563   19.4955 C   0  0  0  0  0  0
  -24.8629  -27.6636   19.4907 C   0  0  0  0  0  0
  -23.6474  -29.8140   20.1584 C   0  0  0  0  0  0
  -25.4116  -36.3070   24.0334 C   0  0  1  0  0  0
  -20.5896  -28.3703   23.1266 C   0  0  2  0  0  0
  -20.6793  -26.9423   22.5405 C   0  0  0  0  0  0
  -19.5765  -26.6380   21.5220 C   0  0  0  0  0  0
  -18.1942  -26.7938   22.1624 C   0  0  0  0  0  0
  -19.1542  -28.8863   23.2886 C   0  0  0  0  0  0
  -18.9465  -30.1462   23.8913 C   0  0  0  0  0  0
  -17.6461  -30.6599   24.0560 C   0  0  0  0  0  0
  -25.9059  -34.9441   23.5100 C   0  0  0  0  0  0
  -16.5349  -29.9100   23.6321 C   0  0  0  0  0  0
  -16.7273  -28.6508   23.0358 C   0  0  0  0  0  0
  -26.4503  -31.6590   25.0722 C   0  0  0  0  0  0
  -25.3719  -31.3746   26.1443 C   0  0  0  0  0  0
  -27.0359  -30.3010   24.6209 C   0  0  0  0  0  0
  -27.6072  -32.4299   25.7505 C   0  0  0  0  0  0
  -27.5577  -37.1808   24.8460 C   0  0  0  0  0  0
  -21.4192  -29.3065   22.3648 N   0  0  0  0  0  0
  -26.4291  -37.3770   23.9403 N   0  0  0  0  0  0
  -24.6962  -31.0530   22.0959 N   0  0  0  0  0  0
  -23.4187  -28.8136   23.2998 O   0  0  0  0  0  0
  -28.3048  -26.3594   20.1368 O   0  0  0  0  0  0
  -26.5607  -34.8903   22.4652 O   0  0  0  0  0  0
  -23.5464  -32.1372   23.7288 O   0  0  0  0  0  0
  -29.7362  -18.7263   19.0045 C   0  0  0  0  0  0
  -29.6310  -18.5784   20.3673 C   0  0  0  0  0  0
  -29.1200  -20.9221   20.0917 C   0  0  0  0  0  0
  -31.3250  -17.5336   21.8649 C   0  0  0  0  0  0
  -32.3527  -19.1798   23.5301 C   0  0  0  0  0  0
  -27.8959  -23.5878   18.4580 C   0  0  0  0  0  0
  -28.7125  -24.9458   22.0293 C   0  0  0  0  0  0
  -31.3166  -18.0664   23.3023 C   0  0  0  0  0  0
  -29.9441  -17.2726   21.2217 C   0  0  2  0  0  0
  -28.7044  -23.6710   19.7601 C   0  0  1  0  0  0
  -28.1243  -24.9376   20.6145 C   0  0  1  0  0  0
  -29.2494  -19.8557   20.9445 N   0  0  0  0  0  0
  -28.7741  -22.2938   20.4224 N   0  0  0  0  0  0
  -29.7671  -15.8584   20.6396 N   0  0  0  0  0  0
  -32.4015  -17.3820   21.2799 O   0  0  0  0  0  0
  -29.4536  -20.3799   18.4449 S   0  0  0  0  0  0
  -31.4716  -12.6009   19.1570 H   0  0  0  0  0  0
  -30.3929  -11.4898   19.9579 H   0  0  0  0  0  0
  -29.7922  -11.7054   17.5250 H   0  0  0  0  0  0
  -29.6228  -13.4354   17.6961 H   0  0  0  0  0  0
  -27.8992  -11.2677   18.9285 H   0  0  0  0  0  0
  -27.3696  -12.4858   17.8004 H   0  0  0  0  0  0
  -27.6236  -14.2384   19.4465 H   0  0  0  0  0  0
  -28.7264  -12.1620   21.4115 H   0  0  0  0  0  0
  -28.4109  -13.8371   21.7871 H   0  0  0  0  0  0
  -25.2716   -9.5703   22.4792 H   0  0  0  0  0  0
  -23.9982   -7.4634   22.7490 H   0  0  0  0  0  0
  -21.0803   -8.8760   19.8968 H   0  0  0  0  0  0
  -22.3637  -10.9678   19.6197 H   0  0  0  0  0  0
  -21.2013   -7.6158   23.9723 H   0  0  0  0  0  0
  -21.1481   -6.0531   25.9083 H   0  0  0  0  0  0
  -22.0583   -2.7609   23.2865 H   0  0  0  0  0  0
  -22.4015  -11.9915   22.4860 H   0  0  0  0  0  0
  -21.1047  -13.1317   22.2626 H   0  0  0  0  0  0
  -24.6354  -15.8294   20.5240 H   0  0  0  0  0  0
  -26.2415  -15.6371   20.0379 H   0  0  0  0  0  0
  -26.7215  -32.5426   23.1083 H   0  0  0  0  0  0
  -25.0155  -33.9725   25.0462 H   0  0  0  0  0  0
  -22.7231  -31.3041   21.3957 H   0  0  0  0  0  0
  -23.3755  -35.9627   23.3310 H   0  0  0  0  0  0
  -24.3574  -36.8887   22.2048 H   0  0  0  0  0  0
  -23.7258  -37.6491   23.6655 H   0  0  0  0  0  0
  -26.1035  -31.5214   20.6031 H   0  0  0  0  0  0
  -26.8539  -30.8261   22.0066 H   0  0  0  0  0  0
  -28.1152  -28.9094   21.2196 H   0  0  0  0  0  0
  -25.9698  -25.8961   19.0022 H   0  0  0  0  0  0
  -23.9650  -27.3077   19.0027 H   0  0  0  0  0  0
  -23.7761  -30.5904   19.4022 H   0  0  0  0  0  0
  -22.7636  -29.2522   19.8515 H   0  0  0  0  0  0
  -25.1305  -36.1926   25.0834 H   0  0  0  0  0  0
  -21.0007  -28.3315   24.1380 H   0  0  0  0  0  0
  -20.5699  -26.2339   23.3625 H   0  0  0  0  0  0
  -21.6667  -26.7459   22.1203 H   0  0  0  0  0  0
  -19.6935  -25.6283   21.1279 H   0  0  0  0  0  0
  -19.6714  -27.3175   20.6734 H   0  0  0  0  0  0
  -17.4219  -26.6680   21.4018 H   0  0  0  0  0  0
  -18.0333  -26.0083   22.9015 H   0  0  0  0  0  0
  -19.7929  -30.7274   24.2311 H   0  0  0  0  0  0
  -17.5006  -31.6282   24.5154 H   0  0  0  0  0  0
  -15.5351  -30.3006   23.7637 H   0  0  0  0  0  0
  -15.8668  -28.0822   22.7082 H   0  0  0  0  0  0
  -24.5909  -30.7090   25.7747 H   0  0  0  0  0  0
  -24.8905  -32.2928   26.4819 H   0  0  0  0  0  0
  -25.8024  -30.8934   27.0244 H   0  0  0  0  0  0
  -26.2961  -29.6759   24.1207 H   0  0  0  0  0  0
  -27.4016  -29.7263   25.4728 H   0  0  0  0  0  0
  -27.8838  -30.4277   23.9480 H   0  0  0  0  0  0
  -27.2717  -33.3611   26.2081 H   0  0  0  0  0  0
  -28.3913  -32.6836   25.0359 H   0  0  0  0  0  0
  -28.0733  -31.8423   26.5430 H   0  0  0  0  0  0
  -28.2603  -38.0091   24.7480 H   0  0  0  0  0  0
  -28.1066  -36.2622   24.6331 H   0  0  0  0  0  0
  -27.2294  -37.1509   25.8860 H   0  0  0  0  0  0
  -20.9370  -29.8797   21.6868 H   0  0  0  0  0  0
  -26.0170  -38.2852   24.1376 H   0  0  0  0  0  0
  -30.0168  -17.9643   18.2893 H   0  0  0  0  0  0
  -32.4257  -19.4364   24.5878 H   0  0  0  0  0  0
  -32.0686  -20.0829   22.9879 H   0  0  0  0  0  0
  -33.3471  -18.8860   23.1943 H   0  0  0  0  0  0
  -27.8752  -24.5558   17.9545 H   0  0  0  0  0  0
  -26.8614  -23.3031   18.6527 H   0  0  0  0  0  0
  -28.3089  -22.8710   17.7513 H   0  0  0  0  0  0
  -28.2710  -25.7444   22.6248 H   0  0  0  0  0  0
  -29.7912  -25.1048   22.0038 H   0  0  0  0  0  0
  -28.5213  -24.0113   22.5558 H   0  0  0  0  0  0
  -31.5003  -17.2294   23.9761 H   0  0  0  0  0  0
  -30.3222  -18.4465   23.5438 H   0  0  0  0  0  0
  -29.2181  -17.2661   22.0355 H   0  0  0  0  0  0
  -29.7352  -23.9139   19.4985 H   0  0  0  0  0  0
  -27.0555  -24.7582   20.7431 H   0  0  0  0  0  0
  -28.6390  -22.3842   21.4221 H   0  0  0  0  0  0
  -28.7948  -15.5979   20.6177 H   0  0  0  0  0  0
  1 25  1  0  0  0
  1 30  2  0  0  0
  1 84  1  0  0  0
  2  3  1  0  0  0
  2 25  1  0  0  0
  2 87  1  0  0  0
  2 88  1  0  0  0
  3  4  1  0  0  0
  3 89  1  0  0  0
  3 90  1  0  0  0
  4  5  1  0  0  0
  4 91  1  0  0  0
  4 92  1  0  0  0
  5  6  1  0  0  0
  5 26  1  0  0  0
  5 93  1  0  0  0
  6 25  1  0  0  0
  6 94  1  0  0  0
  6 95  1  0  0  0
  7  8  2  0  0  0
  7 26  1  0  0  0
  7 29  1  0  0  0
  8  9  1  0  0  0
  8 22  1  0  0  0
  9 10  1  0  0  0
  9 27  2  0  0  0
 10 11  2  0  0  0
 10 15  1  0  0  0
 11 12  1  0  0  0
 11 96  1  0  0  0
 12 13  2  0  0  0
 12 97  1  0  0  0
 13 14  1  0  0  0
 13 31  1  0  0  0
 14 15  2  0  0  0
 14 98  1  0  0  0
 15 99  1  0  0  0
 16 17  2  0  0  0
 16 21  1  0  0  0
 16 31  1  0  0  0
 17 18  1  0  0  0
 17100  1  0  0  0
 18 19  2  0  0  0
 18101  1  0  0  0
 19 20  1  0  0  0
 19 24  1  0  0  0
 20 21  2  0  0  0
 20102  1  0  0  0
 21 23  1  0  0  0
 22 28  1  0  0  0
 22 32  2  0  0  0
 26 27  1  0  0  0
 28103  1  0  0  0
 28104  1  0  0  0
 29105  1  0  0  0
 29106  1  0  0  0
 33 34  1  0  0  0
 33 66  1  0  0  0
 33 70  2  0  0  0
 34 36  1  0  0  0
 34 59  1  0  0  0
 34107  1  0  0  0
 35 44  2  0  0  0
 35 45  1  0  0  0
 35 68  1  0  0  0
 36 56  1  0  0  0
 36108  1  0  0  0
 37 39  1  0  0  0
 37 47  1  0  0  0
 37 66  1  0  0  0
 37109  1  0  0  0
 38 43  2  0  0  0
 38 46  1  0  0  0
 38 47  1  0  0  0
 39 64  1  0  0  0
 39 67  2  0  0  0
 40 52  1  0  0  0
 40 53  2  0  0  0
 40 58  1  0  0  0
 41110  1  0  0  0
 41111  1  0  0  0
 41112  1  0  0  0
 41 48  1  0  0  0
 42 43  1  0  0  0
 42 66  1  0  0  0
 42113  1  0  0  0
 42114  1  0  0  0
 43 44  1  0  0  0
 44115  1  0  0  0
 45 46  2  0  0  0
 45116  1  0  0  0
 46117  1  0  0  0
 47118  1  0  0  0
 47119  1  0  0  0
 48 56  1  0  0  0
 48 65  1  0  0  0
 48120  1  0  0  0
 49 50  1  0  0  0
 49 53  1  0  0  0
 49 64  1  0  0  0
 49121  1  0  0  0
 50 51  1  0  0  0
 50122  1  0  0  0
 50123  1  0  0  0
 51 52  1  0  0  0
 51124  1  0  0  0
 51125  1  0  0  0
 52126  1  0  0  0
 52127  1  0  0  0
 53 54  1  0  0  0
 54 55  2  0  0  0
 54128  1  0  0  0
 55 57  1  0  0  0
 55129  1  0  0  0
 56 69  2  0  0  0
 57 58  2  0  0  0
 57130  1  0  0  0
 58131  1  0  0  0
 59 60  1  0  0  0
 59 61  1  0  0  0
 59 62  1  0  0  0
 60132  1  0  0  0
 60133  1  0  0  0
 60134  1  0  0  0
 61135  1  0  0  0
 61136  1  0  0  0
 61137  1  0  0  0
 62138  1  0  0  0
 62139  1  0  0  0
 62140  1  0  0  0
 63 65  1  0  0  0
 63141  1  0  0  0
 63142  1  0  0  0
 63143  1  0  0  0
 64144  1  0  0  0
 65145  1  0  0  0
 68 81  1  0  0  0
 71 72  2  0  0  0
 71 86  1  0  0  0
 71146  1  0  0  0
 72 79  1  0  0  0
 72 82  1  0  0  0
 73 82  2  0  0  0
 73 83  1  0  0  0
 73 86  1  0  0  0
 74 78  1  0  0  0
 74 79  1  0  0  0
 74 85  2  0  0  0
 75 78  1  0  0  0
 75147  1  0  0  0
 75148  1  0  0  0
 75149  1  0  0  0
 76150  1  0  0  0
 76151  1  0  0  0
 76152  1  0  0  0
 76 80  1  0  0  0
 77153  1  0  0  0
 77154  1  0  0  0
 77155  1  0  0  0
 77 81  1  0  0  0
 78156  1  0  0  0
 78157  1  0  0  0
 79 84  1  0  0  0
 79158  1  0  0  0
 80 81  1  0  0  0
 80 83  1  0  0  0
 80159  1  0  0  0
 81160  1  0  0  0
 83161  1  0  0  0
 84162  1  0  0  0
M  ISO  4   1 100  68 101  81 101  84 100
M  END
> <chiral flag>
0

> <version>
0

> <s_m_source_file>
/data/baiqing/PycharmProjects/Reinvent-master-3.2/result/LINK_invent/BTK/process_docking_weight1_custom_product_contain_oxygen_bond_distance_aromatic_linkinvent_7_9_3/rearranged_h_0186.sdf

> <i_m_source_file_index>
78

> <r_mmod_Potential_Energy-OPLS-2005>
-52.1668319702148

> <r_mmod_Stretch_Energy-OPLS-2005>
125.994773864746

> <r_mmod_Bend_Energy-OPLS-2005>
181.443313598633

> <r_mmod_Torsional_Energy-OPLS-2005>
215.758834838867

> <r_mmod_Improper_Torsional_Energy-OPLS-2005>
6.0739369392395

> <r_mmod_Van_der_Waal_Energy-OPLS-2005>
111.033767700195

> <r_mmod_Electrostatic_Energy-OPLS-2005>
-537.981384277344

> <r_mmod_Solvation_Energy-OPLS-2005>
-243.869873046875

> <b_mmod_Minimization_Converged-OPLS-2005>
0

> <r_mmod_RMS_Derivative-OPLS-2005>
3.06567239761353

$$$$
79
                    3D
 Structure written by MMmdl.
163171  0  0  1  0            999 V2000
  -30.6221  -14.7213   20.4236 C   0  0  0  0  0  0
  -30.4139  -12.4323   19.4672 C   0  0  0  0  0  0
  -29.4994  -12.4914   18.2252 C   0  0  0  0  0  0
  -28.0236  -12.3270   18.6378 C   0  0  0  0  0  0
  -27.6320  -13.2323   19.8381 C   0  0  2  0  0  0
  -28.6777  -13.1743   20.9723 C   0  0  0  0  0  0
  -25.2450  -13.8214   20.5675 C   0  0  0  0  0  0
  -24.1749  -13.0443   20.9190 C   0  0  0  0  0  0
  -24.6361  -11.6927   20.8729 C   0  0  0  0  0  0
  -23.9049  -10.4290   21.0384 C   0  0  0  0  0  0
  -24.3603   -9.4205   21.9155 C   0  0  0  0  0  0
  -23.6285   -8.2242   22.0736 C   0  0  0  0  0  0
  -22.4270   -8.0256   21.3523 C   0  0  0  0  0  0
  -21.9894   -9.0231   20.4631 C   0  0  0  0  0  0
  -22.7221  -10.2117   20.3036 C   0  0  0  0  0  0
  -21.6858   -6.0709   22.5261 C   0  0  0  0  0  0
  -21.4020   -6.5620   23.8191 C   0  0  0  0  0  0
  -21.3661   -5.6773   24.9157 C   0  0  0  0  0  0
  -21.6052   -4.3035   24.7210 C   0  0  0  0  0  0
  -21.8823   -3.8121   23.4334 C   0  0  0  0  0  0
  -21.9194   -4.6935   22.3393 C   0  0  0  0  0  0
  -22.7766  -13.5210   21.1852 C   0  0  0  0  0  0
  -22.1653   -4.2118   21.0968 F   0  0  0  0  0  0
  -21.5639   -3.4528   25.7728 F   0  0  0  0  0  0
  -29.9737  -13.5121   20.3795 N   0  0  0  0  0  0
  -26.2869  -12.9421   20.3228 N   0  0  0  0  0  0
  -25.9293  -11.6566   20.5730 N   0  0  0  0  0  0
  -22.0430  -12.8199   22.0429 N   0  0  0  0  0  0
  -25.4161  -15.1943   20.4117 N   0  0  0  0  0  0
  -31.8268  -14.7622   20.1707 O   0  0  0  0  0  0
  -21.6638   -6.8848   21.4216 O   0  0  0  0  0  0
  -22.3438  -14.5506   20.6691 O   0  0  0  0  0  0
  -24.6320  -31.8518   23.1941 C   0  0  0  0  0  0
  -25.9132  -32.4739   23.8304 C   0  0  1  0  0  0
  -27.2211  -27.2556   20.1261 C   0  0  0  0  0  0
  -25.5928  -33.8542   24.2242 N   0  0  0  0  0  0
  -23.4300  -30.4707   21.5393 C   0  0  2  0  0  0
  -24.8763  -28.9059   20.1195 C   0  0  0  0  0  0
  -22.7492  -29.4568   22.4911 C   0  0  0  0  0  0
  -18.0293  -28.1383   22.8479 C   0  0  0  0  0  0
  -24.1502  -36.7273   23.2639 C   0  0  0  0  0  0
  -25.9757  -30.7635   21.3744 C   0  0  0  0  0  0
  -26.0492  -29.3833   20.7179 C   0  0  0  0  0  0
  -27.2276  -28.5707   20.7020 C   0  0  0  0  0  0
  -26.0237  -26.8322   19.5174 C   0  0  0  0  0  0
  -24.8664  -27.6376   19.5132 C   0  0  0  0  0  0
  -23.6489  -29.7952   20.1603 C   0  0  0  0  0  0
  -25.4134  -36.3061   24.0319 C   0  0  1  0  0  0
  -20.5889  -28.3685   23.1273 C   0  0  2  0  0  0
  -20.6778  -26.9398   22.5413 C   0  0  0  0  0  0
  -19.5766  -26.6372   21.5207 C   0  0  0  0  0  0
  -18.1940  -26.7922   22.1616 C   0  0  0  0  0  0
  -19.1541  -28.8853   23.2863 C   0  0  0  0  0  0
  -18.9465  -30.1456   23.8880 C   0  0  0  0  0  0
  -17.6464  -30.6578   24.0559 C   0  0  0  0  0  0
  -25.9070  -34.9421   23.5085 C   0  0  0  0  0  0
  -16.5354  -29.9079   23.6331 C   0  0  0  0  0  0
  -16.7273  -28.6492   23.0352 C   0  0  0  0  0  0
  -26.4504  -31.6571   25.0698 C   0  0  0  0  0  0
  -25.3728  -31.3720   26.1415 C   0  0  0  0  0  0
  -27.0340  -30.2981   24.6200 C   0  0  0  0  0  0
  -27.6060  -32.4298   25.7475 C   0  0  0  0  0  0
  -27.5581  -37.1791   24.8457 C   0  0  0  0  0  0
  -21.4197  -29.3037   22.3659 N   0  0  0  0  0  0
  -26.4295  -37.3766   23.9395 N   0  0  0  0  0  0
  -24.6985  -31.0466   22.0938 N   0  0  0  0  0  0
  -23.4180  -28.8120   23.3023 O   0  0  0  0  0  0
  -28.3401  -26.3996   20.0757 O   0  0  0  0  0  0
  -26.5630  -34.8904   22.4657 O   0  0  0  0  0  0
  -23.5457  -32.1329   23.7246 O   0  0  0  0  0  0
  -28.1062  -18.5560   19.5367 C   0  0  0  0  0  0
  -29.3443  -18.5812   20.1368 C   0  0  0  0  0  0
  -28.7703  -20.9229   20.1025 C   0  0  0  0  0  0
  -33.0724  -19.0546   20.7745 C   0  0  0  0  0  0
  -29.0994  -23.9146   18.3793 C   0  0  0  0  0  0
  -32.9234  -17.7705   19.9469 C   0  0  0  0  0  0
  -28.2896  -24.9873   20.5960 C   0  0  0  0  0  0
  -30.3666  -17.3722   20.3176 C   0  0  2  0  0  0
  -28.3330  -23.6403   19.6801 C   0  0  2  0  0  0
  -31.5338  -17.6112   19.2803 C   0  0  2  0  0  0
  -29.6620  -19.9535   20.4792 N   0  0  0  0  0  0
  -28.8726  -22.3554   20.2995 N   0  0  0  0  0  0
  -29.8856  -15.9034   20.4107 N   0  0  0  0  0  0
  -31.5977  -16.6102   18.1987 N   0  3  0  0  0  0
  -27.3859  -20.1599   19.3238 S   0  0  0  0  0  0
  -31.4600  -12.5291   19.1737 H   0  0  0  0  0  0
  -30.3331  -11.4593   19.9570 H   0  0  0  0  0  0
  -29.7822  -11.7169   17.5113 H   0  0  0  0  0  0
  -29.6296  -13.4429   17.7068 H   0  0  0  0  0  0
  -27.8734  -11.2791   18.9011 H   0  0  0  0  0  0
  -27.3675  -12.5195   17.7874 H   0  0  0  0  0  0
  -27.6223  -14.2514   19.4493 H   0  0  0  0  0  0
  -28.7097  -12.1800   21.4225 H   0  0  0  0  0  0
  -28.4226  -13.8666   21.7760 H   0  0  0  0  0  0
  -25.2768   -9.5683   22.4705 H   0  0  0  0  0  0
  -23.9994   -7.4643   22.7485 H   0  0  0  0  0  0
  -21.0813   -8.8740   19.8969 H   0  0  0  0  0  0
  -22.3667  -10.9624   19.6128 H   0  0  0  0  0  0
  -21.2015   -7.6128   23.9680 H   0  0  0  0  0  0
  -21.1486   -6.0508   25.9057 H   0  0  0  0  0  0
  -22.0612   -2.7582   23.2840 H   0  0  0  0  0  0
  -22.4065  -11.9889   22.4849 H   0  0  0  0  0  0
  -21.1033  -13.1185   22.2617 H   0  0  0  0  0  0
  -24.6566  -15.8535   20.5468 H   0  0  0  0  0  0
  -26.2707  -15.6351   20.1037 H   0  0  0  0  0  0
  -26.7200  -32.5392   23.1047 H   0  0  0  0  0  0
  -25.0085  -33.9671   25.0394 H   0  0  0  0  0  0
  -22.7286  -31.2931   21.3865 H   0  0  0  0  0  0
  -23.3766  -35.9599   23.3301 H   0  0  0  0  0  0
  -24.3598  -36.8901   22.2053 H   0  0  0  0  0  0
  -23.7250  -37.6469   23.6676 H   0  0  0  0  0  0
  -26.1159  -31.5269   20.6082 H   0  0  0  0  0  0
  -26.8506  -30.8129   22.0109 H   0  0  0  0  0  0
  -28.1363  -28.9333   21.1613 H   0  0  0  0  0  0
  -25.9836  -25.8620   19.0424 H   0  0  0  0  0  0
  -23.9653  -27.2659   19.0457 H   0  0  0  0  0  0
  -23.7782  -30.5659   19.3998 H   0  0  0  0  0  0
  -22.7684  -29.2270   19.8552 H   0  0  0  0  0  0
  -25.1332  -36.1902   25.0809 H   0  0  0  0  0  0
  -20.9970  -28.3261   24.1399 H   0  0  0  0  0  0
  -20.5686  -26.2276   23.3606 H   0  0  0  0  0  0
  -21.6648  -26.7437   22.1205 H   0  0  0  0  0  0
  -19.6930  -25.6281   21.1241 H   0  0  0  0  0  0
  -19.6720  -27.3176   20.6735 H   0  0  0  0  0  0
  -17.4206  -26.6654   21.4017 H   0  0  0  0  0  0
  -18.0350  -26.0068   22.9023 H   0  0  0  0  0  0
  -19.7947  -30.7276   24.2214 H   0  0  0  0  0  0
  -17.5027  -31.6258   24.5173 H   0  0  0  0  0  0
  -15.5354  -30.2986   23.7656 H   0  0  0  0  0  0
  -15.8672  -28.0813   22.7080 H   0  0  0  0  0  0
  -24.5918  -30.7061   25.7747 H   0  0  0  0  0  0
  -24.8896  -32.2873   26.4819 H   0  0  0  0  0  0
  -25.8020  -30.8910   27.0209 H   0  0  0  0  0  0
  -26.2914  -29.6730   24.1227 H   0  0  0  0  0  0
  -27.4013  -29.7252   25.4724 H   0  0  0  0  0  0
  -27.8807  -30.4251   23.9453 H   0  0  0  0  0  0
  -27.2691  -33.3624   26.2013 H   0  0  0  0  0  0
  -28.3884  -32.6799   25.0302 H   0  0  0  0  0  0
  -28.0716  -31.8440   26.5411 H   0  0  0  0  0  0
  -28.2585  -38.0101   24.7512 H   0  0  0  0  0  0
  -28.1077  -36.2618   24.6278 H   0  0  0  0  0  0
  -27.2272  -37.1435   25.8850 H   0  0  0  0  0  0
  -20.9359  -29.8737   21.6863 H   0  0  0  0  0  0
  -26.0166  -38.2830   24.1416 H   0  0  0  0  0  0
  -27.5798  -17.6952   19.1465 H   0  0  0  0  0  0
  -34.1015  -19.1731   21.1125 H   0  0  0  0  0  0
  -32.4376  -19.0429   21.6601 H   0  0  0  0  0  0
  -32.8121  -19.9378   20.1899 H   0  0  0  0  0  0
  -29.1735  -23.0208   17.7593 H   0  0  0  0  0  0
  -30.1121  -24.2665   18.5785 H   0  0  0  0  0  0
  -28.6021  -24.6814   17.7842 H   0  0  0  0  0  0
  -33.1501  -16.9095   20.5784 H   0  0  0  0  0  0
  -33.6957  -17.7845   19.1762 H   0  0  0  0  0  0
  -29.1777  -24.9329   21.2271 H   0  0  0  0  0  0
  -27.4606  -24.9033   21.3001 H   0  0  0  0  0  0
  -30.7936  -17.5131   21.3106 H   0  0  0  0  0  0
  -27.3034  -23.4238   19.3904 H   0  0  0  0  0  0
  -31.3448  -18.5474   18.7512 H   0  0  0  0  0  0
  -29.6264  -22.5647   20.9450 H   0  0  0  0  0  0
  -28.8943  -15.7937   20.5526 H   0  0  0  0  0  0
  -30.7073  -16.5112   17.7422 H   0  0  0  0  0  0
  -31.8669  -15.7301   18.6236 H   0  0  0  0  0  0
  -32.2850  -16.8652   17.5111 H   0  0  0  0  0  0
  1 25  1  0  0  0
  1 30  2  0  0  0
  1 83  1  0  0  0
  2  3  1  0  0  0
  2 25  1  0  0  0
  2 86  1  0  0  0
  2 87  1  0  0  0
  3  4  1  0  0  0
  3 88  1  0  0  0
  3 89  1  0  0  0
  4  5  1  0  0  0
  4 90  1  0  0  0
  4 91  1  0  0  0
  5  6  1  0  0  0
  5 26  1  0  0  0
  5 92  1  0  0  0
  6 25  1  0  0  0
  6 93  1  0  0  0
  6 94  1  0  0  0
  7  8  2  0  0  0
  7 26  1  0  0  0
  7 29  1  0  0  0
  8  9  1  0  0  0
  8 22  1  0  0  0
  9 10  1  0  0  0
  9 27  2  0  0  0
 10 11  2  0  0  0
 10 15  1  0  0  0
 11 12  1  0  0  0
 11 95  1  0  0  0
 12 13  2  0  0  0
 12 96  1  0  0  0
 13 14  1  0  0  0
 13 31  1  0  0  0
 14 15  2  0  0  0
 14 97  1  0  0  0
 15 98  1  0  0  0
 16 17  2  0  0  0
 16 21  1  0  0  0
 16 31  1  0  0  0
 17 18  1  0  0  0
 17 99  1  0  0  0
 18 19  2  0  0  0
 18100  1  0  0  0
 19 20  1  0  0  0
 19 24  1  0  0  0
 20 21  2  0  0  0
 20101  1  0  0  0
 21 23  1  0  0  0
 22 28  1  0  0  0
 22 32  2  0  0  0
 26 27  1  0  0  0
 28102  1  0  0  0
 28103  1  0  0  0
 29104  1  0  0  0
 29105  1  0  0  0
 33 34  1  0  0  0
 33 66  1  0  0  0
 33 70  2  0  0  0
 34 36  1  0  0  0
 34 59  1  0  0  0
 34106  1  0  0  0
 35 44  2  0  0  0
 35 45  1  0  0  0
 35 68  1  0  0  0
 36 56  1  0  0  0
 36107  1  0  0  0
 37 39  1  0  0  0
 37 47  1  0  0  0
 37 66  1  0  0  0
 37108  1  0  0  0
 38 43  2  0  0  0
 38 46  1  0  0  0
 38 47  1  0  0  0
 39 64  1  0  0  0
 39 67  2  0  0  0
 40 52  1  0  0  0
 40 53  2  0  0  0
 40 58  1  0  0  0
 41109  1  0  0  0
 41110  1  0  0  0
 41111  1  0  0  0
 41 48  1  0  0  0
 42 43  1  0  0  0
 42 66  1  0  0  0
 42112  1  0  0  0
 42113  1  0  0  0
 43 44  1  0  0  0
 44114  1  0  0  0
 45 46  2  0  0  0
 45115  1  0  0  0
 46116  1  0  0  0
 47117  1  0  0  0
 47118  1  0  0  0
 48 56  1  0  0  0
 48 65  1  0  0  0
 48119  1  0  0  0
 49 50  1  0  0  0
 49 53  1  0  0  0
 49 64  1  0  0  0
 49120  1  0  0  0
 50 51  1  0  0  0
 50121  1  0  0  0
 50122  1  0  0  0
 51 52  1  0  0  0
 51123  1  0  0  0
 51124  1  0  0  0
 52125  1  0  0  0
 52126  1  0  0  0
 53 54  1  0  0  0
 54 55  2  0  0  0
 54127  1  0  0  0
 55 57  1  0  0  0
 55128  1  0  0  0
 56 69  2  0  0  0
 57 58  2  0  0  0
 57129  1  0  0  0
 58130  1  0  0  0
 59 60  1  0  0  0
 59 61  1  0  0  0
 59 62  1  0  0  0
 60131  1  0  0  0
 60132  1  0  0  0
 60133  1  0  0  0
 61134  1  0  0  0
 61135  1  0  0  0
 61136  1  0  0  0
 62137  1  0  0  0
 62138  1  0  0  0
 62139  1  0  0  0
 63 65  1  0  0  0
 63140  1  0  0  0
 63141  1  0  0  0
 63142  1  0  0  0
 64143  1  0  0  0
 65144  1  0  0  0
 68 77  1  0  0  0
 71 72  2  0  0  0
 71 85  1  0  0  0
 71145  1  0  0  0
 72 78  1  0  0  0
 72 81  1  0  0  0
 73 81  2  0  0  0
 73 82  1  0  0  0
 73 85  1  0  0  0
 74 76  1  0  0  0
 74146  1  0  0  0
 74147  1  0  0  0
 74148  1  0  0  0
 75149  1  0  0  0
 75150  1  0  0  0
 75151  1  0  0  0
 75 79  1  0  0  0
 76 80  1  0  0  0
 76152  1  0  0  0
 76153  1  0  0  0
 77 79  1  0  0  0
 77154  1  0  0  0
 77155  1  0  0  0
 78 80  1  0  0  0
 78 83  1  0  0  0
 78156  1  0  0  0
 79 82  1  0  0  0
 79157  1  0  0  0
 80 84  1  0  0  0
 80158  1  0  0  0
 82159  1  0  0  0
 83160  1  0  0  0
 84161  1  0  0  0
 84162  1  0  0  0
 84163  1  0  0  0
M  CHG  1  84   1
M  ISO  4   1 100  68 101  77 101  83 100
M  END
> <chiral flag>
0

> <version>
0

> <s_m_source_file>
/data/baiqing/PycharmProjects/Reinvent-master-3.2/result/LINK_invent/BTK/process_docking_weight1_custom_product_contain_oxygen_bond_distance_aromatic_linkinvent_7_9_3/rearranged_h_0186.sdf

> <i_m_source_file_index>
79

> <r_mmod_Potential_Energy-OPLS-2005>
-244.555465698242

> <r_mmod_Stretch_Energy-OPLS-2005>
126.520851135254

> <r_mmod_Bend_Energy-OPLS-2005>
181.562072753906

> <r_mmod_Torsional_Energy-OPLS-2005>
278.631591796875

> <r_mmod_Improper_Torsional_Energy-OPLS-2005>
9.34413719177246

> <r_mmod_Van_der_Waal_Energy-OPLS-2005>
120.90943145752

> <r_mmod_Electrostatic_Energy-OPLS-2005>
-574.852111816406

> <r_mmod_Solvation_Energy-OPLS-2005>
-466.793151855469

> <b_mmod_Minimization_Converged-OPLS-2005>
0

> <r_mmod_RMS_Derivative-OPLS-2005>
2.96428394317627

$$$$
80
                    3D
 Structure written by MMmdl.
156164  0  0  1  0            999 V2000
  -30.6708  -14.5496   20.5978 C   0  0  0  0  0  0
  -30.4246  -12.3592   19.4307 C   0  0  0  0  0  0
  -29.4949  -12.5283   18.2124 C   0  0  0  0  0  0
  -28.0199  -12.3633   18.6191 C   0  0  0  0  0  0
  -27.6602  -13.2086   19.8713 C   0  0  2  0  0  0
  -28.7009  -13.0114   20.9975 C   0  0  0  0  0  0
  -25.2602  -13.8160   20.5659 C   0  0  0  0  0  0
  -24.1864  -13.0441   20.9170 C   0  0  0  0  0  0
  -24.6414  -11.6902   20.8726 C   0  0  0  0  0  0
  -23.9079  -10.4290   21.0396 C   0  0  0  0  0  0
  -24.3642   -9.4202   21.9172 C   0  0  0  0  0  0
  -23.6313   -8.2246   22.0750 C   0  0  0  0  0  0
  -22.4293   -8.0289   21.3552 C   0  0  0  0  0  0
  -21.9930   -9.0253   20.4649 C   0  0  0  0  0  0
  -22.7252  -10.2130   20.3040 C   0  0  0  0  0  0
  -21.6857   -6.0735   22.5287 C   0  0  0  0  0  0
  -21.4021   -6.5642   23.8218 C   0  0  0  0  0  0
  -21.3659   -5.6802   24.9183 C   0  0  0  0  0  0
  -21.6048   -4.3065   24.7237 C   0  0  0  0  0  0
  -21.8822   -3.8147   23.4361 C   0  0  0  0  0  0
  -21.9195   -4.6960   22.3413 C   0  0  0  0  0  0
  -22.7884  -13.5235   21.1841 C   0  0  0  0  0  0
  -22.1640   -4.2139   21.0987 F   0  0  0  0  0  0
  -21.5638   -3.4544   25.7747 F   0  0  0  0  0  0
  -30.0270  -13.3481   20.4542 N   0  0  0  0  0  0
  -26.3027  -12.9325   20.3333 N   0  0  0  0  0  0
  -25.9336  -11.6487   20.5757 N   0  0  0  0  0  0
  -22.0532  -12.8232   22.0403 N   0  0  0  0  0  0
  -25.4362  -15.1894   20.4073 N   0  0  0  0  0  0
  -31.7299  -14.7805   20.0100 O   0  0  0  0  0  0
  -21.6653   -6.8888   21.4251 O   0  0  0  0  0  0
  -22.3553  -14.5529   20.6665 O   0  0  0  0  0  0
  -24.6195  -31.8635   23.2060 C   0  0  0  0  0  0
  -25.9052  -32.4817   23.8381 C   0  0  1  0  0  0
  -27.2329  -27.3722   20.0987 C   0  0  0  0  0  0
  -25.5880  -33.8617   24.2305 N   0  0  0  0  0  0
  -23.4133  -30.4842   21.5488 C   0  0  2  0  0  0
  -24.8621  -28.9452   20.1147 C   0  0  0  0  0  0
  -22.7447  -29.4610   22.4961 C   0  0  0  0  0  0
  -18.0269  -28.1383   22.8483 C   0  0  0  0  0  0
  -24.1486  -36.7304   23.2639 C   0  0  0  0  0  0
  -25.9500  -30.8119   21.3688 C   0  0  0  0  0  0
  -26.0293  -29.4423   20.7086 C   0  0  0  0  0  0
  -27.2222  -28.6686   20.6864 C   0  0  0  0  0  0
  -26.0459  -26.9109   19.4902 C   0  0  0  0  0  0
  -24.8695  -27.6829   19.4985 C   0  0  0  0  0  0
  -23.6262  -29.8178   20.1638 C   0  0  0  0  0  0
  -25.4116  -36.3121   24.0336 C   0  0  1  0  0  0
  -20.5872  -28.3666   23.1304 C   0  0  2  0  0  0
  -20.6765  -26.9393   22.5411 C   0  0  0  0  0  0
  -19.5747  -26.6380   21.5206 C   0  0  0  0  0  0
  -18.1927  -26.7928   22.1621 C   0  0  0  0  0  0
  -19.1526  -28.8838   23.2897 C   0  0  0  0  0  0
  -18.9445  -30.1447   23.8910 C   0  0  0  0  0  0
  -17.6448  -30.6587   24.0554 C   0  0  0  0  0  0
  -25.9037  -34.9478   23.5127 C   0  0  0  0  0  0
  -16.5335  -29.9092   23.6325 C   0  0  0  0  0  0
  -16.7258  -28.6507   23.0347 C   0  0  0  0  0  0
  -26.4450  -31.6624   25.0736 C   0  0  0  0  0  0
  -25.3678  -31.3760   26.1461 C   0  0  0  0  0  0
  -27.0278  -30.3061   24.6156 C   0  0  0  0  0  0
  -27.6043  -32.4343   25.7482 C   0  0  0  0  0  0
  -27.5591  -37.1809   24.8461 C   0  0  0  0  0  0
  -21.4163  -29.3030   22.3711 N   0  0  0  0  0  0
  -26.4305  -37.3805   23.9403 N   0  0  0  0  0  0
  -24.6795  -31.0675   22.0988 N   0  0  0  0  0  0
  -23.4191  -28.8127   23.3004 O   0  0  0  0  0  0
  -28.3663  -26.5639   20.0956 O   0  0  0  0  0  0
  -26.5614  -34.8923   22.4700 O   0  0  0  0  0  0
  -23.5369  -32.1396   23.7406 O   0  0  0  0  0  0
  -29.6954  -17.8782   20.2940 C   0  0  0  0  0  0
  -29.8260  -17.6966   18.9327 C   0  0  0  0  0  0
  -29.3885  -20.0731   19.5805 C   0  0  0  0  0  0
  -29.7275  -16.8340   21.3805 C   0  0  0  0  0  0
  -30.0634  -15.5115   21.5315 C   0  0  0  0  0  0
  -30.0810  -22.6550   21.5312 C   0  0  0  0  0  0
  -28.1993  -25.1952   20.5957 C   0  0  0  0  0  0
  -28.9485  -22.6041   20.4962 C   0  0  1  0  0  0
  -28.7872  -23.9967   19.7428 C   0  0  1  0  0  0
  -29.4527  -19.2411   20.6410 N   0  0  0  0  0  0
  -30.0603  -16.5374   18.2025 N   0  0  0  0  0  0
  -29.1781  -21.4753   19.5650 N   0  0  0  0  0  0
  -27.9018  -23.7291   18.6657 O   0  0  0  0  0  0
  -29.6224  -19.2058   18.0627 S   0  0  0  0  0  0
  -31.4645  -12.4683   19.1244 H   0  0  0  0  0  0
  -30.3440  -11.3476   19.8319 H   0  0  0  0  0  0
  -29.7517  -11.8088   17.4341 H   0  0  0  0  0  0
  -29.6396  -13.5166   17.7766 H   0  0  0  0  0  0
  -27.8479  -11.3058   18.8231 H   0  0  0  0  0  0
  -27.3692  -12.6185   17.7797 H   0  0  0  0  0  0
  -27.6994  -14.2540   19.5642 H   0  0  0  0  0  0
  -28.7028  -11.9784   21.3476 H   0  0  0  0  0  0
  -28.4229  -13.6059   21.8666 H   0  0  0  0  0  0
  -25.2784   -9.5686   22.4746 H   0  0  0  0  0  0
  -24.0016   -7.4655   22.7490 H   0  0  0  0  0  0
  -21.0845   -8.8786   19.8974 H   0  0  0  0  0  0
  -22.3705  -10.9678   19.6162 H   0  0  0  0  0  0
  -21.2002   -7.6147   23.9721 H   0  0  0  0  0  0
  -21.1482   -6.0526   25.9087 H   0  0  0  0  0  0
  -22.0600   -2.7607   23.2869 H   0  0  0  0  0  0
  -22.4125  -11.9864   22.4768 H   0  0  0  0  0  0
  -21.1155  -13.1280   22.2618 H   0  0  0  0  0  0
  -24.6813  -15.8551   20.5275 H   0  0  0  0  0  0
  -26.3044  -15.6261   20.1223 H   0  0  0  0  0  0
  -26.7111  -32.5504   23.1133 H   0  0  0  0  0  0
  -25.0004  -33.9785   25.0436 H   0  0  0  0  0  0
  -22.7060  -31.3037   21.4075 H   0  0  0  0  0  0
  -23.3767  -35.9618   23.3317 H   0  0  0  0  0  0
  -24.3571  -36.8906   22.2048 H   0  0  0  0  0  0
  -23.7214  -37.6503   23.6642 H   0  0  0  0  0  0
  -26.0739  -31.5828   20.6066 H   0  0  0  0  0  0
  -26.8330  -30.8605   21.9943 H   0  0  0  0  0  0
  -28.1274  -29.0512   21.1380 H   0  0  0  0  0  0
  -26.0264  -25.9458   19.0045 H   0  0  0  0  0  0
  -23.9740  -27.3013   19.0297 H   0  0  0  0  0  0
  -23.7394  -30.5960   19.4076 H   0  0  0  0  0  0
  -22.7482  -29.2421   19.8637 H   0  0  0  0  0  0
  -25.1303  -36.1996   25.0831 H   0  0  0  0  0  0
  -20.9962  -28.3217   24.1427 H   0  0  0  0  0  0
  -20.5665  -26.2252   23.3594 H   0  0  0  0  0  0
  -21.6630  -26.7425   22.1201 H   0  0  0  0  0  0
  -19.6903  -25.6294   21.1232 H   0  0  0  0  0  0
  -19.6709  -27.3190   20.6740 H   0  0  0  0  0  0
  -17.4196  -26.6663   21.4027 H   0  0  0  0  0  0
  -18.0331  -26.0076   22.9021 H   0  0  0  0  0  0
  -19.7921  -30.7254   24.2295 H   0  0  0  0  0  0
  -17.5003  -31.6273   24.5145 H   0  0  0  0  0  0
  -15.5343  -30.2997   23.7651 H   0  0  0  0  0  0
  -15.8654  -28.0830   22.7069 H   0  0  0  0  0  0
  -24.5844  -30.7134   25.7756 H   0  0  0  0  0  0
  -24.8864  -32.2922   26.4893 H   0  0  0  0  0  0
  -25.7970  -30.8907   27.0234 H   0  0  0  0  0  0
  -26.2834  -29.6855   24.1149 H   0  0  0  0  0  0
  -27.3957  -29.7291   25.4650 H   0  0  0  0  0  0
  -27.8713  -30.4384   23.9378 H   0  0  0  0  0  0
  -27.2691  -33.3638   26.2100 H   0  0  0  0  0  0
  -28.3810  -32.6918   25.0265 H   0  0  0  0  0  0
  -28.0757  -31.8440   26.5354 H   0  0  0  0  0  0
  -28.2617  -38.0102   24.7530 H   0  0  0  0  0  0
  -28.1086  -36.2640   24.6276 H   0  0  0  0  0  0
  -27.2302  -37.1433   25.8861 H   0  0  0  0  0  0
  -20.9320  -29.8754   21.6940 H   0  0  0  0  0  0
  -26.0207  -38.2884   24.1427 H   0  0  0  0  0  0
  -29.3440  -17.2477   22.3023 H   0  0  0  0  0  0
  -29.8909  -15.1182   22.5222 H   0  0  0  0  0  0
  -29.8730  -23.3837   22.3134 H   0  0  0  0  0  0
  -31.0305  -22.9275   21.0686 H   0  0  0  0  0  0
  -30.2155  -21.6935   22.0268 H   0  0  0  0  0  0
  -28.7224  -25.2004   21.5517 H   0  0  0  0  0  0
  -27.1656  -24.9747   20.8628 H   0  0  0  0  0  0
  -28.0154  -22.3956   21.0234 H   0  0  0  0  0  0
  -29.7504  -24.3029   19.3291 H   0  0  0  0  0  0
  -30.2745  -16.6453   17.2183 H   0  0  0  0  0  0
  -30.7035  -15.8793   18.6386 H   0  0  0  0  0  0
  -29.0971  -21.8227   18.6124 H   0  0  0  0  0  0
  -27.1277  -23.3132   19.0321 H   0  0  0  0  0  0
  1 25  1  0  0  0
  1 30  2  0  0  0
  1 75  1  0  0  0
  2  3  1  0  0  0
  2 25  1  0  0  0
  2 85  1  0  0  0
  2 86  1  0  0  0
  3  4  1  0  0  0
  3 87  1  0  0  0
  3 88  1  0  0  0
  4  5  1  0  0  0
  4 89  1  0  0  0
  4 90  1  0  0  0
  5  6  1  0  0  0
  5 26  1  0  0  0
  5 91  1  0  0  0
  6 25  1  0  0  0
  6 92  1  0  0  0
  6 93  1  0  0  0
  7  8  2  0  0  0
  7 26  1  0  0  0
  7 29  1  0  0  0
  8  9  1  0  0  0
  8 22  1  0  0  0
  9 10  1  0  0  0
  9 27  2  0  0  0
 10 11  2  0  0  0
 10 15  1  0  0  0
 11 12  1  0  0  0
 11 94  1  0  0  0
 12 13  2  0  0  0
 12 95  1  0  0  0
 13 14  1  0  0  0
 13 31  1  0  0  0
 14 15  2  0  0  0
 14 96  1  0  0  0
 15 97  1  0  0  0
 16 17  2  0  0  0
 16 21  1  0  0  0
 16 31  1  0  0  0
 17 18  1  0  0  0
 17 98  1  0  0  0
 18 19  2  0  0  0
 18 99  1  0  0  0
 19 20  1  0  0  0
 19 24  1  0  0  0
 20 21  2  0  0  0
 20100  1  0  0  0
 21 23  1  0  0  0
 22 28  1  0  0  0
 22 32  2  0  0  0
 26 27  1  0  0  0
 28101  1  0  0  0
 28102  1  0  0  0
 29103  1  0  0  0
 29104  1  0  0  0
 33 34  1  0  0  0
 33 66  1  0  0  0
 33 70  2  0  0  0
 34 36  1  0  0  0
 34 59  1  0  0  0
 34105  1  0  0  0
 35 44  2  0  0  0
 35 45  1  0  0  0
 35 68  1  0  0  0
 36 56  1  0  0  0
 36106  1  0  0  0
 37 39  1  0  0  0
 37 47  1  0  0  0
 37 66  1  0  0  0
 37107  1  0  0  0
 38 43  2  0  0  0
 38 46  1  0  0  0
 38 47  1  0  0  0
 39 64  1  0  0  0
 39 67  2  0  0  0
 40 52  1  0  0  0
 40 53  2  0  0  0
 40 58  1  0  0  0
 41108  1  0  0  0
 41109  1  0  0  0
 41110  1  0  0  0
 41 48  1  0  0  0
 42 43  1  0  0  0
 42 66  1  0  0  0
 42111  1  0  0  0
 42112  1  0  0  0
 43 44  1  0  0  0
 44113  1  0  0  0
 45 46  2  0  0  0
 45114  1  0  0  0
 46115  1  0  0  0
 47116  1  0  0  0
 47117  1  0  0  0
 48 56  1  0  0  0
 48 65  1  0  0  0
 48118  1  0  0  0
 49 50  1  0  0  0
 49 53  1  0  0  0
 49 64  1  0  0  0
 49119  1  0  0  0
 50 51  1  0  0  0
 50120  1  0  0  0
 50121  1  0  0  0
 51 52  1  0  0  0
 51122  1  0  0  0
 51123  1  0  0  0
 52124  1  0  0  0
 52125  1  0  0  0
 53 54  1  0  0  0
 54 55  2  0  0  0
 54126  1  0  0  0
 55 57  1  0  0  0
 55127  1  0  0  0
 56 69  2  0  0  0
 57 58  2  0  0  0
 57128  1  0  0  0
 58129  1  0  0  0
 59 60  1  0  0  0
 59 61  1  0  0  0
 59 62  1  0  0  0
 60130  1  0  0  0
 60131  1  0  0  0
 60132  1  0  0  0
 61133  1  0  0  0
 61134  1  0  0  0
 61135  1  0  0  0
 62136  1  0  0  0
 62137  1  0  0  0
 62138  1  0  0  0
 63 65  1  0  0  0
 63139  1  0  0  0
 63140  1  0  0  0
 63141  1  0  0  0
 64142  1  0  0  0
 65143  1  0  0  0
 68 77  1  0  0  0
 71 72  2  0  0  0
 71 74  1  0  0  0
 71 80  1  0  0  0
 72 81  1  0  0  0
 72 84  1  0  0  0
 73 80  2  0  0  0
 73 82  1  0  0  0
 73 84  1  0  0  0
 74 75  2  0  0  0
 74144  1  0  0  0
 75145  1  0  0  0
 76146  1  0  0  0
 76147  1  0  0  0
 76148  1  0  0  0
 76 78  1  0  0  0
 77 79  1  0  0  0
 77149  1  0  0  0
 77150  1  0  0  0
 78 79  1  0  0  0
 78 82  1  0  0  0
 78151  1  0  0  0
 79 83  1  0  0  0
 79152  1  0  0  0
 81153  1  0  0  0
 81154  1  0  0  0
 82155  1  0  0  0
 83156  1  0  0  0
M  ISO  4   1 100  68 101  75 100  77 101
M  END
> <chiral flag>
0

> <version>
0

> <s_m_source_file>
/data/baiqing/PycharmProjects/Reinvent-master-3.2/result/LINK_invent/BTK/process_docking_weight1_custom_product_contain_oxygen_bond_distance_aromatic_linkinvent_7_9_3/rearranged_h_0186.sdf

> <i_m_source_file_index>
80

> <r_mmod_Potential_Energy-OPLS-2005>
-15.7906455993652

> <r_mmod_Stretch_Energy-OPLS-2005>
60.0345230102539

> <r_mmod_Bend_Energy-OPLS-2005>
155.563812255859

> <r_mmod_Torsional_Energy-OPLS-2005>
228.001708984375

> <r_mmod_Improper_Torsional_Energy-OPLS-2005>
7.03373670578003

> <r_mmod_Van_der_Waal_Energy-OPLS-2005>
123.085990905762

> <r_mmod_Electrostatic_Energy-OPLS-2005>
-397.498809814453

> <r_mmod_Solvation_Energy-OPLS-2005>
-217.149429321289

> <b_mmod_Minimization_Converged-OPLS-2005>
0

> <r_mmod_RMS_Derivative-OPLS-2005>
2.80804109573364

$$$$
81
                    3D
 Structure written by MMmdl.
151159  0  0  1  0            999 V2000
  -30.6182  -14.6782   20.4327 C   0  0  0  0  0  0
  -30.4220  -12.3926   19.4936 C   0  0  0  0  0  0
  -29.5150  -12.4860   18.2470 C   0  0  0  0  0  0
  -28.0331  -12.3321   18.6416 C   0  0  0  0  0  0
  -27.6401  -13.2263   19.8478 C   0  0  2  0  0  0
  -28.6750  -13.1443   20.9865 C   0  0  0  0  0  0
  -25.2483  -13.8219   20.5644 C   0  0  0  0  0  0
  -24.1786  -13.0469   20.9213 C   0  0  0  0  0  0
  -24.6342  -11.6931   20.8730 C   0  0  0  0  0  0
  -23.9026  -10.4311   21.0403 C   0  0  0  0  0  0
  -24.3607   -9.4228   21.9173 C   0  0  0  0  0  0
  -23.6298   -8.2248   22.0744 C   0  0  0  0  0  0
  -22.4263   -8.0290   21.3555 C   0  0  0  0  0  0
  -21.9900   -9.0248   20.4645 C   0  0  0  0  0  0
  -22.7206  -10.2129   20.3065 C   0  0  0  0  0  0
  -21.6870   -6.0720   22.5270 C   0  0  0  0  0  0
  -21.4015   -6.5626   23.8202 C   0  0  0  0  0  0
  -21.3681   -5.6779   24.9169 C   0  0  0  0  0  0
  -21.6055   -4.3042   24.7222 C   0  0  0  0  0  0
  -21.8827   -3.8139   23.4344 C   0  0  0  0  0  0
  -21.9192   -4.6945   22.3395 C   0  0  0  0  0  0
  -22.7817  -13.5260   21.1885 C   0  0  0  0  0  0
  -22.1670   -4.2130   21.0970 F   0  0  0  0  0  0
  -21.5632   -3.4531   25.7742 F   0  0  0  0  0  0
  -29.9927  -13.4573   20.4260 N   0  0  0  0  0  0
  -26.2890  -12.9399   20.3220 N   0  0  0  0  0  0
  -25.9263  -11.6542   20.5697 N   0  0  0  0  0  0
  -22.0472  -12.8245   22.0470 N   0  0  0  0  0  0
  -25.4169  -15.1954   20.3984 N   0  0  0  0  0  0
  -31.8084  -14.7420   20.1073 O   0  0  0  0  0  0
  -21.6653   -6.8870   21.4237 O   0  0  0  0  0  0
  -22.3479  -14.5533   20.6682 O   0  0  0  0  0  0
  -24.6255  -31.8626   23.2044 C   0  0  0  0  0  0
  -25.9106  -32.4797   23.8375 C   0  0  1  0  0  0
  -27.2298  -27.3527   20.1184 C   0  0  0  0  0  0
  -25.5932  -33.8601   24.2321 N   0  0  0  0  0  0
  -23.4170  -30.4835   21.5474 C   0  0  2  0  0  0
  -24.8644  -28.9385   20.1098 C   0  0  0  0  0  0
  -22.7497  -29.4629   22.4976 C   0  0  0  0  0  0
  -18.0292  -28.1346   22.8485 C   0  0  0  0  0  0
  -24.1479  -36.7294   23.2637 C   0  0  0  0  0  0
  -25.9510  -30.8039   21.3658 C   0  0  0  0  0  0
  -26.0298  -29.4322   20.7107 C   0  0  0  0  0  0
  -27.2189  -28.6505   20.7051 C   0  0  0  0  0  0
  -26.0544  -26.9039   19.4865 C   0  0  0  0  0  0
  -24.8778  -27.6777   19.4894 C   0  0  0  0  0  0
  -23.6275  -29.8134   20.1617 C   0  0  0  0  0  0
  -25.4098  -36.3110   24.0350 C   0  0  1  0  0  0
  -20.5887  -28.3641   23.1328 C   0  0  2  0  0  0
  -20.6776  -26.9374   22.5422 C   0  0  0  0  0  0
  -19.5770  -26.6334   21.5216 C   0  0  0  0  0  0
  -18.1956  -26.7878   22.1628 C   0  0  0  0  0  0
  -19.1534  -28.8817   23.2883 C   0  0  0  0  0  0
  -18.9438  -30.1429   23.8887 C   0  0  0  0  0  0
  -17.6442  -30.6562   24.0538 C   0  0  0  0  0  0
  -25.9052  -34.9469   23.5134 C   0  0  0  0  0  0
  -16.5343  -29.9060   23.6311 C   0  0  0  0  0  0
  -16.7274  -28.6468   23.0347 C   0  0  0  0  0  0
  -26.4508  -31.6587   25.0709 C   0  0  0  0  0  0
  -25.3782  -31.3689   26.1460 C   0  0  0  0  0  0
  -27.0338  -30.3026   24.6092 C   0  0  0  0  0  0
  -27.6075  -32.4330   25.7474 C   0  0  0  0  0  0
  -27.5590  -37.1791   24.8460 C   0  0  0  0  0  0
  -21.4210  -29.3005   22.3708 N   0  0  0  0  0  0
  -26.4281  -37.3805   23.9427 N   0  0  0  0  0  0
  -24.6839  -31.0671   22.0974 N   0  0  0  0  0  0
  -23.4224  -28.8184   23.3061 O   0  0  0  0  0  0
  -28.3455  -26.5149   20.1348 O   0  0  0  0  0  0
  -26.5592  -34.8936   22.4693 O   0  0  0  0  0  0
  -23.5422  -32.1391   23.7386 O   0  0  0  0  0  0
  -27.6161  -20.4585   20.2050 C   0  0  0  0  0  0
  -28.1231  -19.1037   20.1539 C   0  0  0  0  0  0
  -28.5261  -21.4410   20.5387 C   0  0  0  0  0  0
  -29.4538  -18.9929   20.4870 C   0  0  0  0  0  0
  -28.7775  -23.9476   20.3377 C   0  0  0  0  0  0
  -27.1075  -25.1850   21.9439 C   0  0  0  0  0  0
  -28.3367  -25.3189   21.0113 C   0  0  2  0  0  0
  -28.2360  -22.7767   20.7922 N   0  0  0  0  0  0
  -29.8860  -15.8988   20.6622 N   0  0  0  0  0  0
  -29.6223  -23.9596   19.4389 O   0  0  0  0  0  0
  -31.3544  -17.6158   19.3395 O   0  0  0  0  0  0
  -31.3317  -17.7203   21.8716 O   0  0  0  0  0  0
  -30.0812  -20.6313   20.7952 S   0  0  0  0  0  0
  -30.6003  -17.5373   20.6063 S   0  0  0  0  0  0
  -31.4702  -12.4902   19.2005 H   0  0  0  0  0  0
  -30.3334  -11.4115   19.9656 H   0  0  0  0  0  0
  -29.7917  -11.7254   17.5133 H   0  0  0  0  0  0
  -29.6692  -13.4492   17.7601 H   0  0  0  0  0  0
  -27.8588  -11.2821   18.8780 H   0  0  0  0  0  0
  -27.3994  -12.5585   17.7843 H   0  0  0  0  0  0
  -27.6448  -14.2520   19.4782 H   0  0  0  0  0  0
  -28.6821  -12.1497   21.4417 H   0  0  0  0  0  0
  -28.4171  -13.8374   21.7884 H   0  0  0  0  0  0
  -25.2757   -9.5717   22.4725 H   0  0  0  0  0  0
  -24.0023   -7.4649   22.7452 H   0  0  0  0  0  0
  -21.0842   -8.8777   19.8946 H   0  0  0  0  0  0
  -22.3690  -10.9660   19.6172 H   0  0  0  0  0  0
  -21.2014   -7.6133   23.9720 H   0  0  0  0  0  0
  -21.1502   -6.0492   25.9067 H   0  0  0  0  0  0
  -22.0584   -2.7597   23.2852 H   0  0  0  0  0  0
  -22.4081  -11.9883   22.4824 H   0  0  0  0  0  0
  -21.1087  -13.1242   22.2684 H   0  0  0  0  0  0
  -24.6438  -15.8440   20.5070 H   0  0  0  0  0  0
  -26.2355  -15.6259   19.9908 H   0  0  0  0  0  0
  -26.7191  -32.5481   23.1154 H   0  0  0  0  0  0
  -25.0156  -33.9723   25.0522 H   0  0  0  0  0  0
  -22.7073  -31.3024   21.4093 H   0  0  0  0  0  0
  -23.3770  -35.9604   23.3266 H   0  0  0  0  0  0
  -24.3558  -36.8902   22.2049 H   0  0  0  0  0  0
  -23.7192  -37.6484   23.6654 H   0  0  0  0  0  0
  -26.0746  -31.5697   20.5991 H   0  0  0  0  0  0
  -26.8355  -30.8591   21.9888 H   0  0  0  0  0  0
  -28.1178  -29.0285   21.1709 H   0  0  0  0  0  0
  -26.0380  -25.9333   19.0173 H   0  0  0  0  0  0
  -23.9833  -27.2961   19.0191 H   0  0  0  0  0  0
  -23.7464  -30.5917   19.4069 H   0  0  0  0  0  0
  -22.7439  -29.2458   19.8642 H   0  0  0  0  0  0
  -25.1281  -36.1958   25.0846 H   0  0  0  0  0  0
  -21.0028  -28.3202   24.1439 H   0  0  0  0  0  0
  -20.5712  -26.2252   23.3588 H   0  0  0  0  0  0
  -21.6635  -26.7453   22.1202 H   0  0  0  0  0  0
  -19.6926  -25.6262   21.1199 H   0  0  0  0  0  0
  -19.6669  -27.3171   20.6759 H   0  0  0  0  0  0
  -17.4246  -26.6709   21.3998 H   0  0  0  0  0  0
  -18.0315  -25.9980   22.8984 H   0  0  0  0  0  0
  -19.7916  -30.7234   24.2271 H   0  0  0  0  0  0
  -17.5023  -31.6234   24.5146 H   0  0  0  0  0  0
  -15.5341  -30.2956   23.7648 H   0  0  0  0  0  0
  -15.8700  -28.0765   22.7072 H   0  0  0  0  0  0
  -24.5928  -30.7061   25.7813 H   0  0  0  0  0  0
  -24.9029  -32.2847   26.5001 H   0  0  0  0  0  0
  -25.8136  -30.8792   27.0174 H   0  0  0  0  0  0
  -26.2887  -29.6785   24.1142 H   0  0  0  0  0  0
  -27.4108  -29.7238   25.4539 H   0  0  0  0  0  0
  -27.8728  -30.4341   23.9246 H   0  0  0  0  0  0
  -27.2677  -33.3608   26.2095 H   0  0  0  0  0  0
  -28.3860  -32.6925   25.0291 H   0  0  0  0  0  0
  -28.0803  -31.8447   26.5342 H   0  0  0  0  0  0
  -28.2618  -38.0097   24.7571 H   0  0  0  0  0  0
  -28.1077  -36.2631   24.6220 H   0  0  0  0  0  0
  -27.2292  -37.1349   25.8858 H   0  0  0  0  0  0
  -20.9394  -29.8747   21.6924 H   0  0  0  0  0  0
  -26.0157  -38.2874   24.1475 H   0  0  0  0  0  0
  -26.5747  -20.6682   20.0030 H   0  0  0  0  0  0
  -27.4814  -18.2773   19.8848 H   0  0  0  0  0  0
  -26.9556  -26.1061   22.5072 H   0  0  0  0  0  0
  -27.2402  -24.4020   22.6895 H   0  0  0  0  0  0
  -26.1983  -24.9590   21.3869 H   0  0  0  0  0  0
  -29.1615  -25.5189   21.6966 H   0  0  0  0  0  0
  -27.4744  -22.9317   21.4402 H   0  0  0  0  0  0
  -28.9397  -15.8968   21.0318 H   0  0  0  0  0  0
  1 25  1  0  0  0
  1 30  2  0  0  0
  1 79  1  0  0  0
  2  3  1  0  0  0
  2 25  1  0  0  0
  2 85  1  0  0  0
  2 86  1  0  0  0
  3  4  1  0  0  0
  3 87  1  0  0  0
  3 88  1  0  0  0
  4  5  1  0  0  0
  4 89  1  0  0  0
  4 90  1  0  0  0
  5  6  1  0  0  0
  5 26  1  0  0  0
  5 91  1  0  0  0
  6 25  1  0  0  0
  6 92  1  0  0  0
  6 93  1  0  0  0
  7  8  2  0  0  0
  7 26  1  0  0  0
  7 29  1  0  0  0
  8  9  1  0  0  0
  8 22  1  0  0  0
  9 10  1  0  0  0
  9 27  2  0  0  0
 10 11  2  0  0  0
 10 15  1  0  0  0
 11 12  1  0  0  0
 11 94  1  0  0  0
 12 13  2  0  0  0
 12 95  1  0  0  0
 13 14  1  0  0  0
 13 31  1  0  0  0
 14 15  2  0  0  0
 14 96  1  0  0  0
 15 97  1  0  0  0
 16 17  2  0  0  0
 16 21  1  0  0  0
 16 31  1  0  0  0
 17 18  1  0  0  0
 17 98  1  0  0  0
 18 19  2  0  0  0
 18 99  1  0  0  0
 19 20  1  0  0  0
 19 24  1  0  0  0
 20 21  2  0  0  0
 20100  1  0  0  0
 21 23  1  0  0  0
 22 28  1  0  0  0
 22 32  2  0  0  0
 26 27  1  0  0  0
 28101  1  0  0  0
 28102  1  0  0  0
 29103  1  0  0  0
 29104  1  0  0  0
 33 34  1  0  0  0
 33 66  1  0  0  0
 33 70  2  0  0  0
 34 36  1  0  0  0
 34 59  1  0  0  0
 34105  1  0  0  0
 35 44  2  0  0  0
 35 45  1  0  0  0
 35 68  1  0  0  0
 36 56  1  0  0  0
 36106  1  0  0  0
 37 39  1  0  0  0
 37 47  1  0  0  0
 37 66  1  0  0  0
 37107  1  0  0  0
 38 43  2  0  0  0
 38 46  1  0  0  0
 38 47  1  0  0  0
 39 64  1  0  0  0
 39 67  2  0  0  0
 40 52  1  0  0  0
 40 53  2  0  0  0
 40 58  1  0  0  0
 41108  1  0  0  0
 41109  1  0  0  0
 41110  1  0  0  0
 41 48  1  0  0  0
 42 43  1  0  0  0
 42 66  1  0  0  0
 42111  1  0  0  0
 42112  1  0  0  0
 43 44  1  0  0  0
 44113  1  0  0  0
 45 46  2  0  0  0
 45114  1  0  0  0
 46115  1  0  0  0
 47116  1  0  0  0
 47117  1  0  0  0
 48 56  1  0  0  0
 48 65  1  0  0  0
 48118  1  0  0  0
 49 50  1  0  0  0
 49 53  1  0  0  0
 49 64  1  0  0  0
 49119  1  0  0  0
 50 51  1  0  0  0
 50120  1  0  0  0
 50121  1  0  0  0
 51 52  1  0  0  0
 51122  1  0  0  0
 51123  1  0  0  0
 52124  1  0  0  0
 52125  1  0  0  0
 53 54  1  0  0  0
 54 55  2  0  0  0
 54126  1  0  0  0
 55 57  1  0  0  0
 55127  1  0  0  0
 56 69  2  0  0  0
 57 58  2  0  0  0
 57128  1  0  0  0
 58129  1  0  0  0
 59 60  1  0  0  0
 59 61  1  0  0  0
 59 62  1  0  0  0
 60130  1  0  0  0
 60131  1  0  0  0
 60132  1  0  0  0
 61133  1  0  0  0
 61134  1  0  0  0
 61135  1  0  0  0
 62136  1  0  0  0
 62137  1  0  0  0
 62138  1  0  0  0
 63 65  1  0  0  0
 63139  1  0  0  0
 63140  1  0  0  0
 63141  1  0  0  0
 64142  1  0  0  0
 65143  1  0  0  0
 68 77  1  0  0  0
 71 72  1  0  0  0
 71 73  2  0  0  0
 71144  1  0  0  0
 72 74  2  0  0  0
 72145  1  0  0  0
 73 78  1  0  0  0
 73 83  1  0  0  0
 74 83  1  0  0  0
 74 84  1  0  0  0
 75 77  1  0  0  0
 75 78  1  0  0  0
 75 80  2  0  0  0
 76146  1  0  0  0
 76147  1  0  0  0
 76148  1  0  0  0
 76 77  1  0  0  0
 77149  1  0  0  0
 78150  1  0  0  0
 79151  1  0  0  0
 79 84  1  0  0  0
 81 84  2  0  0  0
 82 84  2  0  0  0
M  ISO  4   1 100  68 101  77 101  79 100
M  END
> <chiral flag>
0

> <version>
0

> <s_m_source_file>
/data/baiqing/PycharmProjects/Reinvent-master-3.2/result/LINK_invent/BTK/process_docking_weight1_custom_product_contain_oxygen_bond_distance_aromatic_linkinvent_7_9_3/rearranged_h_0186.sdf

> <i_m_source_file_index>
81

> <r_mmod_Potential_Energy-OPLS-2005>
-109.692779541016

> <r_mmod_Stretch_Energy-OPLS-2005>
74.0942306518555

> <r_mmod_Bend_Energy-OPLS-2005>
170.035446166992

> <r_mmod_Torsional_Energy-OPLS-2005>
257.591491699219

> <r_mmod_Improper_Torsional_Energy-OPLS-2005>
4.65308332443237

> <r_mmod_Van_der_Waal_Energy-OPLS-2005>
114.192588806152

> <r_mmod_Electrostatic_Energy-OPLS-2005>
-476.421142578125

> <r_mmod_Solvation_Energy-OPLS-2005>
-306.15966796875

> <b_mmod_Minimization_Converged-OPLS-2005>
0

> <r_mmod_RMS_Derivative-OPLS-2005>
5.32824516296387

$$$$
82
                    3D
 Structure written by MMmdl.
153161  0  0  1  0            999 V2000
  -30.6329  -14.7243   20.4601 C   0  0  0  0  0  0
  -30.4251  -12.4442   19.4703 C   0  0  0  0  0  0
  -29.5069  -12.5006   18.2312 C   0  0  0  0  0  0
  -28.0329  -12.3290   18.6459 C   0  0  0  0  0  0
  -27.6389  -13.2324   19.8460 C   0  0  2  0  0  0
  -28.6833  -13.1726   20.9812 C   0  0  0  0  0  0
  -25.2501  -13.8203   20.5693 C   0  0  0  0  0  0
  -24.1795  -13.0446   20.9209 C   0  0  0  0  0  0
  -24.6391  -11.6925   20.8753 C   0  0  0  0  0  0
  -23.9073  -10.4299   21.0408 C   0  0  0  0  0  0
  -24.3626   -9.4210   21.9183 C   0  0  0  0  0  0
  -23.6299   -8.2246   22.0752 C   0  0  0  0  0  0
  -22.4282   -8.0283   21.3542 C   0  0  0  0  0  0
  -21.9919   -9.0256   20.4643 C   0  0  0  0  0  0
  -22.7246  -10.2135   20.3053 C   0  0  0  0  0  0
  -21.6853   -6.0738   22.5277 C   0  0  0  0  0  0
  -21.4015   -6.5641   23.8213 C   0  0  0  0  0  0
  -21.3661   -5.6790   24.9175 C   0  0  0  0  0  0
  -21.6044   -4.3054   24.7218 C   0  0  0  0  0  0
  -21.8821   -3.8146   23.4340 C   0  0  0  0  0  0
  -21.9192   -4.6967   22.3398 C   0  0  0  0  0  0
  -22.7816  -13.5229   21.1860 C   0  0  0  0  0  0
  -22.1660   -4.2154   21.0977 F   0  0  0  0  0  0
  -21.5630   -3.4537   25.7730 F   0  0  0  0  0  0
  -29.9826  -13.5139   20.3930 N   0  0  0  0  0  0
  -26.2922  -12.9411   20.3261 N   0  0  0  0  0  0
  -25.9319  -11.6554   20.5743 N   0  0  0  0  0  0
  -22.0459  -12.8225   22.0417 N   0  0  0  0  0  0
  -25.4191  -15.1927   20.4111 N   0  0  0  0  0  0
  -31.8287  -14.7887   20.1656 O   0  0  0  0  0  0
  -21.6643   -6.8880   21.4237 O   0  0  0  0  0  0
  -22.3506  -14.5533   20.6697 O   0  0  0  0  0  0
  -24.6289  -31.8549   23.1976 C   0  0  0  0  0  0
  -25.9118  -32.4749   23.8324 C   0  0  1  0  0  0
  -27.2233  -27.2825   20.1413 C   0  0  0  0  0  0
  -25.5915  -33.8552   24.2254 N   0  0  0  0  0  0
  -23.4252  -30.4751   21.5405 C   0  0  2  0  0  0
  -24.8732  -28.9176   20.1134 C   0  0  0  0  0  0
  -22.7491  -29.4595   22.4928 C   0  0  0  0  0  0
  -18.0282  -28.1389   22.8485 C   0  0  0  0  0  0
  -24.1488  -36.7290   23.2641 C   0  0  0  0  0  0
  -25.9667  -30.7781   21.3691 C   0  0  0  0  0  0
  -26.0426  -29.4000   20.7157 C   0  0  0  0  0  0
  -27.2246  -28.5981   20.7091 C   0  0  0  0  0  0
  -26.0374  -26.8549   19.5130 C   0  0  0  0  0  0
  -24.8745  -27.6530   19.4991 C   0  0  0  0  0  0
  -23.6418  -29.8017   20.1587 C   0  0  0  0  0  0
  -25.4112  -36.3068   24.0328 C   0  0  1  0  0  0
  -20.5886  -28.3689   23.1281 C   0  0  2  0  0  0
  -20.6770  -26.9408   22.5413 C   0  0  0  0  0  0
  -19.5744  -26.6384   21.5215 C   0  0  0  0  0  0
  -18.1926  -26.7930   22.1629 C   0  0  0  0  0  0
  -19.1538  -28.8856   23.2877 C   0  0  0  0  0  0
  -18.9460  -30.1460   23.8891 C   0  0  0  0  0  0
  -17.6459  -30.6588   24.0561 C   0  0  0  0  0  0
  -25.9051  -34.9438   23.5099 C   0  0  0  0  0  0
  -16.5349  -29.9084   23.6333 C   0  0  0  0  0  0
  -16.7270  -28.6505   23.0347 C   0  0  0  0  0  0
  -26.4489  -31.6565   25.0706 C   0  0  0  0  0  0
  -25.3713  -31.3714   26.1430 C   0  0  0  0  0  0
  -27.0330  -30.2981   24.6174 C   0  0  0  0  0  0
  -27.6047  -32.4299   25.7479 C   0  0  0  0  0  0
  -27.5580  -37.1793   24.8458 C   0  0  0  0  0  0
  -21.4200  -29.3036   22.3673 N   0  0  0  0  0  0
  -26.4284  -37.3769   23.9414 N   0  0  0  0  0  0
  -24.6928  -31.0537   22.0929 N   0  0  0  0  0  0
  -23.4197  -28.8147   23.3030 O   0  0  0  0  0  0
  -28.3327  -26.4163   20.1479 O   0  0  0  0  0  0
  -26.5634  -34.8913   22.4675 O   0  0  0  0  0  0
  -23.5444  -32.1358   23.7291 O   0  0  0  0  0  0
  -28.7240  -19.0718   19.6484 C   0  0  0  0  0  0
  -29.7079  -18.6558   20.5336 C   0  0  0  0  0  0
  -29.1020  -21.1966   20.5507 C   0  0  0  0  0  0
  -28.3673  -23.7240   20.1948 C   0  0  0  0  0  0
  -27.6928  -26.0846   23.2788 C   0  0  0  0  0  0
  -30.5002  -17.2959   20.6945 C   0  0  0  0  0  0
  -27.3374  -25.1267   22.1286 C   0  0  0  0  0  0
  -28.3507  -25.1433   20.9522 C   0  0  2  0  0  0
  -28.3994  -20.4683   19.6618 N   0  0  0  0  0  0
  -28.9772  -22.6469   20.8179 N   0  0  0  0  0  0
  -29.9067  -15.8912   20.6525 N   0  0  0  0  0  0
  -27.8393  -23.6307   19.0831 O   0  0  0  0  0  0
  -30.2033  -20.1034   21.4551 S   0  0  0  0  0  0
  -31.4683  -12.5558   19.1697 H   0  0  0  0  0  0
  -30.3579  -11.4703   19.9579 H   0  0  0  0  0  0
  -29.7895  -11.7252   17.5176 H   0  0  0  0  0  0
  -29.6362  -13.4541   17.7169 H   0  0  0  0  0  0
  -27.8909  -11.2809   18.9119 H   0  0  0  0  0  0
  -27.3761  -12.5183   17.7961 H   0  0  0  0  0  0
  -27.6321  -14.2529   19.4626 H   0  0  0  0  0  0
  -28.7162  -12.1788   21.4302 H   0  0  0  0  0  0
  -28.4234  -13.8649   21.7834 H   0  0  0  0  0  0
  -25.2771   -9.5689   22.4760 H   0  0  0  0  0  0
  -24.0006   -7.4642   22.7481 H   0  0  0  0  0  0
  -21.0845   -8.8775   19.8956 H   0  0  0  0  0  0
  -22.3702  -10.9674   19.6162 H   0  0  0  0  0  0
  -21.2009   -7.6149   23.9717 H   0  0  0  0  0  0
  -21.1483   -6.0521   25.9079 H   0  0  0  0  0  0
  -22.0599   -2.7608   23.2835 H   0  0  0  0  0  0
  -22.4071  -11.9891   22.4817 H   0  0  0  0  0  0
  -21.1071  -13.1246   22.2605 H   0  0  0  0  0  0
  -24.6528  -15.8472   20.5283 H   0  0  0  0  0  0
  -26.2650  -15.6319   20.0720 H   0  0  0  0  0  0
  -26.7187  -32.5411   23.1071 H   0  0  0  0  0  0
  -25.0012  -33.9679   25.0364 H   0  0  0  0  0  0
  -22.7202  -31.2957   21.3919 H   0  0  0  0  0  0
  -23.3746  -35.9626   23.3287 H   0  0  0  0  0  0
  -24.3582  -36.8927   22.2059 H   0  0  0  0  0  0
  -23.7243  -37.6487   23.6676 H   0  0  0  0  0  0
  -26.0960  -31.5376   20.5968 H   0  0  0  0  0  0
  -26.8479  -30.8327   21.9972 H   0  0  0  0  0  0
  -28.1266  -28.9672   21.1771 H   0  0  0  0  0  0
  -26.0073  -25.8799   19.0472 H   0  0  0  0  0  0
  -23.9793  -27.2786   19.0220 H   0  0  0  0  0  0
  -23.7614  -30.5733   19.3972 H   0  0  0  0  0  0
  -22.7615  -29.2297   19.8600 H   0  0  0  0  0  0
  -25.1292  -36.1910   25.0819 H   0  0  0  0  0  0
  -20.9979  -28.3262   24.1401 H   0  0  0  0  0  0
  -20.5666  -26.2298   23.3614 H   0  0  0  0  0  0
  -21.6637  -26.7426   22.1208 H   0  0  0  0  0  0
  -19.6902  -25.6296   21.1239 H   0  0  0  0  0  0
  -19.6686  -27.3198   20.6748 H   0  0  0  0  0  0
  -17.4197  -26.6674   21.4031 H   0  0  0  0  0  0
  -18.0321  -26.0077   22.9031 H   0  0  0  0  0  0
  -19.7936  -30.7279   24.2257 H   0  0  0  0  0  0
  -17.5010  -31.6266   24.5165 H   0  0  0  0  0  0
  -15.5348  -30.2980   23.7666 H   0  0  0  0  0  0
  -15.8669  -28.0826   22.7057 H   0  0  0  0  0  0
  -24.5883  -30.7070   25.7752 H   0  0  0  0  0  0
  -24.8909  -32.2884   26.4854 H   0  0  0  0  0  0
  -25.8026  -30.8884   27.0207 H   0  0  0  0  0  0
  -26.2909  -29.6726   24.1196 H   0  0  0  0  0  0
  -27.4013  -29.7236   25.4683 H   0  0  0  0  0  0
  -27.8780  -30.4253   23.9403 H   0  0  0  0  0  0
  -27.2661  -33.3601   26.2053 H   0  0  0  0  0  0
  -28.3860  -32.6856   25.0308 H   0  0  0  0  0  0
  -28.0712  -31.8424   26.5397 H   0  0  0  0  0  0
  -28.2578  -38.0110   24.7526 H   0  0  0  0  0  0
  -28.1097  -36.2642   24.6252 H   0  0  0  0  0  0
  -27.2307  -37.1394   25.8862 H   0  0  0  0  0  0
  -20.9386  -29.8751   21.6870 H   0  0  0  0  0  0
  -26.0161  -38.2840   24.1424 H   0  0  0  0  0  0
  -28.2338  -18.4450   18.9163 H   0  0  0  0  0  0
  -26.9489  -26.0266   24.0733 H   0  0  0  0  0  0
  -27.7343  -27.1217   22.9504 H   0  0  0  0  0  0
  -28.6602  -25.8370   23.7172 H   0  0  0  0  0  0
  -31.0435  -17.3457   21.6390 H   0  0  0  0  0  0
  -31.2873  -17.3177   19.9391 H   0  0  0  0  0  0
  -26.3287  -25.3322   21.7710 H   0  0  0  0  0  0
  -27.2836  -24.1222   22.5506 H   0  0  0  0  0  0
  -29.3386  -25.1722   21.4134 H   0  0  0  0  0  0
  -29.4429  -22.9196   21.6715 H   0  0  0  0  0  0
  -28.9181  -15.7953   20.8266 H   0  0  0  0  0  0
  1 25  1  0  0  0
  1 30  2  0  0  0
  1 81  1  0  0  0
  2  3  1  0  0  0
  2 25  1  0  0  0
  2 84  1  0  0  0
  2 85  1  0  0  0
  3  4  1  0  0  0
  3 86  1  0  0  0
  3 87  1  0  0  0
  4  5  1  0  0  0
  4 88  1  0  0  0
  4 89  1  0  0  0
  5  6  1  0  0  0
  5 26  1  0  0  0
  5 90  1  0  0  0
  6 25  1  0  0  0
  6 91  1  0  0  0
  6 92  1  0  0  0
  7  8  2  0  0  0
  7 26  1  0  0  0
  7 29  1  0  0  0
  8  9  1  0  0  0
  8 22  1  0  0  0
  9 10  1  0  0  0
  9 27  2  0  0  0
 10 11  2  0  0  0
 10 15  1  0  0  0
 11 12  1  0  0  0
 11 93  1  0  0  0
 12 13  2  0  0  0
 12 94  1  0  0  0
 13 14  1  0  0  0
 13 31  1  0  0  0
 14 15  2  0  0  0
 14 95  1  0  0  0
 15 96  1  0  0  0
 16 17  2  0  0  0
 16 21  1  0  0  0
 16 31  1  0  0  0
 17 18  1  0  0  0
 17 97  1  0  0  0
 18 19  2  0  0  0
 18 98  1  0  0  0
 19 20  1  0  0  0
 19 24  1  0  0  0
 20 21  2  0  0  0
 20 99  1  0  0  0
 21 23  1  0  0  0
 22 28  1  0  0  0
 22 32  2  0  0  0
 26 27  1  0  0  0
 28100  1  0  0  0
 28101  1  0  0  0
 29102  1  0  0  0
 29103  1  0  0  0
 33 34  1  0  0  0
 33 66  1  0  0  0
 33 70  2  0  0  0
 34 36  1  0  0  0
 34 59  1  0  0  0
 34104  1  0  0  0
 35 44  2  0  0  0
 35 45  1  0  0  0
 35 68  1  0  0  0
 36 56  1  0  0  0
 36105  1  0  0  0
 37 39  1  0  0  0
 37 47  1  0  0  0
 37 66  1  0  0  0
 37106  1  0  0  0
 38 43  2  0  0  0
 38 46  1  0  0  0
 38 47  1  0  0  0
 39 64  1  0  0  0
 39 67  2  0  0  0
 40 52  1  0  0  0
 40 53  2  0  0  0
 40 58  1  0  0  0
 41107  1  0  0  0
 41108  1  0  0  0
 41109  1  0  0  0
 41 48  1  0  0  0
 42 43  1  0  0  0
 42 66  1  0  0  0
 42110  1  0  0  0
 42111  1  0  0  0
 43 44  1  0  0  0
 44112  1  0  0  0
 45 46  2  0  0  0
 45113  1  0  0  0
 46114  1  0  0  0
 47115  1  0  0  0
 47116  1  0  0  0
 48 56  1  0  0  0
 48 65  1  0  0  0
 48117  1  0  0  0
 49 50  1  0  0  0
 49 53  1  0  0  0
 49 64  1  0  0  0
 49118  1  0  0  0
 50 51  1  0  0  0
 50119  1  0  0  0
 50120  1  0  0  0
 51 52  1  0  0  0
 51121  1  0  0  0
 51122  1  0  0  0
 52123  1  0  0  0
 52124  1  0  0  0
 53 54  1  0  0  0
 54 55  2  0  0  0
 54125  1  0  0  0
 55 57  1  0  0  0
 55126  1  0  0  0
 56 69  2  0  0  0
 57 58  2  0  0  0
 57127  1  0  0  0
 58128  1  0  0  0
 59 60  1  0  0  0
 59 61  1  0  0  0
 59 62  1  0  0  0
 60129  1  0  0  0
 60130  1  0  0  0
 60131  1  0  0  0
 61132  1  0  0  0
 61133  1  0  0  0
 61134  1  0  0  0
 62135  1  0  0  0
 62136  1  0  0  0
 62137  1  0  0  0
 63 65  1  0  0  0
 63138  1  0  0  0
 63139  1  0  0  0
 63140  1  0  0  0
 64141  1  0  0  0
 65142  1  0  0  0
 68 78  1  0  0  0
 71 72  2  0  0  0
 71 79  1  0  0  0
 71143  1  0  0  0
 72 76  1  0  0  0
 72 83  1  0  0  0
 73 79  2  0  0  0
 73 80  1  0  0  0
 73 83  1  0  0  0
 74 78  1  0  0  0
 74 80  1  0  0  0
 74 82  2  0  0  0
 75 77  1  0  0  0
 75144  1  0  0  0
 75145  1  0  0  0
 75146  1  0  0  0
 76 81  1  0  0  0
 76147  1  0  0  0
 76148  1  0  0  0
 77149  1  0  0  0
 77150  1  0  0  0
 77 78  1  0  0  0
 78151  1  0  0  0
 80152  1  0  0  0
 81153  1  0  0  0
M  ISO  4   1 100  68 101  78 101  81 100
M  END
> <chiral flag>
0

> <version>
0

> <s_m_source_file>
/data/baiqing/PycharmProjects/Reinvent-master-3.2/result/LINK_invent/BTK/process_docking_weight1_custom_product_contain_oxygen_bond_distance_aromatic_linkinvent_7_9_3/rearranged_h_0186.sdf

> <i_m_source_file_index>
82

> <r_mmod_Potential_Energy-OPLS-2005>
64.869514465332

> <r_mmod_Stretch_Energy-OPLS-2005>
108.139595031738

> <r_mmod_Bend_Energy-OPLS-2005>
190.986862182617

> <r_mmod_Torsional_Energy-OPLS-2005>
235.322723388672

> <r_mmod_Improper_Torsional_Energy-OPLS-2005>
5.02851581573486

> <r_mmod_Van_der_Waal_Energy-OPLS-2005>
110.093658447266

> <r_mmod_Electrostatic_Energy-OPLS-2005>
-404.014495849609

> <r_mmod_Solvation_Energy-OPLS-2005>
-255.337356567383

> <b_mmod_Minimization_Converged-OPLS-2005>
0

> <r_mmod_RMS_Derivative-OPLS-2005>
0.808014512062073

$$$$
83
                    3D
 Structure written by MMmdl.
158166  0  0  1  0            999 V2000
  -30.7179  -14.4938   20.4918 C   0  0  0  0  0  0
  -30.4099  -12.2972   19.4433 C   0  0  0  0  0  0
  -29.4953  -12.4800   18.2156 C   0  0  0  0  0  0
  -28.0168  -12.3534   18.6235 C   0  0  0  0  0  0
  -27.6554  -13.2155   19.8632 C   0  0  2  0  0  0
  -28.6971  -13.0582   20.9943 C   0  0  0  0  0  0
  -25.2555  -13.8174   20.5682 C   0  0  0  0  0  0
  -24.1821  -13.0457   20.9176 C   0  0  0  0  0  0
  -24.6379  -11.6918   20.8734 C   0  0  0  0  0  0
  -23.9048  -10.4302   21.0408 C   0  0  0  0  0  0
  -24.3604   -9.4225   21.9187 C   0  0  0  0  0  0
  -23.6285   -8.2258   22.0772 C   0  0  0  0  0  0
  -22.4266   -8.0277   21.3558 C   0  0  0  0  0  0
  -21.9890   -9.0251   20.4663 C   0  0  0  0  0  0
  -22.7216  -10.2134   20.3063 C   0  0  0  0  0  0
  -21.6851   -6.0724   22.5280 C   0  0  0  0  0  0
  -21.4025   -6.5636   23.8212 C   0  0  0  0  0  0
  -21.3655   -5.6789   24.9172 C   0  0  0  0  0  0
  -21.6049   -4.3051   24.7233 C   0  0  0  0  0  0
  -21.8812   -3.8134   23.4353 C   0  0  0  0  0  0
  -21.9200   -4.6952   22.3404 C   0  0  0  0  0  0
  -22.7836  -13.5259   21.1846 C   0  0  0  0  0  0
  -22.1665   -4.2131   21.0982 F   0  0  0  0  0  0
  -21.5627   -3.4544   25.7748 F   0  0  0  0  0  0
  -30.0272  -13.3236   20.4278 N   0  0  0  0  0  0
  -26.2996  -12.9366   20.3306 N   0  0  0  0  0  0
  -25.9314  -11.6521   20.5760 N   0  0  0  0  0  0
  -22.0468  -12.8254   22.0393 N   0  0  0  0  0  0
  -25.4240  -15.1898   20.4124 N   0  0  0  0  0  0
  -31.9128  -14.5551   20.1858 O   0  0  0  0  0  0
  -21.6647   -6.8861   21.4233 O   0  0  0  0  0  0
  -22.3511  -14.5561   20.6681 O   0  0  0  0  0  0
  -24.6196  -31.8658   23.2107 C   0  0  0  0  0  0
  -25.9080  -32.4798   23.8409 C   0  0  1  0  0  0
  -27.2195  -27.3996   20.1061 C   0  0  0  0  0  0
  -25.5928  -33.8590   24.2358 N   0  0  0  0  0  0
  -23.4086  -30.4930   21.5531 C   0  0  2  0  0  0
  -24.8496  -28.9608   20.1156 C   0  0  0  0  0  0
  -22.7458  -29.4643   22.4987 C   0  0  0  0  0  0
  -18.0300  -28.1388   22.8508 C   0  0  0  0  0  0
  -24.1480  -36.7272   23.2640 C   0  0  0  0  0  0
  -25.9432  -30.8201   21.3723 C   0  0  0  0  0  0
  -26.0157  -29.4552   20.7145 C   0  0  0  0  0  0
  -27.2053  -28.6839   20.7048 C   0  0  0  0  0  0
  -26.0332  -26.9386   19.4850 C   0  0  0  0  0  0
  -24.8546  -27.7012   19.4973 C   0  0  0  0  0  0
  -23.6184  -29.8350   20.1648 C   0  0  0  0  0  0
  -25.4102  -36.3085   24.0348 C   0  0  1  0  0  0
  -20.5893  -28.3667   23.1323 C   0  0  2  0  0  0
  -20.6780  -26.9399   22.5419 C   0  0  0  0  0  0
  -19.5747  -26.6394   21.5218 C   0  0  0  0  0  0
  -18.1938  -26.7945   22.1634 C   0  0  0  0  0  0
  -19.1547  -28.8845   23.2920 C   0  0  0  0  0  0
  -18.9462  -30.1460   23.8912 C   0  0  0  0  0  0
  -17.6452  -30.6582   24.0573 C   0  0  0  0  0  0
  -25.9032  -34.9449   23.5146 C   0  0  0  0  0  0
  -16.5347  -29.9079   23.6333 C   0  0  0  0  0  0
  -16.7289  -28.6504   23.0358 C   0  0  0  0  0  0
  -26.4505  -31.6572   25.0734 C   0  0  0  0  0  0
  -25.3785  -31.3629   26.1497 C   0  0  0  0  0  0
  -27.0331  -30.3025   24.6084 C   0  0  0  0  0  0
  -27.6106  -32.4268   25.7488 C   0  0  0  0  0  0
  -27.5581  -37.1794   24.8488 C   0  0  0  0  0  0
  -21.4184  -29.3016   22.3714 N   0  0  0  0  0  0
  -26.4288  -37.3772   23.9429 N   0  0  0  0  0  0
  -24.6759  -31.0741   22.1022 N   0  0  0  0  0  0
  -23.4218  -28.8184   23.3041 O   0  0  0  0  0  0
  -28.3471  -26.5925   20.1706 O   0  0  0  0  0  0
  -26.5586  -34.8900   22.4702 O   0  0  0  0  0  0
  -23.5381  -32.1421   23.7466 O   0  0  0  0  0  0
  -31.1832  -18.2447   18.3158 C   0  0  0  0  0  0
  -30.9374  -17.0052   18.9086 C   0  0  0  0  0  0
  -30.6990  -19.4105   18.9272 C   0  0  0  0  0  0
  -30.2456  -16.9198   20.1347 C   0  0  0  0  0  0
  -29.9925  -19.2925   20.1605 C   0  0  0  0  0  0
  -29.8329  -21.7133   20.9136 C   0  0  0  0  0  0
  -27.3609  -22.4001   20.9903 C   0  0  0  0  0  0
  -29.2131  -24.2733   20.8481 C   0  0  0  0  0  0
  -28.0518  -25.1868   20.3700 C   0  0  0  0  0  0
  -28.8160  -22.8175   21.3345 C   0  0  1  0  0  0
  -29.7668  -18.0608   20.7123 N   0  0  0  0  0  0
  -30.9120  -20.6252   18.2678 N   0  0  0  0  0  0
  -29.3756  -20.4472   20.7451 N   0  0  0  0  0  0
  -29.9899  -15.6187   20.6934 N   0  0  0  0  0  0
  -31.0242  -22.0149   20.8001 O   0  0  0  0  0  0
  -31.4569  -12.3658   19.1391 H   0  0  0  0  0  0
  -30.2836  -11.2994   19.8693 H   0  0  0  0  0  0
  -29.7356  -11.7359   17.4544 H   0  0  0  0  0  0
  -29.6697  -13.4536   17.7562 H   0  0  0  0  0  0
  -27.8222  -11.3013   18.8342 H   0  0  0  0  0  0
  -27.3711  -12.6186   17.7856 H   0  0  0  0  0  0
  -27.6847  -14.2531   19.5332 H   0  0  0  0  0  0
  -28.6658  -12.0512   21.4117 H   0  0  0  0  0  0
  -28.4687  -13.7340   21.8211 H   0  0  0  0  0  0
  -25.2753   -9.5710   22.4754 H   0  0  0  0  0  0
  -23.9998   -7.4655   22.7499 H   0  0  0  0  0  0
  -21.0813   -8.8762   19.8975 H   0  0  0  0  0  0
  -22.3658  -10.9672   19.6170 H   0  0  0  0  0  0
  -21.2016   -7.6151   23.9700 H   0  0  0  0  0  0
  -21.1486   -6.0534   25.9073 H   0  0  0  0  0  0
  -22.0591   -2.7601   23.2865 H   0  0  0  0  0  0
  -22.4089  -11.9923   22.4795 H   0  0  0  0  0  0
  -21.1097  -13.1290   22.2627 H   0  0  0  0  0  0
  -24.6512  -15.8370   20.5251 H   0  0  0  0  0  0
  -26.2712  -15.6384   20.0882 H   0  0  0  0  0  0
  -26.7151  -32.5513   23.1166 H   0  0  0  0  0  0
  -25.0141  -33.9756   25.0549 H   0  0  0  0  0  0
  -22.6978  -31.3103   21.4174 H   0  0  0  0  0  0
  -23.3739  -35.9612   23.3321 H   0  0  0  0  0  0
  -24.3587  -36.8853   22.2053 H   0  0  0  0  0  0
  -23.7212  -37.6473   23.6632 H   0  0  0  0  0  0
  -26.0703  -31.5838   20.6034 H   0  0  0  0  0  0
  -26.8271  -30.8639   21.9976 H   0  0  0  0  0  0
  -28.0997  -29.0513   21.1886 H   0  0  0  0  0  0
  -25.9898  -25.9777   18.9933 H   0  0  0  0  0  0
  -23.9607  -27.3118   19.0281 H   0  0  0  0  0  0
  -23.7392  -30.6140   19.4106 H   0  0  0  0  0  0
  -22.7424  -29.2627   19.8561 H   0  0  0  0  0  0
  -25.1264  -36.1960   25.0837 H   0  0  0  0  0  0
  -21.0006  -28.3236   24.1439 H   0  0  0  0  0  0
  -20.5696  -26.2270   23.3611 H   0  0  0  0  0  0
  -21.6650  -26.7447   22.1192 H   0  0  0  0  0  0
  -19.6884  -25.6309   21.1238 H   0  0  0  0  0  0
  -19.6674  -27.3217   20.6759 H   0  0  0  0  0  0
  -17.4206  -26.6723   21.4037 H   0  0  0  0  0  0
  -18.0324  -26.0080   22.9019 H   0  0  0  0  0  0
  -19.7927  -30.7298   24.2276 H   0  0  0  0  0  0
  -17.4989  -31.6266   24.5164 H   0  0  0  0  0  0
  -15.5344  -30.2968   23.7623 H   0  0  0  0  0  0
  -15.8715  -28.0805   22.7060 H   0  0  0  0  0  0
  -24.6006  -30.6919   25.7836 H   0  0  0  0  0  0
  -24.8919  -32.2737   26.4989 H   0  0  0  0  0  0
  -25.8178  -30.8792   27.0232 H   0  0  0  0  0  0
  -26.2847  -29.6777   24.1190 H   0  0  0  0  0  0
  -27.4176  -29.7266   25.4512 H   0  0  0  0  0  0
  -27.8665  -30.4359   23.9182 H   0  0  0  0  0  0
  -27.2773  -33.3573   26.2098 H   0  0  0  0  0  0
  -28.3896  -32.6802   25.0281 H   0  0  0  0  0  0
  -28.0793  -31.8349   26.5364 H   0  0  0  0  0  0
  -28.2613  -38.0081   24.7528 H   0  0  0  0  0  0
  -28.1053  -36.2604   24.6318 H   0  0  0  0  0  0
  -27.2316  -37.1471   25.8901 H   0  0  0  0  0  0
  -20.9363  -29.8730   21.6913 H   0  0  0  0  0  0
  -26.0171  -38.2846   24.1432 H   0  0  0  0  0  0
  -31.7259  -18.2868   17.3831 H   0  0  0  0  0  0
  -31.2934  -16.1261   18.3940 H   0  0  0  0  0  0
  -27.2012  -22.3468   19.9121 H   0  0  0  0  0  0
  -26.6280  -23.0855   21.4143 H   0  0  0  0  0  0
  -27.1007  -21.4293   21.4141 H   0  0  0  0  0  0
  -29.7127  -24.7794   21.6754 H   0  0  0  0  0  0
  -29.9540  -24.2247   20.0491 H   0  0  0  0  0  0
  -27.2515  -25.1288   21.1100 H   0  0  0  0  0  0
  -27.6759  -24.7675   19.4373 H   0  0  0  0  0  0
  -28.8661  -22.8377   22.4252 H   0  0  0  0  0  0
  -31.6039  -20.6415   17.5235 H   0  0  0  0  0  0
  -31.0291  -21.4176   18.8998 H   0  0  0  0  0  0
  -28.4295  -20.2971   21.0582 H   0  0  0  0  0  0
  -29.0873  -15.4985   21.1217 H   0  0  0  0  0  0
  1 25  1  0  0  0
  1 30  2  0  0  0
  1 84  1  0  0  0
  2  3  1  0  0  0
  2 25  1  0  0  0
  2 86  1  0  0  0
  2 87  1  0  0  0
  3  4  1  0  0  0
  3 88  1  0  0  0
  3 89  1  0  0  0
  4  5  1  0  0  0
  4 90  1  0  0  0
  4 91  1  0  0  0
  5  6  1  0  0  0
  5 26  1  0  0  0
  5 92  1  0  0  0
  6 25  1  0  0  0
  6 93  1  0  0  0
  6 94  1  0  0  0
  7  8  2  0  0  0
  7 26  1  0  0  0
  7 29  1  0  0  0
  8  9  1  0  0  0
  8 22  1  0  0  0
  9 10  1  0  0  0
  9 27  2  0  0  0
 10 11  2  0  0  0
 10 15  1  0  0  0
 11 12  1  0  0  0
 11 95  1  0  0  0
 12 13  2  0  0  0
 12 96  1  0  0  0
 13 14  1  0  0  0
 13 31  1  0  0  0
 14 15  2  0  0  0
 14 97  1  0  0  0
 15 98  1  0  0  0
 16 17  2  0  0  0
 16 21  1  0  0  0
 16 31  1  0  0  0
 17 18  1  0  0  0
 17 99  1  0  0  0
 18 19  2  0  0  0
 18100  1  0  0  0
 19 20  1  0  0  0
 19 24  1  0  0  0
 20 21  2  0  0  0
 20101  1  0  0  0
 21 23  1  0  0  0
 22 28  1  0  0  0
 22 32  2  0  0  0
 26 27  1  0  0  0
 28102  1  0  0  0
 28103  1  0  0  0
 29104  1  0  0  0
 29105  1  0  0  0
 33 34  1  0  0  0
 33 66  1  0  0  0
 33 70  2  0  0  0
 34 36  1  0  0  0
 34 59  1  0  0  0
 34106  1  0  0  0
 35 44  2  0  0  0
 35 45  1  0  0  0
 35 68  1  0  0  0
 36 56  1  0  0  0
 36107  1  0  0  0
 37 39  1  0  0  0
 37 47  1  0  0  0
 37 66  1  0  0  0
 37108  1  0  0  0
 38 43  2  0  0  0
 38 46  1  0  0  0
 38 47  1  0  0  0
 39 64  1  0  0  0
 39 67  2  0  0  0
 40 52  1  0  0  0
 40 53  2  0  0  0
 40 58  1  0  0  0
 41109  1  0  0  0
 41110  1  0  0  0
 41111  1  0  0  0
 41 48  1  0  0  0
 42 43  1  0  0  0
 42 66  1  0  0  0
 42112  1  0  0  0
 42113  1  0  0  0
 43 44  1  0  0  0
 44114  1  0  0  0
 45 46  2  0  0  0
 45115  1  0  0  0
 46116  1  0  0  0
 47117  1  0  0  0
 47118  1  0  0  0
 48 56  1  0  0  0
 48 65  1  0  0  0
 48119  1  0  0  0
 49 50  1  0  0  0
 49 53  1  0  0  0
 49 64  1  0  0  0
 49120  1  0  0  0
 50 51  1  0  0  0
 50121  1  0  0  0
 50122  1  0  0  0
 51 52  1  0  0  0
 51123  1  0  0  0
 51124  1  0  0  0
 52125  1  0  0  0
 52126  1  0  0  0
 53 54  1  0  0  0
 54 55  2  0  0  0
 54127  1  0  0  0
 55 57  1  0  0  0
 55128  1  0  0  0
 56 69  2  0  0  0
 57 58  2  0  0  0
 57129  1  0  0  0
 58130  1  0  0  0
 59 60  1  0  0  0
 59 61  1  0  0  0
 59 62  1  0  0  0
 60131  1  0  0  0
 60132  1  0  0  0
 60133  1  0  0  0
 61134  1  0  0  0
 61135  1  0  0  0
 61136  1  0  0  0
 62137  1  0  0  0
 62138  1  0  0  0
 62139  1  0  0  0
 63 65  1  0  0  0
 63140  1  0  0  0
 63141  1  0  0  0
 63142  1  0  0  0
 64143  1  0  0  0
 65144  1  0  0  0
 68 79  1  0  0  0
 71 72  2  0  0  0
 71 73  1  0  0  0
 71145  1  0  0  0
 72 74  1  0  0  0
 72146  1  0  0  0
 73 75  2  0  0  0
 73 82  1  0  0  0
 74 81  2  0  0  0
 74 84  1  0  0  0
 75 81  1  0  0  0
 75 83  1  0  0  0
 76 80  1  0  0  0
 76 83  1  0  0  0
 76 85  2  0  0  0
 77147  1  0  0  0
 77148  1  0  0  0
 77149  1  0  0  0
 77 80  1  0  0  0
 78 79  1  0  0  0
 78 80  1  0  0  0
 78150  1  0  0  0
 78151  1  0  0  0
 79152  1  0  0  0
 79153  1  0  0  0
 80154  1  0  0  0
 82155  1  0  0  0
 82156  1  0  0  0
 83157  1  0  0  0
 84158  1  0  0  0
M  ISO  4   1 100  68 101  79 101  84 100
M  END
> <chiral flag>
0

> <version>
0

> <s_m_source_file>
/data/baiqing/PycharmProjects/Reinvent-master-3.2/result/LINK_invent/BTK/process_docking_weight1_custom_product_contain_oxygen_bond_distance_aromatic_linkinvent_7_9_3/rearranged_h_0186.sdf

> <i_m_source_file_index>
83

> <r_mmod_Potential_Energy-OPLS-2005>
-177.712860107422

> <r_mmod_Stretch_Energy-OPLS-2005>
49.824275970459

> <r_mmod_Bend_Energy-OPLS-2005>
114.232948303223

> <r_mmod_Torsional_Energy-OPLS-2005>
285.560974121094

> <r_mmod_Improper_Torsional_Energy-OPLS-2005>
10.7952718734741

> <r_mmod_Van_der_Waal_Energy-OPLS-2005>
185.400238037109

> <r_mmod_Electrostatic_Energy-OPLS-2005>
-613.949523925781

> <r_mmod_Solvation_Energy-OPLS-2005>
-236.955841064453

> <b_mmod_Minimization_Converged-OPLS-2005>
0

> <r_mmod_RMS_Derivative-OPLS-2005>
3.07215690612793

$$$$
84
                    3D
 Structure written by MMmdl.
153161  0  0  1  0            999 V2000
  -30.6258  -14.7240   20.4526 C   0  0  0  0  0  0
  -30.4230  -12.4399   19.4734 C   0  0  0  0  0  0
  -29.5048  -12.4994   18.2337 C   0  0  0  0  0  0
  -28.0303  -12.3310   18.6467 C   0  0  0  0  0  0
  -27.6381  -13.2325   19.8480 C   0  0  2  0  0  0
  -28.6819  -13.1710   20.9837 C   0  0  0  0  0  0
  -25.2492  -13.8198   20.5689 C   0  0  0  0  0  0
  -24.1792  -13.0444   20.9224 C   0  0  0  0  0  0
  -24.6385  -11.6924   20.8761 C   0  0  0  0  0  0
  -23.9064  -10.4295   21.0414 C   0  0  0  0  0  0
  -24.3619   -9.4210   21.9187 C   0  0  0  0  0  0
  -23.6297   -8.2245   22.0755 C   0  0  0  0  0  0
  -22.4278   -8.0280   21.3549 C   0  0  0  0  0  0
  -21.9913   -9.0251   20.4648 C   0  0  0  0  0  0
  -22.7240  -10.2133   20.3059 C   0  0  0  0  0  0
  -21.6853   -6.0734   22.5281 C   0  0  0  0  0  0
  -21.4010   -6.5640   23.8214 C   0  0  0  0  0  0
  -21.3661   -5.6794   24.9177 C   0  0  0  0  0  0
  -21.6046   -4.3057   24.7227 C   0  0  0  0  0  0
  -21.8819   -3.8148   23.4349 C   0  0  0  0  0  0
  -21.9192   -4.6962   22.3403 C   0  0  0  0  0  0
  -22.7815  -13.5225   21.1877 C   0  0  0  0  0  0
  -22.1663   -4.2149   21.0980 F   0  0  0  0  0  0
  -21.5629   -3.4541   25.7738 F   0  0  0  0  0  0
  -29.9820  -13.5100   20.3969 N   0  0  0  0  0  0
  -26.2913  -12.9411   20.3274 N   0  0  0  0  0  0
  -25.9312  -11.6552   20.5758 N   0  0  0  0  0  0
  -22.0462  -12.8210   22.0429 N   0  0  0  0  0  0
  -25.4173  -15.1917   20.4062 N   0  0  0  0  0  0
  -31.8207  -14.7930   20.1537 O   0  0  0  0  0  0
  -21.6643   -6.8877   21.4242 O   0  0  0  0  0  0
  -22.3499  -14.5531   20.6722 O   0  0  0  0  0  0
  -24.6295  -31.8546   23.1957 C   0  0  0  0  0  0
  -25.9122  -32.4746   23.8305 C   0  0  1  0  0  0
  -27.2266  -27.2727   20.1168 C   0  0  0  0  0  0
  -25.5926  -33.8549   24.2234 N   0  0  0  0  0  0
  -23.4247  -30.4754   21.5389 C   0  0  2  0  0  0
  -24.8706  -28.9183   20.1066 C   0  0  0  0  0  0
  -22.7487  -29.4595   22.4906 C   0  0  0  0  0  0
  -18.0290  -28.1387   22.8489 C   0  0  0  0  0  0
  -24.1491  -36.7271   23.2638 C   0  0  0  0  0  0
  -25.9677  -30.7714   21.3701 C   0  0  0  0  0  0
  -26.0398  -29.3945   20.7107 C   0  0  0  0  0  0
  -27.2151  -28.5827   20.7037 C   0  0  0  0  0  0
  -26.0245  -26.8432   19.5166 C   0  0  0  0  0  0
  -24.8671  -27.6502   19.5015 C   0  0  0  0  0  0
  -23.6406  -29.8047   20.1558 C   0  0  0  0  0  0
  -25.4118  -36.3057   24.0323 C   0  0  1  0  0  0
  -20.5891  -28.3690   23.1274 C   0  0  2  0  0  0
  -20.6772  -26.9409   22.5406 C   0  0  0  0  0  0
  -19.5750  -26.6381   21.5208 C   0  0  0  0  0  0
  -18.1932  -26.7930   22.1625 C   0  0  0  0  0  0
  -19.1543  -28.8857   23.2877 C   0  0  0  0  0  0
  -18.9469  -30.1460   23.8893 C   0  0  0  0  0  0
  -17.6469  -30.6589   24.0566 C   0  0  0  0  0  0
  -25.9060  -34.9434   23.5080 C   0  0  0  0  0  0
  -16.5359  -29.9090   23.6331 C   0  0  0  0  0  0
  -16.7277  -28.6506   23.0353 C   0  0  0  0  0  0
  -26.4497  -31.6578   25.0701 C   0  0  0  0  0  0
  -25.3718  -31.3736   26.1422 C   0  0  0  0  0  0
  -27.0335  -30.2996   24.6173 C   0  0  0  0  0  0
  -27.6052  -32.4317   25.7479 C   0  0  0  0  0  0
  -27.5577  -37.1786   24.8466 C   0  0  0  0  0  0
  -21.4194  -29.3038   22.3662 N   0  0  0  0  0  0
  -26.4284  -37.3762   23.9417 N   0  0  0  0  0  0
  -24.6932  -31.0520   22.0920 N   0  0  0  0  0  0
  -23.4198  -28.8140   23.3000 O   0  0  0  0  0  0
  -28.3652  -26.4445   20.2074 O   0  0  0  0  0  0
  -26.5635  -34.8917   22.4652 O   0  0  0  0  0  0
  -23.5446  -32.1358   23.7263 O   0  0  0  0  0  0
  -28.4989  -19.1041   21.0695 C   0  0  0  0  0  0
  -29.6630  -18.6608   20.4525 C   0  0  0  0  0  0
  -29.0984  -21.1977   20.1990 C   0  0  0  0  0  0
  -28.2991  -23.7370   20.1996 C   0  0  0  0  0  0
  -27.5748  -18.2601   21.8922 C   0  0  0  0  0  0
  -28.3016  -25.1640   17.9982 C   0  0  0  0  0  0
  -30.4636  -17.2941   20.4502 C   0  0  0  0  0  0
  -28.6351  -25.1453   19.5017 C   0  0  1  0  0  0
  -28.1981  -20.4994   20.9178 N   0  0  0  0  0  0
  -29.0782  -22.6402   19.8683 N   0  0  0  0  0  0
  -29.8908  -15.8899   20.6180 N   0  0  0  0  0  0
  -27.3655  -23.6686   21.0030 O   0  0  0  0  0  0
  -30.3805  -20.0785   19.6382 S   0  0  0  0  0  0
  -31.4665  -12.5509   19.1726 H   0  0  0  0  0  0
  -30.3553  -11.4650   19.9592 H   0  0  0  0  0  0
  -29.7838  -11.7249   17.5178 H   0  0  0  0  0  0
  -29.6373  -13.4532   17.7202 H   0  0  0  0  0  0
  -27.8820  -11.2826   18.9090 H   0  0  0  0  0  0
  -27.3741  -12.5258   17.7976 H   0  0  0  0  0  0
  -27.6322  -14.2533   19.4657 H   0  0  0  0  0  0
  -28.7118  -12.1771   21.4327 H   0  0  0  0  0  0
  -28.4233  -13.8635   21.7865 H   0  0  0  0  0  0
  -25.2757   -9.5687   22.4768 H   0  0  0  0  0  0
  -24.0005   -7.4632   22.7469 H   0  0  0  0  0  0
  -21.0849   -8.8767   19.8948 H   0  0  0  0  0  0
  -22.3694  -10.9674   19.6171 H   0  0  0  0  0  0
  -21.2001   -7.6148   23.9715 H   0  0  0  0  0  0
  -21.1485   -6.0525   25.9079 H   0  0  0  0  0  0
  -22.0597   -2.7609   23.2847 H   0  0  0  0  0  0
  -22.4083  -11.9868   22.4810 H   0  0  0  0  0  0
  -21.1077  -13.1227   22.2637 H   0  0  0  0  0  0
  -24.6402  -15.8373   20.4927 H   0  0  0  0  0  0
  -26.2446  -15.6197   20.0130 H   0  0  0  0  0  0
  -26.7185  -32.5393   23.1041 H   0  0  0  0  0  0
  -25.0084  -33.9692   25.0385 H   0  0  0  0  0  0
  -22.7203  -31.2964   21.3904 H   0  0  0  0  0  0
  -23.3757  -35.9599   23.3300 H   0  0  0  0  0  0
  -24.3581  -36.8892   22.2053 H   0  0  0  0  0  0
  -23.7242  -37.6470   23.6666 H   0  0  0  0  0  0
  -26.1029  -31.5323   20.6009 H   0  0  0  0  0  0
  -26.8469  -30.8201   22.0008 H   0  0  0  0  0  0
  -28.1131  -28.9437   21.1855 H   0  0  0  0  0  0
  -25.9386  -25.8528   19.1028 H   0  0  0  0  0  0
  -23.9636  -27.2691   19.0455 H   0  0  0  0  0  0
  -23.7634  -30.5789   19.3979 H   0  0  0  0  0  0
  -22.7593  -29.2361   19.8532 H   0  0  0  0  0  0
  -25.1299  -36.1889   25.0813 H   0  0  0  0  0  0
  -20.9993  -28.3261   24.1391 H   0  0  0  0  0  0
  -20.5664  -26.2298   23.3607 H   0  0  0  0  0  0
  -21.6640  -26.7424   22.1206 H   0  0  0  0  0  0
  -19.6919  -25.6292   21.1239 H   0  0  0  0  0  0
  -19.6698  -27.3192   20.6741 H   0  0  0  0  0  0
  -17.4198  -26.6672   21.4033 H   0  0  0  0  0  0
  -18.0343  -26.0070   22.9024 H   0  0  0  0  0  0
  -19.7946  -30.7274   24.2261 H   0  0  0  0  0  0
  -17.5026  -31.6273   24.5163 H   0  0  0  0  0  0
  -15.5360  -30.2996   23.7660 H   0  0  0  0  0  0
  -15.8671  -28.0827   22.7074 H   0  0  0  0  0  0
  -24.5915  -30.7058   25.7754 H   0  0  0  0  0  0
  -24.8886  -32.2905   26.4804 H   0  0  0  0  0  0
  -25.8034  -30.8953   27.0221 H   0  0  0  0  0  0
  -26.2909  -29.6752   24.1194 H   0  0  0  0  0  0
  -27.4020  -29.7253   25.4681 H   0  0  0  0  0  0
  -27.8782  -30.4274   23.9401 H   0  0  0  0  0  0
  -27.2672  -33.3639   26.2015 H   0  0  0  0  0  0
  -28.3887  -32.6833   25.0319 H   0  0  0  0  0  0
  -28.0686  -31.8459   26.5429 H   0  0  0  0  0  0
  -28.2576  -38.0101   24.7521 H   0  0  0  0  0  0
  -28.1087  -36.2629   24.6269 H   0  0  0  0  0  0
  -27.2298  -37.1396   25.8868 H   0  0  0  0  0  0
  -20.9370  -29.8760   21.6874 H   0  0  0  0  0  0
  -26.0155  -38.2827   24.1441 H   0  0  0  0  0  0
  -28.1277  -17.5665   22.5255 H   0  0  0  0  0  0
  -26.9126  -17.6715   21.2579 H   0  0  0  0  0  0
  -26.9471  -18.8654   22.5468 H   0  0  0  0  0  0
  -28.9141  -24.4404   17.4601 H   0  0  0  0  0  0
  -28.5051  -26.1432   17.5651 H   0  0  0  0  0  0
  -27.2673  -24.9023   17.7881 H   0  0  0  0  0  0
  -31.2342  -17.3834   21.2175 H   0  0  0  0  0  0
  -31.0242  -17.2688   19.5141 H   0  0  0  0  0  0
  -29.7257  -25.1511   19.5234 H   0  0  0  0  0  0
  -29.8221  -22.8931   19.2347 H   0  0  0  0  0  0
  -28.9045  -15.7956   20.8023 H   0  0  0  0  0  0
  1 25  1  0  0  0
  1 30  2  0  0  0
  1 81  1  0  0  0
  2  3  1  0  0  0
  2 25  1  0  0  0
  2 84  1  0  0  0
  2 85  1  0  0  0
  3  4  1  0  0  0
  3 86  1  0  0  0
  3 87  1  0  0  0
  4  5  1  0  0  0
  4 88  1  0  0  0
  4 89  1  0  0  0
  5  6  1  0  0  0
  5 26  1  0  0  0
  5 90  1  0  0  0
  6 25  1  0  0  0
  6 91  1  0  0  0
  6 92  1  0  0  0
  7  8  2  0  0  0
  7 26  1  0  0  0
  7 29  1  0  0  0
  8  9  1  0  0  0
  8 22  1  0  0  0
  9 10  1  0  0  0
  9 27  2  0  0  0
 10 11  2  0  0  0
 10 15  1  0  0  0
 11 12  1  0  0  0
 11 93  1  0  0  0
 12 13  2  0  0  0
 12 94  1  0  0  0
 13 14  1  0  0  0
 13 31  1  0  0  0
 14 15  2  0  0  0
 14 95  1  0  0  0
 15 96  1  0  0  0
 16 17  2  0  0  0
 16 21  1  0  0  0
 16 31  1  0  0  0
 17 18  1  0  0  0
 17 97  1  0  0  0
 18 19  2  0  0  0
 18 98  1  0  0  0
 19 20  1  0  0  0
 19 24  1  0  0  0
 20 21  2  0  0  0
 20 99  1  0  0  0
 21 23  1  0  0  0
 22 28  1  0  0  0
 22 32  2  0  0  0
 26 27  1  0  0  0
 28100  1  0  0  0
 28101  1  0  0  0
 29102  1  0  0  0
 29103  1  0  0  0
 33 34  1  0  0  0
 33 66  1  0  0  0
 33 70  2  0  0  0
 34 36  1  0  0  0
 34 59  1  0  0  0
 34104  1  0  0  0
 35 44  2  0  0  0
 35 45  1  0  0  0
 35 68  1  0  0  0
 36 56  1  0  0  0
 36105  1  0  0  0
 37 39  1  0  0  0
 37 47  1  0  0  0
 37 66  1  0  0  0
 37106  1  0  0  0
 38 43  2  0  0  0
 38 46  1  0  0  0
 38 47  1  0  0  0
 39 64  1  0  0  0
 39 67  2  0  0  0
 40 52  1  0  0  0
 40 53  2  0  0  0
 40 58  1  0  0  0
 41107  1  0  0  0
 41108  1  0  0  0
 41109  1  0  0  0
 41 48  1  0  0  0
 42 43  1  0  0  0
 42 66  1  0  0  0
 42110  1  0  0  0
 42111  1  0  0  0
 43 44  1  0  0  0
 44112  1  0  0  0
 45 46  2  0  0  0
 45113  1  0  0  0
 46114  1  0  0  0
 47115  1  0  0  0
 47116  1  0  0  0
 48 56  1  0  0  0
 48 65  1  0  0  0
 48117  1  0  0  0
 49 50  1  0  0  0
 49 53  1  0  0  0
 49 64  1  0  0  0
 49118  1  0  0  0
 50 51  1  0  0  0
 50119  1  0  0  0
 50120  1  0  0  0
 51 52  1  0  0  0
 51121  1  0  0  0
 51122  1  0  0  0
 52123  1  0  0  0
 52124  1  0  0  0
 53 54  1  0  0  0
 54 55  2  0  0  0
 54125  1  0  0  0
 55 57  1  0  0  0
 55126  1  0  0  0
 56 69  2  0  0  0
 57 58  2  0  0  0
 57127  1  0  0  0
 58128  1  0  0  0
 59 60  1  0  0  0
 59 61  1  0  0  0
 59 62  1  0  0  0
 60129  1  0  0  0
 60130  1  0  0  0
 60131  1  0  0  0
 61132  1  0  0  0
 61133  1  0  0  0
 61134  1  0  0  0
 62135  1  0  0  0
 62136  1  0  0  0
 62137  1  0  0  0
 63 65  1  0  0  0
 63138  1  0  0  0
 63139  1  0  0  0
 63140  1  0  0  0
 64141  1  0  0  0
 65142  1  0  0  0
 68 78  1  0  0  0
 71 72  2  0  0  0
 71 75  1  0  0  0
 71 79  1  0  0  0
 72 77  1  0  0  0
 72 83  1  0  0  0
 73 79  2  0  0  0
 73 80  1  0  0  0
 73 83  1  0  0  0
 74 78  1  0  0  0
 74 80  1  0  0  0
 74 82  2  0  0  0
 75143  1  0  0  0
 75144  1  0  0  0
 75145  1  0  0  0
 76146  1  0  0  0
 76147  1  0  0  0
 76148  1  0  0  0
 76 78  1  0  0  0
 77 81  1  0  0  0
 77149  1  0  0  0
 77150  1  0  0  0
 78151  1  0  0  0
 80152  1  0  0  0
 81153  1  0  0  0
M  ISO  4   1 100  68 101  78 101  81 100
M  END
> <chiral flag>
0

> <version>
0

> <s_m_source_file>
/data/baiqing/PycharmProjects/Reinvent-master-3.2/result/LINK_invent/BTK/process_docking_weight1_custom_product_contain_oxygen_bond_distance_aromatic_linkinvent_7_9_3/rearranged_h_0186.sdf

> <i_m_source_file_index>
84

> <r_mmod_Potential_Energy-OPLS-2005>
28.953727722168

> <r_mmod_Stretch_Energy-OPLS-2005>
108.086158752441

> <r_mmod_Bend_Energy-OPLS-2005>
221.51985168457

> <r_mmod_Torsional_Energy-OPLS-2005>
202.276611328125

> <r_mmod_Improper_Torsional_Energy-OPLS-2005>
5.7061824798584

> <r_mmod_Van_der_Waal_Energy-OPLS-2005>
109.752449035645

> <r_mmod_Electrostatic_Energy-OPLS-2005>
-437.361358642578

> <r_mmod_Solvation_Energy-OPLS-2005>
-257.200775146484

> <b_mmod_Minimization_Converged-OPLS-2005>
0

> <r_mmod_RMS_Derivative-OPLS-2005>
0.888943493366241

$$$$
85
                    3D
 Structure written by MMmdl.
175183  0  0  1  0            999 V2000
  -30.6600  -14.5646   20.4784 C   0  0  0  0  0  0
  -30.4285  -12.3460   19.4176 C   0  0  0  0  0  0
  -29.4991  -12.4921   18.1957 C   0  0  0  0  0  0
  -28.0196  -12.3571   18.6128 C   0  0  0  0  0  0
  -27.6551  -13.2176   19.8581 C   0  0  2  0  0  0
  -28.7049  -13.0438   20.9787 C   0  0  0  0  0  0
  -25.2584  -13.8177   20.5724 C   0  0  0  0  0  0
  -24.1839  -13.0443   20.9220 C   0  0  0  0  0  0
  -24.6398  -11.6904   20.8751 C   0  0  0  0  0  0
  -23.9049  -10.4296   21.0444 C   0  0  0  0  0  0
  -24.3611   -9.4208   21.9212 C   0  0  0  0  0  0
  -23.6295   -8.2226   22.0751 C   0  0  0  0  0  0
  -22.4286   -8.0266   21.3530 C   0  0  0  0  0  0
  -21.9913   -9.0244   20.4651 C   0  0  0  0  0  0
  -22.7222  -10.2135   20.3075 C   0  0  0  0  0  0
  -21.6845   -6.0732   22.5264 C   0  0  0  0  0  0
  -21.4007   -6.5628   23.8212 C   0  0  0  0  0  0
  -21.3668   -5.6782   24.9174 C   0  0  0  0  0  0
  -21.6058   -4.3039   24.7223 C   0  0  0  0  0  0
  -21.8831   -3.8133   23.4330 C   0  0  0  0  0  0
  -21.9206   -4.6954   22.3395 C   0  0  0  0  0  0
  -22.7862  -13.5260   21.1875 C   0  0  0  0  0  0
  -22.1673   -4.2148   21.0959 F   0  0  0  0  0  0
  -21.5639   -3.4515   25.7733 F   0  0  0  0  0  0
  -30.0172  -13.3643   20.3989 N   0  0  0  0  0  0
  -26.3014  -12.9355   20.3308 N   0  0  0  0  0  0
  -25.9316  -11.6504   20.5706 N   0  0  0  0  0  0
  -22.0462  -12.8282   22.0423 N   0  0  0  0  0  0
  -25.4294  -15.1904   20.4168 N   0  0  0  0  0  0
  -31.8364  -14.7043   20.1414 O   0  0  0  0  0  0
  -21.6623   -6.8862   21.4229 O   0  0  0  0  0  0
  -22.3557  -14.5569   20.6702 O   0  0  0  0  0  0
  -24.6185  -31.8603   23.2042 C   0  0  0  0  0  0
  -25.9075  -32.4765   23.8356 C   0  0  1  0  0  0
  -27.2262  -27.3705   20.1178 C   0  0  0  0  0  0
  -25.5937  -33.8569   24.2274 N   0  0  0  0  0  0
  -23.4087  -30.4866   21.5419 C   0  0  2  0  0  0
  -24.8594  -28.9402   20.1186 C   0  0  0  0  0  0
  -22.7442  -29.4628   22.4917 C   0  0  0  0  0  0
  -18.0320  -28.1388   22.8474 C   0  0  0  0  0  0
  -24.1488  -36.7299   23.2623 C   0  0  0  0  0  0
  -25.9422  -30.8106   21.3657 C   0  0  0  0  0  0
  -26.0197  -29.4365   20.7228 C   0  0  0  0  0  0
  -27.2098  -28.6599   20.7168 C   0  0  0  0  0  0
  -26.0509  -26.9147   19.4878 C   0  0  0  0  0  0
  -24.8746  -27.6877   19.4865 C   0  0  0  0  0  0
  -23.6241  -29.8120   20.1611 C   0  0  0  0  0  0
  -25.4104  -36.3056   24.0300 C   0  0  1  0  0  0
  -20.5895  -28.3692   23.1284 C   0  0  2  0  0  0
  -20.6765  -26.9393   22.5403 C   0  0  0  0  0  0
  -19.5752  -26.6385   21.5191 C   0  0  0  0  0  0
  -18.1955  -26.7930   22.1613 C   0  0  0  0  0  0
  -19.1562  -28.8854   23.2886 C   0  0  0  0  0  0
  -18.9475  -30.1459   23.8885 C   0  0  0  0  0  0
  -17.6477  -30.6567   24.0563 C   0  0  0  0  0  0
  -25.9039  -34.9435   23.5061 C   0  0  0  0  0  0
  -16.5374  -29.9080   23.6304 C   0  0  0  0  0  0
  -16.7306  -28.6510   23.0292 C   0  0  0  0  0  0
  -26.4509  -31.6539   25.0678 C   0  0  0  0  0  0
  -25.3784  -31.3663   26.1427 C   0  0  0  0  0  0
  -27.0311  -30.2951   24.6082 C   0  0  0  0  0  0
  -27.6077  -32.4259   25.7469 C   0  0  0  0  0  0
  -27.5575  -37.1793   24.8444 C   0  0  0  0  0  0
  -21.4145  -29.3062   22.3674 N   0  0  0  0  0  0
  -26.4280  -37.3761   23.9400 N   0  0  0  0  0  0
  -24.6739  -31.0692   22.0961 N   0  0  0  0  0  0
  -23.4200  -28.8130   23.2926 O   0  0  0  0  0  0
  -28.3696  -26.5893   20.0498 O   0  0  0  0  0  0
  -26.5594  -34.8918   22.4627 O   0  0  0  0  0  0
  -23.5384  -32.1370   23.7440 O   0  0  0  0  0  0
  -29.7038  -18.1965   20.1805 C   0  0  0  0  0  0
  -29.5644  -18.3621   18.8097 C   0  0  0  0  0  0
  -28.9047  -20.3844   20.1172 C   0  0  0  0  0  0
  -30.9715  -18.7961   15.9316 C   0  0  0  0  0  0
  -28.5915  -22.8801   20.0672 C   0  0  0  0  0  0
  -30.6217  -19.9692   15.0218 C   0  0  0  0  0  0
  -26.8133  -23.6550   21.7690 C   0  0  0  0  0  0
  -29.4414  -17.0537   13.9486 C   0  0  0  0  0  0
  -30.7691  -15.6228   15.5134 C   0  0  0  0  0  0
  -28.2966  -15.9006   15.8308 C   0  0  0  0  0  0
  -30.3602  -17.0393   20.9611 C   0  0  0  0  0  0
  -28.4862  -25.4323   20.9279 C   0  0  0  0  0  0
  -29.8044  -17.8643   16.3626 C   0  0  1  0  0  0
  -27.7302  -24.0790   20.5981 C   0  0  1  0  0  0
  -29.5993  -16.6241   15.4263 C   0  0  0  0  0  0
  -29.2746  -19.3480   20.8972 N   0  0  0  0  0  0
  -29.9256  -17.4767   17.7774 N   0  0  0  0  0  0
  -28.4710  -21.6511   20.6441 N   0  0  0  0  0  0
  -29.8879  -15.6407   20.7639 N   0  0  0  0  0  0
  -32.1345  -18.6528   16.3194 O   0  0  0  0  0  0
  -29.3612  -23.0815   19.1232 O   0  0  0  0  0  0
  -28.9171  -19.9589   18.4180 S   0  0  0  0  0  0
  -31.4721  -12.4557   19.1119 H   0  0  0  0  0  0
  -30.3378  -11.3482   19.8494 H   0  0  0  0  0  0
  -29.7424  -11.7380   17.4444 H   0  0  0  0  0  0
  -29.6648  -13.4591   17.7195 H   0  0  0  0  0  0
  -27.8429  -11.3009   18.8224 H   0  0  0  0  0  0
  -27.3688  -12.6121   17.7746 H   0  0  0  0  0  0
  -27.6782  -14.2591   19.5357 H   0  0  0  0  0  0
  -28.7064  -12.0177   21.3491 H   0  0  0  0  0  0
  -28.4747  -13.6724   21.8416 H   0  0  0  0  0  0
  -25.2767   -9.5691   22.4756 H   0  0  0  0  0  0
  -24.0031   -7.4623   22.7467 H   0  0  0  0  0  0
  -21.0836   -8.8761   19.8955 H   0  0  0  0  0  0
  -22.3706  -10.9660   19.6158 H   0  0  0  0  0  0
  -21.1968   -7.6141   23.9723 H   0  0  0  0  0  0
  -21.1480   -6.0495   25.9090 H   0  0  0  0  0  0
  -22.0606   -2.7587   23.2823 H   0  0  0  0  0  0
  -22.4059  -11.9959   22.4844 H   0  0  0  0  0  0
  -21.1052  -13.1291   22.2547 H   0  0  0  0  0  0
  -24.6584  -15.8411   20.5333 H   0  0  0  0  0  0
  -26.2707  -15.6304   20.0673 H   0  0  0  0  0  0
  -26.7134  -32.5491   23.1124 H   0  0  0  0  0  0
  -25.0115  -33.9715   25.0435 H   0  0  0  0  0  0
  -22.6990  -31.3043   21.3975 H   0  0  0  0  0  0
  -23.3724  -35.9663   23.3244 H   0  0  0  0  0  0
  -24.3593  -36.8953   22.2049 H   0  0  0  0  0  0
  -23.7268  -37.6497   23.6673 H   0  0  0  0  0  0
  -26.0598  -31.5678   20.5876 H   0  0  0  0  0  0
  -26.8261  -30.8684   21.9863 H   0  0  0  0  0  0
  -28.1103  -29.0428   21.1755 H   0  0  0  0  0  0
  -26.0337  -25.9672   18.9736 H   0  0  0  0  0  0
  -23.9886  -27.3176   18.9910 H   0  0  0  0  0  0
  -23.7491  -30.5773   19.3966 H   0  0  0  0  0  0
  -22.7466  -29.2371   19.8580 H   0  0  0  0  0  0
  -25.1292  -36.1876   25.0789 H   0  0  0  0  0  0
  -21.0079  -28.3287   24.1361 H   0  0  0  0  0  0
  -20.5557  -26.2286   23.3597 H   0  0  0  0  0  0
  -21.6638  -26.7324   22.1221 H   0  0  0  0  0  0
  -19.6842  -25.6289   21.1217 H   0  0  0  0  0  0
  -19.6708  -27.3193   20.6723 H   0  0  0  0  0  0
  -17.4195  -26.6674   21.4039 H   0  0  0  0  0  0
  -18.0417  -26.0059   22.8998 H   0  0  0  0  0  0
  -19.7942  -30.7301   24.2209 H   0  0  0  0  0  0
  -17.5009  -31.6208   24.5231 H   0  0  0  0  0  0
  -15.5372  -30.2957   23.7610 H   0  0  0  0  0  0
  -15.8715  -28.0828   22.6954 H   0  0  0  0  0  0
  -24.5998  -30.6946   25.7788 H   0  0  0  0  0  0
  -24.8947  -32.2822   26.4849 H   0  0  0  0  0  0
  -25.8177  -30.8890   27.0198 H   0  0  0  0  0  0
  -26.2839  -29.6707   24.1155 H   0  0  0  0  0  0
  -27.4031  -29.7205   25.4578 H   0  0  0  0  0  0
  -27.8718  -30.4176   23.9236 H   0  0  0  0  0  0
  -27.2677  -33.3555   26.2068 H   0  0  0  0  0  0
  -28.3925  -32.6812   25.0320 H   0  0  0  0  0  0
  -28.0698  -31.8351   26.5395 H   0  0  0  0  0  0
  -28.2534  -38.0140   24.7544 H   0  0  0  0  0  0
  -28.1130  -36.2685   24.6197 H   0  0  0  0  0  0
  -27.2321  -37.1331   25.8848 H   0  0  0  0  0  0
  -20.9278  -29.8815   21.6923 H   0  0  0  0  0  0
  -26.0128  -38.2800   24.1502 H   0  0  0  0  0  0
  -29.6079  -19.8834   14.6299 H   0  0  0  0  0  0
  -31.3094  -20.0144   14.1796 H   0  0  0  0  0  0
  -30.6915  -20.9047   15.5765 H   0  0  0  0  0  0
  -26.1947  -22.7929   21.5163 H   0  0  0  0  0  0
  -26.1269  -24.4594   22.0333 H   0  0  0  0  0  0
  -27.3918  -23.4165   22.6648 H   0  0  0  0  0  0
  -29.1098  -16.2296   13.3167 H   0  0  0  0  0  0
  -30.3812  -17.4059   13.5229 H   0  0  0  0  0  0
  -28.7087  -17.8540   13.8370 H   0  0  0  0  0  0
  -30.6307  -14.7957   14.8172 H   0  0  0  0  0  0
  -30.8549  -15.1931   16.5098 H   0  0  0  0  0  0
  -31.7233  -16.0887   15.2694 H   0  0  0  0  0  0
  -28.0824  -15.0578   15.1721 H   0  0  0  0  0  0
  -27.4415  -16.5770   15.7850 H   0  0  0  0  0  0
  -28.3448  -15.5078   16.8479 H   0  0  0  0  0  0
  -30.2519  -17.2203   22.0296 H   0  0  0  0  0  0
  -31.4380  -17.0913   20.7963 H   0  0  0  0  0  0
  -29.5550  -25.2259   20.9900 H   0  0  0  0  0  0
  -28.2287  -25.7607   21.9353 H   0  0  0  0  0  0
  -28.8881  -18.4455   16.2623 H   0  0  0  0  0  0
  -27.0658  -24.2815   19.7638 H   0  0  0  0  0  0
  -30.6363  -16.7744   17.9556 H   0  0  0  0  0  0
  -27.9450  -21.6119   21.5045 H   0  0  0  0  0  0
  -28.9203  -15.4584   20.9656 H   0  0  0  0  0  0
  1 25  1  0  0  0
  1 30  2  0  0  0
  1 89  1  0  0  0
  2  3  1  0  0  0
  2 25  1  0  0  0
  2 93  1  0  0  0
  2 94  1  0  0  0
  3  4  1  0  0  0
  3 95  1  0  0  0
  3 96  1  0  0  0
  4  5  1  0  0  0
  4 97  1  0  0  0
  4 98  1  0  0  0
  5  6  1  0  0  0
  5 26  1  0  0  0
  5 99  1  0  0  0
  6 25  1  0  0  0
  6100  1  0  0  0
  6101  1  0  0  0
  7  8  2  0  0  0
  7 26  1  0  0  0
  7 29  1  0  0  0
  8  9  1  0  0  0
  8 22  1  0  0  0
  9 10  1  0  0  0
  9 27  2  0  0  0
 10 11  2  0  0  0
 10 15  1  0  0  0
 11 12  1  0  0  0
 11102  1  0  0  0
 12 13  2  0  0  0
 12103  1  0  0  0
 13 14  1  0  0  0
 13 31  1  0  0  0
 14 15  2  0  0  0
 14104  1  0  0  0
 15105  1  0  0  0
 16 17  2  0  0  0
 16 21  1  0  0  0
 16 31  1  0  0  0
 17 18  1  0  0  0
 17106  1  0  0  0
 18 19  2  0  0  0
 18107  1  0  0  0
 19 20  1  0  0  0
 19 24  1  0  0  0
 20 21  2  0  0  0
 20108  1  0  0  0
 21 23  1  0  0  0
 22 28  1  0  0  0
 22 32  2  0  0  0
 26 27  1  0  0  0
 28109  1  0  0  0
 28110  1  0  0  0
 29111  1  0  0  0
 29112  1  0  0  0
 33 34  1  0  0  0
 33 66  1  0  0  0
 33 70  2  0  0  0
 34 36  1  0  0  0
 34 59  1  0  0  0
 34113  1  0  0  0
 35 44  2  0  0  0
 35 45  1  0  0  0
 35 68  1  0  0  0
 36 56  1  0  0  0
 36114  1  0  0  0
 37 39  1  0  0  0
 37 47  1  0  0  0
 37 66  1  0  0  0
 37115  1  0  0  0
 38 43  2  0  0  0
 38 46  1  0  0  0
 38 47  1  0  0  0
 39 64  1  0  0  0
 39 67  2  0  0  0
 40 52  1  0  0  0
 40 53  2  0  0  0
 40 58  1  0  0  0
 41116  1  0  0  0
 41117  1  0  0  0
 41118  1  0  0  0
 41 48  1  0  0  0
 42 43  1  0  0  0
 42 66  1  0  0  0
 42119  1  0  0  0
 42120  1  0  0  0
 43 44  1  0  0  0
 44121  1  0  0  0
 45 46  2  0  0  0
 45122  1  0  0  0
 46123  1  0  0  0
 47124  1  0  0  0
 47125  1  0  0  0
 48 56  1  0  0  0
 48 65  1  0  0  0
 48126  1  0  0  0
 49 50  1  0  0  0
 49 53  1  0  0  0
 49 64  1  0  0  0
 49127  1  0  0  0
 50 51  1  0  0  0
 50128  1  0  0  0
 50129  1  0  0  0
 51 52  1  0  0  0
 51130  1  0  0  0
 51131  1  0  0  0
 52132  1  0  0  0
 52133  1  0  0  0
 53 54  1  0  0  0
 54 55  2  0  0  0
 54134  1  0  0  0
 55 57  1  0  0  0
 55135  1  0  0  0
 56 69  2  0  0  0
 57 58  2  0  0  0
 57136  1  0  0  0
 58137  1  0  0  0
 59 60  1  0  0  0
 59 61  1  0  0  0
 59 62  1  0  0  0
 60138  1  0  0  0
 60139  1  0  0  0
 60140  1  0  0  0
 61141  1  0  0  0
 61142  1  0  0  0
 61143  1  0  0  0
 62144  1  0  0  0
 62145  1  0  0  0
 62146  1  0  0  0
 63 65  1  0  0  0
 63147  1  0  0  0
 63148  1  0  0  0
 63149  1  0  0  0
 64150  1  0  0  0
 65151  1  0  0  0
 68 82  1  0  0  0
 71 72  2  0  0  0
 71 81  1  0  0  0
 71 86  1  0  0  0
 72 87  1  0  0  0
 72 92  1  0  0  0
 73 86  2  0  0  0
 73 88  1  0  0  0
 73 92  1  0  0  0
 74 76  1  0  0  0
 74 83  1  0  0  0
 74 90  2  0  0  0
 75 84  1  0  0  0
 75 88  1  0  0  0
 75 91  2  0  0  0
 76152  1  0  0  0
 76153  1  0  0  0
 76154  1  0  0  0
 77155  1  0  0  0
 77156  1  0  0  0
 77157  1  0  0  0
 77 84  1  0  0  0
 78158  1  0  0  0
 78159  1  0  0  0
 78160  1  0  0  0
 78 85  1  0  0  0
 79 85  1  0  0  0
 79161  1  0  0  0
 79162  1  0  0  0
 79163  1  0  0  0
 80 85  1  0  0  0
 80164  1  0  0  0
 80165  1  0  0  0
 80166  1  0  0  0
 81 89  1  0  0  0
 81167  1  0  0  0
 81168  1  0  0  0
 82 84  1  0  0  0
 82169  1  0  0  0
 82170  1  0  0  0
 83 85  1  0  0  0
 83 87  1  0  0  0
 83171  1  0  0  0
 84172  1  0  0  0
 87173  1  0  0  0
 88174  1  0  0  0
 89175  1  0  0  0
M  ISO  4   1 100  68 101  82 101  89 100
M  END
> <chiral flag>
0

> <version>
0

> <s_m_source_file>
/data/baiqing/PycharmProjects/Reinvent-master-3.2/result/LINK_invent/BTK/process_docking_weight1_custom_product_contain_oxygen_bond_distance_aromatic_linkinvent_7_9_3/rearranged_h_0186.sdf

> <i_m_source_file_index>
85

> <r_mmod_Potential_Energy-OPLS-2005>
-111.567893981934

> <r_mmod_Stretch_Energy-OPLS-2005>
60.382869720459

> <r_mmod_Bend_Energy-OPLS-2005>
138.867599487305

> <r_mmod_Torsional_Energy-OPLS-2005>
251.095550537109

> <r_mmod_Improper_Torsional_Energy-OPLS-2005>
7.08212661743164

> <r_mmod_Van_der_Waal_Energy-OPLS-2005>
120.191413879395

> <r_mmod_Electrostatic_Energy-OPLS-2005>
-474.205657958984

> <r_mmod_Solvation_Energy-OPLS-2005>
-242.952407836914

> <b_mmod_Minimization_Converged-OPLS-2005>
0

> <r_mmod_RMS_Derivative-OPLS-2005>
5.03000736236572

$$$$
86
                    3D
 Structure written by MMmdl.
169177  0  0  1  0            999 V2000
  -30.6206  -14.5491   20.5269 C   0  0  0  0  0  0
  -30.4320  -12.3499   19.4006 C   0  0  0  0  0  0
  -29.4928  -12.5227   18.1870 C   0  0  0  0  0  0
  -28.0099  -12.3752   18.5964 C   0  0  0  0  0  0
  -27.6524  -13.1951   19.8624 C   0  0  2  0  0  0
  -28.7010  -12.9801   20.9762 C   0  0  0  0  0  0
  -25.2574  -13.8117   20.5736 C   0  0  0  0  0  0
  -24.1824  -13.0421   20.9221 C   0  0  0  0  0  0
  -24.6374  -11.6869   20.8759 C   0  0  0  0  0  0
  -23.9057  -10.4256   21.0441 C   0  0  0  0  0  0
  -24.3564   -9.4135   21.9212 C   0  0  0  0  0  0
  -23.6234   -8.2186   22.0810 C   0  0  0  0  0  0
  -22.4224   -8.0241   21.3579 C   0  0  0  0  0  0
  -21.9849   -9.0190   20.4694 C   0  0  0  0  0  0
  -22.7207  -10.2082   20.3087 C   0  0  0  0  0  0
  -21.6797   -6.0671   22.5262 C   0  0  0  0  0  0
  -21.3971   -6.5591   23.8183 C   0  0  0  0  0  0
  -21.3691   -5.6777   24.9178 C   0  0  0  0  0  0
  -21.6063   -4.3054   24.7203 C   0  0  0  0  0  0
  -21.8798   -3.8096   23.4350 C   0  0  0  0  0  0
  -21.9162   -4.6901   22.3381 C   0  0  0  0  0  0
  -22.7852  -13.5273   21.1864 C   0  0  0  0  0  0
  -22.1640   -4.2080   21.0964 F   0  0  0  0  0  0
  -21.5656   -3.4561   25.7738 F   0  0  0  0  0  0
  -30.0196  -13.3307   20.4134 N   0  0  0  0  0  0
  -26.2979  -12.9263   20.3297 N   0  0  0  0  0  0
  -25.9294  -11.6448   20.5705 N   0  0  0  0  0  0
  -22.0448  -12.8273   22.0410 N   0  0  0  0  0  0
  -25.4342  -15.1838   20.4253 N   0  0  0  0  0  0
  -31.7799  -14.7666   20.1612 O   0  0  0  0  0  0
  -21.6624   -6.8808   21.4223 O   0  0  0  0  0  0
  -22.3553  -14.5567   20.6724 O   0  0  0  0  0  0
  -24.6157  -31.8688   23.2106 C   0  0  0  0  0  0
  -25.9057  -32.4826   23.8404 C   0  0  1  0  0  0
  -27.2367  -27.4017   20.0876 C   0  0  0  0  0  0
  -25.5904  -33.8617   24.2321 N   0  0  0  0  0  0
  -23.4034  -30.4912   21.5550 C   0  0  2  0  0  0
  -24.8532  -28.9582   20.1164 C   0  0  0  0  0  0
  -22.7431  -29.4629   22.5003 C   0  0  0  0  0  0
  -18.0273  -28.1371   22.8482 C   0  0  0  0  0  0
  -24.1483  -36.7300   23.2637 C   0  0  0  0  0  0
  -25.9390  -30.8194   21.3740 C   0  0  0  0  0  0
  -26.0168  -29.4539   20.7178 C   0  0  0  0  0  0
  -27.2093  -28.6825   20.7011 C   0  0  0  0  0  0
  -26.0512  -26.9444   19.4664 C   0  0  0  0  0  0
  -24.8683  -27.7036   19.4864 C   0  0  0  0  0  0
  -23.6147  -29.8269   20.1681 C   0  0  0  0  0  0
  -25.4111  -36.3115   24.0334 C   0  0  1  0  0  0
  -20.5868  -28.3649   23.1337 C   0  0  2  0  0  0
  -20.6778  -26.9382   22.5427 C   0  0  0  0  0  0
  -19.5754  -26.6374   21.5224 C   0  0  0  0  0  0
  -18.1929  -26.7914   22.1616 C   0  0  0  0  0  0
  -19.1526  -28.8831   23.2897 C   0  0  0  0  0  0
  -18.9451  -30.1439   23.8910 C   0  0  0  0  0  0
  -17.6448  -30.6573   24.0568 C   0  0  0  0  0  0
  -25.9047  -34.9482   23.5131 C   0  0  0  0  0  0
  -16.5339  -29.9070   23.6319 C   0  0  0  0  0  0
  -16.7264  -28.6488   23.0343 C   0  0  0  0  0  0
  -26.4474  -31.6597   25.0738 C   0  0  0  0  0  0
  -25.3714  -31.3721   26.1460 C   0  0  0  0  0  0
  -27.0299  -30.3041   24.6111 C   0  0  0  0  0  0
  -27.6046  -32.4321   25.7491 C   0  0  0  0  0  0
  -27.5579  -37.1812   24.8463 C   0  0  0  0  0  0
  -21.4158  -29.3019   22.3759 N   0  0  0  0  0  0
  -26.4301  -37.3805   23.9402 N   0  0  0  0  0  0
  -24.6714  -31.0743   22.1048 N   0  0  0  0  0  0
  -23.4205  -28.8177   23.3061 O   0  0  0  0  0  0
  -28.4068  -26.6440   20.0744 O   0  0  0  0  0  0
  -26.5600  -34.8934   22.4688 O   0  0  0  0  0  0
  -23.5353  -32.1456   23.7491 O   0  0  0  0  0  0
  -29.3352  -19.7593   19.0543 C   0  0  0  0  0  0
  -29.3155  -18.3742   19.4362 C   0  0  0  0  0  0
  -29.9989  -18.1220   20.6112 C   0  0  0  0  0  0
  -30.0356  -20.5900   19.8994 C   0  0  0  0  0  0
  -29.2409  -22.8740   19.4693 C   0  0  0  0  0  0
  -28.5287  -17.3585   18.6617 C   0  0  0  0  0  0
  -28.1295  -24.9508   21.7807 C   0  0  0  0  0  0
  -29.6459  -15.7768   23.8010 C   0  0  0  0  0  0
  -30.2130  -18.1735   23.7643 C   0  0  0  0  0  0
  -31.9234  -16.4690   23.0552 C   0  0  0  0  0  0
  -29.5159  -24.3914   19.6949 C   0  0  0  0  0  0
  -29.8905  -16.8730   21.5181 C   0  0  2  0  0  0
  -28.3035  -25.2021   20.2719 C   0  0  2  0  0  0
  -30.4308  -16.8455   23.0004 C   0  0  0  0  0  0
  -30.1416  -21.9618   19.9175 N   0  0  0  0  0  0
  -29.7657  -15.5189   20.9267 N   0  0  0  0  0  0
  -28.2200  -22.5434   18.8620 O   0  0  0  0  0  0
  -30.8798  -19.5877   21.0616 S   0  0  0  0  0  0
  -31.4718  -12.4842   19.0986 H   0  0  0  0  0  0
  -30.3594  -11.3415   19.8055 H   0  0  0  0  0  0
  -29.7403  -11.7898   17.4181 H   0  0  0  0  0  0
  -29.6517  -13.5036   17.7371 H   0  0  0  0  0  0
  -27.8209  -11.3180   18.7759 H   0  0  0  0  0  0
  -27.3604  -12.6661   17.7681 H   0  0  0  0  0  0
  -27.6875  -14.2407   19.5601 H   0  0  0  0  0  0
  -28.7036  -11.9446   21.3177 H   0  0  0  0  0  0
  -28.4453  -13.5640   21.8593 H   0  0  0  0  0  0
  -25.2741   -9.5537   22.4778 H   0  0  0  0  0  0
  -23.9898   -7.4552   22.7545 H   0  0  0  0  0  0
  -21.0762   -8.8703   19.9023 H   0  0  0  0  0  0
  -22.3676  -10.9566   19.6166 H   0  0  0  0  0  0
  -21.1932   -7.6104   23.9643 H   0  0  0  0  0  0
  -21.1597   -6.0539   25.9094 H   0  0  0  0  0  0
  -22.0573   -2.7552   23.2869 H   0  0  0  0  0  0
  -22.4095  -11.9956   22.4780 H   0  0  0  0  0  0
  -21.1073  -13.1305   22.2627 H   0  0  0  0  0  0
  -24.6721  -15.8399   20.5591 H   0  0  0  0  0  0
  -26.2759  -15.6238   20.0830 H   0  0  0  0  0  0
  -26.7120  -32.5531   23.1164 H   0  0  0  0  0  0
  -25.0091  -33.9789   25.0492 H   0  0  0  0  0  0
  -22.6923  -31.3098   21.4201 H   0  0  0  0  0  0
  -23.3758  -35.9619   23.3319 H   0  0  0  0  0  0
  -24.3582  -36.8889   22.2047 H   0  0  0  0  0  0
  -23.7212  -37.6503   23.6640 H   0  0  0  0  0  0
  -26.0630  -31.5879   20.6104 H   0  0  0  0  0  0
  -26.8256  -30.8723   21.9930 H   0  0  0  0  0  0
  -28.1043  -29.0630   21.1721 H   0  0  0  0  0  0
  -26.0176  -26.0089   18.9289 H   0  0  0  0  0  0
  -23.9791  -27.3291   18.9977 H   0  0  0  0  0  0
  -23.7239  -30.6086   19.4144 H   0  0  0  0  0  0
  -22.7368  -29.2493   19.8664 H   0  0  0  0  0  0
  -25.1285  -36.1993   25.0826 H   0  0  0  0  0  0
  -20.9936  -28.3211   24.1469 H   0  0  0  0  0  0
  -20.5710  -26.2242   23.3605 H   0  0  0  0  0  0
  -21.6650  -26.7461   22.1207 H   0  0  0  0  0  0
  -19.6935  -25.6294   21.1232 H   0  0  0  0  0  0
  -19.6707  -27.3208   20.6772 H   0  0  0  0  0  0
  -17.4207  -26.6661   21.4008 H   0  0  0  0  0  0
  -18.0328  -26.0057   22.9008 H   0  0  0  0  0  0
  -19.7928  -30.7257   24.2287 H   0  0  0  0  0  0
  -17.5005  -31.6258   24.5160 H   0  0  0  0  0  0
  -15.5345  -30.2987   23.7654 H   0  0  0  0  0  0
  -15.8643  -28.0821   22.7062 H   0  0  0  0  0  0
  -24.5902  -30.7051   25.7790 H   0  0  0  0  0  0
  -24.8886  -32.2886   26.4879 H   0  0  0  0  0  0
  -25.8055  -30.8909   27.0237 H   0  0  0  0  0  0
  -26.2854  -29.6823   24.1127 H   0  0  0  0  0  0
  -27.4034  -29.7256   25.4574 H   0  0  0  0  0  0
  -27.8713  -30.4361   23.9300 H   0  0  0  0  0  0
  -27.2670  -33.3625   26.2078 H   0  0  0  0  0  0
  -28.3860  -32.6868   25.0313 H   0  0  0  0  0  0
  -28.0714  -31.8430   26.5402 H   0  0  0  0  0  0
  -28.2611  -38.0100   24.7520 H   0  0  0  0  0  0
  -28.1064  -36.2635   24.6288 H   0  0  0  0  0  0
  -27.2299  -37.1457   25.8869 H   0  0  0  0  0  0
  -20.9339  -29.8716   21.6943 H   0  0  0  0  0  0
  -26.0187  -38.2882   24.1411 H   0  0  0  0  0  0
  -28.7777  -20.1077   18.1946 H   0  0  0  0  0  0
  -28.1319  -17.7657   17.7316 H   0  0  0  0  0  0
  -27.6851  -16.9880   19.2408 H   0  0  0  0  0  0
  -29.1476  -16.5057   18.3839 H   0  0  0  0  0  0
  -28.0147  -23.8893   22.0053 H   0  0  0  0  0  0
  -27.2471  -25.4607   22.1663 H   0  0  0  0  0  0
  -28.9926  -25.3175   22.3360 H   0  0  0  0  0  0
  -29.9631  -15.7453   24.8411 H   0  0  0  0  0  0
  -29.7863  -14.7709   23.4125 H   0  0  0  0  0  0
  -28.5771  -15.9894   23.8018 H   0  0  0  0  0  0
  -30.1257  -18.0284   24.8419 H   0  0  0  0  0  0
  -29.3064  -18.6792   23.4271 H   0  0  0  0  0  0
  -31.0503  -18.8570   23.6386 H   0  0  0  0  0  0
  -32.3011  -16.5032   24.0786 H   0  0  0  0  0  0
  -32.5304  -17.1409   22.4478 H   0  0  0  0  0  0
  -32.1104  -15.4595   22.6965 H   0  0  0  0  0  0
  -29.7789  -24.8024   18.7193 H   0  0  0  0  0  0
  -30.4002  -24.5358   20.3161 H   0  0  0  0  0  0
  -28.8260  -16.9832   21.7373 H   0  0  0  0  0  0
  -27.4233  -24.8073   19.7743 H   0  0  0  0  0  0
  -30.9295  -22.3361   20.4258 H   0  0  0  0  0  0
  -28.8392  -15.1404   21.0470 H   0  0  0  0  0  0
  1 25  1  0  0  0
  1 30  2  0  0  0
  1 86  1  0  0  0
  2  3  1  0  0  0
  2 25  1  0  0  0
  2 89  1  0  0  0
  2 90  1  0  0  0
  3  4  1  0  0  0
  3 91  1  0  0  0
  3 92  1  0  0  0
  4  5  1  0  0  0
  4 93  1  0  0  0
  4 94  1  0  0  0
  5  6  1  0  0  0
  5 26  1  0  0  0
  5 95  1  0  0  0
  6 25  1  0  0  0
  6 96  1  0  0  0
  6 97  1  0  0  0
  7  8  2  0  0  0
  7 26  1  0  0  0
  7 29  1  0  0  0
  8  9  1  0  0  0
  8 22  1  0  0  0
  9 10  1  0  0  0
  9 27  2  0  0  0
 10 11  2  0  0  0
 10 15  1  0  0  0
 11 12  1  0  0  0
 11 98  1  0  0  0
 12 13  2  0  0  0
 12 99  1  0  0  0
 13 14  1  0  0  0
 13 31  1  0  0  0
 14 15  2  0  0  0
 14100  1  0  0  0
 15101  1  0  0  0
 16 17  2  0  0  0
 16 21  1  0  0  0
 16 31  1  0  0  0
 17 18  1  0  0  0
 17102  1  0  0  0
 18 19  2  0  0  0
 18103  1  0  0  0
 19 20  1  0  0  0
 19 24  1  0  0  0
 20 21  2  0  0  0
 20104  1  0  0  0
 21 23  1  0  0  0
 22 28  1  0  0  0
 22 32  2  0  0  0
 26 27  1  0  0  0
 28105  1  0  0  0
 28106  1  0  0  0
 29107  1  0  0  0
 29108  1  0  0  0
 33 34  1  0  0  0
 33 66  1  0  0  0
 33 70  2  0  0  0
 34 36  1  0  0  0
 34 59  1  0  0  0
 34109  1  0  0  0
 35 44  2  0  0  0
 35 45  1  0  0  0
 35 68  1  0  0  0
 36 56  1  0  0  0
 36110  1  0  0  0
 37 39  1  0  0  0
 37 47  1  0  0  0
 37 66  1  0  0  0
 37111  1  0  0  0
 38 43  2  0  0  0
 38 46  1  0  0  0
 38 47  1  0  0  0
 39 64  1  0  0  0
 39 67  2  0  0  0
 40 52  1  0  0  0
 40 53  2  0  0  0
 40 58  1  0  0  0
 41112  1  0  0  0
 41113  1  0  0  0
 41114  1  0  0  0
 41 48  1  0  0  0
 42 43  1  0  0  0
 42 66  1  0  0  0
 42115  1  0  0  0
 42116  1  0  0  0
 43 44  1  0  0  0
 44117  1  0  0  0
 45 46  2  0  0  0
 45118  1  0  0  0
 46119  1  0  0  0
 47120  1  0  0  0
 47121  1  0  0  0
 48 56  1  0  0  0
 48 65  1  0  0  0
 48122  1  0  0  0
 49 50  1  0  0  0
 49 53  1  0  0  0
 49 64  1  0  0  0
 49123  1  0  0  0
 50 51  1  0  0  0
 50124  1  0  0  0
 50125  1  0  0  0
 51 52  1  0  0  0
 51126  1  0  0  0
 51127  1  0  0  0
 52128  1  0  0  0
 52129  1  0  0  0
 53 54  1  0  0  0
 54 55  2  0  0  0
 54130  1  0  0  0
 55 57  1  0  0  0
 55131  1  0  0  0
 56 69  2  0  0  0
 57 58  2  0  0  0
 57132  1  0  0  0
 58133  1  0  0  0
 59 60  1  0  0  0
 59 61  1  0  0  0
 59 62  1  0  0  0
 60134  1  0  0  0
 60135  1  0  0  0
 60136  1  0  0  0
 61137  1  0  0  0
 61138  1  0  0  0
 61139  1  0  0  0
 62140  1  0  0  0
 62141  1  0  0  0
 62142  1  0  0  0
 63 65  1  0  0  0
 63143  1  0  0  0
 63144  1  0  0  0
 63145  1  0  0  0
 64146  1  0  0  0
 65147  1  0  0  0
 68 83  1  0  0  0
 71 72  1  0  0  0
 71 74  2  0  0  0
 71148  1  0  0  0
 72 73  2  0  0  0
 72 76  1  0  0  0
 73 82  1  0  0  0
 73 88  1  0  0  0
 74 85  1  0  0  0
 74 88  1  0  0  0
 75 81  1  0  0  0
 75 85  1  0  0  0
 75 87  2  0  0  0
 76149  1  0  0  0
 76150  1  0  0  0
 76151  1  0  0  0
 77152  1  0  0  0
 77153  1  0  0  0
 77154  1  0  0  0
 77 83  1  0  0  0
 78155  1  0  0  0
 78156  1  0  0  0
 78157  1  0  0  0
 78 84  1  0  0  0
 79 84  1  0  0  0
 79158  1  0  0  0
 79159  1  0  0  0
 79160  1  0  0  0
 80 84  1  0  0  0
 80161  1  0  0  0
 80162  1  0  0  0
 80163  1  0  0  0
 81 83  1  0  0  0
 81164  1  0  0  0
 81165  1  0  0  0
 82 84  1  0  0  0
 82 86  1  0  0  0
 82166  1  0  0  0
 83167  1  0  0  0
 85168  1  0  0  0
 86169  1  0  0  0
M  ISO  4   1 100  68 101  83 101  86 100
M  END
> <chiral flag>
0

> <version>
0

> <s_m_source_file>
/data/baiqing/PycharmProjects/Reinvent-master-3.2/result/LINK_invent/BTK/process_docking_weight1_custom_product_contain_oxygen_bond_distance_aromatic_linkinvent_7_9_3/rearranged_h_0186.sdf

> <i_m_source_file_index>
86

> <r_mmod_Potential_Energy-OPLS-2005>
-60.6194152832031

> <r_mmod_Stretch_Energy-OPLS-2005>
54.0548934936523

> <r_mmod_Bend_Energy-OPLS-2005>
176.406936645508

> <r_mmod_Torsional_Energy-OPLS-2005>
232.04541015625

> <r_mmod_Improper_Torsional_Energy-OPLS-2005>
5.38452863693237

> <r_mmod_Van_der_Waal_Energy-OPLS-2005>
135.4248046875

> <r_mmod_Electrostatic_Energy-OPLS-2005>
-469.990447998047

> <r_mmod_Solvation_Energy-OPLS-2005>
-217.024475097656

> <b_mmod_Minimization_Converged-OPLS-2005>
0

> <r_mmod_RMS_Derivative-OPLS-2005>
5.52398300170898

$$$$
87
                    3D
 Structure written by MMmdl.
162170  0  0  1  0            999 V2000
  -30.6156  -14.7362   20.4679 C   0  0  0  0  0  0
  -30.4280  -12.4528   19.4668 C   0  0  0  0  0  0
  -29.5051  -12.5048   18.2306 C   0  0  0  0  0  0
  -28.0321  -12.3300   18.6476 C   0  0  0  0  0  0
  -27.6394  -13.2309   19.8493 C   0  0  2  0  0  0
  -28.6839  -13.1641   20.9834 C   0  0  0  0  0  0
  -25.2500  -13.8193   20.5687 C   0  0  0  0  0  0
  -24.1797  -13.0441   20.9219 C   0  0  0  0  0  0
  -24.6391  -11.6918   20.8763 C   0  0  0  0  0  0
  -23.9066  -10.4294   21.0415 C   0  0  0  0  0  0
  -24.3618   -9.4207   21.9186 C   0  0  0  0  0  0
  -23.6294   -8.2242   22.0756 C   0  0  0  0  0  0
  -22.4276   -8.0281   21.3549 C   0  0  0  0  0  0
  -21.9910   -9.0253   20.4648 C   0  0  0  0  0  0
  -22.7239  -10.2133   20.3058 C   0  0  0  0  0  0
  -21.6853   -6.0732   22.5276 C   0  0  0  0  0  0
  -21.4013   -6.5638   23.8209 C   0  0  0  0  0  0
  -21.3659   -5.6794   24.9173 C   0  0  0  0  0  0
  -21.6045   -4.3056   24.7225 C   0  0  0  0  0  0
  -21.8820   -3.8144   23.4348 C   0  0  0  0  0  0
  -21.9193   -4.6959   22.3402 C   0  0  0  0  0  0
  -22.7820  -13.5226   21.1870 C   0  0  0  0  0  0
  -22.1661   -4.2145   21.0980 F   0  0  0  0  0  0
  -21.5627   -3.4538   25.7737 F   0  0  0  0  0  0
  -29.9816  -13.5164   20.3962 N   0  0  0  0  0  0
  -26.2923  -12.9399   20.3277 N   0  0  0  0  0  0
  -25.9316  -11.6542   20.5755 N   0  0  0  0  0  0
  -22.0469  -12.8217   22.0428 N   0  0  0  0  0  0
  -25.4186  -15.1908   20.4050 N   0  0  0  0  0  0
  -31.7990  -14.8236   20.1304 O   0  0  0  0  0  0
  -21.6644   -6.8874   21.4240 O   0  0  0  0  0  0
  -22.3507  -14.5532   20.6716 O   0  0  0  0  0  0
  -24.6305  -31.8533   23.1951 C   0  0  0  0  0  0
  -25.9132  -32.4739   23.8303 C   0  0  1  0  0  0
  -27.2242  -27.2582   20.1180 C   0  0  0  0  0  0
  -25.5932  -33.8544   24.2228 N   0  0  0  0  0  0
  -23.4263  -30.4750   21.5383 C   0  0  2  0  0  0
  -24.8719  -28.9158   20.1072 C   0  0  0  0  0  0
  -22.7492  -29.4593   22.4893 C   0  0  0  0  0  0
  -18.0290  -28.1388   22.8481 C   0  0  0  0  0  0
  -24.1494  -36.7270   23.2639 C   0  0  0  0  0  0
  -25.9709  -30.7655   21.3719 C   0  0  0  0  0  0
  -26.0424  -29.3873   20.7126 C   0  0  0  0  0  0
  -27.2160  -28.5696   20.7061 C   0  0  0  0  0  0
  -26.0201  -26.8374   19.5158 C   0  0  0  0  0  0
  -24.8657  -27.6484   19.5013 C   0  0  0  0  0  0
  -23.6432  -29.8045   20.1551 C   0  0  0  0  0  0
  -25.4121  -36.3054   24.0322 C   0  0  1  0  0  0
  -20.5893  -28.3697   23.1261 C   0  0  2  0  0  0
  -20.6778  -26.9415   22.5400 C   0  0  0  0  0  0
  -19.5760  -26.6378   21.5206 C   0  0  0  0  0  0
  -18.1939  -26.7927   22.1618 C   0  0  0  0  0  0
  -19.1546  -28.8862   23.2866 C   0  0  0  0  0  0
  -18.9470  -30.1463   23.8885 C   0  0  0  0  0  0
  -17.6472  -30.6590   24.0567 C   0  0  0  0  0  0
  -25.9062  -34.9431   23.5078 C   0  0  0  0  0  0
  -16.5362  -29.9091   23.6333 C   0  0  0  0  0  0
  -16.7279  -28.6513   23.0346 C   0  0  0  0  0  0
  -26.4501  -31.6577   25.0704 C   0  0  0  0  0  0
  -25.3719  -31.3740   26.1422 C   0  0  0  0  0  0
  -27.0355  -30.2996   24.6194 C   0  0  0  0  0  0
  -27.6057  -32.4320   25.7479 C   0  0  0  0  0  0
  -27.5578  -37.1784   24.8464 C   0  0  0  0  0  0
  -21.4203  -29.3046   22.3649 N   0  0  0  0  0  0
  -26.4285  -37.3760   23.9417 N   0  0  0  0  0  0
  -24.6953  -31.0498   22.0918 N   0  0  0  0  0  0
  -23.4201  -28.8134   23.2987 O   0  0  0  0  0  0
  -28.3571  -26.4160   20.2042 O   0  0  0  0  0  0
  -26.5635  -34.8915   22.4646 O   0  0  0  0  0  0
  -23.5457  -32.1357   23.7252 O   0  0  0  0  0  0
  -28.3121  -19.0509   20.9683 C   0  0  0  0  0  0
  -29.6010  -18.6163   20.6746 C   0  0  0  0  0  0
  -29.0698  -21.1488   20.2414 C   0  0  0  0  0  0
  -28.2855  -23.6949   20.1992 C   0  0  0  0  0  0
  -27.2292  -18.2253   21.5916 C   0  0  0  0  0  0
  -28.2391  -25.1192   18.0037 C   0  0  0  0  0  0
  -31.8329  -16.3187   23.0357 C   0  0  0  0  0  0
  -31.2431  -18.7484   23.0698 C   0  0  0  0  0  0
  -30.3882  -17.2892   21.0799 C   0  0  1  0  0  0
  -28.6159  -25.1078   19.4972 C   0  0  1  0  0  0
  -30.7779  -17.3549   22.5986 C   0  0  0  0  0  0
  -28.0360  -20.4373   20.7276 N   0  0  0  0  0  0
  -29.0774  -22.5936   19.8990 N   0  0  0  0  0  0
  -29.8786  -15.8736   20.7809 N   0  0  0  0  0  0
  -27.3379  -23.6263   20.9862 O   0  0  0  0  0  0
  -30.4585  -20.0327   19.9877 S   0  0  0  0  0  0
  -31.4685  -12.5753   19.1615 H   0  0  0  0  0  0
  -30.3731  -11.4756   19.9496 H   0  0  0  0  0  0
  -29.7859  -11.7294   17.5163 H   0  0  0  0  0  0
  -29.6323  -13.4574   17.7144 H   0  0  0  0  0  0
  -27.8900  -11.2815   18.9118 H   0  0  0  0  0  0
  -27.3730  -12.5201   17.7997 H   0  0  0  0  0  0
  -27.6348  -14.2528   19.4697 H   0  0  0  0  0  0
  -28.7201  -12.1661   21.4228 H   0  0  0  0  0  0
  -28.4197  -13.8446   21.7943 H   0  0  0  0  0  0
  -25.2760   -9.5682   22.4763 H   0  0  0  0  0  0
  -24.0000   -7.4632   22.7476 H   0  0  0  0  0  0
  -21.0841   -8.8771   19.8953 H   0  0  0  0  0  0
  -22.3697  -10.9672   19.6169 H   0  0  0  0  0  0
  -21.2009   -7.6147   23.9711 H   0  0  0  0  0  0
  -21.1479   -6.0525   25.9077 H   0  0  0  0  0  0
  -22.0601   -2.7606   23.2851 H   0  0  0  0  0  0
  -22.4086  -11.9877   22.4810 H   0  0  0  0  0  0
  -21.1084  -13.1234   22.2633 H   0  0  0  0  0  0
  -24.6381  -15.8332   20.4857 H   0  0  0  0  0  0
  -26.2424  -15.6163   20.0019 H   0  0  0  0  0  0
  -26.7193  -32.5381   23.1037 H   0  0  0  0  0  0
  -25.0106  -33.9690   25.0389 H   0  0  0  0  0  0
  -22.7234  -31.2975   21.3898 H   0  0  0  0  0  0
  -23.3761  -35.9599   23.3300 H   0  0  0  0  0  0
  -24.3582  -36.8891   22.2051 H   0  0  0  0  0  0
  -23.7245  -37.6468   23.6671 H   0  0  0  0  0  0
  -26.1099  -31.5262   20.6019 H   0  0  0  0  0  0
  -26.8482  -30.8139   22.0053 H   0  0  0  0  0  0
  -28.1140  -28.9274   21.1903 H   0  0  0  0  0  0
  -25.9318  -25.8488   19.0984 H   0  0  0  0  0  0
  -23.9611  -27.2714   19.0445 H   0  0  0  0  0  0
  -23.7684  -30.5799   19.3983 H   0  0  0  0  0  0
  -22.7606  -29.2393   19.8497 H   0  0  0  0  0  0
  -25.1302  -36.1886   25.0813 H   0  0  0  0  0  0
  -21.0001  -28.3278   24.1374 H   0  0  0  0  0  0
  -20.5670  -26.2311   23.3607 H   0  0  0  0  0  0
  -21.6645  -26.7431   22.1201 H   0  0  0  0  0  0
  -19.6934  -25.6288   21.1240 H   0  0  0  0  0  0
  -19.6705  -27.3183   20.6738 H   0  0  0  0  0  0
  -17.4206  -26.6670   21.4024 H   0  0  0  0  0  0
  -18.0351  -26.0069   22.9015 H   0  0  0  0  0  0
  -19.7949  -30.7277   24.2247 H   0  0  0  0  0  0
  -17.5035  -31.6271   24.5164 H   0  0  0  0  0  0
  -15.5367  -30.2998   23.7674 H   0  0  0  0  0  0
  -15.8672  -28.0840   22.7062 H   0  0  0  0  0  0
  -24.5907  -30.7075   25.7753 H   0  0  0  0  0  0
  -24.8899  -32.2917   26.4808 H   0  0  0  0  0  0
  -25.8023  -30.8947   27.0226 H   0  0  0  0  0  0
  -26.2946  -29.6732   24.1216 H   0  0  0  0  0  0
  -27.4044  -29.7268   25.4711 H   0  0  0  0  0  0
  -27.8817  -30.4273   23.9436 H   0  0  0  0  0  0
  -27.2672  -33.3637   26.2025 H   0  0  0  0  0  0
  -28.3884  -32.6847   25.0313 H   0  0  0  0  0  0
  -28.0711  -31.8463   26.5413 H   0  0  0  0  0  0
  -28.2575  -38.0099   24.7520 H   0  0  0  0  0  0
  -28.1087  -36.2626   24.6271 H   0  0  0  0  0  0
  -27.2298  -37.1401   25.8866 H   0  0  0  0  0  0
  -20.9385  -29.8769   21.6855 H   0  0  0  0  0  0
  -26.0155  -38.2828   24.1437 H   0  0  0  0  0  0
  -27.5986  -17.2620   21.9405 H   0  0  0  0  0  0
  -26.4258  -18.0295   20.8816 H   0  0  0  0  0  0
  -26.7904  -18.7315   22.4514 H   0  0  0  0  0  0
  -28.8953  -24.4569   17.4383 H   0  0  0  0  0  0
  -28.3410  -26.1167   17.5765 H   0  0  0  0  0  0
  -27.2244  -24.7679   17.8244 H   0  0  0  0  0  0
  -32.1435  -16.4802   24.0683 H   0  0  0  0  0  0
  -32.7266  -16.3727   22.4131 H   0  0  0  0  0  0
  -31.4503  -15.3003   22.9981 H   0  0  0  0  0  0
  -31.5399  -18.7329   24.1187 H   0  0  0  0  0  0
  -30.4547  -19.4968   22.9918 H   0  0  0  0  0  0
  -32.1000  -19.0961   22.4920 H   0  0  0  0  0  0
  -31.3286  -17.3549   20.5299 H   0  0  0  0  0  0
  -29.7067  -25.1129   19.4918 H   0  0  0  0  0  0
  -29.8722  -17.1430   23.1690 H   0  0  0  0  0  0
  -29.8575  -22.8440   19.3088 H   0  0  0  0  0  0
  -28.9001  -15.7123   20.9571 H   0  0  0  0  0  0
  1 25  1  0  0  0
  1 30  2  0  0  0
  1 84  1  0  0  0
  2  3  1  0  0  0
  2 25  1  0  0  0
  2 87  1  0  0  0
  2 88  1  0  0  0
  3  4  1  0  0  0
  3 89  1  0  0  0
  3 90  1  0  0  0
  4  5  1  0  0  0
  4 91  1  0  0  0
  4 92  1  0  0  0
  5  6  1  0  0  0
  5 26  1  0  0  0
  5 93  1  0  0  0
  6 25  1  0  0  0
  6 94  1  0  0  0
  6 95  1  0  0  0
  7  8  2  0  0  0
  7 26  1  0  0  0
  7 29  1  0  0  0
  8  9  1  0  0  0
  8 22  1  0  0  0
  9 10  1  0  0  0
  9 27  2  0  0  0
 10 11  2  0  0  0
 10 15  1  0  0  0
 11 12  1  0  0  0
 11 96  1  0  0  0
 12 13  2  0  0  0
 12 97  1  0  0  0
 13 14  1  0  0  0
 13 31  1  0  0  0
 14 15  2  0  0  0
 14 98  1  0  0  0
 15 99  1  0  0  0
 16 17  2  0  0  0
 16 21  1  0  0  0
 16 31  1  0  0  0
 17 18  1  0  0  0
 17100  1  0  0  0
 18 19  2  0  0  0
 18101  1  0  0  0
 19 20  1  0  0  0
 19 24  1  0  0  0
 20 21  2  0  0  0
 20102  1  0  0  0
 21 23  1  0  0  0
 22 28  1  0  0  0
 22 32  2  0  0  0
 26 27  1  0  0  0
 28103  1  0  0  0
 28104  1  0  0  0
 29105  1  0  0  0
 29106  1  0  0  0
 33 34  1  0  0  0
 33 66  1  0  0  0
 33 70  2  0  0  0
 34 36  1  0  0  0
 34 59  1  0  0  0
 34107  1  0  0  0
 35 44  2  0  0  0
 35 45  1  0  0  0
 35 68  1  0  0  0
 36 56  1  0  0  0
 36108  1  0  0  0
 37 39  1  0  0  0
 37 47  1  0  0  0
 37 66  1  0  0  0
 37109  1  0  0  0
 38 43  2  0  0  0
 38 46  1  0  0  0
 38 47  1  0  0  0
 39 64  1  0  0  0
 39 67  2  0  0  0
 40 52  1  0  0  0
 40 53  2  0  0  0
 40 58  1  0  0  0
 41110  1  0  0  0
 41111  1  0  0  0
 41112  1  0  0  0
 41 48  1  0  0  0
 42 43  1  0  0  0
 42 66  1  0  0  0
 42113  1  0  0  0
 42114  1  0  0  0
 43 44  1  0  0  0
 44115  1  0  0  0
 45 46  2  0  0  0
 45116  1  0  0  0
 46117  1  0  0  0
 47118  1  0  0  0
 47119  1  0  0  0
 48 56  1  0  0  0
 48 65  1  0  0  0
 48120  1  0  0  0
 49 50  1  0  0  0
 49 53  1  0  0  0
 49 64  1  0  0  0
 49121  1  0  0  0
 50 51  1  0  0  0
 50122  1  0  0  0
 50123  1  0  0  0
 51 52  1  0  0  0
 51124  1  0  0  0
 51125  1  0  0  0
 52126  1  0  0  0
 52127  1  0  0  0
 53 54  1  0  0  0
 54 55  2  0  0  0
 54128  1  0  0  0
 55 57  1  0  0  0
 55129  1  0  0  0
 56 69  2  0  0  0
 57 58  2  0  0  0
 57130  1  0  0  0
 58131  1  0  0  0
 59 60  1  0  0  0
 59 61  1  0  0  0
 59 62  1  0  0  0
 60132  1  0  0  0
 60133  1  0  0  0
 60134  1  0  0  0
 61135  1  0  0  0
 61136  1  0  0  0
 61137  1  0  0  0
 62138  1  0  0  0
 62139  1  0  0  0
 62140  1  0  0  0
 63 65  1  0  0  0
 63141  1  0  0  0
 63142  1  0  0  0
 63143  1  0  0  0
 64144  1  0  0  0
 65145  1  0  0  0
 68 80  1  0  0  0
 71 72  2  0  0  0
 71 75  1  0  0  0
 71 82  1  0  0  0
 72 79  1  0  0  0
 72 86  1  0  0  0
 73 82  2  0  0  0
 73 83  1  0  0  0
 73 86  1  0  0  0
 74 80  1  0  0  0
 74 83  1  0  0  0
 74 85  2  0  0  0
 75146  1  0  0  0
 75147  1  0  0  0
 75148  1  0  0  0
 76149  1  0  0  0
 76150  1  0  0  0
 76151  1  0  0  0
 76 80  1  0  0  0
 77152  1  0  0  0
 77153  1  0  0  0
 77154  1  0  0  0
 77 81  1  0  0  0
 78 81  1  0  0  0
 78155  1  0  0  0
 78156  1  0  0  0
 78157  1  0  0  0
 79 81  1  0  0  0
 79 84  1  0  0  0
 79158  1  0  0  0
 80159  1  0  0  0
 81160  1  0  0  0
 83161  1  0  0  0
 84162  1  0  0  0
M  ISO  4   1 100  68 101  80 101  84 100
M  END
> <chiral flag>
0

> <version>
0

> <s_m_source_file>
/data/baiqing/PycharmProjects/Reinvent-master-3.2/result/LINK_invent/BTK/process_docking_weight1_custom_product_contain_oxygen_bond_distance_aromatic_linkinvent_7_9_3/rearranged_h_0186.sdf

> <i_m_source_file_index>
87

> <r_mmod_Potential_Energy-OPLS-2005>
36.9683303833008

> <r_mmod_Stretch_Energy-OPLS-2005>
123.063377380371

> <r_mmod_Bend_Energy-OPLS-2005>
219.748870849609

> <r_mmod_Torsional_Energy-OPLS-2005>
204.236083984375

> <r_mmod_Improper_Torsional_Energy-OPLS-2005>
5.10209655761719

> <r_mmod_Van_der_Waal_Energy-OPLS-2005>
111.827774047852

> <r_mmod_Electrostatic_Energy-OPLS-2005>
-462.309173583984

> <r_mmod_Solvation_Energy-OPLS-2005>
-245.878479003906

> <b_mmod_Minimization_Converged-OPLS-2005>
0

> <r_mmod_RMS_Derivative-OPLS-2005>
0.948211848735809

$$$$
88
                    3D
 Structure written by MMmdl.
159167  0  0  1  0            999 V2000
  -30.7046  -14.4549   20.6245 C   0  0  0  0  0  0
  -30.4303  -12.3184   19.4096 C   0  0  0  0  0  0
  -29.4940  -12.5355   18.2001 C   0  0  0  0  0  0
  -28.0148  -12.3849   18.6070 C   0  0  0  0  0  0
  -27.6672  -13.1991   19.8799 C   0  0  2  0  0  0
  -28.7058  -12.9240   20.9883 C   0  0  0  0  0  0
  -25.2610  -13.8143   20.5664 C   0  0  0  0  0  0
  -24.1833  -13.0444   20.9160 C   0  0  0  0  0  0
  -24.6364  -11.6893   20.8702 C   0  0  0  0  0  0
  -23.9026  -10.4288   21.0404 C   0  0  0  0  0  0
  -24.3592   -9.4211   21.9174 C   0  0  0  0  0  0
  -23.6287   -8.2236   22.0735 C   0  0  0  0  0  0
  -22.4267   -8.0279   21.3543 C   0  0  0  0  0  0
  -21.9897   -9.0255   20.4645 C   0  0  0  0  0  0
  -22.7204  -10.2131   20.3050 C   0  0  0  0  0  0
  -21.6851   -6.0722   22.5290 C   0  0  0  0  0  0
  -21.4015   -6.5624   23.8221 C   0  0  0  0  0  0
  -21.3662   -5.6760   24.9176 C   0  0  0  0  0  0
  -21.6051   -4.3025   24.7227 C   0  0  0  0  0  0
  -21.8820   -3.8132   23.4338 C   0  0  0  0  0  0
  -21.9195   -4.6952   22.3399 C   0  0  0  0  0  0
  -22.7869  -13.5282   21.1854 C   0  0  0  0  0  0
  -22.1668   -4.2141   21.0975 F   0  0  0  0  0  0
  -21.5637   -3.4508   25.7747 F   0  0  0  0  0  0
  -30.0407  -13.2722   20.4626 N   0  0  0  0  0  0
  -26.3042  -12.9285   20.3359 N   0  0  0  0  0  0
  -25.9288  -11.6454   20.5708 N   0  0  0  0  0  0
  -22.0463  -12.8295   22.0389 N   0  0  0  0  0  0
  -25.4394  -15.1866   20.4120 N   0  0  0  0  0  0
  -31.7903  -14.6704   20.0721 O   0  0  0  0  0  0
  -21.6628   -6.8877   21.4256 O   0  0  0  0  0  0
  -22.3568  -14.5599   20.6712 O   0  0  0  0  0  0
  -24.6173  -31.8655   23.2075 C   0  0  0  0  0  0
  -25.9053  -32.4819   23.8372 C   0  0  1  0  0  0
  -27.2516  -27.4212   20.0870 C   0  0  0  0  0  0
  -25.5898  -33.8610   24.2301 N   0  0  0  0  0  0
  -23.4072  -30.4879   21.5489 C   0  0  2  0  0  0
  -24.8556  -28.9493   20.1155 C   0  0  0  0  0  0
  -22.7437  -29.4645   22.4993 C   0  0  0  0  0  0
  -18.0277  -28.1370   22.8495 C   0  0  0  0  0  0
  -24.1475  -36.7312   23.2641 C   0  0  0  0  0  0
  -25.9377  -30.8284   21.3597 C   0  0  0  0  0  0
  -26.0175  -29.4606   20.7063 C   0  0  0  0  0  0
  -27.2170  -28.7075   20.6805 C   0  0  0  0  0  0
  -26.0624  -26.9246   19.5027 C   0  0  0  0  0  0
  -24.8748  -27.6826   19.5080 C   0  0  0  0  0  0
  -23.6153  -29.8158   20.1653 C   0  0  0  0  0  0
  -25.4098  -36.3108   24.0335 C   0  0  1  0  0  0
  -20.5868  -28.3657   23.1332 C   0  0  2  0  0  0
  -20.6761  -26.9395   22.5424 C   0  0  0  0  0  0
  -19.5745  -26.6376   21.5217 C   0  0  0  0  0  0
  -18.1922  -26.7913   22.1623 C   0  0  0  0  0  0
  -19.1524  -28.8835   23.2906 C   0  0  0  0  0  0
  -18.9445  -30.1438   23.8914 C   0  0  0  0  0  0
  -17.6449  -30.6581   24.0550 C   0  0  0  0  0  0
  -25.9035  -34.9472   23.5115 C   0  0  0  0  0  0
  -16.5340  -29.9078   23.6315 C   0  0  0  0  0  0
  -16.7265  -28.6490   23.0348 C   0  0  0  0  0  0
  -26.4467  -31.6612   25.0715 C   0  0  0  0  0  0
  -25.3732  -31.3763   26.1484 C   0  0  0  0  0  0
  -27.0258  -30.3035   24.6098 C   0  0  0  0  0  0
  -27.6046  -32.4329   25.7476 C   0  0  0  0  0  0
  -27.5577  -37.1806   24.8457 C   0  0  0  0  0  0
  -21.4163  -29.3025   22.3747 N   0  0  0  0  0  0
  -26.4276  -37.3800   23.9421 N   0  0  0  0  0  0
  -24.6731  -31.0746   22.0974 N   0  0  0  0  0  0
  -23.4200  -28.8185   23.3039 O   0  0  0  0  0  0
  -28.4371  -26.7022   20.0677 O   0  0  0  0  0  0
  -26.5602  -34.8944   22.4681 O   0  0  0  0  0  0
  -23.5359  -32.1398   23.7468 O   0  0  0  0  0  0
  -29.8038  -20.3378   22.2976 C   0  0  0  0  0  0
  -29.8374  -18.9230   22.5098 C   0  0  0  0  0  0
  -30.0324  -18.2214   21.3346 C   0  0  0  0  0  0
  -29.9666  -20.7472   20.9912 C   0  0  0  0  0  0
  -30.1412  -16.7908   21.1212 C   0  0  0  0  0  0
  -30.0321  -15.4706   21.4365 C   0  0  0  0  0  0
  -29.5800  -23.1720   21.0556 C   0  0  0  0  0  0
  -30.3892  -24.3728   18.9142 C   0  0  0  0  0  0
  -30.6918  -25.4056   21.1785 C   0  0  0  0  0  0
  -28.3565  -25.2626   20.1884 C   0  0  0  0  0  0
  -29.6653  -18.3024   23.8749 C   0  0  0  0  0  0
  -29.7465  -24.5412   20.3130 C   0  0  0  0  0  0
  -29.9778  -22.0142   20.4666 N   0  0  0  0  0  0
  -29.1000  -23.1884   22.1918 O   0  0  0  0  0  0
  -29.7291  -19.2118   24.8478 F   0  0  0  0  0  0
  -28.4829  -17.6960   23.9734 F   0  0  0  0  0  0
  -30.6085  -17.3918   24.1213 F   0  0  0  0  0  0
  -30.2186  -19.3268   19.9860 S   0  0  0  0  0  0
  -31.4705  -12.4343   19.1034 H   0  0  0  0  0  0
  -30.3470  -11.2928   19.7781 H   0  0  0  0  0  0
  -29.7362  -11.8267   17.4085 H   0  0  0  0  0  0
  -29.6555  -13.5313   17.7831 H   0  0  0  0  0  0
  -27.8209  -11.3278   18.7823 H   0  0  0  0  0  0
  -27.3650  -12.6802   17.7827 H   0  0  0  0  0  0
  -27.7296  -14.2551   19.6131 H   0  0  0  0  0  0
  -28.6908  -11.8624   21.2470 H   0  0  0  0  0  0
  -28.4325  -13.4250   21.9133 H   0  0  0  0  0  0
  -25.2746   -9.5700   22.4726 H   0  0  0  0  0  0
  -24.0032   -7.4616   22.7429 H   0  0  0  0  0  0
  -21.0833   -8.8773   19.8943 H   0  0  0  0  0  0
  -22.3692  -10.9667   19.6151 H   0  0  0  0  0  0
  -21.1987   -7.6129   23.9752 H   0  0  0  0  0  0
  -21.1491   -6.0463   25.9088 H   0  0  0  0  0  0
  -22.0594   -2.7605   23.2825 H   0  0  0  0  0  0
  -22.4062  -11.9974   22.4829 H   0  0  0  0  0  0
  -21.1098  -13.1373   22.2579 H   0  0  0  0  0  0
  -24.6811  -15.8491   20.5288 H   0  0  0  0  0  0
  -26.3090  -15.6249   20.1324 H   0  0  0  0  0  0
  -26.7130  -32.5523   23.1147 H   0  0  0  0  0  0
  -25.0038  -33.9758   25.0440 H   0  0  0  0  0  0
  -22.6961  -31.3047   21.4078 H   0  0  0  0  0  0
  -23.3734  -35.9646   23.3303 H   0  0  0  0  0  0
  -24.3577  -36.8925   22.2058 H   0  0  0  0  0  0
  -23.7222  -37.6518   23.6648 H   0  0  0  0  0  0
  -26.0479  -31.5949   20.5905 H   0  0  0  0  0  0
  -26.8264  -30.8848   21.9768 H   0  0  0  0  0  0
  -28.1177  -29.1076   21.1236 H   0  0  0  0  0  0
  -26.0350  -25.9600   19.0200 H   0  0  0  0  0  0
  -23.9827  -27.2861   19.0430 H   0  0  0  0  0  0
  -23.7231  -30.5867   19.4016 H   0  0  0  0  0  0
  -22.7403  -29.2328   19.8719 H   0  0  0  0  0  0
  -25.1269  -36.1967   25.0822 H   0  0  0  0  0  0
  -20.9950  -28.3206   24.1457 H   0  0  0  0  0  0
  -20.5667  -26.2263   23.3606 H   0  0  0  0  0  0
  -21.6636  -26.7442   22.1224 H   0  0  0  0  0  0
  -19.6910  -25.6285   21.1247 H   0  0  0  0  0  0
  -19.6690  -27.3191   20.6747 H   0  0  0  0  0  0
  -17.4199  -26.6680   21.4009 H   0  0  0  0  0  0
  -18.0314  -26.0049   22.9014 H   0  0  0  0  0  0
  -19.7918  -30.7244   24.2304 H   0  0  0  0  0  0
  -17.5000  -31.6268   24.5136 H   0  0  0  0  0  0
  -15.5335  -30.2983   23.7628 H   0  0  0  0  0  0
  -15.8662  -28.0809   22.7057 H   0  0  0  0  0  0
  -24.5836  -30.7194   25.7833 H   0  0  0  0  0  0
  -24.9021  -32.2951   26.4982 H   0  0  0  0  0  0
  -25.8080  -30.8874   27.0211 H   0  0  0  0  0  0
  -26.2780  -29.6857   24.1117 H   0  0  0  0  0  0
  -27.3962  -29.7237   25.4564 H   0  0  0  0  0  0
  -27.8655  -30.4335   23.9271 H   0  0  0  0  0  0
  -27.2653  -33.3616   26.2078 H   0  0  0  0  0  0
  -28.3836  -32.6914   25.0292 H   0  0  0  0  0  0
  -28.0728  -31.8438   26.5377 H   0  0  0  0  0  0
  -28.2593  -38.0108   24.7509 H   0  0  0  0  0  0
  -28.1063  -36.2636   24.6240 H   0  0  0  0  0  0
  -27.2311  -37.1426   25.8866 H   0  0  0  0  0  0
  -20.9336  -29.8750   21.6966 H   0  0  0  0  0  0
  -26.0162  -38.2873   24.1429 H   0  0  0  0  0  0
  -29.6607  -20.9987   23.1384 H   0  0  0  0  0  0
  -29.2815  -16.8342   21.7666 H   0  0  0  0  0  0
  -29.4818  -15.1222   22.3060 H   0  0  0  0  0  0
  -31.3966  -23.9544   18.9740 H   0  0  0  0  0  0
  -30.4791  -25.3375   18.4124 H   0  0  0  0  0  0
  -29.7941  -23.7319   18.2618 H   0  0  0  0  0  0
  -31.6114  -24.8723   21.4290 H   0  0  0  0  0  0
  -30.2154  -25.6986   22.1154 H   0  0  0  0  0  0
  -30.9851  -26.3209   20.6629 H   0  0  0  0  0  0
  -27.7379  -25.0482   21.0613 H   0  0  0  0  0  0
  -27.8346  -24.8379   19.3303 H   0  0  0  0  0  0
  -30.3149  -22.1018   19.5187 H   0  0  0  0  0  0
  1 25  1  0  0  0
  1 30  2  0  0  0
  1 76  1  0  0  0
  2  3  1  0  0  0
  2 25  1  0  0  0
  2 89  1  0  0  0
  2 90  1  0  0  0
  3  4  1  0  0  0
  3 91  1  0  0  0
  3 92  1  0  0  0
  4  5  1  0  0  0
  4 93  1  0  0  0
  4 94  1  0  0  0
  5  6  1  0  0  0
  5 26  1  0  0  0
  5 95  1  0  0  0
  6 25  1  0  0  0
  6 96  1  0  0  0
  6 97  1  0  0  0
  7  8  2  0  0  0
  7 26  1  0  0  0
  7 29  1  0  0  0
  8  9  1  0  0  0
  8 22  1  0  0  0
  9 10  1  0  0  0
  9 27  2  0  0  0
 10 11  2  0  0  0
 10 15  1  0  0  0
 11 12  1  0  0  0
 11 98  1  0  0  0
 12 13  2  0  0  0
 12 99  1  0  0  0
 13 14  1  0  0  0
 13 31  1  0  0  0
 14 15  2  0  0  0
 14100  1  0  0  0
 15101  1  0  0  0
 16 17  2  0  0  0
 16 21  1  0  0  0
 16 31  1  0  0  0
 17 18  1  0  0  0
 17102  1  0  0  0
 18 19  2  0  0  0
 18103  1  0  0  0
 19 20  1  0  0  0
 19 24  1  0  0  0
 20 21  2  0  0  0
 20104  1  0  0  0
 21 23  1  0  0  0
 22 28  1  0  0  0
 22 32  2  0  0  0
 26 27  1  0  0  0
 28105  1  0  0  0
 28106  1  0  0  0
 29107  1  0  0  0
 29108  1  0  0  0
 33 34  1  0  0  0
 33 66  1  0  0  0
 33 70  2  0  0  0
 34 36  1  0  0  0
 34 59  1  0  0  0
 34109  1  0  0  0
 35 44  2  0  0  0
 35 45  1  0  0  0
 35 68  1  0  0  0
 36 56  1  0  0  0
 36110  1  0  0  0
 37 39  1  0  0  0
 37 47  1  0  0  0
 37 66  1  0  0  0
 37111  1  0  0  0
 38 43  2  0  0  0
 38 46  1  0  0  0
 38 47  1  0  0  0
 39 64  1  0  0  0
 39 67  2  0  0  0
 40 52  1  0  0  0
 40 53  2  0  0  0
 40 58  1  0  0  0
 41112  1  0  0  0
 41113  1  0  0  0
 41114  1  0  0  0
 41 48  1  0  0  0
 42 43  1  0  0  0
 42 66  1  0  0  0
 42115  1  0  0  0
 42116  1  0  0  0
 43 44  1  0  0  0
 44117  1  0  0  0
 45 46  2  0  0  0
 45118  1  0  0  0
 46119  1  0  0  0
 47120  1  0  0  0
 47121  1  0  0  0
 48 56  1  0  0  0
 48 65  1  0  0  0
 48122  1  0  0  0
 49 50  1  0  0  0
 49 53  1  0  0  0
 49 64  1  0  0  0
 49123  1  0  0  0
 50 51  1  0  0  0
 50124  1  0  0  0
 50125  1  0  0  0
 51 52  1  0  0  0
 51126  1  0  0  0
 51127  1  0  0  0
 52128  1  0  0  0
 52129  1  0  0  0
 53 54  1  0  0  0
 54 55  2  0  0  0
 54130  1  0  0  0
 55 57  1  0  0  0
 55131  1  0  0  0
 56 69  2  0  0  0
 57 58  2  0  0  0
 57132  1  0  0  0
 58133  1  0  0  0
 59 60  1  0  0  0
 59 61  1  0  0  0
 59 62  1  0  0  0
 60134  1  0  0  0
 60135  1  0  0  0
 60136  1  0  0  0
 61137  1  0  0  0
 61138  1  0  0  0
 61139  1  0  0  0
 62140  1  0  0  0
 62141  1  0  0  0
 62142  1  0  0  0
 63 65  1  0  0  0
 63143  1  0  0  0
 63144  1  0  0  0
 63145  1  0  0  0
 64146  1  0  0  0
 65147  1  0  0  0
 68 80  1  0  0  0
 71 72  1  0  0  0
 71 74  2  0  0  0
 71148  1  0  0  0
 72 73  2  0  0  0
 72 81  1  0  0  0
 73 75  1  0  0  0
 73 88  1  0  0  0
 74 83  1  0  0  0
 74 88  1  0  0  0
 75 76  2  0  0  0
 75149  1  0  0  0
 76150  1  0  0  0
 77 82  1  0  0  0
 77 83  1  0  0  0
 77 84  2  0  0  0
 78151  1  0  0  0
 78152  1  0  0  0
 78153  1  0  0  0
 78 82  1  0  0  0
 79 82  1  0  0  0
 79154  1  0  0  0
 79155  1  0  0  0
 79156  1  0  0  0
 80 82  1  0  0  0
 80157  1  0  0  0
 80158  1  0  0  0
 81 85  1  0  0  0
 81 86  1  0  0  0
 81 87  1  0  0  0
 83159  1  0  0  0
M  ISO  4   1 100  68 101  76 100  80 101
M  END
> <chiral flag>
0

> <version>
0

> <s_m_source_file>
/data/baiqing/PycharmProjects/Reinvent-master-3.2/result/LINK_invent/BTK/process_docking_weight1_custom_product_contain_oxygen_bond_distance_aromatic_linkinvent_7_9_3/rearranged_h_0186.sdf

> <i_m_source_file_index>
88

> <r_mmod_Potential_Energy-OPLS-2005>
209.655059814453

> <r_mmod_Stretch_Energy-OPLS-2005>
46.0333557128906

> <r_mmod_Bend_Energy-OPLS-2005>
310.018127441406

> <r_mmod_Torsional_Energy-OPLS-2005>
228.865112304688

> <r_mmod_Improper_Torsional_Energy-OPLS-2005>
7.92565965652466

> <r_mmod_Van_der_Waal_Energy-OPLS-2005>
156.228073120117

> <r_mmod_Electrostatic_Energy-OPLS-2005>
-345.255645751953

> <r_mmod_Solvation_Energy-OPLS-2005>
-205.320190429688

> <b_mmod_Minimization_Converged-OPLS-2005>
0

> <r_mmod_RMS_Derivative-OPLS-2005>
3.19919109344482

$$$$
89
                    3D
 Structure written by MMmdl.
157165  0  0  1  0            999 V2000
  -30.6916  -14.4914   20.5682 C   0  0  0  0  0  0
  -30.4186  -12.3164   19.4235 C   0  0  0  0  0  0
  -29.4914  -12.5002   18.2053 C   0  0  0  0  0  0
  -28.0141  -12.3551   18.6207 C   0  0  0  0  0  0
  -27.6566  -13.2079   19.8678 C   0  0  2  0  0  0
  -28.6968  -13.0058   20.9913 C   0  0  0  0  0  0
  -25.2562  -13.8159   20.5663 C   0  0  0  0  0  0
  -24.1822  -13.0420   20.9179 C   0  0  0  0  0  0
  -24.6398  -11.6897   20.8745 C   0  0  0  0  0  0
  -23.9080  -10.4274   21.0409 C   0  0  0  0  0  0
  -24.3630   -9.4194   21.9188 C   0  0  0  0  0  0
  -23.6286   -8.2246   22.0768 C   0  0  0  0  0  0
  -22.4269   -8.0283   21.3556 C   0  0  0  0  0  0
  -21.9912   -9.0267   20.4664 C   0  0  0  0  0  0
  -22.7256  -10.2134   20.3058 C   0  0  0  0  0  0
  -21.6851   -6.0730   22.5283 C   0  0  0  0  0  0
  -21.4024   -6.5639   23.8216 C   0  0  0  0  0  0
  -21.3652   -5.6791   24.9177 C   0  0  0  0  0  0
  -21.6047   -4.3053   24.7228 C   0  0  0  0  0  0
  -21.8815   -3.8143   23.4347 C   0  0  0  0  0  0
  -21.9194   -4.6960   22.3405 C   0  0  0  0  0  0
  -22.7855  -13.5226   21.1835 C   0  0  0  0  0  0
  -22.1656   -4.2146   21.0982 F   0  0  0  0  0  0
  -21.5628   -3.4536   25.7743 F   0  0  0  0  0  0
  -30.0237  -13.3114   20.4341 N   0  0  0  0  0  0
  -26.2993  -12.9329   20.3332 N   0  0  0  0  0  0
  -25.9318  -11.6486   20.5759 N   0  0  0  0  0  0
  -22.0506  -12.8220   22.0405 N   0  0  0  0  0  0
  -25.4259  -15.1873   20.4053 N   0  0  0  0  0  0
  -31.8264  -14.6640   20.1159 O   0  0  0  0  0  0
  -21.6637   -6.8875   21.4240 O   0  0  0  0  0  0
  -22.3540  -14.5533   20.6682 O   0  0  0  0  0  0
  -24.6167  -31.8661   23.2080 C   0  0  0  0  0  0
  -25.9057  -32.4797   23.8382 C   0  0  1  0  0  0
  -27.2225  -27.4023   20.0868 C   0  0  0  0  0  0
  -25.5910  -33.8597   24.2316 N   0  0  0  0  0  0
  -23.4053  -30.4899   21.5505 C   0  0  2  0  0  0
  -24.8456  -28.9555   20.1138 C   0  0  0  0  0  0
  -22.7414  -29.4653   22.4982 C   0  0  0  0  0  0
  -18.0274  -28.1375   22.8497 C   0  0  0  0  0  0
  -24.1483  -36.7299   23.2638 C   0  0  0  0  0  0
  -25.9376  -30.8200   21.3679 C   0  0  0  0  0  0
  -26.0090  -29.4544   20.7095 C   0  0  0  0  0  0
  -27.1977  -28.6858   20.6916 C   0  0  0  0  0  0
  -26.0331  -26.9252   19.4881 C   0  0  0  0  0  0
  -24.8537  -27.6910   19.5034 C   0  0  0  0  0  0
  -23.6122  -29.8272   20.1649 C   0  0  0  0  0  0
  -25.4103  -36.3088   24.0336 C   0  0  1  0  0  0
  -20.5865  -28.3670   23.1318 C   0  0  2  0  0  0
  -20.6769  -26.9409   22.5423 C   0  0  0  0  0  0
  -19.5742  -26.6392   21.5219 C   0  0  0  0  0  0
  -18.1919  -26.7923   22.1631 C   0  0  0  0  0  0
  -19.1519  -28.8834   23.2906 C   0  0  0  0  0  0
  -18.9449  -30.1442   23.8915 C   0  0  0  0  0  0
  -17.6452  -30.6582   24.0568 C   0  0  0  0  0  0
  -25.9042  -34.9456   23.5126 C   0  0  0  0  0  0
  -16.5346  -29.9082   23.6328 C   0  0  0  0  0  0
  -16.7265  -28.6494   23.0355 C   0  0  0  0  0  0
  -26.4483  -31.6569   25.0710 C   0  0  0  0  0  0
  -25.3758  -31.3680   26.1463 C   0  0  0  0  0  0
  -27.0316  -30.2997   24.6113 C   0  0  0  0  0  0
  -27.6051  -32.4286   25.7481 C   0  0  0  0  0  0
  -27.5575  -37.1805   24.8472 C   0  0  0  0  0  0
  -21.4138  -29.3031   22.3709 N   0  0  0  0  0  0
  -26.4289  -37.3775   23.9410 N   0  0  0  0  0  0
  -24.6714  -31.0737   22.0997 N   0  0  0  0  0  0
  -23.4159  -28.8207   23.3053 O   0  0  0  0  0  0
  -28.4051  -26.6776   20.1020 O   0  0  0  0  0  0
  -26.5598  -34.8913   22.4686 O   0  0  0  0  0  0
  -23.5354  -32.1441   23.7450 O   0  0  0  0  0  0
  -28.6136  -18.1139   20.1072 C   0  0  0  0  0  0
  -29.7363  -18.0561   20.9037 C   0  0  0  0  0  0
  -28.9085  -20.3665   20.3978 C   0  0  0  0  0  0
  -30.6740  -23.1365   20.1327 C   0  0  0  0  0  0
  -30.5165  -16.8601   21.4273 C   0  0  0  0  0  0
  -28.4580  -25.2695   19.7440 C   0  0  0  0  0  0
  -28.4638  -24.2802   20.9649 C   0  0  2  0  0  0
  -29.3117  -22.9410   20.8243 C   0  0  2  0  0  0
  -27.0560  -24.0571   21.5768 C   0  0  0  0  0  0
  -28.1570  -19.4186   19.8332 N   0  0  0  0  0  0
  -28.6482  -21.7406   20.2843 N   0  0  0  0  0  0
  -29.9948  -15.5108   21.1183 N   0  0  0  0  0  0
  -27.1426  -23.2984   22.6700 F   0  0  0  0  0  0
  -26.4986  -25.2095   21.9439 F   0  0  0  0  0  0
  -26.2501  -23.4551   20.6996 F   0  0  0  0  0  0
  -30.2520  -19.6857   21.3233 S   0  0  0  0  0  0
  -31.4628  -12.4145   19.1217 H   0  0  0  0  0  0
  -30.3216  -11.3079   19.8287 H   0  0  0  0  0  0
  -29.7325  -11.7694   17.4317 H   0  0  0  0  0  0
  -29.6571  -13.4826   17.7598 H   0  0  0  0  0  0
  -27.8348  -11.3000   18.8340 H   0  0  0  0  0  0
  -27.3598  -12.6115   17.7874 H   0  0  0  0  0  0
  -27.6964  -14.2521   19.5564 H   0  0  0  0  0  0
  -28.6774  -11.9749   21.3503 H   0  0  0  0  0  0
  -28.4549  -13.6190   21.8599 H   0  0  0  0  0  0
  -25.2773   -9.5658   22.4760 H   0  0  0  0  0  0
  -23.9989   -7.4633   22.7483 H   0  0  0  0  0  0
  -21.0846   -8.8782   19.8970 H   0  0  0  0  0  0
  -22.3715  -10.9671   19.6161 H   0  0  0  0  0  0
  -21.2023   -7.6150   23.9713 H   0  0  0  0  0  0
  -21.1477   -6.0529   25.9078 H   0  0  0  0  0  0
  -22.0601   -2.7607   23.2853 H   0  0  0  0  0  0
  -22.4106  -11.9876   22.4780 H   0  0  0  0  0  0
  -21.1139  -13.1262   22.2627 H   0  0  0  0  0  0
  -24.6572  -15.8390   20.5182 H   0  0  0  0  0  0
  -26.2710  -15.6250   20.0632 H   0  0  0  0  0  0
  -26.7122  -32.5481   23.1133 H   0  0  0  0  0  0
  -25.0067  -33.9767   25.0462 H   0  0  0  0  0  0
  -22.6965  -31.3084   21.4132 H   0  0  0  0  0  0
  -23.3734  -35.9649   23.3309 H   0  0  0  0  0  0
  -24.3588  -36.8898   22.2058 H   0  0  0  0  0  0
  -23.7251  -37.6510   23.6648 H   0  0  0  0  0  0
  -26.0661  -31.5903   20.6061 H   0  0  0  0  0  0
  -26.8208  -30.8625   21.9930 H   0  0  0  0  0  0
  -28.0964  -29.0710   21.1536 H   0  0  0  0  0  0
  -25.9729  -25.9638   19.0041 H   0  0  0  0  0  0
  -23.9566  -27.3006   19.0427 H   0  0  0  0  0  0
  -23.7259  -30.6057   19.4095 H   0  0  0  0  0  0
  -22.7345  -29.2519   19.8661 H   0  0  0  0  0  0
  -25.1279  -36.1961   25.0832 H   0  0  0  0  0  0
  -20.9968  -28.3246   24.1432 H   0  0  0  0  0  0
  -20.5692  -26.2276   23.3610 H   0  0  0  0  0  0
  -21.6639  -26.7466   22.1202 H   0  0  0  0  0  0
  -19.6923  -25.6310   21.1224 H   0  0  0  0  0  0
  -19.6678  -27.3224   20.6763 H   0  0  0  0  0  0
  -17.4202  -26.6673   21.4029 H   0  0  0  0  0  0
  -18.0319  -26.0061   22.9019 H   0  0  0  0  0  0
  -19.7928  -30.7250   24.2292 H   0  0  0  0  0  0
  -17.5012  -31.6273   24.5156 H   0  0  0  0  0  0
  -15.5344  -30.2995   23.7638 H   0  0  0  0  0  0
  -15.8663  -28.0822   22.7062 H   0  0  0  0  0  0
  -24.5941  -30.7007   25.7813 H   0  0  0  0  0  0
  -24.8939  -32.2835   26.4906 H   0  0  0  0  0  0
  -25.8128  -30.8866   27.0224 H   0  0  0  0  0  0
  -26.2871  -29.6745   24.1163 H   0  0  0  0  0  0
  -27.4064  -29.7238   25.4587 H   0  0  0  0  0  0
  -27.8722  -30.4273   23.9284 H   0  0  0  0  0  0
  -27.2663  -33.3575   26.2083 H   0  0  0  0  0  0
  -28.3859  -32.6860   25.0309 H   0  0  0  0  0  0
  -28.0730  -31.8398   26.5384 H   0  0  0  0  0  0
  -28.2602  -38.0087   24.7490 H   0  0  0  0  0  0
  -28.1056  -36.2618   24.6325 H   0  0  0  0  0  0
  -27.2301  -37.1495   25.8877 H   0  0  0  0  0  0
  -20.9293  -29.8713   21.6899 H   0  0  0  0  0  0
  -26.0170  -38.2857   24.1384 H   0  0  0  0  0  0
  -28.0642  -17.2748   19.7032 H   0  0  0  0  0  0
  -31.3198  -22.2695   20.2773 H   0  0  0  0  0  0
  -31.2050  -23.9990   20.5373 H   0  0  0  0  0  0
  -30.5669  -23.2751   19.0545 H   0  0  0  0  0  0
  -31.5538  -16.9518   21.0998 H   0  0  0  0  0  0
  -30.5611  -16.9320   22.5150 H   0  0  0  0  0  0
  -27.7492  -24.9563   18.9826 H   0  0  0  0  0  0
  -29.4132  -25.2012   19.2308 H   0  0  0  0  0  0
  -29.0109  -24.8356   21.7273 H   0  0  0  0  0  0
  -29.5404  -22.6647   21.8555 H   0  0  0  0  0  0
  -27.7836  -21.9302   19.7882 H   0  0  0  0  0  0
  -29.0663  -15.2895   21.4455 H   0  0  0  0  0  0
  1 25  1  0  0  0
  1 30  2  0  0  0
  1 82  1  0  0  0
  2  3  1  0  0  0
  2 25  1  0  0  0
  2 87  1  0  0  0
  2 88  1  0  0  0
  3  4  1  0  0  0
  3 89  1  0  0  0
  3 90  1  0  0  0
  4  5  1  0  0  0
  4 91  1  0  0  0
  4 92  1  0  0  0
  5  6  1  0  0  0
  5 26  1  0  0  0
  5 93  1  0  0  0
  6 25  1  0  0  0
  6 94  1  0  0  0
  6 95  1  0  0  0
  7  8  2  0  0  0
  7 26  1  0  0  0
  7 29  1  0  0  0
  8  9  1  0  0  0
  8 22  1  0  0  0
  9 10  1  0  0  0
  9 27  2  0  0  0
 10 11  2  0  0  0
 10 15  1  0  0  0
 11 12  1  0  0  0
 11 96  1  0  0  0
 12 13  2  0  0  0
 12 97  1  0  0  0
 13 14  1  0  0  0
 13 31  1  0  0  0
 14 15  2  0  0  0
 14 98  1  0  0  0
 15 99  1  0  0  0
 16 17  2  0  0  0
 16 21  1  0  0  0
 16 31  1  0  0  0
 17 18  1  0  0  0
 17100  1  0  0  0
 18 19  2  0  0  0
 18101  1  0  0  0
 19 20  1  0  0  0
 19 24  1  0  0  0
 20 21  2  0  0  0
 20102  1  0  0  0
 21 23  1  0  0  0
 22 28  1  0  0  0
 22 32  2  0  0  0
 26 27  1  0  0  0
 28103  1  0  0  0
 28104  1  0  0  0
 29105  1  0  0  0
 29106  1  0  0  0
 33 34  1  0  0  0
 33 66  1  0  0  0
 33 70  2  0  0  0
 34 36  1  0  0  0
 34 59  1  0  0  0
 34107  1  0  0  0
 35 44  2  0  0  0
 35 45  1  0  0  0
 35 68  1  0  0  0
 36 56  1  0  0  0
 36108  1  0  0  0
 37 39  1  0  0  0
 37 47  1  0  0  0
 37 66  1  0  0  0
 37109  1  0  0  0
 38 43  2  0  0  0
 38 46  1  0  0  0
 38 47  1  0  0  0
 39 64  1  0  0  0
 39 67  2  0  0  0
 40 52  1  0  0  0
 40 53  2  0  0  0
 40 58  1  0  0  0
 41110  1  0  0  0
 41111  1  0  0  0
 41112  1  0  0  0
 41 48  1  0  0  0
 42 43  1  0  0  0
 42 66  1  0  0  0
 42113  1  0  0  0
 42114  1  0  0  0
 43 44  1  0  0  0
 44115  1  0  0  0
 45 46  2  0  0  0
 45116  1  0  0  0
 46117  1  0  0  0
 47118  1  0  0  0
 47119  1  0  0  0
 48 56  1  0  0  0
 48 65  1  0  0  0
 48120  1  0  0  0
 49 50  1  0  0  0
 49 53  1  0  0  0
 49 64  1  0  0  0
 49121  1  0  0  0
 50 51  1  0  0  0
 50122  1  0  0  0
 50123  1  0  0  0
 51 52  1  0  0  0
 51124  1  0  0  0
 51125  1  0  0  0
 52126  1  0  0  0
 52127  1  0  0  0
 53 54  1  0  0  0
 54 55  2  0  0  0
 54128  1  0  0  0
 55 57  1  0  0  0
 55129  1  0  0  0
 56 69  2  0  0  0
 57 58  2  0  0  0
 57130  1  0  0  0
 58131  1  0  0  0
 59 60  1  0  0  0
 59 61  1  0  0  0
 59 62  1  0  0  0
 60132  1  0  0  0
 60133  1  0  0  0
 60134  1  0  0  0
 61135  1  0  0  0
 61136  1  0  0  0
 61137  1  0  0  0
 62138  1  0  0  0
 62139  1  0  0  0
 62140  1  0  0  0
 63 65  1  0  0  0
 63141  1  0  0  0
 63142  1  0  0  0
 63143  1  0  0  0
 64144  1  0  0  0
 65145  1  0  0  0
 68 76  1  0  0  0
 71 72  2  0  0  0
 71 80  1  0  0  0
 71146  1  0  0  0
 72 75  1  0  0  0
 72 86  1  0  0  0
 73 80  2  0  0  0
 73 81  1  0  0  0
 73 86  1  0  0  0
 74147  1  0  0  0
 74148  1  0  0  0
 74149  1  0  0  0
 74 78  1  0  0  0
 75 82  1  0  0  0
 75150  1  0  0  0
 75151  1  0  0  0
 76152  1  0  0  0
 76153  1  0  0  0
 76 77  1  0  0  0
 77 78  1  0  0  0
 77 79  1  0  0  0
 77154  1  0  0  0
 78 81  1  0  0  0
 78155  1  0  0  0
 79 83  1  0  0  0
 79 84  1  0  0  0
 79 85  1  0  0  0
 81156  1  0  0  0
 82157  1  0  0  0
M  ISO  4   1 100  68 101  76 101  82 100
M  END
> <chiral flag>
0

> <version>
0

> <s_m_source_file>
/data/baiqing/PycharmProjects/Reinvent-master-3.2/result/LINK_invent/BTK/process_docking_weight1_custom_product_contain_oxygen_bond_distance_aromatic_linkinvent_7_9_3/rearranged_h_0186.sdf

> <i_m_source_file_index>
89

> <r_mmod_Potential_Energy-OPLS-2005>
-11.9471616744995

> <r_mmod_Stretch_Energy-OPLS-2005>
45.9198265075684

> <r_mmod_Bend_Energy-OPLS-2005>
130.717056274414

> <r_mmod_Torsional_Energy-OPLS-2005>
205.864959716797

> <r_mmod_Improper_Torsional_Energy-OPLS-2005>
2.9998996257782

> <r_mmod_Van_der_Waal_Energy-OPLS-2005>
125.563186645508

> <r_mmod_Electrostatic_Energy-OPLS-2005>
-324.688354492188

> <r_mmod_Solvation_Energy-OPLS-2005>
-214.561126708984

> <b_mmod_Minimization_Converged-OPLS-2005>
0

> <r_mmod_RMS_Derivative-OPLS-2005>
2.17504668235779

$$$$
90
                    3D
 Structure written by MMmdl.
160168  0  0  1  0            999 V2000
  -30.6178  -14.7719   20.4715 C   0  0  0  0  0  0
  -30.4344  -12.4812   19.4641 C   0  0  0  0  0  0
  -29.5075  -12.5064   18.2299 C   0  0  0  0  0  0
  -28.0364  -12.3231   18.6508 C   0  0  0  0  0  0
  -27.6383  -13.2333   19.8429 C   0  0  2  0  0  0
  -28.6860  -13.1879   20.9744 C   0  0  0  0  0  0
  -25.2507  -13.8197   20.5698 C   0  0  0  0  0  0
  -24.1803  -13.0440   20.9215 C   0  0  0  0  0  0
  -24.6396  -11.6918   20.8752 C   0  0  0  0  0  0
  -23.9074  -10.4292   21.0412 C   0  0  0  0  0  0
  -24.3624   -9.4206   21.9189 C   0  0  0  0  0  0
  -23.6296   -8.2243   22.0757 C   0  0  0  0  0  0
  -22.4278   -8.0282   21.3545 C   0  0  0  0  0  0
  -21.9916   -9.0257   20.4648 C   0  0  0  0  0  0
  -22.7247  -10.2135   20.3059 C   0  0  0  0  0  0
  -21.6854   -6.0737   22.5278 C   0  0  0  0  0  0
  -21.4014   -6.5641   23.8212 C   0  0  0  0  0  0
  -21.3658   -5.6795   24.9174 C   0  0  0  0  0  0
  -21.6045   -4.3057   24.7226 C   0  0  0  0  0  0
  -21.8819   -3.8148   23.4347 C   0  0  0  0  0  0
  -21.9193   -4.6964   22.3402 C   0  0  0  0  0  0
  -22.7824  -13.5221   21.1874 C   0  0  0  0  0  0
  -22.1662   -4.2151   21.0980 F   0  0  0  0  0  0
  -21.5627   -3.4540   25.7738 F   0  0  0  0  0  0
  -29.9784  -13.5528   20.3801 N   0  0  0  0  0  0
  -26.2928  -12.9405   20.3262 N   0  0  0  0  0  0
  -25.9326  -11.6547   20.5749 N   0  0  0  0  0  0
  -22.0471  -12.8206   22.0427 N   0  0  0  0  0  0
  -25.4184  -15.1924   20.4104 N   0  0  0  0  0  0
  -31.8180  -14.8444   20.1953 O   0  0  0  0  0  0
  -21.6642   -6.8881   21.4240 O   0  0  0  0  0  0
  -22.3507  -14.5526   20.6722 O   0  0  0  0  0  0
  -24.6366  -31.8532   23.1979 C   0  0  0  0  0  0
  -25.9176  -32.4744   23.8331 C   0  0  1  0  0  0
  -27.2157  -27.2254   20.1165 C   0  0  0  0  0  0
  -25.5957  -33.8548   24.2246 N   0  0  0  0  0  0
  -23.4337  -30.4793   21.5432 C   0  0  2  0  0  0
  -24.8778  -28.9262   20.1127 C   0  0  0  0  0  0
  -22.7528  -29.4602   22.4901 C   0  0  0  0  0  0
  -18.0300  -28.1386   22.8483 C   0  0  0  0  0  0
  -24.1488  -36.7275   23.2639 C   0  0  0  0  0  0
  -25.9862  -30.7541   21.3842 C   0  0  0  0  0  0
  -26.0564  -29.3760   20.7211 C   0  0  0  0  0  0
  -27.2269  -28.5405   20.7104 C   0  0  0  0  0  0
  -25.9978  -26.8557   19.4951 C   0  0  0  0  0  0
  -24.8560  -27.6740   19.4902 C   0  0  0  0  0  0
  -23.6533  -29.8190   20.1593 C   0  0  0  0  0  0
  -25.4118  -36.3060   24.0320 C   0  0  1  0  0  0
  -20.5907  -28.3705   23.1251 C   0  0  2  0  0  0
  -20.6789  -26.9418   22.5398 C   0  0  0  0  0  0
  -19.5757  -26.6378   21.5211 C   0  0  0  0  0  0
  -18.1939  -26.7926   22.1626 C   0  0  0  0  0  0
  -19.1554  -28.8864   23.2860 C   0  0  0  0  0  0
  -18.9474  -30.1466   23.8878 C   0  0  0  0  0  0
  -17.6471  -30.6587   24.0562 C   0  0  0  0  0  0
  -25.9066  -34.9433   23.5082 C   0  0  0  0  0  0
  -16.5363  -29.9080   23.6337 C   0  0  0  0  0  0
  -16.7286  -28.6498   23.0358 C   0  0  0  0  0  0
  -26.4518  -31.6587   25.0742 C   0  0  0  0  0  0
  -25.3722  -31.3752   26.1449 C   0  0  0  0  0  0
  -27.0380  -30.2997   24.6274 C   0  0  0  0  0  0
  -27.6062  -32.4340   25.7516 C   0  0  0  0  0  0
  -27.5574  -37.1795   24.8465 C   0  0  0  0  0  0
  -21.4231  -29.3052   22.3644 N   0  0  0  0  0  0
  -26.4288  -37.3765   23.9407 N   0  0  0  0  0  0
  -24.7052  -31.0470   22.0974 N   0  0  0  0  0  0
  -23.4212  -28.8132   23.3005 O   0  0  0  0  0  0
  -28.3019  -26.2979   20.1675 O   0  0  0  0  0  0
  -26.5635  -34.8913   22.4650 O   0  0  0  0  0  0
  -23.5507  -32.1364   23.7257 O   0  0  0  0  0  0
  -29.1370  -19.7465   20.7404 C   0  0  0  0  0  0
  -30.7247  -21.0036   19.5731 C   0  0  0  0  0  0
  -29.5162  -21.0819   20.2153 C   0  0  0  0  0  0
  -30.0800  -18.7032   20.5569 C   0  0  0  0  0  0
  -29.1175  -23.6949   20.2126 C   0  0  0  0  0  0
  -28.2193  -24.8644   18.1763 C   0  0  0  0  0  0
  -30.4001  -16.0635   23.5541 C   0  0  0  0  0  0
  -30.7796  -18.5396   23.4701 C   0  0  0  0  0  0
  -30.3349  -17.2852   21.2558 C   0  0  1  0  0  0
  -28.1050  -24.8547   19.7173 C   0  0  2  0  0  0
  -30.0555  -17.3588   22.7899 C   0  0  0  0  0  0
  -28.7276  -22.3517   20.2495 N   0  0  0  0  0  0
  -29.8705  -15.9247   20.7129 N   0  0  0  0  0  0
  -30.2610  -24.0264   20.5377 O   0  0  0  0  0  0
  -31.4033  -19.3811   19.6204 S   0  0  0  0  0  0
  -31.4719  -12.6160   19.1541 H   0  0  0  0  0  0
  -30.3937  -11.5107   19.9609 H   0  0  0  0  0  0
  -29.7950  -11.7246   17.5255 H   0  0  0  0  0  0
  -29.6236  -13.4536   17.7005 H   0  0  0  0  0  0
  -27.9045  -11.2765   18.9277 H   0  0  0  0  0  0
  -27.3743  -12.4982   17.8021 H   0  0  0  0  0  0
  -27.6258  -14.2505   19.4511 H   0  0  0  0  0  0
  -28.7347  -12.1951   21.4240 H   0  0  0  0  0  0
  -28.4134  -13.8744   21.7771 H   0  0  0  0  0  0
  -25.2769   -9.5683   22.4765 H   0  0  0  0  0  0
  -24.0004   -7.4636   22.7476 H   0  0  0  0  0  0
  -21.0849   -8.8778   19.8954 H   0  0  0  0  0  0
  -22.3707  -10.9676   19.6169 H   0  0  0  0  0  0
  -21.2007   -7.6150   23.9715 H   0  0  0  0  0  0
  -21.1479   -6.0526   25.9078 H   0  0  0  0  0  0
  -22.0599   -2.7609   23.2847 H   0  0  0  0  0  0
  -22.4093  -11.9867   22.4809 H   0  0  0  0  0  0
  -21.1087  -13.1223   22.2637 H   0  0  0  0  0  0
  -24.6474  -15.8423   20.5203 H   0  0  0  0  0  0
  -26.2581  -15.6331   20.0582 H   0  0  0  0  0  0
  -26.7242  -32.5377   23.1066 H   0  0  0  0  0  0
  -25.0116  -33.9684   25.0400 H   0  0  0  0  0  0
  -22.7322  -31.3035   21.3977 H   0  0  0  0  0  0
  -23.3756  -35.9604   23.3303 H   0  0  0  0  0  0
  -24.3574  -36.8905   22.2054 H   0  0  0  0  0  0
  -23.7241  -37.6473   23.6671 H   0  0  0  0  0  0
  -26.1344  -31.5150   20.6169 H   0  0  0  0  0  0
  -26.8607  -30.7981   22.0220 H   0  0  0  0  0  0
  -28.1275  -28.8832   21.1999 H   0  0  0  0  0  0
  -25.8678  -25.8998   19.0151 H   0  0  0  0  0  0
  -23.9522  -27.3187   19.0141 H   0  0  0  0  0  0
  -23.7842  -30.5973   19.4063 H   0  0  0  0  0  0
  -22.7696  -29.2579   19.8497 H   0  0  0  0  0  0
  -25.1302  -36.1902   25.0813 H   0  0  0  0  0  0
  -21.0000  -28.3283   24.1371 H   0  0  0  0  0  0
  -20.5691  -26.2317   23.3608 H   0  0  0  0  0  0
  -21.6653  -26.7434   22.1187 H   0  0  0  0  0  0
  -19.6918  -25.6285   21.1249 H   0  0  0  0  0  0
  -19.6692  -27.3183   20.6736 H   0  0  0  0  0  0
  -17.4208  -26.6679   21.4030 H   0  0  0  0  0  0
  -18.0338  -26.0067   22.9020 H   0  0  0  0  0  0
  -19.7951  -30.7292   24.2230 H   0  0  0  0  0  0
  -17.5025  -31.6265   24.5168 H   0  0  0  0  0  0
  -15.5363  -30.2978   23.7667 H   0  0  0  0  0  0
  -15.8686  -28.0813   22.7078 H   0  0  0  0  0  0
  -24.5905  -30.7091   25.7774 H   0  0  0  0  0  0
  -24.8900  -32.2925   26.4838 H   0  0  0  0  0  0
  -25.8018  -30.8952   27.0252 H   0  0  0  0  0  0
  -26.2987  -29.6732   24.1269 H   0  0  0  0  0  0
  -27.4013  -29.7280   25.4825 H   0  0  0  0  0  0
  -27.8884  -30.4262   23.9569 H   0  0  0  0  0  0
  -27.2666  -33.3657   26.2051 H   0  0  0  0  0  0
  -28.3887  -32.6876   25.0351 H   0  0  0  0  0  0
  -28.0711  -31.8494   26.5464 H   0  0  0  0  0  0
  -28.2589  -38.0094   24.7512 H   0  0  0  0  0  0
  -28.1071  -36.2624   24.6290 H   0  0  0  0  0  0
  -27.2291  -37.1443   25.8868 H   0  0  0  0  0  0
  -20.9424  -29.8787   21.6855 H   0  0  0  0  0  0
  -26.0161  -38.2837   24.1416 H   0  0  0  0  0  0
  -28.2290  -19.6198   21.3129 H   0  0  0  0  0  0
  -31.2684  -21.7916   19.0650 H   0  0  0  0  0  0
  -27.9918  -23.8840   17.7556 H   0  0  0  0  0  0
  -29.2330  -25.1232   17.8690 H   0  0  0  0  0  0
  -27.5564  -25.5799   17.6957 H   0  0  0  0  0  0
  -30.2643  -16.1909   24.6285 H   0  0  0  0  0  0
  -31.4363  -15.7668   23.3882 H   0  0  0  0  0  0
  -29.7592  -15.2320   23.2638 H   0  0  0  0  0  0
  -30.5859  -18.5562   24.5431 H   0  0  0  0  0  0
  -30.4604  -19.5071   23.0862 H   0  0  0  0  0  0
  -31.8593  -18.4721   23.3326 H   0  0  0  0  0  0
  -31.4204  -17.1794   21.2102 H   0  0  0  0  0  0
  -27.1193  -24.5116   20.0301 H   0  0  0  0  0  0
  -28.9852  -17.5288   22.9189 H   0  0  0  0  0  0
  -27.7267  -22.2230   20.1801 H   0  0  0  0  0  0
  -28.8767  -15.7697   20.7745 H   0  0  0  0  0  0
  1 25  1  0  0  0
  1 30  2  0  0  0
  1 83  1  0  0  0
  2  3  1  0  0  0
  2 25  1  0  0  0
  2 86  1  0  0  0
  2 87  1  0  0  0
  3  4  1  0  0  0
  3 88  1  0  0  0
  3 89  1  0  0  0
  4  5  1  0  0  0
  4 90  1  0  0  0
  4 91  1  0  0  0
  5  6  1  0  0  0
  5 26  1  0  0  0
  5 92  1  0  0  0
  6 25  1  0  0  0
  6 93  1  0  0  0
  6 94  1  0  0  0
  7  8  2  0  0  0
  7 26  1  0  0  0
  7 29  1  0  0  0
  8  9  1  0  0  0
  8 22  1  0  0  0
  9 10  1  0  0  0
  9 27  2  0  0  0
 10 11  2  0  0  0
 10 15  1  0  0  0
 11 12  1  0  0  0
 11 95  1  0  0  0
 12 13  2  0  0  0
 12 96  1  0  0  0
 13 14  1  0  0  0
 13 31  1  0  0  0
 14 15  2  0  0  0
 14 97  1  0  0  0
 15 98  1  0  0  0
 16 17  2  0  0  0
 16 21  1  0  0  0
 16 31  1  0  0  0
 17 18  1  0  0  0
 17 99  1  0  0  0
 18 19  2  0  0  0
 18100  1  0  0  0
 19 20  1  0  0  0
 19 24  1  0  0  0
 20 21  2  0  0  0
 20101  1  0  0  0
 21 23  1  0  0  0
 22 28  1  0  0  0
 22 32  2  0  0  0
 26 27  1  0  0  0
 28102  1  0  0  0
 28103  1  0  0  0
 29104  1  0  0  0
 29105  1  0  0  0
 33 34  1  0  0  0
 33 66  1  0  0  0
 33 70  2  0  0  0
 34 36  1  0  0  0
 34 59  1  0  0  0
 34106  1  0  0  0
 35 44  2  0  0  0
 35 45  1  0  0  0
 35 68  1  0  0  0
 36 56  1  0  0  0
 36107  1  0  0  0
 37 39  1  0  0  0
 37 47  1  0  0  0
 37 66  1  0  0  0
 37108  1  0  0  0
 38 43  2  0  0  0
 38 46  1  0  0  0
 38 47  1  0  0  0
 39 64  1  0  0  0
 39 67  2  0  0  0
 40 52  1  0  0  0
 40 53  2  0  0  0
 40 58  1  0  0  0
 41109  1  0  0  0
 41110  1  0  0  0
 41111  1  0  0  0
 41 48  1  0  0  0
 42 43  1  0  0  0
 42 66  1  0  0  0
 42112  1  0  0  0
 42113  1  0  0  0
 43 44  1  0  0  0
 44114  1  0  0  0
 45 46  2  0  0  0
 45115  1  0  0  0
 46116  1  0  0  0
 47117  1  0  0  0
 47118  1  0  0  0
 48 56  1  0  0  0
 48 65  1  0  0  0
 48119  1  0  0  0
 49 50  1  0  0  0
 49 53  1  0  0  0
 49 64  1  0  0  0
 49120  1  0  0  0
 50 51  1  0  0  0
 50121  1  0  0  0
 50122  1  0  0  0
 51 52  1  0  0  0
 51123  1  0  0  0
 51124  1  0  0  0
 52125  1  0  0  0
 52126  1  0  0  0
 53 54  1  0  0  0
 54 55  2  0  0  0
 54127  1  0  0  0
 55 57  1  0  0  0
 55128  1  0  0  0
 56 69  2  0  0  0
 57 58  2  0  0  0
 57129  1  0  0  0
 58130  1  0  0  0
 59 60  1  0  0  0
 59 61  1  0  0  0
 59 62  1  0  0  0
 60131  1  0  0  0
 60132  1  0  0  0
 60133  1  0  0  0
 61134  1  0  0  0
 61135  1  0  0  0
 61136  1  0  0  0
 62137  1  0  0  0
 62138  1  0  0  0
 62139  1  0  0  0
 63 65  1  0  0  0
 63140  1  0  0  0
 63141  1  0  0  0
 63142  1  0  0  0
 64143  1  0  0  0
 65144  1  0  0  0
 68 80  1  0  0  0
 71 73  1  0  0  0
 71 74  2  0  0  0
 71145  1  0  0  0
 72 73  2  0  0  0
 72 85  1  0  0  0
 72146  1  0  0  0
 73 82  1  0  0  0
 74 79  1  0  0  0
 74 85  1  0  0  0
 75 80  1  0  0  0
 75 82  1  0  0  0
 75 84  2  0  0  0
 76147  1  0  0  0
 76148  1  0  0  0
 76149  1  0  0  0
 76 80  1  0  0  0
 77150  1  0  0  0
 77151  1  0  0  0
 77152  1  0  0  0
 77 81  1  0  0  0
 78 81  1  0  0  0
 78153  1  0  0  0
 78154  1  0  0  0
 78155  1  0  0  0
 79 81  1  0  0  0
 79 83  1  0  0  0
 79156  1  0  0  0
 80157  1  0  0  0
 81158  1  0  0  0
 82159  1  0  0  0
 83160  1  0  0  0
M  ISO  4   1 100  68 101  80 101  83 100
M  END
> <chiral flag>
0

> <version>
0

> <s_m_source_file>
/data/baiqing/PycharmProjects/Reinvent-master-3.2/result/LINK_invent/BTK/process_docking_weight1_custom_product_contain_oxygen_bond_distance_aromatic_linkinvent_7_9_3/rearranged_h_0186.sdf

> <i_m_source_file_index>
90

> <r_mmod_Potential_Energy-OPLS-2005>
150.730545043945

> <r_mmod_Stretch_Energy-OPLS-2005>
146.243789672852

> <r_mmod_Bend_Energy-OPLS-2005>
197.651412963867

> <r_mmod_Torsional_Energy-OPLS-2005>
240.368743896484

> <r_mmod_Improper_Torsional_Energy-OPLS-2005>
6.38080024719238

> <r_mmod_Van_der_Waal_Energy-OPLS-2005>
125.559913635254

> <r_mmod_Electrostatic_Energy-OPLS-2005>
-430.442535400391

> <r_mmod_Solvation_Energy-OPLS-2005>
-238.897369384766

> <b_mmod_Minimization_Converged-OPLS-2005>
0

> <r_mmod_RMS_Derivative-OPLS-2005>
0.536797285079956

$$$$
91
                    3D
 Structure written by MMmdl.
148156  0  0  1  0            999 V2000
  -30.4766  -15.0118   20.3986 C   0  0  0  0  0  0
  -30.4573  -12.6200   19.5086 C   0  0  0  0  0  0
  -29.5346  -12.5397   18.2658 C   0  0  0  0  0  0
  -28.0662  -12.3131   18.6772 C   0  0  0  0  0  0
  -27.6320  -13.2474   19.8347 C   0  0  2  0  0  0
  -28.6726  -13.2790   20.9722 C   0  0  0  0  0  0
  -25.2486  -13.8205   20.5705 C   0  0  0  0  0  0
  -24.1794  -13.0433   20.9211 C   0  0  0  0  0  0
  -24.6404  -11.6917   20.8733 C   0  0  0  0  0  0
  -23.9083  -10.4288   21.0397 C   0  0  0  0  0  0
  -24.3629   -9.4205   21.9178 C   0  0  0  0  0  0
  -23.6298   -8.2244   22.0752 C   0  0  0  0  0  0
  -22.4280   -8.0282   21.3543 C   0  0  0  0  0  0
  -21.9917   -9.0256   20.4646 C   0  0  0  0  0  0
  -22.7251  -10.2132   20.3050 C   0  0  0  0  0  0
  -21.6856   -6.0735   22.5278 C   0  0  0  0  0  0
  -21.4016   -6.5639   23.8211 C   0  0  0  0  0  0
  -21.3659   -5.6792   24.9172 C   0  0  0  0  0  0
  -21.6044   -4.3055   24.7225 C   0  0  0  0  0  0
  -21.8820   -3.8146   23.4346 C   0  0  0  0  0  0
  -21.9193   -4.6963   22.3401 C   0  0  0  0  0  0
  -22.7814  -13.5208   21.1878 C   0  0  0  0  0  0
  -22.1662   -4.2146   21.0980 F   0  0  0  0  0  0
  -21.5628   -3.4539   25.7738 F   0  0  0  0  0  0
  -29.9526  -13.7117   20.3929 N   0  0  0  0  0  0
  -26.2906  -12.9432   20.3212 N   0  0  0  0  0  0
  -25.9338  -11.6564   20.5708 N   0  0  0  0  0  0
  -22.0467  -12.8192   22.0435 N   0  0  0  0  0  0
  -25.4172  -15.1936   20.4167 N   0  0  0  0  0  0
  -31.6866  -15.0983   20.1470 O   0  0  0  0  0  0
  -21.6643   -6.8879   21.4240 O   0  0  0  0  0  0
  -22.3490  -14.5512   20.6725 O   0  0  0  0  0  0
  -24.6519  -31.8395   23.1851 C   0  0  0  0  0  0
  -25.9264  -32.4669   23.8257 C   0  0  1  0  0  0
  -27.2119  -27.0685   20.1323 C   0  0  0  0  0  0
  -25.5982  -33.8475   24.2163 N   0  0  0  0  0  0
  -23.4567  -30.4630   21.5330 C   0  0  2  0  0  0
  -24.9028  -28.8886   20.1100 C   0  0  0  0  0  0
  -22.7609  -29.4538   22.4825 C   0  0  0  0  0  0
  -18.0319  -28.1402   22.8475 C   0  0  0  0  0  0
  -24.1494  -36.7237   23.2642 C   0  0  0  0  0  0
  -26.0217  -30.6919   21.3953 C   0  0  0  0  0  0
  -26.0877  -29.3006   20.7296 C   0  0  0  0  0  0
  -27.2370  -28.4092   20.7228 C   0  0  0  0  0  0
  -25.9824  -26.7839   19.4931 C   0  0  0  0  0  0
  -24.8671  -27.6434   19.4783 C   0  0  0  0  0  0
  -23.6859  -29.7993   20.1520 C   0  0  0  0  0  0
  -25.4127  -36.3010   24.0311 C   0  0  1  0  0  0
  -20.5937  -28.3737   23.1209 C   0  0  2  0  0  0
  -20.6802  -26.9433   22.5391 C   0  0  0  0  0  0
  -19.5771  -26.6381   21.5207 C   0  0  0  0  0  0
  -18.1954  -26.7937   22.1624 C   0  0  0  0  0  0
  -19.1577  -28.8886   23.2837 C   0  0  0  0  0  0
  -18.9491  -30.1480   23.8868 C   0  0  0  0  0  0
  -17.6486  -30.6595   24.0558 C   0  0  0  0  0  0
  -25.9088  -34.9391   23.5045 C   0  0  0  0  0  0
  -16.5377  -29.9086   23.6340 C   0  0  0  0  0  0
  -16.7302  -28.6505   23.0362 C   0  0  0  0  0  0
  -26.4549  -31.6562   25.0729 C   0  0  0  0  0  0
  -25.3707  -31.3779   26.1406 C   0  0  0  0  0  0
  -27.0426  -30.2946   24.6369 C   0  0  0  0  0  0
  -27.6061  -32.4347   25.7522 C   0  0  0  0  0  0
  -27.5574  -37.1774   24.8465 C   0  0  0  0  0  0
  -21.4292  -29.3061   22.3578 N   0  0  0  0  0  0
  -26.4283  -37.3732   23.9413 N   0  0  0  0  0  0
  -24.7308  -31.0202   22.0919 N   0  0  0  0  0  0
  -23.4228  -28.8074   23.2984 O   0  0  0  0  0  0
  -28.2688  -26.0578   20.2268 O   0  0  0  0  0  0
  -26.5672  -34.8898   22.4623 O   0  0  0  0  0  0
  -23.5622  -32.1298   23.7031 O   0  0  0  0  0  0
  -30.9703  -18.5730   21.2690 C   0  0  0  0  0  0
  -29.9015  -18.0234   20.5905 C   0  0  0  0  0  0
  -29.4747  -20.5117   20.4801 C   0  0  0  0  0  0
  -28.9614  -23.2306   20.4928 C   0  0  0  0  0  0
  -27.3122  -24.0789   18.6335 C   0  0  0  0  0  0
  -29.5213  -16.4011   20.4755 C   0  0  0  0  0  0
  -28.3521  -24.5617   19.6605 C   0  0  1  0  0  0
  -29.0837  -19.1954   20.1486 N   0  0  0  0  0  0
  -28.8351  -21.8600   20.0762 N   0  0  0  0  0  0
  -29.5802  -23.4772   21.5309 O   0  0  0  0  0  0
  -30.9743  -20.3561   21.3995 S   0  0  0  0  0  0
  -31.4863  -12.7999   19.1942 H   0  0  0  0  0  0
  -30.4715  -11.6686   20.0428 H   0  0  0  0  0  0
  -29.8638  -11.7402   17.6010 H   0  0  0  0  0  0
  -29.6137  -13.4652   17.6936 H   0  0  0  0  0  0
  -27.9688  -11.2727   18.9899 H   0  0  0  0  0  0
  -27.4052  -12.4360   17.8182 H   0  0  0  0  0  0
  -27.5913  -14.2471   19.4027 H   0  0  0  0  0  0
  -28.7664  -12.2992   21.4431 H   0  0  0  0  0  0
  -28.3584  -13.9653   21.7593 H   0  0  0  0  0  0
  -25.2773   -9.5680   22.4753 H   0  0  0  0  0  0
  -24.0004   -7.4636   22.7473 H   0  0  0  0  0  0
  -21.0847   -8.8777   19.8953 H   0  0  0  0  0  0
  -22.3708  -10.9671   19.6159 H   0  0  0  0  0  0
  -21.2010   -7.6147   23.9712 H   0  0  0  0  0  0
  -21.1480   -6.0523   25.9075 H   0  0  0  0  0  0
  -22.0599   -2.7608   23.2849 H   0  0  0  0  0  0
  -22.4096  -11.9857   22.4823 H   0  0  0  0  0  0
  -21.1083  -13.1208   22.2646 H   0  0  0  0  0  0
  -24.6516  -15.8479   20.5363 H   0  0  0  0  0  0
  -26.2687  -15.6375   20.0979 H   0  0  0  0  0  0
  -26.7329  -32.5243   23.0979 H   0  0  0  0  0  0
  -25.0106  -33.9583   25.0297 H   0  0  0  0  0  0
  -22.7628  -31.2919   21.3785 H   0  0  0  0  0  0
  -23.3765  -35.9562   23.3284 H   0  0  0  0  0  0
  -24.3575  -36.8890   22.2060 H   0  0  0  0  0  0
  -23.7243  -37.6423   23.6697 H   0  0  0  0  0  0
  -26.1905  -31.4460   20.6252 H   0  0  0  0  0  0
  -26.8877  -30.7362   22.0442 H   0  0  0  0  0  0
  -28.1376  -28.7253   21.2305 H   0  0  0  0  0  0
  -25.7808  -25.8490   19.0209 H   0  0  0  0  0  0
  -23.9590  -27.3139   18.9922 H   0  0  0  0  0  0
  -23.8321  -30.5768   19.4010 H   0  0  0  0  0  0
  -22.7979  -29.2503   19.8344 H   0  0  0  0  0  0
  -25.1315  -36.1823   25.0801 H   0  0  0  0  0  0
  -21.0034  -28.3329   24.1328 H   0  0  0  0  0  0
  -20.5690  -26.2352   23.3616 H   0  0  0  0  0  0
  -21.6665  -26.7423   22.1188 H   0  0  0  0  0  0
  -19.6928  -25.6282   21.1258 H   0  0  0  0  0  0
  -19.6705  -27.3173   20.6723 H   0  0  0  0  0  0
  -17.4217  -26.6682   21.4033 H   0  0  0  0  0  0
  -18.0359  -26.0087   22.9029 H   0  0  0  0  0  0
  -19.7968  -30.7306   24.2223 H   0  0  0  0  0  0
  -17.5040  -31.6273   24.5165 H   0  0  0  0  0  0
  -15.5377  -30.2980   23.7679 H   0  0  0  0  0  0
  -15.8702  -28.0812   22.7095 H   0  0  0  0  0  0
  -24.5899  -30.7114   25.7720 H   0  0  0  0  0  0
  -24.8885  -32.2973   26.4740 H   0  0  0  0  0  0
  -25.7965  -30.9008   27.0242 H   0  0  0  0  0  0
  -26.3068  -29.6653   24.1350 H   0  0  0  0  0  0
  -27.3983  -29.7266   25.4977 H   0  0  0  0  0  0
  -27.8999  -30.4158   23.9743 H   0  0  0  0  0  0
  -27.2641  -33.3678   26.2013 H   0  0  0  0  0  0
  -28.3919  -32.6862   25.0385 H   0  0  0  0  0  0
  -28.0681  -31.8533   26.5512 H   0  0  0  0  0  0
  -28.2569  -38.0092   24.7519 H   0  0  0  0  0  0
  -28.1091  -36.2617   24.6281 H   0  0  0  0  0  0
  -27.2292  -37.1402   25.8868 H   0  0  0  0  0  0
  -20.9512  -29.8786   21.6762 H   0  0  0  0  0  0
  -26.0139  -38.2792   24.1433 H   0  0  0  0  0  0
  -31.7663  -18.0228   21.7547 H   0  0  0  0  0  0
  -27.6362  -23.1670   18.1319 H   0  0  0  0  0  0
  -27.1754  -24.8052   17.8327 H   0  0  0  0  0  0
  -26.3570  -23.8462   19.1043 H   0  0  0  0  0  0
  -28.8825  -16.3041   19.5991 H   0  0  0  0  0  0
  -28.8444  -16.1988   21.3041 H   0  0  0  0  0  0
  -29.2123  -24.7263   19.0108 H   0  0  0  0  0  0
  -28.2057  -21.7668   19.2935 H   0  0  0  0  0  0
  1 25  1  0  0  0
  1 30  2  0  0  0
  1 76  1  0  0  0
  2  3  1  0  0  0
  2 25  1  0  0  0
  2 82  1  0  0  0
  2 83  1  0  0  0
  3  4  1  0  0  0
  3 84  1  0  0  0
  3 85  1  0  0  0
  4  5  1  0  0  0
  4 86  1  0  0  0
  4 87  1  0  0  0
  5  6  1  0  0  0
  5 26  1  0  0  0
  5 88  1  0  0  0
  6 25  1  0  0  0
  6 89  1  0  0  0
  6 90  1  0  0  0
  7  8  2  0  0  0
  7 26  1  0  0  0
  7 29  1  0  0  0
  8  9  1  0  0  0
  8 22  1  0  0  0
  9 10  1  0  0  0
  9 27  2  0  0  0
 10 11  2  0  0  0
 10 15  1  0  0  0
 11 12  1  0  0  0
 11 91  1  0  0  0
 12 13  2  0  0  0
 12 92  1  0  0  0
 13 14  1  0  0  0
 13 31  1  0  0  0
 14 15  2  0  0  0
 14 93  1  0  0  0
 15 94  1  0  0  0
 16 17  2  0  0  0
 16 21  1  0  0  0
 16 31  1  0  0  0
 17 18  1  0  0  0
 17 95  1  0  0  0
 18 19  2  0  0  0
 18 96  1  0  0  0
 19 20  1  0  0  0
 19 24  1  0  0  0
 20 21  2  0  0  0
 20 97  1  0  0  0
 21 23  1  0  0  0
 22 28  1  0  0  0
 22 32  2  0  0  0
 26 27  1  0  0  0
 28 98  1  0  0  0
 28 99  1  0  0  0
 29100  1  0  0  0
 29101  1  0  0  0
 33 34  1  0  0  0
 33 66  1  0  0  0
 33 70  2  0  0  0
 34 36  1  0  0  0
 34 59  1  0  0  0
 34102  1  0  0  0
 35 44  2  0  0  0
 35 45  1  0  0  0
 35 68  1  0  0  0
 36 56  1  0  0  0
 36103  1  0  0  0
 37 39  1  0  0  0
 37 47  1  0  0  0
 37 66  1  0  0  0
 37104  1  0  0  0
 38 43  2  0  0  0
 38 46  1  0  0  0
 38 47  1  0  0  0
 39 64  1  0  0  0
 39 67  2  0  0  0
 40 52  1  0  0  0
 40 53  2  0  0  0
 40 58  1  0  0  0
 41105  1  0  0  0
 41106  1  0  0  0
 41107  1  0  0  0
 41 48  1  0  0  0
 42 43  1  0  0  0
 42 66  1  0  0  0
 42108  1  0  0  0
 42109  1  0  0  0
 43 44  1  0  0  0
 44110  1  0  0  0
 45 46  2  0  0  0
 45111  1  0  0  0
 46112  1  0  0  0
 47113  1  0  0  0
 47114  1  0  0  0
 48 56  1  0  0  0
 48 65  1  0  0  0
 48115  1  0  0  0
 49 50  1  0  0  0
 49 53  1  0  0  0
 49 64  1  0  0  0
 49116  1  0  0  0
 50 51  1  0  0  0
 50117  1  0  0  0
 50118  1  0  0  0
 51 52  1  0  0  0
 51119  1  0  0  0
 51120  1  0  0  0
 52121  1  0  0  0
 52122  1  0  0  0
 53 54  1  0  0  0
 54 55  2  0  0  0
 54123  1  0  0  0
 55 57  1  0  0  0
 55124  1  0  0  0
 56 69  2  0  0  0
 57 58  2  0  0  0
 57125  1  0  0  0
 58126  1  0  0  0
 59 60  1  0  0  0
 59 61  1  0  0  0
 59 62  1  0  0  0
 60127  1  0  0  0
 60128  1  0  0  0
 60129  1  0  0  0
 61130  1  0  0  0
 61131  1  0  0  0
 61132  1  0  0  0
 62133  1  0  0  0
 62134  1  0  0  0
 62135  1  0  0  0
 63 65  1  0  0  0
 63136  1  0  0  0
 63137  1  0  0  0
 63138  1  0  0  0
 64139  1  0  0  0
 65140  1  0  0  0
 68 77  1  0  0  0
 71 72  2  0  0  0
 71 81  1  0  0  0
 71141  1  0  0  0
 72 76  1  0  0  0
 72 78  1  0  0  0
 73 78  2  0  0  0
 73 79  1  0  0  0
 73 81  1  0  0  0
 74 77  1  0  0  0
 74 79  1  0  0  0
 74 80  2  0  0  0
 75142  1  0  0  0
 75143  1  0  0  0
 75144  1  0  0  0
 75 77  1  0  0  0
 76145  1  0  0  0
 76146  1  0  0  0
 77147  1  0  0  0
 79148  1  0  0  0
M  ISO  4   1 100  68 101  76 100  77 101
M  END
> <chiral flag>
0

> <version>
0

> <s_m_source_file>
/data/baiqing/PycharmProjects/Reinvent-master-3.2/result/LINK_invent/BTK/process_docking_weight1_custom_product_contain_oxygen_bond_distance_aromatic_linkinvent_7_9_3/rearranged_h_0186.sdf

> <i_m_source_file_index>
91

> <r_mmod_Potential_Energy-OPLS-2005>
624.0986328125

> <r_mmod_Stretch_Energy-OPLS-2005>
321.122955322266

> <r_mmod_Bend_Energy-OPLS-2005>
331.855072021484

> <r_mmod_Torsional_Energy-OPLS-2005>
193.821228027344

> <r_mmod_Improper_Torsional_Energy-OPLS-2005>
5.74778461456299

> <r_mmod_Van_der_Waal_Energy-OPLS-2005>
117.743103027344

> <r_mmod_Electrostatic_Energy-OPLS-2005>
-346.222381591797

> <r_mmod_Solvation_Energy-OPLS-2005>
-244.058517456055

> <b_mmod_Minimization_Converged-OPLS-2005>
0

> <r_mmod_RMS_Derivative-OPLS-2005>
0.550442278385162

$$$$
92
                    3D
 Structure written by MMmdl.
151158  0  0  1  0            999 V2000
  -30.5288  -14.9114   20.4393 C   0  0  0  0  0  0
  -30.4452  -12.5547   19.4986 C   0  0  0  0  0  0
  -29.5278  -12.5330   18.2524 C   0  0  0  0  0  0
  -28.0590  -12.3065   18.6592 C   0  0  0  0  0  0
  -27.6319  -13.2237   19.8304 C   0  0  2  0  0  0
  -28.6723  -13.2350   20.9727 C   0  0  0  0  0  0
  -25.2524  -13.8148   20.5688 C   0  0  0  0  0  0
  -24.1803  -13.0406   20.9193 C   0  0  0  0  0  0
  -24.6381  -11.6883   20.8712 C   0  0  0  0  0  0
  -23.9055  -10.4275   21.0397 C   0  0  0  0  0  0
  -24.3616   -9.4194   21.9169 C   0  0  0  0  0  0
  -23.6298   -8.2236   22.0745 C   0  0  0  0  0  0
  -22.4279   -8.0272   21.3543 C   0  0  0  0  0  0
  -21.9917   -9.0239   20.4631 C   0  0  0  0  0  0
  -22.7237  -10.2121   20.3039 C   0  0  0  0  0  0
  -21.6852   -6.0736   22.5273 C   0  0  0  0  0  0
  -21.4016   -6.5637   23.8211 C   0  0  0  0  0  0
  -21.3671   -5.6783   24.9165 C   0  0  0  0  0  0
  -21.6050   -4.3048   24.7214 C   0  0  0  0  0  0
  -21.8826   -3.8142   23.4338 C   0  0  0  0  0  0
  -21.9199   -4.6961   22.3397 C   0  0  0  0  0  0
  -22.7830  -13.5206   21.1872 C   0  0  0  0  0  0
  -22.1662   -4.2151   21.0974 F   0  0  0  0  0  0
  -21.5635   -3.4536   25.7733 F   0  0  0  0  0  0
  -29.9647  -13.6371   20.4018 N   0  0  0  0  0  0
  -26.2899  -12.9315   20.3166 N   0  0  0  0  0  0
  -25.9294  -11.6473   20.5650 N   0  0  0  0  0  0
  -22.0492  -12.8183   22.0433 N   0  0  0  0  0  0
  -25.4271  -15.1868   20.4196 N   0  0  0  0  0  0
  -31.7181  -14.9900   20.1041 O   0  0  0  0  0  0
  -21.6629   -6.8878   21.4241 O   0  0  0  0  0  0
  -22.3503  -14.5510   20.6725 O   0  0  0  0  0  0
  -24.6401  -31.8489   23.1913 C   0  0  0  0  0  0
  -25.9200  -32.4723   23.8293 C   0  0  1  0  0  0
  -27.2197  -27.1711   20.1536 C   0  0  0  0  0  0
  -25.5963  -33.8531   24.2221 N   0  0  0  0  0  0
  -23.4413  -30.4685   21.5379 C   0  0  2  0  0  0
  -24.8927  -28.9012   20.1141 C   0  0  0  0  0  0
  -22.7558  -29.4568   22.4897 C   0  0  0  0  0  0
  -18.0300  -28.1370   22.8477 C   0  0  0  0  0  0
  -24.1505  -36.7260   23.2636 C   0  0  0  0  0  0
  -25.9946  -30.7354   21.3845 C   0  0  0  0  0  0
  -26.0687  -29.3486   20.7290 C   0  0  0  0  0  0
  -27.2364  -28.5008   20.7300 C   0  0  0  0  0  0
  -26.0211  -26.8230   19.4920 C   0  0  0  0  0  0
  -24.8805  -27.6518   19.4786 C   0  0  0  0  0  0
  -23.6671  -29.7989   20.1572 C   0  0  0  0  0  0
  -25.4137  -36.3053   24.0321 C   0  0  1  0  0  0
  -20.5909  -28.3696   23.1248 C   0  0  2  0  0  0
  -20.6793  -26.9408   22.5405 C   0  0  0  0  0  0
  -19.5763  -26.6359   21.5218 C   0  0  0  0  0  0
  -18.1940  -26.7907   22.1618 C   0  0  0  0  0  0
  -19.1553  -28.8854   23.2849 C   0  0  0  0  0  0
  -18.9464  -30.1454   23.8870 C   0  0  0  0  0  0
  -17.6459  -30.6574   24.0550 C   0  0  0  0  0  0
  -25.9077  -34.9424   23.5077 C   0  0  0  0  0  0
  -16.5352  -29.9057   23.6335 C   0  0  0  0  0  0
  -16.7282  -28.6472   23.0363 C   0  0  0  0  0  0
  -26.4536  -31.6551   25.0700 C   0  0  0  0  0  0
  -25.3721  -31.3709   26.1385 C   0  0  0  0  0  0
  -27.0388  -30.2954   24.6226 C   0  0  0  0  0  0
  -27.6087  -32.4274   25.7492 C   0  0  0  0  0  0
  -27.5590  -37.1798   24.8465 C   0  0  0  0  0  0
  -21.4256  -29.3034   22.3640 N   0  0  0  0  0  0
  -26.4300  -37.3764   23.9405 N   0  0  0  0  0  0
  -24.7115  -31.0370   22.0939 N   0  0  0  0  0  0
  -23.4220  -28.8125   23.3037 O   0  0  0  0  0  0
  -28.2831  -26.2071   20.1948 O   0  0  0  0  0  0
  -26.5647  -34.8916   22.4647 O   0  0  0  0  0  0
  -23.5528  -32.1357   23.7144 O   0  0  0  0  0  0
  -29.1412  -19.1711   20.6733 C   0  0  0  0  0  0
  -28.4451  -21.9026   22.2977 C   0  0  0  0  0  0
  -28.9802  -23.3822   20.2336 C   0  0  0  0  0  0
  -27.9903  -24.7135   20.4801 C   0  0  0  0  0  0
  -28.6022  -21.8352   20.7661 C   0  0  1  0  0  0
  -29.6810  -16.3015   20.7655 C   0  0  0  0  0  0
  -30.1310  -17.8767   20.3961 C   0  0  0  0  0  0
  -29.4382  -20.5400   20.4380 N   0  0  0  0  0  0
  -28.0286  -18.9131   21.1364 O   0  0  0  0  0  0
  -28.4974  -16.1780   20.1681 F   0  0  0  0  0  0
  -29.4313  -16.2956   22.0770 F   0  0  0  0  0  0
  -31.2758  -18.1141   21.0396 F   0  0  0  0  0  0
  -30.4308  -17.8934   19.0959 F   0  0  0  0  0  0
  -31.4838  -12.7010   19.1993 H   0  0  0  0  0  0
  -30.4151  -11.5903   20.0079 H   0  0  0  0  0  0
  -29.8474  -11.7573   17.5563 H   0  0  0  0  0  0
  -29.6184  -13.4793   17.7170 H   0  0  0  0  0  0
  -27.9527  -11.2614   18.9493 H   0  0  0  0  0  0
  -27.4012  -12.4544   17.8019 H   0  0  0  0  0  0
  -27.5865  -14.2136   19.3856 H   0  0  0  0  0  0
  -28.7471  -12.2529   21.4421 H   0  0  0  0  0  0
  -28.3678  -13.9257   21.7593 H   0  0  0  0  0  0
  -25.2774   -9.5674   22.4726 H   0  0  0  0  0  0
  -24.0025   -7.4617   22.7450 H   0  0  0  0  0  0
  -21.0865   -8.8736   19.8911 H   0  0  0  0  0  0
  -22.3698  -10.9652   19.6138 H   0  0  0  0  0  0
  -21.1996   -7.6133   23.9719 H   0  0  0  0  0  0
  -21.1489   -6.0502   25.9076 H   0  0  0  0  0  0
  -22.0598   -2.7607   23.2820 H   0  0  0  0  0  0
  -22.4141  -11.9871   22.4848 H   0  0  0  0  0  0
  -21.1082  -13.1145   22.2599 H   0  0  0  0  0  0
  -24.6778  -15.8532   20.5699 H   0  0  0  0  0  0
  -26.2990  -15.6269   20.1527 H   0  0  0  0  0  0
  -26.7259  -32.5361   23.1018 H   0  0  0  0  0  0
  -25.0154  -33.9668   25.0396 H   0  0  0  0  0  0
  -22.7404  -31.2932   21.3873 H   0  0  0  0  0  0
  -23.3788  -35.9568   23.3278 H   0  0  0  0  0  0
  -24.3588  -36.8913   22.2052 H   0  0  0  0  0  0
  -23.7239  -37.6448   23.6672 H   0  0  0  0  0  0
  -26.1413  -31.4916   20.6121 H   0  0  0  0  0  0
  -26.8676  -30.7880   22.0233 H   0  0  0  0  0  0
  -28.1339  -28.8440   21.2249 H   0  0  0  0  0  0
  -25.9385  -25.8795   18.9749 H   0  0  0  0  0  0
  -23.9876  -27.3116   18.9724 H   0  0  0  0  0  0
  -23.8017  -30.5748   19.4027 H   0  0  0  0  0  0
  -22.7832  -29.2394   19.8458 H   0  0  0  0  0  0
  -25.1328  -36.1896   25.0815 H   0  0  0  0  0  0
  -20.9985  -28.3264   24.1371 H   0  0  0  0  0  0
  -20.5706  -26.2307   23.3616 H   0  0  0  0  0  0
  -21.6661  -26.7446   22.1195 H   0  0  0  0  0  0
  -19.6940  -25.6265   21.1255 H   0  0  0  0  0  0
  -19.6687  -27.3166   20.6742 H   0  0  0  0  0  0
  -17.4226  -26.6659   21.4006 H   0  0  0  0  0  0
  -18.0329  -26.0042   22.9002 H   0  0  0  0  0  0
  -19.7939  -30.7276   24.2225 H   0  0  0  0  0  0
  -17.5010  -31.6260   24.5133 H   0  0  0  0  0  0
  -15.5350  -30.2945   23.7665 H   0  0  0  0  0  0
  -15.8687  -28.0778   22.7093 H   0  0  0  0  0  0
  -24.5918  -30.7048   25.7685 H   0  0  0  0  0  0
  -24.8882  -32.2870   26.4772 H   0  0  0  0  0  0
  -25.7996  -30.8897   27.0186 H   0  0  0  0  0  0
  -26.2979  -29.6675   24.1254 H   0  0  0  0  0  0
  -27.4059  -29.7252   25.4771 H   0  0  0  0  0  0
  -27.8869  -30.4224   23.9493 H   0  0  0  0  0  0
  -27.2720  -33.3591   26.2048 H   0  0  0  0  0  0
  -28.3917  -32.6789   25.0325 H   0  0  0  0  0  0
  -28.0721  -31.8388   26.5421 H   0  0  0  0  0  0
  -28.2599  -38.0109   24.7547 H   0  0  0  0  0  0
  -28.1097  -36.2640   24.6255 H   0  0  0  0  0  0
  -27.2294  -37.1414   25.8864 H   0  0  0  0  0  0
  -20.9456  -29.8735   21.6822 H   0  0  0  0  0  0
  -26.0172  -38.2839   24.1394 H   0  0  0  0  0  0
  -27.7602  -22.6927   22.6000 H   0  0  0  0  0  0
  -29.4032  -22.0994   22.7789 H   0  0  0  0  0  0
  -28.0462  -20.9788   22.7154 H   0  0  0  0  0  0
  -29.9539  -23.6315   20.6540 H   0  0  0  0  0  0
  -29.1539  -23.3204   19.1591 H   0  0  0  0  0  0
  -27.7356  -24.7122   21.5399 H   0  0  0  0  0  0
  -27.0570  -24.4426   19.9927 H   0  0  0  0  0  0
  -27.6110  -21.6270   20.3584 H   0  0  0  0  0  0
  -30.3499  -20.7082   20.0303 H   0  0  0  0  0  0
  1 25  1  0  0  0
  1 30  2  0  0  0
  1 76  1  0  0  0
  2  3  1  0  0  0
  2 25  1  0  0  0
  2 84  1  0  0  0
  2 85  1  0  0  0
  3  4  1  0  0  0
  3 86  1  0  0  0
  3 87  1  0  0  0
  4  5  1  0  0  0
  4 88  1  0  0  0
  4 89  1  0  0  0
  5  6  1  0  0  0
  5 26  1  0  0  0
  5 90  1  0  0  0
  6 25  1  0  0  0
  6 91  1  0  0  0
  6 92  1  0  0  0
  7  8  2  0  0  0
  7 26  1  0  0  0
  7 29  1  0  0  0
  8  9  1  0  0  0
  8 22  1  0  0  0
  9 10  1  0  0  0
  9 27  2  0  0  0
 10 11  2  0  0  0
 10 15  1  0  0  0
 11 12  1  0  0  0
 11 93  1  0  0  0
 12 13  2  0  0  0
 12 94  1  0  0  0
 13 14  1  0  0  0
 13 31  1  0  0  0
 14 15  2  0  0  0
 14 95  1  0  0  0
 15 96  1  0  0  0
 16 17  2  0  0  0
 16 21  1  0  0  0
 16 31  1  0  0  0
 17 18  1  0  0  0
 17 97  1  0  0  0
 18 19  2  0  0  0
 18 98  1  0  0  0
 19 20  1  0  0  0
 19 24  1  0  0  0
 20 21  2  0  0  0
 20 99  1  0  0  0
 21 23  1  0  0  0
 22 28  1  0  0  0
 22 32  2  0  0  0
 26 27  1  0  0  0
 28100  1  0  0  0
 28101  1  0  0  0
 29102  1  0  0  0
 29103  1  0  0  0
 33 34  1  0  0  0
 33 66  1  0  0  0
 33 70  2  0  0  0
 34 36  1  0  0  0
 34 59  1  0  0  0
 34104  1  0  0  0
 35 44  2  0  0  0
 35 45  1  0  0  0
 35 68  1  0  0  0
 36 56  1  0  0  0
 36105  1  0  0  0
 37 39  1  0  0  0
 37 47  1  0  0  0
 37 66  1  0  0  0
 37106  1  0  0  0
 38 43  2  0  0  0
 38 46  1  0  0  0
 38 47  1  0  0  0
 39 64  1  0  0  0
 39 67  2  0  0  0
 40 52  1  0  0  0
 40 53  2  0  0  0
 40 58  1  0  0  0
 41107  1  0  0  0
 41108  1  0  0  0
 41109  1  0  0  0
 41 48  1  0  0  0
 42 43  1  0  0  0
 42 66  1  0  0  0
 42110  1  0  0  0
 42111  1  0  0  0
 43 44  1  0  0  0
 44112  1  0  0  0
 45 46  2  0  0  0
 45113  1  0  0  0
 46114  1  0  0  0
 47115  1  0  0  0
 47116  1  0  0  0
 48 56  1  0  0  0
 48 65  1  0  0  0
 48117  1  0  0  0
 49 50  1  0  0  0
 49 53  1  0  0  0
 49 64  1  0  0  0
 49118  1  0  0  0
 50 51  1  0  0  0
 50119  1  0  0  0
 50120  1  0  0  0
 51 52  1  0  0  0
 51121  1  0  0  0
 51122  1  0  0  0
 52123  1  0  0  0
 52124  1  0  0  0
 53 54  1  0  0  0
 54 55  2  0  0  0
 54125  1  0  0  0
 55 57  1  0  0  0
 55126  1  0  0  0
 56 69  2  0  0  0
 57 58  2  0  0  0
 57127  1  0  0  0
 58128  1  0  0  0
 59 60  1  0  0  0
 59 61  1  0  0  0
 59 62  1  0  0  0
 60129  1  0  0  0
 60130  1  0  0  0
 60131  1  0  0  0
 61132  1  0  0  0
 61133  1  0  0  0
 61134  1  0  0  0
 62135  1  0  0  0
 62136  1  0  0  0
 62137  1  0  0  0
 63 65  1  0  0  0
 63138  1  0  0  0
 63139  1  0  0  0
 63140  1  0  0  0
 64141  1  0  0  0
 65142  1  0  0  0
 68 74  1  0  0  0
 71 77  1  0  0  0
 71 78  1  0  0  0
 71 79  2  0  0  0
 72143  1  0  0  0
 72144  1  0  0  0
 72145  1  0  0  0
 72 75  1  0  0  0
 73 74  1  0  0  0
 73 75  1  0  0  0
 73146  1  0  0  0
 73147  1  0  0  0
 74148  1  0  0  0
 74149  1  0  0  0
 75 78  1  0  0  0
 75150  1  0  0  0
 76 77  1  0  0  0
 76 80  1  0  0  0
 76 81  1  0  0  0
 77 82  1  0  0  0
 77 83  1  0  0  0
 78151  1  0  0  0
M  ISO  4   1 100  68 101  74 101  76 100
M  END
> <chiral flag>
0

> <version>
0

> <s_m_source_file>
/data/baiqing/PycharmProjects/Reinvent-master-3.2/result/LINK_invent/BTK/process_docking_weight1_custom_product_contain_oxygen_bond_distance_aromatic_linkinvent_7_9_3/rearranged_h_0186.sdf

> <i_m_source_file_index>
92

> <r_mmod_Potential_Energy-OPLS-2005>
431.762176513672

> <r_mmod_Stretch_Energy-OPLS-2005>
244.238632202148

> <r_mmod_Bend_Energy-OPLS-2005>
234.069885253906

> <r_mmod_Torsional_Energy-OPLS-2005>
133.046844482422

> <r_mmod_Improper_Torsional_Energy-OPLS-2005>
2.55758762359619

> <r_mmod_Van_der_Waal_Energy-OPLS-2005>
118.062309265137

> <r_mmod_Electrostatic_Energy-OPLS-2005>
-266.466583251953

> <r_mmod_Solvation_Energy-OPLS-2005>
-194.961944580078

> <b_mmod_Minimization_Converged-OPLS-2005>
0

> <r_mmod_RMS_Derivative-OPLS-2005>
2.04624772071838

$$$$
93
                    3D
 Structure written by MMmdl.
158166  0  0  1  0            999 V2000
  -30.6373  -14.5559   20.5347 C   0  0  0  0  0  0
  -30.4352  -12.3464   19.4518 C   0  0  0  0  0  0
  -29.5086  -12.5037   18.2243 C   0  0  0  0  0  0
  -28.0289  -12.3547   18.6290 C   0  0  0  0  0  0
  -27.6610  -13.2077   19.8719 C   0  0  2  0  0  0
  -28.6981  -13.0243   21.0043 C   0  0  0  0  0  0
  -25.2599  -13.8170   20.5704 C   0  0  0  0  0  0
  -24.1851  -13.0449   20.9188 C   0  0  0  0  0  0
  -24.6403  -11.6911   20.8739 C   0  0  0  0  0  0
  -23.9077  -10.4303   21.0403 C   0  0  0  0  0  0
  -24.3620   -9.4218   21.9194 C   0  0  0  0  0  0
  -23.6299   -8.2249   22.0750 C   0  0  0  0  0  0
  -22.4275   -8.0292   21.3547 C   0  0  0  0  0  0
  -21.9927   -9.0262   20.4641 C   0  0  0  0  0  0
  -22.7242  -10.2144   20.3065 C   0  0  0  0  0  0
  -21.6864   -6.0754   22.5282 C   0  0  0  0  0  0
  -21.4006   -6.5648   23.8220 C   0  0  0  0  0  0
  -21.3651   -5.6795   24.9179 C   0  0  0  0  0  0
  -21.6045   -4.3062   24.7227 C   0  0  0  0  0  0
  -21.8823   -3.8159   23.4345 C   0  0  0  0  0  0
  -21.9188   -4.6980   22.3401 C   0  0  0  0  0  0
  -22.7879  -13.5243   21.1864 C   0  0  0  0  0  0
  -22.1666   -4.2172   21.0986 F   0  0  0  0  0  0
  -21.5624   -3.4542   25.7740 F   0  0  0  0  0  0
  -30.0222  -13.3420   20.4569 N   0  0  0  0  0  0
  -26.3017  -12.9328   20.3347 N   0  0  0  0  0  0
  -25.9333  -11.6491   20.5763 N   0  0  0  0  0  0
  -22.0503  -12.8235   22.0385 N   0  0  0  0  0  0
  -25.4340  -15.1891   20.4119 N   0  0  0  0  0  0
  -31.7835  -14.7366   20.1101 O   0  0  0  0  0  0
  -21.6626   -6.8886   21.4244 O   0  0  0  0  0  0
  -22.3589  -14.5556   20.6707 O   0  0  0  0  0  0
  -24.6203  -31.8667   23.2048 C   0  0  0  0  0  0
  -25.9078  -32.4818   23.8362 C   0  0  1  0  0  0
  -27.2293  -27.3810   20.1240 C   0  0  0  0  0  0
  -25.5931  -33.8607   24.2308 N   0  0  0  0  0  0
  -23.4117  -30.4848   21.5492 C   0  0  2  0  0  0
  -24.8561  -28.9373   20.1226 C   0  0  0  0  0  0
  -22.7437  -29.4652   22.4995 C   0  0  0  0  0  0
  -18.0277  -28.1380   22.8481 C   0  0  0  0  0  0
  -24.1497  -36.7313   23.2642 C   0  0  0  0  0  0
  -25.9427  -30.8147   21.3638 C   0  0  0  0  0  0
  -26.0192  -29.4427   20.7170 C   0  0  0  0  0  0
  -27.2117  -28.6731   20.7064 C   0  0  0  0  0  0
  -26.0537  -26.8987   19.5180 C   0  0  0  0  0  0
  -24.8694  -27.6661   19.5186 C   0  0  0  0  0  0
  -23.6228  -29.8137   20.1677 C   0  0  0  0  0  0
  -25.4128  -36.3117   24.0336 C   0  0  1  0  0  0
  -20.5879  -28.3692   23.1303 C   0  0  2  0  0  0
  -20.6788  -26.9432   22.5414 C   0  0  0  0  0  0
  -19.5756  -26.6397   21.5226 C   0  0  0  0  0  0
  -18.1924  -26.7918   22.1619 C   0  0  0  0  0  0
  -19.1524  -28.8842   23.2878 C   0  0  0  0  0  0
  -18.9457  -30.1428   23.8911 C   0  0  0  0  0  0
  -17.6468  -30.6589   24.0553 C   0  0  0  0  0  0
  -25.9072  -34.9480   23.5149 C   0  0  0  0  0  0
  -16.5360  -29.9080   23.6312 C   0  0  0  0  0  0
  -16.7271  -28.6502   23.0329 C   0  0  0  0  0  0
  -26.4464  -31.6611   25.0712 C   0  0  0  0  0  0
  -25.3695  -31.3712   26.1451 C   0  0  0  0  0  0
  -27.0326  -30.3070   24.6076 C   0  0  0  0  0  0
  -27.6042  -32.4336   25.7457 C   0  0  0  0  0  0
  -27.5569  -37.1798   24.8453 C   0  0  0  0  0  0
  -21.4174  -29.3047   22.3711 N   0  0  0  0  0  0
  -26.4315  -37.3790   23.9385 N   0  0  0  0  0  0
  -24.6771  -31.0705   22.0988 N   0  0  0  0  0  0
  -23.4150  -28.8192   23.3078 O   0  0  0  0  0  0
  -28.3860  -26.6234   20.0815 O   0  0  0  0  0  0
  -26.5622  -34.8937   22.4692 O   0  0  0  0  0  0
  -23.5388  -32.1460   23.7425 O   0  0  0  0  0  0
  -28.4638  -17.9764   22.1774 C   0  0  0  0  0  0
  -29.1929  -18.0857   21.0176 C   0  0  0  0  0  0
  -28.4333  -20.2715   21.2372 C   0  0  0  0  0  0
  -29.3631  -16.8855   18.8305 C   0  0  0  0  0  0
  -29.3480  -22.2936   18.8746 C   0  0  0  0  0  0
  -28.4304  -25.3696   20.8201 C   0  0  0  0  0  0
  -29.9249  -16.9662   20.2627 C   0  0  2  0  0  0
  -28.8473  -22.7563   20.2525 C   0  0  1  0  0  0
  -27.9459  -24.0548   20.0953 C   0  0  1  0  0  0
  -29.2039  -19.4211   20.5346 N   0  0  0  0  0  0
  -28.1936  -21.6378   20.9732 N   0  0  0  0  0  0
  -29.8285  -15.6014   20.8506 N   0  0  0  0  0  0
  -26.6350  -23.7069   20.5105 O   0  0  0  0  0  0
  -27.6916  -19.4846   22.6251 S   0  0  0  0  0  0
  -31.4784  -12.4688   19.1503 H   0  0  0  0  0  0
  -30.3630  -11.3401   19.8668 H   0  0  0  0  0  0
  -29.7631  -11.7624   17.4648 H   0  0  0  0  0  0
  -29.6678  -13.4800   17.7629 H   0  0  0  0  0  0
  -27.8484  -11.3008   18.8405 H   0  0  0  0  0  0
  -27.3803  -12.6149   17.7922 H   0  0  0  0  0  0
  -27.6911  -14.2492   19.5518 H   0  0  0  0  0  0
  -28.6887  -11.9977   21.3741 H   0  0  0  0  0  0
  -28.4543  -13.6488   21.8652 H   0  0  0  0  0  0
  -25.2774   -9.5693   22.4770 H   0  0  0  0  0  0
  -24.0014   -7.4640   22.7477 H   0  0  0  0  0  0
  -21.0869   -8.8788   19.8943 H   0  0  0  0  0  0
  -22.3719  -10.9691   19.6178 H   0  0  0  0  0  0
  -21.1995   -7.6160   23.9737 H   0  0  0  0  0  0
  -21.1469   -6.0523   25.9087 H   0  0  0  0  0  0
  -22.0602   -2.7629   23.2840 H   0  0  0  0  0  0
  -22.4097  -11.9888   22.4772 H   0  0  0  0  0  0
  -21.1120  -13.1276   22.2561 H   0  0  0  0  0  0
  -24.6683  -15.8438   20.5260 H   0  0  0  0  0  0
  -26.2825  -15.6291   20.0782 H   0  0  0  0  0  0
  -26.7131  -32.5541   23.1109 H   0  0  0  0  0  0
  -25.0061  -33.9758   25.0435 H   0  0  0  0  0  0
  -22.7119  -31.3081   21.4038 H   0  0  0  0  0  0
  -23.3771  -35.9627   23.3334 H   0  0  0  0  0  0
  -24.3592  -36.8929   22.2048 H   0  0  0  0  0  0
  -23.7235  -37.6516   23.6661 H   0  0  0  0  0  0
  -26.0500  -31.5746   20.5909 H   0  0  0  0  0  0
  -26.8314  -30.8789   21.9778 H   0  0  0  0  0  0
  -28.1141  -29.0633   21.1593 H   0  0  0  0  0  0
  -26.0560  -25.9318   19.0393 H   0  0  0  0  0  0
  -23.9770  -27.2711   19.0564 H   0  0  0  0  0  0
  -23.7367  -30.5864   19.4055 H   0  0  0  0  0  0
  -22.7437  -29.2381   19.8729 H   0  0  0  0  0  0
  -25.1285  -36.1980   25.0823 H   0  0  0  0  0  0
  -20.9939  -28.3276   24.1440 H   0  0  0  0  0  0
  -20.5764  -26.2308   23.3620 H   0  0  0  0  0  0
  -21.6645  -26.7511   22.1172 H   0  0  0  0  0  0
  -19.6982  -25.6318   21.1241 H   0  0  0  0  0  0
  -19.6695  -27.3227   20.6780 H   0  0  0  0  0  0
  -17.4217  -26.6679   21.4017 H   0  0  0  0  0  0
  -18.0278  -26.0080   22.9018 H   0  0  0  0  0  0
  -19.7950  -30.7197   24.2323 H   0  0  0  0  0  0
  -17.5039  -31.6265   24.5139 H   0  0  0  0  0  0
  -15.5348  -30.2966   23.7666 H   0  0  0  0  0  0
  -15.8695  -28.0825   22.7029 H   0  0  0  0  0  0
  -24.5895  -30.7054   25.7744 H   0  0  0  0  0  0
  -24.8851  -32.2863   26.4870 H   0  0  0  0  0  0
  -25.8031  -30.8878   27.0226 H   0  0  0  0  0  0
  -26.2872  -29.6808   24.1174 H   0  0  0  0  0  0
  -27.4177  -29.7324   25.4513 H   0  0  0  0  0  0
  -27.8658  -30.4428   23.9184 H   0  0  0  0  0  0
  -27.2694  -33.3676   26.1978 H   0  0  0  0  0  0
  -28.3843  -32.6851   25.0258 H   0  0  0  0  0  0
  -28.0701  -31.8494   26.5400 H   0  0  0  0  0  0
  -28.2588  -38.0093   24.7529 H   0  0  0  0  0  0
  -28.1093  -36.2639   24.6285 H   0  0  0  0  0  0
  -27.2306  -37.1428   25.8865 H   0  0  0  0  0  0
  -20.9388  -29.8739   21.6889 H   0  0  0  0  0  0
  -26.0242  -38.2884   24.1383 H   0  0  0  0  0  0
  -28.3091  -17.0949   22.7863 H   0  0  0  0  0  0
  -29.4626  -17.8403   18.3155 H   0  0  0  0  0  0
  -28.3040  -16.6275   18.8390 H   0  0  0  0  0  0
  -29.8847  -16.1408   18.2262 H   0  0  0  0  0  0
  -29.8964  -23.0848   18.3614 H   0  0  0  0  0  0
  -28.5214  -21.9946   18.2277 H   0  0  0  0  0  0
  -30.0317  -21.4494   18.9528 H   0  0  0  0  0  0
  -29.4905  -25.2446   21.0446 H   0  0  0  0  0  0
  -27.9522  -25.4865   21.7941 H   0  0  0  0  0  0
  -30.9828  -17.2295   20.2010 H   0  0  0  0  0  0
  -29.7207  -23.0257   20.8511 H   0  0  0  0  0  0
  -27.8879  -24.2968   19.0328 H   0  0  0  0  0  0
  -27.4968  -22.0204   21.6092 H   0  0  0  0  0  0
  -28.9364  -15.3557   21.2478 H   0  0  0  0  0  0
  -26.4474  -22.8733   20.0819 H   0  0  0  0  0  0
  1 25  1  0  0  0
  1 30  2  0  0  0
  1 82  1  0  0  0
  2  3  1  0  0  0
  2 25  1  0  0  0
  2 85  1  0  0  0
  2 86  1  0  0  0
  3  4  1  0  0  0
  3 87  1  0  0  0
  3 88  1  0  0  0
  4  5  1  0  0  0
  4 89  1  0  0  0
  4 90  1  0  0  0
  5  6  1  0  0  0
  5 26  1  0  0  0
  5 91  1  0  0  0
  6 25  1  0  0  0
  6 92  1  0  0  0
  6 93  1  0  0  0
  7  8  2  0  0  0
  7 26  1  0  0  0
  7 29  1  0  0  0
  8  9  1  0  0  0
  8 22  1  0  0  0
  9 10  1  0  0  0
  9 27  2  0  0  0
 10 11  2  0  0  0
 10 15  1  0  0  0
 11 12  1  0  0  0
 11 94  1  0  0  0
 12 13  2  0  0  0
 12 95  1  0  0  0
 13 14  1  0  0  0
 13 31  1  0  0  0
 14 15  2  0  0  0
 14 96  1  0  0  0
 15 97  1  0  0  0
 16 17  2  0  0  0
 16 21  1  0  0  0
 16 31  1  0  0  0
 17 18  1  0  0  0
 17 98  1  0  0  0
 18 19  2  0  0  0
 18 99  1  0  0  0
 19 20  1  0  0  0
 19 24  1  0  0  0
 20 21  2  0  0  0
 20100  1  0  0  0
 21 23  1  0  0  0
 22 28  1  0  0  0
 22 32  2  0  0  0
 26 27  1  0  0  0
 28101  1  0  0  0
 28102  1  0  0  0
 29103  1  0  0  0
 29104  1  0  0  0
 33 34  1  0  0  0
 33 66  1  0  0  0
 33 70  2  0  0  0
 34 36  1  0  0  0
 34 59  1  0  0  0
 34105  1  0  0  0
 35 44  2  0  0  0
 35 45  1  0  0  0
 35 68  1  0  0  0
 36 56  1  0  0  0
 36106  1  0  0  0
 37 39  1  0  0  0
 37 47  1  0  0  0
 37 66  1  0  0  0
 37107  1  0  0  0
 38 43  2  0  0  0
 38 46  1  0  0  0
 38 47  1  0  0  0
 39 64  1  0  0  0
 39 67  2  0  0  0
 40 52  1  0  0  0
 40 53  2  0  0  0
 40 58  1  0  0  0
 41108  1  0  0  0
 41109  1  0  0  0
 41110  1  0  0  0
 41 48  1  0  0  0
 42 43  1  0  0  0
 42 66  1  0  0  0
 42111  1  0  0  0
 42112  1  0  0  0
 43 44  1  0  0  0
 44113  1  0  0  0
 45 46  2  0  0  0
 45114  1  0  0  0
 46115  1  0  0  0
 47116  1  0  0  0
 47117  1  0  0  0
 48 56  1  0  0  0
 48 65  1  0  0  0
 48118  1  0  0  0
 49 50  1  0  0  0
 49 53  1  0  0  0
 49 64  1  0  0  0
 49119  1  0  0  0
 50 51  1  0  0  0
 50120  1  0  0  0
 50121  1  0  0  0
 51 52  1  0  0  0
 51122  1  0  0  0
 51123  1  0  0  0
 52124  1  0  0  0
 52125  1  0  0  0
 53 54  1  0  0  0
 54 55  2  0  0  0
 54126  1  0  0  0
 55 57  1  0  0  0
 55127  1  0  0  0
 56 69  2  0  0  0
 57 58  2  0  0  0
 57128  1  0  0  0
 58129  1  0  0  0
 59 60  1  0  0  0
 59 61  1  0  0  0
 59 62  1  0  0  0
 60130  1  0  0  0
 60131  1  0  0  0
 60132  1  0  0  0
 61133  1  0  0  0
 61134  1  0  0  0
 61135  1  0  0  0
 62136  1  0  0  0
 62137  1  0  0  0
 62138  1  0  0  0
 63 65  1  0  0  0
 63139  1  0  0  0
 63140  1  0  0  0
 63141  1  0  0  0
 64142  1  0  0  0
 65143  1  0  0  0
 68 76  1  0  0  0
 71 72  2  0  0  0
 71 84  1  0  0  0
 71144  1  0  0  0
 72 77  1  0  0  0
 72 80  1  0  0  0
 73 80  2  0  0  0
 73 81  1  0  0  0
 73 84  1  0  0  0
 74145  1  0  0  0
 74146  1  0  0  0
 74147  1  0  0  0
 74 77  1  0  0  0
 75148  1  0  0  0
 75149  1  0  0  0
 75150  1  0  0  0
 75 78  1  0  0  0
 76 79  1  0  0  0
 76151  1  0  0  0
 76152  1  0  0  0
 77 82  1  0  0  0
 77153  1  0  0  0
 78 79  1  0  0  0
 78 81  1  0  0  0
 78154  1  0  0  0
 79 83  1  0  0  0
 79155  1  0  0  0
 81156  1  0  0  0
 82157  1  0  0  0
 83158  1  0  0  0
M  ISO  4   1 100  68 101  76 101  82 100
M  END
> <chiral flag>
0

> <version>
0

> <s_m_source_file>
/data/baiqing/PycharmProjects/Reinvent-master-3.2/result/LINK_invent/BTK/process_docking_weight1_custom_product_contain_oxygen_bond_distance_aromatic_linkinvent_7_9_3/rearranged_h_0186.sdf

> <i_m_source_file_index>
93

> <r_mmod_Potential_Energy-OPLS-2005>
-235.353469848633

> <r_mmod_Stretch_Energy-OPLS-2005>
51.4548721313477

> <r_mmod_Bend_Energy-OPLS-2005>
113.216690063477

> <r_mmod_Torsional_Energy-OPLS-2005>
266.533477783203

> <r_mmod_Improper_Torsional_Energy-OPLS-2005>
8.46906280517578

> <r_mmod_Van_der_Waal_Energy-OPLS-2005>
125.061393737793

> <r_mmod_Electrostatic_Energy-OPLS-2005>
-591.668701171875

> <r_mmod_Solvation_Energy-OPLS-2005>
-232.135894775391

> <b_mmod_Minimization_Converged-OPLS-2005>
0

> <r_mmod_RMS_Derivative-OPLS-2005>
4.46574115753174

$$$$
