0
                    3D
 Structure written by MMmdl.
162171  0  0  1  0            999 V2000
  -30.6634  -14.5347   20.5199 C   0  0  0  0  0  0
  -30.4256  -12.3252   19.4492 C   0  0  0  0  0  0
  -29.5069  -12.5045   18.2209 C   0  0  0  0  0  0
  -28.0239  -12.3683   18.6217 C   0  0  0  0  0  0
  -27.6592  -13.2114   19.8735 C   0  0  2  0  0  0
  -28.6996  -13.0218   21.0022 C   0  0  0  0  0  0
  -25.2581  -13.8169   20.5667 C   0  0  0  0  0  0
  -24.1839  -13.0436   20.9160 C   0  0  0  0  0  0
  -24.6400  -11.6904   20.8721 C   0  0  0  0  0  0
  -23.9064  -10.4290   21.0385 C   0  0  0  0  0  0
  -24.3617   -9.4213   21.9172 C   0  0  0  0  0  0
  -23.6300   -8.2245   22.0749 C   0  0  0  0  0  0
  -22.4285   -8.0282   21.3538 C   0  0  0  0  0  0
  -21.9910   -9.0252   20.4641 C   0  0  0  0  0  0
  -22.7229  -10.2135   20.3043 C   0  0  0  0  0  0
  -21.6856   -6.0740   22.5276 C   0  0  0  0  0  0
  -21.4013   -6.5639   23.8214 C   0  0  0  0  0  0
  -21.3658   -5.6787   24.9171 C   0  0  0  0  0  0
  -21.6048   -4.3052   24.7218 C   0  0  0  0  0  0
  -21.8821   -3.8146   23.4338 C   0  0  0  0  0  0
  -21.9193   -4.6964   22.3397 C   0  0  0  0  0  0
  -22.7861  -13.5235   21.1827 C   0  0  0  0  0  0
  -22.1662   -4.2145   21.0975 F   0  0  0  0  0  0
  -21.5627   -3.4537   25.7732 F   0  0  0  0  0  0
  -30.0298  -13.3286   20.4533 N   0  0  0  0  0  0
  -26.3013  -12.9342   20.3341 N   0  0  0  0  0  0
  -25.9332  -11.6497   20.5747 N   0  0  0  0  0  0
  -22.0502  -12.8234   22.0389 N   0  0  0  0  0  0
  -25.4307  -15.1894   20.4097 N   0  0  0  0  0  0
  -31.7989  -14.7133   20.0700 O   0  0  0  0  0  0
  -21.6646   -6.8882   21.4240 O   0  0  0  0  0  0
  -22.3539  -14.5534   20.6664 O   0  0  0  0  0  0
  -24.6186  -31.8656   23.2075 C   0  0  0  0  0  0
  -25.9062  -32.4805   23.8378 C   0  0  1  0  0  0
  -27.2237  -27.3879   20.1044 C   0  0  0  0  0  0
  -25.5900  -33.8600   24.2310 N   0  0  0  0  0  0
  -23.4075  -30.4913   21.5501 C   0  0  2  0  0  0
  -24.8510  -28.9540   20.1126 C   0  0  0  0  0  0
  -22.7431  -29.4660   22.4979 C   0  0  0  0  0  0
  -18.0275  -28.1382   22.8485 C   0  0  0  0  0  0
  -24.1485  -36.7313   23.2638 C   0  0  0  0  0  0
  -25.9412  -30.8181   21.3657 C   0  0  0  0  0  0
  -26.0162  -29.4498   20.7109 C   0  0  0  0  0  0
  -27.2051  -28.6761   20.7008 C   0  0  0  0  0  0
  -26.0371  -26.9265   19.4864 C   0  0  0  0  0  0
  -24.8592  -27.6944   19.4942 C   0  0  0  0  0  0
  -23.6164  -29.8269   20.1637 C   0  0  0  0  0  0
  -25.4104  -36.3097   24.0334 C   0  0  1  0  0  0
  -20.5869  -28.3668   23.1309 C   0  0  2  0  0  0
  -20.6768  -26.9402   22.5417 C   0  0  0  0  0  0
  -19.5750  -26.6382   21.5216 C   0  0  0  0  0  0
  -18.1925  -26.7924   22.1623 C   0  0  0  0  0  0
  -19.1523  -28.8844   23.2891 C   0  0  0  0  0  0
  -18.9453  -30.1451   23.8898 C   0  0  0  0  0  0
  -17.6455  -30.6589   24.0567 C   0  0  0  0  0  0
  -25.9038  -34.9464   23.5122 C   0  0  0  0  0  0
  -16.5347  -29.9094   23.6325 C   0  0  0  0  0  0
  -16.7263  -28.6515   23.0339 C   0  0  0  0  0  0
  -26.4463  -31.6592   25.0723 C   0  0  0  0  0  0
  -25.3713  -31.3722   26.1466 C   0  0  0  0  0  0
  -27.0293  -30.3029   24.6112 C   0  0  0  0  0  0
  -27.6029  -32.4310   25.7498 C   0  0  0  0  0  0
  -27.5577  -37.1815   24.8461 C   0  0  0  0  0  0
  -21.4158  -29.3031   22.3712 N   0  0  0  0  0  0
  -26.4286  -37.3789   23.9408 N   0  0  0  0  0  0
  -24.6747  -31.0732   22.0989 N   0  0  0  0  0  0
  -23.4198  -28.8199   23.3026 O   0  0  0  0  0  0
  -28.3675  -26.5990   20.1469 O   0  0  0  0  0  0
  -26.5607  -34.8922   22.4688 O   0  0  0  0  0  0
  -23.5370  -32.1412   23.7462 O   0  0  0  0  0  0
  -28.7613  -19.0352   18.7366 C   0  0  0  0  0  0
  -29.2127  -16.6464   18.8663 C   0  0  0  0  0  0
  -29.6065  -18.0684   20.8082 C   0  0  0  0  0  0
  -28.7580  -17.7592   18.1316 C   0  0  0  0  0  0
  -29.1881  -19.2268   20.0735 C   0  0  0  0  0  0
  -29.6282  -16.7710   20.2116 C   0  0  0  0  0  0
  -28.6029  -22.2791   22.0058 C   0  0  0  0  0  0
  -29.0872  -22.8290   20.8909 C   0  0  0  0  0  0
  -28.5958  -20.8417   21.8637 C   0  0  0  0  0  0
  -29.4413  -21.7289   20.0053 C   0  0  0  0  0  0
  -28.2355  -17.5621   16.7596 C   0  0  0  0  0  0
  -26.3897  -18.9411   14.2378 C   0  0  0  0  0  0
  -29.3700  -24.3293   20.6405 C   0  0  0  0  0  0
  -28.1785  -25.1579   20.0835 C   0  0  0  0  0  0
  -27.6551  -18.4599   16.0726 N   0  0  0  0  0  0
  -29.1150  -20.5677   20.6457 N   0  0  0  0  0  0
  -29.9206  -15.5782   20.9665 N   0  0  0  0  0  0
  -28.1878  -20.0201   22.6929 O   0  0  0  0  0  0
  -29.9638  -21.8247   18.8882 O   0  0  0  0  0  0
  -27.2231  -17.9590   14.8388 O   0  0  0  0  0  0
  -31.4740  -12.4163   19.1604 H   0  0  0  0  0  0
  -30.3218  -11.3209   19.8631 H   0  0  0  0  0  0
  -29.7577  -11.7696   17.4550 H   0  0  0  0  0  0
  -29.6796  -13.4821   17.7693 H   0  0  0  0  0  0
  -27.8312  -11.3132   18.8182 H   0  0  0  0  0  0
  -27.3828  -12.6412   17.7819 H   0  0  0  0  0  0
  -27.6888  -14.2546   19.5637 H   0  0  0  0  0  0
  -28.6814  -11.9938   21.3676 H   0  0  0  0  0  0
  -28.4585  -13.6459   21.8633 H   0  0  0  0  0  0
  -25.2761   -9.5703   22.4739 H   0  0  0  0  0  0
  -24.0018   -7.4639   22.7470 H   0  0  0  0  0  0
  -21.0839   -8.8762   19.8953 H   0  0  0  0  0  0
  -22.3682  -10.9667   19.6145 H   0  0  0  0  0  0
  -21.2012   -7.6147   23.9722 H   0  0  0  0  0  0
  -21.1474   -6.0511   25.9076 H   0  0  0  0  0  0
  -22.0605   -2.7608   23.2836 H   0  0  0  0  0  0
  -22.4107  -11.9900   22.4788 H   0  0  0  0  0  0
  -21.1116  -13.1261   22.2570 H   0  0  0  0  0  0
  -24.6661  -15.8463   20.5244 H   0  0  0  0  0  0
  -26.2963  -15.6327   20.1294 H   0  0  0  0  0  0
  -26.7133  -32.5501   23.1139 H   0  0  0  0  0  0
  -25.0020  -33.9745   25.0434 H   0  0  0  0  0  0
  -22.6974  -31.3094   21.4127 H   0  0  0  0  0  0
  -23.3737  -35.9657   23.3305 H   0  0  0  0  0  0
  -24.3579  -36.8925   22.2051 H   0  0  0  0  0  0
  -23.7250  -37.6525   23.6651 H   0  0  0  0  0  0
  -26.0568  -31.5819   20.5959 H   0  0  0  0  0  0
  -26.8282  -30.8713   21.9853 H   0  0  0  0  0  0
  -28.1003  -29.0514   21.1765 H   0  0  0  0  0  0
  -25.9978  -25.9654   18.9959 H   0  0  0  0  0  0
  -23.9648  -27.3090   19.0237 H   0  0  0  0  0  0
  -23.7285  -30.6029   19.4054 H   0  0  0  0  0  0
  -22.7366  -29.2524   19.8672 H   0  0  0  0  0  0
  -25.1283  -36.1954   25.0828 H   0  0  0  0  0  0
  -20.9963  -28.3238   24.1430 H   0  0  0  0  0  0
  -20.5678  -26.2281   23.3605 H   0  0  0  0  0  0
  -21.6640  -26.7448   22.1208 H   0  0  0  0  0  0
  -19.6912  -25.6297   21.1237 H   0  0  0  0  0  0
  -19.6690  -27.3196   20.6749 H   0  0  0  0  0  0
  -17.4199  -26.6664   21.4023 H   0  0  0  0  0  0
  -18.0328  -26.0069   22.9022 H   0  0  0  0  0  0
  -19.7932  -30.7267   24.2266 H   0  0  0  0  0  0
  -17.5015  -31.6267   24.5170 H   0  0  0  0  0  0
  -15.5348  -30.3001   23.7654 H   0  0  0  0  0  0
  -15.8661  -28.0852   22.7032 H   0  0  0  0  0  0
  -24.5872  -30.7082   25.7809 H   0  0  0  0  0  0
  -24.8916  -32.2889   26.4904 H   0  0  0  0  0  0
  -25.8051  -30.8894   27.0232 H   0  0  0  0  0  0
  -26.2855  -29.6812   24.1115 H   0  0  0  0  0  0
  -27.4002  -29.7240   25.4581 H   0  0  0  0  0  0
  -27.8712  -30.4346   23.9311 H   0  0  0  0  0  0
  -27.2636  -33.3596   26.2102 H   0  0  0  0  0  0
  -28.3833  -32.6894   25.0329 H   0  0  0  0  0  0
  -28.0696  -31.8412   26.5398 H   0  0  0  0  0  0
  -28.2597  -38.0109   24.7500 H   0  0  0  0  0  0
  -28.1070  -36.2642   24.6292 H   0  0  0  0  0  0
  -27.2299  -37.1469   25.8865 H   0  0  0  0  0  0
  -20.9322  -29.8769   21.6942 H   0  0  0  0  0  0
  -26.0171  -38.2866   24.1407 H   0  0  0  0  0  0
  -28.3978  -19.8776   18.1644 H   0  0  0  0  0  0
  -29.1863  -15.6741   18.3967 H   0  0  0  0  0  0
  -29.8991  -18.1680   21.8442 H   0  0  0  0  0  0
  -28.2888  -22.8107   22.8901 H   0  0  0  0  0  0
  -28.3555  -16.5545   16.3485 H   0  0  0  0  0  0
  -26.0237  -18.5779   13.2766 H   0  0  0  0  0  0
  -26.9275  -19.8729   14.0559 H   0  0  0  0  0  0
  -25.5191  -19.1644   14.8576 H   0  0  0  0  0  0
  -30.2342  -24.4329   19.9835 H   0  0  0  0  0  0
  -29.6689  -24.7587   21.5976 H   0  0  0  0  0  0
  -27.2903  -24.8824   20.6555 H   0  0  0  0  0  0
  -27.9989  -24.8622   19.0488 H   0  0  0  0  0  0
  -29.1748  -15.2963   21.5858 H   0  0  0  0  0  0
  1 25  1  0  0  0
  1 30  2  0  0  0
  1 87  1  0  0  0
  2  3  1  0  0  0
  2 25  1  0  0  0
  2 91  1  0  0  0
  2 92  1  0  0  0
  3  4  1  0  0  0
  3 93  1  0  0  0
  3 94  1  0  0  0
  4  5  1  0  0  0
  4 95  1  0  0  0
  4 96  1  0  0  0
  5  6  1  0  0  0
  5 26  1  0  0  0
  5 97  1  0  0  0
  6 25  1  0  0  0
  6 98  1  0  0  0
  6 99  1  0  0  0
  7  8  2  0  0  0
  7 26  1  0  0  0
  7 29  1  0  0  0
  8  9  1  0  0  0
  8 22  1  0  0  0
  9 10  1  0  0  0
  9 27  2  0  0  0
 10 11  2  0  0  0
 10 15  1  0  0  0
 11 12  1  0  0  0
 11100  1  0  0  0
 12 13  2  0  0  0
 12101  1  0  0  0
 13 14  1  0  0  0
 13 31  1  0  0  0
 14 15  2  0  0  0
 14102  1  0  0  0
 15103  1  0  0  0
 16 17  2  0  0  0
 16 21  1  0  0  0
 16 31  1  0  0  0
 17 18  1  0  0  0
 17104  1  0  0  0
 18 19  2  0  0  0
 18105  1  0  0  0
 19 20  1  0  0  0
 19 24  1  0  0  0
 20 21  2  0  0  0
 20106  1  0  0  0
 21 23  1  0  0  0
 22 28  1  0  0  0
 22 32  2  0  0  0
 26 27  1  0  0  0
 28107  1  0  0  0
 28108  1  0  0  0
 29109  1  0  0  0
 29110  1  0  0  0
 33 34  1  0  0  0
 33 66  1  0  0  0
 33 70  2  0  0  0
 34 36  1  0  0  0
 34 59  1  0  0  0
 34111  1  0  0  0
 35 44  2  0  0  0
 35 45  1  0  0  0
 35 68  1  0  0  0
 36 56  1  0  0  0
 36112  1  0  0  0
 37 39  1  0  0  0
 37 47  1  0  0  0
 37 66  1  0  0  0
 37113  1  0  0  0
 38 43  2  0  0  0
 38 46  1  0  0  0
 38 47  1  0  0  0
 39 64  1  0  0  0
 39 67  2  0  0  0
 40 52  1  0  0  0
 40 53  2  0  0  0
 40 58  1  0  0  0
 41114  1  0  0  0
 41115  1  0  0  0
 41116  1  0  0  0
 41 48  1  0  0  0
 42 43  1  0  0  0
 42 66  1  0  0  0
 42117  1  0  0  0
 42118  1  0  0  0
 43 44  1  0  0  0
 44119  1  0  0  0
 45 46  2  0  0  0
 45120  1  0  0  0
 46121  1  0  0  0
 47122  1  0  0  0
 47123  1  0  0  0
 48 56  1  0  0  0
 48 65  1  0  0  0
 48124  1  0  0  0
 49 50  1  0  0  0
 49 53  1  0  0  0
 49 64  1  0  0  0
 49125  1  0  0  0
 50 51  1  0  0  0
 50126  1  0  0  0
 50127  1  0  0  0
 51 52  1  0  0  0
 51128  1  0  0  0
 51129  1  0  0  0
 52130  1  0  0  0
 52131  1  0  0  0
 53 54  1  0  0  0
 54 55  2  0  0  0
 54132  1  0  0  0
 55 57  1  0  0  0
 55133  1  0  0  0
 56 69  2  0  0  0
 57 58  2  0  0  0
 57134  1  0  0  0
 58135  1  0  0  0
 59 60  1  0  0  0
 59 61  1  0  0  0
 59 62  1  0  0  0
 60136  1  0  0  0
 60137  1  0  0  0
 60138  1  0  0  0
 61139  1  0  0  0
 61140  1  0  0  0
 61141  1  0  0  0
 62142  1  0  0  0
 62143  1  0  0  0
 62144  1  0  0  0
 63 65  1  0  0  0
 63145  1  0  0  0
 63146  1  0  0  0
 63147  1  0  0  0
 64148  1  0  0  0
 65149  1  0  0  0
 68 84  1  0  0  0
 71 74  2  0  0  0
 71 75  1  0  0  0
 71150  1  0  0  0
 72 74  1  0  0  0
 72 76  2  0  0  0
 72151  1  0  0  0
 73 75  2  0  0  0
 73 76  1  0  0  0
 73152  1  0  0  0
 74 81  1  0  0  0
 75 86  1  0  0  0
 76 87  1  0  0  0
 77 78  2  0  0  0
 77 79  1  0  0  0
 77153  1  0  0  0
 78 80  1  0  0  0
 78 83  1  0  0  0
 79 86  1  0  0  0
 79 88  2  0  0  0
 80 86  1  0  0  0
 80 89  2  0  0  0
 81 85  2  0  0  0
 81154  1  0  0  0
 82 90  1  0  0  0
 82155  1  0  0  0
 82156  1  0  0  0
 82157  1  0  0  0
 83 84  1  0  0  0
 83158  1  0  0  0
 83159  1  0  0  0
 84160  1  0  0  0
 84161  1  0  0  0
 85 90  1  0  0  0
 87162  1  0  0  0
M  ISO  4   1 100  68 101  84 101  87 100
M  END
> <chiral flag>
0

> <version>
0

> <s_m_source_file>
/data/baiqing/PycharmProjects/Reinvent-master-3.2/result/LINK_invent/BTK/process_docking_weight1_custom_product_contain_oxygen_bond_distance_aromatic_linkinvent_7_9_3/rearranged_h_0063.sdf

> <i_m_source_file_index>
1

> <r_mmod_Potential_Energy-OPLS-2005>
54.0364189147949

> <r_mmod_Stretch_Energy-OPLS-2005>
54.1233177185059

> <r_mmod_Bend_Energy-OPLS-2005>
144.125991821289

> <r_mmod_Torsional_Energy-OPLS-2005>
282.952056884766

> <r_mmod_Improper_Torsional_Energy-OPLS-2005>
7.0893931388855

> <r_mmod_Van_der_Waal_Energy-OPLS-2005>
148.654037475586

> <r_mmod_Electrostatic_Energy-OPLS-2005>
-342.929809570312

> <r_mmod_Solvation_Energy-OPLS-2005>
-262.95947265625

> <b_mmod_Minimization_Converged-OPLS-2005>
0

> <r_mmod_RMS_Derivative-OPLS-2005>
1.47584104537964

$$$$
1
                    3D
 Structure written by MMmdl.
155163  0  0  1  0            999 V2000
  -30.6160  -14.6650   20.4779 C   0  0  0  0  0  0
  -30.4434  -12.4040   19.4543 C   0  0  0  0  0  0
  -29.5103  -12.4971   18.2259 C   0  0  0  0  0  0
  -28.0354  -12.3295   18.6410 C   0  0  0  0  0  0
  -27.6520  -13.2137   19.8564 C   0  0  2  0  0  0
  -28.6986  -13.0879   20.9877 C   0  0  0  0  0  0
  -25.2558  -13.8154   20.5658 C   0  0  0  0  0  0
  -24.1834  -13.0431   20.9214 C   0  0  0  0  0  0
  -24.6396  -11.6904   20.8752 C   0  0  0  0  0  0
  -23.9064  -10.4291   21.0416 C   0  0  0  0  0  0
  -24.3620   -9.4200   21.9180 C   0  0  0  0  0  0
  -23.6291   -8.2237   22.0753 C   0  0  0  0  0  0
  -22.4273   -8.0282   21.3545 C   0  0  0  0  0  0
  -21.9909   -9.0261   20.4650 C   0  0  0  0  0  0
  -22.7243  -10.2132   20.3061 C   0  0  0  0  0  0
  -21.6852   -6.0732   22.5279 C   0  0  0  0  0  0
  -21.4016   -6.5634   23.8213 C   0  0  0  0  0  0
  -21.3656   -5.6785   24.9173 C   0  0  0  0  0  0
  -21.6041   -4.3049   24.7223 C   0  0  0  0  0  0
  -21.8819   -3.8146   23.4342 C   0  0  0  0  0  0
  -21.9197   -4.6963   22.3398 C   0  0  0  0  0  0
  -22.7854  -13.5229   21.1866 C   0  0  0  0  0  0
  -22.1664   -4.2156   21.0972 F   0  0  0  0  0  0
  -21.5627   -3.4530   25.7732 F   0  0  0  0  0  0
  -30.0130  -13.4334   20.4213 N   0  0  0  0  0  0
  -26.2982  -12.9332   20.3285 N   0  0  0  0  0  0
  -25.9320  -11.6496   20.5746 N   0  0  0  0  0  0
  -22.0496  -12.8230   22.0425 N   0  0  0  0  0  0
  -25.4241  -15.1870   20.3985 N   0  0  0  0  0  0
  -31.7878  -14.8207   20.1220 O   0  0  0  0  0  0
  -21.6638   -6.8878   21.4242 O   0  0  0  0  0  0
  -22.3544  -14.5537   20.6709 O   0  0  0  0  0  0
  -24.6252  -31.8595   23.2024 C   0  0  0  0  0  0
  -25.9097  -32.4780   23.8347 C   0  0  1  0  0  0
  -27.2327  -27.3240   20.1250 C   0  0  0  0  0  0
  -25.5919  -33.8581   24.2284 N   0  0  0  0  0  0
  -23.4197  -30.4819   21.5453 C   0  0  2  0  0  0
  -24.8681  -28.9327   20.1167 C   0  0  0  0  0  0
  -22.7470  -29.4618   22.4951 C   0  0  0  0  0  0
  -18.0284  -28.1397   22.8492 C   0  0  0  0  0  0
  -24.1490  -36.7289   23.2645 C   0  0  0  0  0  0
  -25.9584  -30.7932   21.3714 C   0  0  0  0  0  0
  -26.0354  -29.4175   20.7200 C   0  0  0  0  0  0
  -27.2208  -28.6259   20.7125 C   0  0  0  0  0  0
  -26.0456  -26.8899   19.4947 C   0  0  0  0  0  0
  -24.8746  -27.6734   19.4958 C   0  0  0  0  0  0
  -23.6357  -29.8132   20.1620 C   0  0  0  0  0  0
  -25.4122  -36.3088   24.0332 C   0  0  1  0  0  0
  -20.5886  -28.3688   23.1296 C   0  0  2  0  0  0
  -20.6773  -26.9414   22.5421 C   0  0  0  0  0  0
  -19.5748  -26.6398   21.5220 C   0  0  0  0  0  0
  -18.1925  -26.7938   22.1629 C   0  0  0  0  0  0
  -19.1538  -28.8862   23.2891 C   0  0  0  0  0  0
  -18.9461  -30.1466   23.8900 C   0  0  0  0  0  0
  -17.6458  -30.6592   24.0574 C   0  0  0  0  0  0
  -25.9043  -34.9452   23.5102 C   0  0  0  0  0  0
  -16.5350  -29.9090   23.6334 C   0  0  0  0  0  0
  -16.7269  -28.6516   23.0341 C   0  0  0  0  0  0
  -26.4496  -31.6586   25.0710 C   0  0  0  0  0  0
  -25.3733  -31.3738   26.1447 C   0  0  0  0  0  0
  -27.0329  -30.3009   24.6148 C   0  0  0  0  0  0
  -27.6074  -32.4312   25.7466 C   0  0  0  0  0  0
  -27.5571  -37.1825   24.8488 C   0  0  0  0  0  0
  -21.4187  -29.3036   22.3683 N   0  0  0  0  0  0
  -26.4312  -37.3765   23.9384 N   0  0  0  0  0  0
  -24.6865  -31.0617   22.0969 N   0  0  0  0  0  0
  -23.4198  -28.8159   23.3025 O   0  0  0  0  0  0
  -28.3632  -26.4948   20.1326 O   0  0  0  0  0  0
  -26.5610  -34.8910   22.4670 O   0  0  0  0  0  0
  -23.5416  -32.1385   23.7351 O   0  0  0  0  0  0
  -31.0716  -19.3375   20.3299 C   0  0  0  0  0  0
  -31.0802  -17.9204   20.5199 C   0  0  0  0  0  0
  -28.6875  -17.9261   20.3726 C   0  0  0  0  0  0
  -29.8803  -20.1019   20.1286 C   0  0  0  0  0  0
  -28.6692  -19.3430   20.1503 C   0  0  0  0  0  0
  -29.8801  -17.1660   20.5414 C   0  0  0  0  0  0
  -29.9918  -21.5926   19.7907 C   0  0  0  0  0  0
  -29.2483  -24.0730   19.8990 C   0  0  0  0  0  0
  -27.3208  -20.0015   19.8934 C   0  0  0  0  0  0
  -28.1931  -25.0696   20.5207 C   0  0  0  0  0  0
  -29.7831  -15.7180   20.7636 N   0  0  0  0  0  0
  -29.1867  -22.6243   20.2460 N   0  0  0  0  0  0
  -30.9842  -21.8921   18.9449 N   0  3  0  0  0  0
  -30.1127  -24.4993   19.1208 O   0  0  0  0  0  0
  -31.4830  -12.5348   19.1490 H   0  0  0  0  0  0
  -30.3863  -11.4139   19.9090 H   0  0  0  0  0  0
  -29.7796  -11.7372   17.4910 H   0  0  0  0  0  0
  -29.6447  -13.4605   17.7321 H   0  0  0  0  0  0
  -27.8846  -11.2784   18.8910 H   0  0  0  0  0  0
  -27.3775  -12.5372   17.7967 H   0  0  0  0  0  0
  -27.6639  -14.2433   19.4990 H   0  0  0  0  0  0
  -28.7154  -12.0710   21.3830 H   0  0  0  0  0  0
  -28.4406  -13.7293   21.8317 H   0  0  0  0  0  0
  -25.2769   -9.5667   22.4746 H   0  0  0  0  0  0
  -24.0008   -7.4621   22.7461 H   0  0  0  0  0  0
  -21.0845   -8.8781   19.8949 H   0  0  0  0  0  0
  -22.3710  -10.9673   19.6169 H   0  0  0  0  0  0
  -21.2008   -7.6143   23.9717 H   0  0  0  0  0  0
  -21.1472   -6.0512   25.9073 H   0  0  0  0  0  0
  -22.0603   -2.7612   23.2839 H   0  0  0  0  0  0
  -22.4113  -11.9891   22.4819 H   0  0  0  0  0  0
  -21.1113  -13.1254   22.2624 H   0  0  0  0  0  0
  -24.6382  -15.8247   20.4694 H   0  0  0  0  0  0
  -26.2286  -15.6022   19.9503 H   0  0  0  0  0  0
  -26.7161  -32.5472   23.1093 H   0  0  0  0  0  0
  -25.0083  -33.9729   25.0440 H   0  0  0  0  0  0
  -22.7135  -31.3025   21.4022 H   0  0  0  0  0  0
  -23.3720  -35.9664   23.3406 H   0  0  0  0  0  0
  -24.3553  -36.8800   22.2039 H   0  0  0  0  0  0
  -23.7294  -37.6546   23.6591 H   0  0  0  0  0  0
  -26.0840  -31.5545   20.6001 H   0  0  0  0  0  0
  -26.8396  -30.8473   21.9983 H   0  0  0  0  0  0
  -28.1179  -28.9974   21.1871 H   0  0  0  0  0  0
  -26.0124  -25.9357   18.9891 H   0  0  0  0  0  0
  -23.9814  -27.3006   19.0127 H   0  0  0  0  0  0
  -23.7551  -30.5876   19.4035 H   0  0  0  0  0  0
  -22.7554  -29.2422   19.8631 H   0  0  0  0  0  0
  -25.1310  -36.1959   25.0829 H   0  0  0  0  0  0
  -20.9976  -28.3258   24.1418 H   0  0  0  0  0  0
  -20.5671  -26.2292   23.3612 H   0  0  0  0  0  0
  -21.6643  -26.7448   22.1218 H   0  0  0  0  0  0
  -19.6904  -25.6312   21.1245 H   0  0  0  0  0  0
  -19.6684  -27.3208   20.6750 H   0  0  0  0  0  0
  -17.4197  -26.6691   21.4029 H   0  0  0  0  0  0
  -18.0317  -26.0082   22.9025 H   0  0  0  0  0  0
  -19.7934  -30.7296   24.2256 H   0  0  0  0  0  0
  -17.5009  -31.6265   24.5189 H   0  0  0  0  0  0
  -15.5347  -30.2991   23.7666 H   0  0  0  0  0  0
  -15.8671  -28.0844   22.7039 H   0  0  0  0  0  0
  -24.5903  -30.7085   25.7794 H   0  0  0  0  0  0
  -24.8922  -32.2907   26.4862 H   0  0  0  0  0  0
  -25.8056  -30.8935   27.0228 H   0  0  0  0  0  0
  -26.2886  -29.6761   24.1194 H   0  0  0  0  0  0
  -27.4066  -29.7276   25.4640 H   0  0  0  0  0  0
  -27.8737  -30.4315   23.9329 H   0  0  0  0  0  0
  -27.2710  -33.3621   26.2043 H   0  0  0  0  0  0
  -28.3870  -32.6853   25.0270 H   0  0  0  0  0  0
  -28.0740  -31.8425   26.5375 H   0  0  0  0  0  0
  -28.2689  -38.0019   24.7402 H   0  0  0  0  0  0
  -28.0957  -36.2553   24.6484 H   0  0  0  0  0  0
  -27.2265  -37.1700   25.8887 H   0  0  0  0  0  0
  -20.9359  -29.8751   21.6893 H   0  0  0  0  0  0
  -26.0203  -38.2863   24.1296 H   0  0  0  0  0  0
  -32.0278  -19.8423   20.3196 H   0  0  0  0  0  0
  -32.0293  -17.4210   20.6534 H   0  0  0  0  0  0
  -27.7443  -17.3988   20.3863 H   0  0  0  0  0  0
  -26.5516  -19.2614   19.6692 H   0  0  0  0  0  0
  -27.3652  -20.6777   19.0386 H   0  0  0  0  0  0
  -26.9906  -20.5610   20.7688 H   0  0  0  0  0  0
  -28.2863  -25.0125   21.6055 H   0  0  0  0  0  0
  -27.2039  -24.6811   20.2855 H   0  0  0  0  0  0
  -28.8614  -15.4035   21.0210 H   0  0  0  0  0  0
  -28.5033  -22.2944   20.9088 H   0  0  0  0  0  0
  -31.5525  -21.1663   18.5387 H   0  0  0  0  0  0
  -31.1072  -22.8572   18.6594 H   0  0  0  0  0  0
  1 25  1  0  0  0
  1 30  2  0  0  0
  1 81  1  0  0  0
  2  3  1  0  0  0
  2 25  1  0  0  0
  2 85  1  0  0  0
  2 86  1  0  0  0
  3  4  1  0  0  0
  3 87  1  0  0  0
  3 88  1  0  0  0
  4  5  1  0  0  0
  4 89  1  0  0  0
  4 90  1  0  0  0
  5  6  1  0  0  0
  5 26  1  0  0  0
  5 91  1  0  0  0
  6 25  1  0  0  0
  6 92  1  0  0  0
  6 93  1  0  0  0
  7  8  2  0  0  0
  7 26  1  0  0  0
  7 29  1  0  0  0
  8  9  1  0  0  0
  8 22  1  0  0  0
  9 10  1  0  0  0
  9 27  2  0  0  0
 10 11  2  0  0  0
 10 15  1  0  0  0
 11 12  1  0  0  0
 11 94  1  0  0  0
 12 13  2  0  0  0
 12 95  1  0  0  0
 13 14  1  0  0  0
 13 31  1  0  0  0
 14 15  2  0  0  0
 14 96  1  0  0  0
 15 97  1  0  0  0
 16 17  2  0  0  0
 16 21  1  0  0  0
 16 31  1  0  0  0
 17 18  1  0  0  0
 17 98  1  0  0  0
 18 19  2  0  0  0
 18 99  1  0  0  0
 19 20  1  0  0  0
 19 24  1  0  0  0
 20 21  2  0  0  0
 20100  1  0  0  0
 21 23  1  0  0  0
 22 28  1  0  0  0
 22 32  2  0  0  0
 26 27  1  0  0  0
 28101  1  0  0  0
 28102  1  0  0  0
 29103  1  0  0  0
 29104  1  0  0  0
 33 34  1  0  0  0
 33 66  1  0  0  0
 33 70  2  0  0  0
 34 36  1  0  0  0
 34 59  1  0  0  0
 34105  1  0  0  0
 35 44  2  0  0  0
 35 45  1  0  0  0
 35 68  1  0  0  0
 36 56  1  0  0  0
 36106  1  0  0  0
 37 39  1  0  0  0
 37 47  1  0  0  0
 37 66  1  0  0  0
 37107  1  0  0  0
 38 43  2  0  0  0
 38 46  1  0  0  0
 38 47  1  0  0  0
 39 64  1  0  0  0
 39 67  2  0  0  0
 40 52  1  0  0  0
 40 53  2  0  0  0
 40 58  1  0  0  0
 41108  1  0  0  0
 41109  1  0  0  0
 41110  1  0  0  0
 41 48  1  0  0  0
 42 43  1  0  0  0
 42 66  1  0  0  0
 42111  1  0  0  0
 42112  1  0  0  0
 43 44  1  0  0  0
 44113  1  0  0  0
 45 46  2  0  0  0
 45114  1  0  0  0
 46115  1  0  0  0
 47116  1  0  0  0
 47117  1  0  0  0
 48 56  1  0  0  0
 48 65  1  0  0  0
 48118  1  0  0  0
 49 50  1  0  0  0
 49 53  1  0  0  0
 49 64  1  0  0  0
 49119  1  0  0  0
 50 51  1  0  0  0
 50120  1  0  0  0
 50121  1  0  0  0
 51 52  1  0  0  0
 51122  1  0  0  0
 51123  1  0  0  0
 52124  1  0  0  0
 52125  1  0  0  0
 53 54  1  0  0  0
 54 55  2  0  0  0
 54126  1  0  0  0
 55 57  1  0  0  0
 55127  1  0  0  0
 56 69  2  0  0  0
 57 58  2  0  0  0
 57128  1  0  0  0
 58129  1  0  0  0
 59 60  1  0  0  0
 59 61  1  0  0  0
 59 62  1  0  0  0
 60130  1  0  0  0
 60131  1  0  0  0
 60132  1  0  0  0
 61133  1  0  0  0
 61134  1  0  0  0
 61135  1  0  0  0
 62136  1  0  0  0
 62137  1  0  0  0
 62138  1  0  0  0
 63 65  1  0  0  0
 63139  1  0  0  0
 63140  1  0  0  0
 63141  1  0  0  0
 64142  1  0  0  0
 65143  1  0  0  0
 68 80  1  0  0  0
 71 72  2  0  0  0
 71 74  1  0  0  0
 71144  1  0  0  0
 72 76  1  0  0  0
 72145  1  0  0  0
 73 75  1  0  0  0
 73 76  2  0  0  0
 73146  1  0  0  0
 74 75  2  0  0  0
 74 77  1  0  0  0
 75 79  1  0  0  0
 76 81  1  0  0  0
 77 82  1  0  0  0
 77 83  2  0  0  0
 78 80  1  0  0  0
 78 82  1  0  0  0
 78 84  2  0  0  0
 79147  1  0  0  0
 79148  1  0  0  0
 79149  1  0  0  0
 80150  1  0  0  0
 80151  1  0  0  0
 81152  1  0  0  0
 82153  1  0  0  0
 83154  1  0  0  0
 83155  1  0  0  0
M  CHG  1  83   1
M  ISO  4   1 100  68 101  80 101  81 100
M  END
> <chiral flag>
0

> <version>
0

> <s_m_source_file>
/data/baiqing/PycharmProjects/Reinvent-master-3.2/result/LINK_invent/BTK/process_docking_weight1_custom_product_contain_oxygen_bond_distance_aromatic_linkinvent_7_9_3/rearranged_h_0063.sdf

> <i_m_source_file_index>
2

> <r_mmod_Potential_Energy-OPLS-2005>
-167.755645751953

> <r_mmod_Stretch_Energy-OPLS-2005>
88.2246932983398

> <r_mmod_Bend_Energy-OPLS-2005>
145.65495300293

> <r_mmod_Torsional_Energy-OPLS-2005>
227.079010009766

> <r_mmod_Improper_Torsional_Energy-OPLS-2005>
5.98124170303345

> <r_mmod_Van_der_Waal_Energy-OPLS-2005>
154.946105957031

> <r_mmod_Electrostatic_Energy-OPLS-2005>
-390.169372558594

> <r_mmod_Solvation_Energy-OPLS-2005>
-450.176391601562

> <b_mmod_Minimization_Converged-OPLS-2005>
0

> <r_mmod_RMS_Derivative-OPLS-2005>
1.58949184417725

$$$$
2
                    3D
 Structure written by MMmdl.
157166  0  0  1  0            999 V2000
  -30.6188  -14.6589   20.4673 C   0  0  0  0  0  0
  -30.4423  -12.3995   19.4462 C   0  0  0  0  0  0
  -29.5067  -12.5020   18.2208 C   0  0  0  0  0  0
  -28.0303  -12.3335   18.6362 C   0  0  0  0  0  0
  -27.6495  -13.2067   19.8606 C   0  0  2  0  0  0
  -28.7021  -13.0870   20.9863 C   0  0  0  0  0  0
  -25.2514  -13.8052   20.5720 C   0  0  0  0  0  0
  -24.1789  -13.0343   20.9220 C   0  0  0  0  0  0
  -24.6376  -11.6832   20.8755 C   0  0  0  0  0  0
  -23.9046  -10.4238   21.0409 C   0  0  0  0  0  0
  -24.3598   -9.4165   21.9190 C   0  0  0  0  0  0
  -23.6274   -8.2206   22.0756 C   0  0  0  0  0  0
  -22.4258   -8.0252   21.3541 C   0  0  0  0  0  0
  -21.9890   -9.0224   20.4644 C   0  0  0  0  0  0
  -22.7221  -10.2098   20.3052 C   0  0  0  0  0  0
  -21.6843   -6.0720   22.5281 C   0  0  0  0  0  0
  -21.4004   -6.5627   23.8212 C   0  0  0  0  0  0
  -21.3656   -5.6785   24.9177 C   0  0  0  0  0  0
  -21.6045   -4.3047   24.7230 C   0  0  0  0  0  0
  -21.8821   -3.8137   23.4351 C   0  0  0  0  0  0
  -21.9190   -4.6951   22.3407 C   0  0  0  0  0  0
  -22.7820  -13.5168   21.1871 C   0  0  0  0  0  0
  -22.1662   -4.2141   21.0984 F   0  0  0  0  0  0
  -21.5632   -3.4531   25.7742 F   0  0  0  0  0  0
  -30.0138  -13.4293   20.4111 N   0  0  0  0  0  0
  -26.2967  -12.9260   20.3336 N   0  0  0  0  0  0
  -25.9308  -11.6423   20.5770 N   0  0  0  0  0  0
  -22.0446  -12.8185   22.0430 N   0  0  0  0  0  0
  -25.4108  -15.1748   20.4153 N   0  0  0  0  0  0
  -31.8028  -14.8107   20.1525 O   0  0  0  0  0  0
  -21.6618   -6.8857   21.4241 O   0  0  0  0  0  0
  -22.3527  -14.5486   20.6719 O   0  0  0  0  0  0
  -24.6252  -31.8607   23.2047 C   0  0  0  0  0  0
  -25.9110  -32.4779   23.8366 C   0  0  1  0  0  0
  -27.2306  -27.3292   20.1116 C   0  0  0  0  0  0
  -25.5932  -33.8579   24.2293 N   0  0  0  0  0  0
  -23.4182  -30.4854   21.5464 C   0  0  2  0  0  0
  -24.8664  -28.9444   20.1091 C   0  0  0  0  0  0
  -22.7467  -29.4630   22.4937 C   0  0  0  0  0  0
  -18.0280  -28.1385   22.8485 C   0  0  0  0  0  0
  -24.1491  -36.7292   23.2641 C   0  0  0  0  0  0
  -25.9592  -30.7926   21.3776 C   0  0  0  0  0  0
  -26.0331  -29.4215   20.7189 C   0  0  0  0  0  0
  -27.2142  -28.6231   20.7171 C   0  0  0  0  0  0
  -26.0439  -26.9155   19.4589 C   0  0  0  0  0  0
  -24.8733  -27.6956   19.4714 C   0  0  0  0  0  0
  -23.6330  -29.8218   20.1608 C   0  0  0  0  0  0
  -25.4113  -36.3082   24.0333 C   0  0  1  0  0  0
  -20.5880  -28.3692   23.1282 C   0  0  2  0  0  0
  -20.6771  -26.9417   22.5408 C   0  0  0  0  0  0
  -19.5749  -26.6387   21.5206 C   0  0  0  0  0  0
  -18.1927  -26.7928   22.1618 C   0  0  0  0  0  0
  -19.1533  -28.8853   23.2878 C   0  0  0  0  0  0
  -18.9458  -30.1455   23.8896 C   0  0  0  0  0  0
  -17.6460  -30.6590   24.0559 C   0  0  0  0  0  0
  -25.9049  -34.9450   23.5110 C   0  0  0  0  0  0
  -16.5349  -29.9090   23.6330 C   0  0  0  0  0  0
  -16.7268  -28.6503   23.0355 C   0  0  0  0  0  0
  -26.4499  -31.6585   25.0732 C   0  0  0  0  0  0
  -25.3736  -31.3718   26.1460 C   0  0  0  0  0  0
  -27.0346  -30.3007   24.6195 C   0  0  0  0  0  0
  -27.6061  -32.4318   25.7501 C   0  0  0  0  0  0
  -27.5577  -37.1801   24.8465 C   0  0  0  0  0  0
  -21.4183  -29.3045   22.3677 N   0  0  0  0  0  0
  -26.4290  -37.3776   23.9409 N   0  0  0  0  0  0
  -24.6859  -31.0627   22.0994 N   0  0  0  0  0  0
  -23.4194  -28.8170   23.3015 O   0  0  0  0  0  0
  -28.3559  -26.4892   20.1841 O   0  0  0  0  0  0
  -26.5613  -34.8916   22.4673 O   0  0  0  0  0  0
  -23.5419  -32.1404   23.7379 O   0  0  0  0  0  0
  -31.0017  -19.3431   21.0458 C   0  0  0  0  0  0
  -30.9806  -17.9136   21.0777 C   0  0  0  0  0  0
  -28.9070  -19.3653   19.8785 C   0  0  0  0  0  0
  -28.8928  -17.9406   19.8771 C   0  0  0  0  0  0
  -29.9564  -20.1166   20.4567 C   0  0  0  0  0  0
  -29.9164  -17.1676   20.5073 C   0  0  0  0  0  0
  -30.5628  -23.8568   20.2041 C   0  0  0  0  0  0
  -31.0301  -22.3821   20.2768 C   0  0  0  0  0  0
  -28.7078  -22.4300   20.3736 C   0  0  0  0  0  0
  -29.0976  -23.9433   20.5869 C   0  0  2  0  0  0
  -27.7364  -17.2799   19.1563 C   0  0  0  0  0  0
  -28.2054  -25.0488   19.8713 C   0  0  0  0  0  0
  -29.9416  -21.5905   20.4276 N   0  0  0  0  0  0
  -29.7682  -15.7170   20.6561 N   0  0  0  0  0  0
  -31.2738  -24.8260   19.9077 O   0  0  0  0  0  0
  -32.2154  -22.0292   20.1980 O   0  0  0  0  0  0
  -31.4817  -12.5303   19.1395 H   0  0  0  0  0  0
  -30.3839  -11.4077   19.8977 H   0  0  0  0  0  0
  -29.7743  -11.7488   17.4784 H   0  0  0  0  0  0
  -29.6417  -13.4696   17.7353 H   0  0  0  0  0  0
  -27.8727  -11.2805   18.8723 H   0  0  0  0  0  0
  -27.3738  -12.5563   17.7943 H   0  0  0  0  0  0
  -27.6532  -14.2337   19.5066 H   0  0  0  0  0  0
  -28.7218  -12.0730   21.3886 H   0  0  0  0  0  0
  -28.4513  -13.7373   21.8259 H   0  0  0  0  0  0
  -25.2741   -9.5645   22.4767 H   0  0  0  0  0  0
  -23.9983   -7.4593   22.7471 H   0  0  0  0  0  0
  -21.0823   -8.8744   19.8950 H   0  0  0  0  0  0
  -22.3685  -10.9639   19.6160 H   0  0  0  0  0  0
  -21.1989   -7.6135   23.9713 H   0  0  0  0  0  0
  -21.1480   -6.0514   25.9082 H   0  0  0  0  0  0
  -22.0605   -2.7601   23.2852 H   0  0  0  0  0  0
  -22.4038  -11.9837   22.4822 H   0  0  0  0  0  0
  -21.1073  -13.1238   22.2635 H   0  0  0  0  0  0
  -24.6324  -15.8167   20.5189 H   0  0  0  0  0  0
  -26.2474  -15.6181   20.0659 H   0  0  0  0  0  0
  -26.7178  -32.5454   23.1115 H   0  0  0  0  0  0
  -25.0087  -33.9724   25.0443 H   0  0  0  0  0  0
  -22.7110  -31.3054   21.4046 H   0  0  0  0  0  0
  -23.3749  -35.9630   23.3306 H   0  0  0  0  0  0
  -24.3585  -36.8907   22.2054 H   0  0  0  0  0  0
  -23.7250  -37.6500   23.6656 H   0  0  0  0  0  0
  -26.0924  -31.5574   20.6111 H   0  0  0  0  0  0
  -26.8388  -30.8388   22.0082 H   0  0  0  0  0  0
  -28.1050  -28.9825   21.2128 H   0  0  0  0  0  0
  -25.9867  -25.9756   18.9310 H   0  0  0  0  0  0
  -23.9828  -27.3287   18.9801 H   0  0  0  0  0  0
  -23.7495  -30.5989   19.4044 H   0  0  0  0  0  0
  -22.7540  -29.2495   19.8589 H   0  0  0  0  0  0
  -25.1293  -36.1934   25.0825 H   0  0  0  0  0  0
  -20.9967  -28.3267   24.1405 H   0  0  0  0  0  0
  -20.5673  -26.2303   23.3607 H   0  0  0  0  0  0
  -21.6641  -26.7452   22.1204 H   0  0  0  0  0  0
  -19.6916  -25.6296   21.1242 H   0  0  0  0  0  0
  -19.6689  -27.3190   20.6730 H   0  0  0  0  0  0
  -17.4200  -26.6673   21.4017 H   0  0  0  0  0  0
  -18.0331  -26.0071   22.9015 H   0  0  0  0  0  0
  -19.7936  -30.7263   24.2272 H   0  0  0  0  0  0
  -17.5019  -31.6271   24.5161 H   0  0  0  0  0  0
  -15.5350  -30.2991   23.7658 H   0  0  0  0  0  0
  -15.8665  -28.0820   22.7080 H   0  0  0  0  0  0
  -24.5913  -30.7065   25.7787 H   0  0  0  0  0  0
  -24.8925  -32.2882   26.4888 H   0  0  0  0  0  0
  -25.8066  -30.8893   27.0233 H   0  0  0  0  0  0
  -26.2923  -29.6749   24.1227 H   0  0  0  0  0  0
  -27.4043  -29.7271   25.4706 H   0  0  0  0  0  0
  -27.8794  -30.4283   23.9423 H   0  0  0  0  0  0
  -27.2676  -33.3618   26.2082 H   0  0  0  0  0  0
  -28.3870  -32.6880   25.0327 H   0  0  0  0  0  0
  -28.0735  -31.8444   26.5416 H   0  0  0  0  0  0
  -28.2595  -38.0098   24.7507 H   0  0  0  0  0  0
  -28.1070  -36.2626   24.6291 H   0  0  0  0  0  0
  -27.2296  -37.1458   25.8870 H   0  0  0  0  0  0
  -20.9363  -29.8766   21.6884 H   0  0  0  0  0  0
  -26.0170  -38.2853   24.1401 H   0  0  0  0  0  0
  -31.8361  -19.8440   21.5161 H   0  0  0  0  0  0
  -31.7841  -17.3930   21.5800 H   0  0  0  0  0  0
  -28.0921  -19.8895   19.3989 H   0  0  0  0  0  0
  -28.2263  -22.2960   19.4039 H   0  0  0  0  0  0
  -27.9994  -22.1041   21.1358 H   0  0  0  0  0  0
  -29.0779  -24.1428   21.6583 H   0  0  0  0  0  0
  -27.4341  -17.8748   18.2938 H   0  0  0  0  0  0
  -26.8830  -17.2171   19.8260 H   0  0  0  0  0  0
  -27.9946  -16.2931   18.7774 H   0  0  0  0  0  0
  -27.1945  -24.7387   20.1320 H   0  0  0  0  0  0
  -28.2884  -24.9319   18.7902 H   0  0  0  0  0  0
  -28.8163  -15.4112   20.7810 H   0  0  0  0  0  0
  1 25  1  0  0  0
  1 30  2  0  0  0
  1 84  1  0  0  0
  2  3  1  0  0  0
  2 25  1  0  0  0
  2 87  1  0  0  0
  2 88  1  0  0  0
  3  4  1  0  0  0
  3 89  1  0  0  0
  3 90  1  0  0  0
  4  5  1  0  0  0
  4 91  1  0  0  0
  4 92  1  0  0  0
  5  6  1  0  0  0
  5 26  1  0  0  0
  5 93  1  0  0  0
  6 25  1  0  0  0
  6 94  1  0  0  0
  6 95  1  0  0  0
  7  8  2  0  0  0
  7 26  1  0  0  0
  7 29  1  0  0  0
  8  9  1  0  0  0
  8 22  1  0  0  0
  9 10  1  0  0  0
  9 27  2  0  0  0
 10 11  2  0  0  0
 10 15  1  0  0  0
 11 12  1  0  0  0
 11 96  1  0  0  0
 12 13  2  0  0  0
 12 97  1  0  0  0
 13 14  1  0  0  0
 13 31  1  0  0  0
 14 15  2  0  0  0
 14 98  1  0  0  0
 15 99  1  0  0  0
 16 17  2  0  0  0
 16 21  1  0  0  0
 16 31  1  0  0  0
 17 18  1  0  0  0
 17100  1  0  0  0
 18 19  2  0  0  0
 18101  1  0  0  0
 19 20  1  0  0  0
 19 24  1  0  0  0
 20 21  2  0  0  0
 20102  1  0  0  0
 21 23  1  0  0  0
 22 28  1  0  0  0
 22 32  2  0  0  0
 26 27  1  0  0  0
 28103  1  0  0  0
 28104  1  0  0  0
 29105  1  0  0  0
 29106  1  0  0  0
 33 34  1  0  0  0
 33 66  1  0  0  0
 33 70  2  0  0  0
 34 36  1  0  0  0
 34 59  1  0  0  0
 34107  1  0  0  0
 35 44  2  0  0  0
 35 45  1  0  0  0
 35 68  1  0  0  0
 36 56  1  0  0  0
 36108  1  0  0  0
 37 39  1  0  0  0
 37 47  1  0  0  0
 37 66  1  0  0  0
 37109  1  0  0  0
 38 43  2  0  0  0
 38 46  1  0  0  0
 38 47  1  0  0  0
 39 64  1  0  0  0
 39 67  2  0  0  0
 40 52  1  0  0  0
 40 53  2  0  0  0
 40 58  1  0  0  0
 41110  1  0  0  0
 41111  1  0  0  0
 41112  1  0  0  0
 41 48  1  0  0  0
 42 43  1  0  0  0
 42 66  1  0  0  0
 42113  1  0  0  0
 42114  1  0  0  0
 43 44  1  0  0  0
 44115  1  0  0  0
 45 46  2  0  0  0
 45116  1  0  0  0
 46117  1  0  0  0
 47118  1  0  0  0
 47119  1  0  0  0
 48 56  1  0  0  0
 48 65  1  0  0  0
 48120  1  0  0  0
 49 50  1  0  0  0
 49 53  1  0  0  0
 49 64  1  0  0  0
 49121  1  0  0  0
 50 51  1  0  0  0
 50122  1  0  0  0
 50123  1  0  0  0
 51 52  1  0  0  0
 51124  1  0  0  0
 51125  1  0  0  0
 52126  1  0  0  0
 52127  1  0  0  0
 53 54  1  0  0  0
 54 55  2  0  0  0
 54128  1  0  0  0
 55 57  1  0  0  0
 55129  1  0  0  0
 56 69  2  0  0  0
 57 58  2  0  0  0
 57130  1  0  0  0
 58131  1  0  0  0
 59 60  1  0  0  0
 59 61  1  0  0  0
 59 62  1  0  0  0
 60132  1  0  0  0
 60133  1  0  0  0
 60134  1  0  0  0
 61135  1  0  0  0
 61136  1  0  0  0
 61137  1  0  0  0
 62138  1  0  0  0
 62139  1  0  0  0
 62140  1  0  0  0
 63 65  1  0  0  0
 63141  1  0  0  0
 63142  1  0  0  0
 63143  1  0  0  0
 64144  1  0  0  0
 65145  1  0  0  0
 68 82  1  0  0  0
 71 72  2  0  0  0
 71 75  1  0  0  0
 71146  1  0  0  0
 72 76  1  0  0  0
 72147  1  0  0  0
 73 74  1  0  0  0
 73 75  2  0  0  0
 73148  1  0  0  0
 74 76  2  0  0  0
 74 81  1  0  0  0
 75 83  1  0  0  0
 76 84  1  0  0  0
 77 78  1  0  0  0
 77 80  1  0  0  0
 77 85  2  0  0  0
 78 83  1  0  0  0
 78 86  2  0  0  0
 79 80  1  0  0  0
 79 83  1  0  0  0
 79149  1  0  0  0
 79150  1  0  0  0
 80 82  1  0  0  0
 80151  1  0  0  0
 81152  1  0  0  0
 81153  1  0  0  0
 81154  1  0  0  0
 82155  1  0  0  0
 82156  1  0  0  0
 84157  1  0  0  0
M  ISO  4   1 100  68 101  82 101  84 100
M  END
> <chiral flag>
0

> <version>
0

> <s_m_source_file>
/data/baiqing/PycharmProjects/Reinvent-master-3.2/result/LINK_invent/BTK/process_docking_weight1_custom_product_contain_oxygen_bond_distance_aromatic_linkinvent_7_9_3/rearranged_h_0063.sdf

> <i_m_source_file_index>
3

> <r_mmod_Potential_Energy-OPLS-2005>
135.495712280273

> <r_mmod_Stretch_Energy-OPLS-2005>
78.6934661865234

> <r_mmod_Bend_Energy-OPLS-2005>
167.434265136719

> <r_mmod_Torsional_Energy-OPLS-2005>
250.651580810547

> <r_mmod_Improper_Torsional_Energy-OPLS-2005>
6.51110172271729

> <r_mmod_Van_der_Waal_Energy-OPLS-2005>
142.892227172852

> <r_mmod_Electrostatic_Energy-OPLS-2005>
-306.746978759766

> <r_mmod_Solvation_Energy-OPLS-2005>
-256.087921142578

> <b_mmod_Minimization_Converged-OPLS-2005>
0

> <r_mmod_RMS_Derivative-OPLS-2005>
0.622379720211029

$$$$
3
                    3D
 Structure written by MMmdl.
159167  0  0  1  0            999 V2000
  -30.5757  -14.6778   20.5467 C   0  0  0  0  0  0
  -30.4539  -12.4252   19.4627 C   0  0  0  0  0  0
  -29.5169  -12.5135   18.2349 C   0  0  0  0  0  0
  -28.0379  -12.3454   18.6392 C   0  0  0  0  0  0
  -27.6568  -13.2101   19.8684 C   0  0  2  0  0  0
  -28.6954  -13.0460   21.0000 C   0  0  0  0  0  0
  -25.2572  -13.8152   20.5645 C   0  0  0  0  0  0
  -24.1837  -13.0428   20.9160 C   0  0  0  0  0  0
  -24.6380  -11.6900   20.8734 C   0  0  0  0  0  0
  -23.9064  -10.4283   21.0396 C   0  0  0  0  0  0
  -24.3614   -9.4201   21.9172 C   0  0  0  0  0  0
  -23.6282   -8.2251   22.0775 C   0  0  0  0  0  0
  -22.4267   -8.0290   21.3577 C   0  0  0  0  0  0
  -21.9907   -9.0260   20.4669 C   0  0  0  0  0  0
  -22.7227  -10.2131   20.3049 C   0  0  0  0  0  0
  -21.6850   -6.0735   22.5272 C   0  0  0  0  0  0
  -21.4004   -6.5635   23.8192 C   0  0  0  0  0  0
  -21.3662   -5.6799   24.9160 C   0  0  0  0  0  0
  -21.6053   -4.3063   24.7227 C   0  0  0  0  0  0
  -21.8820   -3.8152   23.4343 C   0  0  0  0  0  0
  -21.9196   -4.6966   22.3395 C   0  0  0  0  0  0
  -22.7857  -13.5220   21.1843 C   0  0  0  0  0  0
  -22.1664   -4.2135   21.0983 F   0  0  0  0  0  0
  -21.5637   -3.4550   25.7747 F   0  0  0  0  0  0
  -30.0096  -13.4269   20.4572 N   0  0  0  0  0  0
  -26.2989  -12.9307   20.3300 N   0  0  0  0  0  0
  -25.9312  -11.6476   20.5778 N   0  0  0  0  0  0
  -22.0521  -12.8213   22.0404 N   0  0  0  0  0  0
  -25.4375  -15.1870   20.4112 N   0  0  0  0  0  0
  -31.7001  -14.9026   20.0868 O   0  0  0  0  0  0
  -21.6631   -6.8878   21.4242 O   0  0  0  0  0  0
  -22.3553  -14.5544   20.6714 O   0  0  0  0  0  0
  -24.6294  -31.8554   23.2020 C   0  0  0  0  0  0
  -25.9120  -32.4759   23.8350 C   0  0  1  0  0  0
  -27.2238  -27.2912   20.1603 C   0  0  0  0  0  0
  -25.5905  -33.8559   24.2292 N   0  0  0  0  0  0
  -23.4255  -30.4784   21.5429 C   0  0  2  0  0  0
  -24.8753  -28.9299   20.1134 C   0  0  0  0  0  0
  -22.7504  -29.4580   22.4914 C   0  0  0  0  0  0
  -18.0306  -28.1352   22.8464 C   0  0  0  0  0  0
  -24.1485  -36.7296   23.2644 C   0  0  0  0  0  0
  -25.9665  -30.7798   21.3805 C   0  0  0  0  0  0
  -26.0380  -29.4034   20.7332 C   0  0  0  0  0  0
  -27.2131  -28.5958   20.7482 C   0  0  0  0  0  0
  -26.0501  -26.8872   19.4900 C   0  0  0  0  0  0
  -24.8845  -27.6787   19.4776 C   0  0  0  0  0  0
  -23.6462  -29.8140   20.1575 C   0  0  0  0  0  0
  -25.4091  -36.3071   24.0362 C   0  0  1  0  0  0
  -20.5903  -28.3648   23.1276 C   0  0  2  0  0  0
  -20.6781  -26.9386   22.5325 C   0  0  0  0  0  0
  -19.5740  -26.6445   21.5133 C   0  0  0  0  0  0
  -18.1941  -26.7904   22.1591 C   0  0  0  0  0  0
  -19.1554  -28.8824   23.2888 C   0  0  0  0  0  0
  -18.9488  -30.1396   23.8950 C   0  0  0  0  0  0
  -17.6484  -30.6534   24.0560 C   0  0  0  0  0  0
  -25.9039  -34.9440   23.5136 C   0  0  0  0  0  0
  -16.5383  -29.9051   23.6296 C   0  0  0  0  0  0
  -16.7297  -28.6456   23.0344 C   0  0  0  0  0  0
  -26.4495  -31.6577   25.0729 C   0  0  0  0  0  0
  -25.3745  -31.3717   26.1478 C   0  0  0  0  0  0
  -27.0347  -30.2999   24.6199 C   0  0  0  0  0  0
  -27.6047  -32.4316   25.7482 C   0  0  0  0  0  0
  -27.5578  -37.1797   24.8469 C   0  0  0  0  0  0
  -21.4208  -29.3032   22.3698 N   0  0  0  0  0  0
  -26.4273  -37.3758   23.9432 N   0  0  0  0  0  0
  -24.6925  -31.0543   22.0996 N   0  0  0  0  0  0
  -23.4234  -28.8076   23.2961 O   0  0  0  0  0  0
  -28.3685  -26.4798   20.1313 O   0  0  0  0  0  0
  -26.5594  -34.8898   22.4697 O   0  0  0  0  0  0
  -23.5451  -32.1363   23.7326 O   0  0  0  0  0  0
  -29.8726  -19.3184   19.8436 C   0  0  0  0  0  0
  -30.2419  -17.9384   20.0000 C   0  0  0  0  0  0
  -28.6831  -17.7612   21.8120 C   0  0  0  0  0  0
  -28.8811  -19.9589   20.6463 C   0  0  0  0  0  0
  -28.3114  -19.1355   21.6657 C   0  0  0  0  0  0
  -29.6242  -17.1035   20.9711 C   0  0  0  0  0  0
  -28.2124  -21.2856   20.1943 C   0  0  0  0  0  0
  -28.5517  -25.1953   20.7868 C   0  0  0  0  0  0
  -27.2202  -19.6806   22.5789 C   0  0  0  0  0  0
  -26.4455  -23.8178   20.8013 C   0  0  0  0  0  0
  -27.8745  -23.9689   18.6523 C   0  0  0  0  0  0
  -27.8810  -23.8700   20.2047 C   0  0  0  0  0  0
  -29.7850  -15.6459   21.1220 N   0  0  0  0  0  0
  -28.5788  -22.5554   20.5940 N   0  0  0  0  0  0
  -27.2615  -21.1376   19.4262 O   0  0  0  0  0  0
  -29.3164  -25.0825   21.7487 O   0  0  0  0  0  0
  -31.4874  -12.5877   19.1547 H   0  0  0  0  0  0
  -30.4329  -11.4264   19.9005 H   0  0  0  0  0  0
  -29.7895  -11.7506   17.5036 H   0  0  0  0  0  0
  -29.6541  -13.4761   17.7386 H   0  0  0  0  0  0
  -27.8759  -11.2925   18.8681 H   0  0  0  0  0  0
  -27.3875  -12.5706   17.7937 H   0  0  0  0  0  0
  -27.6813  -14.2481   19.5396 H   0  0  0  0  0  0
  -28.7171  -12.0111   21.3447 H   0  0  0  0  0  0
  -28.4189  -13.6371   21.8745 H   0  0  0  0  0  0
  -25.2753   -9.5673   22.4735 H   0  0  0  0  0  0
  -24.0001   -7.4639   22.7483 H   0  0  0  0  0  0
  -21.0850   -8.8754   19.8962 H   0  0  0  0  0  0
  -22.3671  -10.9670   19.6164 H   0  0  0  0  0  0
  -21.1973   -7.6137   23.9678 H   0  0  0  0  0  0
  -21.1489   -6.0542   25.9053 H   0  0  0  0  0  0
  -22.0597   -2.7609   23.2852 H   0  0  0  0  0  0
  -22.4153  -11.9880   22.4773 H   0  0  0  0  0  0
  -21.1133  -13.1237   22.2615 H   0  0  0  0  0  0
  -24.6910  -15.8585   20.5492 H   0  0  0  0  0  0
  -26.3055  -15.6187   20.1217 H   0  0  0  0  0  0
  -26.7209  -32.5432   23.1109 H   0  0  0  0  0  0
  -25.0034  -33.9699   25.0427 H   0  0  0  0  0  0
  -22.7196  -31.2974   21.3968 H   0  0  0  0  0  0
  -23.3745  -35.9635   23.3300 H   0  0  0  0  0  0
  -24.3594  -36.8903   22.2060 H   0  0  0  0  0  0
  -23.7244  -37.6510   23.6650 H   0  0  0  0  0  0
  -26.0999  -31.5409   20.6100 H   0  0  0  0  0  0
  -26.8496  -30.8320   22.0053 H   0  0  0  0  0  0
  -28.1065  -28.9621   21.2320 H   0  0  0  0  0  0
  -26.0140  -25.9387   18.9796 H   0  0  0  0  0  0
  -24.0017  -27.3167   18.9701 H   0  0  0  0  0  0
  -23.7729  -30.5893   19.3992 H   0  0  0  0  0  0
  -22.7670  -29.2397   19.8597 H   0  0  0  0  0  0
  -25.1270  -36.1909   25.0857 H   0  0  0  0  0  0
  -20.9993  -28.3166   24.1387 H   0  0  0  0  0  0
  -20.5651  -26.2225   23.3488 H   0  0  0  0  0  0
  -21.6633  -26.7404   22.1081 H   0  0  0  0  0  0
  -19.6913  -25.6400   21.1016 H   0  0  0  0  0  0
  -19.6662  -27.3385   20.6765 H   0  0  0  0  0  0
  -18.0403  -26.0039   22.9008 H   0  0  0  0  0  0
  -17.4148  -26.6658   21.4058 H   0  0  0  0  0  0
  -19.7929  -30.7169   24.2487 H   0  0  0  0  0  0
  -17.5050  -31.6198   24.5197 H   0  0  0  0  0  0
  -15.5395  -30.2978   23.7574 H   0  0  0  0  0  0
  -15.8677  -28.0756   22.7149 H   0  0  0  0  0  0
  -24.5901  -30.7070   25.7837 H   0  0  0  0  0  0
  -24.8961  -32.2893   26.4914 H   0  0  0  0  0  0
  -25.8102  -30.8891   27.0241 H   0  0  0  0  0  0
  -26.2946  -29.6721   24.1219 H   0  0  0  0  0  0
  -27.4056  -29.7266   25.4708 H   0  0  0  0  0  0
  -27.8803  -30.4305   23.9442 H   0  0  0  0  0  0
  -27.2661  -33.3611   26.2070 H   0  0  0  0  0  0
  -28.3842  -32.6881   25.0300 H   0  0  0  0  0  0
  -28.0740  -31.8429   26.5375 H   0  0  0  0  0  0
  -28.2595  -38.0084   24.7494 H   0  0  0  0  0  0
  -28.1073  -36.2623   24.6311 H   0  0  0  0  0  0
  -27.2324  -37.1488   25.8877 H   0  0  0  0  0  0
  -20.9364  -29.8878   21.7026 H   0  0  0  0  0  0
  -26.0167  -38.2848   24.1383 H   0  0  0  0  0  0
  -30.3035  -19.8774   19.0250 H   0  0  0  0  0  0
  -30.9616  -17.5120   19.3148 H   0  0  0  0  0  0
  -28.1828  -17.1749   22.5703 H   0  0  0  0  0  0
  -26.9397  -18.9638   23.3508 H   0  0  0  0  0  0
  -26.3189  -19.9178   22.0123 H   0  0  0  0  0  0
  -27.5604  -20.5861   23.0822 H   0  0  0  0  0  0
  -26.0067  -24.7953   20.9935 H   0  0  0  0  0  0
  -26.4429  -23.3158   21.7703 H   0  0  0  0  0  0
  -25.7516  -23.2766   20.1591 H   0  0  0  0  0  0
  -27.8417  -24.9843   18.2666 H   0  0  0  0  0  0
  -27.0245  -23.4478   18.2117 H   0  0  0  0  0  0
  -28.7736  -23.5198   18.2284 H   0  0  0  0  0  0
  -29.0322  -15.2191   21.6409 H   0  0  0  0  0  0
  -29.3638  -22.6474   21.2263 H   0  0  0  0  0  0
  1 25  1  0  0  0
  1 30  2  0  0  0
  1 83  1  0  0  0
  2  3  1  0  0  0
  2 25  1  0  0  0
  2 87  1  0  0  0
  2 88  1  0  0  0
  3  4  1  0  0  0
  3 89  1  0  0  0
  3 90  1  0  0  0
  4  5  1  0  0  0
  4 91  1  0  0  0
  4 92  1  0  0  0
  5  6  1  0  0  0
  5 26  1  0  0  0
  5 93  1  0  0  0
  6 25  1  0  0  0
  6 94  1  0  0  0
  6 95  1  0  0  0
  7  8  2  0  0  0
  7 26  1  0  0  0
  7 29  1  0  0  0
  8  9  1  0  0  0
  8 22  1  0  0  0
  9 10  1  0  0  0
  9 27  2  0  0  0
 10 11  2  0  0  0
 10 15  1  0  0  0
 11 12  1  0  0  0
 11 96  1  0  0  0
 12 13  2  0  0  0
 12 97  1  0  0  0
 13 14  1  0  0  0
 13 31  1  0  0  0
 14 15  2  0  0  0
 14 98  1  0  0  0
 15 99  1  0  0  0
 16 17  2  0  0  0
 16 21  1  0  0  0
 16 31  1  0  0  0
 17 18  1  0  0  0
 17100  1  0  0  0
 18 19  2  0  0  0
 18101  1  0  0  0
 19 20  1  0  0  0
 19 24  1  0  0  0
 20 21  2  0  0  0
 20102  1  0  0  0
 21 23  1  0  0  0
 22 28  1  0  0  0
 22 32  2  0  0  0
 26 27  1  0  0  0
 28103  1  0  0  0
 28104  1  0  0  0
 29105  1  0  0  0
 29106  1  0  0  0
 33 34  1  0  0  0
 33 66  1  0  0  0
 33 70  2  0  0  0
 34 36  1  0  0  0
 34 59  1  0  0  0
 34107  1  0  0  0
 35 44  2  0  0  0
 35 45  1  0  0  0
 35 68  1  0  0  0
 36 56  1  0  0  0
 36108  1  0  0  0
 37 39  1  0  0  0
 37 47  1  0  0  0
 37 66  1  0  0  0
 37109  1  0  0  0
 38 43  2  0  0  0
 38 46  1  0  0  0
 38 47  1  0  0  0
 39 64  1  0  0  0
 39 67  2  0  0  0
 40 52  1  0  0  0
 40 53  2  0  0  0
 40 58  1  0  0  0
 41110  1  0  0  0
 41111  1  0  0  0
 41112  1  0  0  0
 41 48  1  0  0  0
 42 43  1  0  0  0
 42 66  1  0  0  0
 42113  1  0  0  0
 42114  1  0  0  0
 43 44  1  0  0  0
 44115  1  0  0  0
 45 46  2  0  0  0
 45116  1  0  0  0
 46117  1  0  0  0
 47118  1  0  0  0
 47119  1  0  0  0
 48 56  1  0  0  0
 48 65  1  0  0  0
 48120  1  0  0  0
 49 50  1  0  0  0
 49 53  1  0  0  0
 49 64  1  0  0  0
 49121  1  0  0  0
 50 51  1  0  0  0
 50122  1  0  0  0
 50123  1  0  0  0
 51 52  1  0  0  0
 51124  1  0  0  0
 51125  1  0  0  0
 52126  1  0  0  0
 52127  1  0  0  0
 53 54  1  0  0  0
 54 55  2  0  0  0
 54128  1  0  0  0
 55 57  1  0  0  0
 55129  1  0  0  0
 56 69  2  0  0  0
 57 58  2  0  0  0
 57130  1  0  0  0
 58131  1  0  0  0
 59 60  1  0  0  0
 59 61  1  0  0  0
 59 62  1  0  0  0
 60132  1  0  0  0
 60133  1  0  0  0
 60134  1  0  0  0
 61135  1  0  0  0
 61136  1  0  0  0
 61137  1  0  0  0
 62138  1  0  0  0
 62139  1  0  0  0
 62140  1  0  0  0
 63 65  1  0  0  0
 63141  1  0  0  0
 63142  1  0  0  0
 63143  1  0  0  0
 64144  1  0  0  0
 65145  1  0  0  0
 68 78  1  0  0  0
 71 72  2  0  0  0
 71 74  1  0  0  0
 71146  1  0  0  0
 72 76  1  0  0  0
 72147  1  0  0  0
 73 75  1  0  0  0
 73 76  2  0  0  0
 73148  1  0  0  0
 74 75  2  0  0  0
 74 77  1  0  0  0
 75 79  1  0  0  0
 76 83  1  0  0  0
 77 84  1  0  0  0
 77 85  2  0  0  0
 78 82  1  0  0  0
 78 86  2  0  0  0
 79149  1  0  0  0
 79150  1  0  0  0
 79151  1  0  0  0
 80152  1  0  0  0
 80153  1  0  0  0
 80154  1  0  0  0
 80 82  1  0  0  0
 81 82  1  0  0  0
 81155  1  0  0  0
 81156  1  0  0  0
 81157  1  0  0  0
 82 84  1  0  0  0
 83158  1  0  0  0
 84159  1  0  0  0
M  ISO  4   1 100  68 101  78 101  83 100
M  END
> <chiral flag>
0

> <version>
0

> <s_m_source_file>
/data/baiqing/PycharmProjects/Reinvent-master-3.2/result/LINK_invent/BTK/process_docking_weight1_custom_product_contain_oxygen_bond_distance_aromatic_linkinvent_7_9_3/rearranged_h_0063.sdf

> <i_m_source_file_index>
4

> <r_mmod_Potential_Energy-OPLS-2005>
142.66748046875

> <r_mmod_Stretch_Energy-OPLS-2005>
104.465148925781

> <r_mmod_Bend_Energy-OPLS-2005>
170.663070678711

> <r_mmod_Torsional_Energy-OPLS-2005>
299.76220703125

> <r_mmod_Improper_Torsional_Energy-OPLS-2005>
7.32974290847778

> <r_mmod_Van_der_Waal_Energy-OPLS-2005>
145.239410400391

> <r_mmod_Electrostatic_Energy-OPLS-2005>
-416.451507568359

> <r_mmod_Solvation_Energy-OPLS-2005>
-226.190765380859

> <b_mmod_Minimization_Converged-OPLS-2005>
0

> <r_mmod_RMS_Derivative-OPLS-2005>
3.70059561729431

$$$$
4
                    3D
 Structure written by MMmdl.
154162  0  0  1  0            999 V2000
  -30.6981  -14.5197   20.4402 C   0  0  0  0  0  0
  -30.4058  -12.2998   19.4280 C   0  0  0  0  0  0
  -29.4896  -12.4810   18.2008 C   0  0  0  0  0  0
  -28.0078  -12.3670   18.6133 C   0  0  0  0  0  0
  -27.6508  -13.2232   19.8583 C   0  0  2  0  0  0
  -28.7033  -13.0672   20.9792 C   0  0  0  0  0  0
  -25.2542  -13.8175   20.5719 C   0  0  0  0  0  0
  -24.1833  -13.0418   20.9225 C   0  0  0  0  0  0
  -24.6432  -11.6902   20.8748 C   0  0  0  0  0  0
  -23.9102  -10.4280   21.0422 C   0  0  0  0  0  0
  -24.3629   -9.4200   21.9213 C   0  0  0  0  0  0
  -23.6290   -8.2239   22.0790 C   0  0  0  0  0  0
  -22.4266   -8.0277   21.3564 C   0  0  0  0  0  0
  -21.9922   -9.0261   20.4650 C   0  0  0  0  0  0
  -22.7275  -10.2130   20.3069 C   0  0  0  0  0  0
  -21.6845   -6.0722   22.5293 C   0  0  0  0  0  0
  -21.3999   -6.5641   23.8217 C   0  0  0  0  0  0
  -21.3666   -5.6802   24.9193 C   0  0  0  0  0  0
  -21.6057   -4.3066   24.7240 C   0  0  0  0  0  0
  -21.8828   -3.8135   23.4371 C   0  0  0  0  0  0
  -21.9182   -4.6946   22.3415 C   0  0  0  0  0  0
  -22.7849  -13.5219   21.1865 C   0  0  0  0  0  0
  -22.1672   -4.2130   21.0998 F   0  0  0  0  0  0
  -21.5615   -3.4549   25.7772 F   0  0  0  0  0  0
  -30.0281  -13.3363   20.4003 N   0  0  0  0  0  0
  -26.2997  -12.9389   20.3338 N   0  0  0  0  0  0
  -25.9363  -11.6535   20.5785 N   0  0  0  0  0  0
  -22.0482  -12.8185   22.0388 N   0  0  0  0  0  0
  -25.4125  -15.1910   20.4148 N   0  0  0  0  0  0
  -31.9071  -14.5952   20.2162 O   0  0  0  0  0  0
  -21.6621   -6.8879   21.4263 O   0  0  0  0  0  0
  -22.3544  -14.5533   20.6712 O   0  0  0  0  0  0
  -24.6178  -31.8676   23.2155 C   0  0  0  0  0  0
  -25.9072  -32.4839   23.8441 C   0  0  1  0  0  0
  -27.1948  -27.3697   20.1075 C   0  0  0  0  0  0
  -25.5907  -33.8644   24.2349 N   0  0  0  0  0  0
  -23.4066  -30.5023   21.5548 C   0  0  2  0  0  0
  -24.8404  -28.9668   20.1187 C   0  0  0  0  0  0
  -22.7406  -29.4693   22.4933 C   0  0  0  0  0  0
  -18.0269  -28.1392   22.8487 C   0  0  0  0  0  0
  -24.1471  -36.7275   23.2649 C   0  0  0  0  0  0
  -25.9449  -30.8156   21.3759 C   0  0  0  0  0  0
  -26.0107  -29.4491   20.7161 C   0  0  0  0  0  0
  -27.1919  -28.6626   20.7005 C   0  0  0  0  0  0
  -25.9939  -26.9136   19.5153 C   0  0  0  0  0  0
  -24.8289  -27.6999   19.5175 C   0  0  0  0  0  0
  -23.6153  -29.8554   20.1638 C   0  0  0  0  0  0
  -25.4093  -36.3124   24.0355 C   0  0  1  0  0  0
  -20.5873  -28.3690   23.1308 C   0  0  2  0  0  0
  -20.6756  -26.9410   22.5446 C   0  0  0  0  0  0
  -19.5743  -26.6396   21.5222 C   0  0  0  0  0  0
  -18.1910  -26.7940   22.1607 C   0  0  0  0  0  0
  -19.1530  -28.8839   23.2910 C   0  0  0  0  0  0
  -18.9452  -30.1441   23.8933 C   0  0  0  0  0  0
  -17.6461  -30.6609   24.0573 C   0  0  0  0  0  0
  -25.9030  -34.9498   23.5154 C   0  0  0  0  0  0
  -16.5348  -29.9119   23.6338 C   0  0  0  0  0  0
  -16.7255  -28.6533   23.0354 C   0  0  0  0  0  0
  -26.4478  -31.6611   25.0768 C   0  0  0  0  0  0
  -25.3731  -31.3660   26.1497 C   0  0  0  0  0  0
  -27.0326  -30.3071   24.6155 C   0  0  0  0  0  0
  -27.6057  -32.4320   25.7534 C   0  0  0  0  0  0
  -27.5573  -37.1799   24.8459 C   0  0  0  0  0  0
  -21.4127  -29.3064   22.3687 N   0  0  0  0  0  0
  -26.4267  -37.3823   23.9430 N   0  0  0  0  0  0
  -24.6756  -31.0756   22.1059 N   0  0  0  0  0  0
  -23.4164  -28.8199   23.2972 O   0  0  0  0  0  0
  -28.3557  -26.6029   20.1230 O   0  0  0  0  0  0
  -26.5605  -34.8963   22.4729 O   0  0  0  0  0  0
  -23.5351  -32.1450   23.7537 O   0  0  0  0  0  0
  -30.4871  -19.5442   18.8400 C   0  0  0  0  0  0
  -31.1498  -18.4390   18.2856 C   0  0  0  0  0  0
  -29.5213  -18.0856   20.5358 C   0  0  0  0  0  0
  -29.6548  -19.3930   19.9733 C   0  0  0  0  0  0
  -30.1802  -16.9475   19.9806 C   0  0  0  0  0  0
  -30.9852  -17.1502   18.8244 C   0  0  0  0  0  0
  -28.9664  -21.8280   20.2501 C   0  0  0  0  0  0
  -27.7917  -22.7154   20.7340 C   0  0  0  0  0  0
  -28.0561  -24.2400   21.0139 C   0  0  0  0  0  0
  -28.3228  -25.1809   19.7989 C   0  0  0  0  0  0
  -28.8843  -20.4931   20.5032 N   0  0  0  0  0  0
  -29.9246  -15.6278   20.5264 N   0  0  0  0  0  0
  -29.9201  -22.3574   19.6785 O   0  0  0  0  0  0
  -31.5646  -16.1226   18.1624 F   0  0  0  0  0  0
  -31.4549  -12.3575   19.1339 H   0  0  0  0  0  0
  -30.2689  -11.3079   19.8610 H   0  0  0  0  0  0
  -29.7184  -11.7288   17.4447 H   0  0  0  0  0  0
  -29.6705  -13.4514   17.7345 H   0  0  0  0  0  0
  -27.8042  -11.3135   18.8098 H   0  0  0  0  0  0
  -27.3638  -12.6430   17.7763 H   0  0  0  0  0  0
  -27.6704  -14.2631   19.5311 H   0  0  0  0  0  0
  -28.6787  -12.0568   21.3883 H   0  0  0  0  0  0
  -28.4915  -13.7332   21.8159 H   0  0  0  0  0  0
  -25.2779   -9.5673   22.4787 H   0  0  0  0  0  0
  -23.9978   -7.4642   22.7537 H   0  0  0  0  0  0
  -21.0853   -8.8803   19.8946 H   0  0  0  0  0  0
  -22.3744  -10.9679   19.6184 H   0  0  0  0  0  0
  -21.2006   -7.6152   23.9721 H   0  0  0  0  0  0
  -21.1484   -6.0537   25.9105 H   0  0  0  0  0  0
  -22.0577   -2.7588   23.2876 H   0  0  0  0  0  0
  -22.4093  -11.9823   22.4747 H   0  0  0  0  0  0
  -21.1115  -13.1213   22.2613 H   0  0  0  0  0  0
  -24.6282  -15.8208   20.5462 H   0  0  0  0  0  0
  -26.2458  -15.6542   20.0785 H   0  0  0  0  0  0
  -26.7119  -32.5524   23.1172 H   0  0  0  0  0  0
  -25.0041  -33.9796   25.0492 H   0  0  0  0  0  0
  -22.6974  -31.3221   21.4276 H   0  0  0  0  0  0
  -23.3796  -35.9547   23.3283 H   0  0  0  0  0  0
  -24.3526  -36.8942   22.2064 H   0  0  0  0  0  0
  -23.7167  -37.6442   23.6680 H   0  0  0  0  0  0
  -26.0722  -31.5857   20.6140 H   0  0  0  0  0  0
  -26.8273  -30.8523   22.0047 H   0  0  0  0  0  0
  -28.0956  -29.0338   21.1652 H   0  0  0  0  0  0
  -25.9041  -25.9436   19.0526 H   0  0  0  0  0  0
  -23.9230  -27.3152   19.0672 H   0  0  0  0  0  0
  -23.7545  -30.6480   19.4250 H   0  0  0  0  0  0
  -22.7270  -29.3034   19.8463 H   0  0  0  0  0  0
  -25.1282  -36.1986   25.0846 H   0  0  0  0  0  0
  -20.9964  -28.3305   24.1432 H   0  0  0  0  0  0
  -20.5616  -26.2307   23.3654 H   0  0  0  0  0  0
  -21.6645  -26.7421   22.1304 H   0  0  0  0  0  0
  -19.6916  -25.6312   21.1258 H   0  0  0  0  0  0
  -19.6744  -27.3203   20.6759 H   0  0  0  0  0  0
  -17.4216  -26.6756   21.3977 H   0  0  0  0  0  0
  -18.0247  -26.0065   22.8973 H   0  0  0  0  0  0
  -19.7921  -30.7237   24.2357 H   0  0  0  0  0  0
  -17.5027  -31.6295   24.5172 H   0  0  0  0  0  0
  -15.5352  -30.3048   23.7641 H   0  0  0  0  0  0
  -15.8645  -28.0878   22.7040 H   0  0  0  0  0  0
  -24.6003  -30.6892   25.7847 H   0  0  0  0  0  0
  -24.8777  -32.2752   26.4900 H   0  0  0  0  0  0
  -25.8111  -30.8919   27.0292 H   0  0  0  0  0  0
  -26.2900  -29.6821   24.1180 H   0  0  0  0  0  0
  -27.4072  -29.7320   25.4634 H   0  0  0  0  0  0
  -27.8753  -30.4407   23.9374 H   0  0  0  0  0  0
  -27.2709  -33.3649   26.2102 H   0  0  0  0  0  0
  -28.3886  -32.6818   25.0356 H   0  0  0  0  0  0
  -28.0693  -31.8427   26.5456 H   0  0  0  0  0  0
  -28.2596  -38.0096   24.7568 H   0  0  0  0  0  0
  -28.1096  -36.2644   24.6251 H   0  0  0  0  0  0
  -27.2299  -37.1435   25.8867 H   0  0  0  0  0  0
  -20.9223  -29.8811   21.6982 H   0  0  0  0  0  0
  -26.0168  -38.2905   24.1499 H   0  0  0  0  0  0
  -30.6082  -20.4964   18.3437 H   0  0  0  0  0  0
  -31.7648  -18.5746   17.4065 H   0  0  0  0  0  0
  -28.8844  -17.9449   21.3983 H   0  0  0  0  0  0
  -27.4122  -22.2657   21.6528 H   0  0  0  0  0  0
  -26.9854  -22.6182   20.0062 H   0  0  0  0  0  0
  -28.8830  -24.3371   21.7165 H   0  0  0  0  0  0
  -27.1818  -24.6123   21.5480 H   0  0  0  0  0  0
  -27.6583  -24.9363   18.9740 H   0  0  0  0  0  0
  -29.3090  -24.9404   19.4059 H   0  0  0  0  0  0
  -28.1222  -20.2231   21.1085 H   0  0  0  0  0  0
  -28.9777  -15.4562   20.8209 H   0  0  0  0  0  0
  1 25  1  0  0  0
  1 30  2  0  0  0
  1 82  1  0  0  0
  2  3  1  0  0  0
  2 25  1  0  0  0
  2 85  1  0  0  0
  2 86  1  0  0  0
  3  4  1  0  0  0
  3 87  1  0  0  0
  3 88  1  0  0  0
  4  5  1  0  0  0
  4 89  1  0  0  0
  4 90  1  0  0  0
  5  6  1  0  0  0
  5 26  1  0  0  0
  5 91  1  0  0  0
  6 25  1  0  0  0
  6 92  1  0  0  0
  6 93  1  0  0  0
  7  8  2  0  0  0
  7 26  1  0  0  0
  7 29  1  0  0  0
  8  9  1  0  0  0
  8 22  1  0  0  0
  9 10  1  0  0  0
  9 27  2  0  0  0
 10 11  2  0  0  0
 10 15  1  0  0  0
 11 12  1  0  0  0
 11 94  1  0  0  0
 12 13  2  0  0  0
 12 95  1  0  0  0
 13 14  1  0  0  0
 13 31  1  0  0  0
 14 15  2  0  0  0
 14 96  1  0  0  0
 15 97  1  0  0  0
 16 17  2  0  0  0
 16 21  1  0  0  0
 16 31  1  0  0  0
 17 18  1  0  0  0
 17 98  1  0  0  0
 18 19  2  0  0  0
 18 99  1  0  0  0
 19 20  1  0  0  0
 19 24  1  0  0  0
 20 21  2  0  0  0
 20100  1  0  0  0
 21 23  1  0  0  0
 22 28  1  0  0  0
 22 32  2  0  0  0
 26 27  1  0  0  0
 28101  1  0  0  0
 28102  1  0  0  0
 29103  1  0  0  0
 29104  1  0  0  0
 33 34  1  0  0  0
 33 66  1  0  0  0
 33 70  2  0  0  0
 34 36  1  0  0  0
 34 59  1  0  0  0
 34105  1  0  0  0
 35 44  2  0  0  0
 35 45  1  0  0  0
 35 68  1  0  0  0
 36 56  1  0  0  0
 36106  1  0  0  0
 37 39  1  0  0  0
 37 47  1  0  0  0
 37 66  1  0  0  0
 37107  1  0  0  0
 38 43  2  0  0  0
 38 46  1  0  0  0
 38 47  1  0  0  0
 39 64  1  0  0  0
 39 67  2  0  0  0
 40 52  1  0  0  0
 40 53  2  0  0  0
 40 58  1  0  0  0
 41108  1  0  0  0
 41109  1  0  0  0
 41110  1  0  0  0
 41 48  1  0  0  0
 42 43  1  0  0  0
 42 66  1  0  0  0
 42111  1  0  0  0
 42112  1  0  0  0
 43 44  1  0  0  0
 44113  1  0  0  0
 45 46  2  0  0  0
 45114  1  0  0  0
 46115  1  0  0  0
 47116  1  0  0  0
 47117  1  0  0  0
 48 56  1  0  0  0
 48 65  1  0  0  0
 48118  1  0  0  0
 49 50  1  0  0  0
 49 53  1  0  0  0
 49 64  1  0  0  0
 49119  1  0  0  0
 50 51  1  0  0  0
 50120  1  0  0  0
 50121  1  0  0  0
 51 52  1  0  0  0
 51122  1  0  0  0
 51123  1  0  0  0
 52124  1  0  0  0
 52125  1  0  0  0
 53 54  1  0  0  0
 54 55  2  0  0  0
 54126  1  0  0  0
 55 57  1  0  0  0
 55127  1  0  0  0
 56 69  2  0  0  0
 57 58  2  0  0  0
 57128  1  0  0  0
 58129  1  0  0  0
 59 60  1  0  0  0
 59 61  1  0  0  0
 59 62  1  0  0  0
 60130  1  0  0  0
 60131  1  0  0  0
 60132  1  0  0  0
 61133  1  0  0  0
 61134  1  0  0  0
 61135  1  0  0  0
 62136  1  0  0  0
 62137  1  0  0  0
 62138  1  0  0  0
 63 65  1  0  0  0
 63139  1  0  0  0
 63140  1  0  0  0
 63141  1  0  0  0
 64142  1  0  0  0
 65143  1  0  0  0
 68 80  1  0  0  0
 71 72  2  0  0  0
 71 74  1  0  0  0
 71144  1  0  0  0
 72 76  1  0  0  0
 72145  1  0  0  0
 73 74  2  0  0  0
 73 75  1  0  0  0
 73146  1  0  0  0
 74 81  1  0  0  0
 75 76  2  0  0  0
 75 82  1  0  0  0
 76 84  1  0  0  0
 77 78  1  0  0  0
 77 81  1  0  0  0
 77 83  2  0  0  0
 78 79  1  0  0  0
 78147  1  0  0  0
 78148  1  0  0  0
 79 80  1  0  0  0
 79149  1  0  0  0
 79150  1  0  0  0
 80151  1  0  0  0
 80152  1  0  0  0
 81153  1  0  0  0
 82154  1  0  0  0
M  ISO  4   1 100  68 101  80 101  82 100
M  END
> <chiral flag>
0

> <version>
0

> <s_m_source_file>
/data/baiqing/PycharmProjects/Reinvent-master-3.2/result/LINK_invent/BTK/process_docking_weight1_custom_product_contain_oxygen_bond_distance_aromatic_linkinvent_7_9_3/rearranged_h_0063.sdf

> <i_m_source_file_index>
5

> <r_mmod_Potential_Energy-OPLS-2005>
-83.023681640625

> <r_mmod_Stretch_Energy-OPLS-2005>
51.9918785095215

> <r_mmod_Bend_Energy-OPLS-2005>
120.840347290039

> <r_mmod_Torsional_Energy-OPLS-2005>
229.999847412109

> <r_mmod_Improper_Torsional_Energy-OPLS-2005>
6.01861143112183

> <r_mmod_Van_der_Waal_Energy-OPLS-2005>
158.974319458008

> <r_mmod_Electrostatic_Energy-OPLS-2005>
-441.199920654297

> <r_mmod_Solvation_Energy-OPLS-2005>
-241.589157104492

> <b_mmod_Minimization_Converged-OPLS-2005>
0

> <r_mmod_RMS_Derivative-OPLS-2005>
4.76995182037354

$$$$
5
                    3D
 Structure written by MMmdl.
159168  0  0  1  0            999 V2000
  -30.6016  -14.8007   20.4406 C   0  0  0  0  0  0
  -30.4379  -12.4940   19.4625 C   0  0  0  0  0  0
  -29.5087  -12.5087   18.2288 C   0  0  0  0  0  0
  -28.0390  -12.3185   18.6525 C   0  0  0  0  0  0
  -27.6372  -13.2333   19.8394 C   0  0  2  0  0  0
  -28.6881  -13.2028   20.9698 C   0  0  0  0  0  0
  -25.2508  -13.8190   20.5700 C   0  0  0  0  0  0
  -24.1804  -13.0434   20.9220 C   0  0  0  0  0  0
  -24.6399  -11.6911   20.8756 C   0  0  0  0  0  0
  -23.9078  -10.4288   21.0404 C   0  0  0  0  0  0
  -24.3628   -9.4204   21.9182 C   0  0  0  0  0  0
  -23.6299   -8.2242   22.0753 C   0  0  0  0  0  0
  -22.4282   -8.0282   21.3543 C   0  0  0  0  0  0
  -21.9918   -9.0254   20.4646 C   0  0  0  0  0  0
  -22.7251  -10.2131   20.3054 C   0  0  0  0  0  0
  -21.6854   -6.0740   22.5279 C   0  0  0  0  0  0
  -21.4013   -6.5644   23.8212 C   0  0  0  0  0  0
  -21.3658   -5.6796   24.9174 C   0  0  0  0  0  0
  -21.6047   -4.3058   24.7223 C   0  0  0  0  0  0
  -21.8819   -3.8150   23.4342 C   0  0  0  0  0  0
  -21.9193   -4.6968   22.3402 C   0  0  0  0  0  0
  -22.7825  -13.5214   21.1873 C   0  0  0  0  0  0
  -22.1663   -4.2157   21.0977 F   0  0  0  0  0  0
  -21.5627   -3.4538   25.7732 F   0  0  0  0  0  0
  -29.9770  -13.5710   20.3691 N   0  0  0  0  0  0
  -26.2926  -12.9398   20.3257 N   0  0  0  0  0  0
  -25.9329  -11.6542   20.5752 N   0  0  0  0  0  0
  -22.0468  -12.8203   22.0422 N   0  0  0  0  0  0
  -25.4175  -15.1915   20.4121 N   0  0  0  0  0  0
  -31.8120  -14.8750   20.2114 O   0  0  0  0  0  0
  -21.6643   -6.8881   21.4239 O   0  0  0  0  0  0
  -22.3512  -14.5520   20.6720 O   0  0  0  0  0  0
  -24.6369  -31.8526   23.1953 C   0  0  0  0  0  0
  -25.9181  -32.4733   23.8306 C   0  0  1  0  0  0
  -27.2188  -27.2231   20.1147 C   0  0  0  0  0  0
  -25.5968  -33.8535   24.2228 N   0  0  0  0  0  0
  -23.4348  -30.4772   21.5415 C   0  0  2  0  0  0
  -24.8799  -28.9249   20.1099 C   0  0  0  0  0  0
  -22.7535  -29.4603   22.4904 C   0  0  0  0  0  0
  -18.0304  -28.1404   22.8484 C   0  0  0  0  0  0
  -24.1503  -36.7263   23.2635 C   0  0  0  0  0  0
  -25.9877  -30.7530   21.3814 C   0  0  0  0  0  0
  -26.0593  -29.3741   20.7185 C   0  0  0  0  0  0
  -27.2308  -28.5375   20.7108 C   0  0  0  0  0  0
  -25.9965  -26.8497   19.5024 C   0  0  0  0  0  0
  -24.8562  -27.6705   19.4907 C   0  0  0  0  0  0
  -23.6536  -29.8161   20.1573 C   0  0  0  0  0  0
  -25.4126  -36.3041   24.0323 C   0  0  1  0  0  0
  -20.5911  -28.3720   23.1265 C   0  0  2  0  0  0
  -20.6802  -26.9438   22.5409 C   0  0  0  0  0  0
  -19.5774  -26.6393   21.5221 C   0  0  0  0  0  0
  -18.1949  -26.7947   22.1621 C   0  0  0  0  0  0
  -19.1559  -28.8880   23.2868 C   0  0  0  0  0  0
  -18.9473  -30.1480   23.8891 C   0  0  0  0  0  0
  -17.6471  -30.6601   24.0563 C   0  0  0  0  0  0
  -25.9075  -34.9424   23.5069 C   0  0  0  0  0  0
  -16.5364  -29.9090   23.6341 C   0  0  0  0  0  0
  -16.7288  -28.6510   23.0355 C   0  0  0  0  0  0
  -26.4531  -31.6560   25.0702 C   0  0  0  0  0  0
  -25.3739  -31.3735   26.1409 C   0  0  0  0  0  0
  -27.0355  -30.2958   24.6215 C   0  0  0  0  0  0
  -27.6078  -32.4302   25.7475 C   0  0  0  0  0  0
  -27.5589  -37.1782   24.8463 C   0  0  0  0  0  0
  -21.4240  -29.3057   22.3646 N   0  0  0  0  0  0
  -26.4285  -37.3754   23.9424 N   0  0  0  0  0  0
  -24.7060  -31.0461   22.0945 N   0  0  0  0  0  0
  -23.4220  -28.8135   23.3012 O   0  0  0  0  0  0
  -28.2750  -26.2587   20.1709 O   0  0  0  0  0  0
  -26.5635  -34.8910   22.4634 O   0  0  0  0  0  0
  -23.5511  -32.1364   23.7227 O   0  0  0  0  0  0
  -31.3325  -19.0625   22.0544 C   0  0  0  0  0  0
  -30.7021  -20.1510   21.4156 C   0  0  0  0  0  0
  -31.0694  -17.7238   21.6912 C   0  0  0  0  0  0
  -29.4597  -18.5464   20.0584 C   0  0  0  0  0  0
  -29.7823  -19.9591   20.3636 C   0  0  0  0  0  0
  -30.1201  -17.4002   20.6986 C   0  0  0  0  0  0
  -28.4905  -23.7681   19.2270 C   0  0  0  0  0  0
  -29.7224  -21.1787   18.2679 C   0  0  0  0  0  0
  -28.2463  -25.1555   19.2639 C   0  0  0  0  0  0
  -28.1437  -23.1280   17.8960 C   0  0  0  0  0  0
  -29.0256  -22.5999   20.1993 C   0  0  0  0  0  0
  -29.3283  -22.3393   17.3570 C   0  0  0  0  0  0
  -28.3976  -18.2275   19.0181 C   0  0  0  0  0  0
  -29.3824  -21.1959   19.5894 N   0  0  0  0  0  0
  -29.8069  -15.9513   20.4677 N   0  0  0  0  0  0
  -30.3501  -20.2578   17.7314 O   0  0  0  0  0  0
  -31.4745  -12.6343   19.1522 H   0  0  0  0  0  0
  -30.4022  -11.5267   19.9657 H   0  0  0  0  0  0
  -29.7995  -11.7258   17.5270 H   0  0  0  0  0  0
  -29.6181  -13.4548   17.6959 H   0  0  0  0  0  0
  -27.9144  -11.2730   18.9364 H   0  0  0  0  0  0
  -27.3739  -12.4834   17.8042 H   0  0  0  0  0  0
  -27.6169  -14.2461   19.4373 H   0  0  0  0  0  0
  -28.7432  -12.2150   21.4295 H   0  0  0  0  0  0
  -28.4190  -13.9001   21.7651 H   0  0  0  0  0  0
  -25.2770   -9.5685   22.4758 H   0  0  0  0  0  0
  -24.0014   -7.4632   22.7468 H   0  0  0  0  0  0
  -21.0853   -8.8773   19.8944 H   0  0  0  0  0  0
  -22.3708  -10.9672   19.6166 H   0  0  0  0  0  0
  -21.2003   -7.6152   23.9720 H   0  0  0  0  0  0
  -21.1480   -6.0522   25.9079 H   0  0  0  0  0  0
  -22.0596   -2.7611   23.2836 H   0  0  0  0  0  0
  -22.4097  -11.9875   22.4817 H   0  0  0  0  0  0
  -21.1079  -13.1216   22.2614 H   0  0  0  0  0  0
  -24.6460  -15.8404   20.5242 H   0  0  0  0  0  0
  -26.2610  -15.6352   20.0759 H   0  0  0  0  0  0
  -26.7240  -32.5358   23.1036 H   0  0  0  0  0  0
  -25.0169  -33.9682   25.0409 H   0  0  0  0  0  0
  -22.7331  -31.3013   21.3964 H   0  0  0  0  0  0
  -23.3767  -35.9590   23.3257 H   0  0  0  0  0  0
  -24.3620  -36.8917   22.2058 H   0  0  0  0  0  0
  -23.7241  -37.6447   23.6686 H   0  0  0  0  0  0
  -26.1383  -31.5129   20.6134 H   0  0  0  0  0  0
  -26.8611  -30.7966   22.0205 H   0  0  0  0  0  0
  -28.1306  -28.8787   21.2026 H   0  0  0  0  0  0
  -25.8702  -25.8768   19.0522 H   0  0  0  0  0  0
  -23.9511  -27.3114   19.0202 H   0  0  0  0  0  0
  -23.7823  -30.5933   19.4036 H   0  0  0  0  0  0
  -22.7707  -29.2548   19.8463 H   0  0  0  0  0  0
  -25.1308  -36.1867   25.0813 H   0  0  0  0  0  0
  -21.0007  -28.3292   24.1386 H   0  0  0  0  0  0
  -20.5739  -26.2328   23.3614 H   0  0  0  0  0  0
  -21.6668  -26.7487   22.1192 H   0  0  0  0  0  0
  -19.6940  -25.6300   21.1265 H   0  0  0  0  0  0
  -19.6713  -27.3193   20.6742 H   0  0  0  0  0  0
  -17.4235  -26.6711   21.4001 H   0  0  0  0  0  0
  -18.0338  -26.0094   22.9019 H   0  0  0  0  0  0
  -19.7947  -30.7298   24.2264 H   0  0  0  0  0  0
  -17.5023  -31.6286   24.5150 H   0  0  0  0  0  0
  -15.5365  -30.2981   23.7683 H   0  0  0  0  0  0
  -15.8690  -28.0822   22.7073 H   0  0  0  0  0  0
  -24.5966  -30.7015   25.7758 H   0  0  0  0  0  0
  -24.8871  -32.2902   26.4739 H   0  0  0  0  0  0
  -25.8055  -30.9005   27.0235 H   0  0  0  0  0  0
  -26.2924  -29.6710   24.1240 H   0  0  0  0  0  0
  -27.4006  -29.7229   25.4746 H   0  0  0  0  0  0
  -27.8837  -30.4196   23.9479 H   0  0  0  0  0  0
  -27.2692  -33.3639   26.1981 H   0  0  0  0  0  0
  -28.3925  -32.6788   25.0316 H   0  0  0  0  0  0
  -28.0703  -31.8459   26.5440 H   0  0  0  0  0  0
  -28.2564  -38.0117   24.7541 H   0  0  0  0  0  0
  -28.1116  -36.2645   24.6228 H   0  0  0  0  0  0
  -27.2329  -37.1359   25.8869 H   0  0  0  0  0  0
  -20.9438  -29.8741   21.6810 H   0  0  0  0  0  0
  -26.0142  -38.2818   24.1424 H   0  0  0  0  0  0
  -32.0555  -19.2614   22.8328 H   0  0  0  0  0  0
  -30.9912  -21.1519   21.7026 H   0  0  0  0  0  0
  -31.5901  -16.9379   22.2198 H   0  0  0  0  0  0
  -27.9195  -25.5768   18.3237 H   0  0  0  0  0  0
  -27.8356  -23.8549   17.1438 H   0  0  0  0  0  0
  -27.2841  -22.4705   18.0388 H   0  0  0  0  0  0
  -28.2581  -22.4330   20.9546 H   0  0  0  0  0  0
  -29.8949  -22.9878   20.7298 H   0  0  0  0  0  0
  -29.0851  -21.9443   16.3697 H   0  0  0  0  0  0
  -30.1929  -22.9916   17.2295 H   0  0  0  0  0  0
  -27.7924  -19.0982   18.7680 H   0  0  0  0  0  0
  -27.7159  -17.4622   19.3875 H   0  0  0  0  0  0
  -28.8640  -17.8554   18.1054 H   0  0  0  0  0  0
  -28.8268  -15.7516   20.3536 H   0  0  0  0  0  0
  1 25  1  0  0  0
  1 30  2  0  0  0
  1 85  1  0  0  0
  2  3  1  0  0  0
  2 25  1  0  0  0
  2 87  1  0  0  0
  2 88  1  0  0  0
  3  4  1  0  0  0
  3 89  1  0  0  0
  3 90  1  0  0  0
  4  5  1  0  0  0
  4 91  1  0  0  0
  4 92  1  0  0  0
  5  6  1  0  0  0
  5 26  1  0  0  0
  5 93  1  0  0  0
  6 25  1  0  0  0
  6 94  1  0  0  0
  6 95  1  0  0  0
  7  8  2  0  0  0
  7 26  1  0  0  0
  7 29  1  0  0  0
  8  9  1  0  0  0
  8 22  1  0  0  0
  9 10  1  0  0  0
  9 27  2  0  0  0
 10 11  2  0  0  0
 10 15  1  0  0  0
 11 12  1  0  0  0
 11 96  1  0  0  0
 12 13  2  0  0  0
 12 97  1  0  0  0
 13 14  1  0  0  0
 13 31  1  0  0  0
 14 15  2  0  0  0
 14 98  1  0  0  0
 15 99  1  0  0  0
 16 17  2  0  0  0
 16 21  1  0  0  0
 16 31  1  0  0  0
 17 18  1  0  0  0
 17100  1  0  0  0
 18 19  2  0  0  0
 18101  1  0  0  0
 19 20  1  0  0  0
 19 24  1  0  0  0
 20 21  2  0  0  0
 20102  1  0  0  0
 21 23  1  0  0  0
 22 28  1  0  0  0
 22 32  2  0  0  0
 26 27  1  0  0  0
 28103  1  0  0  0
 28104  1  0  0  0
 29105  1  0  0  0
 29106  1  0  0  0
 33 34  1  0  0  0
 33 66  1  0  0  0
 33 70  2  0  0  0
 34 36  1  0  0  0
 34 59  1  0  0  0
 34107  1  0  0  0
 35 44  2  0  0  0
 35 45  1  0  0  0
 35 68  1  0  0  0
 36 56  1  0  0  0
 36108  1  0  0  0
 37 39  1  0  0  0
 37 47  1  0  0  0
 37 66  1  0  0  0
 37109  1  0  0  0
 38 43  2  0  0  0
 38 46  1  0  0  0
 38 47  1  0  0  0
 39 64  1  0  0  0
 39 67  2  0  0  0
 40 52  1  0  0  0
 40 53  2  0  0  0
 40 58  1  0  0  0
 41110  1  0  0  0
 41111  1  0  0  0
 41112  1  0  0  0
 41 48  1  0  0  0
 42 43  1  0  0  0
 42 66  1  0  0  0
 42113  1  0  0  0
 42114  1  0  0  0
 43 44  1  0  0  0
 44115  1  0  0  0
 45 46  2  0  0  0
 45116  1  0  0  0
 46117  1  0  0  0
 47118  1  0  0  0
 47119  1  0  0  0
 48 56  1  0  0  0
 48 65  1  0  0  0
 48120  1  0  0  0
 49 50  1  0  0  0
 49 53  1  0  0  0
 49 64  1  0  0  0
 49121  1  0  0  0
 50 51  1  0  0  0
 50122  1  0  0  0
 50123  1  0  0  0
 51 52  1  0  0  0
 51124  1  0  0  0
 51125  1  0  0  0
 52126  1  0  0  0
 52127  1  0  0  0
 53 54  1  0  0  0
 54 55  2  0  0  0
 54128  1  0  0  0
 55 57  1  0  0  0
 55129  1  0  0  0
 56 69  2  0  0  0
 57 58  2  0  0  0
 57130  1  0  0  0
 58131  1  0  0  0
 59 60  1  0  0  0
 59 61  1  0  0  0
 59 62  1  0  0  0
 60132  1  0  0  0
 60133  1  0  0  0
 60134  1  0  0  0
 61135  1  0  0  0
 61136  1  0  0  0
 61137  1  0  0  0
 62138  1  0  0  0
 62139  1  0  0  0
 62140  1  0  0  0
 63 65  1  0  0  0
 63141  1  0  0  0
 63142  1  0  0  0
 63143  1  0  0  0
 64144  1  0  0  0
 65145  1  0  0  0
 68 79  1  0  0  0
 71 72  2  0  0  0
 71 73  1  0  0  0
 71146  1  0  0  0
 72 75  1  0  0  0
 72147  1  0  0  0
 73 76  2  0  0  0
 73148  1  0  0  0
 74 75  2  0  0  0
 74 76  1  0  0  0
 74 83  1  0  0  0
 75 84  1  0  0  0
 76 85  1  0  0  0
 77 79  2  0  0  0
 77 80  1  0  0  0
 77 81  1  0  0  0
 78 82  1  0  0  0
 78 84  1  0  0  0
 78 86  2  0  0  0
 79149  1  0  0  0
 80 82  1  0  0  0
 80150  1  0  0  0
 80151  1  0  0  0
 81 84  1  0  0  0
 81152  1  0  0  0
 81153  1  0  0  0
 82154  1  0  0  0
 82155  1  0  0  0
 83156  1  0  0  0
 83157  1  0  0  0
 83158  1  0  0  0
 85159  1  0  0  0
M  ISO  4   1 100  68 101  79 101  85 100
M  END
> <chiral flag>
0

> <version>
0

> <s_m_source_file>
/data/baiqing/PycharmProjects/Reinvent-master-3.2/result/LINK_invent/BTK/process_docking_weight1_custom_product_contain_oxygen_bond_distance_aromatic_linkinvent_7_9_3/rearranged_h_0063.sdf

> <i_m_source_file_index>
6

> <r_mmod_Potential_Energy-OPLS-2005>
405.398406982422

> <r_mmod_Stretch_Energy-OPLS-2005>
170.063079833984

> <r_mmod_Bend_Energy-OPLS-2005>
233.8046875

> <r_mmod_Torsional_Energy-OPLS-2005>
292.916564941406

> <r_mmod_Improper_Torsional_Energy-OPLS-2005>
9.10734081268311

> <r_mmod_Van_der_Waal_Energy-OPLS-2005>
160.41813659668

> <r_mmod_Electrostatic_Energy-OPLS-2005>
-354.570861816406

> <r_mmod_Solvation_Energy-OPLS-2005>
-223.969696044922

> <b_mmod_Minimization_Converged-OPLS-2005>
0

> <r_mmod_RMS_Derivative-OPLS-2005>
1.1937301158905

$$$$
6
                    3D
 Structure written by MMmdl.
161169  0  0  1  0            999 V2000
  -30.6274  -14.5587   20.5523 C   0  0  0  0  0  0
  -30.4489  -12.3504   19.4275 C   0  0  0  0  0  0
  -29.5099  -12.5093   18.2107 C   0  0  0  0  0  0
  -28.0298  -12.3536   18.6228 C   0  0  0  0  0  0
  -27.6649  -13.1972   19.8712 C   0  0  2  0  0  0
  -28.7086  -12.9832   20.9911 C   0  0  0  0  0  0
  -25.2651  -13.8158   20.5634 C   0  0  0  0  0  0
  -24.1886  -13.0471   20.9173 C   0  0  0  0  0  0
  -24.6383  -11.6922   20.8724 C   0  0  0  0  0  0
  -23.9025  -10.4319   21.0409 C   0  0  0  0  0  0
  -24.3585   -9.4241   21.9202 C   0  0  0  0  0  0
  -23.6270   -8.2272   22.0754 C   0  0  0  0  0  0
  -22.4268   -8.0287   21.3529 C   0  0  0  0  0  0
  -21.9876   -9.0276   20.4650 C   0  0  0  0  0  0
  -22.7179  -10.2170   20.3072 C   0  0  0  0  0  0
  -21.6871   -6.0733   22.5259 C   0  0  0  0  0  0
  -21.4033   -6.5638   23.8193 C   0  0  0  0  0  0
  -21.3653   -5.6783   24.9147 C   0  0  0  0  0  0
  -21.6047   -4.3053   24.7189 C   0  0  0  0  0  0
  -21.8829   -3.8133   23.4318 C   0  0  0  0  0  0
  -21.9203   -4.6953   22.3379 C   0  0  0  0  0  0
  -22.7900  -13.5307   21.1807 C   0  0  0  0  0  0
  -22.1678   -4.2140   21.0953 F   0  0  0  0  0  0
  -21.5607   -3.4538   25.7710 F   0  0  0  0  0  0
  -30.0358  -13.3319   20.4441 N   0  0  0  0  0  0
  -26.3045  -12.9275   20.3323 N   0  0  0  0  0  0
  -25.9317  -11.6450   20.5778 N   0  0  0  0  0  0
  -22.0484  -12.8374   22.0357 N   0  0  0  0  0  0
  -25.4451  -15.1854   20.3941 N   0  0  0  0  0  0
  -31.7545  -14.8000   20.1002 O   0  0  0  0  0  0
  -21.6640   -6.8880   21.4232 O   0  0  0  0  0  0
  -22.3611  -14.5611   20.6609 O   0  0  0  0  0  0
  -24.6153  -31.8649   23.2079 C   0  0  0  0  0  0
  -25.9033  -32.4808   23.8398 C   0  0  1  0  0  0
  -27.2450  -27.4131   20.0954 C   0  0  0  0  0  0
  -25.5897  -33.8598   24.2332 N   0  0  0  0  0  0
  -23.4070  -30.4857   21.5481 C   0  0  2  0  0  0
  -24.8565  -28.9488   20.1148 C   0  0  0  0  0  0
  -22.7436  -29.4611   22.4968 C   0  0  0  0  0  0
  -18.0276  -28.1363   22.8467 C   0  0  0  0  0  0
  -24.1458  -36.7288   23.2624 C   0  0  0  0  0  0
  -25.9368  -30.8255   21.3621 C   0  0  0  0  0  0
  -26.0173  -29.4569   20.7095 C   0  0  0  0  0  0
  -27.2126  -28.6956   20.6994 C   0  0  0  0  0  0
  -26.0570  -26.9204   19.5052 C   0  0  0  0  0  0
  -24.8701  -27.6798   19.5130 C   0  0  0  0  0  0
  -23.6183  -29.8182   20.1638 C   0  0  0  0  0  0
  -25.4075  -36.3078   24.0334 C   0  0  1  0  0  0
  -20.5862  -28.3640   23.1286 C   0  0  2  0  0  0
  -20.6731  -26.9361   22.5408 C   0  0  0  0  0  0
  -19.5729  -26.6349   21.5182 C   0  0  0  0  0  0
  -18.1908  -26.7914   22.1585 C   0  0  0  0  0  0
  -19.1530  -28.8819   23.2867 C   0  0  0  0  0  0
  -18.9467  -30.1423   23.8890 C   0  0  0  0  0  0
  -17.6468  -30.6556   24.0558 C   0  0  0  0  0  0
  -25.9043  -34.9454   23.5135 C   0  0  0  0  0  0
  -16.5354  -29.9072   23.6312 C   0  0  0  0  0  0
  -16.7269  -28.6488   23.0336 C   0  0  0  0  0  0
  -26.4493  -31.6595   25.0722 C   0  0  0  0  0  0
  -25.3797  -31.3750   26.1524 C   0  0  0  0  0  0
  -27.0269  -30.3024   24.6066 C   0  0  0  0  0  0
  -27.6087  -32.4312   25.7448 C   0  0  0  0  0  0
  -27.5593  -37.1720   24.8425 C   0  0  0  0  0  0
  -21.4162  -29.3008   22.3709 N   0  0  0  0  0  0
  -26.4240  -37.3789   23.9478 N   0  0  0  0  0  0
  -24.6710  -31.0731   22.0987 N   0  0  0  0  0  0
  -23.4210  -28.8161   23.3009 O   0  0  0  0  0  0
  -28.3945  -26.6375   20.1509 O   0  0  0  0  0  0
  -26.5609  -34.8902   22.4705 O   0  0  0  0  0  0
  -23.5339  -32.1406   23.7457 O   0  0  0  0  0  0
  -30.5051  -19.2588   20.7137 C   0  0  0  0  0  0
  -30.7320  -17.8479   20.6650 C   0  0  0  0  0  0
  -28.4542  -17.4724   21.3758 C   0  0  0  0  0  0
  -29.2526  -19.7961   21.1219 C   0  0  0  0  0  0
  -29.7091  -16.9291   21.0206 C   0  0  0  0  0  0
  -28.2270  -18.8652   21.4295 C   0  0  0  0  0  0
  -30.6917  -24.8683   22.4879 C   0  0  0  0  0  0
  -30.6218  -24.2828   21.2812 C   0  0  0  0  0  0
  -28.6416  -25.7230   19.1485 C   0  0  0  0  0  0
  -29.0153  -21.2658   21.3249 C   0  0  0  0  0  0
  -29.0737  -24.4425   19.2992 C   0  0  0  0  0  0
  -29.2863  -23.5913   18.0565 C   0  0  0  0  0  0
  -29.3479  -23.7406   20.6513 C   0  0  1  0  0  0
  -28.2827  -21.6445   22.3762 N   0  0  0  0  0  0
  -29.8199  -15.4916   21.1085 N   0  0  0  0  0  0
  -29.4941  -22.2506   20.5178 N   0  3  0  0  0  0
  -27.0013  -19.2955   21.8248 F   0  0  0  0  0  0
  -31.4882  -12.4874   19.1270 H   0  0  0  0  0  0
  -30.3842  -11.3407   19.8382 H   0  0  0  0  0  0
  -29.7589  -11.7720   17.4445 H   0  0  0  0  0  0
  -29.6656  -13.4889   17.7583 H   0  0  0  0  0  0
  -27.8469  -11.2975   18.8212 H   0  0  0  0  0  0
  -27.3822  -12.6213   17.7873 H   0  0  0  0  0  0
  -27.7016  -14.2427   19.5675 H   0  0  0  0  0  0
  -28.7066  -11.9427   21.3187 H   0  0  0  0  0  0
  -28.4519  -13.5618   21.8788 H   0  0  0  0  0  0
  -25.2742   -9.5734   22.4765 H   0  0  0  0  0  0
  -23.9961   -7.4693   22.7518 H   0  0  0  0  0  0
  -21.0765   -8.8813   19.9015 H   0  0  0  0  0  0
  -22.3614  -10.9718   19.6186 H   0  0  0  0  0  0
  -21.2050   -7.6155   23.9681 H   0  0  0  0  0  0
  -21.1452   -6.0522   25.9044 H   0  0  0  0  0  0
  -22.0604   -2.7586   23.2830 H   0  0  0  0  0  0
  -22.4000  -12.0048   22.4845 H   0  0  0  0  0  0
  -21.1127  -13.1509   22.2498 H   0  0  0  0  0  0
  -24.6697  -15.8371   20.4514 H   0  0  0  0  0  0
  -26.2439  -15.5729   19.9069 H   0  0  0  0  0  0
  -26.7107  -32.5538   23.1167 H   0  0  0  0  0  0
  -25.0064  -33.9765   25.0489 H   0  0  0  0  0  0
  -22.6908  -31.2979   21.4081 H   0  0  0  0  0  0
  -23.3737  -35.9600   23.3184 H   0  0  0  0  0  0
  -24.3565  -36.9006   22.2060 H   0  0  0  0  0  0
  -23.7141  -37.6427   23.6709 H   0  0  0  0  0  0
  -26.0436  -31.5871   20.5888 H   0  0  0  0  0  0
  -26.8255  -30.8838   21.9778 H   0  0  0  0  0  0
  -28.1080  -29.0793   21.1665 H   0  0  0  0  0  0
  -26.0328  -25.9391   19.0534 H   0  0  0  0  0  0
  -23.9709  -27.2771   19.0645 H   0  0  0  0  0  0
  -23.7311  -30.5955   19.4072 H   0  0  0  0  0  0
  -22.7433  -29.2397   19.8640 H   0  0  0  0  0  0
  -25.1210  -36.1911   25.0814 H   0  0  0  0  0  0
  -20.9941  -28.3210   24.1406 H   0  0  0  0  0  0
  -20.5514  -26.2282   23.3615 H   0  0  0  0  0  0
  -21.6617  -26.7300   22.1277 H   0  0  0  0  0  0
  -19.6865  -25.6260   21.1194 H   0  0  0  0  0  0
  -19.6682  -27.3175   20.6727 H   0  0  0  0  0  0
  -17.4172  -26.6667   21.3989 H   0  0  0  0  0  0
  -18.0294  -26.0053   22.8975 H   0  0  0  0  0  0
  -19.7951  -30.7224   24.2269 H   0  0  0  0  0  0
  -17.5029  -31.6228   24.5172 H   0  0  0  0  0  0
  -15.5355  -30.2979   23.7618 H   0  0  0  0  0  0
  -15.8679  -28.0799   22.7053 H   0  0  0  0  0  0
  -24.5973  -30.7050   25.7954 H   0  0  0  0  0  0
  -24.9019  -32.2936   26.4954 H   0  0  0  0  0  0
  -25.8214  -30.8992   27.0289 H   0  0  0  0  0  0
  -26.2766  -29.6794   24.1191 H   0  0  0  0  0  0
  -27.4111  -29.7249   25.4476 H   0  0  0  0  0  0
  -27.8590  -30.4330   23.9146 H   0  0  0  0  0  0
  -27.2718  -33.3582   26.2100 H   0  0  0  0  0  0
  -28.3863  -32.6908   25.0253 H   0  0  0  0  0  0
  -28.0815  -31.8409   26.5302 H   0  0  0  0  0  0
  -28.2495  -38.0132   24.7645 H   0  0  0  0  0  0
  -28.1189  -36.2676   24.5972 H   0  0  0  0  0  0
  -27.2359  -37.1022   25.8826 H   0  0  0  0  0  0
  -20.9320  -29.8862   21.7046 H   0  0  0  0  0  0
  -26.0100  -38.2813   24.1668 H   0  0  0  0  0  0
  -31.3168  -19.9332   20.4774 H   0  0  0  0  0  0
  -31.7106  -17.4839   20.3850 H   0  0  0  0  0  0
  -27.6379  -16.8185   21.6458 H   0  0  0  0  0  0
  -31.6355  -25.2298   22.8747 H   0  0  0  0  0  0
  -29.8170  -24.9986   23.1098 H   0  0  0  0  0  0
  -31.5292  -24.1794   20.7022 H   0  0  0  0  0  0
  -28.4539  -26.1539   18.1725 H   0  0  0  0  0  0
  -29.1383  -24.1707   17.1431 H   0  0  0  0  0  0
  -28.5731  -22.7660   18.0336 H   0  0  0  0  0  0
  -30.2980  -23.1884   18.0261 H   0  0  0  0  0  0
  -28.5054  -23.9790   21.3040 H   0  0  0  0  0  0
  -27.7624  -20.9251   22.8600 H   0  0  0  0  0  0
  -28.0897  -22.6045   22.6013 H   0  0  0  0  0  0
  -28.9920  -15.0526   21.4795 H   0  0  0  0  0  0
  -29.9872  -21.9472   19.6885 H   0  0  0  0  0  0
  1 25  1  0  0  0
  1 30  2  0  0  0
  1 85  1  0  0  0
  2  3  1  0  0  0
  2 25  1  0  0  0
  2 88  1  0  0  0
  2 89  1  0  0  0
  3  4  1  0  0  0
  3 90  1  0  0  0
  3 91  1  0  0  0
  4  5  1  0  0  0
  4 92  1  0  0  0
  4 93  1  0  0  0
  5  6  1  0  0  0
  5 26  1  0  0  0
  5 94  1  0  0  0
  6 25  1  0  0  0
  6 95  1  0  0  0
  6 96  1  0  0  0
  7  8  2  0  0  0
  7 26  1  0  0  0
  7 29  1  0  0  0
  8  9  1  0  0  0
  8 22  1  0  0  0
  9 10  1  0  0  0
  9 27  2  0  0  0
 10 11  2  0  0  0
 10 15  1  0  0  0
 11 12  1  0  0  0
 11 97  1  0  0  0
 12 13  2  0  0  0
 12 98  1  0  0  0
 13 14  1  0  0  0
 13 31  1  0  0  0
 14 15  2  0  0  0
 14 99  1  0  0  0
 15100  1  0  0  0
 16 17  2  0  0  0
 16 21  1  0  0  0
 16 31  1  0  0  0
 17 18  1  0  0  0
 17101  1  0  0  0
 18 19  2  0  0  0
 18102  1  0  0  0
 19 20  1  0  0  0
 19 24  1  0  0  0
 20 21  2  0  0  0
 20103  1  0  0  0
 21 23  1  0  0  0
 22 28  1  0  0  0
 22 32  2  0  0  0
 26 27  1  0  0  0
 28104  1  0  0  0
 28105  1  0  0  0
 29106  1  0  0  0
 29107  1  0  0  0
 33 34  1  0  0  0
 33 66  1  0  0  0
 33 70  2  0  0  0
 34 36  1  0  0  0
 34 59  1  0  0  0
 34108  1  0  0  0
 35 44  2  0  0  0
 35 45  1  0  0  0
 35 68  1  0  0  0
 36 56  1  0  0  0
 36109  1  0  0  0
 37 39  1  0  0  0
 37 47  1  0  0  0
 37 66  1  0  0  0
 37110  1  0  0  0
 38 43  2  0  0  0
 38 46  1  0  0  0
 38 47  1  0  0  0
 39 64  1  0  0  0
 39 67  2  0  0  0
 40 52  1  0  0  0
 40 53  2  0  0  0
 40 58  1  0  0  0
 41111  1  0  0  0
 41112  1  0  0  0
 41113  1  0  0  0
 41 48  1  0  0  0
 42 43  1  0  0  0
 42 66  1  0  0  0
 42114  1  0  0  0
 42115  1  0  0  0
 43 44  1  0  0  0
 44116  1  0  0  0
 45 46  2  0  0  0
 45117  1  0  0  0
 46118  1  0  0  0
 47119  1  0  0  0
 47120  1  0  0  0
 48 56  1  0  0  0
 48 65  1  0  0  0
 48121  1  0  0  0
 49 50  1  0  0  0
 49 53  1  0  0  0
 49 64  1  0  0  0
 49122  1  0  0  0
 50 51  1  0  0  0
 50123  1  0  0  0
 50124  1  0  0  0
 51 52  1  0  0  0
 51125  1  0  0  0
 51126  1  0  0  0
 52127  1  0  0  0
 52128  1  0  0  0
 53 54  1  0  0  0
 54 55  2  0  0  0
 54129  1  0  0  0
 55 57  1  0  0  0
 55130  1  0  0  0
 56 69  2  0  0  0
 57 58  2  0  0  0
 57131  1  0  0  0
 58132  1  0  0  0
 59 60  1  0  0  0
 59 61  1  0  0  0
 59 62  1  0  0  0
 60133  1  0  0  0
 60134  1  0  0  0
 60135  1  0  0  0
 61136  1  0  0  0
 61137  1  0  0  0
 61138  1  0  0  0
 62139  1  0  0  0
 62140  1  0  0  0
 62141  1  0  0  0
 63 65  1  0  0  0
 63142  1  0  0  0
 63143  1  0  0  0
 63144  1  0  0  0
 64145  1  0  0  0
 65146  1  0  0  0
 68 79  1  0  0  0
 71 72  2  0  0  0
 71 74  1  0  0  0
 71147  1  0  0  0
 72 75  1  0  0  0
 72148  1  0  0  0
 73 75  2  0  0  0
 73 76  1  0  0  0
 73149  1  0  0  0
 74 76  2  0  0  0
 74 80  1  0  0  0
 75 85  1  0  0  0
 76 87  1  0  0  0
 77 78  2  0  0  0
 77150  1  0  0  0
 77151  1  0  0  0
 78152  1  0  0  0
 78 83  1  0  0  0
 79 81  2  0  0  0
 79153  1  0  0  0
 80 84  1  0  0  0
 80 86  2  0  0  0
 81 82  1  0  0  0
 81 83  1  0  0  0
 82154  1  0  0  0
 82155  1  0  0  0
 82156  1  0  0  0
 83 86  1  0  0  0
 83157  1  0  0  0
 84158  1  0  0  0
 84159  1  0  0  0
 85160  1  0  0  0
 86161  1  0  0  0
M  CHG  1  86   1
M  ISO  4   1 100  68 101  79 101  85 100
M  END
> <chiral flag>
0

> <version>
0

> <s_m_source_file>
/data/baiqing/PycharmProjects/Reinvent-master-3.2/result/LINK_invent/BTK/process_docking_weight1_custom_product_contain_oxygen_bond_distance_aromatic_linkinvent_7_9_3/rearranged_h_0063.sdf

> <i_m_source_file_index>
7

> <r_mmod_Potential_Energy-OPLS-2005>
-199.637756347656

> <r_mmod_Stretch_Energy-OPLS-2005>
51.2728576660156

> <r_mmod_Bend_Energy-OPLS-2005>
127.28296661377

> <r_mmod_Torsional_Energy-OPLS-2005>
204.763427734375

> <r_mmod_Improper_Torsional_Energy-OPLS-2005>
5.43733167648315

> <r_mmod_Van_der_Waal_Energy-OPLS-2005>
152.536605834961

> <r_mmod_Electrostatic_Energy-OPLS-2005>
-378.600738525391

> <r_mmod_Solvation_Energy-OPLS-2005>
-386.250030517578

> <b_mmod_Minimization_Converged-OPLS-2005>
0

> <r_mmod_RMS_Derivative-OPLS-2005>
4.42872905731201

$$$$
7
                    3D
 Structure written by MMmdl.
153161  0  0  1  0            999 V2000
  -30.7106  -14.5119   20.5495 C   0  0  0  0  0  0
  -30.4170  -12.3255   19.4371 C   0  0  0  0  0  0
  -29.4953  -12.5003   18.2134 C   0  0  0  0  0  0
  -28.0179  -12.3569   18.6262 C   0  0  0  0  0  0
  -27.6567  -13.2146   19.8691 C   0  0  2  0  0  0
  -28.7000  -13.0402   20.9969 C   0  0  0  0  0  0
  -25.2567  -13.8174   20.5685 C   0  0  0  0  0  0
  -24.1830  -13.0442   20.9190 C   0  0  0  0  0  0
  -24.6393  -11.6912   20.8739 C   0  0  0  0  0  0
  -23.9061  -10.4294   21.0402 C   0  0  0  0  0  0
  -24.3614   -9.4210   21.9181 C   0  0  0  0  0  0
  -23.6291   -8.2245   22.0752 C   0  0  0  0  0  0
  -22.4274   -8.0280   21.3543 C   0  0  0  0  0  0
  -21.9907   -9.0253   20.4648 C   0  0  0  0  0  0
  -22.7233  -10.2134   20.3053 C   0  0  0  0  0  0
  -21.6854   -6.0733   22.5279 C   0  0  0  0  0  0
  -21.4015   -6.5636   23.8212 C   0  0  0  0  0  0
  -21.3659   -5.6790   24.9174 C   0  0  0  0  0  0
  -21.6043   -4.3053   24.7225 C   0  0  0  0  0  0
  -21.8819   -3.8145   23.4347 C   0  0  0  0  0  0
  -21.9195   -4.6961   22.3403 C   0  0  0  0  0  0
  -22.7852  -13.5234   21.1848 C   0  0  0  0  0  0
  -22.1663   -4.2147   21.0980 F   0  0  0  0  0  0
  -21.5629   -3.4537   25.7739 F   0  0  0  0  0  0
  -30.0266  -13.3375   20.4351 N   0  0  0  0  0  0
  -26.3001  -12.9358   20.3347 N   0  0  0  0  0  0
  -25.9323  -11.6511   20.5765 N   0  0  0  0  0  0
  -22.0493  -12.8227   22.0405 N   0  0  0  0  0  0
  -25.4285  -15.1893   20.4080 N   0  0  0  0  0  0
  -31.8489  -14.6383   20.0920 O   0  0  0  0  0  0
  -21.6640   -6.8876   21.4241 O   0  0  0  0  0  0
  -22.3540  -14.5542   20.6698 O   0  0  0  0  0  0
  -24.6179  -31.8665   23.2091 C   0  0  0  0  0  0
  -25.9060  -32.4816   23.8394 C   0  0  1  0  0  0
  -27.2266  -27.4094   20.1011 C   0  0  0  0  0  0
  -25.5906  -33.8614   24.2324 N   0  0  0  0  0  0
  -23.4076  -30.4912   21.5496 C   0  0  2  0  0  0
  -24.8556  -28.9611   20.1078 C   0  0  0  0  0  0
  -22.7432  -29.4652   22.4967 C   0  0  0  0  0  0
  -18.0276  -28.1379   22.8490 C   0  0  0  0  0  0
  -24.1488  -36.7310   23.2637 C   0  0  0  0  0  0
  -25.9406  -30.8252   21.3675 C   0  0  0  0  0  0
  -26.0190  -29.4602   20.7095 C   0  0  0  0  0  0
  -27.2116  -28.6922   20.7036 C   0  0  0  0  0  0
  -26.0501  -26.9423   19.4755 C   0  0  0  0  0  0
  -24.8675  -27.7027   19.4845 C   0  0  0  0  0  0
  -23.6176  -29.8286   20.1625 C   0  0  0  0  0  0
  -25.4107  -36.3108   24.0338 C   0  0  1  0  0  0
  -20.5871  -28.3671   23.1306 C   0  0  2  0  0  0
  -20.6767  -26.9404   22.5416 C   0  0  0  0  0  0
  -19.5746  -26.6387   21.5211 C   0  0  0  0  0  0
  -18.1924  -26.7926   22.1622 C   0  0  0  0  0  0
  -19.1527  -28.8841   23.2896 C   0  0  0  0  0  0
  -18.9455  -30.1447   23.8906 C   0  0  0  0  0  0
  -17.6457  -30.6584   24.0564 C   0  0  0  0  0  0
  -25.9035  -34.9473   23.5127 C   0  0  0  0  0  0
  -16.5347  -29.9086   23.6327 C   0  0  0  0  0  0
  -16.7265  -28.6503   23.0348 C   0  0  0  0  0  0
  -26.4476  -31.6597   25.0729 C   0  0  0  0  0  0
  -25.3736  -31.3710   26.1475 C   0  0  0  0  0  0
  -27.0305  -30.3035   24.6119 C   0  0  0  0  0  0
  -27.6053  -32.4315   25.7489 C   0  0  0  0  0  0
  -27.5582  -37.1807   24.8463 C   0  0  0  0  0  0
  -21.4154  -29.3036   22.3708 N   0  0  0  0  0  0
  -26.4292  -37.3794   23.9412 N   0  0  0  0  0  0
  -24.6735  -31.0749   22.1002 N   0  0  0  0  0  0
  -23.4192  -28.8185   23.3013 O   0  0  0  0  0  0
  -28.3296  -26.5742   20.1523 O   0  0  0  0  0  0
  -26.5596  -34.8923   22.4687 O   0  0  0  0  0  0
  -23.5364  -32.1423   23.7470 O   0  0  0  0  0  0
  -32.1948  -18.6601   21.3924 C   0  0  0  0  0  0
  -31.2331  -19.6873   21.3923 C   0  0  0  0  0  0
  -31.8061  -17.3125   21.2750 C   0  0  0  0  0  0
  -29.4784  -18.0083   21.1263 C   0  0  0  0  0  0
  -29.8614  -19.3791   21.2664 C   0  0  0  0  0  0
  -30.4415  -16.9559   21.1269 C   0  0  0  0  0  0
  -28.7314  -24.1642   20.4439 C   0  0  0  0  0  0
  -28.0762  -25.3254   20.7051 C   0  0  0  0  0  0
  -28.8610  -20.4734   21.3844 C   0  0  0  0  0  0
  -28.2682  -22.9244   21.0873 C   0  0  0  0  0  0
  -30.0173  -15.5761   21.0299 N   0  0  0  0  0  0
  -29.0852  -21.7329   20.8951 N   0  0  0  0  0  0
  -27.7371  -20.1779   22.0483 N   0  3  0  0  0  0
  -27.2366  -22.8541   21.7695 O   0  0  0  0  0  0
  -31.4628  -12.4091   19.1358 H   0  0  0  0  0  0
  -30.3105  -11.3244   19.8576 H   0  0  0  0  0  0
  -29.7420  -11.7641   17.4472 H   0  0  0  0  0  0
  -29.6604  -13.4800   17.7616 H   0  0  0  0  0  0
  -27.8372  -11.3028   18.8397 H   0  0  0  0  0  0
  -27.3661  -12.6125   17.7898 H   0  0  0  0  0  0
  -27.6881  -14.2555   19.5466 H   0  0  0  0  0  0
  -28.6830  -12.0180   21.3779 H   0  0  0  0  0  0
  -28.4612  -13.6768   21.8501 H   0  0  0  0  0  0
  -25.2761   -9.5687   22.4753 H   0  0  0  0  0  0
  -24.0003   -7.4636   22.7469 H   0  0  0  0  0  0
  -21.0838   -8.8770   19.8954 H   0  0  0  0  0  0
  -22.3689  -10.9670   19.6160 H   0  0  0  0  0  0
  -21.2006   -7.6144   23.9713 H   0  0  0  0  0  0
  -21.1479   -6.0521   25.9077 H   0  0  0  0  0  0
  -22.0598   -2.7608   23.2849 H   0  0  0  0  0  0
  -22.4100  -11.9884   22.4790 H   0  0  0  0  0  0
  -21.1110  -13.1255   22.2608 H   0  0  0  0  0  0
  -24.6580  -15.8418   20.5044 H   0  0  0  0  0  0
  -26.2707  -15.6230   20.0523 H   0  0  0  0  0  0
  -26.7134  -32.5522   23.1158 H   0  0  0  0  0  0
  -25.0063  -33.9773   25.0474 H   0  0  0  0  0  0
  -22.6974  -31.3091   21.4117 H   0  0  0  0  0  0
  -23.3749  -35.9644   23.3305 H   0  0  0  0  0  0
  -24.3587  -36.8919   22.2052 H   0  0  0  0  0  0
  -23.7239  -37.6516   23.6647 H   0  0  0  0  0  0
  -26.0594  -31.5934   20.6021 H   0  0  0  0  0  0
  -26.8257  -30.8751   21.9899 H   0  0  0  0  0  0
  -28.1053  -29.0633   21.1855 H   0  0  0  0  0  0
  -26.0419  -25.9714   19.0002 H   0  0  0  0  0  0
  -23.9753  -27.3136   19.0133 H   0  0  0  0  0  0
  -23.7255  -30.6062   19.4055 H   0  0  0  0  0  0
  -22.7411  -29.2502   19.8652 H   0  0  0  0  0  0
  -25.1281  -36.1973   25.0830 H   0  0  0  0  0  0
  -20.9963  -28.3242   24.1427 H   0  0  0  0  0  0
  -20.5671  -26.2277   23.3605 H   0  0  0  0  0  0
  -21.6639  -26.7446   22.1209 H   0  0  0  0  0  0
  -19.6907  -25.6300   21.1234 H   0  0  0  0  0  0
  -19.6684  -27.3202   20.6744 H   0  0  0  0  0  0
  -17.4195  -26.6678   21.4022 H   0  0  0  0  0  0
  -18.0321  -26.0064   22.9013 H   0  0  0  0  0  0
  -19.7932  -30.7260   24.2279 H   0  0  0  0  0  0
  -17.5014  -31.6266   24.5165 H   0  0  0  0  0  0
  -15.5348  -30.2992   23.7646 H   0  0  0  0  0  0
  -15.8665  -28.0825   22.7058 H   0  0  0  0  0  0
  -24.5908  -30.7057   25.7813 H   0  0  0  0  0  0
  -24.8929  -32.2868   26.4923 H   0  0  0  0  0  0
  -25.8089  -30.8880   27.0233 H   0  0  0  0  0  0
  -26.2853  -29.6802   24.1163 H   0  0  0  0  0  0
  -27.4054  -29.7267   25.4584 H   0  0  0  0  0  0
  -27.8699  -30.4345   23.9286 H   0  0  0  0  0  0
  -27.2675  -33.3606   26.2090 H   0  0  0  0  0  0
  -28.3847  -32.6889   25.0305 H   0  0  0  0  0  0
  -28.0737  -31.8424   26.5383 H   0  0  0  0  0  0
  -28.2599  -38.0107   24.7522 H   0  0  0  0  0  0
  -28.1077  -36.2640   24.6268 H   0  0  0  0  0  0
  -27.2306  -37.1440   25.8867 H   0  0  0  0  0  0
  -20.9311  -29.8767   21.6940 H   0  0  0  0  0  0
  -26.0181  -38.2871   24.1415 H   0  0  0  0  0  0
  -33.2416  -18.9035   21.5080 H   0  0  0  0  0  0
  -31.5634  -20.7083   21.5285 H   0  0  0  0  0  0
  -32.5851  -16.5667   21.3201 H   0  0  0  0  0  0
  -28.4301  -17.7605   21.0324 H   0  0  0  0  0  0
  -29.5671  -24.1526   19.7607 H   0  0  0  0  0  0
  -27.2444  -25.3610   21.3997 H   0  0  0  0  0  0
  -29.0569  -15.3827   21.2673 H   0  0  0  0  0  0
  -29.9267  -21.7726   20.3423 H   0  0  0  0  0  0
  -27.6211  -19.2843   22.4984 H   0  0  0  0  0  0
  -27.0676  -20.9198   22.2135 H   0  0  0  0  0  0
  1 25  1  0  0  0
  1 30  2  0  0  0
  1 81  1  0  0  0
  2  3  1  0  0  0
  2 25  1  0  0  0
  2 85  1  0  0  0
  2 86  1  0  0  0
  3  4  1  0  0  0
  3 87  1  0  0  0
  3 88  1  0  0  0
  4  5  1  0  0  0
  4 89  1  0  0  0
  4 90  1  0  0  0
  5  6  1  0  0  0
  5 26  1  0  0  0
  5 91  1  0  0  0
  6 25  1  0  0  0
  6 92  1  0  0  0
  6 93  1  0  0  0
  7  8  2  0  0  0
  7 26  1  0  0  0
  7 29  1  0  0  0
  8  9  1  0  0  0
  8 22  1  0  0  0
  9 10  1  0  0  0
  9 27  2  0  0  0
 10 11  2  0  0  0
 10 15  1  0  0  0
 11 12  1  0  0  0
 11 94  1  0  0  0
 12 13  2  0  0  0
 12 95  1  0  0  0
 13 14  1  0  0  0
 13 31  1  0  0  0
 14 15  2  0  0  0
 14 96  1  0  0  0
 15 97  1  0  0  0
 16 17  2  0  0  0
 16 21  1  0  0  0
 16 31  1  0  0  0
 17 18  1  0  0  0
 17 98  1  0  0  0
 18 19  2  0  0  0
 18 99  1  0  0  0
 19 20  1  0  0  0
 19 24  1  0  0  0
 20 21  2  0  0  0
 20100  1  0  0  0
 21 23  1  0  0  0
 22 28  1  0  0  0
 22 32  2  0  0  0
 26 27  1  0  0  0
 28101  1  0  0  0
 28102  1  0  0  0
 29103  1  0  0  0
 29104  1  0  0  0
 33 34  1  0  0  0
 33 66  1  0  0  0
 33 70  2  0  0  0
 34 36  1  0  0  0
 34 59  1  0  0  0
 34105  1  0  0  0
 35 44  2  0  0  0
 35 45  1  0  0  0
 35 68  1  0  0  0
 36 56  1  0  0  0
 36106  1  0  0  0
 37 39  1  0  0  0
 37 47  1  0  0  0
 37 66  1  0  0  0
 37107  1  0  0  0
 38 43  2  0  0  0
 38 46  1  0  0  0
 38 47  1  0  0  0
 39 64  1  0  0  0
 39 67  2  0  0  0
 40 52  1  0  0  0
 40 53  2  0  0  0
 40 58  1  0  0  0
 41108  1  0  0  0
 41109  1  0  0  0
 41110  1  0  0  0
 41 48  1  0  0  0
 42 43  1  0  0  0
 42 66  1  0  0  0
 42111  1  0  0  0
 42112  1  0  0  0
 43 44  1  0  0  0
 44113  1  0  0  0
 45 46  2  0  0  0
 45114  1  0  0  0
 46115  1  0  0  0
 47116  1  0  0  0
 47117  1  0  0  0
 48 56  1  0  0  0
 48 65  1  0  0  0
 48118  1  0  0  0
 49 50  1  0  0  0
 49 53  1  0  0  0
 49 64  1  0  0  0
 49119  1  0  0  0
 50 51  1  0  0  0
 50120  1  0  0  0
 50121  1  0  0  0
 51 52  1  0  0  0
 51122  1  0  0  0
 51123  1  0  0  0
 52124  1  0  0  0
 52125  1  0  0  0
 53 54  1  0  0  0
 54 55  2  0  0  0
 54126  1  0  0  0
 55 57  1  0  0  0
 55127  1  0  0  0
 56 69  2  0  0  0
 57 58  2  0  0  0
 57128  1  0  0  0
 58129  1  0  0  0
 59 60  1  0  0  0
 59 61  1  0  0  0
 59 62  1  0  0  0
 60130  1  0  0  0
 60131  1  0  0  0
 60132  1  0  0  0
 61133  1  0  0  0
 61134  1  0  0  0
 61135  1  0  0  0
 62136  1  0  0  0
 62137  1  0  0  0
 62138  1  0  0  0
 63 65  1  0  0  0
 63139  1  0  0  0
 63140  1  0  0  0
 63141  1  0  0  0
 64142  1  0  0  0
 65143  1  0  0  0
 68 78  1  0  0  0
 71 72  2  0  0  0
 71 73  1  0  0  0
 71144  1  0  0  0
 72 75  1  0  0  0
 72145  1  0  0  0
 73 76  2  0  0  0
 73146  1  0  0  0
 74 75  2  0  0  0
 74 76  1  0  0  0
 74147  1  0  0  0
 75 79  1  0  0  0
 76 81  1  0  0  0
 77 78  2  0  0  0
 77 80  1  0  0  0
 77148  1  0  0  0
 78149  1  0  0  0
 79 82  1  0  0  0
 79 83  2  0  0  0
 80 82  1  0  0  0
 80 84  2  0  0  0
 81150  1  0  0  0
 82151  1  0  0  0
 83152  1  0  0  0
 83153  1  0  0  0
M  CHG  1  83   1
M  ISO  4   1 100  68 101  78 101  81 100
M  END
> <chiral flag>
0

> <version>
0

> <s_m_source_file>
/data/baiqing/PycharmProjects/Reinvent-master-3.2/result/LINK_invent/BTK/process_docking_weight1_custom_product_contain_oxygen_bond_distance_aromatic_linkinvent_7_9_3/rearranged_h_0063.sdf

> <i_m_source_file_index>
8

> <r_mmod_Potential_Energy-OPLS-2005>
-327.333862304688

> <r_mmod_Stretch_Energy-OPLS-2005>
48.3747406005859

> <r_mmod_Bend_Energy-OPLS-2005>
108.045135498047

> <r_mmod_Torsional_Energy-OPLS-2005>
212.050476074219

> <r_mmod_Improper_Torsional_Energy-OPLS-2005>
4.75299310684204

> <r_mmod_Van_der_Waal_Energy-OPLS-2005>
175.821975708008

> <r_mmod_Electrostatic_Energy-OPLS-2005>
-450.543334960938

> <r_mmod_Solvation_Energy-OPLS-2005>
-447.629608154297

> <b_mmod_Minimization_Converged-OPLS-2005>
0

> <r_mmod_RMS_Derivative-OPLS-2005>
0.372897505760193

$$$$
8
                    3D
 Structure written by MMmdl.
163171  0  0  1  0            999 V2000
  -30.6708  -14.5041   20.5506 C   0  0  0  0  0  0
  -30.4347  -12.3159   19.4306 C   0  0  0  0  0  0
  -29.4997  -12.4893   18.2127 C   0  0  0  0  0  0
  -28.0208  -12.3379   18.6268 C   0  0  0  0  0  0
  -27.6620  -13.1833   19.8753 C   0  0  2  0  0  0
  -28.7064  -12.9849   20.9995 C   0  0  0  0  0  0
  -25.2604  -13.8091   20.5691 C   0  0  0  0  0  0
  -24.1840  -13.0395   20.9194 C   0  0  0  0  0  0
  -24.6371  -11.6867   20.8755 C   0  0  0  0  0  0
  -23.9038  -10.4271   21.0420 C   0  0  0  0  0  0
  -24.3597   -9.4194   21.9199 C   0  0  0  0  0  0
  -23.6283   -8.2224   22.0760 C   0  0  0  0  0  0
  -22.4265   -8.0269   21.3543 C   0  0  0  0  0  0
  -21.9896   -9.0239   20.4639 C   0  0  0  0  0  0
  -22.7218  -10.2123   20.3058 C   0  0  0  0  0  0
  -21.6844   -6.0740   22.5278 C   0  0  0  0  0  0
  -21.4010   -6.5644   23.8213 C   0  0  0  0  0  0
  -21.3657   -5.6795   24.9173 C   0  0  0  0  0  0
  -21.6040   -4.3057   24.7222 C   0  0  0  0  0  0
  -21.8821   -3.8151   23.4340 C   0  0  0  0  0  0
  -21.9194   -4.6971   22.3398 C   0  0  0  0  0  0
  -22.7872  -13.5227   21.1841 C   0  0  0  0  0  0
  -22.1662   -4.2156   21.0977 F   0  0  0  0  0  0
  -21.5629   -3.4542   25.7736 F   0  0  0  0  0  0
  -30.0365  -13.3022   20.4474 N   0  0  0  0  0  0
  -26.3023  -12.9219   20.3374 N   0  0  0  0  0  0
  -25.9298  -11.6411   20.5804 N   0  0  0  0  0  0
  -22.0496  -12.8228   22.0386 N   0  0  0  0  0  0
  -25.4299  -15.1812   20.4147 N   0  0  0  0  0  0
  -31.7946  -14.7181   20.0869 O   0  0  0  0  0  0
  -21.6625   -6.8874   21.4240 O   0  0  0  0  0  0
  -22.3585  -14.5551   20.6702 O   0  0  0  0  0  0
  -24.6128  -31.8658   23.2056 C   0  0  0  0  0  0
  -25.8999  -32.4813   23.8366 C   0  0  1  0  0  0
  -27.2532  -27.4283   20.1067 C   0  0  0  0  0  0
  -25.5866  -33.8616   24.2303 N   0  0  0  0  0  0
  -23.4014  -30.4865   21.5462 C   0  0  2  0  0  0
  -24.8507  -28.9450   20.1182 C   0  0  0  0  0  0
  -22.7397  -29.4651   22.4967 C   0  0  0  0  0  0
  -18.0268  -28.1367   22.8472 C   0  0  0  0  0  0
  -24.1497  -36.7318   23.2646 C   0  0  0  0  0  0
  -25.9261  -30.8354   21.3506 C   0  0  0  0  0  0
  -26.0076  -29.4639   20.7097 C   0  0  0  0  0  0
  -27.2051  -28.7132   20.6988 C   0  0  0  0  0  0
  -26.0677  -26.9186   19.5203 C   0  0  0  0  0  0
  -24.8751  -27.6718   19.5219 C   0  0  0  0  0  0
  -23.6091  -29.8077   20.1635 C   0  0  0  0  0  0
  -25.4116  -36.3117   24.0348 C   0  0  1  0  0  0
  -20.5854  -28.3656   23.1289 C   0  0  2  0  0  0
  -20.6776  -26.9397   22.5387 C   0  0  0  0  0  0
  -19.5765  -26.6386   21.5174 C   0  0  0  0  0  0
  -18.1937  -26.7921   22.1590 C   0  0  0  0  0  0
  -19.1517  -28.8825   23.2894 C   0  0  0  0  0  0
  -18.9458  -30.1432   23.8906 C   0  0  0  0  0  0
  -17.6468  -30.6582   24.0555 C   0  0  0  0  0  0
  -25.9040  -34.9477   23.5125 C   0  0  0  0  0  0
  -16.5357  -29.9091   23.6318 C   0  0  0  0  0  0
  -16.7263  -28.6502   23.0328 C   0  0  0  0  0  0
  -26.4454  -31.6597   25.0674 C   0  0  0  0  0  0
  -25.3723  -31.3673   26.1418 C   0  0  0  0  0  0
  -27.0290  -30.3070   24.5974 C   0  0  0  0  0  0
  -27.6040  -32.4303   25.7430 C   0  0  0  0  0  0
  -27.5591  -37.1806   24.8468 C   0  0  0  0  0  0
  -21.4128  -29.3034   22.3705 N   0  0  0  0  0  0
  -26.4308  -37.3792   23.9410 N   0  0  0  0  0  0
  -24.6661  -31.0757   22.0957 N   0  0  0  0  0  0
  -23.4167  -28.8206   23.3020 O   0  0  0  0  0  0
  -28.4694  -26.7613   20.1211 O   0  0  0  0  0  0
  -26.5608  -34.8926   22.4687 O   0  0  0  0  0  0
  -23.5310  -32.1400   23.7450 O   0  0  0  0  0  0
  -28.6205  -17.0659   19.7612 C   0  0  0  0  0  0
  -28.3864  -18.3391   19.2160 C   0  0  0  0  0  0
  -30.6487  -17.8888   20.8224 C   0  0  0  0  0  0
  -30.4018  -19.1991   20.3066 C   0  0  0  0  0  0
  -29.7691  -16.8090   20.5394 C   0  0  0  0  0  0
  -29.2761  -19.3964   19.4649 C   0  0  0  0  0  0
  -30.0013  -22.2596   21.0514 C   0  0  0  0  0  0
  -31.3478  -20.3356   20.6273 C   0  0  0  0  0  0
  -31.6600  -24.0062   23.2127 C   0  0  0  0  0  0
  -28.5689  -24.4496   21.0472 C   0  0  0  0  0  0
  -28.5943  -25.3658   19.7904 C   0  0  0  0  0  0
  -29.9263  -23.7555   21.4137 C   0  0  1  0  0  0
  -31.1266  -21.6549   20.9287 N   0  0  0  0  0  0
  -29.9262  -15.4924   21.0880 N   0  0  0  0  0  0
  -32.6112  -20.0539   20.5953 N   0  3  0  0  0  0
  -30.2245  -23.9020   22.8610 N   0  3  0  0  0  0
  -29.0266  -20.5932   18.8726 F   0  0  0  0  0  0
  -31.4768  -12.4320   19.1278 H   0  0  0  0  0  0
  -30.3526  -11.3070   19.8398 H   0  0  0  0  0  0
  -29.7455  -11.7555   17.4447 H   0  0  0  0  0  0
  -29.6571  -13.4697   17.7616 H   0  0  0  0  0  0
  -27.8393  -11.2815   18.8337 H   0  0  0  0  0  0
  -27.3679  -12.6013   17.7939 H   0  0  0  0  0  0
  -27.6996  -14.2164   19.5502 H   0  0  0  0  0  0
  -28.6960  -11.9508   21.3499 H   0  0  0  0  0  0
  -28.4576  -13.5862   21.8745 H   0  0  0  0  0  0
  -25.2742   -9.5682   22.4769 H   0  0  0  0  0  0
  -23.9992   -7.4624   22.7480 H   0  0  0  0  0  0
  -21.0831   -8.8764   19.8940 H   0  0  0  0  0  0
  -22.3689  -10.9666   19.6165 H   0  0  0  0  0  0
  -21.2000   -7.6151   23.9720 H   0  0  0  0  0  0
  -21.1473   -6.0521   25.9076 H   0  0  0  0  0  0
  -22.0602   -2.7613   23.2838 H   0  0  0  0  0  0
  -22.4096  -11.9879   22.4742 H   0  0  0  0  0  0
  -21.1119  -13.1270   22.2583 H   0  0  0  0  0  0
  -24.6570  -15.8287   20.5275 H   0  0  0  0  0  0
  -26.2780  -15.6295   20.0996 H   0  0  0  0  0  0
  -26.7072  -32.5556   23.1152 H   0  0  0  0  0  0
  -25.0005  -33.9768   25.0440 H   0  0  0  0  0  0
  -22.6918  -31.3045   21.4016 H   0  0  0  0  0  0
  -23.3755  -35.9657   23.3315 H   0  0  0  0  0  0
  -24.3591  -36.8914   22.2057 H   0  0  0  0  0  0
  -23.7248  -37.6521   23.6647 H   0  0  0  0  0  0
  -26.0117  -31.5939   20.5709 H   0  0  0  0  0  0
  -26.8251  -30.9090   21.9528 H   0  0  0  0  0  0
  -28.1019  -29.1173   21.1499 H   0  0  0  0  0  0
  -26.0320  -25.9478   19.0492 H   0  0  0  0  0  0
  -23.9841  -27.2648   19.0624 H   0  0  0  0  0  0
  -23.7079  -30.5763   19.3951 H   0  0  0  0  0  0
  -22.7353  -29.2175   19.8783 H   0  0  0  0  0  0
  -25.1291  -36.1998   25.0845 H   0  0  0  0  0  0
  -20.9958  -28.3254   24.1400 H   0  0  0  0  0  0
  -20.5661  -26.2285   23.3582 H   0  0  0  0  0  0
  -21.6657  -26.7443   22.1191 H   0  0  0  0  0  0
  -19.6944  -25.6294   21.1203 H   0  0  0  0  0  0
  -19.6716  -27.3200   20.6704 H   0  0  0  0  0  0
  -17.4203  -26.6627   21.3998 H   0  0  0  0  0  0
  -18.0374  -26.0059   22.8983 H   0  0  0  0  0  0
  -19.7953  -30.7222   24.2301 H   0  0  0  0  0  0
  -17.5038  -31.6266   24.5154 H   0  0  0  0  0  0
  -15.5361  -30.2995   23.7659 H   0  0  0  0  0  0
  -15.8655  -28.0851   22.7017 H   0  0  0  0  0  0
  -24.5896  -30.7028   25.7738 H   0  0  0  0  0  0
  -24.8905  -32.2813   26.4890 H   0  0  0  0  0  0
  -25.8070  -30.8813   27.0164 H   0  0  0  0  0  0
  -26.2801  -29.6812   24.1096 H   0  0  0  0  0  0
  -27.4195  -29.7312   25.4373 H   0  0  0  0  0  0
  -27.8573  -30.4438   23.9016 H   0  0  0  0  0  0
  -27.2683  -33.3600   26.2034 H   0  0  0  0  0  0
  -28.3836  -32.6862   25.0239 H   0  0  0  0  0  0
  -28.0726  -31.8403   26.5308 H   0  0  0  0  0  0
  -28.2616  -38.0101   24.7526 H   0  0  0  0  0  0
  -28.1097  -36.2631   24.6316 H   0  0  0  0  0  0
  -27.2307  -37.1469   25.8873 H   0  0  0  0  0  0
  -20.9276  -29.8759   21.6928 H   0  0  0  0  0  0
  -26.0212  -38.2881   24.1404 H   0  0  0  0  0  0
  -27.9025  -16.2941   19.5531 H   0  0  0  0  0  0
  -27.5167  -18.5085   18.5991 H   0  0  0  0  0  0
  -31.5047  -17.7151   21.4542 H   0  0  0  0  0  0
  -29.0333  -21.7619   20.9413 H   0  0  0  0  0  0
  -31.7775  -24.1005   24.2914 H   0  0  0  0  0  0
  -32.1167  -24.8845   22.7570 H   0  0  0  0  0  0
  -32.2244  -23.1271   22.8992 H   0  0  0  0  0  0
  -27.7832  -23.7027   20.9251 H   0  0  0  0  0  0
  -28.2260  -25.0555   21.8866 H   0  0  0  0  0  0
  -27.8795  -25.0272   19.0462 H   0  0  0  0  0  0
  -29.5531  -25.2648   19.2808 H   0  0  0  0  0  0
  -30.7231  -24.2669   20.8695 H   0  0  0  0  0  0
  -29.0840  -15.1131   21.4941 H   0  0  0  0  0  0
  -32.9803  -19.1424   20.3309 H   0  0  0  0  0  0
  -33.3175  -20.7549   20.8002 H   0  0  0  0  0  0
  -29.7773  -24.7379   23.1974 H   0  0  0  0  0  0
  -29.8279  -23.1190   23.3567 H   0  0  0  0  0  0
  1 25  1  0  0  0
  1 30  2  0  0  0
  1 84  1  0  0  0
  2  3  1  0  0  0
  2 25  1  0  0  0
  2 88  1  0  0  0
  2 89  1  0  0  0
  3  4  1  0  0  0
  3 90  1  0  0  0
  3 91  1  0  0  0
  4  5  1  0  0  0
  4 92  1  0  0  0
  4 93  1  0  0  0
  5  6  1  0  0  0
  5 26  1  0  0  0
  5 94  1  0  0  0
  6 25  1  0  0  0
  6 95  1  0  0  0
  6 96  1  0  0  0
  7  8  2  0  0  0
  7 26  1  0  0  0
  7 29  1  0  0  0
  8  9  1  0  0  0
  8 22  1  0  0  0
  9 10  1  0  0  0
  9 27  2  0  0  0
 10 11  2  0  0  0
 10 15  1  0  0  0
 11 12  1  0  0  0
 11 97  1  0  0  0
 12 13  2  0  0  0
 12 98  1  0  0  0
 13 14  1  0  0  0
 13 31  1  0  0  0
 14 15  2  0  0  0
 14 99  1  0  0  0
 15100  1  0  0  0
 16 17  2  0  0  0
 16 21  1  0  0  0
 16 31  1  0  0  0
 17 18  1  0  0  0
 17101  1  0  0  0
 18 19  2  0  0  0
 18102  1  0  0  0
 19 20  1  0  0  0
 19 24  1  0  0  0
 20 21  2  0  0  0
 20103  1  0  0  0
 21 23  1  0  0  0
 22 28  1  0  0  0
 22 32  2  0  0  0
 26 27  1  0  0  0
 28104  1  0  0  0
 28105  1  0  0  0
 29106  1  0  0  0
 29107  1  0  0  0
 33 34  1  0  0  0
 33 66  1  0  0  0
 33 70  2  0  0  0
 34 36  1  0  0  0
 34 59  1  0  0  0
 34108  1  0  0  0
 35 44  2  0  0  0
 35 45  1  0  0  0
 35 68  1  0  0  0
 36 56  1  0  0  0
 36109  1  0  0  0
 37 39  1  0  0  0
 37 47  1  0  0  0
 37 66  1  0  0  0
 37110  1  0  0  0
 38 43  2  0  0  0
 38 46  1  0  0  0
 38 47  1  0  0  0
 39 64  1  0  0  0
 39 67  2  0  0  0
 40 52  1  0  0  0
 40 53  2  0  0  0
 40 58  1  0  0  0
 41111  1  0  0  0
 41112  1  0  0  0
 41113  1  0  0  0
 41 48  1  0  0  0
 42 43  1  0  0  0
 42 66  1  0  0  0
 42114  1  0  0  0
 42115  1  0  0  0
 43 44  1  0  0  0
 44116  1  0  0  0
 45 46  2  0  0  0
 45117  1  0  0  0
 46118  1  0  0  0
 47119  1  0  0  0
 47120  1  0  0  0
 48 56  1  0  0  0
 48 65  1  0  0  0
 48121  1  0  0  0
 49 50  1  0  0  0
 49 53  1  0  0  0
 49 64  1  0  0  0
 49122  1  0  0  0
 50 51  1  0  0  0
 50123  1  0  0  0
 50124  1  0  0  0
 51 52  1  0  0  0
 51125  1  0  0  0
 51126  1  0  0  0
 52127  1  0  0  0
 52128  1  0  0  0
 53 54  1  0  0  0
 54 55  2  0  0  0
 54129  1  0  0  0
 55 57  1  0  0  0
 55130  1  0  0  0
 56 69  2  0  0  0
 57 58  2  0  0  0
 57131  1  0  0  0
 58132  1  0  0  0
 59 60  1  0  0  0
 59 61  1  0  0  0
 59 62  1  0  0  0
 60133  1  0  0  0
 60134  1  0  0  0
 60135  1  0  0  0
 61136  1  0  0  0
 61137  1  0  0  0
 61138  1  0  0  0
 62139  1  0  0  0
 62140  1  0  0  0
 62141  1  0  0  0
 63 65  1  0  0  0
 63142  1  0  0  0
 63143  1  0  0  0
 63144  1  0  0  0
 64145  1  0  0  0
 65146  1  0  0  0
 68 81  1  0  0  0
 71 72  2  0  0  0
 71 75  1  0  0  0
 71147  1  0  0  0
 72 76  1  0  0  0
 72148  1  0  0  0
 73 74  1  0  0  0
 73 75  2  0  0  0
 73149  1  0  0  0
 74 76  2  0  0  0
 74 78  1  0  0  0
 75 84  1  0  0  0
 76 87  1  0  0  0
 77 82  1  0  0  0
 77 83  2  0  0  0
 77150  1  0  0  0
 78 83  1  0  0  0
 78 85  2  0  0  0
 79 86  1  0  0  0
 79151  1  0  0  0
 79152  1  0  0  0
 79153  1  0  0  0
 80 81  1  0  0  0
 80154  1  0  0  0
 80155  1  0  0  0
 80 82  1  0  0  0
 81156  1  0  0  0
 81157  1  0  0  0
 82 86  1  0  0  0
 82158  1  0  0  0
 84159  1  0  0  0
 85160  1  0  0  0
 85161  1  0  0  0
 86162  1  0  0  0
 86163  1  0  0  0
M  CHG  2  85   1  86   1
M  ISO  4   1 100  68 101  81 101  84 100
M  END
> <chiral flag>
0

> <version>
0

> <s_m_source_file>
/data/baiqing/PycharmProjects/Reinvent-master-3.2/result/LINK_invent/BTK/process_docking_weight1_custom_product_contain_oxygen_bond_distance_aromatic_linkinvent_7_9_3/rearranged_h_0063.sdf

> <i_m_source_file_index>
9

> <r_mmod_Potential_Energy-OPLS-2005>
-105.463470458984

> <r_mmod_Stretch_Energy-OPLS-2005>
50.5295448303223

> <r_mmod_Bend_Energy-OPLS-2005>
138.797668457031

> <r_mmod_Torsional_Energy-OPLS-2005>
270.808563232422

> <r_mmod_Improper_Torsional_Energy-OPLS-2005>
6.56693315505981

> <r_mmod_Van_der_Waal_Energy-OPLS-2005>
154.978591918945

> <r_mmod_Electrostatic_Energy-OPLS-2005>
196.795333862305

> <r_mmod_Solvation_Energy-OPLS-2005>
-939.633117675781

> <b_mmod_Minimization_Converged-OPLS-2005>
0

> <r_mmod_RMS_Derivative-OPLS-2005>
2.66203284263611

$$$$
9
                    3D
 Structure written by MMmdl.
155163  0  0  1  0            999 V2000
  -30.5726  -14.8151   20.4116 C   0  0  0  0  0  0
  -30.4371  -12.4801   19.5047 C   0  0  0  0  0  0
  -29.5222  -12.4548   18.2588 C   0  0  0  0  0  0
  -28.0411  -12.3164   18.6623 C   0  0  0  0  0  0
  -27.6383  -13.2364   19.8471 C   0  0  2  0  0  0
  -28.6784  -13.2053   20.9869 C   0  0  0  0  0  0
  -25.2489  -13.8215   20.5701 C   0  0  0  0  0  0
  -24.1786  -13.0444   20.9208 C   0  0  0  0  0  0
  -24.6391  -11.6927   20.8757 C   0  0  0  0  0  0
  -23.9077  -10.4297   21.0421 C   0  0  0  0  0  0
  -24.3631   -9.4207   21.9195 C   0  0  0  0  0  0
  -23.6300   -8.2244   22.0766 C   0  0  0  0  0  0
  -22.4283   -8.0282   21.3552 C   0  0  0  0  0  0
  -21.9922   -9.0258   20.4653 C   0  0  0  0  0  0
  -22.7253  -10.2134   20.3062 C   0  0  0  0  0  0
  -21.6849   -6.0736   22.5281 C   0  0  0  0  0  0
  -21.4014   -6.5644   23.8212 C   0  0  0  0  0  0
  -21.3658   -5.6799   24.9177 C   0  0  0  0  0  0
  -21.6045   -4.3061   24.7227 C   0  0  0  0  0  0
  -21.8817   -3.8147   23.4347 C   0  0  0  0  0  0
  -21.9193   -4.6966   22.3404 C   0  0  0  0  0  0
  -22.7807  -13.5221   21.1860 C   0  0  0  0  0  0
  -22.1663   -4.2152   21.0981 F   0  0  0  0  0  0
  -21.5627   -3.4543   25.7739 F   0  0  0  0  0  0
  -29.9735  -13.5688   20.4028 N   0  0  0  0  0  0
  -26.2917  -12.9429   20.3279 N   0  0  0  0  0  0
  -25.9323  -11.6569   20.5784 N   0  0  0  0  0  0
  -22.0461  -12.8200   22.0412 N   0  0  0  0  0  0
  -25.4167  -15.1937   20.4114 N   0  0  0  0  0  0
  -31.7667  -14.8993   20.1051 O   0  0  0  0  0  0
  -21.6641   -6.8883   21.4246 O   0  0  0  0  0  0
  -22.3491  -14.5530   20.6714 O   0  0  0  0  0  0
  -24.6358  -31.8530   23.1958 C   0  0  0  0  0  0
  -25.9169  -32.4743   23.8317 C   0  0  1  0  0  0
  -27.2175  -27.2236   20.1278 C   0  0  0  0  0  0
  -25.5957  -33.8545   24.2250 N   0  0  0  0  0  0
  -23.4334  -30.4758   21.5411 C   0  0  2  0  0  0
  -24.8789  -28.9197   20.1085 C   0  0  0  0  0  0
  -22.7521  -29.4594   22.4903 C   0  0  0  0  0  0
  -18.0301  -28.1385   22.8484 C   0  0  0  0  0  0
  -24.1487  -36.7262   23.2639 C   0  0  0  0  0  0
  -25.9824  -30.7539   21.3806 C   0  0  0  0  0  0
  -26.0528  -29.3735   20.7217 C   0  0  0  0  0  0
  -27.2210  -28.5379   20.7217 C   0  0  0  0  0  0
  -26.0120  -26.8484   19.4884 C   0  0  0  0  0  0
  -24.8656  -27.6663   19.4817 C   0  0  0  0  0  0
  -23.6517  -29.8112   20.1572 C   0  0  0  0  0  0
  -25.4118  -36.3061   24.0329 C   0  0  1  0  0  0
  -20.5908  -28.3704   23.1258 C   0  0  2  0  0  0
  -20.6788  -26.9420   22.5406 C   0  0  0  0  0  0
  -19.5764  -26.6386   21.5207 C   0  0  0  0  0  0
  -18.1943  -26.7930   22.1618 C   0  0  0  0  0  0
  -19.1553  -28.8864   23.2866 C   0  0  0  0  0  0
  -18.9474  -30.1465   23.8886 C   0  0  0  0  0  0
  -17.6471  -30.6586   24.0560 C   0  0  0  0  0  0
  -25.9066  -34.9434   23.5092 C   0  0  0  0  0  0
  -16.5363  -29.9081   23.6332 C   0  0  0  0  0  0
  -16.7286  -28.6497   23.0356 C   0  0  0  0  0  0
  -26.4522  -31.6569   25.0712 C   0  0  0  0  0  0
  -25.3733  -31.3712   26.1421 C   0  0  0  0  0  0
  -27.0387  -30.2992   24.6208 C   0  0  0  0  0  0
  -27.6070  -32.4309   25.7494 C   0  0  0  0  0  0
  -27.5579  -37.1792   24.8467 C   0  0  0  0  0  0
  -21.4224  -29.3046   22.3640 N   0  0  0  0  0  0
  -26.4286  -37.3767   23.9415 N   0  0  0  0  0  0
  -24.7034  -31.0462   22.0955 N   0  0  0  0  0  0
  -23.4205  -28.8141   23.3022 O   0  0  0  0  0  0
  -28.3065  -26.3064   20.2101 O   0  0  0  0  0  0
  -26.5630  -34.8915   22.4658 O   0  0  0  0  0  0
  -23.5500  -32.1373   23.7232 O   0  0  0  0  0  0
  -30.0638  -18.5734   17.8014 C   0  0  0  0  0  0
  -29.5442  -18.6255   20.5155 C   0  0  0  0  0  0
  -29.8947  -19.8242   18.4211 C   0  0  0  0  0  0
  -29.9757  -17.3502   18.4895 C   0  0  0  0  0  0
  -29.5258  -19.9139   19.7951 C   0  0  0  0  0  0
  -29.8143  -17.3104   19.9021 C   0  0  0  0  0  0
  -28.7505  -23.7712   20.4230 C   0  0  0  0  0  0
  -28.1989  -24.9175   19.8409 C   0  0  0  0  0  0
  -28.5486  -22.3666   19.8761 C   0  0  0  0  0  0
  -30.1609  -21.0367   17.5367 C   0  0  0  0  0  0
  -29.9815  -16.1010   17.6269 C   0  0  0  0  0  0
  -29.2713  -21.2796   20.3888 N   0  0  0  0  0  0
  -29.7870  -15.9660   20.5900 N   0  0  0  0  0  0
  -27.7112  -22.1582   18.9946 O   0  0  0  0  0  0
  -31.4776  -12.6079   19.2014 H   0  0  0  0  0  0
  -30.3981  -11.5233   20.0269 H   0  0  0  0  0  0
  -29.8030  -11.6243   17.6096 H   0  0  0  0  0  0
  -29.6696  -13.3504   17.6616 H   0  0  0  0  0  0
  -27.8840  -11.2737   18.9410 H   0  0  0  0  0  0
  -27.3943  -12.4986   17.8036 H   0  0  0  0  0  0
  -27.6217  -14.2501   19.4475 H   0  0  0  0  0  0
  -28.7256  -12.2169   21.4471 H   0  0  0  0  0  0
  -28.4023  -13.8994   21.7822 H   0  0  0  0  0  0
  -25.2780   -9.5681   22.4770 H   0  0  0  0  0  0
  -24.0005   -7.4635   22.7490 H   0  0  0  0  0  0
  -21.0856   -8.8782   19.8953 H   0  0  0  0  0  0
  -22.3722  -10.9678   19.6169 H   0  0  0  0  0  0
  -21.2010   -7.6153   23.9715 H   0  0  0  0  0  0
  -21.1482   -6.0533   25.9080 H   0  0  0  0  0  0
  -22.0596   -2.7609   23.2849 H   0  0  0  0  0  0
  -22.4094  -11.9859   22.4775 H   0  0  0  0  0  0
  -21.1079  -13.1212   22.2629 H   0  0  0  0  0  0
  -24.6440  -15.8430   20.5107 H   0  0  0  0  0  0
  -26.2616  -15.6360   20.0730 H   0  0  0  0  0  0
  -26.7230  -32.5380   23.1048 H   0  0  0  0  0  0
  -25.0130  -33.9679   25.0414 H   0  0  0  0  0  0
  -22.7320  -31.2998   21.3951 H   0  0  0  0  0  0
  -23.3769  -35.9573   23.3289 H   0  0  0  0  0  0
  -24.3576  -36.8897   22.2055 H   0  0  0  0  0  0
  -23.7215  -37.6449   23.6669 H   0  0  0  0  0  0
  -26.1251  -31.5115   20.6088 H   0  0  0  0  0  0
  -26.8591  -30.8035   22.0144 H   0  0  0  0  0  0
  -28.1176  -28.8780   21.2205 H   0  0  0  0  0  0
  -25.9011  -25.8887   19.0111 H   0  0  0  0  0  0
  -23.9658  -27.3098   18.9994 H   0  0  0  0  0  0
  -23.7772  -30.5882   19.4027 H   0  0  0  0  0  0
  -22.7680  -29.2481   19.8519 H   0  0  0  0  0  0
  -25.1296  -36.1907   25.0821 H   0  0  0  0  0  0
  -21.0004  -28.3288   24.1377 H   0  0  0  0  0  0
  -20.5697  -26.2312   23.3613 H   0  0  0  0  0  0
  -21.6656  -26.7443   22.1197 H   0  0  0  0  0  0
  -19.6931  -25.6298   21.1239 H   0  0  0  0  0  0
  -19.6703  -27.3194   20.6739 H   0  0  0  0  0  0
  -17.4219  -26.6688   21.4015 H   0  0  0  0  0  0
  -18.0336  -26.0069   22.9009 H   0  0  0  0  0  0
  -19.7948  -30.7283   24.2249 H   0  0  0  0  0  0
  -17.5024  -31.6266   24.5164 H   0  0  0  0  0  0
  -15.5363  -30.2978   23.7662 H   0  0  0  0  0  0
  -15.8686  -28.0810   22.7078 H   0  0  0  0  0  0
  -24.5944  -30.7019   25.7746 H   0  0  0  0  0  0
  -24.8879  -32.2873   26.4797 H   0  0  0  0  0  0
  -25.8050  -30.8935   27.0226 H   0  0  0  0  0  0
  -26.2986  -29.6719   24.1228 H   0  0  0  0  0  0
  -27.4078  -29.7266   25.4726 H   0  0  0  0  0  0
  -27.8851  -30.4276   23.9457 H   0  0  0  0  0  0
  -27.2693  -33.3638   26.2018 H   0  0  0  0  0  0
  -28.3913  -32.6819   25.0340 H   0  0  0  0  0  0
  -28.0697  -31.8460   26.5453 H   0  0  0  0  0  0
  -28.2585  -38.0101   24.7537 H   0  0  0  0  0  0
  -28.1090  -36.2635   24.6269 H   0  0  0  0  0  0
  -27.2299  -37.1407   25.8870 H   0  0  0  0  0  0
  -20.9420  -29.8752   21.6823 H   0  0  0  0  0  0
  -26.0164  -38.2837   24.1430 H   0  0  0  0  0  0
  -30.2592  -18.5519   16.7379 H   0  0  0  0  0  0
  -29.3357  -18.6459   21.5756 H   0  0  0  0  0  0
  -29.3535  -23.8907   21.3109 H   0  0  0  0  0  0
  -27.6182  -24.8014   18.9388 H   0  0  0  0  0  0
  -30.8193  -20.7759   16.7072 H   0  0  0  0  0  0
  -30.6585  -21.8359   18.0854 H   0  0  0  0  0  0
  -29.2373  -21.4162   17.1019 H   0  0  0  0  0  0
  -30.9310  -15.5713   17.6890 H   0  0  0  0  0  0
  -29.8048  -16.3361   16.5771 H   0  0  0  0  0  0
  -29.1681  -15.4476   17.9361 H   0  0  0  0  0  0
  -29.7483  -21.4651   21.2608 H   0  0  0  0  0  0
  -28.9343  -15.7861   21.0991 H   0  0  0  0  0  0
  1 25  1  0  0  0
  1 30  2  0  0  0
  1 83  1  0  0  0
  2  3  1  0  0  0
  2 25  1  0  0  0
  2 85  1  0  0  0
  2 86  1  0  0  0
  3  4  1  0  0  0
  3 87  1  0  0  0
  3 88  1  0  0  0
  4  5  1  0  0  0
  4 89  1  0  0  0
  4 90  1  0  0  0
  5  6  1  0  0  0
  5 26  1  0  0  0
  5 91  1  0  0  0
  6 25  1  0  0  0
  6 92  1  0  0  0
  6 93  1  0  0  0
  7  8  2  0  0  0
  7 26  1  0  0  0
  7 29  1  0  0  0
  8  9  1  0  0  0
  8 22  1  0  0  0
  9 10  1  0  0  0
  9 27  2  0  0  0
 10 11  2  0  0  0
 10 15  1  0  0  0
 11 12  1  0  0  0
 11 94  1  0  0  0
 12 13  2  0  0  0
 12 95  1  0  0  0
 13 14  1  0  0  0
 13 31  1  0  0  0
 14 15  2  0  0  0
 14 96  1  0  0  0
 15 97  1  0  0  0
 16 17  2  0  0  0
 16 21  1  0  0  0
 16 31  1  0  0  0
 17 18  1  0  0  0
 17 98  1  0  0  0
 18 19  2  0  0  0
 18 99  1  0  0  0
 19 20  1  0  0  0
 19 24  1  0  0  0
 20 21  2  0  0  0
 20100  1  0  0  0
 21 23  1  0  0  0
 22 28  1  0  0  0
 22 32  2  0  0  0
 26 27  1  0  0  0
 28101  1  0  0  0
 28102  1  0  0  0
 29103  1  0  0  0
 29104  1  0  0  0
 33 34  1  0  0  0
 33 66  1  0  0  0
 33 70  2  0  0  0
 34 36  1  0  0  0
 34 59  1  0  0  0
 34105  1  0  0  0
 35 44  2  0  0  0
 35 45  1  0  0  0
 35 68  1  0  0  0
 36 56  1  0  0  0
 36106  1  0  0  0
 37 39  1  0  0  0
 37 47  1  0  0  0
 37 66  1  0  0  0
 37107  1  0  0  0
 38 43  2  0  0  0
 38 46  1  0  0  0
 38 47  1  0  0  0
 39 64  1  0  0  0
 39 67  2  0  0  0
 40 52  1  0  0  0
 40 53  2  0  0  0
 40 58  1  0  0  0
 41108  1  0  0  0
 41109  1  0  0  0
 41110  1  0  0  0
 41 48  1  0  0  0
 42 43  1  0  0  0
 42 66  1  0  0  0
 42111  1  0  0  0
 42112  1  0  0  0
 43 44  1  0  0  0
 44113  1  0  0  0
 45 46  2  0  0  0
 45114  1  0  0  0
 46115  1  0  0  0
 47116  1  0  0  0
 47117  1  0  0  0
 48 56  1  0  0  0
 48 65  1  0  0  0
 48118  1  0  0  0
 49 50  1  0  0  0
 49 53  1  0  0  0
 49 64  1  0  0  0
 49119  1  0  0  0
 50 51  1  0  0  0
 50120  1  0  0  0
 50121  1  0  0  0
 51 52  1  0  0  0
 51122  1  0  0  0
 51123  1  0  0  0
 52124  1  0  0  0
 52125  1  0  0  0
 53 54  1  0  0  0
 54 55  2  0  0  0
 54126  1  0  0  0
 55 57  1  0  0  0
 55127  1  0  0  0
 56 69  2  0  0  0
 57 58  2  0  0  0
 57128  1  0  0  0
 58129  1  0  0  0
 59 60  1  0  0  0
 59 61  1  0  0  0
 59 62  1  0  0  0
 60130  1  0  0  0
 60131  1  0  0  0
 60132  1  0  0  0
 61133  1  0  0  0
 61134  1  0  0  0
 61135  1  0  0  0
 62136  1  0  0  0
 62137  1  0  0  0
 62138  1  0  0  0
 63 65  1  0  0  0
 63139  1  0  0  0
 63140  1  0  0  0
 63141  1  0  0  0
 64142  1  0  0  0
 65143  1  0  0  0
 68 78  1  0  0  0
 71 73  2  0  0  0
 71 74  1  0  0  0
 71144  1  0  0  0
 72 75  2  0  0  0
 72 76  1  0  0  0
 72145  1  0  0  0
 73 75  1  0  0  0
 73 80  1  0  0  0
 74 76  2  0  0  0
 74 81  1  0  0  0
 75 82  1  0  0  0
 76 83  1  0  0  0
 77 78  2  0  0  0
 77 79  1  0  0  0
 77146  1  0  0  0
 78147  1  0  0  0
 79 82  1  0  0  0
 79 84  2  0  0  0
 80148  1  0  0  0
 80149  1  0  0  0
 80150  1  0  0  0
 81151  1  0  0  0
 81152  1  0  0  0
 81153  1  0  0  0
 82154  1  0  0  0
 83155  1  0  0  0
M  ISO  4   1 100  68 101  78 101  83 100
M  END
> <chiral flag>
0

> <version>
0

> <s_m_source_file>
/data/baiqing/PycharmProjects/Reinvent-master-3.2/result/LINK_invent/BTK/process_docking_weight1_custom_product_contain_oxygen_bond_distance_aromatic_linkinvent_7_9_3/rearranged_h_0063.sdf

> <i_m_source_file_index>
10

> <r_mmod_Potential_Energy-OPLS-2005>
228.443572998047

> <r_mmod_Stretch_Energy-OPLS-2005>
158.019149780273

> <r_mmod_Bend_Energy-OPLS-2005>
174.304107666016

> <r_mmod_Torsional_Energy-OPLS-2005>
275.231018066406

> <r_mmod_Improper_Torsional_Energy-OPLS-2005>
5.9406623840332

> <r_mmod_Van_der_Waal_Energy-OPLS-2005>
152.908843994141

> <r_mmod_Electrostatic_Energy-OPLS-2005>
-425.410491943359

> <r_mmod_Solvation_Energy-OPLS-2005>
-229.100921630859

> <b_mmod_Minimization_Converged-OPLS-2005>
0

> <r_mmod_RMS_Derivative-OPLS-2005>
1.00586009025574

$$$$
10
                    3D
 Structure written by MMmdl.
159168  0  0  1  0            999 V2000
  -30.5964  -14.5826   20.5401 C   0  0  0  0  0  0
  -30.4494  -12.3614   19.4345 C   0  0  0  0  0  0
  -29.5071  -12.4814   18.2148 C   0  0  0  0  0  0
  -28.0300  -12.3110   18.6300 C   0  0  0  0  0  0
  -27.6511  -13.1852   19.8544 C   0  0  2  0  0  0
  -28.6940  -13.0046   20.9827 C   0  0  0  0  0  0
  -25.2559  -13.8096   20.5608 C   0  0  0  0  0  0
  -24.1810  -13.0419   20.9169 C   0  0  0  0  0  0
  -24.6339  -11.6877   20.8722 C   0  0  0  0  0  0
  -23.9010  -10.4285   21.0417 C   0  0  0  0  0  0
  -24.3568   -9.4209   21.9198 C   0  0  0  0  0  0
  -23.6261   -8.2235   22.0753 C   0  0  0  0  0  0
  -22.4253   -8.0265   21.3547 C   0  0  0  0  0  0
  -21.9884   -9.0237   20.4654 C   0  0  0  0  0  0
  -22.7187  -10.2131   20.3070 C   0  0  0  0  0  0
  -21.6854   -6.0701   22.5291 C   0  0  0  0  0  0
  -21.4008   -6.5623   23.8216 C   0  0  0  0  0  0
  -21.3656   -5.6778   24.9171 C   0  0  0  0  0  0
  -21.6054   -4.3045   24.7240 C   0  0  0  0  0  0
  -21.8811   -3.8130   23.4368 C   0  0  0  0  0  0
  -21.9191   -4.6926   22.3412 C   0  0  0  0  0  0
  -22.7855  -13.5246   21.1847 C   0  0  0  0  0  0
  -22.1665   -4.2108   21.0984 F   0  0  0  0  0  0
  -21.5625   -3.4535   25.7759 F   0  0  0  0  0  0
  -30.0130  -13.3541   20.4269 N   0  0  0  0  0  0
  -26.2944  -12.9212   20.3233 N   0  0  0  0  0  0
  -25.9245  -11.6400   20.5698 N   0  0  0  0  0  0
  -22.0488  -12.8253   22.0406 N   0  0  0  0  0  0
  -25.4303  -15.1800   20.3983 N   0  0  0  0  0  0
  -31.7715  -14.8063   20.2356 O   0  0  0  0  0  0
  -21.6635   -6.8858   21.4258 O   0  0  0  0  0  0
  -22.3569  -14.5553   20.6673 O   0  0  0  0  0  0
  -24.6196  -31.8663   23.2055 C   0  0  0  0  0  0
  -25.9081  -32.4808   23.8366 C   0  0  1  0  0  0
  -27.2280  -27.3830   20.1132 C   0  0  0  0  0  0
  -25.5929  -33.8603   24.2323 N   0  0  0  0  0  0
  -23.4099  -30.4865   21.5498 C   0  0  2  0  0  0
  -24.8514  -28.9398   20.1192 C   0  0  0  0  0  0
  -22.7450  -29.4646   22.5006 C   0  0  0  0  0  0
  -18.0290  -28.1395   22.8525 C   0  0  0  0  0  0
  -24.1496  -36.7275   23.2636 C   0  0  0  0  0  0
  -25.9428  -30.8143   21.3643 C   0  0  0  0  0  0
  -26.0160  -29.4433   20.7151 C   0  0  0  0  0  0
  -27.2078  -28.6761   20.7021 C   0  0  0  0  0  0
  -26.0487  -26.9028   19.5142 C   0  0  0  0  0  0
  -24.8654  -27.6725   19.5131 C   0  0  0  0  0  0
  -23.6161  -29.8157   20.1655 C   0  0  0  0  0  0
  -25.4107  -36.3085   24.0353 C   0  0  1  0  0  0
  -20.5893  -28.3679   23.1355 C   0  0  2  0  0  0
  -20.6779  -26.9419   22.5438 C   0  0  0  0  0  0
  -19.5744  -26.6412   21.5238 C   0  0  0  0  0  0
  -18.1921  -26.7947   22.1647 C   0  0  0  0  0  0
  -19.1548  -28.8855   23.2925 C   0  0  0  0  0  0
  -18.9442  -30.1458   23.8938 C   0  0  0  0  0  0
  -17.6441  -30.6583   24.0584 C   0  0  0  0  0  0
  -25.9041  -34.9458   23.5134 C   0  0  0  0  0  0
  -16.5335  -29.9085   23.6330 C   0  0  0  0  0  0
  -16.7279  -28.6502   23.0364 C   0  0  0  0  0  0
  -26.4488  -31.6567   25.0687 C   0  0  0  0  0  0
  -25.3739  -31.3669   26.1419 C   0  0  0  0  0  0
  -27.0312  -30.3010   24.6057 C   0  0  0  0  0  0
  -27.6082  -32.4273   25.7452 C   0  0  0  0  0  0
  -27.5589  -37.1788   24.8469 C   0  0  0  0  0  0
  -21.4183  -29.3012   22.3730 N   0  0  0  0  0  0
  -26.4286  -37.3774   23.9422 N   0  0  0  0  0  0
  -24.6762  -31.0705   22.0984 N   0  0  0  0  0  0
  -23.4179  -28.8202   23.3098 O   0  0  0  0  0  0
  -28.3927  -26.6316   20.0875 O   0  0  0  0  0  0
  -26.5595  -34.8920   22.4697 O   0  0  0  0  0  0
  -23.5396  -32.1456   23.7436 O   0  0  0  0  0  0
  -28.8817  -19.3276   22.5145 C   0  0  0  0  0  0
  -29.1167  -16.8976   22.6211 C   0  0  0  0  0  0
  -29.8169  -18.0934   20.6226 C   0  0  0  0  0  0
  -28.7257  -18.1134   23.2143 C   0  0  0  0  0  0
  -29.4274  -19.3496   21.2076 C   0  0  0  0  0  0
  -29.6552  -16.8553   21.3183 C   0  0  0  0  0  0
  -30.0814  -22.3280   19.1134 C   0  0  0  0  0  0
  -29.0155  -22.8031   19.7638 C   0  0  0  0  0  0
  -30.4237  -21.0001   19.5941 C   0  0  0  0  0  0
  -28.5578  -21.7579   20.7616 C   0  0  0  0  0  0
  -28.0553  -18.1017   24.5770 C   0  0  0  0  0  0
  -28.2782  -24.1372   19.4675 C   0  0  0  0  0  0
  -28.3498  -25.2530   20.5593 C   0  0  0  0  0  0
  -29.4926  -20.6265   20.5095 N   0  0  0  0  0  0
  -29.6677  -15.5668   20.6710 N   0  0  0  0  0  0
  -31.4092  -20.3394   19.2472 O   0  0  0  0  0  0
  -31.4870  -12.5147   19.1368 H   0  0  0  0  0  0
  -30.4018  -11.3613   19.8635 H   0  0  0  0  0  0
  -29.7736  -11.7340   17.4667 H   0  0  0  0  0  0
  -29.6421  -13.4516   17.7344 H   0  0  0  0  0  0
  -27.8741  -11.2580   18.8698 H   0  0  0  0  0  0
  -27.3743  -12.5292   17.7859 H   0  0  0  0  0  0
  -27.6768  -14.2161   19.5052 H   0  0  0  0  0  0
  -28.6983  -11.9710   21.3317 H   0  0  0  0  0  0
  -28.4394  -13.6122   21.8547 H   0  0  0  0  0  0
  -25.2723   -9.5672   22.4748 H   0  0  0  0  0  0
  -23.9977   -7.4622   22.7461 H   0  0  0  0  0  0
  -21.0825   -8.8738   19.8963 H   0  0  0  0  0  0
  -22.3653  -10.9644   19.6157 H   0  0  0  0  0  0
  -21.2003   -7.6138   23.9703 H   0  0  0  0  0  0
  -21.1491   -6.0515   25.9067 H   0  0  0  0  0  0
  -22.0596   -2.7592   23.2882 H   0  0  0  0  0  0
  -22.4086  -11.9942   22.4848 H   0  0  0  0  0  0
  -21.1100  -13.1276   22.2578 H   0  0  0  0  0  0
  -24.6511  -15.8235   20.4845 H   0  0  0  0  0  0
  -26.2598  -15.6240   20.0248 H   0  0  0  0  0  0
  -26.7152  -32.5491   23.1126 H   0  0  0  0  0  0
  -25.0140  -33.9772   25.0513 H   0  0  0  0  0  0
  -22.6988  -31.3033   21.4129 H   0  0  0  0  0  0
  -23.3773  -35.9598   23.3316 H   0  0  0  0  0  0
  -24.3583  -36.8860   22.2042 H   0  0  0  0  0  0
  -23.7228  -37.6484   23.6626 H   0  0  0  0  0  0
  -26.0602  -31.5776   20.5930 H   0  0  0  0  0  0
  -26.8283  -30.8701   21.9858 H   0  0  0  0  0  0
  -28.1055  -29.0648   21.1603 H   0  0  0  0  0  0
  -26.0420  -25.9333   19.0368 H   0  0  0  0  0  0
  -23.9727  -27.2836   19.0410 H   0  0  0  0  0  0
  -23.7305  -30.5932   19.4087 H   0  0  0  0  0  0
  -22.7371  -29.2390   19.8690 H   0  0  0  0  0  0
  -25.1285  -36.1950   25.0848 H   0  0  0  0  0  0
  -21.0002  -28.3242   24.1473 H   0  0  0  0  0  0
  -20.5716  -26.2277   23.3613 H   0  0  0  0  0  0
  -21.6641  -26.7474   22.1193 H   0  0  0  0  0  0
  -19.6889  -25.6333   21.1233 H   0  0  0  0  0  0
  -19.6678  -27.3260   20.6794 H   0  0  0  0  0  0
  -17.4201  -26.6769   21.4016 H   0  0  0  0  0  0
  -18.0274  -26.0061   22.9019 H   0  0  0  0  0  0
  -19.7900  -30.7288   24.2321 H   0  0  0  0  0  0
  -17.4967  -31.6272   24.5179 H   0  0  0  0  0  0
  -15.5331  -30.2984   23.7608 H   0  0  0  0  0  0
  -15.8685  -28.0802   22.7076 H   0  0  0  0  0  0
  -24.5981  -30.6933   25.7747 H   0  0  0  0  0  0
  -24.8841  -32.2822   26.4768 H   0  0  0  0  0  0
  -25.8094  -30.8920   27.0226 H   0  0  0  0  0  0
  -26.2858  -29.6778   24.1110 H   0  0  0  0  0  0
  -27.4093  -29.7212   25.4480 H   0  0  0  0  0  0
  -27.8687  -30.4324   23.9205 H   0  0  0  0  0  0
  -27.2751  -33.3616   26.1994 H   0  0  0  0  0  0
  -28.3926  -32.6762   25.0283 H   0  0  0  0  0  0
  -28.0720  -31.8396   26.5390 H   0  0  0  0  0  0
  -28.2603  -38.0092   24.7538 H   0  0  0  0  0  0
  -28.1106  -36.2627   24.6286 H   0  0  0  0  0  0
  -27.2320  -37.1424   25.8877 H   0  0  0  0  0  0
  -20.9344  -29.8699   21.6923 H   0  0  0  0  0  0
  -26.0187  -38.2866   24.1411 H   0  0  0  0  0  0
  -28.5490  -20.2405   22.9891 H   0  0  0  0  0  0
  -28.9266  -15.9786   23.1568 H   0  0  0  0  0  0
  -30.1673  -18.0728   19.6010 H   0  0  0  0  0  0
  -30.6058  -22.8295   18.3130 H   0  0  0  0  0  0
  -27.5226  -21.4654   20.5692 H   0  0  0  0  0  0
  -28.6442  -22.1574   21.7736 H   0  0  0  0  0  0
  -28.6121  -17.4812   25.2750 H   0  0  0  0  0  0
  -27.0489  -17.6923   24.4943 H   0  0  0  0  0  0
  -27.9723  -19.0999   25.0077 H   0  0  0  0  0  0
  -27.2376  -23.9108   19.2306 H   0  0  0  0  0  0
  -28.7060  -24.5450   18.5513 H   0  0  0  0  0  0
  -29.2758  -25.1088   21.1166 H   0  0  0  0  0  0
  -27.5542  -25.1084   21.2933 H   0  0  0  0  0  0
  -28.7586  -15.1338   20.6894 H   0  0  0  0  0  0
  1 25  1  0  0  0
  1 30  2  0  0  0
  1 85  1  0  0  0
  2  3  1  0  0  0
  2 25  1  0  0  0
  2 87  1  0  0  0
  2 88  1  0  0  0
  3  4  1  0  0  0
  3 89  1  0  0  0
  3 90  1  0  0  0
  4  5  1  0  0  0
  4 91  1  0  0  0
  4 92  1  0  0  0
  5  6  1  0  0  0
  5 26  1  0  0  0
  5 93  1  0  0  0
  6 25  1  0  0  0
  6 94  1  0  0  0
  6 95  1  0  0  0
  7  8  2  0  0  0
  7 26  1  0  0  0
  7 29  1  0  0  0
  8  9  1  0  0  0
  8 22  1  0  0  0
  9 10  1  0  0  0
  9 27  2  0  0  0
 10 11  2  0  0  0
 10 15  1  0  0  0
 11 12  1  0  0  0
 11 96  1  0  0  0
 12 13  2  0  0  0
 12 97  1  0  0  0
 13 14  1  0  0  0
 13 31  1  0  0  0
 14 15  2  0  0  0
 14 98  1  0  0  0
 15 99  1  0  0  0
 16 17  2  0  0  0
 16 21  1  0  0  0
 16 31  1  0  0  0
 17 18  1  0  0  0
 17100  1  0  0  0
 18 19  2  0  0  0
 18101  1  0  0  0
 19 20  1  0  0  0
 19 24  1  0  0  0
 20 21  2  0  0  0
 20102  1  0  0  0
 21 23  1  0  0  0
 22 28  1  0  0  0
 22 32  2  0  0  0
 26 27  1  0  0  0
 28103  1  0  0  0
 28104  1  0  0  0
 29105  1  0  0  0
 29106  1  0  0  0
 33 34  1  0  0  0
 33 66  1  0  0  0
 33 70  2  0  0  0
 34 36  1  0  0  0
 34 59  1  0  0  0
 34107  1  0  0  0
 35 44  2  0  0  0
 35 45  1  0  0  0
 35 68  1  0  0  0
 36 56  1  0  0  0
 36108  1  0  0  0
 37 39  1  0  0  0
 37 47  1  0  0  0
 37 66  1  0  0  0
 37109  1  0  0  0
 38 43  2  0  0  0
 38 46  1  0  0  0
 38 47  1  0  0  0
 39 64  1  0  0  0
 39 67  2  0  0  0
 40 52  1  0  0  0
 40 53  2  0  0  0
 40 58  1  0  0  0
 41110  1  0  0  0
 41111  1  0  0  0
 41112  1  0  0  0
 41 48  1  0  0  0
 42 43  1  0  0  0
 42 66  1  0  0  0
 42113  1  0  0  0
 42114  1  0  0  0
 43 44  1  0  0  0
 44115  1  0  0  0
 45 46  2  0  0  0
 45116  1  0  0  0
 46117  1  0  0  0
 47118  1  0  0  0
 47119  1  0  0  0
 48 56  1  0  0  0
 48 65  1  0  0  0
 48120  1  0  0  0
 49 50  1  0  0  0
 49 53  1  0  0  0
 49 64  1  0  0  0
 49121  1  0  0  0
 50 51  1  0  0  0
 50122  1  0  0  0
 50123  1  0  0  0
 51 52  1  0  0  0
 51124  1  0  0  0
 51125  1  0  0  0
 52126  1  0  0  0
 52127  1  0  0  0
 53 54  1  0  0  0
 54 55  2  0  0  0
 54128  1  0  0  0
 55 57  1  0  0  0
 55129  1  0  0  0
 56 69  2  0  0  0
 57 58  2  0  0  0
 57130  1  0  0  0
 58131  1  0  0  0
 59 60  1  0  0  0
 59 61  1  0  0  0
 59 62  1  0  0  0
 60132  1  0  0  0
 60133  1  0  0  0
 60134  1  0  0  0
 61135  1  0  0  0
 61136  1  0  0  0
 61137  1  0  0  0
 62138  1  0  0  0
 62139  1  0  0  0
 62140  1  0  0  0
 63 65  1  0  0  0
 63141  1  0  0  0
 63142  1  0  0  0
 63143  1  0  0  0
 64144  1  0  0  0
 65145  1  0  0  0
 68 83  1  0  0  0
 71 74  2  0  0  0
 71 75  1  0  0  0
 71146  1  0  0  0
 72 74  1  0  0  0
 72 76  2  0  0  0
 72147  1  0  0  0
 73 75  2  0  0  0
 73 76  1  0  0  0
 73148  1  0  0  0
 74 81  1  0  0  0
 75 84  1  0  0  0
 76 85  1  0  0  0
 77 78  2  0  0  0
 77 79  1  0  0  0
 77149  1  0  0  0
 78 80  1  0  0  0
 78 82  1  0  0  0
 79 84  1  0  0  0
 79 86  2  0  0  0
 80 84  1  0  0  0
 80150  1  0  0  0
 80151  1  0  0  0
 81152  1  0  0  0
 81153  1  0  0  0
 81154  1  0  0  0
 82 83  1  0  0  0
 82155  1  0  0  0
 82156  1  0  0  0
 83157  1  0  0  0
 83158  1  0  0  0
 85159  1  0  0  0
M  ISO  4   1 100  68 101  83 101  85 100
M  END
> <chiral flag>
0

> <version>
0

> <s_m_source_file>
/data/baiqing/PycharmProjects/Reinvent-master-3.2/result/LINK_invent/BTK/process_docking_weight1_custom_product_contain_oxygen_bond_distance_aromatic_linkinvent_7_9_3/rearranged_h_0063.sdf

> <i_m_source_file_index>
11

> <r_mmod_Potential_Energy-OPLS-2005>
161.986083984375

> <r_mmod_Stretch_Energy-OPLS-2005>
55.5209808349609

> <r_mmod_Bend_Energy-OPLS-2005>
171.671401977539

> <r_mmod_Torsional_Energy-OPLS-2005>
308.9501953125

> <r_mmod_Improper_Torsional_Energy-OPLS-2005>
14.9433355331421

> <r_mmod_Van_der_Waal_Energy-OPLS-2005>
135.63215637207

> <r_mmod_Electrostatic_Energy-OPLS-2005>
-331.306121826172

> <r_mmod_Solvation_Energy-OPLS-2005>
-225.030090332031

> <b_mmod_Minimization_Converged-OPLS-2005>
0

> <r_mmod_RMS_Derivative-OPLS-2005>
5.20644426345825

$$$$
11
                    3D
 Structure written by MMmdl.
149157  0  0  1  0            999 V2000
  -30.5860  -14.8176   20.4625 C   0  0  0  0  0  0
  -30.4347  -12.5085   19.4732 C   0  0  0  0  0  0
  -29.5115  -12.5171   18.2349 C   0  0  0  0  0  0
  -28.0420  -12.3193   18.6537 C   0  0  0  0  0  0
  -27.6336  -13.2330   19.8398 C   0  0  2  0  0  0
  -28.6777  -13.2076   20.9755 C   0  0  0  0  0  0
  -25.2476  -13.8182   20.5667 C   0  0  0  0  0  0
  -24.1782  -13.0429   20.9208 C   0  0  0  0  0  0
  -24.6389  -11.6911   20.8751 C   0  0  0  0  0  0
  -23.9065  -10.4287   21.0406 C   0  0  0  0  0  0
  -24.3614   -9.4202   21.9182 C   0  0  0  0  0  0
  -23.6291   -8.2241   22.0760 C   0  0  0  0  0  0
  -22.4278   -8.0272   21.3548 C   0  0  0  0  0  0
  -21.9905   -9.0243   20.4652 C   0  0  0  0  0  0
  -22.7233  -10.2123   20.3052 C   0  0  0  0  0  0
  -21.6851   -6.0728   22.5278 C   0  0  0  0  0  0
  -21.4016   -6.5638   23.8211 C   0  0  0  0  0  0
  -21.3660   -5.6795   24.9178 C   0  0  0  0  0  0
  -21.6039   -4.3059   24.7230 C   0  0  0  0  0  0
  -21.8820   -3.8146   23.4357 C   0  0  0  0  0  0
  -21.9195   -4.6957   22.3409 C   0  0  0  0  0  0
  -22.7808  -13.5207   21.1873 C   0  0  0  0  0  0
  -22.1662   -4.2143   21.0986 F   0  0  0  0  0  0
  -21.5628   -3.4541   25.7744 F   0  0  0  0  0  0
  -29.9672  -13.5839   20.3835 N   0  0  0  0  0  0
  -26.2896  -12.9393   20.3223 N   0  0  0  0  0  0
  -25.9305  -11.6537   20.5727 N   0  0  0  0  0  0
  -22.0463  -12.8194   22.0435 N   0  0  0  0  0  0
  -25.4138  -15.1907   20.4062 N   0  0  0  0  0  0
  -31.7899  -14.8910   20.1936 O   0  0  0  0  0  0
  -21.6647   -6.8870   21.4242 O   0  0  0  0  0  0
  -22.3494  -14.5516   20.6722 O   0  0  0  0  0  0
  -24.6356  -31.8515   23.1963 C   0  0  0  0  0  0
  -25.9171  -32.4737   23.8316 C   0  0  1  0  0  0
  -27.2229  -27.2251   20.1484 C   0  0  0  0  0  0
  -25.5946  -33.8536   24.2235 N   0  0  0  0  0  0
  -23.4342  -30.4705   21.5406 C   0  0  2  0  0  0
  -24.8815  -28.9043   20.1198 C   0  0  0  0  0  0
  -22.7513  -29.4569   22.4917 C   0  0  0  0  0  0
  -18.0279  -28.1395   22.8494 C   0  0  0  0  0  0
  -24.1481  -36.7265   23.2643 C   0  0  0  0  0  0
  -25.9817  -30.7530   21.3793 C   0  0  0  0  0  0
  -26.0542  -29.3679   20.7303 C   0  0  0  0  0  0
  -27.2303  -28.5434   20.7296 C   0  0  0  0  0  0
  -26.0264  -26.8289   19.5182 C   0  0  0  0  0  0
  -24.8727  -27.6423   19.5029 C   0  0  0  0  0  0
  -23.6566  -29.7997   20.1587 C   0  0  0  0  0  0
  -25.4117  -36.3055   24.0325 C   0  0  1  0  0  0
  -20.5889  -28.3694   23.1279 C   0  0  2  0  0  0
  -20.6770  -26.9410   22.5414 C   0  0  0  0  0  0
  -19.5737  -26.6386   21.5219 C   0  0  0  0  0  0
  -18.1920  -26.7933   22.1646 C   0  0  0  0  0  0
  -19.1535  -28.8867   23.2877 C   0  0  0  0  0  0
  -18.9455  -30.1473   23.8885 C   0  0  0  0  0  0
  -17.6454  -30.6595   24.0563 C   0  0  0  0  0  0
  -25.9062  -34.9426   23.5079 C   0  0  0  0  0  0
  -16.5348  -29.9091   23.6339 C   0  0  0  0  0  0
  -16.7267  -28.6511   23.0361 C   0  0  0  0  0  0
  -26.4521  -31.6581   25.0719 C   0  0  0  0  0  0
  -25.3733  -31.3779   26.1437 C   0  0  0  0  0  0
  -27.0344  -30.2986   24.6223 C   0  0  0  0  0  0
  -27.6078  -32.4311   25.7482 C   0  0  0  0  0  0
  -27.5566  -37.1802   24.8479 C   0  0  0  0  0  0
  -21.4210  -29.3038   22.3670 N   0  0  0  0  0  0
  -26.4291  -37.3760   23.9401 N   0  0  0  0  0  0
  -24.7037  -31.0440   22.0956 N   0  0  0  0  0  0
  -23.4185  -28.8109   23.3037 O   0  0  0  0  0  0
  -28.3162  -26.3219   20.1017 O   0  0  0  0  0  0
  -26.5622  -34.8915   22.4638 O   0  0  0  0  0  0
  -23.5496  -32.1345   23.7244 O   0  0  0  0  0  0
  -31.7030  -19.0292   21.8449 C   0  0  0  0  0  0
  -30.9318  -20.1413   21.4512 C   0  0  0  0  0  0
  -31.3254  -17.7078   21.5318 C   0  0  0  0  0  0
  -29.3627  -18.6037   20.4066 C   0  0  0  0  0  0
  -29.7354  -19.9956   20.7138 C   0  0  0  0  0  0
  -30.1492  -17.4214   20.8034 C   0  0  0  0  0  0
  -28.7862  -23.7975   20.1511 C   0  0  0  0  0  0
  -28.2439  -24.9918   20.6445 C   0  0  0  0  0  0
  -28.8696  -22.4779   20.9098 C   0  0  0  0  0  0
  -29.0912  -21.2710   20.2326 N   0  0  0  0  0  0
  -29.7977  -15.9746   20.5795 N   0  0  0  0  0  0
  -28.7588  -22.4493   22.1375 O   0  0  0  0  0  0
  -31.4722  -12.6501   19.1659 H   0  0  0  0  0  0
  -30.3994  -11.5412   19.9760 H   0  0  0  0  0  0
  -29.8110  -11.7368   17.5332 H   0  0  0  0  0  0
  -29.6176  -13.4645   17.7038 H   0  0  0  0  0  0
  -27.9200  -11.2722   18.9354 H   0  0  0  0  0  0
  -27.3795  -12.4823   17.8032 H   0  0  0  0  0  0
  -27.6140  -14.2452   19.4365 H   0  0  0  0  0  0
  -28.7354  -12.2207   21.4358 H   0  0  0  0  0  0
  -28.3977  -13.9027   21.7689 H   0  0  0  0  0  0
  -25.2760   -9.5688   22.4759 H   0  0  0  0  0  0
  -24.0007   -7.4631   22.7474 H   0  0  0  0  0  0
  -21.0840   -8.8747   19.8955 H   0  0  0  0  0  0
  -22.3678  -10.9656   19.6162 H   0  0  0  0  0  0
  -21.2006   -7.6146   23.9709 H   0  0  0  0  0  0
  -21.1478   -6.0531   25.9078 H   0  0  0  0  0  0
  -22.0597   -2.7606   23.2858 H   0  0  0  0  0  0
  -22.4094  -11.9861   22.4821 H   0  0  0  0  0  0
  -21.1076  -13.1219   22.2646 H   0  0  0  0  0  0
  -24.6359  -15.8350   20.4994 H   0  0  0  0  0  0
  -26.2484  -15.6321   20.0440 H   0  0  0  0  0  0
  -26.7216  -32.5373   23.1034 H   0  0  0  0  0  0
  -25.0123  -33.9661   25.0404 H   0  0  0  0  0  0
  -22.7334  -31.2956   21.3926 H   0  0  0  0  0  0
  -23.3735  -35.9609   23.3351 H   0  0  0  0  0  0
  -24.3559  -36.8834   22.2045 H   0  0  0  0  0  0
  -23.7251  -37.6493   23.6633 H   0  0  0  0  0  0
  -26.1181  -31.5082   20.6040 H   0  0  0  0  0  0
  -26.8595  -30.8105   22.0112 H   0  0  0  0  0  0
  -28.1344  -28.9006   21.2006 H   0  0  0  0  0  0
  -25.9829  -25.8620   19.0361 H   0  0  0  0  0  0
  -23.9750  -27.2803   19.0198 H   0  0  0  0  0  0
  -23.7892  -30.5749   19.4034 H   0  0  0  0  0  0
  -22.7730  -29.2389   19.8511 H   0  0  0  0  0  0
  -25.1304  -36.1896   25.0821 H   0  0  0  0  0  0
  -20.9981  -28.3248   24.1406 H   0  0  0  0  0  0
  -20.5667  -26.2292   23.3613 H   0  0  0  0  0  0
  -21.6633  -26.7425   22.1214 H   0  0  0  0  0  0
  -19.6886  -25.6290   21.1257 H   0  0  0  0  0  0
  -19.6675  -27.3191   20.6742 H   0  0  0  0  0  0
  -17.4192  -26.6677   21.4052 H   0  0  0  0  0  0
  -18.0326  -26.0077   22.9048 H   0  0  0  0  0  0
  -19.7927  -30.7299   24.2244 H   0  0  0  0  0  0
  -17.5005  -31.6273   24.5165 H   0  0  0  0  0  0
  -15.5346  -30.2990   23.7674 H   0  0  0  0  0  0
  -15.8670  -28.0828   22.7079 H   0  0  0  0  0  0
  -24.5859  -30.7174   25.7778 H   0  0  0  0  0  0
  -24.8981  -32.2976   26.4857 H   0  0  0  0  0  0
  -25.8029  -30.8941   27.0215 H   0  0  0  0  0  0
  -26.2916  -29.6747   24.1235 H   0  0  0  0  0  0
  -27.3991  -29.7246   25.4751 H   0  0  0  0  0  0
  -27.8821  -30.4247   23.9483 H   0  0  0  0  0  0
  -27.2713  -33.3659   26.1977 H   0  0  0  0  0  0
  -28.3940  -32.6781   25.0333 H   0  0  0  0  0  0
  -28.0679  -31.8467   26.5459 H   0  0  0  0  0  0
  -28.2634  -38.0051   24.7461 H   0  0  0  0  0  0
  -28.1002  -36.2577   24.6385 H   0  0  0  0  0  0
  -27.2268  -37.1553   25.8882 H   0  0  0  0  0  0
  -20.9393  -29.8792   21.6904 H   0  0  0  0  0  0
  -26.0158  -38.2834   24.1386 H   0  0  0  0  0  0
  -32.6173  -19.1948   22.3979 H   0  0  0  0  0  0
  -31.2984  -21.1280   21.6981 H   0  0  0  0  0  0
  -31.9603  -16.9056   21.8815 H   0  0  0  0  0  0
  -28.4523  -18.4407   19.8477 H   0  0  0  0  0  0
  -29.2531  -23.8297   19.1774 H   0  0  0  0  0  0
  -27.7325  -25.0023   21.5975 H   0  0  0  0  0  0
  -28.9127  -21.3104   19.2387 H   0  0  0  0  0  0
  -28.8083  -15.7850   20.5410 H   0  0  0  0  0  0
  1 25  1  0  0  0
  1 30  2  0  0  0
  1 81  1  0  0  0
  2  3  1  0  0  0
  2 25  1  0  0  0
  2 83  1  0  0  0
  2 84  1  0  0  0
  3  4  1  0  0  0
  3 85  1  0  0  0
  3 86  1  0  0  0
  4  5  1  0  0  0
  4 87  1  0  0  0
  4 88  1  0  0  0
  5  6  1  0  0  0
  5 26  1  0  0  0
  5 89  1  0  0  0
  6 25  1  0  0  0
  6 90  1  0  0  0
  6 91  1  0  0  0
  7  8  2  0  0  0
  7 26  1  0  0  0
  7 29  1  0  0  0
  8  9  1  0  0  0
  8 22  1  0  0  0
  9 10  1  0  0  0
  9 27  2  0  0  0
 10 11  2  0  0  0
 10 15  1  0  0  0
 11 12  1  0  0  0
 11 92  1  0  0  0
 12 13  2  0  0  0
 12 93  1  0  0  0
 13 14  1  0  0  0
 13 31  1  0  0  0
 14 15  2  0  0  0
 14 94  1  0  0  0
 15 95  1  0  0  0
 16 17  2  0  0  0
 16 21  1  0  0  0
 16 31  1  0  0  0
 17 18  1  0  0  0
 17 96  1  0  0  0
 18 19  2  0  0  0
 18 97  1  0  0  0
 19 20  1  0  0  0
 19 24  1  0  0  0
 20 21  2  0  0  0
 20 98  1  0  0  0
 21 23  1  0  0  0
 22 28  1  0  0  0
 22 32  2  0  0  0
 26 27  1  0  0  0
 28 99  1  0  0  0
 28100  1  0  0  0
 29101  1  0  0  0
 29102  1  0  0  0
 33 34  1  0  0  0
 33 66  1  0  0  0
 33 70  2  0  0  0
 34 36  1  0  0  0
 34 59  1  0  0  0
 34103  1  0  0  0
 35 44  2  0  0  0
 35 45  1  0  0  0
 35 68  1  0  0  0
 36 56  1  0  0  0
 36104  1  0  0  0
 37 39  1  0  0  0
 37 47  1  0  0  0
 37 66  1  0  0  0
 37105  1  0  0  0
 38 43  2  0  0  0
 38 46  1  0  0  0
 38 47  1  0  0  0
 39 64  1  0  0  0
 39 67  2  0  0  0
 40 52  1  0  0  0
 40 53  2  0  0  0
 40 58  1  0  0  0
 41106  1  0  0  0
 41107  1  0  0  0
 41108  1  0  0  0
 41 48  1  0  0  0
 42 43  1  0  0  0
 42 66  1  0  0  0
 42109  1  0  0  0
 42110  1  0  0  0
 43 44  1  0  0  0
 44111  1  0  0  0
 45 46  2  0  0  0
 45112  1  0  0  0
 46113  1  0  0  0
 47114  1  0  0  0
 47115  1  0  0  0
 48 56  1  0  0  0
 48 65  1  0  0  0
 48116  1  0  0  0
 49 50  1  0  0  0
 49 53  1  0  0  0
 49 64  1  0  0  0
 49117  1  0  0  0
 50 51  1  0  0  0
 50118  1  0  0  0
 50119  1  0  0  0
 51 52  1  0  0  0
 51120  1  0  0  0
 51121  1  0  0  0
 52122  1  0  0  0
 52123  1  0  0  0
 53 54  1  0  0  0
 54 55  2  0  0  0
 54124  1  0  0  0
 55 57  1  0  0  0
 55125  1  0  0  0
 56 69  2  0  0  0
 57 58  2  0  0  0
 57126  1  0  0  0
 58127  1  0  0  0
 59 60  1  0  0  0
 59 61  1  0  0  0
 59 62  1  0  0  0
 60128  1  0  0  0
 60129  1  0  0  0
 60130  1  0  0  0
 61131  1  0  0  0
 61132  1  0  0  0
 61133  1  0  0  0
 62134  1  0  0  0
 62135  1  0  0  0
 62136  1  0  0  0
 63 65  1  0  0  0
 63137  1  0  0  0
 63138  1  0  0  0
 63139  1  0  0  0
 64140  1  0  0  0
 65141  1  0  0  0
 68 78  1  0  0  0
 71 72  2  0  0  0
 71 73  1  0  0  0
 71142  1  0  0  0
 72 75  1  0  0  0
 72143  1  0  0  0
 73 76  2  0  0  0
 73144  1  0  0  0
 74 75  2  0  0  0
 74 76  1  0  0  0
 74145  1  0  0  0
 75 80  1  0  0  0
 76 81  1  0  0  0
 77 78  2  0  0  0
 77 79  1  0  0  0
 77146  1  0  0  0
 78147  1  0  0  0
 79 80  1  0  0  0
 79 82  2  0  0  0
 80148  1  0  0  0
 81149  1  0  0  0
M  ISO  4   1 100  68 101  78 101  81 100
M  END
> <chiral flag>
0

> <version>
0

> <s_m_source_file>
/data/baiqing/PycharmProjects/Reinvent-master-3.2/result/LINK_invent/BTK/process_docking_weight1_custom_product_contain_oxygen_bond_distance_aromatic_linkinvent_7_9_3/rearranged_h_0063.sdf

> <i_m_source_file_index>
12

> <r_mmod_Potential_Energy-OPLS-2005>
225.721710205078

> <r_mmod_Stretch_Energy-OPLS-2005>
150.955795288086

> <r_mmod_Bend_Energy-OPLS-2005>
168.483627319336

> <r_mmod_Torsional_Energy-OPLS-2005>
266.281341552734

> <r_mmod_Improper_Torsional_Energy-OPLS-2005>
8.213942527771

> <r_mmod_Van_der_Waal_Energy-OPLS-2005>
133.450607299805

> <r_mmod_Electrostatic_Energy-OPLS-2005>
-381.644805908203

> <r_mmod_Solvation_Energy-OPLS-2005>
-232.530303955078

> <b_mmod_Minimization_Converged-OPLS-2005>
0

> <r_mmod_RMS_Derivative-OPLS-2005>
2.62025117874146

$$$$
12
                    3D
 Structure written by MMmdl.
154162  0  0  1  0            999 V2000
  -30.6648  -14.7285   20.4408 C   0  0  0  0  0  0
  -30.4149  -12.4448   19.4752 C   0  0  0  0  0  0
  -29.5022  -12.4974   18.2326 C   0  0  0  0  0  0
  -28.0298  -12.3292   18.6493 C   0  0  0  0  0  0
  -27.6363  -13.2416   19.8428 C   0  0  2  0  0  0
  -28.6828  -13.2107   20.9789 C   0  0  0  0  0  0
  -25.2493  -13.8234   20.5712 C   0  0  0  0  0  0
  -24.1800  -13.0460   20.9222 C   0  0  0  0  0  0
  -24.6409  -11.6935   20.8776 C   0  0  0  0  0  0
  -23.9110  -10.4299   21.0426 C   0  0  0  0  0  0
  -24.3648   -9.4203   21.9199 C   0  0  0  0  0  0
  -23.6311   -8.2248   22.0760 C   0  0  0  0  0  0
  -22.4297   -8.0301   21.3544 C   0  0  0  0  0  0
  -21.9942   -9.0282   20.4651 C   0  0  0  0  0  0
  -22.7286  -10.2151   20.3067 C   0  0  0  0  0  0
  -21.6852   -6.0756   22.5284 C   0  0  0  0  0  0
  -21.4012   -6.5651   23.8222 C   0  0  0  0  0  0
  -21.3659   -5.6802   24.9179 C   0  0  0  0  0  0
  -21.6034   -4.3066   24.7224 C   0  0  0  0  0  0
  -21.8822   -3.8160   23.4347 C   0  0  0  0  0  0
  -21.9193   -4.6982   22.3403 C   0  0  0  0  0  0
  -22.7818  -13.5217   21.1886 C   0  0  0  0  0  0
  -22.1659   -4.2169   21.0983 F   0  0  0  0  0  0
  -21.5626   -3.4551   25.7731 F   0  0  0  0  0  0
  -29.9848  -13.5325   20.3857 N   0  0  0  0  0  0
  -26.2918  -12.9452   20.3273 N   0  0  0  0  0  0
  -25.9335  -11.6582   20.5770 N   0  0  0  0  0  0
  -22.0468  -12.8195   22.0435 N   0  0  0  0  0  0
  -25.4178  -15.1962   20.4116 N   0  0  0  0  0  0
  -31.8691  -14.7184   20.1883 O   0  0  0  0  0  0
  -21.6647   -6.8906   21.4244 O   0  0  0  0  0  0
  -22.3493  -14.5522   20.6742 O   0  0  0  0  0  0
  -24.6308  -31.8548   23.1987 C   0  0  0  0  0  0
  -25.9144  -32.4734   23.8322 C   0  0  1  0  0  0
  -27.2174  -27.2653   20.1278 C   0  0  0  0  0  0
  -25.5943  -33.8535   24.2243 N   0  0  0  0  0  0
  -23.4249  -30.4794   21.5415 C   0  0  2  0  0  0
  -24.8727  -28.9307   20.1049 C   0  0  0  0  0  0
  -22.7498  -29.4592   22.4890 C   0  0  0  0  0  0
  -18.0292  -28.1383   22.8478 C   0  0  0  0  0  0
  -24.1498  -36.7291   23.2644 C   0  0  0  0  0  0
  -25.9722  -30.7687   21.3790 C   0  0  0  0  0  0
  -26.0432  -29.3914   20.7217 C   0  0  0  0  0  0
  -27.2135  -28.5686   20.7279 C   0  0  0  0  0  0
  -26.0313  -26.8855   19.4559 C   0  0  0  0  0  0
  -24.8736  -27.6861   19.4599 C   0  0  0  0  0  0
  -23.6424  -29.8160   20.1561 C   0  0  0  0  0  0
  -25.4118  -36.3065   24.0332 C   0  0  1  0  0  0
  -20.5905  -28.3688   23.1262 C   0  0  2  0  0  0
  -20.6775  -26.9395   22.5406 C   0  0  0  0  0  0
  -19.5752  -26.6370   21.5211 C   0  0  0  0  0  0
  -18.1934  -26.7921   22.1623 C   0  0  0  0  0  0
  -19.1553  -28.8850   23.2860 C   0  0  0  0  0  0
  -18.9471  -30.1454   23.8865 C   0  0  0  0  0  0
  -17.6472  -30.6575   24.0563 C   0  0  0  0  0  0
  -25.9060  -34.9431   23.5083 C   0  0  0  0  0  0
  -16.5360  -29.9076   23.6342 C   0  0  0  0  0  0
  -16.7278  -28.6509   23.0333 C   0  0  0  0  0  0
  -26.4499  -31.6567   25.0718 C   0  0  0  0  0  0
  -25.3727  -31.3741   26.1449 C   0  0  0  0  0  0
  -27.0364  -30.2981   24.6227 C   0  0  0  0  0  0
  -27.6034  -32.4327   25.7498 C   0  0  0  0  0  0
  -27.5576  -37.1794   24.8460 C   0  0  0  0  0  0
  -21.4209  -29.3040   22.3652 N   0  0  0  0  0  0
  -26.4288  -37.3753   23.9414 N   0  0  0  0  0  0
  -24.6946  -31.0531   22.0950 N   0  0  0  0  0  0
  -23.4213  -28.8115   23.2958 O   0  0  0  0  0  0
  -28.3136  -26.3749   20.2229 O   0  0  0  0  0  0
  -26.5637  -34.8908   22.4660 O   0  0  0  0  0  0
  -23.5466  -32.1353   23.7303 O   0  0  0  0  0  0
  -29.6378  -18.5530   20.6206 C   0  0  0  0  0  0
  -31.6532  -17.5842   19.7002 C   0  0  0  0  0  0
  -31.4424  -20.0296   19.8605 C   0  0  0  0  0  0
  -30.4021  -17.3416   20.3156 C   0  0  0  0  0  0
  -30.1146  -19.9157   20.3694 C   0  0  0  0  0  0
  -32.1646  -18.8744   19.4996 C   0  0  0  0  0  0
  -29.1428  -22.3007   20.0007 C   0  0  0  0  0  0
  -32.1925  -21.3566   19.7585 C   0  0  0  0  0  0
  -28.9630  -23.7470   20.6669 C   0  0  0  0  0  0
  -28.1585  -24.9142   19.8897 C   0  0  0  0  0  0
  -29.3947  -21.1615   20.7509 N   0  0  0  0  0  0
  -29.9638  -15.9290   20.5756 N   0  0  0  0  0  0
  -29.0449  -22.2173   18.7749 O   0  0  0  0  0  0
  -33.4086  -18.9929   18.9744 F   0  0  0  0  0  0
  -32.0858  -21.8938   18.5413 F   0  0  0  0  0  0
  -31.4576  -12.5361   19.1699 H   0  0  0  0  0  0
  -30.3352  -11.4783   19.9748 H   0  0  0  0  0  0
  -29.7820  -11.7169   17.5241 H   0  0  0  0  0  0
  -29.6343  -13.4466   17.7111 H   0  0  0  0  0  0
  -27.8892  -11.2830   18.9227 H   0  0  0  0  0  0
  -27.3711  -12.5113   17.7990 H   0  0  0  0  0  0
  -27.6210  -14.2571   19.4452 H   0  0  0  0  0  0
  -28.7128  -12.2332   21.4618 H   0  0  0  0  0  0
  -28.4242  -13.9315   21.7563 H   0  0  0  0  0  0
  -25.2789   -9.5673   22.4776 H   0  0  0  0  0  0
  -24.0018   -7.4634   22.7471 H   0  0  0  0  0  0
  -21.0876   -8.8810   19.8949 H   0  0  0  0  0  0
  -22.3758  -10.9695   19.6178 H   0  0  0  0  0  0
  -21.2008   -7.6161   23.9727 H   0  0  0  0  0  0
  -21.1469   -6.0534   25.9082 H   0  0  0  0  0  0
  -22.0600   -2.7626   23.2840 H   0  0  0  0  0  0
  -22.4087  -11.9848   22.4803 H   0  0  0  0  0  0
  -21.1086  -13.1204   22.2655 H   0  0  0  0  0  0
  -24.6494  -15.8500   20.5174 H   0  0  0  0  0  0
  -26.2650  -15.6332   20.0717 H   0  0  0  0  0  0
  -26.7210  -32.5384   23.1060 H   0  0  0  0  0  0
  -25.0080  -33.9664   25.0386 H   0  0  0  0  0  0
  -22.7205  -31.3003   21.3953 H   0  0  0  0  0  0
  -23.3741  -35.9640   23.3308 H   0  0  0  0  0  0
  -24.3597  -36.8918   22.2056 H   0  0  0  0  0  0
  -23.7269  -37.6504   23.6669 H   0  0  0  0  0  0
  -26.1160  -31.5300   20.6108 H   0  0  0  0  0  0
  -26.8501  -30.8148   22.0126 H   0  0  0  0  0  0
  -28.1028  -28.9101   21.2386 H   0  0  0  0  0  0
  -25.9609  -25.9496   18.9239 H   0  0  0  0  0  0
  -23.9844  -27.3336   18.9548 H   0  0  0  0  0  0
  -23.7654  -30.5917   19.3989 H   0  0  0  0  0  0
  -22.7591  -29.2498   19.8518 H   0  0  0  0  0  0
  -25.1288  -36.1902   25.0820 H   0  0  0  0  0  0
  -20.9996  -28.3282   24.1387 H   0  0  0  0  0  0
  -20.5676  -26.2293   23.3617 H   0  0  0  0  0  0
  -21.6635  -26.7413   22.1187 H   0  0  0  0  0  0
  -19.6920  -25.6284   21.1240 H   0  0  0  0  0  0
  -19.6699  -27.3186   20.6752 H   0  0  0  0  0  0
  -17.4195  -26.6669   21.4030 H   0  0  0  0  0  0
  -18.0322  -26.0066   22.9023 H   0  0  0  0  0  0
  -19.7950  -30.7281   24.2198 H   0  0  0  0  0  0
  -17.5027  -31.6246   24.5176 H   0  0  0  0  0  0
  -15.5360  -30.2960   23.7677 H   0  0  0  0  0  0
  -15.8687  -28.0831   22.7022 H   0  0  0  0  0  0
  -24.5889  -30.7086   25.7806 H   0  0  0  0  0  0
  -24.8928  -32.2925   26.4843 H   0  0  0  0  0  0
  -25.8051  -30.8948   27.0242 H   0  0  0  0  0  0
  -26.2976  -29.6703   24.1234 H   0  0  0  0  0  0
  -27.4023  -29.7254   25.4759 H   0  0  0  0  0  0
  -27.8848  -30.4243   23.9499 H   0  0  0  0  0  0
  -27.2610  -33.3629   26.2039 H   0  0  0  0  0  0
  -28.3856  -32.6893   25.0344 H   0  0  0  0  0  0
  -28.0684  -31.8487   26.5443 H   0  0  0  0  0  0
  -28.2566  -38.0109   24.7491 H   0  0  0  0  0  0
  -28.1088  -36.2633   24.6286 H   0  0  0  0  0  0
  -27.2297  -37.1439   25.8862 H   0  0  0  0  0  0
  -20.9384  -29.8807   21.6909 H   0  0  0  0  0  0
  -26.0167  -38.2833   24.1394 H   0  0  0  0  0  0
  -28.6622  -18.4410   21.0717 H   0  0  0  0  0  0
  -32.3074  -16.7962   19.3717 H   0  0  0  0  0  0
  -33.2548  -21.2064   19.9514 H   0  0  0  0  0  0
  -31.8591  -22.0849   20.4967 H   0  0  0  0  0  0
  -29.9745  -24.1114   20.8500 H   0  0  0  0  0  0
  -28.5229  -23.6180   21.6552 H   0  0  0  0  0  0
  -27.1192  -24.6191   20.0200 H   0  0  0  0  0  0
  -28.3605  -24.8255   18.8220 H   0  0  0  0  0  0
  -29.2330  -21.2659   21.7432 H   0  0  0  0  0  0
  -28.9920  -15.8129   20.8240 H   0  0  0  0  0  0
  1 25  1  0  0  0
  1 30  2  0  0  0
  1 82  1  0  0  0
  2  3  1  0  0  0
  2 25  1  0  0  0
  2 86  1  0  0  0
  2 87  1  0  0  0
  3  4  1  0  0  0
  3 88  1  0  0  0
  3 89  1  0  0  0
  4  5  1  0  0  0
  4 90  1  0  0  0
  4 91  1  0  0  0
  5  6  1  0  0  0
  5 26  1  0  0  0
  5 92  1  0  0  0
  6 25  1  0  0  0
  6 93  1  0  0  0
  6 94  1  0  0  0
  7  8  2  0  0  0
  7 26  1  0  0  0
  7 29  1  0  0  0
  8  9  1  0  0  0
  8 22  1  0  0  0
  9 10  1  0  0  0
  9 27  2  0  0  0
 10 11  2  0  0  0
 10 15  1  0  0  0
 11 12  1  0  0  0
 11 95  1  0  0  0
 12 13  2  0  0  0
 12 96  1  0  0  0
 13 14  1  0  0  0
 13 31  1  0  0  0
 14 15  2  0  0  0
 14 97  1  0  0  0
 15 98  1  0  0  0
 16 17  2  0  0  0
 16 21  1  0  0  0
 16 31  1  0  0  0
 17 18  1  0  0  0
 17 99  1  0  0  0
 18 19  2  0  0  0
 18100  1  0  0  0
 19 20  1  0  0  0
 19 24  1  0  0  0
 20 21  2  0  0  0
 20101  1  0  0  0
 21 23  1  0  0  0
 22 28  1  0  0  0
 22 32  2  0  0  0
 26 27  1  0  0  0
 28102  1  0  0  0
 28103  1  0  0  0
 29104  1  0  0  0
 29105  1  0  0  0
 33 34  1  0  0  0
 33 66  1  0  0  0
 33 70  2  0  0  0
 34 36  1  0  0  0
 34 59  1  0  0  0
 34106  1  0  0  0
 35 44  2  0  0  0
 35 45  1  0  0  0
 35 68  1  0  0  0
 36 56  1  0  0  0
 36107  1  0  0  0
 37 39  1  0  0  0
 37 47  1  0  0  0
 37 66  1  0  0  0
 37108  1  0  0  0
 38 43  2  0  0  0
 38 46  1  0  0  0
 38 47  1  0  0  0
 39 64  1  0  0  0
 39 67  2  0  0  0
 40 52  1  0  0  0
 40 53  2  0  0  0
 40 58  1  0  0  0
 41109  1  0  0  0
 41110  1  0  0  0
 41111  1  0  0  0
 41 48  1  0  0  0
 42 43  1  0  0  0
 42 66  1  0  0  0
 42112  1  0  0  0
 42113  1  0  0  0
 43 44  1  0  0  0
 44114  1  0  0  0
 45 46  2  0  0  0
 45115  1  0  0  0
 46116  1  0  0  0
 47117  1  0  0  0
 47118  1  0  0  0
 48 56  1  0  0  0
 48 65  1  0  0  0
 48119  1  0  0  0
 49 50  1  0  0  0
 49 53  1  0  0  0
 49 64  1  0  0  0
 49120  1  0  0  0
 50 51  1  0  0  0
 50121  1  0  0  0
 50122  1  0  0  0
 51 52  1  0  0  0
 51123  1  0  0  0
 51124  1  0  0  0
 52125  1  0  0  0
 52126  1  0  0  0
 53 54  1  0  0  0
 54 55  2  0  0  0
 54127  1  0  0  0
 55 57  1  0  0  0
 55128  1  0  0  0
 56 69  2  0  0  0
 57 58  2  0  0  0
 57129  1  0  0  0
 58130  1  0  0  0
 59 60  1  0  0  0
 59 61  1  0  0  0
 59 62  1  0  0  0
 60131  1  0  0  0
 60132  1  0  0  0
 60133  1  0  0  0
 61134  1  0  0  0
 61135  1  0  0  0
 61136  1  0  0  0
 62137  1  0  0  0
 62138  1  0  0  0
 62139  1  0  0  0
 63 65  1  0  0  0
 63140  1  0  0  0
 63141  1  0  0  0
 63142  1  0  0  0
 64143  1  0  0  0
 65144  1  0  0  0
 68 80  1  0  0  0
 71 74  2  0  0  0
 71 75  1  0  0  0
 71145  1  0  0  0
 72 74  1  0  0  0
 72 76  2  0  0  0
 72146  1  0  0  0
 73 75  2  0  0  0
 73 76  1  0  0  0
 73 78  1  0  0  0
 74 82  1  0  0  0
 75 81  1  0  0  0
 76 84  1  0  0  0
 77 79  1  0  0  0
 77 81  1  0  0  0
 77 83  2  0  0  0
 78 85  1  0  0  0
 78147  1  0  0  0
 78148  1  0  0  0
 79 80  1  0  0  0
 79149  1  0  0  0
 79150  1  0  0  0
 80151  1  0  0  0
 80152  1  0  0  0
 81153  1  0  0  0
 82154  1  0  0  0
M  ISO  4   1 100  68 101  80 101  82 100
M  END
> <chiral flag>
0

> <version>
0

> <s_m_source_file>
/data/baiqing/PycharmProjects/Reinvent-master-3.2/result/LINK_invent/BTK/process_docking_weight1_custom_product_contain_oxygen_bond_distance_aromatic_linkinvent_7_9_3/rearranged_h_0063.sdf

> <i_m_source_file_index>
13

> <r_mmod_Potential_Energy-OPLS-2005>
200.10090637207

> <r_mmod_Stretch_Energy-OPLS-2005>
129.307968139648

> <r_mmod_Bend_Energy-OPLS-2005>
165.174743652344

> <r_mmod_Torsional_Energy-OPLS-2005>
255.621795654297

> <r_mmod_Improper_Torsional_Energy-OPLS-2005>
5.60956382751465

> <r_mmod_Van_der_Waal_Energy-OPLS-2005>
157.724243164062

> <r_mmod_Electrostatic_Energy-OPLS-2005>
-355.043823242188

> <r_mmod_Solvation_Energy-OPLS-2005>
-244.666290283203

> <b_mmod_Minimization_Converged-OPLS-2005>
0

> <r_mmod_RMS_Derivative-OPLS-2005>
2.41261744499207

$$$$
13
                    3D
 Structure written by MMmdl.
162170  0  0  1  0            999 V2000
  -30.7052  -14.4505   20.5060 C   0  0  0  0  0  0
  -30.4239  -12.2575   19.4379 C   0  0  0  0  0  0
  -29.4999  -12.4173   18.2136 C   0  0  0  0  0  0
  -28.0136  -12.3316   18.6210 C   0  0  0  0  0  0
  -27.6615  -13.1853   19.8691 C   0  0  2  0  0  0
  -28.7058  -12.9950   20.9917 C   0  0  0  0  0  0
  -25.2581  -13.8086   20.5682 C   0  0  0  0  0  0
  -24.1830  -13.0389   20.9216 C   0  0  0  0  0  0
  -24.6366  -11.6861   20.8759 C   0  0  0  0  0  0
  -23.9027  -10.4262   21.0418 C   0  0  0  0  0  0
  -24.3584   -9.4177   21.9188 C   0  0  0  0  0  0
  -23.6273   -8.2210   22.0751 C   0  0  0  0  0  0
  -22.4260   -8.0251   21.3538 C   0  0  0  0  0  0
  -21.9890   -9.0223   20.4642 C   0  0  0  0  0  0
  -22.7210  -10.2107   20.3057 C   0  0  0  0  0  0
  -21.6842   -6.0715   22.5276 C   0  0  0  0  0  0
  -21.4000   -6.5623   23.8206 C   0  0  0  0  0  0
  -21.3653   -5.6780   24.9173 C   0  0  0  0  0  0
  -21.6042   -4.3044   24.7230 C   0  0  0  0  0  0
  -21.8820   -3.8136   23.4352 C   0  0  0  0  0  0
  -21.9186   -4.6946   22.3405 C   0  0  0  0  0  0
  -22.7854  -13.5209   21.1864 C   0  0  0  0  0  0
  -22.1660   -4.2126   21.0987 F   0  0  0  0  0  0
  -21.5626   -3.4535   25.7749 F   0  0  0  0  0  0
  -30.0353  -13.2733   20.4250 N   0  0  0  0  0  0
  -26.3010  -12.9236   20.3346 N   0  0  0  0  0  0
  -25.9288  -11.6419   20.5804 N   0  0  0  0  0  0
  -22.0476  -12.8213   22.0417 N   0  0  0  0  0  0
  -25.4216  -15.1791   20.4061 N   0  0  0  0  0  0
  -31.8646  -14.5986   20.1123 O   0  0  0  0  0  0
  -21.6627   -6.8850   21.4234 O   0  0  0  0  0  0
  -22.3559  -14.5517   20.6705 O   0  0  0  0  0  0
  -24.6094  -31.8699   23.2139 C   0  0  0  0  0  0
  -25.9021  -32.4823   23.8411 C   0  0  1  0  0  0
  -27.2491  -27.4850   20.0821 C   0  0  0  0  0  0
  -25.5911  -33.8621   24.2357 N   0  0  0  0  0  0
  -23.3942  -30.4928   21.5519 C   0  0  2  0  0  0
  -24.8428  -28.9610   20.1138 C   0  0  0  0  0  0
  -22.7369  -29.4665   22.5011 C   0  0  0  0  0  0
  -18.0250  -28.1363   22.8505 C   0  0  0  0  0  0
  -24.1489  -36.7310   23.2643 C   0  0  0  0  0  0
  -25.9165  -30.8478   21.3615 C   0  0  0  0  0  0
  -25.9936  -29.4832   20.7147 C   0  0  0  0  0  0
  -27.1911  -28.7444   20.7105 C   0  0  0  0  0  0
  -26.0809  -26.9611   19.4795 C   0  0  0  0  0  0
  -24.8784  -27.6956   19.4990 C   0  0  0  0  0  0
  -23.5999  -29.8193   20.1663 C   0  0  0  0  0  0
  -25.4107  -36.3108   24.0351 C   0  0  1  0  0  0
  -20.5837  -28.3644   23.1336 C   0  0  2  0  0  0
  -20.6733  -26.9389   22.5416 C   0  0  0  0  0  0
  -19.5722  -26.6378   21.5208 C   0  0  0  0  0  0
  -18.1899  -26.7919   22.1613 C   0  0  0  0  0  0
  -19.1498  -28.8817   23.2921 C   0  0  0  0  0  0
  -18.9430  -30.1429   23.8920 C   0  0  0  0  0  0
  -17.6435  -30.6581   24.0553 C   0  0  0  0  0  0
  -25.9034  -34.9473   23.5145 C   0  0  0  0  0  0
  -16.5325  -29.9080   23.6324 C   0  0  0  0  0  0
  -16.7238  -28.6485   23.0366 C   0  0  0  0  0  0
  -26.4472  -31.6589   25.0719 C   0  0  0  0  0  0
  -25.3769  -31.3673   26.1485 C   0  0  0  0  0  0
  -27.0291  -30.3038   24.6060 C   0  0  0  0  0  0
  -27.6054  -32.4302   25.7475 C   0  0  0  0  0  0
  -27.5585  -37.1801   24.8466 C   0  0  0  0  0  0
  -21.4105  -29.3019   22.3753 N   0  0  0  0  0  0
  -26.4289  -37.3793   23.9423 N   0  0  0  0  0  0
  -24.6578  -31.0841   22.1011 N   0  0  0  0  0  0
  -23.4167  -28.8225   23.3048 O   0  0  0  0  0  0
  -28.4606  -26.8391   20.1058 O   0  0  0  0  0  0
  -26.5574  -34.8921   22.4694 O   0  0  0  0  0  0
  -23.5308  -32.1425   23.7573 O   0  0  0  0  0  0
  -31.6139  -18.8511   21.2058 C   0  0  0  0  0  0
  -31.2017  -17.5220   21.4446 C   0  0  0  0  0  0
  -30.3195  -18.8719   19.1543 C   0  0  0  0  0  0
  -31.1618  -19.5423   20.0635 C   0  0  0  0  0  0
  -30.3277  -16.8582   20.5498 C   0  0  0  0  0  0
  -29.8689  -17.5656   19.3997 C   0  0  0  0  0  0
  -33.9167  -23.3919   18.1802 C   0  0  0  0  0  0
  -32.5961  -23.2962   17.9573 C   0  0  0  0  0  0
  -30.1105  -25.2240   19.4603 C   0  0  0  0  0  0
  -30.8833  -21.8407   19.1946 C   0  0  0  0  0  0
  -28.7019  -25.7703   19.2036 C   0  0  0  0  0  0
  -31.5378  -23.2210   19.0427 C   0  0  2  0  0  0
  -31.5743  -20.8861   19.8430 N   0  0  0  0  0  0
  -29.9560  -15.5134   20.8455 N   0  0  0  0  0  0
  -30.4548  -24.1517   18.7489 N   0  0  0  0  0  0
  -30.8537  -25.7255   20.3092 O   0  0  0  0  0  0
  -29.7470  -21.6655   18.7342 O   0  0  0  0  0  0
  -28.3036  -17.9966   17.2742 O   0  0  0  0  0  0
  -29.3230  -15.7114   17.5945 O   0  0  0  0  0  0
  -27.3789  -16.4475   18.9625 F   0  0  0  0  0  0
  -28.7101  -16.9109   18.1870 S   0  0  0  0  0  0
  -31.4700  -12.3399   19.1366 H   0  0  0  0  0  0
  -30.3167  -11.2609   19.8697 H   0  0  0  0  0  0
  -29.7213  -11.6422   17.4790 H   0  0  0  0  0  0
  -29.7095  -13.3575   17.7131 H   0  0  0  0  0  0
  -27.7964  -11.2826   18.8237 H   0  0  0  0  0  0
  -27.3772  -12.6124   17.7810 H   0  0  0  0  0  0
  -27.7027  -14.2207   19.5530 H   0  0  0  0  0  0
  -28.6763  -11.9716   21.3691 H   0  0  0  0  0  0
  -28.4810  -13.6333   21.8479 H   0  0  0  0  0  0
  -25.2724   -9.5656   22.4763 H   0  0  0  0  0  0
  -23.9973   -7.4599   22.7471 H   0  0  0  0  0  0
  -21.0816   -8.8738   19.8953 H   0  0  0  0  0  0
  -22.3664  -10.9639   19.6164 H   0  0  0  0  0  0
  -21.1988   -7.6132   23.9702 H   0  0  0  0  0  0
  -21.1468   -6.0514   25.9072 H   0  0  0  0  0  0
  -22.0603   -2.7600   23.2864 H   0  0  0  0  0  0
  -22.4085  -11.9869   22.4794 H   0  0  0  0  0  0
  -21.1102  -13.1263   22.2633 H   0  0  0  0  0  0
  -24.6228  -15.8001   20.4496 H   0  0  0  0  0  0
  -26.2162  -15.6025   19.9287 H   0  0  0  0  0  0
  -26.7093  -32.5553   23.1184 H   0  0  0  0  0  0
  -25.0112  -33.9780   25.0536 H   0  0  0  0  0  0
  -22.6808  -31.3080   21.4144 H   0  0  0  0  0  0
  -23.3746  -35.9646   23.3291 H   0  0  0  0  0  0
  -24.3600  -36.8925   22.2062 H   0  0  0  0  0  0
  -23.7241  -37.6519   23.6647 H   0  0  0  0  0  0
  -26.0236  -31.6129   20.5910 H   0  0  0  0  0  0
  -26.8072  -30.9023   21.9752 H   0  0  0  0  0  0
  -28.0805  -29.1457   21.1772 H   0  0  0  0  0  0
  -26.0774  -25.9955   18.9955 H   0  0  0  0  0  0
  -23.9929  -27.2852   19.0335 H   0  0  0  0  0  0
  -23.6965  -30.5901   19.4008 H   0  0  0  0  0  0
  -22.7279  -29.2279   19.8802 H   0  0  0  0  0  0
  -25.1283  -36.1970   25.0842 H   0  0  0  0  0  0
  -20.9933  -28.3197   24.1456 H   0  0  0  0  0  0
  -20.5629  -26.2256   23.3595 H   0  0  0  0  0  0
  -21.6607  -26.7430   22.1224 H   0  0  0  0  0  0
  -19.6884  -25.6294   21.1229 H   0  0  0  0  0  0
  -19.6683  -27.3186   20.6744 H   0  0  0  0  0  0
  -17.4188  -26.6691   21.3990 H   0  0  0  0  0  0
  -18.0288  -26.0042   22.8984 H   0  0  0  0  0  0
  -19.7910  -30.7223   24.2311 H   0  0  0  0  0  0
  -17.4998  -31.6268   24.5140 H   0  0  0  0  0  0
  -15.5322  -30.2985   23.7644 H   0  0  0  0  0  0
  -15.8639  -28.0799   22.7095 H   0  0  0  0  0  0
  -24.5953  -30.6999   25.7836 H   0  0  0  0  0  0
  -24.8941  -32.2809   26.4955 H   0  0  0  0  0  0
  -25.8157  -30.8844   27.0226 H   0  0  0  0  0  0
  -26.2794  -29.6803   24.1166 H   0  0  0  0  0  0
  -27.4125  -29.7280   25.4497 H   0  0  0  0  0  0
  -27.8614  -30.4361   23.9143 H   0  0  0  0  0  0
  -27.2674  -33.3595   26.2071 H   0  0  0  0  0  0
  -28.3850  -32.6864   25.0290 H   0  0  0  0  0  0
  -28.0735  -31.8415   26.5376 H   0  0  0  0  0  0
  -28.2588  -38.0113   24.7527 H   0  0  0  0  0  0
  -28.1084  -36.2635   24.6252 H   0  0  0  0  0  0
  -27.2309  -37.1428   25.8872 H   0  0  0  0  0  0
  -20.9258  -29.8749   21.6984 H   0  0  0  0  0  0
  -26.0175  -38.2872   24.1411 H   0  0  0  0  0  0
  -32.2720  -19.3374   21.9131 H   0  0  0  0  0  0
  -31.5625  -17.0125   22.3272 H   0  0  0  0  0  0
  -29.9949  -19.3582   18.2492 H   0  0  0  0  0  0
  -34.6164  -23.4324   17.3573 H   0  0  0  0  0  0
  -34.3204  -23.4319   19.1823 H   0  0  0  0  0  0
  -32.2371  -23.2551   16.9380 H   0  0  0  0  0  0
  -27.9910  -24.9587   19.3627 H   0  0  0  0  0  0
  -28.6159  -26.1129   18.1713 H   0  0  0  0  0  0
  -32.0022  -23.4639   20.0006 H   0  0  0  0  0  0
  -32.4451  -21.1768   20.2669 H   0  0  0  0  0  0
  -28.9939  -15.3294   21.0890 H   0  0  0  0  0  0
  -29.7482  -23.7710   18.1321 H   0  0  0  0  0  0
  1 25  1  0  0  0
  1 30  2  0  0  0
  1 84  1  0  0  0
  2  3  1  0  0  0
  2 25  1  0  0  0
  2 92  1  0  0  0
  2 93  1  0  0  0
  3  4  1  0  0  0
  3 94  1  0  0  0
  3 95  1  0  0  0
  4  5  1  0  0  0
  4 96  1  0  0  0
  4 97  1  0  0  0
  5  6  1  0  0  0
  5 26  1  0  0  0
  5 98  1  0  0  0
  6 25  1  0  0  0
  6 99  1  0  0  0
  6100  1  0  0  0
  7  8  2  0  0  0
  7 26  1  0  0  0
  7 29  1  0  0  0
  8  9  1  0  0  0
  8 22  1  0  0  0
  9 10  1  0  0  0
  9 27  2  0  0  0
 10 11  2  0  0  0
 10 15  1  0  0  0
 11 12  1  0  0  0
 11101  1  0  0  0
 12 13  2  0  0  0
 12102  1  0  0  0
 13 14  1  0  0  0
 13 31  1  0  0  0
 14 15  2  0  0  0
 14103  1  0  0  0
 15104  1  0  0  0
 16 17  2  0  0  0
 16 21  1  0  0  0
 16 31  1  0  0  0
 17 18  1  0  0  0
 17105  1  0  0  0
 18 19  2  0  0  0
 18106  1  0  0  0
 19 20  1  0  0  0
 19 24  1  0  0  0
 20 21  2  0  0  0
 20107  1  0  0  0
 21 23  1  0  0  0
 22 28  1  0  0  0
 22 32  2  0  0  0
 26 27  1  0  0  0
 28108  1  0  0  0
 28109  1  0  0  0
 29110  1  0  0  0
 29111  1  0  0  0
 33 34  1  0  0  0
 33 66  1  0  0  0
 33 70  2  0  0  0
 34 36  1  0  0  0
 34 59  1  0  0  0
 34112  1  0  0  0
 35 44  2  0  0  0
 35 45  1  0  0  0
 35 68  1  0  0  0
 36 56  1  0  0  0
 36113  1  0  0  0
 37 39  1  0  0  0
 37 47  1  0  0  0
 37 66  1  0  0  0
 37114  1  0  0  0
 38 43  2  0  0  0
 38 46  1  0  0  0
 38 47  1  0  0  0
 39 64  1  0  0  0
 39 67  2  0  0  0
 40 52  1  0  0  0
 40 53  2  0  0  0
 40 58  1  0  0  0
 41115  1  0  0  0
 41116  1  0  0  0
 41117  1  0  0  0
 41 48  1  0  0  0
 42 43  1  0  0  0
 42 66  1  0  0  0
 42118  1  0  0  0
 42119  1  0  0  0
 43 44  1  0  0  0
 44120  1  0  0  0
 45 46  2  0  0  0
 45121  1  0  0  0
 46122  1  0  0  0
 47123  1  0  0  0
 47124  1  0  0  0
 48 56  1  0  0  0
 48 65  1  0  0  0
 48125  1  0  0  0
 49 50  1  0  0  0
 49 53  1  0  0  0
 49 64  1  0  0  0
 49126  1  0  0  0
 50 51  1  0  0  0
 50127  1  0  0  0
 50128  1  0  0  0
 51 52  1  0  0  0
 51129  1  0  0  0
 51130  1  0  0  0
 52131  1  0  0  0
 52132  1  0  0  0
 53 54  1  0  0  0
 54 55  2  0  0  0
 54133  1  0  0  0
 55 57  1  0  0  0
 55134  1  0  0  0
 56 69  2  0  0  0
 57 58  2  0  0  0
 57135  1  0  0  0
 58136  1  0  0  0
 59 60  1  0  0  0
 59 61  1  0  0  0
 59 62  1  0  0  0
 60137  1  0  0  0
 60138  1  0  0  0
 60139  1  0  0  0
 61140  1  0  0  0
 61141  1  0  0  0
 61142  1  0  0  0
 62143  1  0  0  0
 62144  1  0  0  0
 62145  1  0  0  0
 63 65  1  0  0  0
 63146  1  0  0  0
 63147  1  0  0  0
 63148  1  0  0  0
 64149  1  0  0  0
 65150  1  0  0  0
 68 81  1  0  0  0
 71 72  2  0  0  0
 71 74  1  0  0  0
 71151  1  0  0  0
 72 75  1  0  0  0
 72152  1  0  0  0
 73 74  2  0  0  0
 73 76  1  0  0  0
 73153  1  0  0  0
 74 83  1  0  0  0
 75 76  2  0  0  0
 75 84  1  0  0  0
 76 91  1  0  0  0
 77 78  2  0  0  0
 77154  1  0  0  0
 77155  1  0  0  0
 78 82  1  0  0  0
 78156  1  0  0  0
 79 81  1  0  0  0
 79 85  1  0  0  0
 79 86  2  0  0  0
 80 82  1  0  0  0
 80 83  1  0  0  0
 80 87  2  0  0  0
 81157  1  0  0  0
 81158  1  0  0  0
 82 85  1  0  0  0
 82159  1  0  0  0
 83160  1  0  0  0
 84161  1  0  0  0
 85162  1  0  0  0
 88 91  2  0  0  0
 89 91  2  0  0  0
 90 91  1  0  0  0
M  ISO  4   1 100  68 101  81 101  84 100
M  END
> <chiral flag>
0

> <version>
0

> <s_m_source_file>
/data/baiqing/PycharmProjects/Reinvent-master-3.2/result/LINK_invent/BTK/process_docking_weight1_custom_product_contain_oxygen_bond_distance_aromatic_linkinvent_7_9_3/rearranged_h_0063.sdf

> <i_m_source_file_index>
14

> <r_mmod_Potential_Energy-OPLS-2005>
-129.88508605957

> <r_mmod_Stretch_Energy-OPLS-2005>
33.7664070129395

> <r_mmod_Bend_Energy-OPLS-2005>
104.343681335449

> <r_mmod_Torsional_Energy-OPLS-2005>
232.36360168457

> <r_mmod_Improper_Torsional_Energy-OPLS-2005>
7.77990341186523

> <r_mmod_Van_der_Waal_Energy-OPLS-2005>
166.772964477539

> <r_mmod_Electrostatic_Energy-OPLS-2005>
-411.982727050781

> <r_mmod_Solvation_Energy-OPLS-2005>
-279.043640136719

> <b_mmod_Minimization_Converged-OPLS-2005>
0

> <r_mmod_RMS_Derivative-OPLS-2005>
1.37851691246033

$$$$
14
                    3D
 Structure written by MMmdl.
155163  0  0  1  0            999 V2000
  -30.6229  -14.6238   20.5046 C   0  0  0  0  0  0
  -30.4385  -12.3832   19.4452 C   0  0  0  0  0  0
  -29.5058  -12.5085   18.2196 C   0  0  0  0  0  0
  -28.0272  -12.3532   18.6289 C   0  0  0  0  0  0
  -27.6562  -13.2143   19.8656 C   0  0  2  0  0  0
  -28.7008  -13.0529   20.9926 C   0  0  0  0  0  0
  -25.2582  -13.8172   20.5677 C   0  0  0  0  0  0
  -24.1844  -13.0441   20.9179 C   0  0  0  0  0  0
  -24.6409  -11.6911   20.8744 C   0  0  0  0  0  0
  -23.9081  -10.4296   21.0416 C   0  0  0  0  0  0
  -24.3628   -9.4210   21.9193 C   0  0  0  0  0  0
  -23.6301   -8.2245   22.0762 C   0  0  0  0  0  0
  -22.4286   -8.0288   21.3548 C   0  0  0  0  0  0
  -21.9929   -9.0262   20.4647 C   0  0  0  0  0  0
  -22.7259  -10.2135   20.3060 C   0  0  0  0  0  0
  -21.6853   -6.0746   22.5284 C   0  0  0  0  0  0
  -21.4011   -6.5647   23.8216 C   0  0  0  0  0  0
  -21.3655   -5.6805   24.9181 C   0  0  0  0  0  0
  -21.6041   -4.3069   24.7237 C   0  0  0  0  0  0
  -21.8821   -3.8160   23.4358 C   0  0  0  0  0  0
  -21.9189   -4.6973   22.3411 C   0  0  0  0  0  0
  -22.7865  -13.5229   21.1841 C   0  0  0  0  0  0
  -22.1660   -4.2154   21.0988 F   0  0  0  0  0  0
  -21.5624   -3.4555   25.7751 F   0  0  0  0  0  0
  -30.0182  -13.3963   20.4336 N   0  0  0  0  0  0
  -26.3007  -12.9344   20.3324 N   0  0  0  0  0  0
  -25.9333  -11.6501   20.5751 N   0  0  0  0  0  0
  -22.0510  -12.8208   22.0390 N   0  0  0  0  0  0
  -25.4315  -15.1896   20.4079 N   0  0  0  0  0  0
  -31.7789  -14.7929   20.1064 O   0  0  0  0  0  0
  -21.6640   -6.8892   21.4248 O   0  0  0  0  0  0
  -22.3548  -14.5544   20.6707 O   0  0  0  0  0  0
  -24.6273  -31.8608   23.2058 C   0  0  0  0  0  0
  -25.9126  -32.4776   23.8382 C   0  0  1  0  0  0
  -27.2166  -27.3285   20.1068 C   0  0  0  0  0  0
  -25.5948  -33.8576   24.2310 N   0  0  0  0  0  0
  -23.4174  -30.4900   21.5477 C   0  0  2  0  0  0
  -24.8600  -28.9491   20.1120 C   0  0  0  0  0  0
  -22.7465  -29.4646   22.4920 C   0  0  0  0  0  0
  -18.0288  -28.1361   22.8481 C   0  0  0  0  0  0
  -24.1470  -36.7288   23.2635 C   0  0  0  0  0  0
  -25.9599  -30.7952   21.3739 C   0  0  0  0  0  0
  -26.0324  -29.4243   20.7151 C   0  0  0  0  0  0
  -27.2140  -28.6268   20.7010 C   0  0  0  0  0  0
  -26.0180  -26.9066   19.4821 C   0  0  0  0  0  0
  -24.8548  -27.6945   19.4874 C   0  0  0  0  0  0
  -23.6302  -29.8302   20.1610 C   0  0  0  0  0  0
  -25.4091  -36.3075   24.0337 C   0  0  1  0  0  0
  -20.5885  -28.3684   23.1255 C   0  0  2  0  0  0
  -20.6771  -26.9402   22.5381 C   0  0  0  0  0  0
  -19.5743  -26.6371   21.5187 C   0  0  0  0  0  0
  -18.1921  -26.7905   22.1603 C   0  0  0  0  0  0
  -19.1539  -28.8836   23.2864 C   0  0  0  0  0  0
  -18.9468  -30.1441   23.8871 C   0  0  0  0  0  0
  -17.6471  -30.6568   24.0560 C   0  0  0  0  0  0
  -25.9045  -34.9450   23.5121 C   0  0  0  0  0  0
  -16.5361  -29.9071   23.6328 C   0  0  0  0  0  0
  -16.7281  -28.6488   23.0350 C   0  0  0  0  0  0
  -26.4515  -31.6577   25.0745 C   0  0  0  0  0  0
  -25.3754  -31.3690   26.1476 C   0  0  0  0  0  0
  -27.0384  -30.3010   24.6192 C   0  0  0  0  0  0
  -27.6061  -32.4329   25.7517 C   0  0  0  0  0  0
  -27.5568  -37.1791   24.8460 C   0  0  0  0  0  0
  -21.4178  -29.3062   22.3667 N   0  0  0  0  0  0
  -26.4258  -37.3786   23.9433 N   0  0  0  0  0  0
  -24.6873  -31.0645   22.0995 N   0  0  0  0  0  0
  -23.4192  -28.8154   23.2976 O   0  0  0  0  0  0
  -28.3331  -26.4772   20.1537 O   0  0  0  0  0  0
  -26.5601  -34.8912   22.4679 O   0  0  0  0  0  0
  -23.5445  -32.1398   23.7404 O   0  0  0  0  0  0
  -28.7841  -17.8876   21.2028 C   0  0  0  0  0  0
  -28.7448  -19.3040   21.0764 C   0  0  0  0  0  0
  -30.9349  -17.8333   20.1329 C   0  0  0  0  0  0
  -30.9226  -19.2622   20.0217 C   0  0  0  0  0  0
  -29.8752  -17.1077   20.7379 C   0  0  0  0  0  0
  -29.8061  -20.0352   20.4791 C   0  0  0  0  0  0
  -32.8539  -19.4098   18.4240 C   0  0  0  0  0  0
  -32.0644  -19.9405   19.3749 C   0  0  0  0  0  0
  -28.8410  -22.4497   20.4324 C   0  0  0  0  0  0
  -29.2340  -23.9798   20.3584 C   0  0  0  0  0  0
  -28.0783  -25.0220   20.0463 C   0  0  0  0  0  0
  -29.8239  -21.4989   20.3605 N   0  0  0  0  0  0
  -29.8139  -15.6546   20.9016 N   0  0  0  0  0  0
  -27.6509  -22.1478   20.5501 O   0  0  0  0  0  0
  -31.4789  -12.5114   19.1411 H   0  0  0  0  0  0
  -30.3750  -11.3834   19.8772 H   0  0  0  0  0  0
  -29.7656  -11.7599   17.4694 H   0  0  0  0  0  0
  -29.6549  -13.4793   17.7447 H   0  0  0  0  0  0
  -27.8521  -11.2984   18.8450 H   0  0  0  0  0  0
  -27.3777  -12.6041   17.7886 H   0  0  0  0  0  0
  -27.6798  -14.2527   19.5344 H   0  0  0  0  0  0
  -28.7076  -12.0274   21.3636 H   0  0  0  0  0  0
  -28.4481  -13.6746   21.8532 H   0  0  0  0  0  0
  -25.2774   -9.5677   22.4760 H   0  0  0  0  0  0
  -24.0012   -7.4640   22.7488 H   0  0  0  0  0  0
  -21.0861   -8.8784   19.8949 H   0  0  0  0  0  0
  -22.3736  -10.9674   19.6163 H   0  0  0  0  0  0
  -21.2005   -7.6155   23.9723 H   0  0  0  0  0  0
  -21.1466   -6.0536   25.9081 H   0  0  0  0  0  0
  -22.0597   -2.7622   23.2868 H   0  0  0  0  0  0
  -22.4125  -11.9863   22.4769 H   0  0  0  0  0  0
  -21.1121  -13.1211   22.2592 H   0  0  0  0  0  0
  -24.6675  -15.8473   20.5186 H   0  0  0  0  0  0
  -26.2761  -15.6221   20.0562 H   0  0  0  0  0  0
  -26.7196  -32.5449   23.1134 H   0  0  0  0  0  0
  -25.0133  -33.9732   25.0480 H   0  0  0  0  0  0
  -22.7121  -31.3122   21.4076 H   0  0  0  0  0  0
  -23.3741  -35.9608   23.3260 H   0  0  0  0  0  0
  -24.3557  -36.8964   22.2057 H   0  0  0  0  0  0
  -23.7220  -37.6476   23.6689 H   0  0  0  0  0  0
  -26.0891  -31.5568   20.6042 H   0  0  0  0  0  0
  -26.8427  -30.8438   22.0001 H   0  0  0  0  0  0
  -28.1146  -28.9870   21.1770 H   0  0  0  0  0  0
  -25.9428  -25.9507   18.9864 H   0  0  0  0  0  0
  -23.9571  -27.3274   19.0098 H   0  0  0  0  0  0
  -23.7547  -30.6100   19.4088 H   0  0  0  0  0  0
  -22.7472  -29.2670   19.8525 H   0  0  0  0  0  0
  -25.1256  -36.1918   25.0826 H   0  0  0  0  0  0
  -20.9987  -28.3264   24.1370 H   0  0  0  0  0  0
  -20.5641  -26.2307   23.3590 H   0  0  0  0  0  0
  -21.6646  -26.7392   22.1200 H   0  0  0  0  0  0
  -19.6900  -25.6277   21.1236 H   0  0  0  0  0  0
  -19.6670  -27.3168   20.6695 H   0  0  0  0  0  0
  -17.4185  -26.6668   21.4005 H   0  0  0  0  0  0
  -18.0312  -26.0020   22.8965 H   0  0  0  0  0  0
  -19.7948  -30.7269   24.2217 H   0  0  0  0  0  0
  -17.5029  -31.6238   24.5179 H   0  0  0  0  0  0
  -15.5366  -30.2977   23.7644 H   0  0  0  0  0  0
  -15.8676  -28.0818   22.7049 H   0  0  0  0  0  0
  -24.5917  -30.7053   25.7814 H   0  0  0  0  0  0
  -24.8945  -32.2841   26.4940 H   0  0  0  0  0  0
  -25.8089  -30.8845   27.0234 H   0  0  0  0  0  0
  -26.2971  -29.6732   24.1238 H   0  0  0  0  0  0
  -27.4134  -29.7293   25.4697 H   0  0  0  0  0  0
  -27.8807  -30.4322   23.9392 H   0  0  0  0  0  0
  -27.2670  -33.3660   26.2034 H   0  0  0  0  0  0
  -28.3896  -32.6852   25.0356 H   0  0  0  0  0  0
  -28.0690  -31.8487   26.5488 H   0  0  0  0  0  0
  -28.2539  -38.0126   24.7558 H   0  0  0  0  0  0
  -28.1112  -36.2665   24.6211 H   0  0  0  0  0  0
  -27.2300  -37.1360   25.8864 H   0  0  0  0  0  0
  -20.9344  -29.8858   21.6942 H   0  0  0  0  0  0
  -26.0127  -38.2850   24.1475 H   0  0  0  0  0  0
  -27.9426  -17.3986   21.6747 H   0  0  0  0  0  0
  -27.8792  -19.8215   21.4626 H   0  0  0  0  0  0
  -31.7902  -17.2887   19.7623 H   0  0  0  0  0  0
  -33.6844  -19.9727   18.0214 H   0  0  0  0  0  0
  -32.6901  -18.4186   18.0239 H   0  0  0  0  0  0
  -32.2987  -20.9374   19.7202 H   0  0  0  0  0  0
  -30.0227  -24.0984   19.6158 H   0  0  0  0  0  0
  -29.6821  -24.2345   21.3182 H   0  0  0  0  0  0
  -27.2347  -24.7867   20.6991 H   0  0  0  0  0  0
  -27.7513  -24.8102   19.0279 H   0  0  0  0  0  0
  -30.7369  -21.8846   20.1684 H   0  0  0  0  0  0
  -28.9386  -15.3193   21.2723 H   0  0  0  0  0  0
  1 25  1  0  0  0
  1 30  2  0  0  0
  1 83  1  0  0  0
  2  3  1  0  0  0
  2 25  1  0  0  0
  2 85  1  0  0  0
  2 86  1  0  0  0
  3  4  1  0  0  0
  3 87  1  0  0  0
  3 88  1  0  0  0
  4  5  1  0  0  0
  4 89  1  0  0  0
  4 90  1  0  0  0
  5  6  1  0  0  0
  5 26  1  0  0  0
  5 91  1  0  0  0
  6 25  1  0  0  0
  6 92  1  0  0  0
  6 93  1  0  0  0
  7  8  2  0  0  0
  7 26  1  0  0  0
  7 29  1  0  0  0
  8  9  1  0  0  0
  8 22  1  0  0  0
  9 10  1  0  0  0
  9 27  2  0  0  0
 10 11  2  0  0  0
 10 15  1  0  0  0
 11 12  1  0  0  0
 11 94  1  0  0  0
 12 13  2  0  0  0
 12 95  1  0  0  0
 13 14  1  0  0  0
 13 31  1  0  0  0
 14 15  2  0  0  0
 14 96  1  0  0  0
 15 97  1  0  0  0
 16 17  2  0  0  0
 16 21  1  0  0  0
 16 31  1  0  0  0
 17 18  1  0  0  0
 17 98  1  0  0  0
 18 19  2  0  0  0
 18 99  1  0  0  0
 19 20  1  0  0  0
 19 24  1  0  0  0
 20 21  2  0  0  0
 20100  1  0  0  0
 21 23  1  0  0  0
 22 28  1  0  0  0
 22 32  2  0  0  0
 26 27  1  0  0  0
 28101  1  0  0  0
 28102  1  0  0  0
 29103  1  0  0  0
 29104  1  0  0  0
 33 34  1  0  0  0
 33 66  1  0  0  0
 33 70  2  0  0  0
 34 36  1  0  0  0
 34 59  1  0  0  0
 34105  1  0  0  0
 35 44  2  0  0  0
 35 45  1  0  0  0
 35 68  1  0  0  0
 36 56  1  0  0  0
 36106  1  0  0  0
 37 39  1  0  0  0
 37 47  1  0  0  0
 37 66  1  0  0  0
 37107  1  0  0  0
 38 43  2  0  0  0
 38 46  1  0  0  0
 38 47  1  0  0  0
 39 64  1  0  0  0
 39 67  2  0  0  0
 40 52  1  0  0  0
 40 53  2  0  0  0
 40 58  1  0  0  0
 41108  1  0  0  0
 41109  1  0  0  0
 41110  1  0  0  0
 41 48  1  0  0  0
 42 43  1  0  0  0
 42 66  1  0  0  0
 42111  1  0  0  0
 42112  1  0  0  0
 43 44  1  0  0  0
 44113  1  0  0  0
 45 46  2  0  0  0
 45114  1  0  0  0
 46115  1  0  0  0
 47116  1  0  0  0
 47117  1  0  0  0
 48 56  1  0  0  0
 48 65  1  0  0  0
 48118  1  0  0  0
 49 50  1  0  0  0
 49 53  1  0  0  0
 49 64  1  0  0  0
 49119  1  0  0  0
 50 51  1  0  0  0
 50120  1  0  0  0
 50121  1  0  0  0
 51 52  1  0  0  0
 51122  1  0  0  0
 51123  1  0  0  0
 52124  1  0  0  0
 52125  1  0  0  0
 53 54  1  0  0  0
 54 55  2  0  0  0
 54126  1  0  0  0
 55 57  1  0  0  0
 55127  1  0  0  0
 56 69  2  0  0  0
 57 58  2  0  0  0
 57128  1  0  0  0
 58129  1  0  0  0
 59 60  1  0  0  0
 59 61  1  0  0  0
 59 62  1  0  0  0
 60130  1  0  0  0
 60131  1  0  0  0
 60132  1  0  0  0
 61133  1  0  0  0
 61134  1  0  0  0
 61135  1  0  0  0
 62136  1  0  0  0
 62137  1  0  0  0
 62138  1  0  0  0
 63 65  1  0  0  0
 63139  1  0  0  0
 63140  1  0  0  0
 63141  1  0  0  0
 64142  1  0  0  0
 65143  1  0  0  0
 68 81  1  0  0  0
 71 72  2  0  0  0
 71 75  1  0  0  0
 71144  1  0  0  0
 72 76  1  0  0  0
 72145  1  0  0  0
 73 74  1  0  0  0
 73 75  2  0  0  0
 73146  1  0  0  0
 74 76  2  0  0  0
 74 78  1  0  0  0
 75 83  1  0  0  0
 76 82  1  0  0  0
 77 78  2  0  0  0
 77147  1  0  0  0
 77148  1  0  0  0
 78149  1  0  0  0
 79 80  1  0  0  0
 79 82  1  0  0  0
 79 84  2  0  0  0
 80 81  1  0  0  0
 80150  1  0  0  0
 80151  1  0  0  0
 81152  1  0  0  0
 81153  1  0  0  0
 82154  1  0  0  0
 83155  1  0  0  0
M  ISO  4   1 100  68 101  81 101  83 100
M  END
> <chiral flag>
0

> <version>
0

> <s_m_source_file>
/data/baiqing/PycharmProjects/Reinvent-master-3.2/result/LINK_invent/BTK/process_docking_weight1_custom_product_contain_oxygen_bond_distance_aromatic_linkinvent_7_9_3/rearranged_h_0063.sdf

> <i_m_source_file_index>
15

> <r_mmod_Potential_Energy-OPLS-2005>
-8.57214736938477

> <r_mmod_Stretch_Energy-OPLS-2005>
76.888542175293

> <r_mmod_Bend_Energy-OPLS-2005>
138.135055541992

> <r_mmod_Torsional_Energy-OPLS-2005>
227.263916015625

> <r_mmod_Improper_Torsional_Energy-OPLS-2005>
3.95190048217773

> <r_mmod_Van_der_Waal_Energy-OPLS-2005>
154.047088623047

> <r_mmod_Electrostatic_Energy-OPLS-2005>
-423.797393798828

> <r_mmod_Solvation_Energy-OPLS-2005>
-229.318572998047

> <b_mmod_Minimization_Converged-OPLS-2005>
0

> <r_mmod_RMS_Derivative-OPLS-2005>
1.88981151580811

$$$$
15
                    3D
 Structure written by MMmdl.
152160  0  0  1  0            999 V2000
  -30.5854  -14.8189   20.4611 C   0  0  0  0  0  0
  -30.4335  -12.5085   19.4809 C   0  0  0  0  0  0
  -29.5126  -12.5195   18.2411 C   0  0  0  0  0  0
  -28.0409  -12.3263   18.6546 C   0  0  0  0  0  0
  -27.6340  -13.2365   19.8441 C   0  0  2  0  0  0
  -28.6775  -13.2058   20.9812 C   0  0  0  0  0  0
  -25.2467  -13.8191   20.5682 C   0  0  0  0  0  0
  -24.1774  -13.0430   20.9218 C   0  0  0  0  0  0
  -24.6374  -11.6909   20.8743 C   0  0  0  0  0  0
  -23.9054  -10.4291   21.0399 C   0  0  0  0  0  0
  -24.3610   -9.4215   21.9182 C   0  0  0  0  0  0
  -23.6296   -8.2245   22.0754 C   0  0  0  0  0  0
  -22.4280   -8.0274   21.3547 C   0  0  0  0  0  0
  -21.9908   -9.0239   20.4645 C   0  0  0  0  0  0
  -22.7223  -10.2124   20.3048 C   0  0  0  0  0  0
  -21.6856   -6.0730   22.5282 C   0  0  0  0  0  0
  -21.4015   -6.5638   23.8214 C   0  0  0  0  0  0
  -21.3658   -5.6793   24.9185 C   0  0  0  0  0  0
  -21.6046   -4.3056   24.7229 C   0  0  0  0  0  0
  -21.8816   -3.8145   23.4353 C   0  0  0  0  0  0
  -21.9191   -4.6960   22.3415 C   0  0  0  0  0  0
  -22.7798  -13.5208   21.1887 C   0  0  0  0  0  0
  -22.1661   -4.2142   21.0992 F   0  0  0  0  0  0
  -21.5626   -3.4545   25.7743 F   0  0  0  0  0  0
  -29.9663  -13.5842   20.3905 N   0  0  0  0  0  0
  -26.2892  -12.9405   20.3250 N   0  0  0  0  0  0
  -25.9301  -11.6545   20.5739 N   0  0  0  0  0  0
  -22.0447  -12.8187   22.0434 N   0  0  0  0  0  0
  -25.4140  -15.1918   20.4085 N   0  0  0  0  0  0
  -31.7857  -14.8851   20.1752 O   0  0  0  0  0  0
  -21.6646   -6.8865   21.4240 O   0  0  0  0  0  0
  -22.3485  -14.5516   20.6735 O   0  0  0  0  0  0
  -24.6341  -31.8538   23.1961 C   0  0  0  0  0  0
  -25.9156  -32.4749   23.8313 C   0  0  1  0  0  0
  -27.2121  -27.2234   20.1482 C   0  0  0  0  0  0
  -25.5939  -33.8546   24.2231 N   0  0  0  0  0  0
  -23.4312  -30.4741   21.5422 C   0  0  2  0  0  0
  -24.8766  -28.9050   20.1215 C   0  0  0  0  0  0
  -22.7510  -29.4595   22.4927 C   0  0  0  0  0  0
  -18.0290  -28.1402   22.8499 C   0  0  0  0  0  0
  -24.1477  -36.7261   23.2641 C   0  0  0  0  0  0
  -25.9798  -30.7529   21.3804 C   0  0  0  0  0  0
  -26.0517  -29.3678   20.7298 C   0  0  0  0  0  0
  -27.2249  -28.5398   20.7302 C   0  0  0  0  0  0
  -26.0158  -26.8306   19.5151 C   0  0  0  0  0  0
  -24.8630  -27.6429   19.5055 C   0  0  0  0  0  0
  -23.6531  -29.8019   20.1614 C   0  0  0  0  0  0
  -25.4115  -36.3053   24.0319 C   0  0  1  0  0  0
  -20.5904  -28.3703   23.1282 C   0  0  2  0  0  0
  -20.6784  -26.9422   22.5417 C   0  0  0  0  0  0
  -19.5746  -26.6390   21.5228 C   0  0  0  0  0  0
  -18.1927  -26.7941   22.1642 C   0  0  0  0  0  0
  -19.1550  -28.8876   23.2874 C   0  0  0  0  0  0
  -18.9462  -30.1483   23.8874 C   0  0  0  0  0  0
  -17.6460  -30.6604   24.0572 C   0  0  0  0  0  0
  -25.9064  -34.9432   23.5084 C   0  0  0  0  0  0
  -16.5354  -29.9096   23.6351 C   0  0  0  0  0  0
  -16.7276  -28.6521   23.0363 C   0  0  0  0  0  0
  -26.4501  -31.6595   25.0730 C   0  0  0  0  0  0
  -25.3707  -31.3787   26.1445 C   0  0  0  0  0  0
  -27.0348  -30.3001   24.6247 C   0  0  0  0  0  0
  -27.6043  -32.4348   25.7505 C   0  0  0  0  0  0
  -27.5565  -37.1801   24.8475 C   0  0  0  0  0  0
  -21.4215  -29.3042   22.3661 N   0  0  0  0  0  0
  -26.4290  -37.3757   23.9401 N   0  0  0  0  0  0
  -24.7013  -31.0462   22.0957 N   0  0  0  0  0  0
  -23.4189  -28.8151   23.3058 O   0  0  0  0  0  0
  -28.2920  -26.3043   20.1259 O   0  0  0  0  0  0
  -26.5628  -34.8915   22.4639 O   0  0  0  0  0  0
  -23.5491  -32.1369   23.7247 O   0  0  0  0  0  0
  -31.8852  -19.0611   21.4617 C   0  0  0  0  0  0
  -31.4503  -17.7366   21.2749 C   0  0  0  0  0  0
  -29.3486  -18.6148   20.4288 C   0  0  0  0  0  0
  -31.0864  -20.1775   21.1332 C   0  0  0  0  0  0
  -30.1784  -17.4358   20.7437 C   0  0  0  0  0  0
  -29.7716  -20.0158   20.6161 C   0  0  0  0  0  0
  -28.7211  -23.7730   20.1529 C   0  0  0  0  0  0
  -28.1510  -24.9624   20.6254 C   0  0  0  0  0  0
  -28.6870  -22.4182   20.8516 C   0  0  0  0  0  0
  -31.7150  -21.5528   21.3113 C   0  0  0  0  0  0
  -29.0684  -21.2674   20.1529 N   0  0  0  0  0  0
  -29.8046  -15.9800   20.6062 N   0  0  0  0  0  0
  -28.3422  -22.3108   22.0304 O   0  0  0  0  0  0
  -31.4704  -12.6494   19.1728 H   0  0  0  0  0  0
  -30.4016  -11.5407   19.9828 H   0  0  0  0  0  0
  -29.8122  -11.7405   17.5385 H   0  0  0  0  0  0
  -29.6241  -13.4679   17.7128 H   0  0  0  0  0  0
  -27.9099  -11.2785   18.9284 H   0  0  0  0  0  0
  -27.3832  -12.5024   17.8027 H   0  0  0  0  0  0
  -27.6162  -14.2514   19.4463 H   0  0  0  0  0  0
  -28.7356  -12.2139   21.4339 H   0  0  0  0  0  0
  -28.3969  -13.8943   21.7808 H   0  0  0  0  0  0
  -25.2749   -9.5706   22.4766 H   0  0  0  0  0  0
  -24.0013   -7.4635   22.7472 H   0  0  0  0  0  0
  -21.0844   -8.8740   19.8949 H   0  0  0  0  0  0
  -22.3667  -10.9656   19.6161 H   0  0  0  0  0  0
  -21.2008   -7.6143   23.9714 H   0  0  0  0  0  0
  -21.1482   -6.0529   25.9084 H   0  0  0  0  0  0
  -22.0590   -2.7602   23.2861 H   0  0  0  0  0  0
  -22.4069  -11.9850   22.4814 H   0  0  0  0  0  0
  -21.1058  -13.1200   22.2637 H   0  0  0  0  0  0
  -24.6375  -15.8380   20.5026 H   0  0  0  0  0  0
  -26.2509  -15.6319   20.0484 H   0  0  0  0  0  0
  -26.7212  -32.5373   23.1043 H   0  0  0  0  0  0
  -25.0100  -33.9673   25.0392 H   0  0  0  0  0  0
  -22.7286  -31.2978   21.3944 H   0  0  0  0  0  0
  -23.3737  -35.9599   23.3349 H   0  0  0  0  0  0
  -24.3557  -36.8837   22.2048 H   0  0  0  0  0  0
  -23.7253  -37.6484   23.6640 H   0  0  0  0  0  0
  -26.1216  -31.5078   20.6059 H   0  0  0  0  0  0
  -26.8573  -30.8062   22.0154 H   0  0  0  0  0  0
  -28.1269  -28.8918   21.2120 H   0  0  0  0  0  0
  -25.9662  -25.8631   19.0365 H   0  0  0  0  0  0
  -23.9603  -27.2765   19.0351 H   0  0  0  0  0  0
  -23.7848  -30.5762   19.4048 H   0  0  0  0  0  0
  -22.7686  -29.2418   19.8541 H   0  0  0  0  0  0
  -25.1308  -36.1889   25.0818 H   0  0  0  0  0  0
  -20.9981  -28.3262   24.1412 H   0  0  0  0  0  0
  -20.5702  -26.2304   23.3614 H   0  0  0  0  0  0
  -21.6647  -26.7453   22.1206 H   0  0  0  0  0  0
  -19.6894  -25.6295   21.1267 H   0  0  0  0  0  0
  -19.6688  -27.3205   20.6762 H   0  0  0  0  0  0
  -17.4210  -26.6712   21.4041 H   0  0  0  0  0  0
  -18.0309  -26.0087   22.9042 H   0  0  0  0  0  0
  -19.7935  -30.7327   24.2209 H   0  0  0  0  0  0
  -17.5017  -31.6274   24.5183 H   0  0  0  0  0  0
  -15.5359  -30.2989   23.7696 H   0  0  0  0  0  0
  -15.8675  -28.0839   22.7070 H   0  0  0  0  0  0
  -24.5846  -30.7163   25.7790 H   0  0  0  0  0  0
  -24.8937  -32.2989   26.4829 H   0  0  0  0  0  0
  -25.8000  -30.8983   27.0244 H   0  0  0  0  0  0
  -26.2947  -29.6760   24.1216 H   0  0  0  0  0  0
  -27.3966  -29.7255   25.4787 H   0  0  0  0  0  0
  -27.8853  -30.4281   23.9541 H   0  0  0  0  0  0
  -27.2629  -33.3672   26.2006 H   0  0  0  0  0  0
  -28.3876  -32.6867   25.0347 H   0  0  0  0  0  0
  -28.0663  -31.8521   26.5478 H   0  0  0  0  0  0
  -28.2618  -38.0060   24.7459 H   0  0  0  0  0  0
  -28.1012  -36.2591   24.6369 H   0  0  0  0  0  0
  -27.2271  -37.1534   25.8876 H   0  0  0  0  0  0
  -20.9404  -29.8740   21.6843 H   0  0  0  0  0  0
  -26.0151  -38.2829   24.1382 H   0  0  0  0  0  0
  -32.8819  -19.2193   21.8539 H   0  0  0  0  0  0
  -32.1306  -16.9464   21.5560 H   0  0  0  0  0  0
  -28.3662  -18.4408   20.0143 H   0  0  0  0  0  0
  -29.2885  -23.8328   19.2364 H   0  0  0  0  0  0
  -27.5432  -24.9613   21.5212 H   0  0  0  0  0  0
  -31.2580  -22.0726   22.1542 H   0  0  0  0  0  0
  -31.5925  -22.1611   20.4152 H   0  0  0  0  0  0
  -32.7856  -21.4851   21.5051 H   0  0  0  0  0  0
  -29.1092  -21.4039   19.1528 H   0  0  0  0  0  0
  -28.8139  -15.7957   20.6419 H   0  0  0  0  0  0
  1 25  1  0  0  0
  1 30  2  0  0  0
  1 82  1  0  0  0
  2  3  1  0  0  0
  2 25  1  0  0  0
  2 84  1  0  0  0
  2 85  1  0  0  0
  3  4  1  0  0  0
  3 86  1  0  0  0
  3 87  1  0  0  0
  4  5  1  0  0  0
  4 88  1  0  0  0
  4 89  1  0  0  0
  5  6  1  0  0  0
  5 26  1  0  0  0
  5 90  1  0  0  0
  6 25  1  0  0  0
  6 91  1  0  0  0
  6 92  1  0  0  0
  7  8  2  0  0  0
  7 26  1  0  0  0
  7 29  1  0  0  0
  8  9  1  0  0  0
  8 22  1  0  0  0
  9 10  1  0  0  0
  9 27  2  0  0  0
 10 11  2  0  0  0
 10 15  1  0  0  0
 11 12  1  0  0  0
 11 93  1  0  0  0
 12 13  2  0  0  0
 12 94  1  0  0  0
 13 14  1  0  0  0
 13 31  1  0  0  0
 14 15  2  0  0  0
 14 95  1  0  0  0
 15 96  1  0  0  0
 16 17  2  0  0  0
 16 21  1  0  0  0
 16 31  1  0  0  0
 17 18  1  0  0  0
 17 97  1  0  0  0
 18 19  2  0  0  0
 18 98  1  0  0  0
 19 20  1  0  0  0
 19 24  1  0  0  0
 20 21  2  0  0  0
 20 99  1  0  0  0
 21 23  1  0  0  0
 22 28  1  0  0  0
 22 32  2  0  0  0
 26 27  1  0  0  0
 28100  1  0  0  0
 28101  1  0  0  0
 29102  1  0  0  0
 29103  1  0  0  0
 33 34  1  0  0  0
 33 66  1  0  0  0
 33 70  2  0  0  0
 34 36  1  0  0  0
 34 59  1  0  0  0
 34104  1  0  0  0
 35 44  2  0  0  0
 35 45  1  0  0  0
 35 68  1  0  0  0
 36 56  1  0  0  0
 36105  1  0  0  0
 37 39  1  0  0  0
 37 47  1  0  0  0
 37 66  1  0  0  0
 37106  1  0  0  0
 38 43  2  0  0  0
 38 46  1  0  0  0
 38 47  1  0  0  0
 39 64  1  0  0  0
 39 67  2  0  0  0
 40 52  1  0  0  0
 40 53  2  0  0  0
 40 58  1  0  0  0
 41107  1  0  0  0
 41108  1  0  0  0
 41109  1  0  0  0
 41 48  1  0  0  0
 42 43  1  0  0  0
 42 66  1  0  0  0
 42110  1  0  0  0
 42111  1  0  0  0
 43 44  1  0  0  0
 44112  1  0  0  0
 45 46  2  0  0  0
 45113  1  0  0  0
 46114  1  0  0  0
 47115  1  0  0  0
 47116  1  0  0  0
 48 56  1  0  0  0
 48 65  1  0  0  0
 48117  1  0  0  0
 49 50  1  0  0  0
 49 53  1  0  0  0
 49 64  1  0  0  0
 49118  1  0  0  0
 50 51  1  0  0  0
 50119  1  0  0  0
 50120  1  0  0  0
 51 52  1  0  0  0
 51121  1  0  0  0
 51122  1  0  0  0
 52123  1  0  0  0
 52124  1  0  0  0
 53 54  1  0  0  0
 54 55  2  0  0  0
 54125  1  0  0  0
 55 57  1  0  0  0
 55126  1  0  0  0
 56 69  2  0  0  0
 57 58  2  0  0  0
 57127  1  0  0  0
 58128  1  0  0  0
 59 60  1  0  0  0
 59 61  1  0  0  0
 59 62  1  0  0  0
 60129  1  0  0  0
 60130  1  0  0  0
 60131  1  0  0  0
 61132  1  0  0  0
 61133  1  0  0  0
 61134  1  0  0  0
 62135  1  0  0  0
 62136  1  0  0  0
 62137  1  0  0  0
 63 65  1  0  0  0
 63138  1  0  0  0
 63139  1  0  0  0
 63140  1  0  0  0
 64141  1  0  0  0
 65142  1  0  0  0
 68 78  1  0  0  0
 71 72  2  0  0  0
 71 74  1  0  0  0
 71143  1  0  0  0
 72 75  1  0  0  0
 72144  1  0  0  0
 73 75  2  0  0  0
 73 76  1  0  0  0
 73145  1  0  0  0
 74 76  2  0  0  0
 74 80  1  0  0  0
 75 82  1  0  0  0
 76 81  1  0  0  0
 77 78  2  0  0  0
 77 79  1  0  0  0
 77146  1  0  0  0
 78147  1  0  0  0
 79 81  1  0  0  0
 79 83  2  0  0  0
 80148  1  0  0  0
 80149  1  0  0  0
 80150  1  0  0  0
 81151  1  0  0  0
 82152  1  0  0  0
M  ISO  4   1 100  68 101  78 101  82 100
M  END
> <chiral flag>
0

> <version>
0

> <s_m_source_file>
/data/baiqing/PycharmProjects/Reinvent-master-3.2/result/LINK_invent/BTK/process_docking_weight1_custom_product_contain_oxygen_bond_distance_aromatic_linkinvent_7_9_3/rearranged_h_0063.sdf

> <i_m_source_file_index>
16

> <r_mmod_Potential_Energy-OPLS-2005>
224.224456787109

> <r_mmod_Stretch_Energy-OPLS-2005>
153.590927124023

> <r_mmod_Bend_Energy-OPLS-2005>
169.149063110352

> <r_mmod_Torsional_Energy-OPLS-2005>
271.826141357422

> <r_mmod_Improper_Torsional_Energy-OPLS-2005>
8.25431823730469

> <r_mmod_Van_der_Waal_Energy-OPLS-2005>
140.354797363281

> <r_mmod_Electrostatic_Energy-OPLS-2005>
-403.116027832031

> <r_mmod_Solvation_Energy-OPLS-2005>
-230.445190429688

> <b_mmod_Minimization_Converged-OPLS-2005>
0

> <r_mmod_RMS_Derivative-OPLS-2005>
2.43646192550659

$$$$
16
                    3D
 Structure written by MMmdl.
164173  0  0  1  0            999 V2000
  -30.6124  -14.7461   20.4569 C   0  0  0  0  0  0
  -30.4149  -12.4546   19.4799 C   0  0  0  0  0  0
  -29.5094  -12.5374   18.2313 C   0  0  0  0  0  0
  -28.0307  -12.3585   18.6321 C   0  0  0  0  0  0
  -27.6357  -13.2408   19.8474 C   0  0  2  0  0  0
  -28.6736  -13.1803   20.9894 C   0  0  0  0  0  0
  -25.2458  -13.8181   20.5658 C   0  0  0  0  0  0
  -24.1753  -13.0418   20.9167 C   0  0  0  0  0  0
  -24.6347  -11.6888   20.8679 C   0  0  0  0  0  0
  -23.9018  -10.4279   21.0337 C   0  0  0  0  0  0
  -24.3579   -9.4214   21.9146 C   0  0  0  0  0  0
  -23.6279   -8.2238   22.0748 C   0  0  0  0  0  0
  -22.4276   -8.0249   21.3542 C   0  0  0  0  0  0
  -21.9874   -9.0189   20.4625 C   0  0  0  0  0  0
  -22.7174  -10.2071   20.2996 C   0  0  0  0  0  0
  -21.6852   -6.0692   22.5261 C   0  0  0  0  0  0
  -21.4006   -6.5610   23.8181 C   0  0  0  0  0  0
  -21.3688   -5.6772   24.9167 C   0  0  0  0  0  0
  -21.6051   -4.3044   24.7216 C   0  0  0  0  0  0
  -21.8822   -3.8096   23.4358 C   0  0  0  0  0  0
  -21.9205   -4.6919   22.3406 C   0  0  0  0  0  0
  -22.7786  -13.5199   21.1846 C   0  0  0  0  0  0
  -22.1673   -4.2085   21.0994 F   0  0  0  0  0  0
  -21.5669   -3.4535   25.7756 F   0  0  0  0  0  0
  -29.9772  -13.5219   20.4131 N   0  0  0  0  0  0
  -26.2894  -12.9423   20.3225 N   0  0  0  0  0  0
  -25.9285  -11.6546   20.5660 N   0  0  0  0  0  0
  -22.0434  -12.8204   22.0413 N   0  0  0  0  0  0
  -25.4120  -15.1887   20.4092 N   0  0  0  0  0  0
  -31.8016  -14.7899   20.1380 O   0  0  0  0  0  0
  -21.6678   -6.8818   21.4216 O   0  0  0  0  0  0
  -22.3497  -14.5520   20.6715 O   0  0  0  0  0  0
  -24.6332  -31.8495   23.1957 C   0  0  0  0  0  0
  -25.9185  -32.4664   23.8295 C   0  0  1  0  0  0
  -27.1901  -27.2635   20.1207 C   0  0  0  0  0  0
  -25.5974  -33.8482   24.2244 N   0  0  0  0  0  0
  -23.4229  -30.4788   21.5389 C   0  0  2  0  0  0
  -24.8566  -28.9241   20.0902 C   0  0  0  0  0  0
  -22.7511  -29.4626   22.4926 C   0  0  0  0  0  0
  -18.0309  -28.1402   22.8549 C   0  0  0  0  0  0
  -24.1473  -36.7266   23.2659 C   0  0  0  0  0  0
  -25.9633  -30.7628   21.3685 C   0  0  0  0  0  0
  -26.0215  -29.3840   20.7167 C   0  0  0  0  0  0
  -27.1867  -28.5602   20.7245 C   0  0  0  0  0  0
  -26.0187  -26.8687   19.4402 C   0  0  0  0  0  0
  -24.8679  -27.6818   19.4266 C   0  0  0  0  0  0
  -23.6255  -29.8114   20.1512 C   0  0  0  0  0  0
  -25.4087  -36.3025   24.0358 C   0  0  1  0  0  0
  -20.5924  -28.3736   23.1326 C   0  0  2  0  0  0
  -20.6775  -26.9461   22.5434 C   0  0  0  0  0  0
  -19.5725  -26.6420   21.5259 C   0  0  0  0  0  0
  -18.1927  -26.7963   22.1683 C   0  0  0  0  0  0
  -19.1564  -28.8892   23.2923 C   0  0  0  0  0  0
  -18.9433  -30.1489   23.8935 C   0  0  0  0  0  0
  -17.6402  -30.6579   24.0635 C   0  0  0  0  0  0
  -25.9071  -34.9384   23.5109 C   0  0  0  0  0  0
  -16.5309  -29.9077   23.6349 C   0  0  0  0  0  0
  -16.7276  -28.6503   23.0377 C   0  0  0  0  0  0
  -26.4528  -31.6498   25.0677 C   0  0  0  0  0  0
  -25.3739  -31.3586   26.1368 C   0  0  0  0  0  0
  -27.0380  -30.2957   24.6108 C   0  0  0  0  0  0
  -27.6118  -32.4228   25.7449 C   0  0  0  0  0  0
  -27.5566  -37.1798   24.8472 C   0  0  0  0  0  0
  -21.4229  -29.3070   22.3694 N   0  0  0  0  0  0
  -26.4243  -37.3735   23.9450 N   0  0  0  0  0  0
  -24.6949  -31.0506   22.0904 N   0  0  0  0  0  0
  -23.4221  -28.8193   23.3044 O   0  0  0  0  0  0
  -28.2970  -26.4103   20.2426 O   0  0  0  0  0  0
  -26.5614  -34.8885   22.4658 O   0  0  0  0  0  0
  -23.5497  -32.1324   23.7254 O   0  0  0  0  0  0
  -30.8305  -20.1318   19.9923 C   0  0  0  0  0  0
  -31.4199  -17.7519   19.9660 C   0  0  0  0  0  0
  -29.2393  -18.4562   20.7655 C   0  0  0  0  0  0
  -31.7527  -19.1019   19.7330 C   0  0  0  0  0  0
  -29.5570  -19.8699   20.5443 C   0  0  0  0  0  0
  -30.1583  -17.3538   20.4769 C   0  0  0  0  0  0
  -28.2916  -21.1773   22.2038 C   0  0  0  0  0  0
  -27.7413  -22.5129   22.7532 C   0  0  0  0  0  0
  -28.1685  -23.7832   21.9862 C   0  0  0  0  0  0
  -28.7376  -22.3352   20.0471 C   0  0  0  0  0  0
  -27.9222  -23.6627   20.4794 C   0  0  1  0  0  0
  -33.1462  -19.4533   19.2415 C   0  0  0  0  0  0
  -26.4113  -23.4432   20.2019 C   0  0  0  0  0  0
  -28.3789  -25.0185   19.7102 C   0  0  0  0  0  0
  -28.7397  -21.0721   20.9171 N   0  0  0  0  0  0
  -29.8599  -15.9003   20.6876 N   0  0  0  0  0  0
  -28.2777  -20.2267   22.9929 O   0  0  0  0  0  0
  -31.4653  -12.5436   19.1985 H   0  0  0  0  0  0
  -30.3204  -11.4723   19.9469 H   0  0  0  0  0  0
  -29.7995  -11.7795   17.5012 H   0  0  0  0  0  0
  -29.6452  -13.5046   17.7380 H   0  0  0  0  0  0
  -27.8751  -11.3042   18.8628 H   0  0  0  0  0  0
  -27.3798  -12.5848   17.7878 H   0  0  0  0  0  0
  -27.6299  -14.2672   19.4790 H   0  0  0  0  0  0
  -28.7039  -12.1868   21.4414 H   0  0  0  0  0  0
  -28.4058  -13.8742   21.7907 H   0  0  0  0  0  0
  -25.2676   -9.5781   22.4739 H   0  0  0  0  0  0
  -23.9996   -7.4666   22.7490 H   0  0  0  0  0  0
  -21.0800   -8.8622   19.8954 H   0  0  0  0  0  0
  -22.3536  -10.9583   19.6101 H   0  0  0  0  0  0
  -21.1956   -7.6123   23.9663 H   0  0  0  0  0  0
  -21.1536   -6.0528   25.9074 H   0  0  0  0  0  0
  -22.0584   -2.7556   23.2867 H   0  0  0  0  0  0
  -22.4058  -11.9877   22.4800 H   0  0  0  0  0  0
  -21.1012  -13.1172   22.2541 H   0  0  0  0  0  0
  -24.6324  -15.8302   20.5161 H   0  0  0  0  0  0
  -26.2511  -15.6360   20.0647 H   0  0  0  0  0  0
  -26.7234  -32.5254   23.1020 H   0  0  0  0  0  0
  -25.0157  -33.9559   25.0416 H   0  0  0  0  0  0
  -22.7219  -31.3024   21.3975 H   0  0  0  0  0  0
  -23.3705  -35.9622   23.3223 H   0  0  0  0  0  0
  -24.3652  -36.8949   22.2103 H   0  0  0  0  0  0
  -23.7195  -37.6455   23.6688 H   0  0  0  0  0  0
  -26.0970  -31.5135   20.5901 H   0  0  0  0  0  0
  -26.8469  -30.8084   21.9913 H   0  0  0  0  0  0
  -28.0727  -28.8934   21.2432 H   0  0  0  0  0  0
  -25.9603  -25.9210   18.9237 H   0  0  0  0  0  0
  -23.9931  -27.3419   18.8913 H   0  0  0  0  0  0
  -23.7354  -30.5822   19.3885 H   0  0  0  0  0  0
  -22.7387  -29.2463   19.8594 H   0  0  0  0  0  0
  -25.1259  -36.1856   25.0841 H   0  0  0  0  0  0
  -21.0071  -28.3230   24.1437 H   0  0  0  0  0  0
  -20.5718  -26.2342   23.3637 H   0  0  0  0  0  0
  -21.6625  -26.7509   22.1179 H   0  0  0  0  0  0
  -19.6888  -25.6339   21.1277 H   0  0  0  0  0  0
  -19.6608  -27.3257   20.6801 H   0  0  0  0  0  0
  -17.4235  -26.6816   21.4038 H   0  0  0  0  0  0
  -18.0245  -26.0035   22.8983 H   0  0  0  0  0  0
  -19.7852  -30.7350   24.2330 H   0  0  0  0  0  0
  -17.4896  -31.6266   24.5214 H   0  0  0  0  0  0
  -15.5304  -30.2958   23.7617 H   0  0  0  0  0  0
  -15.8693  -28.0794   22.7097 H   0  0  0  0  0  0
  -24.6046  -30.6796   25.7661 H   0  0  0  0  0  0
  -24.8730  -32.2662   26.4754 H   0  0  0  0  0  0
  -25.8049  -30.8826   27.0176 H   0  0  0  0  0  0
  -26.2912  -29.6690   24.1233 H   0  0  0  0  0  0
  -27.4211  -29.7254   25.4571 H   0  0  0  0  0  0
  -27.8703  -30.4276   23.9197 H   0  0  0  0  0  0
  -27.2828  -33.3620   26.1938 H   0  0  0  0  0  0
  -28.3987  -32.6663   25.0272 H   0  0  0  0  0  0
  -28.0712  -31.8365   26.5431 H   0  0  0  0  0  0
  -28.2559  -38.0130   24.7582 H   0  0  0  0  0  0
  -28.1082  -36.2687   24.6160 H   0  0  0  0  0  0
  -27.2352  -37.1261   25.8890 H   0  0  0  0  0  0
  -20.9424  -29.8790   21.6891 H   0  0  0  0  0  0
  -26.0105  -38.2808   24.1392 H   0  0  0  0  0  0
  -31.1600  -21.1429   19.8185 H   0  0  0  0  0  0
  -32.1926  -17.0351   19.7432 H   0  0  0  0  0  0
  -28.2699  -18.2243   21.1841 H   0  0  0  0  0  0
  -28.0614  -22.6171   23.7901 H   0  0  0  0  0  0
  -26.6553  -22.4362   22.7939 H   0  0  0  0  0  0
  -29.2270  -23.9825   22.1678 H   0  0  0  0  0  0
  -27.6279  -24.6434   22.3836 H   0  0  0  0  0  0
  -29.7707  -22.6564   19.9468 H   0  0  0  0  0  0
  -28.4227  -22.0406   19.0455 H   0  0  0  0  0  0
  -33.2145  -20.4909   18.9155 H   0  0  0  0  0  0
  -33.4384  -18.8221   18.4023 H   0  0  0  0  0  0
  -33.8712  -19.3135   20.0441 H   0  0  0  0  0  0
  -26.0780  -22.4487   20.4997 H   0  0  0  0  0  0
  -26.1814  -23.5390   19.1393 H   0  0  0  0  0  0
  -25.7881  -24.1631   20.7353 H   0  0  0  0  0  0
  -28.0087  -25.0024   18.6843 H   0  0  0  0  0  0
  -29.4560  -24.9064   19.5933 H   0  0  0  0  0  0
  -28.9125  -15.7017   20.9724 H   0  0  0  0  0  0
  1 25  1  0  0  0
  1 30  2  0  0  0
  1 86  1  0  0  0
  2  3  1  0  0  0
  2 25  1  0  0  0
  2 88  1  0  0  0
  2 89  1  0  0  0
  3  4  1  0  0  0
  3 90  1  0  0  0
  3 91  1  0  0  0
  4  5  1  0  0  0
  4 92  1  0  0  0
  4 93  1  0  0  0
  5  6  1  0  0  0
  5 26  1  0  0  0
  5 94  1  0  0  0
  6 25  1  0  0  0
  6 95  1  0  0  0
  6 96  1  0  0  0
  7  8  2  0  0  0
  7 26  1  0  0  0
  7 29  1  0  0  0
  8  9  1  0  0  0
  8 22  1  0  0  0
  9 10  1  0  0  0
  9 27  2  0  0  0
 10 11  2  0  0  0
 10 15  1  0  0  0
 11 12  1  0  0  0
 11 97  1  0  0  0
 12 13  2  0  0  0
 12 98  1  0  0  0
 13 14  1  0  0  0
 13 31  1  0  0  0
 14 15  2  0  0  0
 14 99  1  0  0  0
 15100  1  0  0  0
 16 17  2  0  0  0
 16 21  1  0  0  0
 16 31  1  0  0  0
 17 18  1  0  0  0
 17101  1  0  0  0
 18 19  2  0  0  0
 18102  1  0  0  0
 19 20  1  0  0  0
 19 24  1  0  0  0
 20 21  2  0  0  0
 20103  1  0  0  0
 21 23  1  0  0  0
 22 28  1  0  0  0
 22 32  2  0  0  0
 26 27  1  0  0  0
 28104  1  0  0  0
 28105  1  0  0  0
 29106  1  0  0  0
 29107  1  0  0  0
 33 34  1  0  0  0
 33 66  1  0  0  0
 33 70  2  0  0  0
 34 36  1  0  0  0
 34 59  1  0  0  0
 34108  1  0  0  0
 35 44  2  0  0  0
 35 45  1  0  0  0
 35 68  1  0  0  0
 36 56  1  0  0  0
 36109  1  0  0  0
 37 39  1  0  0  0
 37 47  1  0  0  0
 37 66  1  0  0  0
 37110  1  0  0  0
 38 43  2  0  0  0
 38 46  1  0  0  0
 38 47  1  0  0  0
 39 64  1  0  0  0
 39 67  2  0  0  0
 40 52  1  0  0  0
 40 53  2  0  0  0
 40 58  1  0  0  0
 41111  1  0  0  0
 41112  1  0  0  0
 41113  1  0  0  0
 41 48  1  0  0  0
 42 43  1  0  0  0
 42 66  1  0  0  0
 42114  1  0  0  0
 42115  1  0  0  0
 43 44  1  0  0  0
 44116  1  0  0  0
 45 46  2  0  0  0
 45117  1  0  0  0
 46118  1  0  0  0
 47119  1  0  0  0
 47120  1  0  0  0
 48 56  1  0  0  0
 48 65  1  0  0  0
 48121  1  0  0  0
 49 50  1  0  0  0
 49 53  1  0  0  0
 49 64  1  0  0  0
 49122  1  0  0  0
 50 51  1  0  0  0
 50123  1  0  0  0
 50124  1  0  0  0
 51 52  1  0  0  0
 51125  1  0  0  0
 51126  1  0  0  0
 52127  1  0  0  0
 52128  1  0  0  0
 53 54  1  0  0  0
 54 55  2  0  0  0
 54129  1  0  0  0
 55 57  1  0  0  0
 55130  1  0  0  0
 56 69  2  0  0  0
 57 58  2  0  0  0
 57131  1  0  0  0
 58132  1  0  0  0
 59 60  1  0  0  0
 59 61  1  0  0  0
 59 62  1  0  0  0
 60133  1  0  0  0
 60134  1  0  0  0
 60135  1  0  0  0
 61136  1  0  0  0
 61137  1  0  0  0
 61138  1  0  0  0
 62139  1  0  0  0
 62140  1  0  0  0
 62141  1  0  0  0
 63 65  1  0  0  0
 63142  1  0  0  0
 63143  1  0  0  0
 63144  1  0  0  0
 64145  1  0  0  0
 65146  1  0  0  0
 68 84  1  0  0  0
 71 74  2  0  0  0
 71 75  1  0  0  0
 71147  1  0  0  0
 72 74  1  0  0  0
 72 76  2  0  0  0
 72148  1  0  0  0
 73 75  2  0  0  0
 73 76  1  0  0  0
 73149  1  0  0  0
 74 82  1  0  0  0
 75 85  1  0  0  0
 76 86  1  0  0  0
 77 78  1  0  0  0
 77 85  1  0  0  0
 77 87  2  0  0  0
 78 79  1  0  0  0
 78150  1  0  0  0
 78151  1  0  0  0
 79 81  1  0  0  0
 79152  1  0  0  0
 79153  1  0  0  0
 80 81  1  0  0  0
 80 85  1  0  0  0
 80154  1  0  0  0
 80155  1  0  0  0
 81 83  1  0  0  0
 81 84  1  0  0  0
 82156  1  0  0  0
 82157  1  0  0  0
 82158  1  0  0  0
 83159  1  0  0  0
 83160  1  0  0  0
 83161  1  0  0  0
 84162  1  0  0  0
 84163  1  0  0  0
 86164  1  0  0  0
M  ISO  4   1 100  68 101  84 101  86 100
M  END
> <chiral flag>
0

> <version>
0

> <s_m_source_file>
/data/baiqing/PycharmProjects/Reinvent-master-3.2/result/LINK_invent/BTK/process_docking_weight1_custom_product_contain_oxygen_bond_distance_aromatic_linkinvent_7_9_3/rearranged_h_0063.sdf

> <i_m_source_file_index>
17

> <r_mmod_Potential_Energy-OPLS-2005>
290.417938232422

> <r_mmod_Stretch_Energy-OPLS-2005>
134.884735107422

> <r_mmod_Bend_Energy-OPLS-2005>
195.758560180664

> <r_mmod_Torsional_Energy-OPLS-2005>
281.191345214844

> <r_mmod_Improper_Torsional_Energy-OPLS-2005>
5.02398109436035

> <r_mmod_Van_der_Waal_Energy-OPLS-2005>
153.409820556641

> <r_mmod_Electrostatic_Energy-OPLS-2005>
-351.491455078125

> <r_mmod_Solvation_Energy-OPLS-2005>
-214.473297119141

> <b_mmod_Minimization_Converged-OPLS-2005>
0

> <r_mmod_RMS_Derivative-OPLS-2005>
6.43593454360962

$$$$
17
                    3D
 Structure written by MMmdl.
158166  0  0  1  0            999 V2000
  -30.6275  -14.7474   20.4641 C   0  0  0  0  0  0
  -30.4240  -12.4621   19.4686 C   0  0  0  0  0  0
  -29.5006  -12.5019   18.2327 C   0  0  0  0  0  0
  -28.0290  -12.3294   18.6497 C   0  0  0  0  0  0
  -27.6368  -13.2330   19.8486 C   0  0  2  0  0  0
  -28.6835  -13.1840   20.9829 C   0  0  0  0  0  0
  -25.2479  -13.8204   20.5706 C   0  0  0  0  0  0
  -24.1777  -13.0436   20.9222 C   0  0  0  0  0  0
  -24.6368  -11.6917   20.8750 C   0  0  0  0  0  0
  -23.9044  -10.4292   21.0399 C   0  0  0  0  0  0
  -24.3599   -9.4215   21.9177 C   0  0  0  0  0  0
  -23.6284   -8.2244   22.0751 C   0  0  0  0  0  0
  -22.4271   -8.0275   21.3536 C   0  0  0  0  0  0
  -21.9898   -9.0245   20.4638 C   0  0  0  0  0  0
  -22.7215  -10.2134   20.3050 C   0  0  0  0  0  0
  -21.6860   -6.0724   22.5265 C   0  0  0  0  0  0
  -21.4018   -6.5629   23.8197 C   0  0  0  0  0  0
  -21.3660   -5.6787   24.9161 C   0  0  0  0  0  0
  -21.6048   -4.3053   24.7218 C   0  0  0  0  0  0
  -21.8820   -3.8137   23.4343 C   0  0  0  0  0  0
  -21.9195   -4.6949   22.3393 C   0  0  0  0  0  0
  -22.7807  -13.5223   21.1877 C   0  0  0  0  0  0
  -22.1665   -4.2131   21.0974 F   0  0  0  0  0  0
  -21.5628   -3.4539   25.7734 F   0  0  0  0  0  0
  -29.9793  -13.5335   20.3902 N   0  0  0  0  0  0
  -26.2902  -12.9408   20.3292 N   0  0  0  0  0  0
  -25.9302  -11.6546   20.5763 N   0  0  0  0  0  0
  -22.0461  -12.8196   22.0430 N   0  0  0  0  0  0
  -25.4150  -15.1924   20.4117 N   0  0  0  0  0  0
  -31.8199  -14.8028   20.1530 O   0  0  0  0  0  0
  -21.6651   -6.8866   21.4226 O   0  0  0  0  0  0
  -22.3476  -14.5524   20.6735 O   0  0  0  0  0  0
  -24.6325  -31.8556   23.1973 C   0  0  0  0  0  0
  -25.9154  -32.4764   23.8316 C   0  0  1  0  0  0
  -27.2278  -27.2599   20.1341 C   0  0  0  0  0  0
  -25.5961  -33.8563   24.2259 N   0  0  0  0  0  0
  -23.4295  -30.4798   21.5362 C   0  0  2  0  0  0
  -24.8762  -28.9162   20.1112 C   0  0  0  0  0  0
  -22.7488  -29.4664   22.4889 C   0  0  0  0  0  0
  -18.0314  -28.1415   22.8469 C   0  0  0  0  0  0
  -24.1523  -36.7291   23.2635 C   0  0  0  0  0  0
  -25.9722  -30.7697   21.3738 C   0  0  0  0  0  0
  -26.0447  -29.3884   20.7202 C   0  0  0  0  0  0
  -27.2175  -28.5690   20.7241 C   0  0  0  0  0  0
  -26.0323  -26.8458   19.5047 C   0  0  0  0  0  0
  -24.8733  -27.6529   19.4955 C   0  0  0  0  0  0
  -23.6495  -29.8071   20.1546 C   0  0  0  0  0  0
  -25.4144  -36.3072   24.0320 C   0  0  1  0  0  0
  -20.5906  -28.3770   23.1251 C   0  0  2  0  0  0
  -20.6850  -26.9493   22.5400 C   0  0  0  0  0  0
  -19.5832  -26.6413   21.5218 C   0  0  0  0  0  0
  -18.1988  -26.7962   22.1596 C   0  0  0  0  0  0
  -19.1554  -28.8903   23.2867 C   0  0  0  0  0  0
  -18.9479  -30.1480   23.8924 C   0  0  0  0  0  0
  -17.6480  -30.6616   24.0579 C   0  0  0  0  0  0
  -25.9063  -34.9441   23.5089 C   0  0  0  0  0  0
  -16.5381  -29.9119   23.6319 C   0  0  0  0  0  0
  -16.7294  -28.6530   23.0341 C   0  0  0  0  0  0
  -26.4539  -31.6581   25.0695 C   0  0  0  0  0  0
  -25.3758  -31.3668   26.1404 C   0  0  0  0  0  0
  -27.0407  -30.3017   24.6144 C   0  0  0  0  0  0
  -27.6122  -32.4296   25.7452 C   0  0  0  0  0  0
  -27.5610  -37.1798   24.8453 C   0  0  0  0  0  0
  -21.4194  -29.3113   22.3622 N   0  0  0  0  0  0
  -26.4328  -37.3762   23.9377 N   0  0  0  0  0  0
  -24.6974  -31.0527   22.0934 N   0  0  0  0  0  0
  -23.4173  -28.8203   23.3005 O   0  0  0  0  0  0
  -28.3578  -26.4148   20.2217 O   0  0  0  0  0  0
  -26.5612  -34.8921   22.4642 O   0  0  0  0  0  0
  -23.5488  -32.1359   23.7302 O   0  0  0  0  0  0
  -32.0727  -18.9345   21.3830 C   0  0  0  0  0  0
  -31.6240  -17.6189   21.1826 C   0  0  0  0  0  0
  -31.2329  -20.0539   21.2087 C   0  0  0  0  0  0
  -30.3029  -17.3370   20.7719 C   0  0  0  0  0  0
  -29.8892  -19.8901   20.7581 C   0  0  0  0  0  0
  -29.4450  -18.5050   20.5713 C   0  0  0  0  0  0
  -29.2124  -22.3448   20.1091 C   0  0  0  0  0  0
  -31.8162  -21.4050   21.6038 C   0  0  0  0  0  0
  -26.5969  -23.0801   22.0383 C   0  0  0  0  0  0
  -28.4498  -25.0181   19.6657 C   0  0  0  0  0  0
  -28.3886  -23.6606   20.5647 C   0  0  1  0  0  0
  -29.0018  -21.0880   20.6694 N   0  0  0  0  0  0
  -29.8784  -15.9094   20.6449 N   0  0  0  0  0  0
  -30.0379  -22.4721   19.2018 O   0  0  0  0  0  0
  -27.0141  -23.2987   20.6977 O   0  0  0  0  0  0
  -28.1607  -18.2897   20.1978 F   0  0  0  0  0  0
  -31.4631  -12.5820   19.1581 H   0  0  0  0  0  0
  -30.3718  -11.4915   19.9629 H   0  0  0  0  0  0
  -29.7827  -11.7197   17.5270 H   0  0  0  0  0  0
  -29.6238  -13.4500   17.7054 H   0  0  0  0  0  0
  -27.8849  -11.2821   18.9154 H   0  0  0  0  0  0
  -27.3708  -12.5213   17.8011 H   0  0  0  0  0  0
  -27.6268  -14.2522   19.4617 H   0  0  0  0  0  0
  -28.7232  -12.1941   21.4383 H   0  0  0  0  0  0
  -28.4194  -13.8800   21.7810 H   0  0  0  0  0  0
  -25.2739   -9.5712   22.4754 H   0  0  0  0  0  0
  -24.0001   -7.4644   22.7476 H   0  0  0  0  0  0
  -21.0828   -8.8747   19.8945 H   0  0  0  0  0  0
  -22.3647  -10.9670   19.6166 H   0  0  0  0  0  0
  -21.2013   -7.6139   23.9688 H   0  0  0  0  0  0
  -21.1484   -6.0524   25.9063 H   0  0  0  0  0  0
  -22.0600   -2.7597   23.2845 H   0  0  0  0  0  0
  -22.4110  -11.9870   22.4809 H   0  0  0  0  0  0
  -21.1069  -13.1188   22.2642 H   0  0  0  0  0  0
  -24.6441  -15.8421   20.5254 H   0  0  0  0  0  0
  -26.2530  -15.6374   20.0601 H   0  0  0  0  0  0
  -26.7220  -32.5432   23.1064 H   0  0  0  0  0  0
  -25.0169  -33.9657   25.0454 H   0  0  0  0  0  0
  -22.7284  -31.3041   21.3863 H   0  0  0  0  0  0
  -23.3794  -35.9614   23.3268 H   0  0  0  0  0  0
  -24.3626  -36.8939   22.2058 H   0  0  0  0  0  0
  -23.7269  -37.6481   23.6682 H   0  0  0  0  0  0
  -26.1017  -31.5311   20.6032 H   0  0  0  0  0  0
  -26.8532  -30.8260   22.0015 H   0  0  0  0  0  0
  -28.1115  -28.9225   21.2194 H   0  0  0  0  0  0
  -25.9531  -25.8734   19.0439 H   0  0  0  0  0  0
  -23.9727  -27.2787   19.0267 H   0  0  0  0  0  0
  -23.7836  -30.5808   19.3971 H   0  0  0  0  0  0
  -22.7676  -29.2425   19.8486 H   0  0  0  0  0  0
  -25.1340  -36.1934   25.0815 H   0  0  0  0  0  0
  -21.0002  -28.3427   24.1370 H   0  0  0  0  0  0
  -20.5860  -26.2378   23.3610 H   0  0  0  0  0  0
  -21.6713  -26.7617   22.1143 H   0  0  0  0  0  0
  -19.7027  -25.6307   21.1305 H   0  0  0  0  0  0
  -19.6796  -27.3185   20.6722 H   0  0  0  0  0  0
  -17.4274  -26.6708   21.3980 H   0  0  0  0  0  0
  -18.0379  -26.0115   22.8996 H   0  0  0  0  0  0
  -19.7956  -30.7264   24.2340 H   0  0  0  0  0  0
  -17.5046  -31.6302   24.5177 H   0  0  0  0  0  0
  -15.5376  -30.3043   23.7633 H   0  0  0  0  0  0
  -15.8686  -28.0869   22.7046 H   0  0  0  0  0  0
  -24.5995  -30.6968   25.7679 H   0  0  0  0  0  0
  -24.8890  -32.2812   26.4817 H   0  0  0  0  0  0
  -25.8096  -30.8854   27.0175 H   0  0  0  0  0  0
  -26.2980  -29.6702   24.1265 H   0  0  0  0  0  0
  -27.4219  -29.7343   25.4636 H   0  0  0  0  0  0
  -27.8793  -30.4310   23.9296 H   0  0  0  0  0  0
  -27.2796  -33.3638   26.1981 H   0  0  0  0  0  0
  -28.3966  -32.6754   25.0278 H   0  0  0  0  0  0
  -28.0749  -31.8418   26.5392 H   0  0  0  0  0  0
  -28.2593  -38.0131   24.7538 H   0  0  0  0  0  0
  -28.1147  -36.2658   24.6266 H   0  0  0  0  0  0
  -27.2297  -37.1399   25.8843 H   0  0  0  0  0  0
  -20.9380  -29.8763   21.6761 H   0  0  0  0  0  0
  -26.0230  -38.2836   24.1379 H   0  0  0  0  0  0
  -33.0905  -19.0772   21.7198 H   0  0  0  0  0  0
  -32.3248  -16.8255   21.3920 H   0  0  0  0  0  0
  -32.7394  -21.2896   22.1738 H   0  0  0  0  0  0
  -31.1256  -21.9604   22.2382 H   0  0  0  0  0  0
  -32.0553  -22.0037   20.7257 H   0  0  0  0  0  0
  -25.5815  -22.6844   22.0401 H   0  0  0  0  0  0
  -26.5969  -24.0158   22.5995 H   0  0  0  0  0  0
  -27.2343  -22.3628   22.5559 H   0  0  0  0  0  0
  -29.4487  -25.0243   19.2296 H   0  0  0  0  0  0
  -27.8095  -24.8994   18.7947 H   0  0  0  0  0  0
  -28.8119  -23.9309   21.5341 H   0  0  0  0  0  0
  -28.1355  -21.0036   21.1822 H   0  0  0  0  0  0
  -28.8825  -15.7626   20.6875 H   0  0  0  0  0  0
  1 25  1  0  0  0
  1 30  2  0  0  0
  1 83  1  0  0  0
  2  3  1  0  0  0
  2 25  1  0  0  0
  2 87  1  0  0  0
  2 88  1  0  0  0
  3  4  1  0  0  0
  3 89  1  0  0  0
  3 90  1  0  0  0
  4  5  1  0  0  0
  4 91  1  0  0  0
  4 92  1  0  0  0
  5  6  1  0  0  0
  5 26  1  0  0  0
  5 93  1  0  0  0
  6 25  1  0  0  0
  6 94  1  0  0  0
  6 95  1  0  0  0
  7  8  2  0  0  0
  7 26  1  0  0  0
  7 29  1  0  0  0
  8  9  1  0  0  0
  8 22  1  0  0  0
  9 10  1  0  0  0
  9 27  2  0  0  0
 10 11  2  0  0  0
 10 15  1  0  0  0
 11 12  1  0  0  0
 11 96  1  0  0  0
 12 13  2  0  0  0
 12 97  1  0  0  0
 13 14  1  0  0  0
 13 31  1  0  0  0
 14 15  2  0  0  0
 14 98  1  0  0  0
 15 99  1  0  0  0
 16 17  2  0  0  0
 16 21  1  0  0  0
 16 31  1  0  0  0
 17 18  1  0  0  0
 17100  1  0  0  0
 18 19  2  0  0  0
 18101  1  0  0  0
 19 20  1  0  0  0
 19 24  1  0  0  0
 20 21  2  0  0  0
 20102  1  0  0  0
 21 23  1  0  0  0
 22 28  1  0  0  0
 22 32  2  0  0  0
 26 27  1  0  0  0
 28103  1  0  0  0
 28104  1  0  0  0
 29105  1  0  0  0
 29106  1  0  0  0
 33 34  1  0  0  0
 33 66  1  0  0  0
 33 70  2  0  0  0
 34 36  1  0  0  0
 34 59  1  0  0  0
 34107  1  0  0  0
 35 44  2  0  0  0
 35 45  1  0  0  0
 35 68  1  0  0  0
 36 56  1  0  0  0
 36108  1  0  0  0
 37 39  1  0  0  0
 37 47  1  0  0  0
 37 66  1  0  0  0
 37109  1  0  0  0
 38 43  2  0  0  0
 38 46  1  0  0  0
 38 47  1  0  0  0
 39 64  1  0  0  0
 39 67  2  0  0  0
 40 52  1  0  0  0
 40 53  2  0  0  0
 40 58  1  0  0  0
 41110  1  0  0  0
 41111  1  0  0  0
 41112  1  0  0  0
 41 48  1  0  0  0
 42 43  1  0  0  0
 42 66  1  0  0  0
 42113  1  0  0  0
 42114  1  0  0  0
 43 44  1  0  0  0
 44115  1  0  0  0
 45 46  2  0  0  0
 45116  1  0  0  0
 46117  1  0  0  0
 47118  1  0  0  0
 47119  1  0  0  0
 48 56  1  0  0  0
 48 65  1  0  0  0
 48120  1  0  0  0
 49 50  1  0  0  0
 49 53  1  0  0  0
 49 64  1  0  0  0
 49121  1  0  0  0
 50 51  1  0  0  0
 50122  1  0  0  0
 50123  1  0  0  0
 51 52  1  0  0  0
 51124  1  0  0  0
 51125  1  0  0  0
 52126  1  0  0  0
 52127  1  0  0  0
 53 54  1  0  0  0
 54 55  2  0  0  0
 54128  1  0  0  0
 55 57  1  0  0  0
 55129  1  0  0  0
 56 69  2  0  0  0
 57 58  2  0  0  0
 57130  1  0  0  0
 58131  1  0  0  0
 59 60  1  0  0  0
 59 61  1  0  0  0
 59 62  1  0  0  0
 60132  1  0  0  0
 60133  1  0  0  0
 60134  1  0  0  0
 61135  1  0  0  0
 61136  1  0  0  0
 61137  1  0  0  0
 62138  1  0  0  0
 62139  1  0  0  0
 62140  1  0  0  0
 63 65  1  0  0  0
 63141  1  0  0  0
 63142  1  0  0  0
 63143  1  0  0  0
 64144  1  0  0  0
 65145  1  0  0  0
 68 80  1  0  0  0
 71 72  2  0  0  0
 71 73  1  0  0  0
 71146  1  0  0  0
 72 74  1  0  0  0
 72147  1  0  0  0
 73 75  2  0  0  0
 73 78  1  0  0  0
 74 76  2  0  0  0
 74 83  1  0  0  0
 75 76  1  0  0  0
 75 82  1  0  0  0
 76 86  1  0  0  0
 77 81  1  0  0  0
 77 82  1  0  0  0
 77 84  2  0  0  0
 78148  1  0  0  0
 78149  1  0  0  0
 78150  1  0  0  0
 79 85  1  0  0  0
 79151  1  0  0  0
 79152  1  0  0  0
 79153  1  0  0  0
 80154  1  0  0  0
 80155  1  0  0  0
 80 81  1  0  0  0
 81 85  1  0  0  0
 81156  1  0  0  0
 82157  1  0  0  0
 83158  1  0  0  0
M  ISO  4   1 100  68 101  80 101  83 100
M  END
> <chiral flag>
0

> <version>
0

> <s_m_source_file>
/data/baiqing/PycharmProjects/Reinvent-master-3.2/result/LINK_invent/BTK/process_docking_weight1_custom_product_contain_oxygen_bond_distance_aromatic_linkinvent_7_9_3/rearranged_h_0063.sdf

> <i_m_source_file_index>
18

> <r_mmod_Potential_Energy-OPLS-2005>
185.687438964844

> <r_mmod_Stretch_Energy-OPLS-2005>
135.949798583984

> <r_mmod_Bend_Energy-OPLS-2005>
178.990829467773

> <r_mmod_Torsional_Energy-OPLS-2005>
245.365463256836

> <r_mmod_Improper_Torsional_Energy-OPLS-2005>
6.56033802032471

> <r_mmod_Van_der_Waal_Energy-OPLS-2005>
146.048080444336

> <r_mmod_Electrostatic_Energy-OPLS-2005>
-392.073669433594

> <r_mmod_Solvation_Energy-OPLS-2005>
-219.640884399414

> <b_mmod_Minimization_Converged-OPLS-2005>
0

> <r_mmod_RMS_Derivative-OPLS-2005>
2.55038452148438

$$$$
18
                    3D
 Structure written by MMmdl.
161170  0  0  1  0            999 V2000
  -30.7328  -14.4247   20.5753 C   0  0  0  0  0  0
  -30.4056  -12.2878   19.3996 C   0  0  0  0  0  0
  -29.4783  -12.5218   18.1923 C   0  0  0  0  0  0
  -28.0034  -12.3827   18.6125 C   0  0  0  0  0  0
  -27.6596  -13.2105   19.8788 C   0  0  2  0  0  0
  -28.7055  -12.9873   20.9935 C   0  0  0  0  0  0
  -25.2573  -13.8168   20.5692 C   0  0  0  0  0  0
  -24.1836  -13.0445   20.9185 C   0  0  0  0  0  0
  -24.6393  -11.6901   20.8774 C   0  0  0  0  0  0
  -23.9068  -10.4291   21.0437 C   0  0  0  0  0  0
  -24.3617   -9.4211   21.9214 C   0  0  0  0  0  0
  -23.6291   -8.2245   22.0782 C   0  0  0  0  0  0
  -22.4278   -8.0287   21.3545 C   0  0  0  0  0  0
  -21.9914   -9.0266   20.4657 C   0  0  0  0  0  0
  -22.7252  -10.2138   20.3079 C   0  0  0  0  0  0
  -21.6855   -6.0734   22.5276 C   0  0  0  0  0  0
  -21.4014   -6.5640   23.8210 C   0  0  0  0  0  0
  -21.3663   -5.6799   24.9177 C   0  0  0  0  0  0
  -21.6046   -4.3061   24.7227 C   0  0  0  0  0  0
  -21.8818   -3.8141   23.4359 C   0  0  0  0  0  0
  -21.9186   -4.6953   22.3406 C   0  0  0  0  0  0
  -22.7861  -13.5236   21.1838 C   0  0  0  0  0  0
  -22.1658   -4.2145   21.0986 F   0  0  0  0  0  0
  -21.5621   -3.4557   25.7740 F   0  0  0  0  0  0
  -30.0346  -13.2709   20.4259 N   0  0  0  0  0  0
  -26.3021  -12.9357   20.3420 N   0  0  0  0  0  0
  -25.9330  -11.6503   20.5817 N   0  0  0  0  0  0
  -22.0486  -12.8231   22.0371 N   0  0  0  0  0  0
  -25.4292  -15.1886   20.4055 N   0  0  0  0  0  0
  -31.8569  -14.5975   20.0973 O   0  0  0  0  0  0
  -21.6643   -6.8885   21.4241 O   0  0  0  0  0  0
  -22.3564  -14.5573   20.6719 O   0  0  0  0  0  0
  -24.6150  -31.8662   23.2092 C   0  0  0  0  0  0
  -25.9083  -32.4780   23.8360 C   0  0  1  0  0  0
  -27.2274  -27.4247   20.0760 C   0  0  0  0  0  0
  -25.5970  -33.8582   24.2292 N   0  0  0  0  0  0
  -23.4014  -30.4914   21.5471 C   0  0  2  0  0  0
  -24.8392  -28.9653   20.1041 C   0  0  0  0  0  0
  -22.7414  -29.4637   22.4957 C   0  0  0  0  0  0
  -18.0280  -28.1372   22.8458 C   0  0  0  0  0  0
  -24.1522  -36.7292   23.2643 C   0  0  0  0  0  0
  -25.9339  -30.8211   21.3713 C   0  0  0  0  0  0
  -26.0018  -29.4618   20.7049 C   0  0  0  0  0  0
  -27.1901  -28.6985   20.6892 C   0  0  0  0  0  0
  -26.0350  -26.9415   19.4785 C   0  0  0  0  0  0
  -24.8532  -27.7004   19.4917 C   0  0  0  0  0  0
  -23.6034  -29.8314   20.1572 C   0  0  0  0  0  0
  -25.4131  -36.3073   24.0338 C   0  0  1  0  0  0
  -20.5869  -28.3626   23.1283 C   0  0  2  0  0  0
  -20.6779  -26.9360   22.5378 C   0  0  0  0  0  0
  -19.5767  -26.6388   21.5163 C   0  0  0  0  0  0
  -18.1933  -26.7906   22.1583 C   0  0  0  0  0  0
  -19.1542  -28.8803   23.2859 C   0  0  0  0  0  0
  -18.9489  -30.1413   23.8868 C   0  0  0  0  0  0
  -17.6488  -30.6553   24.0550 C   0  0  0  0  0  0
  -25.9086  -34.9446   23.5098 C   0  0  0  0  0  0
  -16.5367  -29.9052   23.6360 C   0  0  0  0  0  0
  -16.7274  -28.6503   23.0326 C   0  0  0  0  0  0
  -26.4470  -31.6601   25.0719 C   0  0  0  0  0  0
  -25.3730  -31.3761   26.1478 C   0  0  0  0  0  0
  -27.0346  -30.3053   24.6160 C   0  0  0  0  0  0
  -27.6028  -32.4341   25.7494 C   0  0  0  0  0  0
  -27.5586  -37.1786   24.8453 C   0  0  0  0  0  0
  -21.4150  -29.2994   22.3707 N   0  0  0  0  0  0
  -26.4312  -37.3768   23.9394 N   0  0  0  0  0  0
  -24.6682  -31.0772   22.0989 N   0  0  0  0  0  0
  -23.4183  -28.8191   23.3009 O   0  0  0  0  0  0
  -28.4023  -26.7000   20.1659 O   0  0  0  0  0  0
  -26.5623  -34.8896   22.4645 O   0  0  0  0  0  0
  -23.5351  -32.1416   23.7493 O   0  0  0  0  0  0
  -31.7113  -19.1619   22.3028 C   0  0  0  0  0  0
  -31.7346  -16.7303   22.3702 C   0  0  0  0  0  0
  -30.0170  -17.9013   21.0756 C   0  0  0  0  0  0
  -32.2677  -17.9645   22.7837 C   0  0  0  0  0  0
  -30.5967  -19.1433   21.4349 C   0  0  0  0  0  0
  -30.6078  -16.6903   21.5164 C   0  0  0  0  0  0
  -30.5210  -22.5841   20.1421 C   0  0  0  0  0  0
  -29.4928  -23.1369   20.8269 C   0  0  0  0  0  0
  -30.8000  -21.1533   20.1164 C   0  0  0  0  0  0
  -28.5083  -25.3550   19.9360 C   0  0  0  0  0  0
  -28.4403  -22.2929   21.5424 C   0  0  0  0  0  0
  -28.7327  -20.7669   21.4701 C   0  0  0  0  0  0
  -33.4323  -18.0115   23.7547 C   0  0  0  0  0  0
  -29.3733  -24.6554   20.9979 C   0  0  0  0  0  0
  -30.0677  -20.3883   20.9742 N   0  0  0  0  0  0
  -30.0547  -15.4409   21.1353 N   0  0  0  0  0  0
  -31.6894  -20.6759   19.4040 O   0  0  0  0  0  0
  -27.9789  -24.7285   19.0133 O   0  0  0  0  0  0
  -31.4549  -12.3576   19.1002 H   0  0  0  0  0  0
  -30.2706  -11.2776   19.7882 H   0  0  0  0  0  0
  -29.7052  -11.8161   17.3939 H   0  0  0  0  0  0
  -29.6477  -13.5192   17.7799 H   0  0  0  0  0  0
  -27.8107  -11.3254   18.7966 H   0  0  0  0  0  0
  -27.3478  -12.6716   17.7901 H   0  0  0  0  0  0
  -27.7046  -14.2603   19.5911 H   0  0  0  0  0  0
  -28.6772  -11.9578   21.3528 H   0  0  0  0  0  0
  -28.4854  -13.6045   21.8655 H   0  0  0  0  0  0
  -25.2756   -9.5668   22.4807 H   0  0  0  0  0  0
  -23.9982   -7.4640   22.7513 H   0  0  0  0  0  0
  -21.0849   -8.8795   19.8976 H   0  0  0  0  0  0
  -22.3727  -10.9681   19.6195 H   0  0  0  0  0  0
  -21.2026   -7.6148   23.9705 H   0  0  0  0  0  0
  -21.1484   -6.0539   25.9074 H   0  0  0  0  0  0
  -22.0593   -2.7612   23.2861 H   0  0  0  0  0  0
  -22.4067  -11.9823   22.4671 H   0  0  0  0  0  0
  -21.1130  -13.1304   22.2651 H   0  0  0  0  0  0
  -24.6615  -15.8454   20.5067 H   0  0  0  0  0  0
  -26.2762  -15.6218   20.0575 H   0  0  0  0  0  0
  -26.7116  -32.5468   23.1095 H   0  0  0  0  0  0
  -25.0152  -33.9734   25.0448 H   0  0  0  0  0  0
  -22.6927  -31.3102   21.4090 H   0  0  0  0  0  0
  -23.3789  -35.9637   23.3304 H   0  0  0  0  0  0
  -24.3613  -36.8916   22.2061 H   0  0  0  0  0  0
  -23.7258  -37.6491   23.6663 H   0  0  0  0  0  0
  -26.0713  -31.5957   20.6152 H   0  0  0  0  0  0
  -26.8140  -30.8469   22.0057 H   0  0  0  0  0  0
  -28.0847  -29.0720   21.1708 H   0  0  0  0  0  0
  -25.9776  -25.9769   19.0000 H   0  0  0  0  0  0
  -23.9595  -27.3067   19.0226 H   0  0  0  0  0  0
  -23.7059  -30.6096   19.3965 H   0  0  0  0  0  0
  -22.7241  -29.2499   19.8683 H   0  0  0  0  0  0
  -25.1289  -36.1939   25.0835 H   0  0  0  0  0  0
  -20.9922  -28.3193   24.1425 H   0  0  0  0  0  0
  -20.5703  -26.2214   23.3558 H   0  0  0  0  0  0
  -21.6638  -26.7434   22.1154 H   0  0  0  0  0  0
  -19.6963  -25.6322   21.1165 H   0  0  0  0  0  0
  -19.6750  -27.3202   20.6711 H   0  0  0  0  0  0
  -17.4200  -26.6651   21.3975 H   0  0  0  0  0  0
  -18.0337  -26.0042   22.8984 H   0  0  0  0  0  0
  -19.7974  -30.7209   24.2221 H   0  0  0  0  0  0
  -17.5062  -31.6232   24.5120 H   0  0  0  0  0  0
  -15.5353  -30.2915   23.7736 H   0  0  0  0  0  0
  -15.8699  -28.0811   22.7020 H   0  0  0  0  0  0
  -24.5827  -30.7209   25.7811 H   0  0  0  0  0  0
  -24.9008  -32.2967   26.4954 H   0  0  0  0  0  0
  -25.8048  -30.8871   27.0224 H   0  0  0  0  0  0
  -26.2925  -29.6795   24.1205 H   0  0  0  0  0  0
  -27.4103  -29.7324   25.4647 H   0  0  0  0  0  0
  -27.8771  -30.4381   23.9361 H   0  0  0  0  0  0
  -27.2626  -33.3629   26.2087 H   0  0  0  0  0  0
  -28.3847  -32.6919   25.0345 H   0  0  0  0  0  0
  -28.0712  -31.8466   26.5411 H   0  0  0  0  0  0
  -28.2541  -38.0132   24.7508 H   0  0  0  0  0  0
  -28.1115  -36.2640   24.6255 H   0  0  0  0  0  0
  -27.2288  -37.1406   25.8853 H   0  0  0  0  0  0
  -20.9296  -29.8741   21.6956 H   0  0  0  0  0  0
  -26.0203  -38.2854   24.1405 H   0  0  0  0  0  0
  -32.1389  -20.1060   22.6123 H   0  0  0  0  0  0
  -32.1867  -15.8133   22.7195 H   0  0  0  0  0  0
  -29.1527  -17.8832   20.4264 H   0  0  0  0  0  0
  -31.2463  -23.2215   19.6511 H   0  0  0  0  0  0
  -27.4428  -22.5009   21.1318 H   0  0  0  0  0  0
  -28.3918  -22.6129   22.5905 H   0  0  0  0  0  0
  -28.0028  -20.2660   20.8298 H   0  0  0  0  0  0
  -28.6048  -20.3309   22.4640 H   0  0  0  0  0  0
  -33.3251  -18.8480   24.4461 H   0  0  0  0  0  0
  -34.3782  -18.1286   23.2263 H   0  0  0  0  0  0
  -33.4786  -17.0989   24.3500 H   0  0  0  0  0  0
  -30.3720  -25.0986   20.9693 H   0  0  0  0  0  0
  -28.9792  -24.8763   21.9930 H   0  0  0  0  0  0
  -29.0691  -15.2900   21.2924 H   0  0  0  0  0  0
  1 25  1  0  0  0
  1 30  2  0  0  0
  1 86  1  0  0  0
  2  3  1  0  0  0
  2 25  1  0  0  0
  2 89  1  0  0  0
  2 90  1  0  0  0
  3  4  1  0  0  0
  3 91  1  0  0  0
  3 92  1  0  0  0
  4  5  1  0  0  0
  4 93  1  0  0  0
  4 94  1  0  0  0
  5  6  1  0  0  0
  5 26  1  0  0  0
  5 95  1  0  0  0
  6 25  1  0  0  0
  6 96  1  0  0  0
  6 97  1  0  0  0
  7  8  2  0  0  0
  7 26  1  0  0  0
  7 29  1  0  0  0
  8  9  1  0  0  0
  8 22  1  0  0  0
  9 10  1  0  0  0
  9 27  2  0  0  0
 10 11  2  0  0  0
 10 15  1  0  0  0
 11 12  1  0  0  0
 11 98  1  0  0  0
 12 13  2  0  0  0
 12 99  1  0  0  0
 13 14  1  0  0  0
 13 31  1  0  0  0
 14 15  2  0  0  0
 14100  1  0  0  0
 15101  1  0  0  0
 16 17  2  0  0  0
 16 21  1  0  0  0
 16 31  1  0  0  0
 17 18  1  0  0  0
 17102  1  0  0  0
 18 19  2  0  0  0
 18103  1  0  0  0
 19 20  1  0  0  0
 19 24  1  0  0  0
 20 21  2  0  0  0
 20104  1  0  0  0
 21 23  1  0  0  0
 22 28  1  0  0  0
 22 32  2  0  0  0
 26 27  1  0  0  0
 28105  1  0  0  0
 28106  1  0  0  0
 29107  1  0  0  0
 29108  1  0  0  0
 33 34  1  0  0  0
 33 66  1  0  0  0
 33 70  2  0  0  0
 34 36  1  0  0  0
 34 59  1  0  0  0
 34109  1  0  0  0
 35 44  2  0  0  0
 35 45  1  0  0  0
 35 68  1  0  0  0
 36 56  1  0  0  0
 36110  1  0  0  0
 37 39  1  0  0  0
 37 47  1  0  0  0
 37 66  1  0  0  0
 37111  1  0  0  0
 38 43  2  0  0  0
 38 46  1  0  0  0
 38 47  1  0  0  0
 39 64  1  0  0  0
 39 67  2  0  0  0
 40 52  1  0  0  0
 40 53  2  0  0  0
 40 58  1  0  0  0
 41112  1  0  0  0
 41113  1  0  0  0
 41114  1  0  0  0
 41 48  1  0  0  0
 42 43  1  0  0  0
 42 66  1  0  0  0
 42115  1  0  0  0
 42116  1  0  0  0
 43 44  1  0  0  0
 44117  1  0  0  0
 45 46  2  0  0  0
 45118  1  0  0  0
 46119  1  0  0  0
 47120  1  0  0  0
 47121  1  0  0  0
 48 56  1  0  0  0
 48 65  1  0  0  0
 48122  1  0  0  0
 49 50  1  0  0  0
 49 53  1  0  0  0
 49 64  1  0  0  0
 49123  1  0  0  0
 50 51  1  0  0  0
 50124  1  0  0  0
 50125  1  0  0  0
 51 52  1  0  0  0
 51126  1  0  0  0
 51127  1  0  0  0
 52128  1  0  0  0
 52129  1  0  0  0
 53 54  1  0  0  0
 54 55  2  0  0  0
 54130  1  0  0  0
 55 57  1  0  0  0
 55131  1  0  0  0
 56 69  2  0  0  0
 57 58  2  0  0  0
 57132  1  0  0  0
 58133  1  0  0  0
 59 60  1  0  0  0
 59 61  1  0  0  0
 59 62  1  0  0  0
 60134  1  0  0  0
 60135  1  0  0  0
 60136  1  0  0  0
 61137  1  0  0  0
 61138  1  0  0  0
 61139  1  0  0  0
 62140  1  0  0  0
 62141  1  0  0  0
 62142  1  0  0  0
 63 65  1  0  0  0
 63143  1  0  0  0
 63144  1  0  0  0
 63145  1  0  0  0
 64146  1  0  0  0
 65147  1  0  0  0
 68 80  1  0  0  0
 71 74  2  0  0  0
 71 75  1  0  0  0
 71148  1  0  0  0
 72 74  1  0  0  0
 72 76  2  0  0  0
 72149  1  0  0  0
 73 75  2  0  0  0
 73 76  1  0  0  0
 73150  1  0  0  0
 74 83  1  0  0  0
 75 85  1  0  0  0
 76 86  1  0  0  0
 77 78  2  0  0  0
 77 79  1  0  0  0
 77151  1  0  0  0
 78 81  1  0  0  0
 78 84  1  0  0  0
 79 85  1  0  0  0
 79 87  2  0  0  0
 80 84  1  0  0  0
 80 88  2  0  0  0
 81 82  1  0  0  0
 81152  1  0  0  0
 81153  1  0  0  0
 82 85  1  0  0  0
 82154  1  0  0  0
 82155  1  0  0  0
 83156  1  0  0  0
 83157  1  0  0  0
 83158  1  0  0  0
 84159  1  0  0  0
 84160  1  0  0  0
 86161  1  0  0  0
M  ISO  4   1 100  68 101  80 101  86 100
M  END
> <chiral flag>
0

> <version>
0

> <s_m_source_file>
/data/baiqing/PycharmProjects/Reinvent-master-3.2/result/LINK_invent/BTK/process_docking_weight1_custom_product_contain_oxygen_bond_distance_aromatic_linkinvent_7_9_3/rearranged_h_0063.sdf

> <i_m_source_file_index>
19

> <r_mmod_Potential_Energy-OPLS-2005>
115.291526794434

> <r_mmod_Stretch_Energy-OPLS-2005>
40.4102249145508

> <r_mmod_Bend_Energy-OPLS-2005>
107.446479797363

> <r_mmod_Torsional_Energy-OPLS-2005>
307.282623291016

> <r_mmod_Improper_Torsional_Energy-OPLS-2005>
4.19797515869141

> <r_mmod_Van_der_Waal_Energy-OPLS-2005>
171.772277832031

> <r_mmod_Electrostatic_Energy-OPLS-2005>
-298.885955810547

> <r_mmod_Solvation_Energy-OPLS-2005>
-231.336639404297

> <b_mmod_Minimization_Converged-OPLS-2005>
0

> <r_mmod_RMS_Derivative-OPLS-2005>
5.47284555435181

$$$$
19
                    3D
 Structure written by MMmdl.
152160  0  0  1  0            999 V2000
  -30.6089  -14.8208   20.4248 C   0  0  0  0  0  0
  -30.4283  -12.5000   19.4896 C   0  0  0  0  0  0
  -29.5131  -12.5112   18.2457 C   0  0  0  0  0  0
  -28.0418  -12.3252   18.6598 C   0  0  0  0  0  0
  -27.6354  -13.2434   19.8435 C   0  0  2  0  0  0
  -28.6794  -13.2307   20.9813 C   0  0  0  0  0  0
  -25.2484  -13.8221   20.5708 C   0  0  0  0  0  0
  -24.1792  -13.0449   20.9224 C   0  0  0  0  0  0
  -24.6399  -11.6932   20.8756 C   0  0  0  0  0  0
  -23.9080  -10.4300   21.0408 C   0  0  0  0  0  0
  -24.3628   -9.4213   21.9186 C   0  0  0  0  0  0
  -23.6300   -8.2248   22.0754 C   0  0  0  0  0  0
  -22.4282   -8.0286   21.3545 C   0  0  0  0  0  0
  -21.9921   -9.0261   20.4647 C   0  0  0  0  0  0
  -22.7252  -10.2140   20.3057 C   0  0  0  0  0  0
  -21.6857   -6.0738   22.5279 C   0  0  0  0  0  0
  -21.4016   -6.5642   23.8213 C   0  0  0  0  0  0
  -21.3660   -5.6795   24.9176 C   0  0  0  0  0  0
  -21.6044   -4.3057   24.7226 C   0  0  0  0  0  0
  -21.8819   -3.8149   23.4348 C   0  0  0  0  0  0
  -21.9194   -4.6966   22.3404 C   0  0  0  0  0  0
  -22.7812  -13.5221   21.1877 C   0  0  0  0  0  0
  -22.1663   -4.2150   21.0982 F   0  0  0  0  0  0
  -21.5627   -3.4541   25.7739 F   0  0  0  0  0  0
  -29.9727  -13.5917   20.3895 N   0  0  0  0  0  0
  -26.2913  -12.9448   20.3266 N   0  0  0  0  0  0
  -25.9332  -11.6580   20.5752 N   0  0  0  0  0  0
  -22.0460  -12.8205   22.0429 N   0  0  0  0  0  0
  -25.4156  -15.1947   20.4118 N   0  0  0  0  0  0
  -31.8130  -14.8441   20.1579 O   0  0  0  0  0  0
  -21.6646   -6.8882   21.4241 O   0  0  0  0  0  0
  -22.3495  -14.5527   20.6723 O   0  0  0  0  0  0
  -24.6363  -31.8514   23.1952 C   0  0  0  0  0  0
  -25.9167  -32.4736   23.8315 C   0  0  1  0  0  0
  -27.2155  -27.2191   20.1394 C   0  0  0  0  0  0
  -25.5944  -33.8540   24.2234 N   0  0  0  0  0  0
  -23.4370  -30.4728   21.5387 C   0  0  2  0  0  0
  -24.8883  -28.9174   20.1064 C   0  0  0  0  0  0
  -22.7536  -29.4578   22.4882 C   0  0  0  0  0  0
  -18.0299  -28.1390   22.8482 C   0  0  0  0  0  0
  -24.1490  -36.7274   23.2640 C   0  0  0  0  0  0
  -25.9875  -30.7505   21.3844 C   0  0  0  0  0  0
  -26.0626  -29.3702   20.7245 C   0  0  0  0  0  0
  -27.2329  -28.5330   20.7323 C   0  0  0  0  0  0
  -26.0245  -26.8522   19.4790 C   0  0  0  0  0  0
  -24.8766  -27.6678   19.4697 C   0  0  0  0  0  0
  -23.6599  -29.8084   20.1549 C   0  0  0  0  0  0
  -25.4119  -36.3058   24.0321 C   0  0  1  0  0  0
  -20.5907  -28.3710   23.1248 C   0  0  2  0  0  0
  -20.6782  -26.9420   22.5402 C   0  0  0  0  0  0
  -19.5756  -26.6382   21.5208 C   0  0  0  0  0  0
  -18.1939  -26.7931   22.1624 C   0  0  0  0  0  0
  -19.1554  -28.8868   23.2859 C   0  0  0  0  0  0
  -18.9473  -30.1467   23.8882 C   0  0  0  0  0  0
  -17.6468  -30.6589   24.0560 C   0  0  0  0  0  0
  -25.9062  -34.9430   23.5080 C   0  0  0  0  0  0
  -16.5360  -29.9082   23.6333 C   0  0  0  0  0  0
  -16.7284  -28.6500   23.0355 C   0  0  0  0  0  0
  -26.4514  -31.6577   25.0725 C   0  0  0  0  0  0
  -25.3718  -31.3743   26.1432 C   0  0  0  0  0  0
  -27.0370  -30.2984   24.6258 C   0  0  0  0  0  0
  -27.6057  -32.4330   25.7504 C   0  0  0  0  0  0
  -27.5577  -37.1793   24.8467 C   0  0  0  0  0  0
  -21.4236  -29.3047   22.3628 N   0  0  0  0  0  0
  -26.4291  -37.3761   23.9407 N   0  0  0  0  0  0
  -24.7060  -31.0435   22.0954 N   0  0  0  0  0  0
  -23.4210  -28.8120   23.3003 O   0  0  0  0  0  0
  -28.2254  -26.2168   20.2108 O   0  0  0  0  0  0
  -26.5642  -34.8915   22.4655 O   0  0  0  0  0  0
  -23.5499  -32.1355   23.7215 O   0  0  0  0  0  0
  -31.7002  -19.0524   19.1322 C   0  0  0  0  0  0
  -30.9157  -20.1658   19.4789 C   0  0  0  0  0  0
  -31.3430  -17.7430   19.4998 C   0  0  0  0  0  0
  -29.3690  -18.6472   20.5956 C   0  0  0  0  0  0
  -29.7149  -20.0370   20.2113 C   0  0  0  0  0  0
  -30.1795  -17.4574   20.2525 C   0  0  0  0  0  0
  -28.1373  -23.6196   20.8737 C   0  0  0  0  0  0
  -27.8376  -24.9966   20.8638 C   0  0  0  0  0  0
  -29.0638  -22.6539   20.1748 C   0  0  0  0  0  0
  -28.0948  -18.4141   21.3885 C   0  0  0  0  0  0
  -28.9466  -21.2961   20.5502 N   0  0  0  0  0  0
  -29.8649  -16.0084   20.5771 N   0  0  0  0  0  0
  -29.8624  -23.0300   19.3157 O   0  0  0  0  0  0
  -31.4695  -12.6173   19.1846 H   0  0  0  0  0  0
  -30.3765  -11.5374   20.0007 H   0  0  0  0  0  0
  -29.8089  -11.7245   17.5504 H   0  0  0  0  0  0
  -29.6286  -13.4547   17.7097 H   0  0  0  0  0  0
  -27.9128  -11.2799   18.9427 H   0  0  0  0  0  0
  -27.3832  -12.4923   17.8067 H   0  0  0  0  0  0
  -27.6135  -14.2551   19.4375 H   0  0  0  0  0  0
  -28.7315  -12.2496   21.4556 H   0  0  0  0  0  0
  -28.4035  -13.9381   21.7648 H   0  0  0  0  0  0
  -25.2770   -9.5691   22.4764 H   0  0  0  0  0  0
  -24.0009   -7.4640   22.7474 H   0  0  0  0  0  0
  -21.0852   -8.8784   19.8952 H   0  0  0  0  0  0
  -22.3710  -10.9682   19.6170 H   0  0  0  0  0  0
  -21.2010   -7.6151   23.9717 H   0  0  0  0  0  0
  -21.1481   -6.0526   25.9079 H   0  0  0  0  0  0
  -22.0597   -2.7610   23.2850 H   0  0  0  0  0  0
  -22.4085  -11.9872   22.4819 H   0  0  0  0  0  0
  -21.1073  -13.1220   22.2630 H   0  0  0  0  0  0
  -24.6421  -15.8427   20.5132 H   0  0  0  0  0  0
  -26.2519  -15.6314   20.0471 H   0  0  0  0  0  0
  -26.7233  -32.5376   23.1054 H   0  0  0  0  0  0
  -25.0081  -33.9667   25.0373 H   0  0  0  0  0  0
  -22.7359  -31.2966   21.3897 H   0  0  0  0  0  0
  -23.3758  -35.9601   23.3301 H   0  0  0  0  0  0
  -24.3576  -36.8903   22.2055 H   0  0  0  0  0  0
  -23.7241  -37.6471   23.6671 H   0  0  0  0  0  0
  -26.1333  -31.5104   20.6154 H   0  0  0  0  0  0
  -26.8614  -30.7992   22.0222 H   0  0  0  0  0  0
  -28.1253  -28.8651   21.2440 H   0  0  0  0  0  0
  -25.9661  -25.8837   19.0021 H   0  0  0  0  0  0
  -23.9795  -27.3155   18.9794 H   0  0  0  0  0  0
  -23.7881  -30.5860   19.4010 H   0  0  0  0  0  0
  -22.7772  -29.2451   19.8466 H   0  0  0  0  0  0
  -25.1302  -36.1897   25.0813 H   0  0  0  0  0  0
  -21.0000  -28.3298   24.1368 H   0  0  0  0  0  0
  -20.5675  -26.2326   23.3617 H   0  0  0  0  0  0
  -21.6649  -26.7431   22.1199 H   0  0  0  0  0  0
  -19.6919  -25.6289   21.1248 H   0  0  0  0  0  0
  -19.6690  -27.3184   20.6731 H   0  0  0  0  0  0
  -17.4203  -26.6677   21.4032 H   0  0  0  0  0  0
  -18.0345  -26.0075   22.9023 H   0  0  0  0  0  0
  -19.7947  -30.7289   24.2246 H   0  0  0  0  0  0
  -17.5019  -31.6266   24.5167 H   0  0  0  0  0  0
  -15.5358  -30.2977   23.7664 H   0  0  0  0  0  0
  -15.8686  -28.0812   22.7077 H   0  0  0  0  0  0
  -24.5900  -30.7087   25.7754 H   0  0  0  0  0  0
  -24.8903  -32.2917   26.4827 H   0  0  0  0  0  0
  -25.8017  -30.8937   27.0229 H   0  0  0  0  0  0
  -26.2971  -29.6720   24.1262 H   0  0  0  0  0  0
  -27.4005  -29.7264   25.4806 H   0  0  0  0  0  0
  -27.8871  -30.4240   23.9548 H   0  0  0  0  0  0
  -27.2656  -33.3643   26.2046 H   0  0  0  0  0  0
  -28.3884  -32.6871   25.0344 H   0  0  0  0  0  0
  -28.0705  -31.8479   26.5450 H   0  0  0  0  0  0
  -28.2592  -38.0092   24.7508 H   0  0  0  0  0  0
  -28.1074  -36.2622   24.6298 H   0  0  0  0  0  0
  -27.2294  -37.1446   25.8869 H   0  0  0  0  0  0
  -20.9434  -29.8768   21.6824 H   0  0  0  0  0  0
  -26.0168  -38.2833   24.1409 H   0  0  0  0  0  0
  -32.6058  -19.2081   18.5630 H   0  0  0  0  0  0
  -31.2803  -21.1303   19.1630 H   0  0  0  0  0  0
  -32.0042  -16.9613   19.1622 H   0  0  0  0  0  0
  -27.5197  -23.1091   21.5983 H   0  0  0  0  0  0
  -27.0650  -25.2592   21.5753 H   0  0  0  0  0  0
  -27.7614  -19.3148   21.9021 H   0  0  0  0  0  0
  -28.2459  -17.6484   22.1493 H   0  0  0  0  0  0
  -27.2947  -18.0844   20.7257 H   0  0  0  0  0  0
  -28.1953  -21.1443   21.2075 H   0  0  0  0  0  0
  -28.9162  -15.8423   20.8747 H   0  0  0  0  0  0
  1 25  1  0  0  0
  1 30  2  0  0  0
  1 82  1  0  0  0
  2  3  1  0  0  0
  2 25  1  0  0  0
  2 84  1  0  0  0
  2 85  1  0  0  0
  3  4  1  0  0  0
  3 86  1  0  0  0
  3 87  1  0  0  0
  4  5  1  0  0  0
  4 88  1  0  0  0
  4 89  1  0  0  0
  5  6  1  0  0  0
  5 26  1  0  0  0
  5 90  1  0  0  0
  6 25  1  0  0  0
  6 91  1  0  0  0
  6 92  1  0  0  0
  7  8  2  0  0  0
  7 26  1  0  0  0
  7 29  1  0  0  0
  8  9  1  0  0  0
  8 22  1  0  0  0
  9 10  1  0  0  0
  9 27  2  0  0  0
 10 11  2  0  0  0
 10 15  1  0  0  0
 11 12  1  0  0  0
 11 93  1  0  0  0
 12 13  2  0  0  0
 12 94  1  0  0  0
 13 14  1  0  0  0
 13 31  1  0  0  0
 14 15  2  0  0  0
 14 95  1  0  0  0
 15 96  1  0  0  0
 16 17  2  0  0  0
 16 21  1  0  0  0
 16 31  1  0  0  0
 17 18  1  0  0  0
 17 97  1  0  0  0
 18 19  2  0  0  0
 18 98  1  0  0  0
 19 20  1  0  0  0
 19 24  1  0  0  0
 20 21  2  0  0  0
 20 99  1  0  0  0
 21 23  1  0  0  0
 22 28  1  0  0  0
 22 32  2  0  0  0
 26 27  1  0  0  0
 28100  1  0  0  0
 28101  1  0  0  0
 29102  1  0  0  0
 29103  1  0  0  0
 33 34  1  0  0  0
 33 66  1  0  0  0
 33 70  2  0  0  0
 34 36  1  0  0  0
 34 59  1  0  0  0
 34104  1  0  0  0
 35 44  2  0  0  0
 35 45  1  0  0  0
 35 68  1  0  0  0
 36 56  1  0  0  0
 36105  1  0  0  0
 37 39  1  0  0  0
 37 47  1  0  0  0
 37 66  1  0  0  0
 37106  1  0  0  0
 38 43  2  0  0  0
 38 46  1  0  0  0
 38 47  1  0  0  0
 39 64  1  0  0  0
 39 67  2  0  0  0
 40 52  1  0  0  0
 40 53  2  0  0  0
 40 58  1  0  0  0
 41107  1  0  0  0
 41108  1  0  0  0
 41109  1  0  0  0
 41 48  1  0  0  0
 42 43  1  0  0  0
 42 66  1  0  0  0
 42110  1  0  0  0
 42111  1  0  0  0
 43 44  1  0  0  0
 44112  1  0  0  0
 45 46  2  0  0  0
 45113  1  0  0  0
 46114  1  0  0  0
 47115  1  0  0  0
 47116  1  0  0  0
 48 56  1  0  0  0
 48 65  1  0  0  0
 48117  1  0  0  0
 49 50  1  0  0  0
 49 53  1  0  0  0
 49 64  1  0  0  0
 49118  1  0  0  0
 50 51  1  0  0  0
 50119  1  0  0  0
 50120  1  0  0  0
 51 52  1  0  0  0
 51121  1  0  0  0
 51122  1  0  0  0
 52123  1  0  0  0
 52124  1  0  0  0
 53 54  1  0  0  0
 54 55  2  0  0  0
 54125  1  0  0  0
 55 57  1  0  0  0
 55126  1  0  0  0
 56 69  2  0  0  0
 57 58  2  0  0  0
 57127  1  0  0  0
 58128  1  0  0  0
 59 60  1  0  0  0
 59 61  1  0  0  0
 59 62  1  0  0  0
 60129  1  0  0  0
 60130  1  0  0  0
 60131  1  0  0  0
 61132  1  0  0  0
 61133  1  0  0  0
 61134  1  0  0  0
 62135  1  0  0  0
 62136  1  0  0  0
 62137  1  0  0  0
 63 65  1  0  0  0
 63138  1  0  0  0
 63139  1  0  0  0
 63140  1  0  0  0
 64141  1  0  0  0
 65142  1  0  0  0
 68 78  1  0  0  0
 71 72  2  0  0  0
 71 73  1  0  0  0
 71143  1  0  0  0
 72 75  1  0  0  0
 72144  1  0  0  0
 73 76  2  0  0  0
 73145  1  0  0  0
 74 75  2  0  0  0
 74 76  1  0  0  0
 74 80  1  0  0  0
 75 81  1  0  0  0
 76 82  1  0  0  0
 77 78  2  0  0  0
 77 79  1  0  0  0
 77146  1  0  0  0
 78147  1  0  0  0
 79 81  1  0  0  0
 79 83  2  0  0  0
 80148  1  0  0  0
 80149  1  0  0  0
 80150  1  0  0  0
 81151  1  0  0  0
 82152  1  0  0  0
M  ISO  4   1 100  68 101  78 101  82 100
M  END
> <chiral flag>
0

> <version>
0

> <s_m_source_file>
/data/baiqing/PycharmProjects/Reinvent-master-3.2/result/LINK_invent/BTK/process_docking_weight1_custom_product_contain_oxygen_bond_distance_aromatic_linkinvent_7_9_3/rearranged_h_0063.sdf

> <i_m_source_file_index>
20

> <r_mmod_Potential_Energy-OPLS-2005>
280.398742675781

> <r_mmod_Stretch_Energy-OPLS-2005>
166.947708129883

> <r_mmod_Bend_Energy-OPLS-2005>
243.980072021484

> <r_mmod_Torsional_Energy-OPLS-2005>
229.598403930664

> <r_mmod_Improper_Torsional_Energy-OPLS-2005>
4.32781505584717

> <r_mmod_Van_der_Waal_Energy-OPLS-2005>
145.167297363281

> <r_mmod_Electrostatic_Energy-OPLS-2005>
-401.815032958984

> <r_mmod_Solvation_Energy-OPLS-2005>
-236.535888671875

> <b_mmod_Minimization_Converged-OPLS-2005>
0

> <r_mmod_RMS_Derivative-OPLS-2005>
0.368142127990723

$$$$
20
                    3D
 Structure written by MMmdl.
161170  0  0  1  0            999 V2000
  -30.6080  -14.7212   20.4750 C   0  0  0  0  0  0
  -30.4236  -12.4380   19.4775 C   0  0  0  0  0  0
  -29.5110  -12.5224   18.2338 C   0  0  0  0  0  0
  -28.0351  -12.3458   18.6410 C   0  0  0  0  0  0
  -27.6406  -13.2318   19.8522 C   0  0  2  0  0  0
  -28.6799  -13.1455   20.9926 C   0  0  0  0  0  0
  -25.2475  -13.8188   20.5660 C   0  0  0  0  0  0
  -24.1766  -13.0436   20.9194 C   0  0  0  0  0  0
  -24.6363  -11.6912   20.8707 C   0  0  0  0  0  0
  -23.9033  -10.4288   21.0379 C   0  0  0  0  0  0
  -24.3588   -9.4219   21.9165 C   0  0  0  0  0  0
  -23.6281   -8.2247   22.0747 C   0  0  0  0  0  0
  -22.4273   -8.0262   21.3538 C   0  0  0  0  0  0
  -21.9884   -9.0234   20.4645 C   0  0  0  0  0  0
  -22.7199  -10.2122   20.3042 C   0  0  0  0  0  0
  -21.6862   -6.0708   22.5266 C   0  0  0  0  0  0
  -21.4016   -6.5622   23.8198 C   0  0  0  0  0  0
  -21.3664   -5.6776   24.9158 C   0  0  0  0  0  0
  -21.6050   -4.3036   24.7221 C   0  0  0  0  0  0
  -21.8817   -3.8129   23.4341 C   0  0  0  0  0  0
  -21.9196   -4.6935   22.3392 C   0  0  0  0  0  0
  -22.7788  -13.5213   21.1862 C   0  0  0  0  0  0
  -22.1668   -4.2116   21.0973 F   0  0  0  0  0  0
  -21.5640   -3.4527   25.7741 F   0  0  0  0  0  0
  -29.9836  -13.4940   20.4196 N   0  0  0  0  0  0
  -26.2905  -12.9406   20.3238 N   0  0  0  0  0  0
  -25.9292  -11.6551   20.5694 N   0  0  0  0  0  0
  -22.0429  -12.8219   22.0432 N   0  0  0  0  0  0
  -25.4149  -15.1910   20.4067 N   0  0  0  0  0  0
  -31.7740  -14.8025   20.0845 O   0  0  0  0  0  0
  -21.6649   -6.8856   21.4235 O   0  0  0  0  0  0
  -22.3476  -14.5514   20.6698 O   0  0  0  0  0  0
  -24.6293  -31.8538   23.1985 C   0  0  0  0  0  0
  -25.9137  -32.4746   23.8311 C   0  0  1  0  0  0
  -27.2190  -27.2853   20.1259 C   0  0  0  0  0  0
  -25.5928  -33.8538   24.2234 N   0  0  0  0  0  0
  -23.4222  -30.4754   21.5421 C   0  0  2  0  0  0
  -24.8669  -28.9226   20.1050 C   0  0  0  0  0  0
  -22.7490  -29.4593   22.4950 C   0  0  0  0  0  0
  -18.0291  -28.1386   22.8488 C   0  0  0  0  0  0
  -24.1487  -36.7286   23.2645 C   0  0  0  0  0  0
  -25.9627  -30.7755   21.3716 C   0  0  0  0  0  0
  -26.0323  -29.3989   20.7155 C   0  0  0  0  0  0
  -27.2055  -28.5885   20.7212 C   0  0  0  0  0  0
  -26.0356  -26.8663   19.4825 C   0  0  0  0  0  0
  -24.8717  -27.6638   19.4799 C   0  0  0  0  0  0
  -23.6337  -29.8033   20.1585 C   0  0  0  0  0  0
  -25.4106  -36.3056   24.0330 C   0  0  1  0  0  0
  -20.5890  -28.3674   23.1313 C   0  0  2  0  0  0
  -20.6767  -26.9393   22.5437 C   0  0  0  0  0  0
  -19.5744  -26.6374   21.5238 C   0  0  0  0  0  0
  -18.1928  -26.7930   22.1645 C   0  0  0  0  0  0
  -19.1541  -28.8857   23.2893 C   0  0  0  0  0  0
  -18.9449  -30.1468   23.8888 C   0  0  0  0  0  0
  -17.6440  -30.6577   24.0564 C   0  0  0  0  0  0
  -25.9040  -34.9428   23.5084 C   0  0  0  0  0  0
  -16.5336  -29.9064   23.6341 C   0  0  0  0  0  0
  -16.7279  -28.6498   23.0345 C   0  0  0  0  0  0
  -26.4488  -31.6587   25.0710 C   0  0  0  0  0  0
  -25.3704  -31.3751   26.1431 C   0  0  0  0  0  0
  -27.0310  -30.2996   24.6203 C   0  0  0  0  0  0
  -27.6037  -32.4325   25.7483 C   0  0  0  0  0  0
  -27.5583  -37.1795   24.8453 C   0  0  0  0  0  0
  -21.4205  -29.3022   22.3699 N   0  0  0  0  0  0
  -26.4284  -37.3757   23.9405 N   0  0  0  0  0  0
  -24.6901  -31.0543   22.0936 N   0  0  0  0  0  0
  -23.4210  -28.8140   23.3040 O   0  0  0  0  0  0
  -28.3434  -26.4490   20.2240 O   0  0  0  0  0  0
  -26.5608  -34.8916   22.4657 O   0  0  0  0  0  0
  -23.5457  -32.1339   23.7321 O   0  0  0  0  0  0
  -30.8569  -20.1015   20.7457 C   0  0  0  0  0  0
  -29.1803  -18.3662   20.5827 C   0  0  0  0  0  0
  -31.8253  -19.1062   20.9819 C   0  0  0  0  0  0
  -29.4808  -19.8054   20.5910 C   0  0  0  0  0  0
  -30.1639  -17.3014   20.7610 C   0  0  0  0  0  0
  -31.4865  -17.7396   21.0282 C   0  0  0  0  0  0
  -27.1808  -20.8214   20.6872 C   0  0  0  0  0  0
  -26.3020  -22.0403   21.0236 C   0  0  0  0  0  0
  -26.6360  -23.3188   20.2480 C   0  0  0  0  0  0
  -29.0020  -22.4070   20.1654 C   0  0  0  0  0  0
  -28.0957  -23.7128   20.4521 C   0  0  1  0  0  0
  -33.2637  -19.5188   21.2280 C   0  0  0  0  0  0
  -28.4509  -25.0751   19.6545 C   0  0  0  0  0  0
  -28.5248  -20.9762   20.4995 N   0  0  0  0  0  0
  -29.8343  -15.8454   20.7497 N   0  0  0  0  0  0
  -26.5983  -19.7365   20.6290 O   0  0  0  0  0  0
  -32.4608  -16.8720   21.3867 F   0  0  0  0  0  0
  -31.4700  -12.5408   19.1871 H   0  0  0  0  0  0
  -30.3462  -11.4549   19.9454 H   0  0  0  0  0  0
  -29.7966  -11.7638   17.5039 H   0  0  0  0  0  0
  -29.6439  -13.4889   17.7423 H   0  0  0  0  0  0
  -27.8867  -11.2952   18.8921 H   0  0  0  0  0  0
  -27.3790  -12.5497   17.7924 H   0  0  0  0  0  0
  -27.6439  -14.2582   19.4849 H   0  0  0  0  0  0
  -28.7055  -12.1417   21.4206 H   0  0  0  0  0  0
  -28.4144  -13.8163   21.8107 H   0  0  0  0  0  0
  -25.2733   -9.5715   22.4725 H   0  0  0  0  0  0
  -24.0000   -7.4644   22.7468 H   0  0  0  0  0  0
  -21.0810   -8.8732   19.8966 H   0  0  0  0  0  0
  -22.3635  -10.9640   19.6131 H   0  0  0  0  0  0
  -21.2014   -7.6133   23.9686 H   0  0  0  0  0  0
  -21.1492   -6.0512   25.9059 H   0  0  0  0  0  0
  -22.0601   -2.7592   23.2844 H   0  0  0  0  0  0
  -22.4054  -11.9909   22.4860 H   0  0  0  0  0  0
  -21.1028  -13.1233   22.2609 H   0  0  0  0  0  0
  -24.6449  -15.8412   20.5138 H   0  0  0  0  0  0
  -26.2576  -15.6334   20.0642 H   0  0  0  0  0  0
  -26.7214  -32.5382   23.1055 H   0  0  0  0  0  0
  -25.0063  -33.9624   25.0373 H   0  0  0  0  0  0
  -22.7192  -31.2977   21.3971 H   0  0  0  0  0  0
  -23.3740  -35.9635   23.3282 H   0  0  0  0  0  0
  -24.3597  -36.8917   22.2070 H   0  0  0  0  0  0
  -23.7247  -37.6488   23.6670 H   0  0  0  0  0  0
  -26.0958  -31.5386   20.6039 H   0  0  0  0  0  0
  -26.8439  -30.8239   21.9996 H   0  0  0  0  0  0
  -28.0968  -28.9435   21.2198 H   0  0  0  0  0  0
  -25.9809  -25.9032   19.0009 H   0  0  0  0  0  0
  -23.9781  -27.2912   18.9994 H   0  0  0  0  0  0
  -23.7448  -30.5727   19.3949 H   0  0  0  0  0  0
  -22.7548  -29.2267   19.8668 H   0  0  0  0  0  0
  -25.1293  -36.1888   25.0824 H   0  0  0  0  0  0
  -20.9989  -28.3237   24.1434 H   0  0  0  0  0  0
  -20.5688  -26.2268   23.3625 H   0  0  0  0  0  0
  -21.6632  -26.7435   22.1211 H   0  0  0  0  0  0
  -19.6882  -25.6285   21.1261 H   0  0  0  0  0  0
  -19.6690  -27.3196   20.6773 H   0  0  0  0  0  0
  -17.4209  -26.6722   21.4031 H   0  0  0  0  0  0
  -18.0294  -26.0072   22.9030 H   0  0  0  0  0  0
  -19.7914  -30.7314   24.2234 H   0  0  0  0  0  0
  -17.4973  -31.6247   24.5176 H   0  0  0  0  0  0
  -15.5329  -30.2937   23.7674 H   0  0  0  0  0  0
  -15.8691  -28.0814   22.7031 H   0  0  0  0  0  0
  -24.5891  -30.7077   25.7771 H   0  0  0  0  0  0
  -24.8879  -32.2924   26.4819 H   0  0  0  0  0  0
  -25.8025  -30.8962   27.0229 H   0  0  0  0  0  0
  -26.2882  -29.6761   24.1220 H   0  0  0  0  0  0
  -27.3947  -29.7253   25.4735 H   0  0  0  0  0  0
  -27.8781  -30.4232   23.9454 H   0  0  0  0  0  0
  -27.2638  -33.3624   26.2053 H   0  0  0  0  0  0
  -28.3863  -32.6891   25.0329 H   0  0  0  0  0  0
  -28.0695  -31.8455   26.5406 H   0  0  0  0  0  0
  -28.2578  -38.0110   24.7515 H   0  0  0  0  0  0
  -28.1086  -36.2641   24.6235 H   0  0  0  0  0  0
  -27.2310  -37.1408   25.8855 H   0  0  0  0  0  0
  -20.9381  -29.8722   21.6891 H   0  0  0  0  0  0
  -26.0150  -38.2829   24.1397 H   0  0  0  0  0  0
  -31.2224  -21.1130   20.7456 H   0  0  0  0  0  0
  -28.1654  -18.0340   20.4326 H   0  0  0  0  0  0
  -26.3909  -22.2306   22.0946 H   0  0  0  0  0  0
  -25.2556  -21.7847   20.8509 H   0  0  0  0  0  0
  -25.9843  -24.1235   20.5889 H   0  0  0  0  0  0
  -26.4256  -23.1786   19.1868 H   0  0  0  0  0  0
  -29.9322  -22.6321   20.6766 H   0  0  0  0  0  0
  -29.2453  -22.3947   19.1033 H   0  0  0  0  0  0
  -28.2240  -23.9383   21.5106 H   0  0  0  0  0  0
  -33.4227  -20.5785   21.0223 H   0  0  0  0  0  0
  -33.9379  -18.9485   20.5886 H   0  0  0  0  0  0
  -33.5380  -19.3314   22.2663 H   0  0  0  0  0  0
  -27.9944  -25.0526   18.6656 H   0  0  0  0  0  0
  -29.5160  -24.9986   19.4343 H   0  0  0  0  0  0
  -28.8656  -15.6292   20.9222 H   0  0  0  0  0  0
  1 25  1  0  0  0
  1 30  2  0  0  0
  1 85  1  0  0  0
  2  3  1  0  0  0
  2 25  1  0  0  0
  2 88  1  0  0  0
  2 89  1  0  0  0
  3  4  1  0  0  0
  3 90  1  0  0  0
  3 91  1  0  0  0
  4  5  1  0  0  0
  4 92  1  0  0  0
  4 93  1  0  0  0
  5  6  1  0  0  0
  5 26  1  0  0  0
  5 94  1  0  0  0
  6 25  1  0  0  0
  6 95  1  0  0  0
  6 96  1  0  0  0
  7  8  2  0  0  0
  7 26  1  0  0  0
  7 29  1  0  0  0
  8  9  1  0  0  0
  8 22  1  0  0  0
  9 10  1  0  0  0
  9 27  2  0  0  0
 10 11  2  0  0  0
 10 15  1  0  0  0
 11 12  1  0  0  0
 11 97  1  0  0  0
 12 13  2  0  0  0
 12 98  1  0  0  0
 13 14  1  0  0  0
 13 31  1  0  0  0
 14 15  2  0  0  0
 14 99  1  0  0  0
 15100  1  0  0  0
 16 17  2  0  0  0
 16 21  1  0  0  0
 16 31  1  0  0  0
 17 18  1  0  0  0
 17101  1  0  0  0
 18 19  2  0  0  0
 18102  1  0  0  0
 19 20  1  0  0  0
 19 24  1  0  0  0
 20 21  2  0  0  0
 20103  1  0  0  0
 21 23  1  0  0  0
 22 28  1  0  0  0
 22 32  2  0  0  0
 26 27  1  0  0  0
 28104  1  0  0  0
 28105  1  0  0  0
 29106  1  0  0  0
 29107  1  0  0  0
 33 34  1  0  0  0
 33 66  1  0  0  0
 33 70  2  0  0  0
 34 36  1  0  0  0
 34 59  1  0  0  0
 34108  1  0  0  0
 35 44  2  0  0  0
 35 45  1  0  0  0
 35 68  1  0  0  0
 36 56  1  0  0  0
 36109  1  0  0  0
 37 39  1  0  0  0
 37 47  1  0  0  0
 37 66  1  0  0  0
 37110  1  0  0  0
 38 43  2  0  0  0
 38 46  1  0  0  0
 38 47  1  0  0  0
 39 64  1  0  0  0
 39 67  2  0  0  0
 40 52  1  0  0  0
 40 53  2  0  0  0
 40 58  1  0  0  0
 41111  1  0  0  0
 41112  1  0  0  0
 41113  1  0  0  0
 41 48  1  0  0  0
 42 43  1  0  0  0
 42 66  1  0  0  0
 42114  1  0  0  0
 42115  1  0  0  0
 43 44  1  0  0  0
 44116  1  0  0  0
 45 46  2  0  0  0
 45117  1  0  0  0
 46118  1  0  0  0
 47119  1  0  0  0
 47120  1  0  0  0
 48 56  1  0  0  0
 48 65  1  0  0  0
 48121  1  0  0  0
 49 50  1  0  0  0
 49 53  1  0  0  0
 49 64  1  0  0  0
 49122  1  0  0  0
 50 51  1  0  0  0
 50123  1  0  0  0
 50124  1  0  0  0
 51 52  1  0  0  0
 51125  1  0  0  0
 51126  1  0  0  0
 52127  1  0  0  0
 52128  1  0  0  0
 53 54  1  0  0  0
 54 55  2  0  0  0
 54129  1  0  0  0
 55 57  1  0  0  0
 55130  1  0  0  0
 56 69  2  0  0  0
 57 58  2  0  0  0
 57131  1  0  0  0
 58132  1  0  0  0
 59 60  1  0  0  0
 59 61  1  0  0  0
 59 62  1  0  0  0
 60133  1  0  0  0
 60134  1  0  0  0
 60135  1  0  0  0
 61136  1  0  0  0
 61137  1  0  0  0
 61138  1  0  0  0
 62139  1  0  0  0
 62140  1  0  0  0
 62141  1  0  0  0
 63 65  1  0  0  0
 63142  1  0  0  0
 63143  1  0  0  0
 63144  1  0  0  0
 64145  1  0  0  0
 65146  1  0  0  0
 68 83  1  0  0  0
 71 73  2  0  0  0
 71 74  1  0  0  0
 71147  1  0  0  0
 72 74  2  0  0  0
 72 75  1  0  0  0
 72148  1  0  0  0
 73 76  1  0  0  0
 73 82  1  0  0  0
 74 84  1  0  0  0
 75 76  2  0  0  0
 75 85  1  0  0  0
 76 87  1  0  0  0
 77 78  1  0  0  0
 77 84  1  0  0  0
 77 86  2  0  0  0
 78 79  1  0  0  0
 78149  1  0  0  0
 78150  1  0  0  0
 79 81  1  0  0  0
 79151  1  0  0  0
 79152  1  0  0  0
 80 81  1  0  0  0
 80 84  1  0  0  0
 80153  1  0  0  0
 80154  1  0  0  0
 81 83  1  0  0  0
 81155  1  0  0  0
 82156  1  0  0  0
 82157  1  0  0  0
 82158  1  0  0  0
 83159  1  0  0  0
 83160  1  0  0  0
 85161  1  0  0  0
M  ISO  4   1 100  68 101  83 101  85 100
M  END
> <chiral flag>
0

> <version>
0

> <s_m_source_file>
/data/baiqing/PycharmProjects/Reinvent-master-3.2/result/LINK_invent/BTK/process_docking_weight1_custom_product_contain_oxygen_bond_distance_aromatic_linkinvent_7_9_3/rearranged_h_0063.sdf

> <i_m_source_file_index>
21

> <r_mmod_Potential_Energy-OPLS-2005>
245.441223144531

> <r_mmod_Stretch_Energy-OPLS-2005>
136.103256225586

> <r_mmod_Bend_Energy-OPLS-2005>
190.16650390625

> <r_mmod_Torsional_Energy-OPLS-2005>
262.340301513672

> <r_mmod_Improper_Torsional_Energy-OPLS-2005>
5.64343643188477

> <r_mmod_Van_der_Waal_Energy-OPLS-2005>
163.59245300293

> <r_mmod_Electrostatic_Energy-OPLS-2005>
-364.190032958984

> <r_mmod_Solvation_Energy-OPLS-2005>
-219.36311340332

> <b_mmod_Minimization_Converged-OPLS-2005>
0

> <r_mmod_RMS_Derivative-OPLS-2005>
2.98571801185608

$$$$
21
                    3D
 Structure written by MMmdl.
155163  0  0  1  0            999 V2000
  -30.6268  -14.7635   20.4487 C   0  0  0  0  0  0
  -30.4252  -12.4654   19.4800 C   0  0  0  0  0  0
  -29.5089  -12.5046   18.2387 C   0  0  0  0  0  0
  -28.0361  -12.3273   18.6527 C   0  0  0  0  0  0
  -27.6378  -13.2364   19.8464 C   0  0  2  0  0  0
  -28.6822  -13.1970   20.9833 C   0  0  0  0  0  0
  -25.2491  -13.8207   20.5697 C   0  0  0  0  0  0
  -24.1792  -13.0445   20.9217 C   0  0  0  0  0  0
  -24.6389  -11.6925   20.8752 C   0  0  0  0  0  0
  -23.9071  -10.4297   21.0406 C   0  0  0  0  0  0
  -24.3619   -9.4209   21.9181 C   0  0  0  0  0  0
  -23.6293   -8.2246   22.0751 C   0  0  0  0  0  0
  -22.4273   -8.0284   21.3544 C   0  0  0  0  0  0
  -21.9907   -9.0261   20.4649 C   0  0  0  0  0  0
  -22.7241  -10.2140   20.3058 C   0  0  0  0  0  0
  -21.6857   -6.0732   22.5276 C   0  0  0  0  0  0
  -21.4021   -6.5636   23.8209 C   0  0  0  0  0  0
  -21.3659   -5.6789   24.9171 C   0  0  0  0  0  0
  -21.6041   -4.3053   24.7224 C   0  0  0  0  0  0
  -21.8820   -3.8144   23.4345 C   0  0  0  0  0  0
  -21.9195   -4.6959   22.3400 C   0  0  0  0  0  0
  -22.7813  -13.5224   21.1871 C   0  0  0  0  0  0
  -22.1662   -4.2146   21.0978 F   0  0  0  0  0  0
  -21.5626   -3.4537   25.7736 F   0  0  0  0  0  0
  -29.9800  -13.5460   20.3942 N   0  0  0  0  0  0
  -26.2917  -12.9423   20.3270 N   0  0  0  0  0  0
  -25.9319  -11.6560   20.5752 N   0  0  0  0  0  0
  -22.0458  -12.8223   22.0431 N   0  0  0  0  0  0
  -25.4176  -15.1931   20.4094 N   0  0  0  0  0  0
  -31.8205  -14.7974   20.1424 O   0  0  0  0  0  0
  -21.6640   -6.8878   21.4238 O   0  0  0  0  0  0
  -22.3496  -14.5527   20.6710 O   0  0  0  0  0  0
  -24.6318  -31.8530   23.1955 C   0  0  0  0  0  0
  -25.9143  -32.4738   23.8302 C   0  0  1  0  0  0
  -27.2246  -27.2534   20.1242 C   0  0  0  0  0  0
  -25.5936  -33.8540   24.2232 N   0  0  0  0  0  0
  -23.4283  -30.4742   21.5384 C   0  0  2  0  0  0
  -24.8754  -28.9157   20.1066 C   0  0  0  0  0  0
  -22.7502  -29.4590   22.4902 C   0  0  0  0  0  0
  -18.0293  -28.1388   22.8479 C   0  0  0  0  0  0
  -24.1491  -36.7275   23.2635 C   0  0  0  0  0  0
  -25.9731  -30.7633   21.3745 C   0  0  0  0  0  0
  -26.0445  -29.3842   20.7170 C   0  0  0  0  0  0
  -27.2167  -28.5635   20.7165 C   0  0  0  0  0  0
  -26.0294  -26.8465   19.4920 C   0  0  0  0  0  0
  -24.8733  -27.6558   19.4851 C   0  0  0  0  0  0
  -23.6462  -29.8040   20.1550 C   0  0  0  0  0  0
  -25.4118  -36.3057   24.0321 C   0  0  1  0  0  0
  -20.5895  -28.3698   23.1271 C   0  0  2  0  0  0
  -20.6780  -26.9411   22.5417 C   0  0  0  0  0  0
  -19.5759  -26.6381   21.5215 C   0  0  0  0  0  0
  -18.1936  -26.7933   22.1620 C   0  0  0  0  0  0
  -19.1546  -28.8861   23.2871 C   0  0  0  0  0  0
  -18.9467  -30.1462   23.8890 C   0  0  0  0  0  0
  -17.6464  -30.6588   24.0562 C   0  0  0  0  0  0
  -25.9062  -34.9431   23.5085 C   0  0  0  0  0  0
  -16.5357  -29.9084   23.6328 C   0  0  0  0  0  0
  -16.7279  -28.6504   23.0347 C   0  0  0  0  0  0
  -26.4508  -31.6572   25.0701 C   0  0  0  0  0  0
  -25.3729  -31.3735   26.1424 C   0  0  0  0  0  0
  -27.0346  -30.2982   24.6199 C   0  0  0  0  0  0
  -27.6064  -32.4311   25.7473 C   0  0  0  0  0  0
  -27.5586  -37.1779   24.8452 C   0  0  0  0  0  0
  -21.4208  -29.3038   22.3650 N   0  0  0  0  0  0
  -26.4283  -37.3768   23.9420 N   0  0  0  0  0  0
  -24.6968  -31.0490   22.0926 N   0  0  0  0  0  0
  -23.4203  -28.8140   23.3007 O   0  0  0  0  0  0
  -28.3443  -26.3931   20.2157 O   0  0  0  0  0  0
  -26.5640  -34.8915   22.4656 O   0  0  0  0  0  0
  -23.5472  -32.1356   23.7253 O   0  0  0  0  0  0
  -32.0781  -19.0766   20.4829 C   0  0  0  0  0  0
  -31.6500  -17.7383   20.5154 C   0  0  0  0  0  0
  -29.3637  -18.5298   20.5840 C   0  0  0  0  0  0
  -29.7747  -19.9406   20.5645 C   0  0  0  0  0  0
  -31.1829  -20.1675   20.5204 C   0  0  0  0  0  0
  -30.2807  -17.3868   20.5658 C   0  0  0  0  0  0
  -28.8099  -21.1441   20.7356 C   0  0  0  0  0  0
  -28.2227  -23.7144   20.4898 C   0  0  0  0  0  0
  -31.8131  -21.5571   20.5684 C   0  0  0  0  0  0
  -28.4537  -25.0246   19.5893 C   0  0  0  0  0  0
  -29.8847  -15.9374   20.6260 N   0  0  0  0  0  0
  -28.9349  -22.4219   20.1702 N   0  0  0  0  0  0
  -27.7930  -20.9316   21.5743 N   0  3  0  0  0  0
  -27.4325  -23.7554   21.4411 O   0  0  0  0  0  0
  -31.4679  -12.5736   19.1767 H   0  0  0  0  0  0
  -30.3614  -11.4965   19.9775 H   0  0  0  0  0  0
  -29.7956  -11.7251   17.5312 H   0  0  0  0  0  0
  -29.6343  -13.4545   17.7170 H   0  0  0  0  0  0
  -27.8971  -11.2804   18.9245 H   0  0  0  0  0  0
  -27.3793  -12.5097   17.8013 H   0  0  0  0  0  0
  -27.6250  -14.2528   19.4521 H   0  0  0  0  0  0
  -28.7220  -12.2085   21.4429 H   0  0  0  0  0  0
  -28.4139  -13.8946   21.7786 H   0  0  0  0  0  0
  -25.2764   -9.5685   22.4756 H   0  0  0  0  0  0
  -24.0003   -7.4634   22.7465 H   0  0  0  0  0  0
  -21.0839   -8.8782   19.8954 H   0  0  0  0  0  0
  -22.3694  -10.9678   19.6168 H   0  0  0  0  0  0
  -21.2018   -7.6145   23.9713 H   0  0  0  0  0  0
  -21.1477   -6.0519   25.9075 H   0  0  0  0  0  0
  -22.0599   -2.7606   23.2848 H   0  0  0  0  0  0
  -22.4076  -11.9892   22.4832 H   0  0  0  0  0  0
  -21.1072  -13.1245   22.2623 H   0  0  0  0  0  0
  -24.6454  -15.8431   20.5097 H   0  0  0  0  0  0
  -26.2534  -15.6287   20.0425 H   0  0  0  0  0  0
  -26.7204  -32.5382   23.1036 H   0  0  0  0  0  0
  -25.0078  -33.9665   25.0374 H   0  0  0  0  0  0
  -22.7250  -31.2964   21.3907 H   0  0  0  0  0  0
  -23.3764  -35.9594   23.3264 H   0  0  0  0  0  0
  -24.3591  -36.8936   22.2057 H   0  0  0  0  0  0
  -23.7228  -37.6457   23.6687 H   0  0  0  0  0  0
  -26.1128  -31.5231   20.6043 H   0  0  0  0  0  0
  -26.8504  -30.8130   22.0077 H   0  0  0  0  0  0
  -28.1114  -28.9170   21.2091 H   0  0  0  0  0  0
  -25.9489  -25.8761   19.0277 H   0  0  0  0  0  0
  -23.9745  -27.2889   19.0092 H   0  0  0  0  0  0
  -23.7707  -30.5785   19.3973 H   0  0  0  0  0  0
  -22.7638  -29.2378   19.8515 H   0  0  0  0  0  0
  -25.1297  -36.1889   25.0811 H   0  0  0  0  0  0
  -20.9991  -28.3283   24.1391 H   0  0  0  0  0  0
  -20.5674  -26.2305   23.3623 H   0  0  0  0  0  0
  -21.6649  -26.7431   22.1216 H   0  0  0  0  0  0
  -19.6919  -25.6290   21.1249 H   0  0  0  0  0  0
  -19.6703  -27.3189   20.6744 H   0  0  0  0  0  0
  -17.4209  -26.6680   21.4019 H   0  0  0  0  0  0
  -18.0328  -26.0080   22.9018 H   0  0  0  0  0  0
  -19.7941  -30.7283   24.2256 H   0  0  0  0  0  0
  -17.5017  -31.6267   24.5163 H   0  0  0  0  0  0
  -15.5359  -30.2985   23.7658 H   0  0  0  0  0  0
  -15.8678  -28.0825   22.7064 H   0  0  0  0  0  0
  -24.5915  -30.7065   25.7763 H   0  0  0  0  0  0
  -24.8906  -32.2907   26.4815 H   0  0  0  0  0  0
  -25.8048  -30.8946   27.0220 H   0  0  0  0  0  0
  -26.2923  -29.6726   24.1229 H   0  0  0  0  0  0
  -27.4022  -29.7255   25.4723 H   0  0  0  0  0  0
  -27.8806  -30.4240   23.9438 H   0  0  0  0  0  0
  -27.2679  -33.3618   26.2036 H   0  0  0  0  0  0
  -28.3883  -32.6857   25.0304 H   0  0  0  0  0  0
  -28.0723  -31.8443   26.5399 H   0  0  0  0  0  0
  -28.2563  -38.0118   24.7565 H   0  0  0  0  0  0
  -28.1127  -36.2656   24.6191 H   0  0  0  0  0  0
  -27.2319  -37.1321   25.8856 H   0  0  0  0  0  0
  -20.9396  -29.8745   21.6839 H   0  0  0  0  0  0
  -26.0154  -38.2828   24.1468 H   0  0  0  0  0  0
  -33.1442  -19.2582   20.4596 H   0  0  0  0  0  0
  -32.4324  -16.9984   20.5221 H   0  0  0  0  0  0
  -28.3050  -18.3200   20.6385 H   0  0  0  0  0  0
  -32.8926  -21.5005   20.7143 H   0  0  0  0  0  0
  -31.4213  -22.1489   21.3966 H   0  0  0  0  0  0
  -31.6503  -22.0938   19.6341 H   0  0  0  0  0  0
  -27.8415  -24.9486   18.6927 H   0  0  0  0  0  0
  -29.4777  -24.9571   19.2229 H   0  0  0  0  0  0
  -28.9035  -15.7710   20.7838 H   0  0  0  0  0  0
  -29.5996  -22.4035   19.4122 H   0  0  0  0  0  0
  -27.7127  -20.0560   22.0662 H   0  0  0  0  0  0
  -27.2024  -21.7103   21.8361 H   0  0  0  0  0  0
  1 25  1  0  0  0
  1 30  2  0  0  0
  1 81  1  0  0  0
  2  3  1  0  0  0
  2 25  1  0  0  0
  2 85  1  0  0  0
  2 86  1  0  0  0
  3  4  1  0  0  0
  3 87  1  0  0  0
  3 88  1  0  0  0
  4  5  1  0  0  0
  4 89  1  0  0  0
  4 90  1  0  0  0
  5  6  1  0  0  0
  5 26  1  0  0  0
  5 91  1  0  0  0
  6 25  1  0  0  0
  6 92  1  0  0  0
  6 93  1  0  0  0
  7  8  2  0  0  0
  7 26  1  0  0  0
  7 29  1  0  0  0
  8  9  1  0  0  0
  8 22  1  0  0  0
  9 10  1  0  0  0
  9 27  2  0  0  0
 10 11  2  0  0  0
 10 15  1  0  0  0
 11 12  1  0  0  0
 11 94  1  0  0  0
 12 13  2  0  0  0
 12 95  1  0  0  0
 13 14  1  0  0  0
 13 31  1  0  0  0
 14 15  2  0  0  0
 14 96  1  0  0  0
 15 97  1  0  0  0
 16 17  2  0  0  0
 16 21  1  0  0  0
 16 31  1  0  0  0
 17 18  1  0  0  0
 17 98  1  0  0  0
 18 19  2  0  0  0
 18 99  1  0  0  0
 19 20  1  0  0  0
 19 24  1  0  0  0
 20 21  2  0  0  0
 20100  1  0  0  0
 21 23  1  0  0  0
 22 28  1  0  0  0
 22 32  2  0  0  0
 26 27  1  0  0  0
 28101  1  0  0  0
 28102  1  0  0  0
 29103  1  0  0  0
 29104  1  0  0  0
 33 34  1  0  0  0
 33 66  1  0  0  0
 33 70  2  0  0  0
 34 36  1  0  0  0
 34 59  1  0  0  0
 34105  1  0  0  0
 35 44  2  0  0  0
 35 45  1  0  0  0
 35 68  1  0  0  0
 36 56  1  0  0  0
 36106  1  0  0  0
 37 39  1  0  0  0
 37 47  1  0  0  0
 37 66  1  0  0  0
 37107  1  0  0  0
 38 43  2  0  0  0
 38 46  1  0  0  0
 38 47  1  0  0  0
 39 64  1  0  0  0
 39 67  2  0  0  0
 40 52  1  0  0  0
 40 53  2  0  0  0
 40 58  1  0  0  0
 41108  1  0  0  0
 41109  1  0  0  0
 41110  1  0  0  0
 41 48  1  0  0  0
 42 43  1  0  0  0
 42 66  1  0  0  0
 42111  1  0  0  0
 42112  1  0  0  0
 43 44  1  0  0  0
 44113  1  0  0  0
 45 46  2  0  0  0
 45114  1  0  0  0
 46115  1  0  0  0
 47116  1  0  0  0
 47117  1  0  0  0
 48 56  1  0  0  0
 48 65  1  0  0  0
 48118  1  0  0  0
 49 50  1  0  0  0
 49 53  1  0  0  0
 49 64  1  0  0  0
 49119  1  0  0  0
 50 51  1  0  0  0
 50120  1  0  0  0
 50121  1  0  0  0
 51 52  1  0  0  0
 51122  1  0  0  0
 51123  1  0  0  0
 52124  1  0  0  0
 52125  1  0  0  0
 53 54  1  0  0  0
 54 55  2  0  0  0
 54126  1  0  0  0
 55 57  1  0  0  0
 55127  1  0  0  0
 56 69  2  0  0  0
 57 58  2  0  0  0
 57128  1  0  0  0
 58129  1  0  0  0
 59 60  1  0  0  0
 59 61  1  0  0  0
 59 62  1  0  0  0
 60130  1  0  0  0
 60131  1  0  0  0
 60132  1  0  0  0
 61133  1  0  0  0
 61134  1  0  0  0
 61135  1  0  0  0
 62136  1  0  0  0
 62137  1  0  0  0
 62138  1  0  0  0
 63 65  1  0  0  0
 63139  1  0  0  0
 63140  1  0  0  0
 63141  1  0  0  0
 64142  1  0  0  0
 65143  1  0  0  0
 68 80  1  0  0  0
 71 72  2  0  0  0
 71 75  1  0  0  0
 71144  1  0  0  0
 72 76  1  0  0  0
 72145  1  0  0  0
 73 74  1  0  0  0
 73 76  2  0  0  0
 73146  1  0  0  0
 74 75  2  0  0  0
 74 77  1  0  0  0
 75 79  1  0  0  0
 76 81  1  0  0  0
 77 82  1  0  0  0
 77 83  2  0  0  0
 78 80  1  0  0  0
 78 82  1  0  0  0
 78 84  2  0  0  0
 79147  1  0  0  0
 79148  1  0  0  0
 79149  1  0  0  0
 80150  1  0  0  0
 80151  1  0  0  0
 81152  1  0  0  0
 82153  1  0  0  0
 83154  1  0  0  0
 83155  1  0  0  0
M  CHG  1  83   1
M  ISO  4   1 100  68 101  80 101  81 100
M  END
> <chiral flag>
0

> <version>
0

> <s_m_source_file>
/data/baiqing/PycharmProjects/Reinvent-master-3.2/result/LINK_invent/BTK/process_docking_weight1_custom_product_contain_oxygen_bond_distance_aromatic_linkinvent_7_9_3/rearranged_h_0063.sdf

> <i_m_source_file_index>
22

> <r_mmod_Potential_Energy-OPLS-2005>
-78.3606872558594

> <r_mmod_Stretch_Energy-OPLS-2005>
143.785583496094

> <r_mmod_Bend_Energy-OPLS-2005>
188.126358032227

> <r_mmod_Torsional_Energy-OPLS-2005>
206.255325317383

> <r_mmod_Improper_Torsional_Energy-OPLS-2005>
6.32666158676147

> <r_mmod_Van_der_Waal_Energy-OPLS-2005>
154.851013183594

> <r_mmod_Electrostatic_Energy-OPLS-2005>
-414.079833984375

> <r_mmod_Solvation_Energy-OPLS-2005>
-454.040954589844

> <b_mmod_Minimization_Converged-OPLS-2005>
0

> <r_mmod_RMS_Derivative-OPLS-2005>
0.714653253555298

$$$$
22
                    3D
 Structure written by MMmdl.
167176  0  0  1  0            999 V2000
  -30.5439  -14.8849   20.4718 C   0  0  0  0  0  0
  -30.4363  -12.5518   19.4879 C   0  0  0  0  0  0
  -29.5159  -12.5219   18.2442 C   0  0  0  0  0  0
  -28.0446  -12.3183   18.6569 C   0  0  0  0  0  0
  -27.6277  -13.2394   19.8357 C   0  0  2  0  0  0
  -28.6690  -13.2333   20.9747 C   0  0  0  0  0  0
  -25.2464  -13.8208   20.5683 C   0  0  0  0  0  0
  -24.1782  -13.0437   20.9219 C   0  0  0  0  0  0
  -24.6382  -11.6924   20.8748 C   0  0  0  0  0  0
  -23.9060  -10.4296   21.0382 C   0  0  0  0  0  0
  -24.3613   -9.4213   21.9169 C   0  0  0  0  0  0
  -23.6286   -8.2252   22.0756 C   0  0  0  0  0  0
  -22.4279   -8.0289   21.3539 C   0  0  0  0  0  0
  -21.9910   -9.0242   20.4643 C   0  0  0  0  0  0
  -22.7227  -10.2108   20.3037 C   0  0  0  0  0  0
  -21.6868   -6.0731   22.5289 C   0  0  0  0  0  0
  -21.4021   -6.5640   23.8213 C   0  0  0  0  0  0
  -21.3660   -5.6793   24.9182 C   0  0  0  0  0  0
  -21.6044   -4.3051   24.7231 C   0  0  0  0  0  0
  -21.8818   -3.8144   23.4349 C   0  0  0  0  0  0
  -21.9190   -4.6964   22.3409 C   0  0  0  0  0  0
  -22.7811  -13.5209   21.1868 C   0  0  0  0  0  0
  -22.1665   -4.2139   21.0986 F   0  0  0  0  0  0
  -21.5628   -3.4541   25.7737 F   0  0  0  0  0  0
  -29.9476  -13.6354   20.3806 N   0  0  0  0  0  0
  -26.2875  -12.9419   20.3209 N   0  0  0  0  0  0
  -25.9304  -11.6546   20.5711 N   0  0  0  0  0  0
  -22.0453  -12.8178   22.0412 N   0  0  0  0  0  0
  -25.4174  -15.1925   20.4103 N   0  0  0  0  0  0
  -31.7532  -14.9667   20.2312 O   0  0  0  0  0  0
  -21.6654   -6.8866   21.4245 O   0  0  0  0  0  0
  -22.3472  -14.5504   20.6702 O   0  0  0  0  0  0
  -24.6407  -31.8470   23.1892 C   0  0  0  0  0  0
  -25.9198  -32.4708   23.8291 C   0  0  1  0  0  0
  -27.2077  -27.1777   20.1517 C   0  0  0  0  0  0
  -25.6022  -33.8533   24.2269 N   0  0  0  0  0  0
  -23.4379  -30.4676   21.5335 C   0  0  2  0  0  0
  -24.8831  -28.8974   20.1097 C   0  0  0  0  0  0
  -22.7539  -29.4552   22.4863 C   0  0  0  0  0  0
  -18.0305  -28.1383   22.8447 C   0  0  0  0  0  0
  -24.1503  -36.7208   23.2632 C   0  0  0  0  0  0
  -25.9873  -30.7428   21.3699 C   0  0  0  0  0  0
  -26.0598  -29.3536   20.7183 C   0  0  0  0  0  0
  -27.2278  -28.5088   20.7207 C   0  0  0  0  0  0
  -26.0074  -26.8066   19.5153 C   0  0  0  0  0  0
  -24.8669  -27.6360   19.4919 C   0  0  0  0  0  0
  -23.6570  -29.7943   20.1527 C   0  0  0  0  0  0
  -25.4148  -36.3036   24.0324 C   0  0  1  0  0  0
  -20.5924  -28.3657   23.1251 C   0  0  2  0  0  0
  -20.6788  -26.9373   22.5410 C   0  0  0  0  0  0
  -19.5771  -26.6351   21.5225 C   0  0  0  0  0  0
  -18.1935  -26.7922   22.1613 C   0  0  0  0  0  0
  -19.1566  -28.8831   23.2853 C   0  0  0  0  0  0
  -18.9509  -30.1442   23.8837 C   0  0  0  0  0  0
  -17.6501  -30.6563   24.0522 C   0  0  0  0  0  0
  -25.9106  -34.9426   23.5106 C   0  0  0  0  0  0
  -16.5381  -29.9055   23.6344 C   0  0  0  0  0  0
  -16.7296  -28.6512   23.0314 C   0  0  0  0  0  0
  -26.4528  -31.6494   25.0671 C   0  0  0  0  0  0
  -25.3693  -31.3672   26.1350 C   0  0  0  0  0  0
  -27.0318  -30.2881   24.6144 C   0  0  0  0  0  0
  -27.6097  -32.4108   25.7513 C   0  0  0  0  0  0
  -27.5582  -37.1766   24.8496 C   0  0  0  0  0  0
  -21.4236  -29.3001   22.3631 N   0  0  0  0  0  0
  -26.4313  -37.3755   23.9421 N   0  0  0  0  0  0
  -24.7087  -31.0360   22.0886 N   0  0  0  0  0  0
  -23.4221  -28.8107   23.3001 O   0  0  0  0  0  0
  -28.2657  -26.2163   20.1515 O   0  0  0  0  0  0
  -26.5622  -34.8889   22.4645 O   0  0  0  0  0  0
  -23.5523  -32.1335   23.7131 O   0  0  0  0  0  0
  -28.1665  -17.4539   23.0759 C   0  0  0  0  0  0
  -29.5156  -17.1751   23.3834 C   0  0  0  0  0  0
  -27.8614  -18.0778   21.8424 C   0  0  0  0  0  0
  -30.4802  -17.2744   22.3571 C   0  0  0  0  0  0
  -28.9415  -18.5370   21.0350 C   0  0  0  0  0  0
  -29.9897  -17.4673   21.0429 C   0  0  0  0  0  0
  -29.9591  -20.9795   20.3067 C   0  0  0  0  0  0
  -32.6073  -19.6338   21.9701 C   0  0  0  0  0  0
  -31.2931  -20.7487   20.2695 C   0  0  0  0  0  0
  -32.0489  -19.6192   20.7464 C   0  0  0  0  0  0
  -29.6198  -22.5311   19.9674 C   0  0  0  0  0  0
  -27.6061  -22.2478   21.2218 C   0  0  0  0  0  0
  -27.6163  -20.7121   20.8573 C   0  0  0  0  0  0
  -28.2048  -23.2502   20.1912 C   0  0  2  0  0  0
  -27.3758  -23.1899   18.8873 C   0  0  0  0  0  0
  -28.0671  -24.8249   20.7762 C   0  0  0  0  0  0
  -28.9424  -20.0220   20.7134 N   0  0  0  0  0  0
  -29.7316  -16.0434   20.5615 N   0  0  0  0  0  0
  -31.4715  -12.7106   19.1874 H   0  0  0  0  0  0
  -30.4238  -11.5907   20.0058 H   0  0  0  0  0  0
  -29.8258  -11.7320   17.5578 H   0  0  0  0  0  0
  -29.6172  -13.4601   17.6974 H   0  0  0  0  0  0
  -27.9259  -11.2731   18.9480 H   0  0  0  0  0  0
  -27.3831  -12.4713   17.8038 H   0  0  0  0  0  0
  -27.5977  -14.2460   19.4191 H   0  0  0  0  0  0
  -28.7413  -12.2451   21.4300 H   0  0  0  0  0  0
  -28.3735  -13.9197   21.7699 H   0  0  0  0  0  0
  -25.2746   -9.5693   22.4742 H   0  0  0  0  0  0
  -24.0003   -7.4637   22.7482 H   0  0  0  0  0  0
  -21.0849   -8.8732   19.8934 H   0  0  0  0  0  0
  -22.3684  -10.9640   19.6142 H   0  0  0  0  0  0
  -21.2024   -7.6149   23.9707 H   0  0  0  0  0  0
  -21.1491   -6.0528   25.9065 H   0  0  0  0  0  0
  -22.0594   -2.7613   23.2848 H   0  0  0  0  0  0
  -22.4089  -11.9839   22.4807 H   0  0  0  0  0  0
  -21.1047  -13.1173   22.2606 H   0  0  0  0  0  0
  -24.6422  -15.8398   20.5078 H   0  0  0  0  0  0
  -26.2481  -15.6260   20.0338 H   0  0  0  0  0  0
  -26.7240  -32.5315   23.1014 H   0  0  0  0  0  0
  -25.0291  -33.9690   25.0485 H   0  0  0  0  0  0
  -22.7398  -31.2930   21.3826 H   0  0  0  0  0  0
  -23.3808  -35.9505   23.3305 H   0  0  0  0  0  0
  -24.3610  -36.8803   22.2045 H   0  0  0  0  0  0
  -23.7203  -37.6402   23.6616 H   0  0  0  0  0  0
  -26.1212  -31.4909   20.5851 H   0  0  0  0  0  0
  -26.8688  -30.8070   21.9933 H   0  0  0  0  0  0
  -28.1280  -28.8561   21.2034 H   0  0  0  0  0  0
  -25.9445  -25.8337   19.0477 H   0  0  0  0  0  0
  -23.9676  -27.2826   19.0106 H   0  0  0  0  0  0
  -23.7876  -30.5667   19.3977 H   0  0  0  0  0  0
  -22.7704  -29.2361   19.8454 H   0  0  0  0  0  0
  -25.1323  -36.1881   25.0808 H   0  0  0  0  0  0
  -21.0056  -28.3248   24.1359 H   0  0  0  0  0  0
  -20.5708  -26.2266   23.3624 H   0  0  0  0  0  0
  -21.6649  -26.7377   22.1196 H   0  0  0  0  0  0
  -19.6936  -25.6283   21.1219 H   0  0  0  0  0  0
  -19.6720  -27.3195   20.6805 H   0  0  0  0  0  0
  -17.4230  -26.6675   21.4000 H   0  0  0  0  0  0
  -18.0267  -26.0105   22.9049 H   0  0  0  0  0  0
  -19.7989  -30.7293   24.2153 H   0  0  0  0  0  0
  -17.5047  -31.6247   24.5162 H   0  0  0  0  0  0
  -15.5375  -30.2911   23.7719 H   0  0  0  0  0  0
  -15.8696  -28.0821   22.6964 H   0  0  0  0  0  0
  -24.5951  -30.6908   25.7690 H   0  0  0  0  0  0
  -24.8762  -32.2831   26.4585 H   0  0  0  0  0  0
  -25.7993  -30.8996   27.0205 H   0  0  0  0  0  0
  -26.2916  -29.6723   24.1023 H   0  0  0  0  0  0
  -27.3845  -29.7049   25.4643 H   0  0  0  0  0  0
  -27.8851  -30.4149   23.9482 H   0  0  0  0  0  0
  -27.2805  -33.3459   26.2052 H   0  0  0  0  0  0
  -28.4031  -32.6537   25.0426 H   0  0  0  0  0  0
  -28.0609  -31.8167   26.5476 H   0  0  0  0  0  0
  -28.2600  -38.0054   24.7570 H   0  0  0  0  0  0
  -28.1063  -36.2592   24.6290 H   0  0  0  0  0  0
  -27.2292  -37.1385   25.8896 H   0  0  0  0  0  0
  -20.9420  -29.8768   21.6882 H   0  0  0  0  0  0
  -26.0184  -38.2819   24.1415 H   0  0  0  0  0  0
  -27.3874  -17.2753   23.8036 H   0  0  0  0  0  0
  -29.7879  -16.8038   24.3628 H   0  0  0  0  0  0
  -26.8401  -18.4063   21.7351 H   0  0  0  0  0  0
  -31.4416  -16.8142   22.5378 H   0  0  0  0  0  0
  -33.1940  -18.8047   22.3381 H   0  0  0  0  0  0
  -32.4905  -20.4837   22.6316 H   0  0  0  0  0  0
  -31.9166  -21.5647   19.9281 H   0  0  0  0  0  0
  -32.1815  -18.7578   20.1014 H   0  0  0  0  0  0
  -29.9442  -22.7309   18.9406 H   0  0  0  0  0  0
  -30.3172  -23.1035   20.5862 H   0  0  0  0  0  0
  -28.1251  -22.3728   22.1737 H   0  0  0  0  0  0
  -26.5730  -22.5327   21.4259 H   0  0  0  0  0  0
  -27.0214  -20.5305   19.9592 H   0  0  0  0  0  0
  -27.0390  -20.3245   21.6883 H   0  0  0  0  0  0
  -27.4182  -22.2111   18.4066 H   0  0  0  0  0  0
  -27.7318  -23.9199   18.1621 H   0  0  0  0  0  0
  -26.3270  -23.4136   19.0760 H   0  0  0  0  0  0
  -28.6880  -24.8511   21.6708 H   0  0  0  0  0  0
  -27.0567  -24.8697   21.1821 H   0  0  0  0  0  0
  -28.7523  -15.8343   20.4587 H   0  0  0  0  0  0
  1 25  1  0  0  0
  1 30  2  0  0  0
  1 88  1  0  0  0
  2  3  1  0  0  0
  2 25  1  0  0  0
  2 89  1  0  0  0
  2 90  1  0  0  0
  3  4  1  0  0  0
  3 91  1  0  0  0
  3 92  1  0  0  0
  4  5  1  0  0  0
  4 93  1  0  0  0
  4 94  1  0  0  0
  5  6  1  0  0  0
  5 26  1  0  0  0
  5 95  1  0  0  0
  6 25  1  0  0  0
  6 96  1  0  0  0
  6 97  1  0  0  0
  7  8  2  0  0  0
  7 26  1  0  0  0
  7 29  1  0  0  0
  8  9  1  0  0  0
  8 22  1  0  0  0
  9 10  1  0  0  0
  9 27  2  0  0  0
 10 11  2  0  0  0
 10 15  1  0  0  0
 11 12  1  0  0  0
 11 98  1  0  0  0
 12 13  2  0  0  0
 12 99  1  0  0  0
 13 14  1  0  0  0
 13 31  1  0  0  0
 14 15  2  0  0  0
 14100  1  0  0  0
 15101  1  0  0  0
 16 17  2  0  0  0
 16 21  1  0  0  0
 16 31  1  0  0  0
 17 18  1  0  0  0
 17102  1  0  0  0
 18 19  2  0  0  0
 18103  1  0  0  0
 19 20  1  0  0  0
 19 24  1  0  0  0
 20 21  2  0  0  0
 20104  1  0  0  0
 21 23  1  0  0  0
 22 28  1  0  0  0
 22 32  2  0  0  0
 26 27  1  0  0  0
 28105  1  0  0  0
 28106  1  0  0  0
 29107  1  0  0  0
 29108  1  0  0  0
 33 34  1  0  0  0
 33 66  1  0  0  0
 33 70  2  0  0  0
 34 36  1  0  0  0
 34 59  1  0  0  0
 34109  1  0  0  0
 35 44  2  0  0  0
 35 45  1  0  0  0
 35 68  1  0  0  0
 36 56  1  0  0  0
 36110  1  0  0  0
 37 39  1  0  0  0
 37 47  1  0  0  0
 37 66  1  0  0  0
 37111  1  0  0  0
 38 43  2  0  0  0
 38 46  1  0  0  0
 38 47  1  0  0  0
 39 64  1  0  0  0
 39 67  2  0  0  0
 40 52  1  0  0  0
 40 53  2  0  0  0
 40 58  1  0  0  0
 41112  1  0  0  0
 41113  1  0  0  0
 41114  1  0  0  0
 41 48  1  0  0  0
 42 43  1  0  0  0
 42 66  1  0  0  0
 42115  1  0  0  0
 42116  1  0  0  0
 43 44  1  0  0  0
 44117  1  0  0  0
 45 46  2  0  0  0
 45118  1  0  0  0
 46119  1  0  0  0
 47120  1  0  0  0
 47121  1  0  0  0
 48 56  1  0  0  0
 48 65  1  0  0  0
 48122  1  0  0  0
 49 50  1  0  0  0
 49 53  1  0  0  0
 49 64  1  0  0  0
 49123  1  0  0  0
 50 51  1  0  0  0
 50124  1  0  0  0
 50125  1  0  0  0
 51 52  1  0  0  0
 51126  1  0  0  0
 51127  1  0  0  0
 52128  1  0  0  0
 52129  1  0  0  0
 53 54  1  0  0  0
 54 55  2  0  0  0
 54130  1  0  0  0
 55 57  1  0  0  0
 55131  1  0  0  0
 56 69  2  0  0  0
 57 58  2  0  0  0
 57132  1  0  0  0
 58133  1  0  0  0
 59 60  1  0  0  0
 59 61  1  0  0  0
 59 62  1  0  0  0
 60134  1  0  0  0
 60135  1  0  0  0
 60136  1  0  0  0
 61137  1  0  0  0
 61138  1  0  0  0
 61139  1  0  0  0
 62140  1  0  0  0
 62141  1  0  0  0
 62142  1  0  0  0
 63 65  1  0  0  0
 63143  1  0  0  0
 63144  1  0  0  0
 63145  1  0  0  0
 64146  1  0  0  0
 65147  1  0  0  0
 68 86  1  0  0  0
 71 72  2  0  0  0
 71 73  1  0  0  0
 71148  1  0  0  0
 72 74  1  0  0  0
 72149  1  0  0  0
 73 75  2  0  0  0
 73150  1  0  0  0
 74 76  2  0  0  0
 74151  1  0  0  0
 75 76  1  0  0  0
 75 87  1  0  0  0
 76 88  1  0  0  0
 77 79  2  0  0  0
 77 81  1  0  0  0
 77 87  1  0  0  0
 78 80  2  0  0  0
 78152  1  0  0  0
 78153  1  0  0  0
 79 80  1  0  0  0
 79154  1  0  0  0
 80155  1  0  0  0
 81 84  1  0  0  0
 81156  1  0  0  0
 81157  1  0  0  0
 82 83  1  0  0  0
 82 84  1  0  0  0
 82158  1  0  0  0
 82159  1  0  0  0
 83 87  1  0  0  0
 83160  1  0  0  0
 83161  1  0  0  0
 84 85  1  0  0  0
 84 86  1  0  0  0
 85162  1  0  0  0
 85163  1  0  0  0
 85164  1  0  0  0
 86165  1  0  0  0
 86166  1  0  0  0
 88167  1  0  0  0
M  ISO  4   1 100  68 101  86 101  88 100
M  END
> <chiral flag>
0

> <version>
0

> <s_m_source_file>
/data/baiqing/PycharmProjects/Reinvent-master-3.2/result/LINK_invent/BTK/process_docking_weight1_custom_product_contain_oxygen_bond_distance_aromatic_linkinvent_7_9_3/rearranged_h_0063.sdf

> <i_m_source_file_index>
23

> <r_mmod_Potential_Energy-OPLS-2005>
846.457824707031

> <r_mmod_Stretch_Energy-OPLS-2005>
235.638076782227

> <r_mmod_Bend_Energy-OPLS-2005>
350.227966308594

> <r_mmod_Torsional_Energy-OPLS-2005>
522.970092773438

> <r_mmod_Improper_Torsional_Energy-OPLS-2005>
36.5177612304688

> <r_mmod_Van_der_Waal_Energy-OPLS-2005>
165.1533203125

> <r_mmod_Electrostatic_Energy-OPLS-2005>
-413.432342529297

> <r_mmod_Solvation_Energy-OPLS-2005>
-204.587524414062

> <b_mmod_Minimization_Converged-OPLS-2005>
0

> <r_mmod_RMS_Derivative-OPLS-2005>
5.06233310699463

$$$$
23
                    3D
 Structure written by MMmdl.
153161  0  0  1  0            999 V2000
  -30.6402  -14.6597   20.4484 C   0  0  0  0  0  0
  -30.4235  -12.3937   19.4745 C   0  0  0  0  0  0
  -29.5078  -12.4967   18.2352 C   0  0  0  0  0  0
  -28.0307  -12.3397   18.6435 C   0  0  0  0  0  0
  -27.6469  -13.2278   19.8578 C   0  0  2  0  0  0
  -28.6885  -13.1297   20.9952 C   0  0  0  0  0  0
  -25.2527  -13.8197   20.5695 C   0  0  0  0  0  0
  -24.1809  -13.0445   20.9198 C   0  0  0  0  0  0
  -24.6393  -11.6921   20.8744 C   0  0  0  0  0  0
  -23.9069  -10.4297   21.0406 C   0  0  0  0  0  0
  -24.3620   -9.4211   21.9183 C   0  0  0  0  0  0
  -23.6294   -8.2246   22.0753 C   0  0  0  0  0  0
  -22.4276   -8.0284   21.3545 C   0  0  0  0  0  0
  -21.9912   -9.0258   20.4647 C   0  0  0  0  0  0
  -22.7241  -10.2137   20.3056 C   0  0  0  0  0  0
  -21.6854   -6.0736   22.5280 C   0  0  0  0  0  0
  -21.4015   -6.5640   23.8212 C   0  0  0  0  0  0
  -21.3659   -5.6793   24.9175 C   0  0  0  0  0  0
  -21.6044   -4.3055   24.7225 C   0  0  0  0  0  0
  -21.8819   -3.8147   23.4347 C   0  0  0  0  0  0
  -21.9193   -4.6964   22.3403 C   0  0  0  0  0  0
  -22.7831  -13.5229   21.1860 C   0  0  0  0  0  0
  -22.1662   -4.2149   21.0981 F   0  0  0  0  0  0
  -21.5628   -3.4539   25.7738 F   0  0  0  0  0  0
  -30.0029  -13.4461   20.4243 N   0  0  0  0  0  0
  -26.2957  -12.9400   20.3303 N   0  0  0  0  0  0
  -25.9324  -11.6544   20.5758 N   0  0  0  0  0  0
  -22.0478  -12.8217   22.0418 N   0  0  0  0  0  0
  -25.4229  -15.1921   20.4121 N   0  0  0  0  0  0
  -31.8263  -14.7503   20.1193 O   0  0  0  0  0  0
  -21.6641   -6.8881   21.4242 O   0  0  0  0  0  0
  -22.3514  -14.5534   20.6709 O   0  0  0  0  0  0
  -24.6260  -31.8586   23.2012 C   0  0  0  0  0  0
  -25.9106  -32.4772   23.8343 C   0  0  1  0  0  0
  -27.2262  -27.3155   20.1113 C   0  0  0  0  0  0
  -25.5920  -33.8573   24.2271 N   0  0  0  0  0  0
  -23.4199  -30.4815   21.5434 C   0  0  2  0  0  0
  -24.8663  -28.9354   20.1066 C   0  0  0  0  0  0
  -22.7473  -29.4615   22.4928 C   0  0  0  0  0  0
  -18.0286  -28.1384   22.8487 C   0  0  0  0  0  0
  -24.1489  -36.7292   23.2640 C   0  0  0  0  0  0
  -25.9604  -30.7880   21.3720 C   0  0  0  0  0  0
  -26.0339  -29.4156   20.7121 C   0  0  0  0  0  0
  -27.2138  -28.6150   20.7073 C   0  0  0  0  0  0
  -26.0317  -26.8821   19.4914 C   0  0  0  0  0  0
  -24.8671  -27.6747   19.4884 C   0  0  0  0  0  0
  -23.6340  -29.8156   20.1582 C   0  0  0  0  0  0
  -25.4115  -36.3081   24.0328 C   0  0  1  0  0  0
  -20.5885  -28.3687   23.1283 C   0  0  2  0  0  0
  -20.6773  -26.9409   22.5411 C   0  0  0  0  0  0
  -19.5750  -26.6383   21.5212 C   0  0  0  0  0  0
  -18.1930  -26.7927   22.1624 C   0  0  0  0  0  0
  -19.1538  -28.8852   23.2881 C   0  0  0  0  0  0
  -18.9461  -30.1454   23.8898 C   0  0  0  0  0  0
  -17.6461  -30.6586   24.0563 C   0  0  0  0  0  0
  -25.9051  -34.9449   23.5102 C   0  0  0  0  0  0
  -16.5352  -29.9085   23.6330 C   0  0  0  0  0  0
  -16.7273  -28.6502   23.0352 C   0  0  0  0  0  0
  -26.4493  -31.6586   25.0717 C   0  0  0  0  0  0
  -25.3728  -31.3722   26.1445 C   0  0  0  0  0  0
  -27.0339  -30.3012   24.6172 C   0  0  0  0  0  0
  -27.6050  -32.4324   25.7489 C   0  0  0  0  0  0
  -27.5579  -37.1802   24.8466 C   0  0  0  0  0  0
  -21.4186  -29.3039   22.3675 N   0  0  0  0  0  0
  -26.4293  -37.3775   23.9406 N   0  0  0  0  0  0
  -24.6876  -31.0595   22.0960 N   0  0  0  0  0  0
  -23.4197  -28.8158   23.3011 O   0  0  0  0  0  0
  -28.3432  -26.4698   20.2071 O   0  0  0  0  0  0
  -26.5623  -34.8918   22.4670 O   0  0  0  0  0  0
  -23.5424  -32.1386   23.7340 O   0  0  0  0  0  0
  -29.5479  -18.3633   20.2239 C   0  0  0  0  0  0
  -30.3033  -16.8756   18.4588 C   0  0  0  0  0  0
  -29.8639  -19.2442   17.9688 C   0  0  0  0  0  0
  -29.9302  -17.0247   19.8064 C   0  0  0  0  0  0
  -29.5264  -19.5234   19.3397 C   0  0  0  0  0  0
  -30.2698  -17.9499   17.5681 C   0  0  0  0  0  0
  -28.3902  -25.1984   19.5976 C   0  0  0  0  0  0
  -28.8716  -24.0188   20.1226 C   0  0  0  0  0  0
  -29.8085  -20.2560   16.8334 C   0  0  0  0  0  0
  -29.8835  -15.7996   20.6283 N   0  0  0  0  0  0
  -29.1817  -20.8523   19.8338 N   0  0  0  0  0  0
  -27.8064  -22.4311   18.2343 O   0  0  0  0  0  0
  -30.3410  -22.6828   18.3730 O   0  0  0  0  0  0
  -30.6269  -17.7081   16.2823 F   0  0  0  0  0  0
  -29.0407  -22.4934   19.0361 S   0  0  0  0  0  0
  -31.4696  -12.4907   19.1785 H   0  0  0  0  0  0
  -30.3366  -11.4096   19.9379 H   0  0  0  0  0  0
  -29.7757  -11.7337   17.5032 H   0  0  0  0  0  0
  -29.6546  -13.4590   17.7424 H   0  0  0  0  0  0
  -27.8700  -11.2895   18.8896 H   0  0  0  0  0  0
  -27.3786  -12.5555   17.7964 H   0  0  0  0  0  0
  -27.6532  -14.2556   19.4945 H   0  0  0  0  0  0
  -28.6966  -12.1285   21.4284 H   0  0  0  0  0  0
  -28.4387  -13.8122   21.8089 H   0  0  0  0  0  0
  -25.2765   -9.5686   22.4758 H   0  0  0  0  0  0
  -24.0003   -7.4637   22.7472 H   0  0  0  0  0  0
  -21.0843   -8.8776   19.8953 H   0  0  0  0  0  0
  -22.3699  -10.9675   19.6165 H   0  0  0  0  0  0
  -21.2009   -7.6149   23.9716 H   0  0  0  0  0  0
  -21.1482   -6.0524   25.9078 H   0  0  0  0  0  0
  -22.0598   -2.7609   23.2847 H   0  0  0  0  0  0
  -22.4096  -11.9879   22.4805 H   0  0  0  0  0  0
  -21.1095  -13.1240   22.2625 H   0  0  0  0  0  0
  -24.6555  -15.8460   20.5225 H   0  0  0  0  0  0
  -26.2719  -15.6324   20.0810 H   0  0  0  0  0  0
  -26.7171  -32.5437   23.1087 H   0  0  0  0  0  0
  -25.0064  -33.9717   25.0413 H   0  0  0  0  0  0
  -22.7138  -31.3021   21.4003 H   0  0  0  0  0  0
  -23.3751  -35.9625   23.3305 H   0  0  0  0  0  0
  -24.3578  -36.8910   22.2053 H   0  0  0  0  0  0
  -23.7244  -37.6495   23.6661 H   0  0  0  0  0  0
  -26.0926  -31.5524   20.6051 H   0  0  0  0  0  0
  -26.8405  -30.8357   22.0018 H   0  0  0  0  0  0
  -28.1085  -28.9744   21.1959 H   0  0  0  0  0  0
  -25.9664  -25.9069   19.0324 H   0  0  0  0  0  0
  -23.9686  -27.2977   19.0194 H   0  0  0  0  0  0
  -23.7519  -30.5922   19.4015 H   0  0  0  0  0  0
  -22.7538  -29.2447   19.8568 H   0  0  0  0  0  0
  -25.1296  -36.1933   25.0821 H   0  0  0  0  0  0
  -20.9980  -28.3262   24.1403 H   0  0  0  0  0  0
  -20.5672  -26.2296   23.3610 H   0  0  0  0  0  0
  -21.6642  -26.7437   22.1206 H   0  0  0  0  0  0
  -19.6911  -25.6294   21.1241 H   0  0  0  0  0  0
  -19.6689  -27.3193   20.6742 H   0  0  0  0  0  0
  -17.4199  -26.6674   21.4028 H   0  0  0  0  0  0
  -18.0333  -26.0069   22.9021 H   0  0  0  0  0  0
  -19.7937  -30.7270   24.2268 H   0  0  0  0  0  0
  -17.5016  -31.6267   24.5164 H   0  0  0  0  0  0
  -15.5353  -30.2988   23.7653 H   0  0  0  0  0  0
  -15.8673  -28.0821   22.7067 H   0  0  0  0  0  0
  -24.5906  -30.7068   25.7774 H   0  0  0  0  0  0
  -24.8916  -32.2887   26.4869 H   0  0  0  0  0  0
  -25.8055  -30.8902   27.0220 H   0  0  0  0  0  0
  -26.2912  -29.6760   24.1201 H   0  0  0  0  0  0
  -27.4043  -29.7270   25.4675 H   0  0  0  0  0  0
  -27.8778  -30.4300   23.9391 H   0  0  0  0  0  0
  -27.2658  -33.3624   26.2065 H   0  0  0  0  0  0
  -28.3861  -32.6887   25.0319 H   0  0  0  0  0  0
  -28.0718  -31.8452   26.5407 H   0  0  0  0  0  0
  -28.2600  -38.0095   24.7507 H   0  0  0  0  0  0
  -28.1072  -36.2626   24.6301 H   0  0  0  0  0  0
  -27.2295  -37.1461   25.8869 H   0  0  0  0  0  0
  -20.9362  -29.8761   21.6887 H   0  0  0  0  0  0
  -26.0175  -38.2851   24.1403 H   0  0  0  0  0  0
  -29.2636  -18.5036   21.2571 H   0  0  0  0  0  0
  -30.5933  -15.9155   18.0583 H   0  0  0  0  0  0
  -28.0486  -25.2400   18.5725 H   0  0  0  0  0  0
  -29.2188  -23.9067   21.1376 H   0  0  0  0  0  0
  -28.9013  -20.8455   16.8544 H   0  0  0  0  0  0
  -29.7819  -19.7763   15.8559 H   0  0  0  0  0  0
  -30.6935  -20.8883   16.8302 H   0  0  0  0  0  0
  -29.0325  -15.6673   21.1548 H   0  0  0  0  0  0
  -28.9697  -20.8974   20.8218 H   0  0  0  0  0  0
  1 25  1  0  0  0
  1 30  2  0  0  0
  1 80  1  0  0  0
  2  3  1  0  0  0
  2 25  1  0  0  0
  2 86  1  0  0  0
  2 87  1  0  0  0
  3  4  1  0  0  0
  3 88  1  0  0  0
  3 89  1  0  0  0
  4  5  1  0  0  0
  4 90  1  0  0  0
  4 91  1  0  0  0
  5  6  1  0  0  0
  5 26  1  0  0  0
  5 92  1  0  0  0
  6 25  1  0  0  0
  6 93  1  0  0  0
  6 94  1  0  0  0
  7  8  2  0  0  0
  7 26  1  0  0  0
  7 29  1  0  0  0
  8  9  1  0  0  0
  8 22  1  0  0  0
  9 10  1  0  0  0
  9 27  2  0  0  0
 10 11  2  0  0  0
 10 15  1  0  0  0
 11 12  1  0  0  0
 11 95  1  0  0  0
 12 13  2  0  0  0
 12 96  1  0  0  0
 13 14  1  0  0  0
 13 31  1  0  0  0
 14 15  2  0  0  0
 14 97  1  0  0  0
 15 98  1  0  0  0
 16 17  2  0  0  0
 16 21  1  0  0  0
 16 31  1  0  0  0
 17 18  1  0  0  0
 17 99  1  0  0  0
 18 19  2  0  0  0
 18100  1  0  0  0
 19 20  1  0  0  0
 19 24  1  0  0  0
 20 21  2  0  0  0
 20101  1  0  0  0
 21 23  1  0  0  0
 22 28  1  0  0  0
 22 32  2  0  0  0
 26 27  1  0  0  0
 28102  1  0  0  0
 28103  1  0  0  0
 29104  1  0  0  0
 29105  1  0  0  0
 33 34  1  0  0  0
 33 66  1  0  0  0
 33 70  2  0  0  0
 34 36  1  0  0  0
 34 59  1  0  0  0
 34106  1  0  0  0
 35 44  2  0  0  0
 35 45  1  0  0  0
 35 68  1  0  0  0
 36 56  1  0  0  0
 36107  1  0  0  0
 37 39  1  0  0  0
 37 47  1  0  0  0
 37 66  1  0  0  0
 37108  1  0  0  0
 38 43  2  0  0  0
 38 46  1  0  0  0
 38 47  1  0  0  0
 39 64  1  0  0  0
 39 67  2  0  0  0
 40 52  1  0  0  0
 40 53  2  0  0  0
 40 58  1  0  0  0
 41109  1  0  0  0
 41110  1  0  0  0
 41111  1  0  0  0
 41 48  1  0  0  0
 42 43  1  0  0  0
 42 66  1  0  0  0
 42112  1  0  0  0
 42113  1  0  0  0
 43 44  1  0  0  0
 44114  1  0  0  0
 45 46  2  0  0  0
 45115  1  0  0  0
 46116  1  0  0  0
 47117  1  0  0  0
 47118  1  0  0  0
 48 56  1  0  0  0
 48 65  1  0  0  0
 48119  1  0  0  0
 49 50  1  0  0  0
 49 53  1  0  0  0
 49 64  1  0  0  0
 49120  1  0  0  0
 50 51  1  0  0  0
 50121  1  0  0  0
 50122  1  0  0  0
 51 52  1  0  0  0
 51123  1  0  0  0
 51124  1  0  0  0
 52125  1  0  0  0
 52126  1  0  0  0
 53 54  1  0  0  0
 54 55  2  0  0  0
 54127  1  0  0  0
 55 57  1  0  0  0
 55128  1  0  0  0
 56 69  2  0  0  0
 57 58  2  0  0  0
 57129  1  0  0  0
 58130  1  0  0  0
 59 60  1  0  0  0
 59 61  1  0  0  0
 59 62  1  0  0  0
 60131  1  0  0  0
 60132  1  0  0  0
 60133  1  0  0  0
 61134  1  0  0  0
 61135  1  0  0  0
 61136  1  0  0  0
 62137  1  0  0  0
 62138  1  0  0  0
 62139  1  0  0  0
 63 65  1  0  0  0
 63140  1  0  0  0
 63141  1  0  0  0
 63142  1  0  0  0
 64143  1  0  0  0
 65144  1  0  0  0
 68 77  1  0  0  0
 71 74  2  0  0  0
 71 75  1  0  0  0
 71145  1  0  0  0
 72 74  1  0  0  0
 72 76  2  0  0  0
 72146  1  0  0  0
 73 75  2  0  0  0
 73 76  1  0  0  0
 73 79  1  0  0  0
 74 80  1  0  0  0
 75 81  1  0  0  0
 76 84  1  0  0  0
 77 78  2  0  0  0
 77147  1  0  0  0
 78 85  1  0  0  0
 78148  1  0  0  0
 79149  1  0  0  0
 79150  1  0  0  0
 79151  1  0  0  0
 80152  1  0  0  0
 81153  1  0  0  0
 81 85  1  0  0  0
 82 85  2  0  0  0
 83 85  2  0  0  0
M  ISO  4   1 100  68 101  77 101  80 100
M  END
> <chiral flag>
0

> <version>
0

> <s_m_source_file>
/data/baiqing/PycharmProjects/Reinvent-master-3.2/result/LINK_invent/BTK/process_docking_weight1_custom_product_contain_oxygen_bond_distance_aromatic_linkinvent_7_9_3/rearranged_h_0063.sdf

> <i_m_source_file_index>
24

> <r_mmod_Potential_Energy-OPLS-2005>
44.1509170532227

> <r_mmod_Stretch_Energy-OPLS-2005>
97.4864654541016

> <r_mmod_Bend_Energy-OPLS-2005>
164.897155761719

> <r_mmod_Torsional_Energy-OPLS-2005>
234.288131713867

> <r_mmod_Improper_Torsional_Energy-OPLS-2005>
7.36856651306152

> <r_mmod_Van_der_Waal_Energy-OPLS-2005>
154.657409667969

> <r_mmod_Electrostatic_Energy-OPLS-2005>
-427.381927490234

> <r_mmod_Solvation_Energy-OPLS-2005>
-243.532775878906

> <b_mmod_Minimization_Converged-OPLS-2005>
0

> <r_mmod_RMS_Derivative-OPLS-2005>
0.111768424510956

$$$$
24
                    3D
 Structure written by MMmdl.
161170  0  0  1  0            999 V2000
  -30.6601  -14.7244   20.4500 C   0  0  0  0  0  0
  -30.4283  -12.4447   19.4504 C   0  0  0  0  0  0
  -29.5014  -12.4919   18.2182 C   0  0  0  0  0  0
  -28.0251  -12.3238   18.6339 C   0  0  0  0  0  0
  -27.6367  -13.2346   19.8312 C   0  0  2  0  0  0
  -28.6933  -13.1876   20.9568 C   0  0  0  0  0  0
  -25.2468  -13.8237   20.5642 C   0  0  0  0  0  0
  -24.1735  -13.0459   20.9216 C   0  0  0  0  0  0
  -24.6358  -11.6973   20.8746 C   0  0  0  0  0  0
  -23.9027  -10.4324   21.0355 C   0  0  0  0  0  0
  -24.3582   -9.4253   21.9125 C   0  0  0  0  0  0
  -23.6286   -8.2267   22.0704 C   0  0  0  0  0  0
  -22.4267   -8.0270   21.3508 C   0  0  0  0  0  0
  -21.9870   -9.0242   20.4622 C   0  0  0  0  0  0
  -22.7183  -10.2144   20.3032 C   0  0  0  0  0  0
  -21.6868   -6.0689   22.5248 C   0  0  0  0  0  0
  -21.4039   -6.5592   23.8185 C   0  0  0  0  0  0
  -21.3677   -5.6754   24.9148 C   0  0  0  0  0  0
  -21.6028   -4.3016   24.7191 C   0  0  0  0  0  0
  -21.8833   -3.8104   23.4328 C   0  0  0  0  0  0
  -21.9211   -4.6910   22.3384 C   0  0  0  0  0  0
  -22.7767  -13.5240   21.1851 C   0  0  0  0  0  0
  -22.1663   -4.2114   21.0938 F   0  0  0  0  0  0
  -21.5643   -3.4500   25.7691 F   0  0  0  0  0  0
  -29.9919  -13.5247   20.3599 N   0  0  0  0  0  0
  -26.2895  -12.9444   20.3203 N   0  0  0  0  0  0
  -25.9291  -11.6608   20.5749 N   0  0  0  0  0  0
  -22.0381  -12.8290   22.0450 N   0  0  0  0  0  0
  -25.4079  -15.1949   20.3982 N   0  0  0  0  0  0
  -31.8677  -14.7738   20.2096 O   0  0  0  0  0  0
  -21.6669   -6.8834   21.4200 O   0  0  0  0  0  0
  -22.3447  -14.5483   20.6609 O   0  0  0  0  0  0
  -24.6288  -31.8506   23.1979 C   0  0  0  0  0  0
  -25.9103  -32.4758   23.8278 C   0  0  1  0  0  0
  -27.2473  -27.2785   20.1486 C   0  0  0  0  0  0
  -25.5904  -33.8549   24.2229 N   0  0  0  0  0  0
  -23.4284  -30.4652   21.5404 C   0  0  2  0  0  0
  -24.8871  -28.8977   20.1284 C   0  0  0  0  0  0
  -22.7455  -29.4581   22.4942 C   0  0  0  0  0  0
  -18.0245  -28.1383   22.8518 C   0  0  0  0  0  0
  -24.1484  -36.7309   23.2633 C   0  0  0  0  0  0
  -25.9688  -30.7675   21.3770 C   0  0  0  0  0  0
  -26.0521  -29.3846   20.7343 C   0  0  0  0  0  0
  -27.2365  -28.5859   20.7357 C   0  0  0  0  0  0
  -26.0651  -26.8462   19.5158 C   0  0  0  0  0  0
  -24.8972  -27.6370   19.5080 C   0  0  0  0  0  0
  -23.6530  -29.7778   20.1656 C   0  0  0  0  0  0
  -25.4130  -36.3108   24.0314 C   0  0  1  0  0  0
  -20.5836  -28.3720   23.1303 C   0  0  2  0  0  0
  -20.6760  -26.9437   22.5452 C   0  0  0  0  0  0
  -19.5751  -26.6403   21.5238 C   0  0  0  0  0  0
  -18.1915  -26.7929   22.1631 C   0  0  0  0  0  0
  -19.1494  -28.8864   23.2900 C   0  0  0  0  0  0
  -18.9430  -30.1454   23.8937 C   0  0  0  0  0  0
  -17.6439  -30.6617   24.0577 C   0  0  0  0  0  0
  -25.9071  -34.9450   23.5106 C   0  0  0  0  0  0
  -16.5319  -29.9119   23.6328 C   0  0  0  0  0  0
  -16.7226  -28.6507   23.0391 C   0  0  0  0  0  0
  -26.4484  -31.6580   25.0667 C   0  0  0  0  0  0
  -25.3719  -31.3734   26.1402 C   0  0  0  0  0  0
  -27.0301  -30.2995   24.6167 C   0  0  0  0  0  0
  -27.6037  -32.4315   25.7446 C   0  0  0  0  0  0
  -27.5599  -37.1824   24.8441 C   0  0  0  0  0  0
  -21.4166  -29.3056   22.3697 N   0  0  0  0  0  0
  -26.4310  -37.3821   23.9393 N   0  0  0  0  0  0
  -24.6948  -31.0431   22.0975 N   0  0  0  0  0  0
  -23.4148  -28.8130   23.3057 O   0  0  0  0  0  0
  -28.3704  -26.4305   20.1221 O   0  0  0  0  0  0
  -26.5650  -34.8916   22.4685 O   0  0  0  0  0  0
  -23.5450  -32.1274   23.7317 O   0  0  0  0  0  0
  -31.7873  -18.7553   22.1153 C   0  0  0  0  0  0
  -31.3687  -17.4712   21.7405 C   0  0  0  0  0  0
  -29.7279  -18.5016   20.2728 C   0  0  0  0  0  0
  -31.2045  -19.9303   21.5839 C   0  0  0  0  0  0
  -30.1218  -19.8678   20.6435 C   0  0  0  0  0  0
  -30.3359  -17.2855   20.8049 C   0  0  0  0  0  0
  -29.5752  -21.2296   18.6606 C   0  0  0  0  0  0
  -29.8416  -22.5900   17.9631 C   0  0  0  0  0  0
  -29.5805  -23.8963   18.7789 C   0  0  0  0  0  0
  -29.1563  -22.4070   20.7693 C   0  0  0  0  0  0
  -28.6068  -23.6897   19.9385 C   0  0  1  0  0  0
  -31.8619  -21.2217   22.0462 C   0  0  0  0  0  0
  -28.3079  -25.0706   20.7407 C   0  0  0  0  0  0
  -29.5643  -21.1295   20.0158 N   0  0  0  0  0  0
  -29.9158  -15.8944   20.5075 N   0  0  0  0  0  0
  -29.3892  -20.2558   17.9242 O   0  0  0  0  0  0
  -31.4709  -12.5458   19.1461 H   0  0  0  0  0  0
  -30.3590  -11.4805   19.9557 H   0  0  0  0  0  0
  -29.7792  -11.7171   17.5021 H   0  0  0  0  0  0
  -29.6209  -13.4453   17.7025 H   0  0  0  0  0  0
  -27.8730  -11.2769   18.8981 H   0  0  0  0  0  0
  -27.3672  -12.5103   17.7839 H   0  0  0  0  0  0
  -27.6196  -14.2506   19.4362 H   0  0  0  0  0  0
  -28.7282  -12.1929   21.4039 H   0  0  0  0  0  0
  -28.4351  -13.8797   21.7613 H   0  0  0  0  0  0
  -25.2715   -9.5760   22.4699 H   0  0  0  0  0  0
  -24.0008   -7.4659   22.7416 H   0  0  0  0  0  0
  -21.0789   -8.8733   19.8943 H   0  0  0  0  0  0
  -22.3574  -10.9654   19.6152 H   0  0  0  0  0  0
  -21.2039   -7.6106   23.9681 H   0  0  0  0  0  0
  -21.1485   -6.0460   25.9041 H   0  0  0  0  0  0
  -22.0612   -2.7565   23.2813 H   0  0  0  0  0  0
  -22.4011  -12.0091   22.5058 H   0  0  0  0  0  0
  -21.0948  -13.1260   22.2480 H   0  0  0  0  0  0
  -24.6217  -15.8329   20.4639 H   0  0  0  0  0  0
  -26.2303  -15.6301   19.9963 H   0  0  0  0  0  0
  -26.7150  -32.5442   23.0984 H   0  0  0  0  0  0
  -25.0016  -33.9628   25.0351 H   0  0  0  0  0  0
  -22.7322  -31.2918   21.3832 H   0  0  0  0  0  0
  -23.3767  -35.9617   23.3280 H   0  0  0  0  0  0
  -24.3570  -36.8990   22.2057 H   0  0  0  0  0  0
  -23.7196  -37.6497   23.6653 H   0  0  0  0  0  0
  -26.0853  -31.5235   20.5987 H   0  0  0  0  0  0
  -26.8503  -30.8367   22.0030 H   0  0  0  0  0  0
  -28.1286  -28.9550   21.2257 H   0  0  0  0  0  0
  -26.0475  -25.8842   19.0219 H   0  0  0  0  0  0
  -24.0071  -27.2601   19.0234 H   0  0  0  0  0  0
  -23.7699  -30.5324   19.3869 H   0  0  0  0  0  0
  -22.7792  -29.1918   19.8794 H   0  0  0  0  0  0
  -25.1324  -36.1994   25.0811 H   0  0  0  0  0  0
  -20.9876  -28.3287   24.1437 H   0  0  0  0  0  0
  -20.5681  -26.2300   23.3647 H   0  0  0  0  0  0
  -21.6636  -26.7506   22.1240 H   0  0  0  0  0  0
  -19.6922  -25.6308   21.1292 H   0  0  0  0  0  0
  -19.6705  -27.3183   20.6739 H   0  0  0  0  0  0
  -17.4205  -26.6664   21.4014 H   0  0  0  0  0  0
  -18.0319  -26.0041   22.8992 H   0  0  0  0  0  0
  -19.7907  -30.7254   24.2344 H   0  0  0  0  0  0
  -17.5005  -31.6309   24.5195 H   0  0  0  0  0  0
  -15.5328  -30.3081   23.7665 H   0  0  0  0  0  0
  -15.8588  -28.0865   22.7139 H   0  0  0  0  0  0
  -24.5793  -30.7226   25.7681 H   0  0  0  0  0  0
  -24.9017  -32.2935   26.4916 H   0  0  0  0  0  0
  -25.8025  -30.8782   27.0126 H   0  0  0  0  0  0
  -26.2850  -29.6779   24.1204 H   0  0  0  0  0  0
  -27.3960  -29.7263   25.4698 H   0  0  0  0  0  0
  -27.8742  -30.4236   23.9374 H   0  0  0  0  0  0
  -27.2577  -33.3522   26.2160 H   0  0  0  0  0  0
  -28.3763  -32.7092   25.0241 H   0  0  0  0  0  0
  -28.0788  -31.8382   26.5282 H   0  0  0  0  0  0
  -28.2650  -38.0104   24.7575 H   0  0  0  0  0  0
  -28.1100  -36.2679   24.6205 H   0  0  0  0  0  0
  -27.2314  -37.1392   25.8838 H   0  0  0  0  0  0
  -20.9340  -29.8775   21.6907 H   0  0  0  0  0  0
  -26.0227  -38.2915   24.1425 H   0  0  0  0  0  0
  -32.6028  -18.8200   22.8270 H   0  0  0  0  0  0
  -31.8634  -16.6265   22.1951 H   0  0  0  0  0  0
  -28.9531  -18.3766   19.5305 H   0  0  0  0  0  0
  -29.2705  -22.5990   17.0242 H   0  0  0  0  0  0
  -30.8940  -22.5648   17.6612 H   0  0  0  0  0  0
  -29.1763  -24.6799   18.1237 H   0  0  0  0  0  0
  -30.5172  -24.2989   19.1842 H   0  0  0  0  0  0
  -28.4094  -22.1328   21.5138 H   0  0  0  0  0  0
  -30.0028  -22.7722   21.3392 H   0  0  0  0  0  0
  -27.6490  -23.4025   19.4960 H   0  0  0  0  0  0
  -32.8222  -21.0199   22.5277 H   0  0  0  0  0  0
  -31.2422  -21.7226   22.7879 H   0  0  0  0  0  0
  -32.0706  -21.8794   21.2028 H   0  0  0  0  0  0
  -27.3510  -24.9652   21.2552 H   0  0  0  0  0  0
  -29.0372  -25.1255   21.5479 H   0  0  0  0  0  0
  -28.9266  -15.7613   20.3781 H   0  0  0  0  0  0
  1 25  1  0  0  0
  1 30  2  0  0  0
  1 85  1  0  0  0
  2  3  1  0  0  0
  2 25  1  0  0  0
  2 87  1  0  0  0
  2 88  1  0  0  0
  3  4  1  0  0  0
  3 89  1  0  0  0
  3 90  1  0  0  0
  4  5  1  0  0  0
  4 91  1  0  0  0
  4 92  1  0  0  0
  5  6  1  0  0  0
  5 26  1  0  0  0
  5 93  1  0  0  0
  6 25  1  0  0  0
  6 94  1  0  0  0
  6 95  1  0  0  0
  7  8  2  0  0  0
  7 26  1  0  0  0
  7 29  1  0  0  0
  8  9  1  0  0  0
  8 22  1  0  0  0
  9 10  1  0  0  0
  9 27  2  0  0  0
 10 11  2  0  0  0
 10 15  1  0  0  0
 11 12  1  0  0  0
 11 96  1  0  0  0
 12 13  2  0  0  0
 12 97  1  0  0  0
 13 14  1  0  0  0
 13 31  1  0  0  0
 14 15  2  0  0  0
 14 98  1  0  0  0
 15 99  1  0  0  0
 16 17  2  0  0  0
 16 21  1  0  0  0
 16 31  1  0  0  0
 17 18  1  0  0  0
 17100  1  0  0  0
 18 19  2  0  0  0
 18101  1  0  0  0
 19 20  1  0  0  0
 19 24  1  0  0  0
 20 21  2  0  0  0
 20102  1  0  0  0
 21 23  1  0  0  0
 22 28  1  0  0  0
 22 32  2  0  0  0
 26 27  1  0  0  0
 28103  1  0  0  0
 28104  1  0  0  0
 29105  1  0  0  0
 29106  1  0  0  0
 33 34  1  0  0  0
 33 66  1  0  0  0
 33 70  2  0  0  0
 34 36  1  0  0  0
 34 59  1  0  0  0
 34107  1  0  0  0
 35 44  2  0  0  0
 35 45  1  0  0  0
 35 68  1  0  0  0
 36 56  1  0  0  0
 36108  1  0  0  0
 37 39  1  0  0  0
 37 47  1  0  0  0
 37 66  1  0  0  0
 37109  1  0  0  0
 38 43  2  0  0  0
 38 46  1  0  0  0
 38 47  1  0  0  0
 39 64  1  0  0  0
 39 67  2  0  0  0
 40 52  1  0  0  0
 40 53  2  0  0  0
 40 58  1  0  0  0
 41110  1  0  0  0
 41111  1  0  0  0
 41112  1  0  0  0
 41 48  1  0  0  0
 42 43  1  0  0  0
 42 66  1  0  0  0
 42113  1  0  0  0
 42114  1  0  0  0
 43 44  1  0  0  0
 44115  1  0  0  0
 45 46  2  0  0  0
 45116  1  0  0  0
 46117  1  0  0  0
 47118  1  0  0  0
 47119  1  0  0  0
 48 56  1  0  0  0
 48 65  1  0  0  0
 48120  1  0  0  0
 49 50  1  0  0  0
 49 53  1  0  0  0
 49 64  1  0  0  0
 49121  1  0  0  0
 50 51  1  0  0  0
 50122  1  0  0  0
 50123  1  0  0  0
 51 52  1  0  0  0
 51124  1  0  0  0
 51125  1  0  0  0
 52126  1  0  0  0
 52127  1  0  0  0
 53 54  1  0  0  0
 54 55  2  0  0  0
 54128  1  0  0  0
 55 57  1  0  0  0
 55129  1  0  0  0
 56 69  2  0  0  0
 57 58  2  0  0  0
 57130  1  0  0  0
 58131  1  0  0  0
 59 60  1  0  0  0
 59 61  1  0  0  0
 59 62  1  0  0  0
 60132  1  0  0  0
 60133  1  0  0  0
 60134  1  0  0  0
 61135  1  0  0  0
 61136  1  0  0  0
 61137  1  0  0  0
 62138  1  0  0  0
 62139  1  0  0  0
 62140  1  0  0  0
 63 65  1  0  0  0
 63141  1  0  0  0
 63142  1  0  0  0
 63143  1  0  0  0
 64144  1  0  0  0
 65145  1  0  0  0
 68 83  1  0  0  0
 71 72  2  0  0  0
 71 74  1  0  0  0
 71146  1  0  0  0
 72 76  1  0  0  0
 72147  1  0  0  0
 73 75  1  0  0  0
 73 76  2  0  0  0
 73148  1  0  0  0
 74 75  2  0  0  0
 74 82  1  0  0  0
 75 84  1  0  0  0
 76 85  1  0  0  0
 77 78  1  0  0  0
 77 84  1  0  0  0
 77 86  2  0  0  0
 78 79  1  0  0  0
 78149  1  0  0  0
 78150  1  0  0  0
 79 81  1  0  0  0
 79151  1  0  0  0
 79152  1  0  0  0
 80 81  1  0  0  0
 80 84  1  0  0  0
 80153  1  0  0  0
 80154  1  0  0  0
 81 83  1  0  0  0
 81155  1  0  0  0
 82156  1  0  0  0
 82157  1  0  0  0
 82158  1  0  0  0
 83159  1  0  0  0
 83160  1  0  0  0
 85161  1  0  0  0
M  ISO  4   1 100  68 101  83 101  85 100
M  END
> <chiral flag>
0

> <version>
0

> <s_m_source_file>
/data/baiqing/PycharmProjects/Reinvent-master-3.2/result/LINK_invent/BTK/process_docking_weight1_custom_product_contain_oxygen_bond_distance_aromatic_linkinvent_7_9_3/rearranged_h_0063.sdf

> <i_m_source_file_index>
25

> <r_mmod_Potential_Energy-OPLS-2005>
318.340942382812

> <r_mmod_Stretch_Energy-OPLS-2005>
139.152084350586

> <r_mmod_Bend_Energy-OPLS-2005>
173.173645019531

> <r_mmod_Torsional_Energy-OPLS-2005>
338.375518798828

> <r_mmod_Improper_Torsional_Energy-OPLS-2005>
8.4428014755249

> <r_mmod_Van_der_Waal_Energy-OPLS-2005>
149.371109008789

> <r_mmod_Electrostatic_Energy-OPLS-2005>
-347.951721191406

> <r_mmod_Solvation_Energy-OPLS-2005>
-220.120315551758

> <b_mmod_Minimization_Converged-OPLS-2005>
0

> <r_mmod_RMS_Derivative-OPLS-2005>
6.59098815917969

$$$$
25
                    3D
 Structure written by MMmdl.
158167  0  0  1  0            999 V2000
  -30.5972  -14.7446   20.4605 C   0  0  0  0  0  0
  -30.4393  -12.4495   19.4909 C   0  0  0  0  0  0
  -29.5203  -12.5006   18.2491 C   0  0  0  0  0  0
  -28.0437  -12.3340   18.6553 C   0  0  0  0  0  0
  -27.6486  -13.2304   19.8594 C   0  0  2  0  0  0
  -28.6866  -13.1515   21.0004 C   0  0  0  0  0  0
  -25.2545  -13.8198   20.5705 C   0  0  0  0  0  0
  -24.1819  -13.0444   20.9187 C   0  0  0  0  0  0
  -24.6408  -11.6920   20.8739 C   0  0  0  0  0  0
  -23.9081  -10.4295   21.0404 C   0  0  0  0  0  0
  -24.3634   -9.4201   21.9178 C   0  0  0  0  0  0
  -23.6298   -8.2246   22.0751 C   0  0  0  0  0  0
  -22.4275   -8.0297   21.3546 C   0  0  0  0  0  0
  -21.9910   -9.0275   20.4646 C   0  0  0  0  0  0
  -22.7251  -10.2143   20.3054 C   0  0  0  0  0  0
  -21.6852   -6.0742   22.5272 C   0  0  0  0  0  0
  -21.4018   -6.5639   23.8211 C   0  0  0  0  0  0
  -21.3659   -5.6787   24.9171 C   0  0  0  0  0  0
  -21.6042   -4.3052   24.7210 C   0  0  0  0  0  0
  -21.8821   -3.8149   23.4329 C   0  0  0  0  0  0
  -21.9193   -4.6972   22.3389 C   0  0  0  0  0  0
  -22.7842  -13.5232   21.1858 C   0  0  0  0  0  0
  -22.1660   -4.2168   21.0963 F   0  0  0  0  0  0
  -21.5627   -3.4529   25.7716 F   0  0  0  0  0  0
  -29.9948  -13.5052   20.4331 N   0  0  0  0  0  0
  -26.2971  -12.9401   20.3302 N   0  0  0  0  0  0
  -25.9335  -11.6543   20.5751 N   0  0  0  0  0  0
  -22.0492  -12.8232   22.0428 N   0  0  0  0  0  0
  -25.4279  -15.1921   20.4168 N   0  0  0  0  0  0
  -31.7645  -14.8658   20.0757 O   0  0  0  0  0  0
  -21.6640   -6.8892   21.4239 O   0  0  0  0  0  0
  -22.3523  -14.5544   20.6713 O   0  0  0  0  0  0
  -24.6334  -31.8558   23.1998 C   0  0  0  0  0  0
  -25.9154  -32.4756   23.8346 C   0  0  1  0  0  0
  -27.2112  -27.2411   20.1304 C   0  0  0  0  0  0
  -25.5945  -33.8561   24.2259 N   0  0  0  0  0  0
  -23.4301  -30.4797   21.5449 C   0  0  2  0  0  0
  -24.8764  -28.9318   20.1079 C   0  0  0  0  0  0
  -22.7517  -29.4601   22.4918 C   0  0  0  0  0  0
  -18.0292  -28.1399   22.8481 C   0  0  0  0  0  0
  -24.1485  -36.7282   23.2637 C   0  0  0  0  0  0
  -25.9798  -30.7600   21.3867 C   0  0  0  0  0  0
  -26.0496  -29.3834   20.7251 C   0  0  0  0  0  0
  -27.2185  -28.5500   20.7295 C   0  0  0  0  0  0
  -26.0172  -26.8798   19.4600 C   0  0  0  0  0  0
  -24.8666  -27.6877   19.4651 C   0  0  0  0  0  0
  -23.6488  -29.8204   20.1591 C   0  0  0  0  0  0
  -25.4112  -36.3068   24.0320 C   0  0  1  0  0  0
  -20.5899  -28.3710   23.1265 C   0  0  2  0  0  0
  -20.6784  -26.9425   22.5408 C   0  0  0  0  0  0
  -19.5754  -26.6381   21.5219 C   0  0  0  0  0  0
  -18.1932  -26.7937   22.1627 C   0  0  0  0  0  0
  -19.1548  -28.8872   23.2862 C   0  0  0  0  0  0
  -18.9471  -30.1473   23.8879 C   0  0  0  0  0  0
  -17.6470  -30.6597   24.0566 C   0  0  0  0  0  0
  -25.9063  -34.9440   23.5091 C   0  0  0  0  0  0
  -16.5360  -29.9094   23.6336 C   0  0  0  0  0  0
  -16.7279  -28.6515   23.0350 C   0  0  0  0  0  0
  -26.4502  -31.6595   25.0754 C   0  0  0  0  0  0
  -25.3707  -31.3788   26.1468 C   0  0  0  0  0  0
  -27.0349  -30.2994   24.6287 C   0  0  0  0  0  0
  -27.6050  -32.4349   25.7526 C   0  0  0  0  0  0
  -27.5577  -37.1791   24.8456 C   0  0  0  0  0  0
  -21.4223  -29.3050   22.3657 N   0  0  0  0  0  0
  -26.4281  -37.3772   23.9412 N   0  0  0  0  0  0
  -24.7002  -31.0497   22.0992 N   0  0  0  0  0  0
  -23.4209  -28.8138   23.3021 O   0  0  0  0  0  0
  -28.2782  -26.3045   20.2226 O   0  0  0  0  0  0
  -26.5638  -34.8916   22.4661 O   0  0  0  0  0  0
  -23.5480  -32.1398   23.7273 O   0  0  0  0  0  0
  -29.1795  -19.5220   18.5517 C   0  0  0  0  0  0
  -29.6224  -18.4853   20.7024 C   0  0  0  0  0  0
  -29.2299  -18.2489   17.9487 C   0  0  0  0  0  0
  -29.3595  -19.7143   19.9439 C   0  0  0  0  0  0
  -29.7022  -17.1530   20.1021 C   0  0  0  0  0  0
  -29.4811  -17.0887   18.7070 C   0  0  0  0  0  0
  -29.7775  -23.7807   21.4153 C   0  0  0  0  0  0
  -30.2737  -21.4096   21.4911 C   0  0  0  0  0  0
  -28.8427  -23.6251   20.4554 C   0  0  0  0  0  0
  -30.5076  -22.6509   21.9640 C   0  0  0  0  0  0
  -28.5794  -22.2063   19.9648 C   0  0  0  0  0  0
  -29.0004  -18.1163   16.4543 C   0  0  0  0  0  0
  -27.9883  -24.8529   19.9006 C   0  0  0  0  0  0
  -29.3503  -21.1307   20.4651 N   0  0  0  0  0  0
  -29.8478  -15.8571   20.8193 N   0  0  0  0  0  0
  -27.6654  -21.9995   19.1590 O   0  0  0  0  0  0
  -31.4156  -22.8325   22.9286 O   0  0  0  0  0  0
  -29.4597  -15.8912   18.0747 F   0  0  0  0  0  0
  -31.4808  -12.5746   19.1898 H   0  0  0  0  0  0
  -30.3871  -11.4709   19.9697 H   0  0  0  0  0  0
  -29.8026  -11.7223   17.5385 H   0  0  0  0  0  0
  -29.6556  -13.4475   17.7274 H   0  0  0  0  0  0
  -27.8921  -11.2854   18.9114 H   0  0  0  0  0  0
  -27.3933  -12.5370   17.8042 H   0  0  0  0  0  0
  -27.6503  -14.2548   19.4868 H   0  0  0  0  0  0
  -28.7155  -12.1490   21.4298 H   0  0  0  0  0  0
  -28.4165  -13.8234   21.8169 H   0  0  0  0  0  0
  -25.2790   -9.5665   22.4740 H   0  0  0  0  0  0
  -24.0008   -7.4624   22.7459 H   0  0  0  0  0  0
  -21.0845   -8.8803   19.8941 H   0  0  0  0  0  0
  -22.3730  -10.9688   19.6161 H   0  0  0  0  0  0
  -21.2022   -7.6146   23.9721 H   0  0  0  0  0  0
  -21.1476   -6.0513   25.9077 H   0  0  0  0  0  0
  -22.0604   -2.7612   23.2820 H   0  0  0  0  0  0
  -22.4103  -11.9886   22.4804 H   0  0  0  0  0  0
  -21.1115  -13.1264   22.2643 H   0  0  0  0  0  0
  -24.6688  -15.8527   20.5394 H   0  0  0  0  0  0
  -26.2850  -15.6288   20.1019 H   0  0  0  0  0  0
  -26.7225  -32.5391   23.1092 H   0  0  0  0  0  0
  -25.0078  -33.9701   25.0394 H   0  0  0  0  0  0
  -22.7267  -31.3025   21.4017 H   0  0  0  0  0  0
  -23.3752  -35.9609   23.3288 H   0  0  0  0  0  0
  -24.3577  -36.8924   22.2055 H   0  0  0  0  0  0
  -23.7232  -37.6474   23.6679 H   0  0  0  0  0  0
  -26.1253  -31.5212   20.6190 H   0  0  0  0  0  0
  -26.8552  -30.8056   22.0230 H   0  0  0  0  0  0
  -28.1095  -28.8859   21.2408 H   0  0  0  0  0  0
  -25.9257  -25.9403   18.9356 H   0  0  0  0  0  0
  -23.9701  -27.3398   18.9702 H   0  0  0  0  0  0
  -23.7772  -30.6001   19.4077 H   0  0  0  0  0  0
  -22.7656  -29.2586   19.8499 H   0  0  0  0  0  0
  -25.1288  -36.1915   25.0812 H   0  0  0  0  0  0
  -20.9980  -28.3294   24.1390 H   0  0  0  0  0  0
  -20.5692  -26.2322   23.3617 H   0  0  0  0  0  0
  -21.6653  -26.7453   22.1199 H   0  0  0  0  0  0
  -19.6916  -25.6288   21.1256 H   0  0  0  0  0  0
  -19.6681  -27.3185   20.6742 H   0  0  0  0  0  0
  -17.4198  -26.6681   21.4031 H   0  0  0  0  0  0
  -18.0326  -26.0086   22.9030 H   0  0  0  0  0  0
  -19.7947  -30.7296   24.2232 H   0  0  0  0  0  0
  -17.5026  -31.6271   24.5178 H   0  0  0  0  0  0
  -15.5361  -30.2993   23.7669 H   0  0  0  0  0  0
  -15.8676  -28.0832   22.7073 H   0  0  0  0  0  0
  -24.5850  -30.7172   25.7806 H   0  0  0  0  0  0
  -24.8937  -32.2982   26.4877 H   0  0  0  0  0  0
  -25.7994  -30.8966   27.0262 H   0  0  0  0  0  0
  -26.2957  -29.6744   24.1262 H   0  0  0  0  0  0
  -27.3947  -29.7265   25.4846 H   0  0  0  0  0  0
  -27.8875  -30.4244   23.9606 H   0  0  0  0  0  0
  -27.2644  -33.3647   26.2098 H   0  0  0  0  0  0
  -28.3857  -32.6921   25.0355 H   0  0  0  0  0  0
  -28.0725  -31.8488   26.5448 H   0  0  0  0  0  0
  -28.2578  -38.0104   24.7525 H   0  0  0  0  0  0
  -28.1088  -36.2636   24.6244 H   0  0  0  0  0  0
  -27.2304  -37.1401   25.8861 H   0  0  0  0  0  0
  -20.9427  -29.8776   21.6855 H   0  0  0  0  0  0
  -26.0155  -38.2840   24.1436 H   0  0  0  0  0  0
  -29.0122  -20.3705   17.9044 H   0  0  0  0  0  0
  -29.7587  -18.5615   21.7711 H   0  0  0  0  0  0
  -29.9632  -24.7754   21.7968 H   0  0  0  0  0  0
  -30.8094  -20.5486   21.8618 H   0  0  0  0  0  0
  -28.8150  -19.0813   15.9827 H   0  0  0  0  0  0
  -28.1412  -17.4748   16.2575 H   0  0  0  0  0  0
  -29.8719  -17.6667   15.9795 H   0  0  0  0  0  0
  -26.9860  -24.6182   20.2591 H   0  0  0  0  0  0
  -27.9620  -24.7608   18.8139 H   0  0  0  0  0  0
  -29.0393  -15.6167   21.3729 H   0  0  0  0  0  0
  -31.4511  -23.7603   23.1288 H   0  0  0  0  0  0
  1 25  1  0  0  0
  1 30  2  0  0  0
  1 85  1  0  0  0
  2  3  1  0  0  0
  2 25  1  0  0  0
  2 89  1  0  0  0
  2 90  1  0  0  0
  3  4  1  0  0  0
  3 91  1  0  0  0
  3 92  1  0  0  0
  4  5  1  0  0  0
  4 93  1  0  0  0
  4 94  1  0  0  0
  5  6  1  0  0  0
  5 26  1  0  0  0
  5 95  1  0  0  0
  6 25  1  0  0  0
  6 96  1  0  0  0
  6 97  1  0  0  0
  7  8  2  0  0  0
  7 26  1  0  0  0
  7 29  1  0  0  0
  8  9  1  0  0  0
  8 22  1  0  0  0
  9 10  1  0  0  0
  9 27  2  0  0  0
 10 11  2  0  0  0
 10 15  1  0  0  0
 11 12  1  0  0  0
 11 98  1  0  0  0
 12 13  2  0  0  0
 12 99  1  0  0  0
 13 14  1  0  0  0
 13 31  1  0  0  0
 14 15  2  0  0  0
 14100  1  0  0  0
 15101  1  0  0  0
 16 17  2  0  0  0
 16 21  1  0  0  0
 16 31  1  0  0  0
 17 18  1  0  0  0
 17102  1  0  0  0
 18 19  2  0  0  0
 18103  1  0  0  0
 19 20  1  0  0  0
 19 24  1  0  0  0
 20 21  2  0  0  0
 20104  1  0  0  0
 21 23  1  0  0  0
 22 28  1  0  0  0
 22 32  2  0  0  0
 26 27  1  0  0  0
 28105  1  0  0  0
 28106  1  0  0  0
 29107  1  0  0  0
 29108  1  0  0  0
 33 34  1  0  0  0
 33 66  1  0  0  0
 33 70  2  0  0  0
 34 36  1  0  0  0
 34 59  1  0  0  0
 34109  1  0  0  0
 35 44  2  0  0  0
 35 45  1  0  0  0
 35 68  1  0  0  0
 36 56  1  0  0  0
 36110  1  0  0  0
 37 39  1  0  0  0
 37 47  1  0  0  0
 37 66  1  0  0  0
 37111  1  0  0  0
 38 43  2  0  0  0
 38 46  1  0  0  0
 38 47  1  0  0  0
 39 64  1  0  0  0
 39 67  2  0  0  0
 40 52  1  0  0  0
 40 53  2  0  0  0
 40 58  1  0  0  0
 41112  1  0  0  0
 41113  1  0  0  0
 41114  1  0  0  0
 41 48  1  0  0  0
 42 43  1  0  0  0
 42 66  1  0  0  0
 42115  1  0  0  0
 42116  1  0  0  0
 43 44  1  0  0  0
 44117  1  0  0  0
 45 46  2  0  0  0
 45118  1  0  0  0
 46119  1  0  0  0
 47120  1  0  0  0
 47121  1  0  0  0
 48 56  1  0  0  0
 48 65  1  0  0  0
 48122  1  0  0  0
 49 50  1  0  0  0
 49 53  1  0  0  0
 49 64  1  0  0  0
 49123  1  0  0  0
 50 51  1  0  0  0
 50124  1  0  0  0
 50125  1  0  0  0
 51 52  1  0  0  0
 51126  1  0  0  0
 51127  1  0  0  0
 52128  1  0  0  0
 52129  1  0  0  0
 53 54  1  0  0  0
 54 55  2  0  0  0
 54130  1  0  0  0
 55 57  1  0  0  0
 55131  1  0  0  0
 56 69  2  0  0  0
 57 58  2  0  0  0
 57132  1  0  0  0
 58133  1  0  0  0
 59 60  1  0  0  0
 59 61  1  0  0  0
 59 62  1  0  0  0
 60134  1  0  0  0
 60135  1  0  0  0
 60136  1  0  0  0
 61137  1  0  0  0
 61138  1  0  0  0
 61139  1  0  0  0
 62140  1  0  0  0
 62141  1  0  0  0
 62142  1  0  0  0
 63 65  1  0  0  0
 63143  1  0  0  0
 63144  1  0  0  0
 63145  1  0  0  0
 64146  1  0  0  0
 65147  1  0  0  0
 68 83  1  0  0  0
 71 73  2  0  0  0
 71 74  1  0  0  0
 71148  1  0  0  0
 72 74  2  0  0  0
 72 75  1  0  0  0
 72149  1  0  0  0
 73 76  1  0  0  0
 73 82  1  0  0  0
 74 84  1  0  0  0
 75 76  2  0  0  0
 75 85  1  0  0  0
 76 88  1  0  0  0
 77 79  2  0  0  0
 77 80  1  0  0  0
 77150  1  0  0  0
 78 80  2  0  0  0
 78 84  1  0  0  0
 78151  1  0  0  0
 79 81  1  0  0  0
 79 83  1  0  0  0
 80 87  1  0  0  0
 81 84  1  0  0  0
 81 86  2  0  0  0
 82152  1  0  0  0
 82153  1  0  0  0
 82154  1  0  0  0
 83155  1  0  0  0
 83156  1  0  0  0
 85157  1  0  0  0
 87158  1  0  0  0
M  ISO  4   1 100  68 101  83 101  85 100
M  END
> <chiral flag>
0

> <version>
0

> <s_m_source_file>
/data/baiqing/PycharmProjects/Reinvent-master-3.2/result/LINK_invent/BTK/process_docking_weight1_custom_product_contain_oxygen_bond_distance_aromatic_linkinvent_7_9_3/rearranged_h_0063.sdf

> <i_m_source_file_index>
26

> <r_mmod_Potential_Energy-OPLS-2005>
234.754867553711

> <r_mmod_Stretch_Energy-OPLS-2005>
147.553756713867

> <r_mmod_Bend_Energy-OPLS-2005>
162.772552490234

> <r_mmod_Torsional_Energy-OPLS-2005>
266.032836914062

> <r_mmod_Improper_Torsional_Energy-OPLS-2005>
5.55541896820068

> <r_mmod_Van_der_Waal_Energy-OPLS-2005>
172.114334106445

> <r_mmod_Electrostatic_Energy-OPLS-2005>
-384.588928222656

> <r_mmod_Solvation_Energy-OPLS-2005>
-229.447158813477

> <b_mmod_Minimization_Converged-OPLS-2005>
0

> <r_mmod_RMS_Derivative-OPLS-2005>
1.42413759231567

$$$$
26
                    3D
 Structure written by MMmdl.
168177  0  0  1  0            999 V2000
  -30.7461  -14.3842   20.6562 C   0  0  0  0  0  0
  -30.4160  -12.2861   19.3975 C   0  0  0  0  0  0
  -29.4831  -12.5181   18.1926 C   0  0  0  0  0  0
  -28.0062  -12.3757   18.6086 C   0  0  0  0  0  0
  -27.6632  -13.2001   19.8779 C   0  0  2  0  0  0
  -28.7028  -12.9403   20.9914 C   0  0  0  0  0  0
  -25.2589  -13.8150   20.5656 C   0  0  0  0  0  0
  -24.1839  -13.0433   20.9160 C   0  0  0  0  0  0
  -24.6385  -11.6899   20.8730 C   0  0  0  0  0  0
  -23.9053  -10.4287   21.0407 C   0  0  0  0  0  0
  -24.3606   -9.4200   21.9181 C   0  0  0  0  0  0
  -23.6280   -8.2237   22.0753 C   0  0  0  0  0  0
  -22.4260   -8.0276   21.3545 C   0  0  0  0  0  0
  -21.9902   -9.0249   20.4644 C   0  0  0  0  0  0
  -22.7227  -10.2129   20.3055 C   0  0  0  0  0  0
  -21.6854   -6.0731   22.5275 C   0  0  0  0  0  0
  -21.4012   -6.5635   23.8207 C   0  0  0  0  0  0
  -21.3657   -5.6789   24.9168 C   0  0  0  0  0  0
  -21.6053   -4.3054   24.7223 C   0  0  0  0  0  0
  -21.8817   -3.8143   23.4342 C   0  0  0  0  0  0
  -21.9186   -4.6960   22.3397 C   0  0  0  0  0  0
  -22.7860  -13.5241   21.1834 C   0  0  0  0  0  0
  -22.1656   -4.2150   21.0975 F   0  0  0  0  0  0
  -21.5632   -3.4539   25.7738 F   0  0  0  0  0  0
  -30.0408  -13.2416   20.4492 N   0  0  0  0  0  0
  -26.3028  -12.9312   20.3370 N   0  0  0  0  0  0
  -25.9310  -11.6477   20.5763 N   0  0  0  0  0  0
  -22.0508  -12.8228   22.0392 N   0  0  0  0  0  0
  -25.4327  -15.1866   20.4034 N   0  0  0  0  0  0
  -31.8169  -14.6284   20.0913 O   0  0  0  0  0  0
  -21.6628   -6.8872   21.4236 O   0  0  0  0  0  0
  -22.3544  -14.5545   20.6686 O   0  0  0  0  0  0
  -24.6096  -31.8695   23.2126 C   0  0  0  0  0  0
  -25.9017  -32.4827   23.8406 C   0  0  1  0  0  0
  -27.2389  -27.4686   20.0933 C   0  0  0  0  0  0
  -25.5903  -33.8622   24.2346 N   0  0  0  0  0  0
  -23.3957  -30.4932   21.5507 C   0  0  2  0  0  0
  -24.8417  -28.9605   20.1154 C   0  0  0  0  0  0
  -22.7378  -29.4660   22.5009 C   0  0  0  0  0  0
  -18.0260  -28.1358   22.8467 C   0  0  0  0  0  0
  -24.1485  -36.7307   23.2643 C   0  0  0  0  0  0
  -25.9196  -30.8476   21.3581 C   0  0  0  0  0  0
  -25.9971  -29.4833   20.7077 C   0  0  0  0  0  0
  -27.1965  -28.7442   20.6918 C   0  0  0  0  0  0
  -26.0657  -26.9466   19.5005 C   0  0  0  0  0  0
  -24.8685  -27.6897   19.5117 C   0  0  0  0  0  0
  -23.6013  -29.8237   20.1643 C   0  0  0  0  0  0
  -25.4102  -36.3115   24.0366 C   0  0  1  0  0  0
  -20.5851  -28.3619   23.1345 C   0  0  2  0  0  0
  -20.6750  -26.9366   22.5421 C   0  0  0  0  0  0
  -19.5750  -26.6365   21.5199 C   0  0  0  0  0  0
  -18.1919  -26.7907   22.1603 C   0  0  0  0  0  0
  -19.1511  -28.8807   23.2895 C   0  0  0  0  0  0
  -18.9452  -30.1404   23.8916 C   0  0  0  0  0  0
  -17.6467  -30.6563   24.0557 C   0  0  0  0  0  0
  -25.9036  -34.9478   23.5151 C   0  0  0  0  0  0
  -16.5352  -29.9073   23.6332 C   0  0  0  0  0  0
  -16.7253  -28.6496   23.0340 C   0  0  0  0  0  0
  -26.4476  -31.6590   25.0705 C   0  0  0  0  0  0
  -25.3777  -31.3683   26.1491 C   0  0  0  0  0  0
  -27.0294  -30.3059   24.5999 C   0  0  0  0  0  0
  -27.6066  -32.4295   25.7459 C   0  0  0  0  0  0
  -27.5596  -37.1795   24.8466 C   0  0  0  0  0  0
  -21.4115  -29.3003   22.3759 N   0  0  0  0  0  0
  -26.4294  -37.3797   23.9430 N   0  0  0  0  0  0
  -24.6594  -31.0838   22.0993 N   0  0  0  0  0  0
  -23.4157  -28.8205   23.3058 O   0  0  0  0  0  0
  -28.4401  -26.8019   20.1058 O   0  0  0  0  0  0
  -26.5571  -34.8915   22.4691 O   0  0  0  0  0  0
  -23.5301  -32.1414   23.7569 O   0  0  0  0  0  0
  -31.6054  -19.1030   22.5799 C   0  0  0  0  0  0
  -29.7976  -17.6536   21.8025 C   0  0  0  0  0  0
  -32.0014  -16.7132   22.2914 C   0  0  0  0  0  0
  -30.2756  -18.9377   22.1436 C   0  0  0  0  0  0
  -32.4679  -17.9910   22.6807 C   0  0  0  0  0  0
  -30.6676  -16.5426   21.8454 C   0  0  0  0  0  0
  -34.0331  -18.6268   24.4405 C   0  0  0  0  0  0
  -34.9123  -17.8628   22.5586 C   0  0  0  0  0  0
  -29.4116  -20.1101   22.0532 C   0  0  0  0  0  0
  -29.2735  -22.4666   21.2116 C   0  0  0  0  0  0
  -35.5251  -18.6705   24.7223 C   0  0  0  0  0  0
  -36.1345  -18.1378   23.4219 C   0  0  0  0  0  0
  -30.0619  -23.3947   20.2769 C   0  0  0  0  0  0
  -29.7984  -24.9009   20.4639 C   0  0  0  0  0  0
  -28.4429  -25.3941   19.9340 C   0  0  0  0  0  0
  -33.7803  -18.1605   23.2081 N   0  0  0  0  0  0
  -30.1654  -15.2652   21.4846 N   0  0  0  0  0  0
  -29.8714  -21.1782   21.3721 N   0  0  0  0  0  0
  -28.2162  -20.0795   22.6495 N   0  3  0  0  0  0
  -33.1917  -18.9801   25.2726 O   0  0  0  0  0  0
  -34.9969  -17.4310   21.4043 O   0  0  0  0  0  0
  -28.2258  -22.7938   21.7803 O   0  0  0  0  0  0
  -31.4608  -12.3793   19.0958 H   0  0  0  0  0  0
  -30.3065  -11.2661   19.7702 H   0  0  0  0  0  0
  -29.7152  -11.8118   17.3955 H   0  0  0  0  0  0
  -29.6533  -13.5143   17.7793 H   0  0  0  0  0  0
  -27.8136  -11.3179   18.7910 H   0  0  0  0  0  0
  -27.3532  -12.6639   17.7848 H   0  0  0  0  0  0
  -27.7205  -14.2536   19.6033 H   0  0  0  0  0  0
  -28.6702  -11.8924   21.2951 H   0  0  0  0  0  0
  -28.4562  -13.5032   21.8929 H   0  0  0  0  0  0
  -25.2759   -9.5681   22.4749 H   0  0  0  0  0  0
  -23.9995   -7.4634   22.7476 H   0  0  0  0  0  0
  -21.0831   -8.8761   19.8949 H   0  0  0  0  0  0
  -22.3681  -10.9667   19.6158 H   0  0  0  0  0  0
  -21.2003   -7.6148   23.9714 H   0  0  0  0  0  0
  -21.1486   -6.0520   25.9076 H   0  0  0  0  0  0
  -22.0600   -2.7609   23.2840 H   0  0  0  0  0  0
  -22.4115  -11.9870   22.4754 H   0  0  0  0  0  0
  -21.1133  -13.1261   22.2632 H   0  0  0  0  0  0
  -24.6636  -15.8420   20.4925 H   0  0  0  0  0  0
  -26.2826  -15.6182   20.0644 H   0  0  0  0  0  0
  -26.7068  -32.5577   23.1164 H   0  0  0  0  0  0
  -25.0106  -33.9751   25.0535 H   0  0  0  0  0  0
  -22.6837  -31.3083   21.4122 H   0  0  0  0  0  0
  -23.3753  -35.9635   23.3290 H   0  0  0  0  0  0
  -24.3593  -36.8925   22.2058 H   0  0  0  0  0  0
  -23.7210  -37.6507   23.6643 H   0  0  0  0  0  0
  -26.0192  -31.6140   20.5869 H   0  0  0  0  0  0
  -26.8118  -30.9057   21.9700 H   0  0  0  0  0  0
  -28.0927  -29.1465   21.1449 H   0  0  0  0  0  0
  -26.0633  -25.9781   19.0208 H   0  0  0  0  0  0
  -23.9810  -27.2787   19.0503 H   0  0  0  0  0  0
  -23.7043  -30.5985   19.4028 H   0  0  0  0  0  0
  -22.7263  -29.2400   19.8732 H   0  0  0  0  0  0
  -25.1258  -36.1998   25.0862 H   0  0  0  0  0  0
  -20.9924  -28.3171   24.1477 H   0  0  0  0  0  0
  -20.5654  -26.2220   23.3588 H   0  0  0  0  0  0
  -21.6629  -26.7402   22.1234 H   0  0  0  0  0  0
  -19.6931  -25.6282   21.1206 H   0  0  0  0  0  0
  -19.6740  -27.3187   20.6739 H   0  0  0  0  0  0
  -17.4202  -26.6646   21.3986 H   0  0  0  0  0  0
  -18.0308  -26.0034   22.8985 H   0  0  0  0  0  0
  -19.7931  -30.7174   24.2318 H   0  0  0  0  0  0
  -17.5033  -31.6260   24.5110 H   0  0  0  0  0  0
  -15.5350  -30.2983   23.7642 H   0  0  0  0  0  0
  -15.8652  -28.0813   22.7062 H   0  0  0  0  0  0
  -24.5923  -30.7063   25.7835 H   0  0  0  0  0  0
  -24.9015  -32.2843   26.4993 H   0  0  0  0  0  0
  -25.8174  -30.8808   27.0204 H   0  0  0  0  0  0
  -26.2784  -29.6817   24.1146 H   0  0  0  0  0  0
  -27.4217  -29.7294   25.4382 H   0  0  0  0  0  0
  -27.8550  -30.4411   23.9012 H   0  0  0  0  0  0
  -27.2687  -33.3575   26.2065 H   0  0  0  0  0  0
  -28.3859  -32.6872   25.0284 H   0  0  0  0  0  0
  -28.0738  -31.8403   26.5352 H   0  0  0  0  0  0
  -28.2578  -38.0119   24.7541 H   0  0  0  0  0  0
  -28.1118  -36.2654   24.6240 H   0  0  0  0  0  0
  -27.2321  -37.1385   25.8868 H   0  0  0  0  0  0
  -20.9249  -29.8746   21.7023 H   0  0  0  0  0  0
  -26.0202  -38.2883   24.1452 H   0  0  0  0  0  0
  -31.9579  -20.0834   22.8734 H   0  0  0  0  0  0
  -28.7744  -17.5312   21.4738 H   0  0  0  0  0  0
  -32.6615  -15.8605   22.3649 H   0  0  0  0  0  0
  -35.7620  -18.0361   25.5761 H   0  0  0  0  0  0
  -35.8397  -19.6917   24.9379 H   0  0  0  0  0  0
  -36.7849  -18.8716   22.9461 H   0  0  0  0  0  0
  -36.6957  -17.2179   23.5847 H   0  0  0  0  0  0
  -29.8634  -23.1053   19.2448 H   0  0  0  0  0  0
  -31.1239  -23.2199   20.4482 H   0  0  0  0  0  0
  -30.5851  -25.4478   19.9438 H   0  0  0  0  0  0
  -29.8975  -25.1725   21.5168 H   0  0  0  0  0  0
  -27.6216  -24.9355   20.4843 H   0  0  0  0  0  0
  -28.3304  -25.1474   18.8762 H   0  0  0  0  0  0
  -29.2335  -15.0297   21.7905 H   0  0  0  0  0  0
  -30.7369  -20.9563   20.9055 H   0  0  0  0  0  0
  -27.9461  -19.2831   23.2073 H   0  0  0  0  0  0
  -27.6381  -20.9090   22.6452 H   0  0  0  0  0  0
  1 25  1  0  0  0
  1 30  2  0  0  0
  1 87  1  0  0  0
  2  3  1  0  0  0
  2 25  1  0  0  0
  2 93  1  0  0  0
  2 94  1  0  0  0
  3  4  1  0  0  0
  3 95  1  0  0  0
  3 96  1  0  0  0
  4  5  1  0  0  0
  4 97  1  0  0  0
  4 98  1  0  0  0
  5  6  1  0  0  0
  5 26  1  0  0  0
  5 99  1  0  0  0
  6 25  1  0  0  0
  6100  1  0  0  0
  6101  1  0  0  0
  7  8  2  0  0  0
  7 26  1  0  0  0
  7 29  1  0  0  0
  8  9  1  0  0  0
  8 22  1  0  0  0
  9 10  1  0  0  0
  9 27  2  0  0  0
 10 11  2  0  0  0
 10 15  1  0  0  0
 11 12  1  0  0  0
 11102  1  0  0  0
 12 13  2  0  0  0
 12103  1  0  0  0
 13 14  1  0  0  0
 13 31  1  0  0  0
 14 15  2  0  0  0
 14104  1  0  0  0
 15105  1  0  0  0
 16 17  2  0  0  0
 16 21  1  0  0  0
 16 31  1  0  0  0
 17 18  1  0  0  0
 17106  1  0  0  0
 18 19  2  0  0  0
 18107  1  0  0  0
 19 20  1  0  0  0
 19 24  1  0  0  0
 20 21  2  0  0  0
 20108  1  0  0  0
 21 23  1  0  0  0
 22 28  1  0  0  0
 22 32  2  0  0  0
 26 27  1  0  0  0
 28109  1  0  0  0
 28110  1  0  0  0
 29111  1  0  0  0
 29112  1  0  0  0
 33 34  1  0  0  0
 33 66  1  0  0  0
 33 70  2  0  0  0
 34 36  1  0  0  0
 34 59  1  0  0  0
 34113  1  0  0  0
 35 44  2  0  0  0
 35 45  1  0  0  0
 35 68  1  0  0  0
 36 56  1  0  0  0
 36114  1  0  0  0
 37 39  1  0  0  0
 37 47  1  0  0  0
 37 66  1  0  0  0
 37115  1  0  0  0
 38 43  2  0  0  0
 38 46  1  0  0  0
 38 47  1  0  0  0
 39 64  1  0  0  0
 39 67  2  0  0  0
 40 52  1  0  0  0
 40 53  2  0  0  0
 40 58  1  0  0  0
 41116  1  0  0  0
 41117  1  0  0  0
 41118  1  0  0  0
 41 48  1  0  0  0
 42 43  1  0  0  0
 42 66  1  0  0  0
 42119  1  0  0  0
 42120  1  0  0  0
 43 44  1  0  0  0
 44121  1  0  0  0
 45 46  2  0  0  0
 45122  1  0  0  0
 46123  1  0  0  0
 47124  1  0  0  0
 47125  1  0  0  0
 48 56  1  0  0  0
 48 65  1  0  0  0
 48126  1  0  0  0
 49 50  1  0  0  0
 49 53  1  0  0  0
 49 64  1  0  0  0
 49127  1  0  0  0
 50 51  1  0  0  0
 50128  1  0  0  0
 50129  1  0  0  0
 51 52  1  0  0  0
 51130  1  0  0  0
 51131  1  0  0  0
 52132  1  0  0  0
 52133  1  0  0  0
 53 54  1  0  0  0
 54 55  2  0  0  0
 54134  1  0  0  0
 55 57  1  0  0  0
 55135  1  0  0  0
 56 69  2  0  0  0
 57 58  2  0  0  0
 57136  1  0  0  0
 58137  1  0  0  0
 59 60  1  0  0  0
 59 61  1  0  0  0
 59 62  1  0  0  0
 60138  1  0  0  0
 60139  1  0  0  0
 60140  1  0  0  0
 61141  1  0  0  0
 61142  1  0  0  0
 61143  1  0  0  0
 62144  1  0  0  0
 62145  1  0  0  0
 62146  1  0  0  0
 63 65  1  0  0  0
 63147  1  0  0  0
 63148  1  0  0  0
 63149  1  0  0  0
 64150  1  0  0  0
 65151  1  0  0  0
 68 85  1  0  0  0
 71 74  2  0  0  0
 71 75  1  0  0  0
 71152  1  0  0  0
 72 74  1  0  0  0
 72 76  2  0  0  0
 72153  1  0  0  0
 73 75  2  0  0  0
 73 76  1  0  0  0
 73154  1  0  0  0
 74 79  1  0  0  0
 75 86  1  0  0  0
 76 87  1  0  0  0
 77 81  1  0  0  0
 77 86  1  0  0  0
 77 90  2  0  0  0
 78 82  1  0  0  0
 78 86  1  0  0  0
 78 91  2  0  0  0
 79 88  1  0  0  0
 79 89  2  0  0  0
 80 83  1  0  0  0
 80 88  1  0  0  0
 80 92  2  0  0  0
 81 82  1  0  0  0
 81155  1  0  0  0
 81156  1  0  0  0
 82157  1  0  0  0
 82158  1  0  0  0
 83 84  1  0  0  0
 83159  1  0  0  0
 83160  1  0  0  0
 84 85  1  0  0  0
 84161  1  0  0  0
 84162  1  0  0  0
 85163  1  0  0  0
 85164  1  0  0  0
 87165  1  0  0  0
 88166  1  0  0  0
 89167  1  0  0  0
 89168  1  0  0  0
M  CHG  1  89   1
M  ISO  4   1 100  68 101  85 101  87 100
M  END
> <chiral flag>
0

> <version>
0

> <s_m_source_file>
/data/baiqing/PycharmProjects/Reinvent-master-3.2/result/LINK_invent/BTK/process_docking_weight1_custom_product_contain_oxygen_bond_distance_aromatic_linkinvent_7_9_3/rearranged_h_0063.sdf

> <i_m_source_file_index>
27

> <r_mmod_Potential_Energy-OPLS-2005>
-447.866394042969

> <r_mmod_Stretch_Energy-OPLS-2005>
33.1449813842773

> <r_mmod_Bend_Energy-OPLS-2005>
138.620635986328

> <r_mmod_Torsional_Energy-OPLS-2005>
265.012359619141

> <r_mmod_Improper_Torsional_Energy-OPLS-2005>
2.44385075569153

> <r_mmod_Van_der_Waal_Energy-OPLS-2005>
165.676010131836

> <r_mmod_Electrostatic_Energy-OPLS-2005>
-575.654052734375

> <r_mmod_Solvation_Energy-OPLS-2005>
-485.372131347656

> <b_mmod_Minimization_Converged-OPLS-2005>
0

> <r_mmod_RMS_Derivative-OPLS-2005>
2.67798161506653

$$$$
27
                    3D
 Structure written by MMmdl.
160168  0  0  1  0            999 V2000
  -30.6146  -14.8210   20.4454 C   0  0  0  0  0  0
  -30.4301  -12.5072   19.4788 C   0  0  0  0  0  0
  -29.5102  -12.5183   18.2389 C   0  0  0  0  0  0
  -28.0395  -12.3306   18.6548 C   0  0  0  0  0  0
  -27.6342  -13.2443   19.8421 C   0  0  2  0  0  0
  -28.6815  -13.2283   20.9766 C   0  0  0  0  0  0
  -25.2472  -13.8213   20.5719 C   0  0  0  0  0  0
  -24.1777  -13.0435   20.9222 C   0  0  0  0  0  0
  -24.6389  -11.6918   20.8742 C   0  0  0  0  0  0
  -23.9066  -10.4292   21.0396 C   0  0  0  0  0  0
  -24.3619   -9.4212   21.9180 C   0  0  0  0  0  0
  -23.6296   -8.2240   22.0741 C   0  0  0  0  0  0
  -22.4279   -8.0272   21.3532 C   0  0  0  0  0  0
  -21.9915   -9.0243   20.4634 C   0  0  0  0  0  0
  -22.7234  -10.2127   20.3047 C   0  0  0  0  0  0
  -21.6851   -6.0728   22.5277 C   0  0  0  0  0  0
  -21.4012   -6.5638   23.8206 C   0  0  0  0  0  0
  -21.3663   -5.6789   24.9170 C   0  0  0  0  0  0
  -21.6050   -4.3048   24.7218 C   0  0  0  0  0  0
  -21.8823   -3.8143   23.4336 C   0  0  0  0  0  0
  -21.9198   -4.6958   22.3401 C   0  0  0  0  0  0
  -22.7798  -13.5211   21.1886 C   0  0  0  0  0  0
  -22.1663   -4.2144   21.0977 F   0  0  0  0  0  0
  -21.5636   -3.4535   25.7738 F   0  0  0  0  0  0
  -29.9730  -13.5959   20.3820 N   0  0  0  0  0  0
  -26.2905  -12.9451   20.3258 N   0  0  0  0  0  0
  -25.9333  -11.6580   20.5738 N   0  0  0  0  0  0
  -22.0455  -12.8185   22.0441 N   0  0  0  0  0  0
  -25.4150  -15.1938   20.4146 N   0  0  0  0  0  0
  -31.8151  -14.8585   20.1611 O   0  0  0  0  0  0
  -21.6649   -6.8864   21.4234 O   0  0  0  0  0  0
  -22.3481  -14.5523   20.6740 O   0  0  0  0  0  0
  -24.6378  -31.8506   23.1981 C   0  0  0  0  0  0
  -25.9187  -32.4717   23.8341 C   0  0  1  0  0  0
  -27.2126  -27.2177   20.1309 C   0  0  0  0  0  0
  -25.5989  -33.8524   24.2262 N   0  0  0  0  0  0
  -23.4375  -30.4763   21.5400 C   0  0  2  0  0  0
  -24.8883  -28.9256   20.1027 C   0  0  0  0  0  0
  -22.7533  -29.4594   22.4873 C   0  0  0  0  0  0
  -18.0289  -28.1397   22.8468 C   0  0  0  0  0  0
  -24.1486  -36.7243   23.2646 C   0  0  0  0  0  0
  -25.9902  -30.7483   21.3876 C   0  0  0  0  0  0
  -26.0626  -29.3700   20.7259 C   0  0  0  0  0  0
  -27.2291  -28.5262   20.7370 C   0  0  0  0  0  0
  -26.0266  -26.8757   19.4436 C   0  0  0  0  0  0
  -24.8776  -27.6864   19.4483 C   0  0  0  0  0  0
  -23.6603  -29.8163   20.1543 C   0  0  0  0  0  0
  -25.4114  -36.3043   24.0338 C   0  0  1  0  0  0
  -20.5914  -28.3724   23.1225 C   0  0  2  0  0  0
  -20.6782  -26.9433   22.5397 C   0  0  0  0  0  0
  -19.5763  -26.6389   21.5200 C   0  0  0  0  0  0
  -18.1938  -26.7939   22.1603 C   0  0  0  0  0  0
  -19.1551  -28.8871   23.2842 C   0  0  0  0  0  0
  -18.9472  -30.1467   23.8875 C   0  0  0  0  0  0
  -17.6473  -30.6601   24.0556 C   0  0  0  0  0  0
  -25.9064  -34.9417   23.5091 C   0  0  0  0  0  0
  -16.5361  -29.9092   23.6343 C   0  0  0  0  0  0
  -16.7273  -28.6506   23.0364 C   0  0  0  0  0  0
  -26.4548  -31.6554   25.0735 C   0  0  0  0  0  0
  -25.3776  -31.3720   26.1460 C   0  0  0  0  0  0
  -27.0397  -30.2956   24.6274 C   0  0  0  0  0  0
  -27.6114  -32.4297   25.7483 C   0  0  0  0  0  0
  -27.5568  -37.1782   24.8470 C   0  0  0  0  0  0
  -21.4234  -29.3058   22.3605 N   0  0  0  0  0  0
  -26.4274  -37.3756   23.9422 N   0  0  0  0  0  0
  -24.7075  -31.0435   22.0975 N   0  0  0  0  0  0
  -23.4197  -28.8126   23.2998 O   0  0  0  0  0  0
  -28.2097  -26.1965   20.2202 O   0  0  0  0  0  0
  -26.5618  -34.8912   22.4650 O   0  0  0  0  0  0
  -23.5511  -32.1352   23.7242 O   0  0  0  0  0  0
  -31.1885  -20.2097   20.8768 C   0  0  0  0  0  0
  -31.6100  -17.7887   20.9753 C   0  0  0  0  0  0
  -32.0659  -19.1213   21.0996 C   0  0  0  0  0  0
  -29.8254  -20.0264   20.5532 C   0  0  0  0  0  0
  -30.2743  -17.4613   20.6431 C   0  0  0  0  0  0
  -29.3903  -18.6221   20.4554 C   0  0  0  0  0  0
  -33.4576  -19.3276   21.5444 C   0  0  0  0  0  0
  -28.0607  -23.5417   20.6727 C   0  0  0  0  0  0
  -27.7212  -24.9086   20.6485 C   0  0  0  0  0  0
  -33.9992  -20.4867   21.9654 C   0  0  0  0  0  0
  -29.1960  -22.6198   20.2983 C   0  0  0  0  0  0
  -35.6889  -21.7138   23.9329 C   0  0  0  0  0  0
  -36.0794  -19.1723   23.0866 N   0  0  0  0  0  0
  -28.9412  -21.2438   20.4609 N   0  0  0  0  0  0
  -29.8690  -16.0046   20.5823 N   0  0  0  0  0  0
  -30.2780  -23.0311   19.8760 O   0  0  0  0  0  0
  -36.5162  -21.1962   21.4278 O   0  0  0  0  0  0
  -28.0837  -18.3812   20.1892 F   0  0  0  0  0  0
  -35.7224  -20.5832   22.5052 S   0  0  1  0  0  0
  -31.4695  -12.6317   19.1712 H   0  0  0  0  0  0
  -30.3853  -11.5421   19.9859 H   0  0  0  0  0  0
  -29.8070  -11.7344   17.5415 H   0  0  0  0  0  0
  -29.6237  -13.4638   17.7046 H   0  0  0  0  0  0
  -27.9101  -11.2833   18.9307 H   0  0  0  0  0  0
  -27.3787  -12.5016   17.8041 H   0  0  0  0  0  0
  -27.6098  -14.2568   19.4396 H   0  0  0  0  0  0
  -28.7369  -12.2444   21.4446 H   0  0  0  0  0  0
  -28.4042  -13.9304   21.7648 H   0  0  0  0  0  0
  -25.2765   -9.5698   22.4753 H   0  0  0  0  0  0
  -24.0016   -7.4633   22.7461 H   0  0  0  0  0  0
  -21.0852   -8.8744   19.8944 H   0  0  0  0  0  0
  -22.3683  -10.9655   19.6150 H   0  0  0  0  0  0
  -21.1988   -7.6141   23.9706 H   0  0  0  0  0  0
  -21.1487   -6.0520   25.9076 H   0  0  0  0  0  0
  -22.0600   -2.7602   23.2838 H   0  0  0  0  0  0
  -22.4075  -11.9828   22.4807 H   0  0  0  0  0  0
  -21.1060  -13.1181   22.2652 H   0  0  0  0  0  0
  -24.6464  -15.8450   20.5339 H   0  0  0  0  0  0
  -26.2609  -15.6403   20.0857 H   0  0  0  0  0  0
  -26.7261  -32.5346   23.1087 H   0  0  0  0  0  0
  -25.0219  -33.9660   25.0468 H   0  0  0  0  0  0
  -22.7372  -31.3005   21.3927 H   0  0  0  0  0  0
  -23.3769  -35.9552   23.3277 H   0  0  0  0  0  0
  -24.3593  -36.8889   22.2068 H   0  0  0  0  0  0
  -23.7202  -37.6427   23.6672 H   0  0  0  0  0  0
  -26.1405  -31.5089   20.6209 H   0  0  0  0  0  0
  -26.8648  -30.7930   22.0251 H   0  0  0  0  0  0
  -28.1190  -28.8491   21.2584 H   0  0  0  0  0  0
  -25.9622  -25.9224   18.9372 H   0  0  0  0  0  0
  -23.9846  -27.3427   18.9434 H   0  0  0  0  0  0
  -23.7861  -30.5969   19.4027 H   0  0  0  0  0  0
  -22.7771  -29.2552   19.8416 H   0  0  0  0  0  0
  -25.1292  -36.1883   25.0829 H   0  0  0  0  0  0
  -20.9996  -28.3311   24.1351 H   0  0  0  0  0  0
  -20.5660  -26.2351   23.3614 H   0  0  0  0  0  0
  -21.6643  -26.7433   22.1199 H   0  0  0  0  0  0
  -19.6922  -25.6286   21.1248 H   0  0  0  0  0  0
  -19.6702  -27.3186   20.6721 H   0  0  0  0  0  0
  -17.4207  -26.6693   21.4002 H   0  0  0  0  0  0
  -18.0325  -26.0076   22.8990 H   0  0  0  0  0  0
  -19.7954  -30.7277   24.2246 H   0  0  0  0  0  0
  -17.5035  -31.6280   24.5165 H   0  0  0  0  0  0
  -15.5364  -30.2999   23.7688 H   0  0  0  0  0  0
  -15.8666  -28.0817   22.7122 H   0  0  0  0  0  0
  -24.5995  -30.6999   25.7810 H   0  0  0  0  0  0
  -24.8924  -32.2879   26.4833 H   0  0  0  0  0  0
  -25.8124  -30.8961   27.0258 H   0  0  0  0  0  0
  -26.2995  -29.6674   24.1304 H   0  0  0  0  0  0
  -27.4049  -29.7249   25.4823 H   0  0  0  0  0  0
  -27.8890  -30.4191   23.9558 H   0  0  0  0  0  0
  -27.2770  -33.3661   26.1967 H   0  0  0  0  0  0
  -28.3977  -32.6747   25.0322 H   0  0  0  0  0  0
  -28.0724  -31.8465   26.5472 H   0  0  0  0  0  0
  -28.2577  -38.0088   24.7523 H   0  0  0  0  0  0
  -28.1079  -36.2618   24.6281 H   0  0  0  0  0  0
  -27.2292  -37.1394   25.8878 H   0  0  0  0  0  0
  -20.9433  -29.8772   21.6793 H   0  0  0  0  0  0
  -26.0138  -38.2820   24.1454 H   0  0  0  0  0  0
  -31.5640  -21.2132   20.9999 H   0  0  0  0  0  0
  -32.3177  -17.0018   21.1843 H   0  0  0  0  0  0
  -34.0977  -18.4573   21.5190 H   0  0  0  0  0  0
  -27.2579  -22.9799   21.1286 H   0  0  0  0  0  0
  -26.7567  -25.0743   21.1107 H   0  0  0  0  0  0
  -33.4671  -21.4231   22.0271 H   0  0  0  0  0  0
  -35.0029  -21.3347   24.6878 H   0  0  0  0  0  0
  -35.3526  -22.6954   23.6040 H   0  0  0  0  0  0
  -36.6887  -21.8008   24.3535 H   0  0  0  0  0  0
  -35.3806  -18.8699   23.7769 H   0  0  0  0  0  0
  -27.9657  -21.0329   20.6180 H   0  0  0  0  0  0
  -28.8728  -15.8539   20.6206 H   0  0  0  0  0  0
  1 25  1  0  0  0
  1 30  2  0  0  0
  1 85  1  0  0  0
  2  3  1  0  0  0
  2 25  1  0  0  0
  2 90  1  0  0  0
  2 91  1  0  0  0
  3  4  1  0  0  0
  3 92  1  0  0  0
  3 93  1  0  0  0
  4  5  1  0  0  0
  4 94  1  0  0  0
  4 95  1  0  0  0
  5  6  1  0  0  0
  5 26  1  0  0  0
  5 96  1  0  0  0
  6 25  1  0  0  0
  6 97  1  0  0  0
  6 98  1  0  0  0
  7  8  2  0  0  0
  7 26  1  0  0  0
  7 29  1  0  0  0
  8  9  1  0  0  0
  8 22  1  0  0  0
  9 10  1  0  0  0
  9 27  2  0  0  0
 10 11  2  0  0  0
 10 15  1  0  0  0
 11 12  1  0  0  0
 11 99  1  0  0  0
 12 13  2  0  0  0
 12100  1  0  0  0
 13 14  1  0  0  0
 13 31  1  0  0  0
 14 15  2  0  0  0
 14101  1  0  0  0
 15102  1  0  0  0
 16 17  2  0  0  0
 16 21  1  0  0  0
 16 31  1  0  0  0
 17 18  1  0  0  0
 17103  1  0  0  0
 18 19  2  0  0  0
 18104  1  0  0  0
 19 20  1  0  0  0
 19 24  1  0  0  0
 20 21  2  0  0  0
 20105  1  0  0  0
 21 23  1  0  0  0
 22 28  1  0  0  0
 22 32  2  0  0  0
 26 27  1  0  0  0
 28106  1  0  0  0
 28107  1  0  0  0
 29108  1  0  0  0
 29109  1  0  0  0
 33 34  1  0  0  0
 33 66  1  0  0  0
 33 70  2  0  0  0
 34 36  1  0  0  0
 34 59  1  0  0  0
 34110  1  0  0  0
 35 44  2  0  0  0
 35 45  1  0  0  0
 35 68  1  0  0  0
 36 56  1  0  0  0
 36111  1  0  0  0
 37 39  1  0  0  0
 37 47  1  0  0  0
 37 66  1  0  0  0
 37112  1  0  0  0
 38 43  2  0  0  0
 38 46  1  0  0  0
 38 47  1  0  0  0
 39 64  1  0  0  0
 39 67  2  0  0  0
 40 52  1  0  0  0
 40 53  2  0  0  0
 40 58  1  0  0  0
 41113  1  0  0  0
 41114  1  0  0  0
 41115  1  0  0  0
 41 48  1  0  0  0
 42 43  1  0  0  0
 42 66  1  0  0  0
 42116  1  0  0  0
 42117  1  0  0  0
 43 44  1  0  0  0
 44118  1  0  0  0
 45 46  2  0  0  0
 45119  1  0  0  0
 46120  1  0  0  0
 47121  1  0  0  0
 47122  1  0  0  0
 48 56  1  0  0  0
 48 65  1  0  0  0
 48123  1  0  0  0
 49 50  1  0  0  0
 49 53  1  0  0  0
 49 64  1  0  0  0
 49124  1  0  0  0
 50 51  1  0  0  0
 50125  1  0  0  0
 50126  1  0  0  0
 51 52  1  0  0  0
 51127  1  0  0  0
 51128  1  0  0  0
 52129  1  0  0  0
 52130  1  0  0  0
 53 54  1  0  0  0
 54 55  2  0  0  0
 54131  1  0  0  0
 55 57  1  0  0  0
 55132  1  0  0  0
 56 69  2  0  0  0
 57 58  2  0  0  0
 57133  1  0  0  0
 58134  1  0  0  0
 59 60  1  0  0  0
 59 61  1  0  0  0
 59 62  1  0  0  0
 60135  1  0  0  0
 60136  1  0  0  0
 60137  1  0  0  0
 61138  1  0  0  0
 61139  1  0  0  0
 61140  1  0  0  0
 62141  1  0  0  0
 62142  1  0  0  0
 62143  1  0  0  0
 63 65  1  0  0  0
 63144  1  0  0  0
 63145  1  0  0  0
 63146  1  0  0  0
 64147  1  0  0  0
 65148  1  0  0  0
 68 79  1  0  0  0
 71 73  2  0  0  0
 71 74  1  0  0  0
 71149  1  0  0  0
 72 73  1  0  0  0
 72 75  2  0  0  0
 72150  1  0  0  0
 73 77  1  0  0  0
 74 76  2  0  0  0
 74 84  1  0  0  0
 75 76  1  0  0  0
 75 85  1  0  0  0
 76 88  1  0  0  0
 77 80  2  0  0  0
 77151  1  0  0  0
 78 79  2  0  0  0
 78 81  1  0  0  0
 78152  1  0  0  0
 79153  1  0  0  0
 80 89  1  0  0  0
 80154  1  0  0  0
 81 84  1  0  0  0
 81 86  2  0  0  0
 82155  1  0  0  0
 82156  1  0  0  0
 82157  1  0  0  0
 82 89  1  0  0  0
 83 89  2  0  0  0
 83158  1  0  0  0
 84159  1  0  0  0
 85160  1  0  0  0
 87 89  2  0  0  0
M  ISO  4   1 100  68 101  79 101  85 100
M  END
> <chiral flag>
0

> <version>
0

> <s_m_source_file>
/data/baiqing/PycharmProjects/Reinvent-master-3.2/result/LINK_invent/BTK/process_docking_weight1_custom_product_contain_oxygen_bond_distance_aromatic_linkinvent_7_9_3/rearranged_h_0063.sdf

> <i_m_source_file_index>
28

> <r_mmod_Potential_Energy-OPLS-2005>
16.2834053039551

> <r_mmod_Stretch_Energy-OPLS-2005>
159.754928588867

> <r_mmod_Bend_Energy-OPLS-2005>
258.163238525391

> <r_mmod_Torsional_Energy-OPLS-2005>
229.764785766602

> <r_mmod_Improper_Torsional_Energy-OPLS-2005>
6.35293483734131

> <r_mmod_Van_der_Waal_Energy-OPLS-2005>
147.043365478516

> <r_mmod_Electrostatic_Energy-OPLS-2005>
-620.589782714844

> <r_mmod_Solvation_Energy-OPLS-2005>
-296.394226074219

> <b_mmod_Minimization_Converged-OPLS-2005>
0

> <r_mmod_RMS_Derivative-OPLS-2005>
2.22219061851501

$$$$
28
                    3D
 Structure written by MMmdl.
165174  0  0  1  0            999 V2000
  -30.7056  -14.4681   20.6442 C   0  0  0  0  0  0
  -30.4427  -12.3347   19.4001 C   0  0  0  0  0  0
  -29.4923  -12.5202   18.1982 C   0  0  0  0  0  0
  -28.0166  -12.3750   18.6175 C   0  0  0  0  0  0
  -27.6719  -13.2045   19.8812 C   0  0  2  0  0  0
  -28.7169  -12.9542   20.9914 C   0  0  0  0  0  0
  -25.2640  -13.8175   20.5688 C   0  0  0  0  0  0
  -24.1876  -13.0460   20.9167 C   0  0  0  0  0  0
  -24.6422  -11.6918   20.8733 C   0  0  0  0  0  0
  -23.9083  -10.4307   21.0408 C   0  0  0  0  0  0
  -24.3625   -9.4217   21.9189 C   0  0  0  0  0  0
  -23.6296   -8.2254   22.0759 C   0  0  0  0  0  0
  -22.4278   -8.0292   21.3553 C   0  0  0  0  0  0
  -21.9921   -9.0267   20.4652 C   0  0  0  0  0  0
  -22.7256  -10.2146   20.3058 C   0  0  0  0  0  0
  -21.6851   -6.0742   22.5285 C   0  0  0  0  0  0
  -21.4012   -6.5646   23.8219 C   0  0  0  0  0  0
  -21.3658   -5.6796   24.9183 C   0  0  0  0  0  0
  -21.6043   -4.3057   24.7230 C   0  0  0  0  0  0
  -21.8820   -3.8154   23.4351 C   0  0  0  0  0  0
  -21.9194   -4.6970   22.3408 C   0  0  0  0  0  0
  -22.7894  -13.5250   21.1837 C   0  0  0  0  0  0
  -22.1660   -4.2157   21.0983 F   0  0  0  0  0  0
  -21.5629   -3.4539   25.7741 F   0  0  0  0  0  0
  -30.0578  -13.2806   20.4599 N   0  0  0  0  0  0
  -26.3093  -12.9341   20.3415 N   0  0  0  0  0  0
  -25.9357  -11.6498   20.5789 N   0  0  0  0  0  0
  -22.0532  -12.8242   22.0393 N   0  0  0  0  0  0
  -25.4403  -15.1890   20.4102 N   0  0  0  0  0  0
  -31.7037  -14.8064   20.0017 O   0  0  0  0  0  0
  -21.6642   -6.8890   21.4249 O   0  0  0  0  0  0
  -22.3573  -14.5557   20.6694 O   0  0  0  0  0  0
  -24.6197  -31.8650   23.2095 C   0  0  0  0  0  0
  -25.9076  -32.4812   23.8379 C   0  0  1  0  0  0
  -27.2331  -27.3958   20.0868 C   0  0  0  0  0  0
  -25.5928  -33.8608   24.2314 N   0  0  0  0  0  0
  -23.4074  -30.4913   21.5526 C   0  0  2  0  0  0
  -24.8514  -28.9534   20.1168 C   0  0  0  0  0  0
  -22.7429  -29.4646   22.4996 C   0  0  0  0  0  0
  -18.0269  -28.1369   22.8472 C   0  0  0  0  0  0
  -24.1484  -36.7301   23.2638 C   0  0  0  0  0  0
  -25.9416  -30.8205   21.3654 C   0  0  0  0  0  0
  -26.0179  -29.4526   20.7090 C   0  0  0  0  0  0
  -27.2112  -28.6843   20.6844 C   0  0  0  0  0  0
  -26.0370  -26.9216   19.4971 C   0  0  0  0  0  0
  -24.8588  -27.6894   19.5072 C   0  0  0  0  0  0
  -23.6180  -29.8274   20.1670 C   0  0  0  0  0  0
  -25.4107  -36.3107   24.0341 C   0  0  1  0  0  0
  -20.5864  -28.3657   23.1305 C   0  0  2  0  0  0
  -20.6762  -26.9393   22.5407 C   0  0  0  0  0  0
  -19.5744  -26.6377   21.5195 C   0  0  0  0  0  0
  -18.1920  -26.7908   22.1602 C   0  0  0  0  0  0
  -19.1524  -28.8828   23.2878 C   0  0  0  0  0  0
  -18.9454  -30.1432   23.8891 C   0  0  0  0  0  0
  -17.6463  -30.6577   24.0561 C   0  0  0  0  0  0
  -25.9045  -34.9472   23.5123 C   0  0  0  0  0  0
  -16.5349  -29.9087   23.6331 C   0  0  0  0  0  0
  -16.7259  -28.6504   23.0346 C   0  0  0  0  0  0
  -26.4484  -31.6597   25.0715 C   0  0  0  0  0  0
  -25.3747  -31.3695   26.1461 C   0  0  0  0  0  0
  -27.0331  -30.3053   24.6075 C   0  0  0  0  0  0
  -27.6050  -32.4323   25.7477 C   0  0  0  0  0  0
  -27.5581  -37.1812   24.8473 C   0  0  0  0  0  0
  -21.4156  -29.3029   22.3728 N   0  0  0  0  0  0
  -26.4292  -37.3801   23.9416 N   0  0  0  0  0  0
  -24.6750  -31.0730   22.1012 N   0  0  0  0  0  0
  -23.4182  -28.8171   23.3038 O   0  0  0  0  0  0
  -28.4049  -26.6468   20.0739 O   0  0  0  0  0  0
  -26.5599  -34.8924   22.4682 O   0  0  0  0  0  0
  -23.5387  -32.1416   23.7481 O   0  0  0  0  0  0
  -28.6582  -16.5866   22.7195 C   0  0  0  0  0  0
  -30.0731  -17.6660   21.0523 C   0  0  0  0  0  0
  -27.9987  -17.7976   22.9778 C   0  0  0  0  0  0
  -28.3532  -18.9631   22.2614 C   0  0  0  0  0  0
  -29.4134  -18.9138   21.3105 C   0  0  0  0  0  0
  -29.6856  -16.4894   21.7644 C   0  0  0  0  0  0
  -30.6159  -22.4073   21.0302 C   0  0  0  0  0  0
  -29.7218  -22.9686   20.1860 C   0  0  0  0  0  0
  -30.6872  -20.9763   21.3453 C   0  0  0  0  0  0
  -28.7645  -22.0934   19.3932 C   0  0  0  0  0  0
  -29.1341  -20.5829   19.4542 C   0  0  0  0  0  0
  -26.9311  -17.8214   24.0594 C   0  0  0  0  0  0
  -27.6231  -20.2737   22.5580 C   0  0  0  0  0  0
  -29.6859  -24.4973   19.9482 C   0  0  0  0  0  0
  -28.3009  -25.1993   20.0259 C   0  0  0  0  0  0
  -29.8169  -20.1556   20.6912 N   0  0  0  0  0  0
  -30.2569  -15.1770   21.6923 N   0  0  0  0  0  0
  -31.4836  -20.5422   22.1848 O   0  0  0  0  0  0
  -31.4778  -12.4758   19.0828 H   0  0  0  0  0  0
  -30.3889  -11.3138   19.7803 H   0  0  0  0  0  0
  -29.7273  -11.7907   17.4217 H   0  0  0  0  0  0
  -29.6526  -13.5036   17.7521 H   0  0  0  0  0  0
  -27.8231  -11.3176   18.8024 H   0  0  0  0  0  0
  -27.3637  -12.6610   17.7922 H   0  0  0  0  0  0
  -27.7269  -14.2576   19.6036 H   0  0  0  0  0  0
  -28.6987  -11.9073   21.2957 H   0  0  0  0  0  0
  -28.4478  -13.5137   21.8869 H   0  0  0  0  0  0
  -25.2769   -9.5685   22.4764 H   0  0  0  0  0  0
  -24.0007   -7.4642   22.7470 H   0  0  0  0  0  0
  -21.0860   -8.8791   19.8944 H   0  0  0  0  0  0
  -22.3727  -10.9687   19.6160 H   0  0  0  0  0  0
  -21.1999   -7.6149   23.9728 H   0  0  0  0  0  0
  -21.1476   -6.0522   25.9087 H   0  0  0  0  0  0
  -22.0599   -2.7615   23.2852 H   0  0  0  0  0  0
  -22.4131  -11.9883   22.4757 H   0  0  0  0  0  0
  -21.1154  -13.1283   22.2619 H   0  0  0  0  0  0
  -24.6877  -15.8558   20.5393 H   0  0  0  0  0  0
  -26.3152  -15.6254   20.1485 H   0  0  0  0  0  0
  -26.7142  -32.5519   23.1132 H   0  0  0  0  0  0
  -25.0118  -33.9746   25.0486 H   0  0  0  0  0  0
  -22.6977  -31.3114   21.4153 H   0  0  0  0  0  0
  -23.3754  -35.9627   23.3316 H   0  0  0  0  0  0
  -24.3585  -36.8903   22.2052 H   0  0  0  0  0  0
  -23.7221  -37.6504   23.6641 H   0  0  0  0  0  0
  -26.0553  -31.5881   20.5991 H   0  0  0  0  0  0
  -26.8297  -30.8743   21.9839 H   0  0  0  0  0  0
  -28.1141  -29.0716   21.1359 H   0  0  0  0  0  0
  -25.9826  -25.9628   19.0072 H   0  0  0  0  0  0
  -23.9623  -27.2971   19.0465 H   0  0  0  0  0  0
  -23.7379  -30.6063   19.4131 H   0  0  0  0  0  0
  -22.7390  -29.2567   19.8629 H   0  0  0  0  0  0
  -25.1288  -36.1972   25.0841 H   0  0  0  0  0  0
  -20.9926  -28.3218   24.1440 H   0  0  0  0  0  0
  -20.5657  -26.2268   23.3595 H   0  0  0  0  0  0
  -21.6636  -26.7449   22.1202 H   0  0  0  0  0  0
  -19.6917  -25.6293   21.1226 H   0  0  0  0  0  0
  -19.6683  -27.3187   20.6721 H   0  0  0  0  0  0
  -17.4188  -26.6638   21.4009 H   0  0  0  0  0  0
  -18.0333  -26.0032   22.8986 H   0  0  0  0  0  0
  -19.7941  -30.7225   24.2271 H   0  0  0  0  0  0
  -17.5039  -31.6264   24.5155 H   0  0  0  0  0  0
  -15.5360  -30.3005   23.7662 H   0  0  0  0  0  0
  -15.8639  -28.0851   22.7052 H   0  0  0  0  0  0
  -24.5922  -30.7035   25.7803 H   0  0  0  0  0  0
  -24.8928  -32.2847   26.4909 H   0  0  0  0  0  0
  -25.8101  -30.8869   27.0217 H   0  0  0  0  0  0
  -26.2880  -29.6795   24.1146 H   0  0  0  0  0  0
  -27.4162  -29.7294   25.4508 H   0  0  0  0  0  0
  -27.8680  -30.4409   23.9188 H   0  0  0  0  0  0
  -27.2673  -33.3630   26.2043 H   0  0  0  0  0  0
  -28.3862  -32.6877   25.0302 H   0  0  0  0  0  0
  -28.0706  -31.8451   26.5400 H   0  0  0  0  0  0
  -28.2615  -38.0097   24.7539 H   0  0  0  0  0  0
  -28.1062  -36.2634   24.6287 H   0  0  0  0  0  0
  -27.2301  -37.1459   25.8878 H   0  0  0  0  0  0
  -20.9319  -29.8789   21.6988 H   0  0  0  0  0  0
  -26.0177  -38.2882   24.1423 H   0  0  0  0  0  0
  -28.3713  -15.7082   23.2824 H   0  0  0  0  0  0
  -30.8895  -17.6267   20.3436 H   0  0  0  0  0  0
  -31.3047  -23.0522   21.5539 H   0  0  0  0  0  0
  -28.7419  -22.4209   18.3526 H   0  0  0  0  0  0
  -27.7578  -22.2506   19.7818 H   0  0  0  0  0  0
  -29.8095  -20.3533   18.6280 H   0  0  0  0  0  0
  -28.2429  -19.9761   19.2865 H   0  0  0  0  0  0
  -26.9189  -16.8928   24.6304 H   0  0  0  0  0  0
  -25.9429  -17.9565   23.6207 H   0  0  0  0  0  0
  -27.1137  -18.6334   24.7653 H   0  0  0  0  0  0
  -26.6153  -20.1172   22.9402 H   0  0  0  0  0  0
  -27.4987  -20.8823   21.6659 H   0  0  0  0  0  0
  -28.1781  -20.8535   23.2952 H   0  0  0  0  0  0
  -30.1229  -24.6942   18.9693 H   0  0  0  0  0  0
  -30.3497  -24.9737   20.6705 H   0  0  0  0  0  0
  -27.7421  -24.8698   19.1520 H   0  0  0  0  0  0
  -27.7586  -24.8597   20.9103 H   0  0  0  0  0  0
  -29.8015  -14.5466   22.3345 H   0  0  0  0  0  0
  1 25  1  0  0  0
  1 30  2  0  0  0
  1 87  1  0  0  0
  2  3  1  0  0  0
  2 25  1  0  0  0
  2 89  1  0  0  0
  2 90  1  0  0  0
  3  4  1  0  0  0
  3 91  1  0  0  0
  3 92  1  0  0  0
  4  5  1  0  0  0
  4 93  1  0  0  0
  4 94  1  0  0  0
  5  6  1  0  0  0
  5 26  1  0  0  0
  5 95  1  0  0  0
  6 25  1  0  0  0
  6 96  1  0  0  0
  6 97  1  0  0  0
  7  8  2  0  0  0
  7 26  1  0  0  0
  7 29  1  0  0  0
  8  9  1  0  0  0
  8 22  1  0  0  0
  9 10  1  0  0  0
  9 27  2  0  0  0
 10 11  2  0  0  0
 10 15  1  0  0  0
 11 12  1  0  0  0
 11 98  1  0  0  0
 12 13  2  0  0  0
 12 99  1  0  0  0
 13 14  1  0  0  0
 13 31  1  0  0  0
 14 15  2  0  0  0
 14100  1  0  0  0
 15101  1  0  0  0
 16 17  2  0  0  0
 16 21  1  0  0  0
 16 31  1  0  0  0
 17 18  1  0  0  0
 17102  1  0  0  0
 18 19  2  0  0  0
 18103  1  0  0  0
 19 20  1  0  0  0
 19 24  1  0  0  0
 20 21  2  0  0  0
 20104  1  0  0  0
 21 23  1  0  0  0
 22 28  1  0  0  0
 22 32  2  0  0  0
 26 27  1  0  0  0
 28105  1  0  0  0
 28106  1  0  0  0
 29107  1  0  0  0
 29108  1  0  0  0
 33 34  1  0  0  0
 33 66  1  0  0  0
 33 70  2  0  0  0
 34 36  1  0  0  0
 34 59  1  0  0  0
 34109  1  0  0  0
 35 44  2  0  0  0
 35 45  1  0  0  0
 35 68  1  0  0  0
 36 56  1  0  0  0
 36110  1  0  0  0
 37 39  1  0  0  0
 37 47  1  0  0  0
 37 66  1  0  0  0
 37111  1  0  0  0
 38 43  2  0  0  0
 38 46  1  0  0  0
 38 47  1  0  0  0
 39 64  1  0  0  0
 39 67  2  0  0  0
 40 52  1  0  0  0
 40 53  2  0  0  0
 40 58  1  0  0  0
 41112  1  0  0  0
 41113  1  0  0  0
 41114  1  0  0  0
 41 48  1  0  0  0
 42 43  1  0  0  0
 42 66  1  0  0  0
 42115  1  0  0  0
 42116  1  0  0  0
 43 44  1  0  0  0
 44117  1  0  0  0
 45 46  2  0  0  0
 45118  1  0  0  0
 46119  1  0  0  0
 47120  1  0  0  0
 47121  1  0  0  0
 48 56  1  0  0  0
 48 65  1  0  0  0
 48122  1  0  0  0
 49 50  1  0  0  0
 49 53  1  0  0  0
 49 64  1  0  0  0
 49123  1  0  0  0
 50 51  1  0  0  0
 50124  1  0  0  0
 50125  1  0  0  0
 51 52  1  0  0  0
 51126  1  0  0  0
 51127  1  0  0  0
 52128  1  0  0  0
 52129  1  0  0  0
 53 54  1  0  0  0
 54 55  2  0  0  0
 54130  1  0  0  0
 55 57  1  0  0  0
 55131  1  0  0  0
 56 69  2  0  0  0
 57 58  2  0  0  0
 57132  1  0  0  0
 58133  1  0  0  0
 59 60  1  0  0  0
 59 61  1  0  0  0
 59 62  1  0  0  0
 60134  1  0  0  0
 60135  1  0  0  0
 60136  1  0  0  0
 61137  1  0  0  0
 61138  1  0  0  0
 61139  1  0  0  0
 62140  1  0  0  0
 62141  1  0  0  0
 62142  1  0  0  0
 63 65  1  0  0  0
 63143  1  0  0  0
 63144  1  0  0  0
 63145  1  0  0  0
 64146  1  0  0  0
 65147  1  0  0  0
 68 85  1  0  0  0
 71 73  2  0  0  0
 71 76  1  0  0  0
 71148  1  0  0  0
 72 75  1  0  0  0
 72 76  2  0  0  0
 72149  1  0  0  0
 73 74  1  0  0  0
 73 82  1  0  0  0
 74 75  2  0  0  0
 74 83  1  0  0  0
 75 86  1  0  0  0
 76 87  1  0  0  0
 77 78  2  0  0  0
 77 79  1  0  0  0
 77150  1  0  0  0
 78 80  1  0  0  0
 78 84  1  0  0  0
 79 86  1  0  0  0
 79 88  2  0  0  0
 80 81  1  0  0  0
 80151  1  0  0  0
 80152  1  0  0  0
 81 86  1  0  0  0
 81153  1  0  0  0
 81154  1  0  0  0
 82155  1  0  0  0
 82156  1  0  0  0
 82157  1  0  0  0
 83158  1  0  0  0
 83159  1  0  0  0
 83160  1  0  0  0
 84 85  1  0  0  0
 84161  1  0  0  0
 84162  1  0  0  0
 85163  1  0  0  0
 85164  1  0  0  0
 87165  1  0  0  0
M  ISO  4   1 100  68 101  85 101  87 100
M  END
> <chiral flag>
0

> <version>
0

> <s_m_source_file>
/data/baiqing/PycharmProjects/Reinvent-master-3.2/result/LINK_invent/BTK/process_docking_weight1_custom_product_contain_oxygen_bond_distance_aromatic_linkinvent_7_9_3/rearranged_h_0063.sdf

> <i_m_source_file_index>
29

> <r_mmod_Potential_Energy-OPLS-2005>
113.736915588379

> <r_mmod_Stretch_Energy-OPLS-2005>
53.1445503234863

> <r_mmod_Bend_Energy-OPLS-2005>
131.358261108398

> <r_mmod_Torsional_Energy-OPLS-2005>
311.400848388672

> <r_mmod_Improper_Torsional_Energy-OPLS-2005>
6.84020900726318

> <r_mmod_Van_der_Waal_Energy-OPLS-2005>
160.679458618164

> <r_mmod_Electrostatic_Energy-OPLS-2005>
-344.215728759766

> <r_mmod_Solvation_Energy-OPLS-2005>
-221.710464477539

> <b_mmod_Minimization_Converged-OPLS-2005>
0

> <r_mmod_RMS_Derivative-OPLS-2005>
1.82704079151154

$$$$
30
                    3D
 Structure written by MMmdl.
150158  0  0  1  0            999 V2000
  -30.5700  -14.7720   20.4565 C   0  0  0  0  0  0
  -30.4382  -12.4713   19.4885 C   0  0  0  0  0  0
  -29.5176  -12.5228   18.2476 C   0  0  0  0  0  0
  -28.0385  -12.3531   18.6460 C   0  0  0  0  0  0
  -27.6437  -13.2374   19.8591 C   0  0  2  0  0  0
  -28.6855  -13.1469   20.9968 C   0  0  0  0  0  0
  -25.2494  -13.8216   20.5710 C   0  0  0  0  0  0
  -24.1786  -13.0439   20.9188 C   0  0  0  0  0  0
  -24.6391  -11.6924   20.8706 C   0  0  0  0  0  0
  -23.9071  -10.4299   21.0376 C   0  0  0  0  0  0
  -24.3623   -9.4225   21.9162 C   0  0  0  0  0  0
  -23.6303   -8.2255   22.0742 C   0  0  0  0  0  0
  -22.4284   -8.0271   21.3535 C   0  0  0  0  0  0
  -21.9920   -9.0242   20.4637 C   0  0  0  0  0  0
  -22.7242  -10.2124   20.3034 C   0  0  0  0  0  0
  -21.6858   -6.0728   22.5282 C   0  0  0  0  0  0
  -21.4023   -6.5632   23.8218 C   0  0  0  0  0  0
  -21.3660   -5.6781   24.9175 C   0  0  0  0  0  0
  -21.6045   -4.3046   24.7227 C   0  0  0  0  0  0
  -21.8819   -3.8136   23.4349 C   0  0  0  0  0  0
  -21.9205   -4.6955   22.3405 C   0  0  0  0  0  0
  -22.7811  -13.5217   21.1857 C   0  0  0  0  0  0
  -22.1664   -4.2143   21.0981 F   0  0  0  0  0  0
  -21.5627   -3.4526   25.7740 F   0  0  0  0  0  0
  -29.9878  -13.5216   20.4336 N   0  0  0  0  0  0
  -26.2933  -12.9435   20.3298 N   0  0  0  0  0  0
  -25.9330  -11.6563   20.5739 N   0  0  0  0  0  0
  -22.0465  -12.8200   22.0407 N   0  0  0  0  0  0
  -25.4164  -15.1952   20.4178 N   0  0  0  0  0  0
  -31.7290  -14.9060   20.0501 O   0  0  0  0  0  0
  -21.6641   -6.8868   21.4240 O   0  0  0  0  0  0
  -22.3498  -14.5522   20.6708 O   0  0  0  0  0  0
  -24.6333  -31.8534   23.1985 C   0  0  0  0  0  0
  -25.9150  -32.4749   23.8346 C   0  0  1  0  0  0
  -27.2184  -27.2308   20.1299 C   0  0  0  0  0  0
  -25.5936  -33.8555   24.2262 N   0  0  0  0  0  0
  -23.4333  -30.4767   21.5410 C   0  0  2  0  0  0
  -24.8824  -28.9242   20.1080 C   0  0  0  0  0  0
  -22.7513  -29.4607   22.4897 C   0  0  0  0  0  0
  -18.0309  -28.1391   22.8470 C   0  0  0  0  0  0
  -24.1491  -36.7275   23.2639 C   0  0  0  0  0  0
  -25.9841  -30.7524   21.3898 C   0  0  0  0  0  0
  -26.0554  -29.3756   20.7255 C   0  0  0  0  0  0
  -27.2235  -28.5407   20.7300 C   0  0  0  0  0  0
  -26.0243  -26.8668   19.4650 C   0  0  0  0  0  0
  -24.8739  -27.6774   19.4671 C   0  0  0  0  0  0
  -23.6547  -29.8147   20.1564 C   0  0  0  0  0  0
  -25.4121  -36.3076   24.0332 C   0  0  1  0  0  0
  -20.5907  -28.3702   23.1224 C   0  0  2  0  0  0
  -20.6809  -26.9430   22.5322 C   0  0  0  0  0  0
  -19.5754  -26.6408   21.5155 C   0  0  0  0  0  0
  -18.1958  -26.7917   22.1620 C   0  0  0  0  0  0
  -19.1567  -28.8861   23.2857 C   0  0  0  0  0  0
  -18.9494  -30.1460   23.8883 C   0  0  0  0  0  0
  -17.6498  -30.6593   24.0547 C   0  0  0  0  0  0
  -25.9057  -34.9441   23.5098 C   0  0  0  0  0  0
  -16.5387  -29.9090   23.6331 C   0  0  0  0  0  0
  -16.7301  -28.6506   23.0342 C   0  0  0  0  0  0
  -26.4499  -31.6584   25.0752 C   0  0  0  0  0  0
  -25.3720  -31.3729   26.1471 C   0  0  0  0  0  0
  -27.0357  -30.2999   24.6281 C   0  0  0  0  0  0
  -27.6041  -32.4337   25.7526 C   0  0  0  0  0  0
  -27.5586  -37.1810   24.8473 C   0  0  0  0  0  0
  -21.4211  -29.3085   22.3646 N   0  0  0  0  0  0
  -26.4301  -37.3779   23.9403 N   0  0  0  0  0  0
  -24.7026  -31.0474   22.0984 N   0  0  0  0  0  0
  -23.4177  -28.8122   23.3002 O   0  0  0  0  0  0
  -28.2907  -26.2987   20.2060 O   0  0  0  0  0  0
  -26.5627  -34.8924   22.4671 O   0  0  0  0  0  0
  -23.5470  -32.1370   23.7252 O   0  0  0  0  0  0
  -28.8908  -18.3733   18.1403 C   0  0  0  0  0  0
  -28.9302  -19.6315   18.7796 C   0  0  0  0  0  0
  -29.2400  -17.1860   18.8159 C   0  0  0  0  0  0
  -29.3049  -19.7613   20.1366 C   0  0  0  0  0  0
  -29.6138  -17.1933   20.1760 C   0  0  0  0  0  0
  -29.6172  -18.5010   20.8286 C   0  0  0  0  0  0
  -29.4806  -21.2035   20.7394 C   0  0  0  0  0  0
  -28.9991  -23.6955   20.5098 C   0  0  0  0  0  0
  -28.0281  -24.8300   19.9045 C   0  0  0  0  0  0
  -29.8070  -15.8703   20.8387 N   0  0  0  0  0  0
  -28.8227  -22.3305   20.2299 N   0  0  0  0  0  0
  -30.2513  -21.3019   21.6976 O   0  0  0  0  0  0
  -29.9180  -24.0979   21.2334 O   0  0  0  0  0  0
  -29.9202  -18.5244   22.1494 F   0  0  0  0  0  0
  -31.4783  -12.6090   19.1885 H   0  0  0  0  0  0
  -30.3962  -11.4912   19.9661 H   0  0  0  0  0  0
  -29.8062  -11.7523   17.5316 H   0  0  0  0  0  0
  -29.6484  -13.4783   17.7388 H   0  0  0  0  0  0
  -27.8739  -11.3013   18.8839 H   0  0  0  0  0  0
  -27.3955  -12.5747   17.7942 H   0  0  0  0  0  0
  -27.6441  -14.2658   19.4962 H   0  0  0  0  0  0
  -28.7285  -12.1347   21.3995 H   0  0  0  0  0  0
  -28.4155  -13.7928   21.8323 H   0  0  0  0  0  0
  -25.2761   -9.5713   22.4740 H   0  0  0  0  0  0
  -24.0012   -7.4654   22.7474 H   0  0  0  0  0  0
  -21.0842   -8.8750   19.8956 H   0  0  0  0  0  0
  -22.3679  -10.9649   19.6137 H   0  0  0  0  0  0
  -21.2004   -7.6139   23.9719 H   0  0  0  0  0  0
  -21.1486   -6.0509   25.9083 H   0  0  0  0  0  0
  -22.0603   -2.7602   23.2848 H   0  0  0  0  0  0
  -22.4103  -11.9872   22.4804 H   0  0  0  0  0  0
  -21.1082  -13.1208   22.2619 H   0  0  0  0  0  0
  -24.6478  -15.8465   20.5403 H   0  0  0  0  0  0
  -26.2658  -15.6430   20.0991 H   0  0  0  0  0  0
  -26.7213  -32.5396   23.1071 H   0  0  0  0  0  0
  -25.0101  -33.9681   25.0424 H   0  0  0  0  0  0
  -22.7325  -31.3013   21.3938 H   0  0  0  0  0  0
  -23.3773  -35.9590   23.3307 H   0  0  0  0  0  0
  -24.3570  -36.8892   22.2053 H   0  0  0  0  0  0
  -23.7237  -37.6473   23.6657 H   0  0  0  0  0  0
  -26.1380  -31.5150   20.6249 H   0  0  0  0  0  0
  -26.8555  -30.7943   22.0329 H   0  0  0  0  0  0
  -28.1131  -28.8766   21.2452 H   0  0  0  0  0  0
  -25.9406  -25.9234   18.9484 H   0  0  0  0  0  0
  -23.9787  -27.3264   18.9725 H   0  0  0  0  0  0
  -23.7866  -30.5966   19.4068 H   0  0  0  0  0  0
  -22.7723  -29.2509   19.8446 H   0  0  0  0  0  0
  -25.1310  -36.1929   25.0830 H   0  0  0  0  0  0
  -20.9997  -28.3230   24.1347 H   0  0  0  0  0  0
  -20.5763  -26.2310   23.3511 H   0  0  0  0  0  0
  -21.6665  -26.7500   22.1066 H   0  0  0  0  0  0
  -19.6945  -25.6341   21.1143 H   0  0  0  0  0  0
  -19.6658  -27.3252   20.6712 H   0  0  0  0  0  0
  -17.4166  -26.6541   21.4096 H   0  0  0  0  0  0
  -18.0458  -26.0067   22.9038 H   0  0  0  0  0  0
  -19.7967  -30.7297   24.2258 H   0  0  0  0  0  0
  -17.5053  -31.6251   24.5197 H   0  0  0  0  0  0
  -15.5391  -30.2983   23.7688 H   0  0  0  0  0  0
  -15.8712  -28.0806   22.7083 H   0  0  0  0  0  0
  -24.5900  -30.7067   25.7806 H   0  0  0  0  0  0
  -24.8893  -32.2887   26.4900 H   0  0  0  0  0  0
  -25.8034  -30.8910   27.0258 H   0  0  0  0  0  0
  -26.2957  -29.6745   24.1272 H   0  0  0  0  0  0
  -27.3983  -29.7263   25.4823 H   0  0  0  0  0  0
  -27.8864  -30.4256   23.9580 H   0  0  0  0  0  0
  -27.2638  -33.3642   26.2081 H   0  0  0  0  0  0
  -28.3858  -32.6899   25.0363 H   0  0  0  0  0  0
  -28.0709  -31.8490   26.5461 H   0  0  0  0  0  0
  -28.2620  -38.0092   24.7517 H   0  0  0  0  0  0
  -28.1065  -36.2629   24.6312 H   0  0  0  0  0  0
  -27.2290  -37.1480   25.8871 H   0  0  0  0  0  0
  -20.9369  -29.8808   21.6872 H   0  0  0  0  0  0
  -26.0181  -38.2857   24.1395 H   0  0  0  0  0  0
  -28.5889  -18.3109   17.1033 H   0  0  0  0  0  0
  -28.6852  -20.5065   18.1940 H   0  0  0  0  0  0
  -29.1735  -16.2510   18.2795 H   0  0  0  0  0  0
  -27.0340  -24.5632   20.2633 H   0  0  0  0  0  0
  -28.0181  -24.7000   18.8226 H   0  0  0  0  0  0
  -29.0332  -15.6154   21.4335 H   0  0  0  0  0  0
  -28.1102  -22.1313   19.5468 H   0  0  0  0  0  0
  1 25  1  0  0  0
  1 30  2  0  0  0
  1 80  1  0  0  0
  2  3  1  0  0  0
  2 25  1  0  0  0
  2 85  1  0  0  0
  2 86  1  0  0  0
  3  4  1  0  0  0
  3 87  1  0  0  0
  3 88  1  0  0  0
  4  5  1  0  0  0
  4 89  1  0  0  0
  4 90  1  0  0  0
  5  6  1  0  0  0
  5 26  1  0  0  0
  5 91  1  0  0  0
  6 25  1  0  0  0
  6 92  1  0  0  0
  6 93  1  0  0  0
  7  8  2  0  0  0
  7 26  1  0  0  0
  7 29  1  0  0  0
  8  9  1  0  0  0
  8 22  1  0  0  0
  9 10  1  0  0  0
  9 27  2  0  0  0
 10 11  2  0  0  0
 10 15  1  0  0  0
 11 12  1  0  0  0
 11 94  1  0  0  0
 12 13  2  0  0  0
 12 95  1  0  0  0
 13 14  1  0  0  0
 13 31  1  0  0  0
 14 15  2  0  0  0
 14 96  1  0  0  0
 15 97  1  0  0  0
 16 17  2  0  0  0
 16 21  1  0  0  0
 16 31  1  0  0  0
 17 18  1  0  0  0
 17 98  1  0  0  0
 18 19  2  0  0  0
 18 99  1  0  0  0
 19 20  1  0  0  0
 19 24  1  0  0  0
 20 21  2  0  0  0
 20100  1  0  0  0
 21 23  1  0  0  0
 22 28  1  0  0  0
 22 32  2  0  0  0
 26 27  1  0  0  0
 28101  1  0  0  0
 28102  1  0  0  0
 29103  1  0  0  0
 29104  1  0  0  0
 33 34  1  0  0  0
 33 66  1  0  0  0
 33 70  2  0  0  0
 34 36  1  0  0  0
 34 59  1  0  0  0
 34105  1  0  0  0
 35 44  2  0  0  0
 35 45  1  0  0  0
 35 68  1  0  0  0
 36 56  1  0  0  0
 36106  1  0  0  0
 37 39  1  0  0  0
 37 47  1  0  0  0
 37 66  1  0  0  0
 37107  1  0  0  0
 38 43  2  0  0  0
 38 46  1  0  0  0
 38 47  1  0  0  0
 39 64  1  0  0  0
 39 67  2  0  0  0
 40 52  1  0  0  0
 40 53  2  0  0  0
 40 58  1  0  0  0
 41108  1  0  0  0
 41109  1  0  0  0
 41110  1  0  0  0
 41 48  1  0  0  0
 42 43  1  0  0  0
 42 66  1  0  0  0
 42111  1  0  0  0
 42112  1  0  0  0
 43 44  1  0  0  0
 44113  1  0  0  0
 45 46  2  0  0  0
 45114  1  0  0  0
 46115  1  0  0  0
 47116  1  0  0  0
 47117  1  0  0  0
 48 56  1  0  0  0
 48 65  1  0  0  0
 48118  1  0  0  0
 49 50  1  0  0  0
 49 53  1  0  0  0
 49 64  1  0  0  0
 49119  1  0  0  0
 50 51  1  0  0  0
 50120  1  0  0  0
 50121  1  0  0  0
 51 52  1  0  0  0
 51122  1  0  0  0
 51123  1  0  0  0
 52124  1  0  0  0
 52125  1  0  0  0
 53 54  1  0  0  0
 54 55  2  0  0  0
 54126  1  0  0  0
 55 57  1  0  0  0
 55127  1  0  0  0
 56 69  2  0  0  0
 57 58  2  0  0  0
 57128  1  0  0  0
 58129  1  0  0  0
 59 60  1  0  0  0
 59 61  1  0  0  0
 59 62  1  0  0  0
 60130  1  0  0  0
 60131  1  0  0  0
 60132  1  0  0  0
 61133  1  0  0  0
 61134  1  0  0  0
 61135  1  0  0  0
 62136  1  0  0  0
 62137  1  0  0  0
 62138  1  0  0  0
 63 65  1  0  0  0
 63139  1  0  0  0
 63140  1  0  0  0
 63141  1  0  0  0
 64142  1  0  0  0
 65143  1  0  0  0
 68 79  1  0  0  0
 71 72  2  0  0  0
 71 73  1  0  0  0
 71144  1  0  0  0
 72 74  1  0  0  0
 72145  1  0  0  0
 73 75  2  0  0  0
 73146  1  0  0  0
 74 76  2  0  0  0
 74 77  1  0  0  0
 75 76  1  0  0  0
 75 80  1  0  0  0
 76 84  1  0  0  0
 77 81  1  0  0  0
 77 82  2  0  0  0
 78 79  1  0  0  0
 78 81  1  0  0  0
 78 83  2  0  0  0
 79147  1  0  0  0
 79148  1  0  0  0
 80149  1  0  0  0
 81150  1  0  0  0
M  ISO  4   1 100  68 101  79 101  80 100
M  END
> <chiral flag>
0

> <version>
0

> <s_m_source_file>
/data/baiqing/PycharmProjects/Reinvent-master-3.2/result/LINK_invent/BTK/process_docking_weight1_custom_product_contain_oxygen_bond_distance_aromatic_linkinvent_7_9_3/rearranged_h_0063.sdf

> <i_m_source_file_index>
30

> <r_mmod_Potential_Energy-OPLS-2005>
55.4089279174805

> <r_mmod_Stretch_Energy-OPLS-2005>
141.313583374023

> <r_mmod_Bend_Energy-OPLS-2005>
163.612869262695

> <r_mmod_Torsional_Energy-OPLS-2005>
256.726959228516

> <r_mmod_Improper_Torsional_Energy-OPLS-2005>
5.24621438980103

> <r_mmod_Van_der_Waal_Energy-OPLS-2005>
141.306289672852

> <r_mmod_Electrostatic_Energy-OPLS-2005>
-450.048858642578

> <r_mmod_Solvation_Energy-OPLS-2005>
-305.440551757812

> <b_mmod_Minimization_Converged-OPLS-2005>
0

> <r_mmod_RMS_Derivative-OPLS-2005>
2.69987320899963

$$$$
31
                    3D
 Structure written by MMmdl.
155163  0  0  1  0            999 V2000
  -30.7480  -14.3985   20.6711 C   0  0  0  0  0  0
  -30.4240  -12.3004   19.4014 C   0  0  0  0  0  0
  -29.4918  -12.5200   18.1952 C   0  0  0  0  0  0
  -28.0140  -12.3774   18.6102 C   0  0  0  0  0  0
  -27.6677  -13.2012   19.8800 C   0  0  2  0  0  0
  -28.7062  -12.9443   20.9931 C   0  0  0  0  0  0
  -25.2606  -13.8147   20.5670 C   0  0  0  0  0  0
  -24.1847  -13.0428   20.9176 C   0  0  0  0  0  0
  -24.6384  -11.6895   20.8715 C   0  0  0  0  0  0
  -23.9032  -10.4292   21.0393 C   0  0  0  0  0  0
  -24.3601   -9.4216   21.9173 C   0  0  0  0  0  0
  -23.6301   -8.2238   22.0741 C   0  0  0  0  0  0
  -22.4273   -8.0282   21.3543 C   0  0  0  0  0  0
  -21.9901   -9.0244   20.4629 C   0  0  0  0  0  0
  -22.7208  -10.2136   20.3031 C   0  0  0  0  0  0
  -21.6863   -6.0745   22.5288 C   0  0  0  0  0  0
  -21.4011   -6.5644   23.8226 C   0  0  0  0  0  0
  -21.3652   -5.6782   24.9179 C   0  0  0  0  0  0
  -21.6052   -4.3047   24.7223 C   0  0  0  0  0  0
  -21.8825   -3.8148   23.4335 C   0  0  0  0  0  0
  -21.9181   -4.6969   22.3396 C   0  0  0  0  0  0
  -22.7864  -13.5221   21.1855 C   0  0  0  0  0  0
  -22.1654   -4.2152   21.0968 F   0  0  0  0  0  0
  -21.5632   -3.4531   25.7736 F   0  0  0  0  0  0
  -30.0463  -13.2525   20.4559 N   0  0  0  0  0  0
  -26.3052  -12.9308   20.3375 N   0  0  0  0  0  0
  -25.9312  -11.6471   20.5744 N   0  0  0  0  0  0
  -22.0477  -12.8233   22.0407 N   0  0  0  0  0  0
  -25.4325  -15.1873   20.4106 N   0  0  0  0  0  0
  -31.7850  -14.6812   20.0627 O   0  0  0  0  0  0
  -21.6624   -6.8896   21.4265 O   0  0  0  0  0  0
  -22.3554  -14.5528   20.6711 O   0  0  0  0  0  0
  -24.6121  -31.8687   23.2142 C   0  0  0  0  0  0
  -25.9020  -32.4827   23.8415 C   0  0  1  0  0  0
  -27.2279  -27.4565   20.0888 C   0  0  0  0  0  0
  -25.5891  -33.8623   24.2346 N   0  0  0  0  0  0
  -23.3983  -30.4951   21.5535 C   0  0  2  0  0  0
  -24.8441  -28.9638   20.1139 C   0  0  0  0  0  0
  -22.7379  -29.4676   22.5005 C   0  0  0  0  0  0
  -18.0254  -28.1367   22.8497 C   0  0  0  0  0  0
  -24.1475  -36.7319   23.2641 C   0  0  0  0  0  0
  -25.9257  -30.8428   21.3618 C   0  0  0  0  0  0
  -26.0041  -29.4792   20.7070 C   0  0  0  0  0  0
  -27.2033  -28.7323   20.6921 C   0  0  0  0  0  0
  -26.0553  -26.9493   19.4917 C   0  0  0  0  0  0
  -24.8629  -27.6974   19.5024 C   0  0  0  0  0  0
  -23.6048  -29.8285   20.1668 C   0  0  0  0  0  0
  -25.4092  -36.3114   24.0349 C   0  0  1  0  0  0
  -20.5840  -28.3651   23.1331 C   0  0  2  0  0  0
  -20.6732  -26.9384   22.5436 C   0  0  0  0  0  0
  -19.5728  -26.6375   21.5211 C   0  0  0  0  0  0
  -18.1901  -26.7922   22.1607 C   0  0  0  0  0  0
  -19.1501  -28.8821   23.2915 C   0  0  0  0  0  0
  -18.9432  -30.1422   23.8931 C   0  0  0  0  0  0
  -17.6439  -30.6580   24.0555 C   0  0  0  0  0  0
  -25.9031  -34.9478   23.5143 C   0  0  0  0  0  0
  -16.5328  -29.9090   23.6318 C   0  0  0  0  0  0
  -16.7244  -28.6496   23.0364 C   0  0  0  0  0  0
  -26.4470  -31.6608   25.0732 C   0  0  0  0  0  0
  -25.3763  -31.3734   26.1516 C   0  0  0  0  0  0
  -27.0268  -30.3036   24.6109 C   0  0  0  0  0  0
  -27.6081  -32.4320   25.7455 C   0  0  0  0  0  0
  -27.5594  -37.1782   24.8444 C   0  0  0  0  0  0
  -21.4110  -29.3027   22.3740 N   0  0  0  0  0  0
  -26.4272  -37.3809   23.9442 N   0  0  0  0  0  0
  -24.6639  -31.0820   22.1020 N   0  0  0  0  0  0
  -23.4163  -28.8205   23.3030 O   0  0  0  0  0  0
  -28.3714  -26.6969   20.0884 O   0  0  0  0  0  0
  -26.5590  -34.8930   22.4704 O   0  0  0  0  0  0
  -23.5322  -32.1434   23.7543 O   0  0  0  0  0  0
  -31.9102  -17.7137   23.7872 C   0  0  0  0  0  0
  -31.4684  -16.4838   23.2708 C   0  0  0  0  0  0
  -30.4887  -17.6478   21.3652 C   0  0  0  0  0  0
  -30.8975  -18.8985   21.8925 C   0  0  0  0  0  0
  -31.6342  -18.9231   23.1135 C   0  0  0  0  0  0
  -30.7620  -16.4432   22.0543 C   0  0  0  0  0  0
  -30.5187  -20.1249   21.1528 C   0  0  0  0  0  0
  -29.1344  -24.4902   20.6332 C   0  0  0  0  0  0
  -28.3099  -25.5393   20.8252 C   0  0  0  0  0  0
  -29.0392  -23.3140   21.4877 C   0  0  0  0  0  0
  -32.1595  -20.2161   23.7273 C   0  0  0  0  0  0
  -29.9782  -21.1333   21.7445 N   0  0  0  0  0  0
  -30.2300  -15.2077   21.6067 N   0  0  0  0  0  0
  -29.7415  -22.2662   21.0216 N   0  0  0  0  0  0
  -28.3987  -23.2615   22.5451 O   0  0  0  0  0  0
  -31.4683  -12.4069   19.1016 H   0  0  0  0  0  0
  -30.3281  -11.2789   19.7750 H   0  0  0  0  0  0
  -29.7330  -11.8082   17.4057 H   0  0  0  0  0  0
  -29.6620  -13.5119   17.7747 H   0  0  0  0  0  0
  -27.8206  -11.3197   18.7932 H   0  0  0  0  0  0
  -27.3602  -12.6631   17.7840 H   0  0  0  0  0  0
  -27.7232  -14.2547   19.6069 H   0  0  0  0  0  0
  -28.6703  -11.8972   21.2954 H   0  0  0  0  0  0
  -28.4502  -13.5102   21.8896 H   0  0  0  0  0  0
  -25.2761   -9.5701   22.4723 H   0  0  0  0  0  0
  -24.0025   -7.4623   22.7449 H   0  0  0  0  0  0
  -21.0838   -8.8747   19.8925 H   0  0  0  0  0  0
  -22.3670  -10.9669   19.6120 H   0  0  0  0  0  0
  -21.1983   -7.6144   23.9739 H   0  0  0  0  0  0
  -21.1486   -6.0498   25.9092 H   0  0  0  0  0  0
  -22.0593   -2.7608   23.2816 H   0  0  0  0  0  0
  -22.4066  -11.9898   22.4816 H   0  0  0  0  0  0
  -21.1084  -13.1267   22.2572 H   0  0  0  0  0  0
  -24.6695  -15.8448   20.5308 H   0  0  0  0  0  0
  -26.2925  -15.6314   20.1116 H   0  0  0  0  0  0
  -26.7088  -32.5551   23.1183 H   0  0  0  0  0  0
  -25.0012  -33.9778   25.0473 H   0  0  0  0  0  0
  -22.6861  -31.3125   21.4177 H   0  0  0  0  0  0
  -23.3749  -35.9634   23.3246 H   0  0  0  0  0  0
  -24.3598  -36.8987   22.2072 H   0  0  0  0  0  0
  -23.7194  -37.6500   23.6680 H   0  0  0  0  0  0
  -26.0317  -31.6106   20.5939 H   0  0  0  0  0  0
  -26.8159  -30.8950   21.9772 H   0  0  0  0  0  0
  -28.1013  -29.1228   21.1500 H   0  0  0  0  0  0
  -26.0654  -25.9752   19.0226 H   0  0  0  0  0  0
  -23.9691  -27.2952   19.0442 H   0  0  0  0  0  0
  -23.7069  -30.6046   19.4075 H   0  0  0  0  0  0
  -22.7285  -29.2486   19.8728 H   0  0  0  0  0  0
  -25.1250  -36.1978   25.0840 H   0  0  0  0  0  0
  -20.9932  -28.3215   24.1450 H   0  0  0  0  0  0
  -20.5579  -26.2267   23.3626 H   0  0  0  0  0  0
  -21.6618  -26.7398   22.1267 H   0  0  0  0  0  0
  -19.6885  -25.6287   21.1239 H   0  0  0  0  0  0
  -19.6686  -27.3180   20.6735 H   0  0  0  0  0  0
  -17.4181  -26.6677   21.4001 H   0  0  0  0  0  0
  -18.0287  -26.0053   22.8985 H   0  0  0  0  0  0
  -19.7914  -30.7206   24.2348 H   0  0  0  0  0  0
  -17.5008  -31.6267   24.5139 H   0  0  0  0  0  0
  -15.5336  -30.3003   23.7633 H   0  0  0  0  0  0
  -15.8638  -28.0815   22.7093 H   0  0  0  0  0  0
  -24.5897  -30.7115   25.7877 H   0  0  0  0  0  0
  -24.9007  -32.2901   26.5017 H   0  0  0  0  0  0
  -25.8141  -30.8869   27.0243 H   0  0  0  0  0  0
  -26.2776  -29.6804   24.1211 H   0  0  0  0  0  0
  -27.4063  -29.7285   25.4567 H   0  0  0  0  0  0
  -27.8617  -30.4325   23.9216 H   0  0  0  0  0  0
  -27.2725  -33.3608   26.2081 H   0  0  0  0  0  0
  -28.3847  -32.6899   25.0240 H   0  0  0  0  0  0
  -28.0801  -31.8419   26.5324 H   0  0  0  0  0  0
  -28.2562  -38.0133   24.7579 H   0  0  0  0  0  0
  -28.1139  -36.2674   24.6119 H   0  0  0  0  0  0
  -27.2350  -37.1258   25.8854 H   0  0  0  0  0  0
  -20.9251  -29.8779   21.6998 H   0  0  0  0  0  0
  -26.0159  -38.2874   24.1519 H   0  0  0  0  0  0
  -32.4596  -17.7210   24.7187 H   0  0  0  0  0  0
  -31.6753  -15.5762   23.8225 H   0  0  0  0  0  0
  -29.9234  -17.6149   20.4433 H   0  0  0  0  0  0
  -30.6953  -20.1439   20.0749 H   0  0  0  0  0  0
  -29.8790  -24.5335   19.8518 H   0  0  0  0  0  0
  -27.5350  -25.5610   21.5835 H   0  0  0  0  0  0
  -32.8281  -20.0184   24.5657 H   0  0  0  0  0  0
  -31.3400  -20.8282   24.1049 H   0  0  0  0  0  0
  -32.7182  -20.7961   22.9917 H   0  0  0  0  0  0
  -29.4131  -14.8613   22.0870 H   0  0  0  0  0  0
  -30.1777  -22.3175   20.1079 H   0  0  0  0  0  0
  1 25  1  0  0  0
  1 30  2  0  0  0
  1 83  1  0  0  0
  2  3  1  0  0  0
  2 25  1  0  0  0
  2 86  1  0  0  0
  2 87  1  0  0  0
  3  4  1  0  0  0
  3 88  1  0  0  0
  3 89  1  0  0  0
  4  5  1  0  0  0
  4 90  1  0  0  0
  4 91  1  0  0  0
  5  6  1  0  0  0
  5 26  1  0  0  0
  5 92  1  0  0  0
  6 25  1  0  0  0
  6 93  1  0  0  0
  6 94  1  0  0  0
  7  8  2  0  0  0
  7 26  1  0  0  0
  7 29  1  0  0  0
  8  9  1  0  0  0
  8 22  1  0  0  0
  9 10  1  0  0  0
  9 27  2  0  0  0
 10 11  2  0  0  0
 10 15  1  0  0  0
 11 12  1  0  0  0
 11 95  1  0  0  0
 12 13  2  0  0  0
 12 96  1  0  0  0
 13 14  1  0  0  0
 13 31  1  0  0  0
 14 15  2  0  0  0
 14 97  1  0  0  0
 15 98  1  0  0  0
 16 17  2  0  0  0
 16 21  1  0  0  0
 16 31  1  0  0  0
 17 18  1  0  0  0
 17 99  1  0  0  0
 18 19  2  0  0  0
 18100  1  0  0  0
 19 20  1  0  0  0
 19 24  1  0  0  0
 20 21  2  0  0  0
 20101  1  0  0  0
 21 23  1  0  0  0
 22 28  1  0  0  0
 22 32  2  0  0  0
 26 27  1  0  0  0
 28102  1  0  0  0
 28103  1  0  0  0
 29104  1  0  0  0
 29105  1  0  0  0
 33 34  1  0  0  0
 33 66  1  0  0  0
 33 70  2  0  0  0
 34 36  1  0  0  0
 34 59  1  0  0  0
 34106  1  0  0  0
 35 44  2  0  0  0
 35 45  1  0  0  0
 35 68  1  0  0  0
 36 56  1  0  0  0
 36107  1  0  0  0
 37 39  1  0  0  0
 37 47  1  0  0  0
 37 66  1  0  0  0
 37108  1  0  0  0
 38 43  2  0  0  0
 38 46  1  0  0  0
 38 47  1  0  0  0
 39 64  1  0  0  0
 39 67  2  0  0  0
 40 52  1  0  0  0
 40 53  2  0  0  0
 40 58  1  0  0  0
 41109  1  0  0  0
 41110  1  0  0  0
 41111  1  0  0  0
 41 48  1  0  0  0
 42 43  1  0  0  0
 42 66  1  0  0  0
 42112  1  0  0  0
 42113  1  0  0  0
 43 44  1  0  0  0
 44114  1  0  0  0
 45 46  2  0  0  0
 45115  1  0  0  0
 46116  1  0  0  0
 47117  1  0  0  0
 47118  1  0  0  0
 48 56  1  0  0  0
 48 65  1  0  0  0
 48119  1  0  0  0
 49 50  1  0  0  0
 49 53  1  0  0  0
 49 64  1  0  0  0
 49120  1  0  0  0
 50 51  1  0  0  0
 50121  1  0  0  0
 50122  1  0  0  0
 51 52  1  0  0  0
 51123  1  0  0  0
 51124  1  0  0  0
 52125  1  0  0  0
 52126  1  0  0  0
 53 54  1  0  0  0
 54 55  2  0  0  0
 54127  1  0  0  0
 55 57  1  0  0  0
 55128  1  0  0  0
 56 69  2  0  0  0
 57 58  2  0  0  0
 57129  1  0  0  0
 58130  1  0  0  0
 59 60  1  0  0  0
 59 61  1  0  0  0
 59 62  1  0  0  0
 60131  1  0  0  0
 60132  1  0  0  0
 60133  1  0  0  0
 61134  1  0  0  0
 61135  1  0  0  0
 61136  1  0  0  0
 62137  1  0  0  0
 62138  1  0  0  0
 62139  1  0  0  0
 63 65  1  0  0  0
 63140  1  0  0  0
 63141  1  0  0  0
 63142  1  0  0  0
 64143  1  0  0  0
 65144  1  0  0  0
 68 79  1  0  0  0
 71 72  2  0  0  0
 71 75  1  0  0  0
 71145  1  0  0  0
 72 76  1  0  0  0
 72146  1  0  0  0
 73 74  1  0  0  0
 73 76  2  0  0  0
 73147  1  0  0  0
 74 75  2  0  0  0
 74 77  1  0  0  0
 75 81  1  0  0  0
 76 83  1  0  0  0
 77 82  2  0  0  0
 77148  1  0  0  0
 78 79  2  0  0  0
 78 80  1  0  0  0
 78149  1  0  0  0
 79150  1  0  0  0
 80 84  1  0  0  0
 80 85  2  0  0  0
 81151  1  0  0  0
 81152  1  0  0  0
 81153  1  0  0  0
 82 84  1  0  0  0
 83154  1  0  0  0
 84155  1  0  0  0
M  ISO  4   1 100  68 101  79 101  83 100
M  END
> <chiral flag>
0

> <version>
0

> <s_m_source_file>
/data/baiqing/PycharmProjects/Reinvent-master-3.2/result/LINK_invent/BTK/process_docking_weight1_custom_product_contain_oxygen_bond_distance_aromatic_linkinvent_7_9_3/rearranged_h_0063.sdf

> <i_m_source_file_index>
31

> <r_mmod_Potential_Energy-OPLS-2005>
-53.6827774047852

> <r_mmod_Stretch_Energy-OPLS-2005>
35.4713706970215

> <r_mmod_Bend_Energy-OPLS-2005>
87.5888977050781

> <r_mmod_Torsional_Energy-OPLS-2005>
247.109024047852

> <r_mmod_Improper_Torsional_Energy-OPLS-2005>
2.27208828926086

> <r_mmod_Van_der_Waal_Energy-OPLS-2005>
156.993804931641

> <r_mmod_Electrostatic_Energy-OPLS-2005>
-348.088348388672

> <r_mmod_Solvation_Energy-OPLS-2005>
-243.187759399414

> <b_mmod_Minimization_Converged-OPLS-2005>
0

> <r_mmod_RMS_Derivative-OPLS-2005>
2.4661819934845

$$$$
32
                    3D
 Structure written by MMmdl.
158167  0  0  1  0            999 V2000
  -30.5014  -15.0539   20.3940 C   0  0  0  0  0  0
  -30.4522  -12.6638   19.4840 C   0  0  0  0  0  0
  -29.5252  -12.5206   18.2536 C   0  0  0  0  0  0
  -28.0666  -12.2823   18.6917 C   0  0  0  0  0  0
  -27.6220  -13.2460   19.8217 C   0  0  2  0  0  0
  -28.6712  -13.3370   20.9479 C   0  0  0  0  0  0
  -25.2461  -13.8210   20.5751 C   0  0  0  0  0  0
  -24.1763  -13.0438   20.9242 C   0  0  0  0  0  0
  -24.6374  -11.6926   20.8777 C   0  0  0  0  0  0
  -23.9057  -10.4295   21.0422 C   0  0  0  0  0  0
  -24.3613   -9.4205   21.9198 C   0  0  0  0  0  0
  -23.6282   -8.2239   22.0762 C   0  0  0  0  0  0
  -22.4262   -8.0288   21.3551 C   0  0  0  0  0  0
  -21.9896   -9.0261   20.4661 C   0  0  0  0  0  0
  -22.7229  -10.2136   20.3065 C   0  0  0  0  0  0
  -21.6847   -6.0741   22.5282 C   0  0  0  0  0  0
  -21.4019   -6.5641   23.8218 C   0  0  0  0  0  0
  -21.3659   -5.6787   24.9178 C   0  0  0  0  0  0
  -21.6037   -4.3047   24.7219 C   0  0  0  0  0  0
  -21.8819   -3.8145   23.4339 C   0  0  0  0  0  0
  -21.9187   -4.6971   22.3400 C   0  0  0  0  0  0
  -22.7783  -13.5222   21.1880 C   0  0  0  0  0  0
  -22.1657   -4.2152   21.0972 F   0  0  0  0  0  0
  -21.5626   -3.4533   25.7733 F   0  0  0  0  0  0
  -29.9200  -13.7813   20.3159 N   0  0  0  0  0  0
  -26.2859  -12.9427   20.3213 N   0  0  0  0  0  0
  -25.9297  -11.6566   20.5723 N   0  0  0  0  0  0
  -22.0395  -12.8250   22.0433 N   0  0  0  0  0  0
  -25.4151  -15.1949   20.4276 N   0  0  0  0  0  0
  -31.7320  -15.0943   20.2816 O   0  0  0  0  0  0
  -21.6626   -6.8883   21.4240 O   0  0  0  0  0  0
  -22.3487  -14.5520   20.6702 O   0  0  0  0  0  0
  -24.6488  -31.8376   23.1793 C   0  0  0  0  0  0
  -25.9228  -32.4654   23.8223 C   0  0  1  0  0  0
  -27.2260  -27.0690   20.1776 C   0  0  0  0  0  0
  -25.5959  -33.8460   24.2141 N   0  0  0  0  0  0
  -23.4567  -30.4499   21.5266 C   0  0  2  0  0  0
  -24.9070  -28.8518   20.1229 C   0  0  0  0  0  0
  -22.7602  -29.4499   22.4834 C   0  0  0  0  0  0
  -18.0320  -28.1393   22.8478 C   0  0  0  0  0  0
  -24.1500  -36.7235   23.2645 C   0  0  0  0  0  0
  -26.0154  -30.6897   21.3871 C   0  0  0  0  0  0
  -26.0862  -29.2902   20.7388 C   0  0  0  0  0  0
  -27.2468  -28.4190   20.7362 C   0  0  0  0  0  0
  -26.0142  -26.7319   19.5421 C   0  0  0  0  0  0
  -24.8853  -27.5864   19.5110 C   0  0  0  0  0  0
  -23.6887  -29.7651   20.1522 C   0  0  0  0  0  0
  -25.4130  -36.2997   24.0305 C   0  0  1  0  0  0
  -20.5939  -28.3720   23.1231 C   0  0  2  0  0  0
  -20.6800  -26.9414   22.5412 C   0  0  0  0  0  0
  -19.5768  -26.6373   21.5222 C   0  0  0  0  0  0
  -18.1950  -26.7934   22.1629 C   0  0  0  0  0  0
  -19.1579  -28.8876   23.2845 C   0  0  0  0  0  0
  -18.9487  -30.1476   23.8862 C   0  0  0  0  0  0
  -17.6479  -30.6585   24.0559 C   0  0  0  0  0  0
  -25.9087  -34.9379   23.5032 C   0  0  0  0  0  0
  -16.5372  -29.9069   23.6337 C   0  0  0  0  0  0
  -16.7304  -28.6494   23.0348 C   0  0  0  0  0  0
  -26.4531  -31.6542   25.0688 C   0  0  0  0  0  0
  -25.3707  -31.3758   26.1377 C   0  0  0  0  0  0
  -27.0407  -30.2930   24.6317 C   0  0  0  0  0  0
  -27.6051  -32.4321   25.7482 C   0  0  0  0  0  0
  -27.5572  -37.1771   24.8457 C   0  0  0  0  0  0
  -21.4289  -29.3031   22.3590 N   0  0  0  0  0  0
  -26.4287  -37.3713   23.9401 N   0  0  0  0  0  0
  -24.7272  -31.0162   22.0860 N   0  0  0  0  0  0
  -23.4211  -28.8063   23.3020 O   0  0  0  0  0  0
  -28.3206  -26.1160   20.1158 O   0  0  0  0  0  0
  -26.5676  -34.8892   22.4617 O   0  0  0  0  0  0
  -23.5592  -32.1275   23.6980 O   0  0  0  0  0  0
  -29.1382  -20.3693   21.9087 C   0  0  0  0  0  0
  -29.6253  -17.9244   22.0766 C   0  0  0  0  0  0
  -29.4690  -19.0103   19.9247 C   0  0  0  0  0  0
  -29.3506  -19.1875   22.6669 C   0  0  0  0  0  0
  -29.2167  -20.3851   20.5037 C   0  0  0  0  0  0
  -29.6775  -17.7253   20.6805 C   0  0  0  0  0  0
  -29.9281  -21.9657   18.7184 C   0  0  0  0  0  0
  -29.4650  -23.1262   17.8552 C   0  0  0  0  0  0
  -28.0644  -23.3993   18.3829 C   0  0  0  0  0  0
  -28.1792  -23.0743   19.8757 C   0  0  2  0  0  0
  -29.2532  -19.2721   24.1769 C   0  0  0  0  0  0
  -28.3999  -24.6095   20.6170 C   0  0  0  0  0  0
  -29.1600  -21.7870   19.8141 N   0  0  0  0  0  0
  -29.7001  -16.2392   20.2096 N   0  0  0  0  0  0
  -30.9167  -21.2939   18.4048 O   0  0  0  0  0  0
  -31.4759  -12.8560   19.1592 H   0  0  0  0  0  0
  -30.4894  -11.7379   20.0591 H   0  0  0  0  0  0
  -29.8650  -11.7033   17.6168 H   0  0  0  0  0  0
  -29.5811  -13.4245   17.6462 H   0  0  0  0  0  0
  -28.0018  -11.2548   19.0520 H   0  0  0  0  0  0
  -27.3915  -12.3489   17.8376 H   0  0  0  0  0  0
  -27.5614  -14.2271   19.3516 H   0  0  0  0  0  0
  -28.7940  -12.3795   21.4570 H   0  0  0  0  0  0
  -28.3574  -14.0573   21.7044 H   0  0  0  0  0  0
  -25.2756   -9.5687   22.4772 H   0  0  0  0  0  0
  -24.0000   -7.4628   22.7477 H   0  0  0  0  0  0
  -21.0825   -8.8793   19.8957 H   0  0  0  0  0  0
  -22.3701  -10.9688   19.6179 H   0  0  0  0  0  0
  -21.2021   -7.6151   23.9727 H   0  0  0  0  0  0
  -21.1478   -6.0514   25.9080 H   0  0  0  0  0  0
  -22.0594   -2.7610   23.2830 H   0  0  0  0  0  0
  -22.3980  -11.9935   22.4895 H   0  0  0  0  0  0
  -21.1018  -13.1323   22.2590 H   0  0  0  0  0  0
  -24.6559  -15.8517   20.5719 H   0  0  0  0  0  0
  -26.2766  -15.6441   20.1493 H   0  0  0  0  0  0
  -26.7291  -32.5237   23.0948 H   0  0  0  0  0  0
  -25.0075  -33.9570   25.0268 H   0  0  0  0  0  0
  -22.7615  -31.2756   21.3620 H   0  0  0  0  0  0
  -23.3762  -35.9566   23.3289 H   0  0  0  0  0  0
  -24.3587  -36.8894   22.2062 H   0  0  0  0  0  0
  -23.7264  -37.6425   23.6710 H   0  0  0  0  0  0
  -26.1779  -31.4366   20.6093 H   0  0  0  0  0  0
  -26.8828  -30.7459   22.0328 H   0  0  0  0  0  0
  -28.1559  -28.7624   21.2090 H   0  0  0  0  0  0
  -25.9327  -25.7651   19.0671 H   0  0  0  0  0  0
  -23.9844  -27.2429   19.0216 H   0  0  0  0  0  0
  -23.8354  -30.5326   19.3912 H   0  0  0  0  0  0
  -22.8026  -29.2095   19.8407 H   0  0  0  0  0  0
  -25.1328  -36.1809   25.0795 H   0  0  0  0  0  0
  -21.0037  -28.3313   24.1351 H   0  0  0  0  0  0
  -20.5702  -26.2324   23.3631 H   0  0  0  0  0  0
  -21.6662  -26.7410   22.1206 H   0  0  0  0  0  0
  -19.6926  -25.6277   21.1263 H   0  0  0  0  0  0
  -19.6715  -27.3174   20.6744 H   0  0  0  0  0  0
  -17.4229  -26.6701   21.4021 H   0  0  0  0  0  0
  -18.0329  -26.0085   22.9027 H   0  0  0  0  0  0
  -19.7956  -30.7314   24.2206 H   0  0  0  0  0  0
  -17.5019  -31.6262   24.5163 H   0  0  0  0  0  0
  -15.5364  -30.2947   23.7674 H   0  0  0  0  0  0
  -15.8719  -28.0800   22.7059 H   0  0  0  0  0  0
  -24.5881  -30.7118   25.7690 H   0  0  0  0  0  0
  -24.8908  -32.2953   26.4736 H   0  0  0  0  0  0
  -25.7975  -30.8964   27.0197 H   0  0  0  0  0  0
  -26.3037  -29.6632   24.1324 H   0  0  0  0  0  0
  -27.3995  -29.7253   25.4913 H   0  0  0  0  0  0
  -27.8954  -30.4142   23.9661 H   0  0  0  0  0  0
  -27.2631  -33.3634   26.2009 H   0  0  0  0  0  0
  -28.3890  -32.6865   25.0335 H   0  0  0  0  0  0
  -28.0696  -31.8488   26.5444 H   0  0  0  0  0  0
  -28.2569  -38.0084   24.7495 H   0  0  0  0  0  0
  -28.1092  -36.2609   24.6296 H   0  0  0  0  0  0
  -27.2296  -37.1426   25.8862 H   0  0  0  0  0  0
  -20.9507  -29.8716   21.6748 H   0  0  0  0  0  0
  -26.0144  -38.2779   24.1401 H   0  0  0  0  0  0
  -28.9568  -21.3011   22.4277 H   0  0  0  0  0  0
  -29.7340  -17.0677   22.7262 H   0  0  0  0  0  0
  -29.4992  -18.9400   18.8468 H   0  0  0  0  0  0
  -29.4682  -22.8761   16.7942 H   0  0  0  0  0  0
  -30.1220  -23.9817   18.0197 H   0  0  0  0  0  0
  -27.3503  -22.7273   17.9028 H   0  0  0  0  0  0
  -27.7329  -24.4163   18.1778 H   0  0  0  0  0  0
  -27.2129  -22.7027   20.2200 H   0  0  0  0  0  0
  -29.4600  -20.2823   24.5339 H   0  0  0  0  0  0
  -29.9633  -18.5966   24.6562 H   0  0  0  0  0  0
  -28.2482  -18.9964   24.4987 H   0  0  0  0  0  0
  -29.4128  -24.5561   21.0155 H   0  0  0  0  0  0
  -27.7812  -24.5874   21.5142 H   0  0  0  0  0  0
  -28.7992  -15.9667   19.8500 H   0  0  0  0  0  0
  1 25  1  0  0  0
  1 30  2  0  0  0
  1 84  1  0  0  0
  2  3  1  0  0  0
  2 25  1  0  0  0
  2 86  1  0  0  0
  2 87  1  0  0  0
  3  4  1  0  0  0
  3 88  1  0  0  0
  3 89  1  0  0  0
  4  5  1  0  0  0
  4 90  1  0  0  0
  4 91  1  0  0  0
  5  6  1  0  0  0
  5 26  1  0  0  0
  5 92  1  0  0  0
  6 25  1  0  0  0
  6 93  1  0  0  0
  6 94  1  0  0  0
  7  8  2  0  0  0
  7 26  1  0  0  0
  7 29  1  0  0  0
  8  9  1  0  0  0
  8 22  1  0  0  0
  9 10  1  0  0  0
  9 27  2  0  0  0
 10 11  2  0  0  0
 10 15  1  0  0  0
 11 12  1  0  0  0
 11 95  1  0  0  0
 12 13  2  0  0  0
 12 96  1  0  0  0
 13 14  1  0  0  0
 13 31  1  0  0  0
 14 15  2  0  0  0
 14 97  1  0  0  0
 15 98  1  0  0  0
 16 17  2  0  0  0
 16 21  1  0  0  0
 16 31  1  0  0  0
 17 18  1  0  0  0
 17 99  1  0  0  0
 18 19  2  0  0  0
 18100  1  0  0  0
 19 20  1  0  0  0
 19 24  1  0  0  0
 20 21  2  0  0  0
 20101  1  0  0  0
 21 23  1  0  0  0
 22 28  1  0  0  0
 22 32  2  0  0  0
 26 27  1  0  0  0
 28102  1  0  0  0
 28103  1  0  0  0
 29104  1  0  0  0
 29105  1  0  0  0
 33 34  1  0  0  0
 33 66  1  0  0  0
 33 70  2  0  0  0
 34 36  1  0  0  0
 34 59  1  0  0  0
 34106  1  0  0  0
 35 44  2  0  0  0
 35 45  1  0  0  0
 35 68  1  0  0  0
 36 56  1  0  0  0
 36107  1  0  0  0
 37 39  1  0  0  0
 37 47  1  0  0  0
 37 66  1  0  0  0
 37108  1  0  0  0
 38 43  2  0  0  0
 38 46  1  0  0  0
 38 47  1  0  0  0
 39 64  1  0  0  0
 39 67  2  0  0  0
 40 52  1  0  0  0
 40 53  2  0  0  0
 40 58  1  0  0  0
 41109  1  0  0  0
 41110  1  0  0  0
 41111  1  0  0  0
 41 48  1  0  0  0
 42 43  1  0  0  0
 42 66  1  0  0  0
 42112  1  0  0  0
 42113  1  0  0  0
 43 44  1  0  0  0
 44114  1  0  0  0
 45 46  2  0  0  0
 45115  1  0  0  0
 46116  1  0  0  0
 47117  1  0  0  0
 47118  1  0  0  0
 48 56  1  0  0  0
 48 65  1  0  0  0
 48119  1  0  0  0
 49 50  1  0  0  0
 49 53  1  0  0  0
 49 64  1  0  0  0
 49120  1  0  0  0
 50 51  1  0  0  0
 50121  1  0  0  0
 50122  1  0  0  0
 51 52  1  0  0  0
 51123  1  0  0  0
 51124  1  0  0  0
 52125  1  0  0  0
 52126  1  0  0  0
 53 54  1  0  0  0
 54 55  2  0  0  0
 54127  1  0  0  0
 55 57  1  0  0  0
 55128  1  0  0  0
 56 69  2  0  0  0
 57 58  2  0  0  0
 57129  1  0  0  0
 58130  1  0  0  0
 59 60  1  0  0  0
 59 61  1  0  0  0
 59 62  1  0  0  0
 60131  1  0  0  0
 60132  1  0  0  0
 60133  1  0  0  0
 61134  1  0  0  0
 61135  1  0  0  0
 61136  1  0  0  0
 62137  1  0  0  0
 62138  1  0  0  0
 62139  1  0  0  0
 63 65  1  0  0  0
 63140  1  0  0  0
 63141  1  0  0  0
 63142  1  0  0  0
 64143  1  0  0  0
 65144  1  0  0  0
 68 82  1  0  0  0
 71 74  2  0  0  0
 71 75  1  0  0  0
 71145  1  0  0  0
 72 74  1  0  0  0
 72 76  2  0  0  0
 72146  1  0  0  0
 73 75  2  0  0  0
 73 76  1  0  0  0
 73147  1  0  0  0
 74 81  1  0  0  0
 75 83  1  0  0  0
 76 84  1  0  0  0
 77 78  1  0  0  0
 77 83  1  0  0  0
 77 85  2  0  0  0
 78 79  1  0  0  0
 78148  1  0  0  0
 78149  1  0  0  0
 79 80  1  0  0  0
 79150  1  0  0  0
 79151  1  0  0  0
 80 82  1  0  0  0
 80 83  1  0  0  0
 80152  1  0  0  0
 81153  1  0  0  0
 81154  1  0  0  0
 81155  1  0  0  0
 82156  1  0  0  0
 82157  1  0  0  0
 84158  1  0  0  0
M  ISO  4   1 100  68 101  82 101  84 100
M  END
> <chiral flag>
0

> <version>
0

> <s_m_source_file>
/data/baiqing/PycharmProjects/Reinvent-master-3.2/result/LINK_invent/BTK/process_docking_weight1_custom_product_contain_oxygen_bond_distance_aromatic_linkinvent_7_9_3/rearranged_h_0063.sdf

> <i_m_source_file_index>
32

> <r_mmod_Potential_Energy-OPLS-2005>
891.653625488281

> <r_mmod_Stretch_Energy-OPLS-2005>
343.200775146484

> <r_mmod_Bend_Energy-OPLS-2005>
377.257598876953

> <r_mmod_Torsional_Energy-OPLS-2005>
351.14453125

> <r_mmod_Improper_Torsional_Energy-OPLS-2005>
13.541955947876

> <r_mmod_Van_der_Waal_Energy-OPLS-2005>
116.444526672363

> <r_mmod_Electrostatic_Energy-OPLS-2005>
-341.185943603516

> <r_mmod_Solvation_Energy-OPLS-2005>
-229.595306396484

> <b_mmod_Minimization_Converged-OPLS-2005>
0

> <r_mmod_RMS_Derivative-OPLS-2005>
2.12449884414673

$$$$
33
                    3D
 Structure written by MMmdl.
153161  0  0  1  0            999 V2000
  -30.6415  -14.6494   20.5096 C   0  0  0  0  0  0
  -30.4303  -12.3975   19.4625 C   0  0  0  0  0  0
  -29.5081  -12.5092   18.2293 C   0  0  0  0  0  0
  -28.0305  -12.3484   18.6370 C   0  0  0  0  0  0
  -27.6499  -13.2266   19.8589 C   0  0  2  0  0  0
  -28.6911  -13.1021   20.9900 C   0  0  0  0  0  0
  -25.2541  -13.8199   20.5685 C   0  0  0  0  0  0
  -24.1817  -13.0450   20.9188 C   0  0  0  0  0  0
  -24.6403  -11.6924   20.8745 C   0  0  0  0  0  0
  -23.9079  -10.4298   21.0413 C   0  0  0  0  0  0
  -24.3628   -9.4209   21.9191 C   0  0  0  0  0  0
  -23.6302   -8.2243   22.0760 C   0  0  0  0  0  0
  -22.4283   -8.0287   21.3551 C   0  0  0  0  0  0
  -21.9920   -9.0261   20.4652 C   0  0  0  0  0  0
  -22.7251  -10.2139   20.3060 C   0  0  0  0  0  0
  -21.6850   -6.0745   22.5284 C   0  0  0  0  0  0
  -21.4009   -6.5649   23.8217 C   0  0  0  0  0  0
  -21.3654   -5.6802   24.9179 C   0  0  0  0  0  0
  -21.6041   -4.3066   24.7231 C   0  0  0  0  0  0
  -21.8819   -3.8158   23.4351 C   0  0  0  0  0  0
  -21.9193   -4.6974   22.3408 C   0  0  0  0  0  0
  -22.7838  -13.5231   21.1861 C   0  0  0  0  0  0
  -22.1663   -4.2160   21.0984 F   0  0  0  0  0  0
  -21.5623   -3.4547   25.7741 F   0  0  0  0  0  0
  -30.0084  -13.4336   20.4284 N   0  0  0  0  0  0
  -26.2977  -12.9399   20.3312 N   0  0  0  0  0  0
  -25.9331  -11.6542   20.5753 N   0  0  0  0  0  0
  -22.0492  -12.8216   22.0424 N   0  0  0  0  0  0
  -25.4244  -15.1916   20.4085 N   0  0  0  0  0  0
  -31.8036  -14.7411   20.1094 O   0  0  0  0  0  0
  -21.6642   -6.8889   21.4247 O   0  0  0  0  0  0
  -22.3506  -14.5533   20.6715 O   0  0  0  0  0  0
  -24.6251  -31.8598   23.2034 C   0  0  0  0  0  0
  -25.9102  -32.4778   23.8355 C   0  0  1  0  0  0
  -27.2220  -27.3254   20.1224 C   0  0  0  0  0  0
  -25.5916  -33.8577   24.2280 N   0  0  0  0  0  0
  -23.4187  -30.4833   21.5456 C   0  0  2  0  0  0
  -24.8655  -28.9368   20.1126 C   0  0  0  0  0  0
  -22.7466  -29.4626   22.4944 C   0  0  0  0  0  0
  -18.0280  -28.1396   22.8497 C   0  0  0  0  0  0
  -24.1475  -36.7277   23.2641 C   0  0  0  0  0  0
  -25.9583  -30.7922   21.3740 C   0  0  0  0  0  0
  -26.0331  -29.4184   20.7201 C   0  0  0  0  0  0
  -27.2161  -28.6223   20.7191 C   0  0  0  0  0  0
  -26.0379  -26.8959   19.4855 C   0  0  0  0  0  0
  -24.8686  -27.6798   19.4871 C   0  0  0  0  0  0
  -23.6331  -29.8165   20.1611 C   0  0  0  0  0  0
  -25.4104  -36.3080   24.0335 C   0  0  1  0  0  0
  -20.5881  -28.3692   23.1291 C   0  0  2  0  0  0
  -20.6767  -26.9417   22.5417 C   0  0  0  0  0  0
  -19.5739  -26.6395   21.5220 C   0  0  0  0  0  0
  -18.1920  -26.7939   22.1634 C   0  0  0  0  0  0
  -19.1535  -28.8861   23.2889 C   0  0  0  0  0  0
  -18.9460  -30.1466   23.8904 C   0  0  0  0  0  0
  -17.6461  -30.6602   24.0571 C   0  0  0  0  0  0
  -25.9049  -34.9452   23.5111 C   0  0  0  0  0  0
  -16.5352  -29.9104   23.6337 C   0  0  0  0  0  0
  -16.7269  -28.6519   23.0362 C   0  0  0  0  0  0
  -26.4490  -31.6591   25.0725 C   0  0  0  0  0  0
  -25.3732  -31.3727   26.1457 C   0  0  0  0  0  0
  -27.0329  -30.3018   24.6175 C   0  0  0  0  0  0
  -27.6053  -32.4328   25.7491 C   0  0  0  0  0  0
  -27.5569  -37.1788   24.8469 C   0  0  0  0  0  0
  -21.4181  -29.3040   22.3680 N   0  0  0  0  0  0
  -26.4273  -37.3784   23.9424 N   0  0  0  0  0  0
  -24.6861  -31.0618   22.0979 N   0  0  0  0  0  0
  -23.4190  -28.8172   23.3027 O   0  0  0  0  0  0
  -28.3277  -26.4664   20.1384 O   0  0  0  0  0  0
  -26.5621  -34.8924   22.4679 O   0  0  0  0  0  0
  -23.5420  -32.1387   23.7375 O   0  0  0  0  0  0
  -31.0513  -18.5934   18.8428 C   0  0  0  0  0  0
  -30.7684  -17.3594   19.3065 C   0  0  0  0  0  0
  -30.6419  -19.8352   19.1650 C   0  0  0  0  0  0
  -29.0637  -19.4413   20.8826 C   0  0  0  0  0  0
  -29.0838  -18.0859   21.1539 C   0  0  0  0  0  0
  -29.7248  -20.2937   20.0412 C   0  0  0  0  0  0
  -29.9277  -16.9912   20.4826 C   0  0  0  0  0  0
  -28.9352  -24.0505   20.1294 C   0  0  0  0  0  0
  -28.1204  -25.1068   20.4579 C   0  0  0  0  0  0
  -28.6612  -22.6293   20.5030 C   0  0  0  0  0  0
  -28.1791  -17.5619   22.2686 C   0  0  0  0  0  0
  -29.8500  -15.7538   20.9437 N   0  0  0  0  0  0
  -29.5650  -21.7344   19.9923 N   0  0  0  0  0  0
  -27.7021  -22.2796   21.1950 O   0  0  0  0  0  0
  -31.4738  -12.4999   19.1598 H   0  0  0  0  0  0
  -30.3504  -11.4074   19.9144 H   0  0  0  0  0  0
  -29.7751  -11.7529   17.4904 H   0  0  0  0  0  0
  -29.6540  -13.4764   17.7457 H   0  0  0  0  0  0
  -27.8692  -11.2965   18.8749 H   0  0  0  0  0  0
  -27.3773  -12.5730   17.7930 H   0  0  0  0  0  0
  -27.6667  -14.2608   19.5138 H   0  0  0  0  0  0
  -28.6998  -12.0900   21.3975 H   0  0  0  0  0  0
  -28.4325  -13.7585   21.8223 H   0  0  0  0  0  0
  -25.2773   -9.5679   22.4768 H   0  0  0  0  0  0
  -24.0013   -7.4630   22.7474 H   0  0  0  0  0  0
  -21.0851   -8.8780   19.8956 H   0  0  0  0  0  0
  -22.3713  -10.9681   19.6169 H   0  0  0  0  0  0
  -21.1998   -7.6157   23.9724 H   0  0  0  0  0  0
  -21.1471   -6.0533   25.9083 H   0  0  0  0  0  0
  -22.0601   -2.7621   23.2850 H   0  0  0  0  0  0
  -22.4116  -11.9873   22.4797 H   0  0  0  0  0  0
  -21.1111  -13.1232   22.2652 H   0  0  0  0  0  0
  -24.6650  -15.8544   20.5185 H   0  0  0  0  0  0
  -26.2943  -15.6248   20.1251 H   0  0  0  0  0  0
  -26.7168  -32.5451   23.1104 H   0  0  0  0  0  0
  -25.0050  -33.9716   25.0414 H   0  0  0  0  0  0
  -22.7135  -31.3046   21.4026 H   0  0  0  0  0  0
  -23.3747  -35.9597   23.3309 H   0  0  0  0  0  0
  -24.3565  -36.8890   22.2053 H   0  0  0  0  0  0
  -23.7209  -37.6473   23.6658 H   0  0  0  0  0  0
  -26.0884  -31.5551   20.6053 H   0  0  0  0  0  0
  -26.8396  -30.8425   22.0019 H   0  0  0  0  0  0
  -28.1132  -28.9845   21.2014 H   0  0  0  0  0  0
  -26.0091  -25.9316   18.9980 H   0  0  0  0  0  0
  -23.9752  -27.3066   19.0055 H   0  0  0  0  0  0
  -23.7512  -30.5916   19.4029 H   0  0  0  0  0  0
  -22.7534  -29.2450   19.8598 H   0  0  0  0  0  0
  -25.1282  -36.1925   25.0827 H   0  0  0  0  0  0
  -20.9978  -28.3266   24.1411 H   0  0  0  0  0  0
  -20.5663  -26.2305   23.3617 H   0  0  0  0  0  0
  -21.6635  -26.7447   22.1211 H   0  0  0  0  0  0
  -19.6899  -25.6308   21.1243 H   0  0  0  0  0  0
  -19.6673  -27.3211   20.6753 H   0  0  0  0  0  0
  -17.4189  -26.6692   21.4039 H   0  0  0  0  0  0
  -18.0322  -26.0083   22.9032 H   0  0  0  0  0  0
  -19.7936  -30.7281   24.2273 H   0  0  0  0  0  0
  -17.5020  -31.6280   24.5175 H   0  0  0  0  0  0
  -15.5353  -30.3012   23.7664 H   0  0  0  0  0  0
  -15.8666  -28.0843   22.7080 H   0  0  0  0  0  0
  -24.5916  -30.7061   25.7795 H   0  0  0  0  0  0
  -24.8905  -32.2886   26.4872 H   0  0  0  0  0  0
  -25.8064  -30.8921   27.0235 H   0  0  0  0  0  0
  -26.2896  -29.6774   24.1201 H   0  0  0  0  0  0
  -27.4030  -29.7274   25.4675 H   0  0  0  0  0  0
  -27.8770  -30.4309   23.9398 H   0  0  0  0  0  0
  -27.2668  -33.3639   26.2051 H   0  0  0  0  0  0
  -28.3868  -32.6868   25.0319 H   0  0  0  0  0  0
  -28.0712  -31.8460   26.5416 H   0  0  0  0  0  0
  -28.2594  -38.0080   24.7533 H   0  0  0  0  0  0
  -28.1058  -36.2614   24.6277 H   0  0  0  0  0  0
  -27.2295  -37.1423   25.8875 H   0  0  0  0  0  0
  -20.9363  -29.8751   21.6875 H   0  0  0  0  0  0
  -26.0152  -38.2853   24.1456 H   0  0  0  0  0  0
  -31.7422  -18.5792   18.0109 H   0  0  0  0  0  0
  -31.1084  -16.5596   18.6670 H   0  0  0  0  0  0
  -31.1227  -20.6006   18.5680 H   0  0  0  0  0  0
  -28.3686  -19.9631   21.5194 H   0  0  0  0  0  0
  -29.8295  -24.2693   19.5646 H   0  0  0  0  0  0
  -27.2093  -24.9609   21.0244 H   0  0  0  0  0  0
  -27.5513  -18.3415   22.6999 H   0  0  0  0  0  0
  -28.7762  -17.1407   23.0780 H   0  0  0  0  0  0
  -27.5137  -16.7829   21.8946 H   0  0  0  0  0  0
  -30.2671  -22.1914   19.4279 H   0  0  0  0  0  0
  1 25  1  0  0  0
  1 30  2  0  0  0
  1 82  1  0  0  0
  2  3  1  0  0  0
  2 25  1  0  0  0
  2 85  1  0  0  0
  2 86  1  0  0  0
  3  4  1  0  0  0
  3 87  1  0  0  0
  3 88  1  0  0  0
  4  5  1  0  0  0
  4 89  1  0  0  0
  4 90  1  0  0  0
  5  6  1  0  0  0
  5 26  1  0  0  0
  5 91  1  0  0  0
  6 25  1  0  0  0
  6 92  1  0  0  0
  6 93  1  0  0  0
  7  8  2  0  0  0
  7 26  1  0  0  0
  7 29  1  0  0  0
  8  9  1  0  0  0
  8 22  1  0  0  0
  9 10  1  0  0  0
  9 27  2  0  0  0
 10 11  2  0  0  0
 10 15  1  0  0  0
 11 12  1  0  0  0
 11 94  1  0  0  0
 12 13  2  0  0  0
 12 95  1  0  0  0
 13 14  1  0  0  0
 13 31  1  0  0  0
 14 15  2  0  0  0
 14 96  1  0  0  0
 15 97  1  0  0  0
 16 17  2  0  0  0
 16 21  1  0  0  0
 16 31  1  0  0  0
 17 18  1  0  0  0
 17 98  1  0  0  0
 18 19  2  0  0  0
 18 99  1  0  0  0
 19 20  1  0  0  0
 19 24  1  0  0  0
 20 21  2  0  0  0
 20100  1  0  0  0
 21 23  1  0  0  0
 22 28  1  0  0  0
 22 32  2  0  0  0
 26 27  1  0  0  0
 28101  1  0  0  0
 28102  1  0  0  0
 29103  1  0  0  0
 29104  1  0  0  0
 33 34  1  0  0  0
 33 66  1  0  0  0
 33 70  2  0  0  0
 34 36  1  0  0  0
 34 59  1  0  0  0
 34105  1  0  0  0
 35 44  2  0  0  0
 35 45  1  0  0  0
 35 68  1  0  0  0
 36 56  1  0  0  0
 36106  1  0  0  0
 37 39  1  0  0  0
 37 47  1  0  0  0
 37 66  1  0  0  0
 37107  1  0  0  0
 38 43  2  0  0  0
 38 46  1  0  0  0
 38 47  1  0  0  0
 39 64  1  0  0  0
 39 67  2  0  0  0
 40 52  1  0  0  0
 40 53  2  0  0  0
 40 58  1  0  0  0
 41108  1  0  0  0
 41109  1  0  0  0
 41110  1  0  0  0
 41 48  1  0  0  0
 42 43  1  0  0  0
 42 66  1  0  0  0
 42111  1  0  0  0
 42112  1  0  0  0
 43 44  1  0  0  0
 44113  1  0  0  0
 45 46  2  0  0  0
 45114  1  0  0  0
 46115  1  0  0  0
 47116  1  0  0  0
 47117  1  0  0  0
 48 56  1  0  0  0
 48 65  1  0  0  0
 48118  1  0  0  0
 49 50  1  0  0  0
 49 53  1  0  0  0
 49 64  1  0  0  0
 49119  1  0  0  0
 50 51  1  0  0  0
 50120  1  0  0  0
 50121  1  0  0  0
 51 52  1  0  0  0
 51122  1  0  0  0
 51123  1  0  0  0
 52124  1  0  0  0
 52125  1  0  0  0
 53 54  1  0  0  0
 54 55  2  0  0  0
 54126  1  0  0  0
 55 57  1  0  0  0
 55127  1  0  0  0
 56 69  2  0  0  0
 57 58  2  0  0  0
 57128  1  0  0  0
 58129  1  0  0  0
 59 60  1  0  0  0
 59 61  1  0  0  0
 59 62  1  0  0  0
 60130  1  0  0  0
 60131  1  0  0  0
 60132  1  0  0  0
 61133  1  0  0  0
 61134  1  0  0  0
 61135  1  0  0  0
 62136  1  0  0  0
 62137  1  0  0  0
 62138  1  0  0  0
 63 65  1  0  0  0
 63139  1  0  0  0
 63140  1  0  0  0
 63141  1  0  0  0
 64142  1  0  0  0
 65143  1  0  0  0
 68 79  1  0  0  0
 71 72  2  0  0  0
 71 73  1  0  0  0
 71144  1  0  0  0
 72 77  1  0  0  0
 72145  1  0  0  0
 73 76  2  0  0  0
 73146  1  0  0  0
 74 75  2  0  0  0
 74 76  1  0  0  0
 74147  1  0  0  0
 75 77  1  0  0  0
 75 81  1  0  0  0
 76 83  1  0  0  0
 77 82  2  0  0  0
 78 79  2  0  0  0
 78 80  1  0  0  0
 78148  1  0  0  0
 79149  1  0  0  0
 80 83  1  0  0  0
 80 84  2  0  0  0
 81150  1  0  0  0
 81151  1  0  0  0
 81152  1  0  0  0
 83153  1  0  0  0
M  ISO  4   1 100  68 101  79 101  82 100
M  END
> <chiral flag>
0

> <version>
0

> <s_m_source_file>
/data/baiqing/PycharmProjects/Reinvent-master-3.2/result/LINK_invent/BTK/process_docking_weight1_custom_product_contain_oxygen_bond_distance_aromatic_linkinvent_7_9_3/rearranged_h_0063.sdf

> <i_m_source_file_index>
33

> <r_mmod_Potential_Energy-OPLS-2005>
16.4232597351074

> <r_mmod_Stretch_Energy-OPLS-2005>
87.4130325317383

> <r_mmod_Bend_Energy-OPLS-2005>
177.373672485352

> <r_mmod_Torsional_Energy-OPLS-2005>
117.051162719727

> <r_mmod_Improper_Torsional_Energy-OPLS-2005>
3.01172757148743

> <r_mmod_Van_der_Waal_Energy-OPLS-2005>
158.029190063477

> <r_mmod_Electrostatic_Energy-OPLS-2005>
-376.182830810547

> <r_mmod_Solvation_Energy-OPLS-2005>
-198.497695922852

> <b_mmod_Minimization_Converged-OPLS-2005>
0

> <r_mmod_RMS_Derivative-OPLS-2005>
0.736366510391235

$$$$
34
                    3D
 Structure written by MMmdl.
159168  0  0  1  0            999 V2000
  -28.7561  -17.5533   19.9981 C   0  0  0  0  0  0
  -29.8510  -14.6474   19.3551 C   0  0  0  0  0  0
  -29.4434  -13.3617   18.4453 C   0  0  0  0  0  0
  -28.2987  -12.5399   19.0279 C   0  0  0  0  0  0
  -27.4617  -13.5433   19.8135 C   0  0  2  0  0  0
  -28.2100  -14.5951   20.7417 C   0  0  0  0  0  0
  -25.1525  -13.8624   20.6070 C   0  0  0  0  0  0
  -24.1306  -13.0423   20.9506 C   0  0  0  0  0  0
  -24.6418  -11.7078   20.8824 C   0  0  0  0  0  0
  -23.9261  -10.4313   21.0357 C   0  0  0  0  0  0
  -24.3768   -9.4238   21.9167 C   0  0  0  0  0  0
  -23.6390   -8.2298   22.0772 C   0  0  0  0  0  0
  -22.4368   -8.0333   21.3563 C   0  0  0  0  0  0
  -22.0031   -9.0301   20.4650 C   0  0  0  0  0  0
  -22.7410  -10.2149   20.3022 C   0  0  0  0  0  0
  -21.6886   -6.0776   22.5288 C   0  0  0  0  0  0
  -21.4020   -6.5663   23.8220 C   0  0  0  0  0  0
  -21.3653   -5.6807   24.9173 C   0  0  0  0  0  0
  -21.6046   -4.3074   24.7217 C   0  0  0  0  0  0
  -21.8821   -3.8176   23.4335 C   0  0  0  0  0  0
  -21.9207   -4.7000   22.3398 C   0  0  0  0  0  0
  -22.7301  -13.4984   21.2025 C   0  0  0  0  0  0
  -22.1678   -4.2183   21.0975 F   0  0  0  0  0  0
  -21.5622   -3.4550   25.7724 F   0  0  0  0  0  0
  -28.7522  -15.8198   19.9026 N   0  0  0  0  0  0
  -26.2281  -13.0452   20.3672 N   0  0  0  0  0  0
  -25.9427  -11.7253   20.5678 N   0  0  0  0  0  0
  -22.0051  -12.7945   22.0587 N   0  0  0  0  0  0
  -25.2371  -15.2415   20.4269 N   0  0  0  0  0  0
  -30.0565  -17.3082   20.0647 O   0  0  0  0  0  0
  -21.6703   -6.8943   21.4265 O   0  0  0  0  0  0
  -22.2954  -14.5270   20.6843 O   0  0  0  0  0  0
  -24.9240  -31.6353   22.2437 C   0  0  0  0  0  0
  -26.0883  -32.3525   23.2737 C   0  0  1  0  0  0
  -28.2056  -27.9327   21.1761 C   0  0  0  0  0  0
  -25.6336  -33.7172   23.7918 N   0  0  0  0  0  0
  -23.3728  -28.1803   21.7474 C   0  0  2  0  0  0
  -26.2662  -27.0775   20.2677 C   0  0  0  0  0  0
  -22.4353  -27.9793   22.9448 C   0  0  0  0  0  0
  -17.8190  -28.1257   22.7964 C   0  0  0  0  0  0
  -24.1501  -36.6643   23.2809 C   0  0  0  0  0  0
  -25.7181  -30.1588   20.0457 C   0  0  0  0  0  0
  -26.5395  -28.6598   19.7999 C   0  0  0  0  0  0
  -27.8234  -28.9439   20.3042 C   0  0  0  0  0  0
  -28.0001  -26.6632   20.5047 C   0  0  0  0  0  0
  -27.1009  -26.4849   19.4843 C   0  0  0  0  0  0
  -24.4607  -26.4567   21.5813 C   0  0  0  0  0  0
  -25.4383  -36.2171   23.9948 C   0  0  1  0  0  0
  -20.1938  -27.8532   23.4835 C   0  0  2  0  0  0
  -20.1325  -26.4608   22.8115 C   0  0  0  0  0  0
  -19.3261  -26.5147   21.5354 C   0  0  0  0  0  0
  -17.9076  -26.8325   21.9975 C   0  0  0  0  0  0
  -18.9549  -28.7020   23.3865 C   0  0  0  0  0  0
  -18.8829  -29.9900   23.9683 C   0  0  0  0  0  0
  -17.6392  -30.6419   24.0653 C   0  0  0  0  0  0
  -25.9846  -34.9185   23.3298 C   0  0  0  0  0  0
  -16.4797  -29.9976   23.5970 C   0  0  0  0  0  0
  -16.5751  -28.7525   22.9507 C   0  0  0  0  0  0
  -26.5874  -31.7794   24.7398 C   0  0  0  0  0  0
  -25.4979  -31.2719   25.7596 C   0  0  0  0  0  0
  -27.8167  -30.9091   24.4742 C   0  0  0  0  0  0
  -27.3548  -32.8064   25.6522 C   0  0  0  0  0  0
  -27.5545  -37.1480   24.8539 C   0  0  0  0  0  0
  -21.1908  -28.4028   22.7758 N   0  0  0  0  0  0
  -26.4038  -37.3447   23.9765 N   0  0  0  0  0  0
  -24.7063  -30.3467   21.1989 N   0  0  0  0  0  0
  -22.8849  -27.5871   23.9885 O   0  0  0  0  0  0
  -27.8748  -28.0331   22.5954 O   0  0  0  0  0  0
  -26.7217  -35.0039   22.3542 O   0  0  0  0  0  0
  -23.9879  -32.2857   22.7625 O   0  0  0  0  0  0
  -25.1709  -22.8976   17.7661 C   0  0  0  0  0  0
  -25.9513  -21.7300   18.3460 C   0  0  0  0  0  0
  -25.9620  -23.3915   19.9944 C   0  0  0  0  0  0
  -24.7339  -24.3008   18.1696 C   0  0  0  0  0  0
  -24.9211  -25.0756   19.4147 C   0  0  0  0  0  0
  -26.6439  -21.4875   19.6258 C   0  0  0  0  0  0
  -22.4226  -29.8867   20.3997 C   0  0  0  0  0  0
  -22.6270  -30.3421   22.0473 C   0  0  0  0  0  0
  -23.1948  -28.6683   19.2866 C   0  0  0  0  0  0
  -25.5167  -28.3847   21.9372 C   0  0  0  0  0  0
  -24.6699  -29.3236   23.2912 C   0  0  2  0  0  0
  -24.0554  -25.0783   17.0658 C   0  0  0  0  0  0
  -26.5195  -28.7054   23.6511 C   0  0  0  0  0  0
  -24.2219  -27.4959   19.6888 N   0  0  0  0  0  0
  -27.7849  -19.3932   20.0312 N   0  0  0  0  0  0
  -21.8105  -31.0242   22.7322 O   0  5  0  0  0  0
  -22.8221  -28.6847   18.1151 O   0  0  0  0  0  0
  -30.5299  -15.2129   18.7148 H   0  0  0  0  0  0
  -30.5361  -14.3358   20.1491 H   0  0  0  0  0  0
  -30.3144  -12.7286   18.2656 H   0  0  0  0  0  0
  -29.1373  -13.7291   17.4632 H   0  0  0  0  0  0
  -28.6948  -11.7856   19.7098 H   0  0  0  0  0  0
  -27.7279  -12.0259   18.2550 H   0  0  0  0  0  0
  -27.0927  -14.1666   18.9955 H   0  0  0  0  0  0
  -28.9185  -14.1202   21.4247 H   0  0  0  0  0  0
  -27.5217  -15.0474   21.4538 H   0  0  0  0  0  0
  -25.2887   -9.5742   22.4777 H   0  0  0  0  0  0
  -24.0081   -7.4711   22.7535 H   0  0  0  0  0  0
  -21.0948   -8.8851   19.8964 H   0  0  0  0  0  0
  -22.3863  -10.9704   19.6143 H   0  0  0  0  0  0
  -21.2006   -7.6168   23.9732 H   0  0  0  0  0  0
  -21.1461   -6.0529   25.9076 H   0  0  0  0  0  0
  -22.0596   -2.7637   23.2827 H   0  0  0  0  0  0
  -22.3787  -11.9681   22.5002 H   0  0  0  0  0  0
  -21.0620  -13.0858   22.2751 H   0  0  0  0  0  0
  -24.4158  -15.8317   20.5092 H   0  0  0  0  0  0
  -26.0501  -15.7303   20.0745 H   0  0  0  0  0  0
  -26.9703  -32.5022   22.6460 H   0  0  0  0  0  0
  -24.9741  -33.6787   24.5539 H   0  0  0  0  0  0
  -22.5103  -27.7409   21.2272 H   0  0  0  0  0  0
  -23.4120  -35.8612   23.2765 H   0  0  0  0  0  0
  -24.3401  -36.9349   22.2411 H   0  0  0  0  0  0
  -23.6876  -37.5196   23.7748 H   0  0  0  0  0  0
  -25.2037  -30.3871   19.1132 H   0  0  0  0  0  0
  -26.4069  -31.0007   20.1008 H   0  0  0  0  0  0
  -28.0761  -29.9590   20.5780 H   0  0  0  0  0  0
  -28.4489  -25.7716   20.9239 H   0  0  0  0  0  0
  -27.1623  -25.4664   19.1464 H   0  0  0  0  0  0
  -23.7362  -25.7009   21.2708 H   0  0  0  0  0  0
  -24.7219  -26.0176   22.5533 H   0  0  0  0  0  0
  -25.1817  -35.9937   25.0331 H   0  0  0  0  0  0
  -20.4484  -27.7585   24.5435 H   0  0  0  0  0  0
  -19.6124  -25.7960   23.5046 H   0  0  0  0  0  0
  -21.0671  -25.9208   22.6476 H   0  0  0  0  0  0
  -19.3441  -25.5564   21.0150 H   0  0  0  0  0  0
  -19.6987  -27.2696   20.8413 H   0  0  0  0  0  0
  -17.2532  -26.9120   21.1296 H   0  0  0  0  0  0
  -17.5068  -26.0173   22.6018 H   0  0  0  0  0  0
  -19.7647  -30.4455   24.3980 H   0  0  0  0  0  0
  -17.5668  -31.6123   24.5374 H   0  0  0  0  0  0
  -15.5166  -30.4810   23.6967 H   0  0  0  0  0  0
  -15.6813  -28.3000   22.5409 H   0  0  0  0  0  0
  -24.6197  -30.8516   25.2902 H   0  0  0  0  0  0
  -25.0849  -32.0810   26.3633 H   0  0  0  0  0  0
  -25.9071  -30.5395   26.4548 H   0  0  0  0  0  0
  -27.8834  -30.5052   23.4704 H   0  0  0  0  0  0
  -28.1243  -30.2505   25.2881 H   0  0  0  0  0  0
  -28.7164  -31.5184   24.3572 H   0  0  0  0  0  0
  -26.6965  -33.5545   26.0994 H   0  0  0  0  0  0
  -28.0894  -33.3922   25.0945 H   0  0  0  0  0  0
  -27.8720  -32.3348   26.4906 H   0  0  0  0  0  0
  -28.2153  -38.0140   24.8133 H   0  0  0  0  0  0
  -28.1429  -36.2763   24.5658 H   0  0  0  0  0  0
  -27.2481  -37.0235   25.8931 H   0  0  0  0  0  0
  -20.9684  -28.9970   21.9793 H   0  0  0  0  0  0
  -25.9516  -38.2194   24.2319 H   0  0  0  0  0  0
  -24.8588  -22.6579   16.7609 H   0  0  0  0  0  0
  -26.0378  -20.8967   17.6644 H   0  0  0  0  0  0
  -26.3820  -23.6538   20.9545 H   0  0  0  0  0  0
  -21.5477  -30.3297   19.9433 H   0  0  0  0  0  0
  -26.0025  -27.4641   22.3224 H   0  0  0  0  0  0
  -26.2682  -29.1381   21.8308 H   0  0  0  0  0  0
  -24.4318  -29.0447   24.3094 H   0  0  0  0  0  0
  -24.4775  -24.8061   16.0974 H   0  0  0  0  0  0
  -24.2146  -26.1488   17.1962 H   0  0  0  0  0  0
  -22.9849  -24.8749   17.0640 H   0  0  0  0  0  0
  -26.2622  -27.7673   24.1690 H   0  0  0  0  0  0
  -26.8384  -28.8917   24.6567 H   0  0  0  0  0  0
  -28.3772  -19.7075   20.7903 H   0  0  0  0  0  0
  1 25  1  0  0  0
  1 30  2  0  0  0
  1 85  1  0  0  0
  2  3  1  0  0  0
  2 25  1  0  0  0
  2 88  1  0  0  0
  2 89  1  0  0  0
  3  4  1  0  0  0
  3 90  1  0  0  0
  3 91  1  0  0  0
  4  5  1  0  0  0
  4 92  1  0  0  0
  4 93  1  0  0  0
  5  6  1  0  0  0
  5 26  1  0  0  0
  5 94  1  0  0  0
  6 25  1  0  0  0
  6 95  1  0  0  0
  6 96  1  0  0  0
  7  8  2  0  0  0
  7 26  1  0  0  0
  7 29  1  0  0  0
  8  9  1  0  0  0
  8 22  1  0  0  0
  9 10  1  0  0  0
  9 27  2  0  0  0
 10 11  2  0  0  0
 10 15  1  0  0  0
 11 12  1  0  0  0
 11 97  1  0  0  0
 12 13  2  0  0  0
 12 98  1  0  0  0
 13 14  1  0  0  0
 13 31  1  0  0  0
 14 15  2  0  0  0
 14 99  1  0  0  0
 15100  1  0  0  0
 16 17  2  0  0  0
 16 21  1  0  0  0
 16 31  1  0  0  0
 17 18  1  0  0  0
 17101  1  0  0  0
 18 19  2  0  0  0
 18102  1  0  0  0
 19 20  1  0  0  0
 19 24  1  0  0  0
 20 21  2  0  0  0
 20103  1  0  0  0
 21 23  1  0  0  0
 22 28  1  0  0  0
 22 32  2  0  0  0
 26 27  1  0  0  0
 28104  1  0  0  0
 28105  1  0  0  0
 29106  1  0  0  0
 29107  1  0  0  0
 33 34  1  0  0  0
 33 66  1  0  0  0
 33 70  2  0  0  0
 34 36  1  0  0  0
 34 59  1  0  0  0
 34108  1  0  0  0
 35 44  2  0  0  0
 35 45  1  0  0  0
 35 68  1  0  0  0
 36 56  1  0  0  0
 36109  1  0  0  0
 37 39  1  0  0  0
 37 47  1  0  0  0
 37 66  1  0  0  0
 37110  1  0  0  0
 38 43  2  0  0  0
 38 46  1  0  0  0
 38 47  1  0  0  0
 39 64  1  0  0  0
 39 67  2  0  0  0
 40 52  1  0  0  0
 40 53  2  0  0  0
 40 58  1  0  0  0
 41111  1  0  0  0
 41112  1  0  0  0
 41113  1  0  0  0
 41 48  1  0  0  0
 42 43  1  0  0  0
 42 66  1  0  0  0
 42114  1  0  0  0
 42115  1  0  0  0
 43 44  1  0  0  0
 44116  1  0  0  0
 45 46  2  0  0  0
 45117  1  0  0  0
 46118  1  0  0  0
 47119  1  0  0  0
 47120  1  0  0  0
 48 56  1  0  0  0
 48 65  1  0  0  0
 48121  1  0  0  0
 49 50  1  0  0  0
 49 53  1  0  0  0
 49 64  1  0  0  0
 49122  1  0  0  0
 50 51  1  0  0  0
 50123  1  0  0  0
 50124  1  0  0  0
 51 52  1  0  0  0
 51125  1  0  0  0
 51126  1  0  0  0
 52127  1  0  0  0
 52128  1  0  0  0
 53 54  1  0  0  0
 54 55  2  0  0  0
 54129  1  0  0  0
 55 57  1  0  0  0
 55130  1  0  0  0
 56 69  2  0  0  0
 57 58  2  0  0  0
 57131  1  0  0  0
 58132  1  0  0  0
 59 60  1  0  0  0
 59 61  1  0  0  0
 59 62  1  0  0  0
 60133  1  0  0  0
 60134  1  0  0  0
 60135  1  0  0  0
 61136  1  0  0  0
 61137  1  0  0  0
 61138  1  0  0  0
 62139  1  0  0  0
 62140  1  0  0  0
 62141  1  0  0  0
 63 65  1  0  0  0
 63142  1  0  0  0
 63143  1  0  0  0
 63144  1  0  0  0
 64145  1  0  0  0
 65146  1  0  0  0
 68 83  1  0  0  0
 71 72  2  0  0  0
 71 74  1  0  0  0
 71147  1  0  0  0
 72 76  1  0  0  0
 72148  1  0  0  0
 73 75  1  0  0  0
 73 76  2  0  0  0
 73149  1  0  0  0
 74 75  2  0  0  0
 74 82  1  0  0  0
 75 84  1  0  0  0
 76 85  1  0  0  0
 77 78  2  0  0  0
 77 79  1  0  0  0
 77150  1  0  0  0
 78 81  1  0  0  0
 78 86  1  0  0  0
 79 84  1  0  0  0
 79 87  2  0  0  0
 80 81  1  0  0  0
 80 84  1  0  0  0
 80151  1  0  0  0
 80152  1  0  0  0
 81 83  1  0  0  0
 81153  1  0  0  0
 82154  1  0  0  0
 82155  1  0  0  0
 82156  1  0  0  0
 83157  1  0  0  0
 83158  1  0  0  0
 85159  1  0  0  0
M  CHG  1  86  -1
M  ISO  4   1 100  68 101  83 101  85 100
M  END
> <chiral flag>
0

> <version>
0

> <s_m_source_file>
/data/baiqing/PycharmProjects/Reinvent-master-3.2/result/LINK_invent/BTK/process_docking_weight1_custom_product_contain_oxygen_bond_distance_aromatic_linkinvent_7_9_3/rearranged_h_0063.sdf

> <i_m_source_file_index>
34

> <r_mmod_Potential_Energy-OPLS-2005>
34017.62109375

> <r_mmod_Stretch_Energy-OPLS-2005>
15467.2861328125

> <r_mmod_Bend_Energy-OPLS-2005>
2967.7626953125

> <r_mmod_Torsional_Energy-OPLS-2005>
809.029968261719

> <r_mmod_Improper_Torsional_Energy-OPLS-2005>
70.5650634765625

> <r_mmod_Van_der_Waal_Energy-OPLS-2005>
4710.6552734375

> <r_mmod_Electrostatic_Energy-OPLS-2005>
-426.369018554688

> <r_mmod_Solvation_Energy-OPLS-2005>
-439.424682617188

> <b_mmod_Minimization_Converged-OPLS-2005>
0

> <r_mmod_RMS_Derivative-OPLS-2005>
8.19262409210205

$$$$
35
                    3D
 Structure written by MMmdl.
157166  0  0  1  0            999 V2000
  -30.6086  -14.7583   20.4308 C   0  0  0  0  0  0
  -30.4295  -12.4560   19.4903 C   0  0  0  0  0  0
  -29.5136  -12.5028   18.2484 C   0  0  0  0  0  0
  -28.0398  -12.3279   18.6598 C   0  0  0  0  0  0
  -27.6404  -13.2349   19.8551 C   0  0  2  0  0  0
  -28.6832  -13.1809   20.9917 C   0  0  0  0  0  0
  -25.2506  -13.8209   20.5723 C   0  0  0  0  0  0
  -24.1799  -13.0449   20.9223 C   0  0  0  0  0  0
  -24.6382  -11.6921   20.8762 C   0  0  0  0  0  0
  -23.9062  -10.4293   21.0413 C   0  0  0  0  0  0
  -24.3615   -9.4205   21.9189 C   0  0  0  0  0  0
  -23.6287   -8.2239   22.0737 C   0  0  0  0  0  0
  -22.4270   -8.0278   21.3537 C   0  0  0  0  0  0
  -21.9906   -9.0252   20.4642 C   0  0  0  0  0  0
  -22.7234  -10.2137   20.3058 C   0  0  0  0  0  0
  -21.6856   -6.0729   22.5286 C   0  0  0  0  0  0
  -21.4019   -6.5638   23.8219 C   0  0  0  0  0  0
  -21.3658   -5.6793   24.9187 C   0  0  0  0  0  0
  -21.6043   -4.3053   24.7236 C   0  0  0  0  0  0
  -21.8819   -3.8138   23.4359 C   0  0  0  0  0  0
  -21.9187   -4.6954   22.3415 C   0  0  0  0  0  0
  -22.7823  -13.5232   21.1874 C   0  0  0  0  0  0
  -22.1660   -4.2131   21.0994 F   0  0  0  0  0  0
  -21.5612   -3.4536   25.7752 F   0  0  0  0  0  0
  -29.9871  -13.5281   20.4151 N   0  0  0  0  0  0
  -26.2924  -12.9412   20.3309 N   0  0  0  0  0  0
  -25.9314  -11.6549   20.5779 N   0  0  0  0  0  0
  -22.0442  -12.8243   22.0426 N   0  0  0  0  0  0
  -25.4185  -15.1944   20.4175 N   0  0  0  0  0  0
  -31.7969  -14.8338   20.1031 O   0  0  0  0  0  0
  -21.6627   -6.8878   21.4249 O   0  0  0  0  0  0
  -22.3522  -14.5519   20.6685 O   0  0  0  0  0  0
  -24.6346  -31.8537   23.2006 C   0  0  0  0  0  0
  -25.9159  -32.4751   23.8352 C   0  0  1  0  0  0
  -27.2027  -27.2271   20.1328 C   0  0  0  0  0  0
  -25.5938  -33.8553   24.2269 N   0  0  0  0  0  0
  -23.4334  -30.4812   21.5430 C   0  0  2  0  0  0
  -24.8807  -28.9377   20.1044 C   0  0  0  0  0  0
  -22.7530  -29.4585   22.4876 C   0  0  0  0  0  0
  -18.0306  -28.1374   22.8493 C   0  0  0  0  0  0
  -24.1485  -36.7284   23.2636 C   0  0  0  0  0  0
  -25.9857  -30.7562   21.3892 C   0  0  0  0  0  0
  -26.0552  -29.3791   20.7276 C   0  0  0  0  0  0
  -27.2196  -28.5367   20.7342 C   0  0  0  0  0  0
  -26.0064  -26.8848   19.4548 C   0  0  0  0  0  0
  -24.8647  -27.7008   19.4537 C   0  0  0  0  0  0
  -23.6536  -29.8255   20.1562 C   0  0  0  0  0  0
  -25.4109  -36.3067   24.0328 C   0  0  1  0  0  0
  -20.5913  -28.3691   23.1249 C   0  0  2  0  0  0
  -20.6782  -26.9404   22.5396 C   0  0  0  0  0  0
  -19.5755  -26.6368   21.5203 C   0  0  0  0  0  0
  -18.1941  -26.7912   22.1632 C   0  0  0  0  0  0
  -19.1558  -28.8852   23.2867 C   0  0  0  0  0  0
  -18.9471  -30.1444   23.8897 C   0  0  0  0  0  0
  -17.6466  -30.6576   24.0554 C   0  0  0  0  0  0
  -25.9048  -34.9434   23.5097 C   0  0  0  0  0  0
  -16.5358  -29.9066   23.6324 C   0  0  0  0  0  0
  -16.7288  -28.6474   23.0368 C   0  0  0  0  0  0
  -26.4511  -31.6583   25.0749 C   0  0  0  0  0  0
  -25.3722  -31.3761   26.1464 C   0  0  0  0  0  0
  -27.0345  -30.2986   24.6265 C   0  0  0  0  0  0
  -27.6060  -32.4324   25.7521 C   0  0  0  0  0  0
  -27.5580  -37.1792   24.8460 C   0  0  0  0  0  0
  -21.4229  -29.3044   22.3637 N   0  0  0  0  0  0
  -26.4287  -37.3766   23.9413 N   0  0  0  0  0  0
  -24.7043  -31.0488   22.0995 N   0  0  0  0  0  0
  -23.4221  -28.8106   23.2965 O   0  0  0  0  0  0
  -28.2449  -26.2573   20.2281 O   0  0  0  0  0  0
  -26.5615  -34.8905   22.4663 O   0  0  0  0  0  0
  -23.5485  -32.1358   23.7285 O   0  0  0  0  0  0
  -30.6296  -18.4762   17.9524 C   0  0  0  0  0  0
  -30.5136  -17.2824   18.6850 C   0  0  0  0  0  0
  -29.6924  -23.2431   21.2899 C   0  0  0  0  0  0
  -29.5601  -18.5577   20.5263 C   0  0  0  0  0  0
  -30.2437  -19.7225   18.4866 C   0  0  0  0  0  0
  -28.6748  -23.4815   20.3106 C   0  0  0  0  0  0
  -29.6838  -19.8232   19.7919 C   0  0  0  0  0  0
  -29.9891  -17.2575   19.9956 C   0  0  0  0  0  0
  -30.0848  -21.9171   21.2482 C   0  0  0  0  0  0
  -28.4921  -22.1963   19.7712 C   0  0  0  0  0  0
  -30.4751  -20.9490   17.6101 C   0  0  0  0  0  0
  -27.8486  -24.8154   19.9685 C   0  0  0  0  0  0
  -29.3847  -21.2033   20.2793 N   0  0  0  0  0  0
  -29.8576  -15.9151   20.6457 N   0  0  0  0  0  0
  -31.0556  -21.2981   21.9768 O   0  0  0  0  0  0
  -27.5851  -21.8227   18.8236 O   0  0  0  0  0  0
  -31.4706  -12.5707   19.1857 H   0  0  0  0  0  0
  -30.3703  -11.4830   19.9803 H   0  0  0  0  0  0
  -29.7935  -11.7215   17.5405 H   0  0  0  0  0  0
  -29.6446  -13.4537   17.7294 H   0  0  0  0  0  0
  -27.9024  -11.2809   18.9323 H   0  0  0  0  0  0
  -27.3833  -12.5077   17.8088 H   0  0  0  0  0  0
  -27.6317  -14.2537   19.4676 H   0  0  0  0  0  0
  -28.7180  -12.1844   21.4348 H   0  0  0  0  0  0
  -28.4146  -13.8672   21.7965 H   0  0  0  0  0  0
  -25.2752   -9.5663   22.4784 H   0  0  0  0  0  0
  -23.9967   -7.4627   22.7471 H   0  0  0  0  0  0
  -21.0812   -8.8793   19.8971 H   0  0  0  0  0  0
  -22.3679  -10.9682   19.6174 H   0  0  0  0  0  0
  -21.2021   -7.6147   23.9725 H   0  0  0  0  0  0
  -21.1478   -6.0524   25.9095 H   0  0  0  0  0  0
  -22.0588   -2.7590   23.2881 H   0  0  0  0  0  0
  -22.4033  -11.9936   22.4899 H   0  0  0  0  0  0
  -21.1052  -13.1286   22.2586 H   0  0  0  0  0  0
  -24.6481  -15.8446   20.5303 H   0  0  0  0  0  0
  -26.2646  -15.6381   20.0824 H   0  0  0  0  0  0
  -26.7230  -32.5393   23.1097 H   0  0  0  0  0  0
  -25.0101  -33.9686   25.0427 H   0  0  0  0  0  0
  -22.7302  -31.3046   21.3997 H   0  0  0  0  0  0
  -23.3747  -35.9617   23.3284 H   0  0  0  0  0  0
  -24.3590  -36.8917   22.2057 H   0  0  0  0  0  0
  -23.7224  -37.6477   23.6666 H   0  0  0  0  0  0
  -26.1311  -31.5172   20.6215 H   0  0  0  0  0  0
  -26.8617  -30.8029   22.0241 H   0  0  0  0  0  0
  -28.1094  -28.8597   21.2568 H   0  0  0  0  0  0
  -25.8930  -25.9501   18.9294 H   0  0  0  0  0  0
  -23.9720  -27.3643   18.9443 H   0  0  0  0  0  0
  -23.7786  -30.6052   19.4043 H   0  0  0  0  0  0
  -22.7719  -29.2602   19.8490 H   0  0  0  0  0  0
  -25.1283  -36.1923   25.0820 H   0  0  0  0  0  0
  -21.0021  -28.3268   24.1363 H   0  0  0  0  0  0
  -20.5671  -26.2304   23.3602 H   0  0  0  0  0  0
  -21.6646  -26.7402   22.1188 H   0  0  0  0  0  0
  -19.6910  -25.6275   21.1234 H   0  0  0  0  0  0
  -19.6685  -27.3175   20.6732 H   0  0  0  0  0  0
  -17.4199  -26.6664   21.4041 H   0  0  0  0  0  0
  -18.0350  -26.0049   22.9026 H   0  0  0  0  0  0
  -19.7938  -30.7260   24.2279 H   0  0  0  0  0  0
  -17.5010  -31.6258   24.5144 H   0  0  0  0  0  0
  -15.5355  -30.2968   23.7627 H   0  0  0  0  0  0
  -15.8689  -28.0771   22.7111 H   0  0  0  0  0  0
  -24.5903  -30.7097   25.7807 H   0  0  0  0  0  0
  -24.8909  -32.2940   26.4847 H   0  0  0  0  0  0
  -25.8028  -30.8974   27.0268 H   0  0  0  0  0  0
  -26.2939  -29.6741   24.1258 H   0  0  0  0  0  0
  -27.3964  -29.7247   25.4805 H   0  0  0  0  0  0
  -27.8849  -30.4240   23.9561 H   0  0  0  0  0  0
  -27.2679  -33.3646   26.2058 H   0  0  0  0  0  0
  -28.3898  -32.6844   25.0366 H   0  0  0  0  0  0
  -28.0694  -31.8467   26.5470 H   0  0  0  0  0  0
  -28.2575  -38.0111   24.7516 H   0  0  0  0  0  0
  -28.1091  -36.2633   24.6263 H   0  0  0  0  0  0
  -27.2301  -37.1415   25.8864 H   0  0  0  0  0  0
  -20.9413  -29.8811   21.6880 H   0  0  0  0  0  0
  -26.0160  -38.2837   24.1422 H   0  0  0  0  0  0
  -31.0379  -18.4247   16.9522 H   0  0  0  0  0  0
  -30.8296  -16.3703   18.1951 H   0  0  0  0  0  0
  -30.1023  -23.9862   21.9589 H   0  0  0  0  0  0
  -29.1405  -18.5987   21.5208 H   0  0  0  0  0  0
  -31.1970  -20.7461   16.8201 H   0  0  0  0  0  0
  -30.8642  -21.7898   18.1840 H   0  0  0  0  0  0
  -29.5443  -21.2544   17.1323 H   0  0  0  0  0  0
  -26.8961  -24.6433   20.4748 H   0  0  0  0  0  0
  -27.6554  -24.7379   18.8982 H   0  0  0  0  0  0
  -28.9924  -15.7616   21.1413 H   0  0  0  0  0  0
  -31.4696  -21.9507   22.5331 H   0  0  0  0  0  0
  -27.0021  -22.5556   18.6572 H   0  0  0  0  0  0
  1 25  1  0  0  0
  1 30  2  0  0  0
  1 84  1  0  0  0
  2  3  1  0  0  0
  2 25  1  0  0  0
  2 87  1  0  0  0
  2 88  1  0  0  0
  3  4  1  0  0  0
  3 89  1  0  0  0
  3 90  1  0  0  0
  4  5  1  0  0  0
  4 91  1  0  0  0
  4 92  1  0  0  0
  5  6  1  0  0  0
  5 26  1  0  0  0
  5 93  1  0  0  0
  6 25  1  0  0  0
  6 94  1  0  0  0
  6 95  1  0  0  0
  7  8  2  0  0  0
  7 26  1  0  0  0
  7 29  1  0  0  0
  8  9  1  0  0  0
  8 22  1  0  0  0
  9 10  1  0  0  0
  9 27  2  0  0  0
 10 11  2  0  0  0
 10 15  1  0  0  0
 11 12  1  0  0  0
 11 96  1  0  0  0
 12 13  2  0  0  0
 12 97  1  0  0  0
 13 14  1  0  0  0
 13 31  1  0  0  0
 14 15  2  0  0  0
 14 98  1  0  0  0
 15 99  1  0  0  0
 16 17  2  0  0  0
 16 21  1  0  0  0
 16 31  1  0  0  0
 17 18  1  0  0  0
 17100  1  0  0  0
 18 19  2  0  0  0
 18101  1  0  0  0
 19 20  1  0  0  0
 19 24  1  0  0  0
 20 21  2  0  0  0
 20102  1  0  0  0
 21 23  1  0  0  0
 22 28  1  0  0  0
 22 32  2  0  0  0
 26 27  1  0  0  0
 28103  1  0  0  0
 28104  1  0  0  0
 29105  1  0  0  0
 29106  1  0  0  0
 33 34  1  0  0  0
 33 66  1  0  0  0
 33 70  2  0  0  0
 34 36  1  0  0  0
 34 59  1  0  0  0
 34107  1  0  0  0
 35 44  2  0  0  0
 35 45  1  0  0  0
 35 68  1  0  0  0
 36 56  1  0  0  0
 36108  1  0  0  0
 37 39  1  0  0  0
 37 47  1  0  0  0
 37 66  1  0  0  0
 37109  1  0  0  0
 38 43  2  0  0  0
 38 46  1  0  0  0
 38 47  1  0  0  0
 39 64  1  0  0  0
 39 67  2  0  0  0
 40 52  1  0  0  0
 40 53  2  0  0  0
 40 58  1  0  0  0
 41110  1  0  0  0
 41111  1  0  0  0
 41112  1  0  0  0
 41 48  1  0  0  0
 42 43  1  0  0  0
 42 66  1  0  0  0
 42113  1  0  0  0
 42114  1  0  0  0
 43 44  1  0  0  0
 44115  1  0  0  0
 45 46  2  0  0  0
 45116  1  0  0  0
 46117  1  0  0  0
 47118  1  0  0  0
 47119  1  0  0  0
 48 56  1  0  0  0
 48 65  1  0  0  0
 48120  1  0  0  0
 49 50  1  0  0  0
 49 53  1  0  0  0
 49 64  1  0  0  0
 49121  1  0  0  0
 50 51  1  0  0  0
 50122  1  0  0  0
 50123  1  0  0  0
 51 52  1  0  0  0
 51124  1  0  0  0
 51125  1  0  0  0
 52126  1  0  0  0
 52127  1  0  0  0
 53 54  1  0  0  0
 54 55  2  0  0  0
 54128  1  0  0  0
 55 57  1  0  0  0
 55129  1  0  0  0
 56 69  2  0  0  0
 57 58  2  0  0  0
 57130  1  0  0  0
 58131  1  0  0  0
 59 60  1  0  0  0
 59 61  1  0  0  0
 59 62  1  0  0  0
 60132  1  0  0  0
 60133  1  0  0  0
 60134  1  0  0  0
 61135  1  0  0  0
 61136  1  0  0  0
 61137  1  0  0  0
 62138  1  0  0  0
 62139  1  0  0  0
 62140  1  0  0  0
 63 65  1  0  0  0
 63141  1  0  0  0
 63142  1  0  0  0
 63143  1  0  0  0
 64144  1  0  0  0
 65145  1  0  0  0
 68 82  1  0  0  0
 71 72  2  0  0  0
 71 75  1  0  0  0
 71146  1  0  0  0
 72 78  1  0  0  0
 72147  1  0  0  0
 73 76  1  0  0  0
 73 79  2  0  0  0
 73148  1  0  0  0
 74 77  1  0  0  0
 74 78  2  0  0  0
 74149  1  0  0  0
 75 77  2  0  0  0
 75 81  1  0  0  0
 76 80  2  0  0  0
 76 82  1  0  0  0
 77 83  1  0  0  0
 78 84  1  0  0  0
 79 83  1  0  0  0
 79 85  1  0  0  0
 80 83  1  0  0  0
 80 86  1  0  0  0
 81150  1  0  0  0
 81151  1  0  0  0
 81152  1  0  0  0
 82153  1  0  0  0
 82154  1  0  0  0
 84155  1  0  0  0
 85156  1  0  0  0
 86157  1  0  0  0
M  ISO  4   1 100  68 101  82 101  84 100
M  END
> <chiral flag>
0

> <version>
0

> <s_m_source_file>
/data/baiqing/PycharmProjects/Reinvent-master-3.2/result/LINK_invent/BTK/process_docking_weight1_custom_product_contain_oxygen_bond_distance_aromatic_linkinvent_7_9_3/rearranged_h_0063.sdf

> <i_m_source_file_index>
35

> <r_mmod_Potential_Energy-OPLS-2005>
269.605804443359

> <r_mmod_Stretch_Energy-OPLS-2005>
138.95344543457

> <r_mmod_Bend_Energy-OPLS-2005>
176.241088867188

> <r_mmod_Torsional_Energy-OPLS-2005>
257.243072509766

> <r_mmod_Improper_Torsional_Energy-OPLS-2005>
6.0416841506958

> <r_mmod_Van_der_Waal_Energy-OPLS-2005>
145.537872314453

> <r_mmod_Electrostatic_Energy-OPLS-2005>
-321.878295898438

> <r_mmod_Solvation_Energy-OPLS-2005>
-239.235748291016

> <b_mmod_Minimization_Converged-OPLS-2005>
0

> <r_mmod_RMS_Derivative-OPLS-2005>
2.35827112197876

$$$$
36
                    3D
 Structure written by MMmdl.
163172  0  0  1  0            999 V2000
  -30.5905  -14.6634   20.5110 C   0  0  0  0  0  0
  -30.4466  -12.4099   19.4494 C   0  0  0  0  0  0
  -29.5091  -12.5173   18.2245 C   0  0  0  0  0  0
  -28.0324  -12.3463   18.6381 C   0  0  0  0  0  0
  -27.6552  -13.2123   19.8691 C   0  0  2  0  0  0
  -28.7008  -13.0544   20.9961 C   0  0  0  0  0  0
  -25.2567  -13.8146   20.5688 C   0  0  0  0  0  0
  -24.1827  -13.0419   20.9199 C   0  0  0  0  0  0
  -24.6389  -11.6890   20.8752 C   0  0  0  0  0  0
  -23.9051  -10.4279   21.0412 C   0  0  0  0  0  0
  -24.3600   -9.4190   21.9190 C   0  0  0  0  0  0
  -23.6279   -8.2225   22.0754 C   0  0  0  0  0  0
  -22.4262   -8.0271   21.3539 C   0  0  0  0  0  0
  -21.9898   -9.0245   20.4642 C   0  0  0  0  0  0
  -22.7225  -10.2126   20.3055 C   0  0  0  0  0  0
  -21.6844   -6.0728   22.5281 C   0  0  0  0  0  0
  -21.4009   -6.5633   23.8216 C   0  0  0  0  0  0
  -21.3661   -5.6787   24.9178 C   0  0  0  0  0  0
  -21.6046   -4.3050   24.7229 C   0  0  0  0  0  0
  -21.8816   -3.8140   23.4349 C   0  0  0  0  0  0
  -21.9185   -4.6954   22.3403 C   0  0  0  0  0  0
  -22.7850  -13.5221   21.1859 C   0  0  0  0  0  0
  -22.1653   -4.2137   21.0981 F   0  0  0  0  0  0
  -21.5633   -3.4538   25.7746 F   0  0  0  0  0  0
  -30.0126  -13.4205   20.4354 N   0  0  0  0  0  0
  -26.2997  -12.9318   20.3349 N   0  0  0  0  0  0
  -25.9321  -11.6475   20.5782 N   0  0  0  0  0  0
  -22.0484  -12.8222   22.0415 N   0  0  0  0  0  0
  -25.4282  -15.1864   20.4080 N   0  0  0  0  0  0
  -31.7418  -14.8618   20.1071 O   0  0  0  0  0  0
  -21.6622   -6.8872   21.4243 O   0  0  0  0  0  0
  -22.3539  -14.5529   20.6703 O   0  0  0  0  0  0
  -24.6259  -31.8586   23.2017 C   0  0  0  0  0  0
  -25.9109  -32.4771   23.8344 C   0  0  1  0  0  0
  -27.2304  -27.3133   20.1066 C   0  0  0  0  0  0
  -25.5921  -33.8572   24.2272 N   0  0  0  0  0  0
  -23.4190  -30.4823   21.5441 C   0  0  2  0  0  0
  -24.8645  -28.9338   20.1107 C   0  0  0  0  0  0
  -22.7466  -29.4624   22.4938 C   0  0  0  0  0  0
  -18.0283  -28.1383   22.8486 C   0  0  0  0  0  0
  -24.1490  -36.7291   23.2641 C   0  0  0  0  0  0
  -25.9602  -30.7876   21.3724 C   0  0  0  0  0  0
  -26.0328  -29.4141   20.7131 C   0  0  0  0  0  0
  -27.2129  -28.6138   20.7032 C   0  0  0  0  0  0
  -26.0297  -26.8779   19.4977 C   0  0  0  0  0  0
  -24.8651  -27.6711   19.4982 C   0  0  0  0  0  0
  -23.6325  -29.8149   20.1596 C   0  0  0  0  0  0
  -25.4114  -36.3081   24.0329 C   0  0  1  0  0  0
  -20.5882  -28.3686   23.1285 C   0  0  2  0  0  0
  -20.6771  -26.9411   22.5409 C   0  0  0  0  0  0
  -19.5750  -26.6384   21.5209 C   0  0  0  0  0  0
  -18.1931  -26.7927   22.1622 C   0  0  0  0  0  0
  -19.1535  -28.8850   23.2882 C   0  0  0  0  0  0
  -18.9460  -30.1453   23.8895 C   0  0  0  0  0  0
  -17.6462  -30.6588   24.0561 C   0  0  0  0  0  0
  -25.9049  -34.9449   23.5103 C   0  0  0  0  0  0
  -16.5352  -29.9085   23.6331 C   0  0  0  0  0  0
  -16.7271  -28.6502   23.0352 C   0  0  0  0  0  0
  -26.4494  -31.6586   25.0719 C   0  0  0  0  0  0
  -25.3735  -31.3717   26.1452 C   0  0  0  0  0  0
  -27.0331  -30.3008   24.6173 C   0  0  0  0  0  0
  -27.6051  -32.4323   25.7490 C   0  0  0  0  0  0
  -27.5580  -37.1800   24.8463 C   0  0  0  0  0  0
  -21.4180  -29.3041   22.3678 N   0  0  0  0  0  0
  -26.4289  -37.3777   23.9411 N   0  0  0  0  0  0
  -24.6873  -31.0594   22.0966 N   0  0  0  0  0  0
  -23.4189  -28.8170   23.3024 O   0  0  0  0  0  0
  -28.3816  -26.5082   20.1750 O   0  0  0  0  0  0
  -26.5621  -34.8917   22.4673 O   0  0  0  0  0  0
  -23.5424  -32.1390   23.7344 O   0  0  0  0  0  0
  -29.6315  -19.3770   19.8943 C   0  0  0  0  0  0
  -29.7996  -17.9566   19.8216 C   0  0  0  0  0  0
  -29.5334  -20.0751   21.1315 C   0  0  0  0  0  0
  -29.5973  -19.2439   22.3013 C   0  0  0  0  0  0
  -29.7137  -17.8101   22.2266 C   0  0  0  0  0  0
  -29.8412  -17.1321   20.9796 C   0  0  0  0  0  0
  -30.1923  -22.7603   19.2601 C   0  0  0  0  0  0
  -28.5195  -23.9113   20.5100 C   0  0  0  0  0  0
  -30.1361  -23.8284   18.1580 C   0  0  0  0  0  0
  -29.8159  -25.2116   18.7324 C   0  0  0  0  0  0
  -28.5144  -25.1718   19.5352 C   0  0  2  0  0  0
  -29.4821  -19.8946   23.6849 C   0  0  0  0  0  0
  -29.6719  -16.9879   23.5169 C   0  0  0  0  0  0
  -29.3282  -21.6517   21.3148 C   0  0  0  0  0  0
  -29.2768  -22.7612   20.2661 N   0  0  0  0  0  0
  -29.7516  -15.6697   20.9193 N   0  0  0  0  0  0
  -31.1052  -21.9329   19.1869 O   0  0  0  0  0  0
  -27.8086  -24.0029   21.5180 O   0  0  0  0  0  0
  -31.4842  -12.5558   19.1427 H   0  0  0  0  0  0
  -30.4005  -11.4108   19.8857 H   0  0  0  0  0  0
  -29.7772  -11.7682   17.4786 H   0  0  0  0  0  0
  -29.6436  -13.4884   17.7448 H   0  0  0  0  0  0
  -27.8748  -11.2918   18.8687 H   0  0  0  0  0  0
  -27.3737  -12.5754   17.7993 H   0  0  0  0  0  0
  -27.6763  -14.2500   19.5353 H   0  0  0  0  0  0
  -28.7215  -12.0256   21.3592 H   0  0  0  0  0  0
  -28.4386  -13.6640   21.8619 H   0  0  0  0  0  0
  -25.2744   -9.5660   22.4764 H   0  0  0  0  0  0
  -23.9985   -7.4614   22.7469 H   0  0  0  0  0  0
  -21.0826   -8.8756   19.8956 H   0  0  0  0  0  0
  -22.3682  -10.9658   19.6159 H   0  0  0  0  0  0
  -21.2001   -7.6143   23.9717 H   0  0  0  0  0  0
  -21.1490   -6.0518   25.9084 H   0  0  0  0  0  0
  -22.0596   -2.7601   23.2847 H   0  0  0  0  0  0
  -22.4078  -11.9873   22.4805 H   0  0  0  0  0  0
  -21.1106  -13.1259   22.2622 H   0  0  0  0  0  0
  -24.6607  -15.8398   20.5191 H   0  0  0  0  0  0
  -26.2726  -15.6263   20.0646 H   0  0  0  0  0  0
  -26.7173  -32.5435   23.1087 H   0  0  0  0  0  0
  -25.0062  -33.9714   25.0412 H   0  0  0  0  0  0
  -22.7135  -31.3032   21.4007 H   0  0  0  0  0  0
  -23.3751  -35.9624   23.3297 H   0  0  0  0  0  0
  -24.3583  -36.8917   22.2056 H   0  0  0  0  0  0
  -23.7240  -37.6491   23.6664 H   0  0  0  0  0  0
  -26.0926  -31.5526   20.6057 H   0  0  0  0  0  0
  -26.8402  -30.8339   22.0026 H   0  0  0  0  0  0
  -28.1105  -28.9809   21.1812 H   0  0  0  0  0  0
  -25.9357  -25.9083   19.0374 H   0  0  0  0  0  0
  -23.9646  -27.2912   19.0352 H   0  0  0  0  0  0
  -23.7513  -30.5908   19.4023 H   0  0  0  0  0  0
  -22.7518  -29.2443   19.8586 H   0  0  0  0  0  0
  -25.1296  -36.1930   25.0820 H   0  0  0  0  0  0
  -20.9978  -28.3262   24.1404 H   0  0  0  0  0  0
  -20.5671  -26.2297   23.3608 H   0  0  0  0  0  0
  -21.6642  -26.7442   22.1205 H   0  0  0  0  0  0
  -19.6914  -25.6294   21.1240 H   0  0  0  0  0  0
  -19.6693  -27.3192   20.6736 H   0  0  0  0  0  0
  -17.4203  -26.6673   21.4024 H   0  0  0  0  0  0
  -18.0335  -26.0066   22.9017 H   0  0  0  0  0  0
  -19.7937  -30.7267   24.2266 H   0  0  0  0  0  0
  -17.5017  -31.6268   24.5163 H   0  0  0  0  0  0
  -15.5353  -30.2988   23.7652 H   0  0  0  0  0  0
  -15.8672  -28.0819   22.7069 H   0  0  0  0  0  0
  -24.5907  -30.7069   25.7787 H   0  0  0  0  0  0
  -24.8930  -32.2876   26.4897 H   0  0  0  0  0  0
  -25.8069  -30.8885   27.0217 H   0  0  0  0  0  0
  -26.2898  -29.6761   24.1207 H   0  0  0  0  0  0
  -27.4034  -29.7266   25.4676 H   0  0  0  0  0  0
  -27.8768  -30.4292   23.9389 H   0  0  0  0  0  0
  -27.2659  -33.3621   26.2068 H   0  0  0  0  0  0
  -28.3860  -32.6888   25.0320 H   0  0  0  0  0  0
  -28.0720  -31.8450   26.5406 H   0  0  0  0  0  0
  -28.2593  -38.0103   24.7517 H   0  0  0  0  0  0
  -28.1081  -36.2634   24.6278 H   0  0  0  0  0  0
  -27.2300  -37.1435   25.8866 H   0  0  0  0  0  0
  -20.9357  -29.8760   21.6886 H   0  0  0  0  0  0
  -26.0170  -38.2851   24.1414 H   0  0  0  0  0  0
  -29.5650  -19.9249   18.9663 H   0  0  0  0  0  0
  -29.8356  -17.4935   18.8456 H   0  0  0  0  0  0
  -29.3810  -23.5314   17.4290 H   0  0  0  0  0  0
  -31.0882  -23.8590   17.6266 H   0  0  0  0  0  0
  -29.7303  -25.9382   17.9242 H   0  0  0  0  0  0
  -30.6362  -25.5496   19.3675 H   0  0  0  0  0  0
  -27.7273  -24.9825   18.8114 H   0  0  0  0  0  0
  -29.9719  -20.8626   23.7488 H   0  0  0  0  0  0
  -29.9542  -19.3113   24.4727 H   0  0  0  0  0  0
  -28.4331  -20.0274   23.9503 H   0  0  0  0  0  0
  -30.5948  -17.1295   24.0796 H   0  0  0  0  0  0
  -29.5553  -15.9168   23.3666 H   0  0  0  0  0  0
  -28.8330  -17.2937   24.1428 H   0  0  0  0  0  0
  -30.1361  -21.9837   21.9664 H   0  0  0  0  0  0
  -28.4220  -21.7133   21.9180 H   0  0  0  0  0  0
  -28.8873  -15.3038   21.2891 H   0  0  0  0  0  0
  1 25  1  0  0  0
  1 30  2  0  0  0
  1 86  1  0  0  0
  2  3  1  0  0  0
  2 25  1  0  0  0
  2 89  1  0  0  0
  2 90  1  0  0  0
  3  4  1  0  0  0
  3 91  1  0  0  0
  3 92  1  0  0  0
  4  5  1  0  0  0
  4 93  1  0  0  0
  4 94  1  0  0  0
  5  6  1  0  0  0
  5 26  1  0  0  0
  5 95  1  0  0  0
  6 25  1  0  0  0
  6 96  1  0  0  0
  6 97  1  0  0  0
  7  8  2  0  0  0
  7 26  1  0  0  0
  7 29  1  0  0  0
  8  9  1  0  0  0
  8 22  1  0  0  0
  9 10  1  0  0  0
  9 27  2  0  0  0
 10 11  2  0  0  0
 10 15  1  0  0  0
 11 12  1  0  0  0
 11 98  1  0  0  0
 12 13  2  0  0  0
 12 99  1  0  0  0
 13 14  1  0  0  0
 13 31  1  0  0  0
 14 15  2  0  0  0
 14100  1  0  0  0
 15101  1  0  0  0
 16 17  2  0  0  0
 16 21  1  0  0  0
 16 31  1  0  0  0
 17 18  1  0  0  0
 17102  1  0  0  0
 18 19  2  0  0  0
 18103  1  0  0  0
 19 20  1  0  0  0
 19 24  1  0  0  0
 20 21  2  0  0  0
 20104  1  0  0  0
 21 23  1  0  0  0
 22 28  1  0  0  0
 22 32  2  0  0  0
 26 27  1  0  0  0
 28105  1  0  0  0
 28106  1  0  0  0
 29107  1  0  0  0
 29108  1  0  0  0
 33 34  1  0  0  0
 33 66  1  0  0  0
 33 70  2  0  0  0
 34 36  1  0  0  0
 34 59  1  0  0  0
 34109  1  0  0  0
 35 44  2  0  0  0
 35 45  1  0  0  0
 35 68  1  0  0  0
 36 56  1  0  0  0
 36110  1  0  0  0
 37 39  1  0  0  0
 37 47  1  0  0  0
 37 66  1  0  0  0
 37111  1  0  0  0
 38 43  2  0  0  0
 38 46  1  0  0  0
 38 47  1  0  0  0
 39 64  1  0  0  0
 39 67  2  0  0  0
 40 52  1  0  0  0
 40 53  2  0  0  0
 40 58  1  0  0  0
 41112  1  0  0  0
 41113  1  0  0  0
 41114  1  0  0  0
 41 48  1  0  0  0
 42 43  1  0  0  0
 42 66  1  0  0  0
 42115  1  0  0  0
 42116  1  0  0  0
 43 44  1  0  0  0
 44117  1  0  0  0
 45 46  2  0  0  0
 45118  1  0  0  0
 46119  1  0  0  0
 47120  1  0  0  0
 47121  1  0  0  0
 48 56  1  0  0  0
 48 65  1  0  0  0
 48122  1  0  0  0
 49 50  1  0  0  0
 49 53  1  0  0  0
 49 64  1  0  0  0
 49123  1  0  0  0
 50 51  1  0  0  0
 50124  1  0  0  0
 50125  1  0  0  0
 51 52  1  0  0  0
 51126  1  0  0  0
 51127  1  0  0  0
 52128  1  0  0  0
 52129  1  0  0  0
 53 54  1  0  0  0
 54 55  2  0  0  0
 54130  1  0  0  0
 55 57  1  0  0  0
 55131  1  0  0  0
 56 69  2  0  0  0
 57 58  2  0  0  0
 57132  1  0  0  0
 58133  1  0  0  0
 59 60  1  0  0  0
 59 61  1  0  0  0
 59 62  1  0  0  0
 60134  1  0  0  0
 60135  1  0  0  0
 60136  1  0  0  0
 61137  1  0  0  0
 61138  1  0  0  0
 61139  1  0  0  0
 62140  1  0  0  0
 62141  1  0  0  0
 62142  1  0  0  0
 63 65  1  0  0  0
 63143  1  0  0  0
 63144  1  0  0  0
 63145  1  0  0  0
 64146  1  0  0  0
 65147  1  0  0  0
 68 81  1  0  0  0
 71 72  2  0  0  0
 71 73  1  0  0  0
 71148  1  0  0  0
 72 76  1  0  0  0
 72149  1  0  0  0
 73 74  2  0  0  0
 73 84  1  0  0  0
 74 75  1  0  0  0
 74 82  1  0  0  0
 75 76  2  0  0  0
 75 83  1  0  0  0
 76 86  1  0  0  0
 77 79  1  0  0  0
 77 85  1  0  0  0
 77 87  2  0  0  0
 78 81  1  0  0  0
 78 85  1  0  0  0
 78 88  2  0  0  0
 79 80  1  0  0  0
 79150  1  0  0  0
 79151  1  0  0  0
 80 81  1  0  0  0
 80152  1  0  0  0
 80153  1  0  0  0
 81154  1  0  0  0
 82155  1  0  0  0
 82156  1  0  0  0
 82157  1  0  0  0
 83158  1  0  0  0
 83159  1  0  0  0
 83160  1  0  0  0
 84 85  1  0  0  0
 84161  1  0  0  0
 84162  1  0  0  0
 86163  1  0  0  0
M  ISO  4   1 100  68 101  81 101  86 100
M  END
> <chiral flag>
0

> <version>
0

> <s_m_source_file>
/data/baiqing/PycharmProjects/Reinvent-master-3.2/result/LINK_invent/BTK/process_docking_weight1_custom_product_contain_oxygen_bond_distance_aromatic_linkinvent_7_9_3/rearranged_h_0063.sdf

> <i_m_source_file_index>
36

> <r_mmod_Potential_Energy-OPLS-2005>
59.8742294311523

> <r_mmod_Stretch_Energy-OPLS-2005>
104.381286621094

> <r_mmod_Bend_Energy-OPLS-2005>
186.349258422852

> <r_mmod_Torsional_Energy-OPLS-2005>
230.256500244141

> <r_mmod_Improper_Torsional_Energy-OPLS-2005>
5.74428749084473

> <r_mmod_Van_der_Waal_Energy-OPLS-2005>
175.717010498047

> <r_mmod_Electrostatic_Energy-OPLS-2005>
-450.896240234375

> <r_mmod_Solvation_Energy-OPLS-2005>
-243.593643188477

> <b_mmod_Minimization_Converged-OPLS-2005>
0

> <r_mmod_RMS_Derivative-OPLS-2005>
0.951989591121674

$$$$
37
                    3D
 Structure written by MMmdl.
178186  0  0  1  0            999 V2000
  -30.6797  -14.5529   20.5630 C   0  0  0  0  0  0
  -30.4286  -12.3576   19.4479 C   0  0  0  0  0  0
  -29.5068  -12.5062   18.2198 C   0  0  0  0  0  0
  -28.0270  -12.3589   18.6243 C   0  0  0  0  0  0
  -27.6545  -13.2146   19.8653 C   0  0  2  0  0  0
  -28.6927  -13.0513   20.9970 C   0  0  0  0  0  0
  -25.2564  -13.8178   20.5673 C   0  0  0  0  0  0
  -24.1824  -13.0464   20.9199 C   0  0  0  0  0  0
  -24.6391  -11.6923   20.8746 C   0  0  0  0  0  0
  -23.9067  -10.4310   21.0445 C   0  0  0  0  0  0
  -24.3615   -9.4213   21.9216 C   0  0  0  0  0  0
  -23.6287   -8.2250   22.0781 C   0  0  0  0  0  0
  -22.4266   -8.0311   21.3569 C   0  0  0  0  0  0
  -21.9911   -9.0286   20.4677 C   0  0  0  0  0  0
  -22.7246  -10.2163   20.3092 C   0  0  0  0  0  0
  -21.6847   -6.0768   22.5293 C   0  0  0  0  0  0
  -21.4016   -6.5661   23.8232 C   0  0  0  0  0  0
  -21.3647   -5.6802   24.9184 C   0  0  0  0  0  0
  -21.6041   -4.3071   24.7227 C   0  0  0  0  0  0
  -21.8808   -3.8171   23.4346 C   0  0  0  0  0  0
  -21.9186   -4.6996   22.3401 C   0  0  0  0  0  0
  -22.7858  -13.5277   21.1827 C   0  0  0  0  0  0
  -22.1665   -4.2190   21.0976 F   0  0  0  0  0  0
  -21.5604   -3.4549   25.7724 F   0  0  0  0  0  0
  -30.0177  -13.3665   20.4388 N   0  0  0  0  0  0
  -26.2973  -12.9349   20.3285 N   0  0  0  0  0  0
  -25.9311  -11.6497   20.5719 N   0  0  0  0  0  0
  -22.0462  -12.8317   22.0390 N   0  0  0  0  0  0
  -25.4294  -15.1901   20.4092 N   0  0  0  0  0  0
  -31.8357  -14.7006   20.1557 O   0  0  0  0  0  0
  -21.6628   -6.8915   21.4265 O   0  0  0  0  0  0
  -22.3574  -14.5578   20.6647 O   0  0  0  0  0  0
  -24.6163  -31.8649   23.2093 C   0  0  0  0  0  0
  -25.9054  -32.4810   23.8369 C   0  0  1  0  0  0
  -27.2181  -27.3916   20.0837 C   0  0  0  0  0  0
  -25.5869  -33.8601   24.2292 N   0  0  0  0  0  0
  -23.4026  -30.4903   21.5550 C   0  0  2  0  0  0
  -24.8457  -28.9545   20.1115 C   0  0  0  0  0  0
  -22.7412  -29.4649   22.5018 C   0  0  0  0  0  0
  -18.0280  -28.1308   22.8487 C   0  0  0  0  0  0
  -24.1517  -36.7322   23.2646 C   0  0  0  0  0  0
  -25.9395  -30.8117   21.3754 C   0  0  0  0  0  0
  -26.0103  -29.4487   20.7101 C   0  0  0  0  0  0
  -27.1998  -28.6730   20.6916 C   0  0  0  0  0  0
  -26.0390  -26.9455   19.4433 C   0  0  0  0  0  0
  -24.8581  -27.7055   19.4710 C   0  0  0  0  0  0
  -23.6056  -29.8186   20.1715 C   0  0  0  0  0  0
  -25.4130  -36.3101   24.0357 C   0  0  1  0  0  0
  -20.5869  -28.3607   23.1301 C   0  0  2  0  0  0
  -20.6735  -26.9336   22.5392 C   0  0  0  0  0  0
  -19.5715  -26.6331   21.5171 C   0  0  0  0  0  0
  -18.1908  -26.7855   22.1608 C   0  0  0  0  0  0
  -19.1526  -28.8775   23.2902 C   0  0  0  0  0  0
  -18.9462  -30.1380   23.8906 C   0  0  0  0  0  0
  -17.6465  -30.6529   24.0523 C   0  0  0  0  0  0
  -25.9044  -34.9459   23.5147 C   0  0  0  0  0  0
  -16.5358  -29.9004   23.6317 C   0  0  0  0  0  0
  -16.7269  -28.6414   23.0352 C   0  0  0  0  0  0
  -26.4455  -31.6600   25.0716 C   0  0  0  0  0  0
  -25.3712  -31.3689   26.1444 C   0  0  0  0  0  0
  -27.0248  -30.3017   24.6121 C   0  0  0  0  0  0
  -27.6054  -32.4276   25.7474 C   0  0  0  0  0  0
  -27.5614  -37.1818   24.8467 C   0  0  0  0  0  0
  -21.4140  -29.3011   22.3729 N   0  0  0  0  0  0
  -26.4335  -37.3771   23.9402 N   0  0  0  0  0  0
  -24.6703  -31.0713   22.1008 N   0  0  0  0  0  0
  -23.4188  -28.8147   23.3019 O   0  0  0  0  0  0
  -28.3579  -26.5980   20.1023 O   0  0  0  0  0  0
  -26.5622  -34.8916   22.4709 O   0  0  0  0  0  0
  -23.5370  -32.1421   23.7490 O   0  0  0  0  0  0
  -31.3288  -17.3375   22.0856 C   0  0  0  0  0  0
  -29.7766  -18.0334   20.3584 C   0  0  0  0  0  0
  -31.7709  -18.6741   22.2307 C   0  0  0  0  0  0
  -30.2284  -19.3870   20.4396 C   0  0  0  0  0  0
  -31.3279  -19.6691   21.3060 C   0  0  0  0  0  0
  -30.3762  -16.9842   21.1081 C   0  0  0  0  0  0
  -25.2527  -21.4018   18.8388 C   0  0  0  0  0  0
  -26.4663  -21.5866   19.3939 C   0  0  0  0  0  0
  -32.6318  -19.0226   23.3954 C   0  0  0  0  0  0
  -29.5572  -20.4512   19.5659 C   0  0  0  0  0  0
  -27.4410  -22.5504   18.8445 C   0  0  0  0  0  0
  -28.7866  -22.7099   19.5756 C   0  0  0  0  0  0
  -32.9318  -20.3613   25.3102 C   0  0  0  0  0  0
  -32.0768  -21.0091   21.2360 C   0  0  0  0  0  0
  -33.9538  -18.2639   23.4730 C   0  0  0  0  0  0
  -32.8259  -22.8961   25.1579 C   0  0  0  0  0  0
  -29.8966  -24.7582   18.4950 C   0  0  0  0  0  0
  -32.3489  -21.6424   25.9087 C   0  0  0  0  0  0
  -28.1615  -25.1790   20.3736 C   0  0  0  0  0  0
  -29.2397  -24.2010   19.7779 C   0  0  1  0  0  0
  -32.2203  -19.9384   24.1982 N   0  0  0  0  0  0
  -29.5839  -21.7852   20.0144 N   0  0  0  0  0  0
  -29.9387  -15.6195   20.9656 N   0  0  0  0  0  0
  -29.0255  -20.0607   18.5253 O   0  0  0  0  0  0
  -27.1720  -23.2351   17.8521 O   0  0  0  0  0  0
  -33.9297  -19.8621   25.8335 O   0  0  0  0  0  0
  -31.4705  -12.4771   19.1504 H   0  0  0  0  0  0
  -30.3572  -11.3551   19.8737 H   0  0  0  0  0  0
  -29.7678  -11.7638   17.4644 H   0  0  0  0  0  0
  -29.6683  -13.4819   17.7605 H   0  0  0  0  0  0
  -27.8442  -11.3048   18.8328 H   0  0  0  0  0  0
  -27.3859  -12.6207   17.7841 H   0  0  0  0  0  0
  -27.6829  -14.2556   19.5447 H   0  0  0  0  0  0
  -28.6806  -12.0316   21.3843 H   0  0  0  0  0  0
  -28.4402  -13.6925   21.8426 H   0  0  0  0  0  0
  -25.2783   -9.5669   22.4780 H   0  0  0  0  0  0
  -24.0016   -7.4627   22.7470 H   0  0  0  0  0  0
  -21.0858   -8.8825   19.8942 H   0  0  0  0  0  0
  -22.3754  -10.9715   19.6201 H   0  0  0  0  0  0
  -21.2032   -7.6173   23.9760 H   0  0  0  0  0  0
  -21.1468   -6.0522   25.9086 H   0  0  0  0  0  0
  -22.0593   -2.7637   23.2822 H   0  0  0  0  0  0
  -22.4036  -12.0003   22.4841 H   0  0  0  0  0  0
  -21.1077  -13.1383   22.2525 H   0  0  0  0  0  0
  -24.6604  -15.8429   20.5118 H   0  0  0  0  0  0
  -26.2757  -15.6300   20.0711 H   0  0  0  0  0  0
  -26.7090  -32.5512   23.1096 H   0  0  0  0  0  0
  -24.9880  -33.9724   25.0346 H   0  0  0  0  0  0
  -22.6957  -31.3122   21.4183 H   0  0  0  0  0  0
  -23.3786  -35.9655   23.3284 H   0  0  0  0  0  0
  -24.3626  -36.8948   22.2066 H   0  0  0  0  0  0
  -23.7288  -37.6537   23.6660 H   0  0  0  0  0  0
  -26.0877  -31.5881   20.6234 H   0  0  0  0  0  0
  -26.8144  -30.8379   22.0137 H   0  0  0  0  0  0
  -28.0980  -29.0475   21.1607 H   0  0  0  0  0  0
  -26.0126  -26.0129   18.9021 H   0  0  0  0  0  0
  -23.9687  -27.3331   18.9831 H   0  0  0  0  0  0
  -23.6974  -30.5873   19.4043 H   0  0  0  0  0  0
  -22.7308  -29.2271   19.8904 H   0  0  0  0  0  0
  -25.1332  -36.1942   25.0865 H   0  0  0  0  0  0
  -20.9995  -28.3131   24.1411 H   0  0  0  0  0  0
  -20.5531  -26.2212   23.3568 H   0  0  0  0  0  0
  -21.6610  -26.7291   22.1250 H   0  0  0  0  0  0
  -19.6851  -25.6245   21.1169 H   0  0  0  0  0  0
  -19.6637  -27.3155   20.6706 H   0  0  0  0  0  0
  -17.4164  -26.6600   21.4026 H   0  0  0  0  0  0
  -18.0347  -25.9990   22.8996 H   0  0  0  0  0  0
  -19.7945  -30.7166   24.2306 H   0  0  0  0  0  0
  -17.5018  -31.6234   24.5054 H   0  0  0  0  0  0
  -15.5339  -30.2866   23.7652 H   0  0  0  0  0  0
  -15.8684  -28.0691   22.7092 H   0  0  0  0  0  0
  -24.5925  -30.7015   25.7745 H   0  0  0  0  0  0
  -24.8873  -32.2822   26.4901 H   0  0  0  0  0  0
  -25.8039  -30.8821   27.0191 H   0  0  0  0  0  0
  -26.2736  -29.6794   24.1228 H   0  0  0  0  0  0
  -27.4025  -29.7270   25.4591 H   0  0  0  0  0  0
  -27.8593  -30.4304   23.9233 H   0  0  0  0  0  0
  -27.2731  -33.3597   26.2068 H   0  0  0  0  0  0
  -28.3856  -32.6786   25.0273 H   0  0  0  0  0  0
  -28.0699  -31.8344   26.5363 H   0  0  0  0  0  0
  -28.2624  -38.0122   24.7537 H   0  0  0  0  0  0
  -28.1117  -36.2661   24.6264 H   0  0  0  0  0  0
  -27.2316  -37.1431   25.8863 H   0  0  0  0  0  0
  -20.9251  -29.8751   21.6994 H   0  0  0  0  0  0
  -26.0227  -38.2875   24.1336 H   0  0  0  0  0  0
  -31.7098  -16.5772   22.7550 H   0  0  0  0  0  0
  -28.9795  -17.7811   19.6741 H   0  0  0  0  0  0
  -24.5404  -20.7091   19.2627 H   0  0  0  0  0  0
  -24.9478  -21.9417   17.9530 H   0  0  0  0  0  0
  -26.7462  -21.0321   20.2759 H   0  0  0  0  0  0
  -31.5945  -21.7737   21.8456 H   0  0  0  0  0  0
  -32.1355  -21.3708   20.2076 H   0  0  0  0  0  0
  -33.1146  -20.9190   21.5610 H   0  0  0  0  0  0
  -34.0722  -17.5880   22.6257 H   0  0  0  0  0  0
  -34.0059  -17.6689   24.3832 H   0  0  0  0  0  0
  -34.7914  -18.9611   23.4526 H   0  0  0  0  0  0
  -33.8971  -23.0530   25.2837 H   0  0  0  0  0  0
  -32.3121  -23.7898   25.5171 H   0  0  0  0  0  0
  -32.6300  -22.8169   24.0886 H   0  0  0  0  0  0
  -30.7178  -24.1210   18.1606 H   0  0  0  0  0  0
  -30.3110  -25.7507   18.6709 H   0  0  0  0  0  0
  -29.1936  -24.8374   17.6663 H   0  0  0  0  0  0
  -32.6279  -21.7115   26.9607 H   0  0  0  0  0  0
  -31.2584  -21.5989   25.8801 H   0  0  0  0  0  0
  -28.1693  -25.0716   21.4585 H   0  0  0  0  0  0
  -27.1679  -24.8390   20.1086 H   0  0  0  0  0  0
  -30.0419  -24.1841   20.5186 H   0  0  0  0  0  0
  -28.9553  -15.4445   21.1126 H   0  0  0  0  0  0
  1 25  1  0  0  0
  1 30  2  0  0  0
  1 93  1  0  0  0
  2  3  1  0  0  0
  2 25  1  0  0  0
  2 97  1  0  0  0
  2 98  1  0  0  0
  3  4  1  0  0  0
  3 99  1  0  0  0
  3100  1  0  0  0
  4  5  1  0  0  0
  4101  1  0  0  0
  4102  1  0  0  0
  5  6  1  0  0  0
  5 26  1  0  0  0
  5103  1  0  0  0
  6 25  1  0  0  0
  6104  1  0  0  0
  6105  1  0  0  0
  7  8  2  0  0  0
  7 26  1  0  0  0
  7 29  1  0  0  0
  8  9  1  0  0  0
  8 22  1  0  0  0
  9 10  1  0  0  0
  9 27  2  0  0  0
 10 11  2  0  0  0
 10 15  1  0  0  0
 11 12  1  0  0  0
 11106  1  0  0  0
 12 13  2  0  0  0
 12107  1  0  0  0
 13 14  1  0  0  0
 13 31  1  0  0  0
 14 15  2  0  0  0
 14108  1  0  0  0
 15109  1  0  0  0
 16 17  2  0  0  0
 16 21  1  0  0  0
 16 31  1  0  0  0
 17 18  1  0  0  0
 17110  1  0  0  0
 18 19  2  0  0  0
 18111  1  0  0  0
 19 20  1  0  0  0
 19 24  1  0  0  0
 20 21  2  0  0  0
 20112  1  0  0  0
 21 23  1  0  0  0
 22 28  1  0  0  0
 22 32  2  0  0  0
 26 27  1  0  0  0
 28113  1  0  0  0
 28114  1  0  0  0
 29115  1  0  0  0
 29116  1  0  0  0
 33 34  1  0  0  0
 33 66  1  0  0  0
 33 70  2  0  0  0
 34 36  1  0  0  0
 34 59  1  0  0  0
 34117  1  0  0  0
 35 44  2  0  0  0
 35 45  1  0  0  0
 35 68  1  0  0  0
 36 56  1  0  0  0
 36118  1  0  0  0
 37 39  1  0  0  0
 37 47  1  0  0  0
 37 66  1  0  0  0
 37119  1  0  0  0
 38 43  2  0  0  0
 38 46  1  0  0  0
 38 47  1  0  0  0
 39 64  1  0  0  0
 39 67  2  0  0  0
 40 52  1  0  0  0
 40 53  2  0  0  0
 40 58  1  0  0  0
 41120  1  0  0  0
 41121  1  0  0  0
 41122  1  0  0  0
 41 48  1  0  0  0
 42 43  1  0  0  0
 42 66  1  0  0  0
 42123  1  0  0  0
 42124  1  0  0  0
 43 44  1  0  0  0
 44125  1  0  0  0
 45 46  2  0  0  0
 45126  1  0  0  0
 46127  1  0  0  0
 47128  1  0  0  0
 47129  1  0  0  0
 48 56  1  0  0  0
 48 65  1  0  0  0
 48130  1  0  0  0
 49 50  1  0  0  0
 49 53  1  0  0  0
 49 64  1  0  0  0
 49131  1  0  0  0
 50 51  1  0  0  0
 50132  1  0  0  0
 50133  1  0  0  0
 51 52  1  0  0  0
 51134  1  0  0  0
 51135  1  0  0  0
 52136  1  0  0  0
 52137  1  0  0  0
 53 54  1  0  0  0
 54 55  2  0  0  0
 54138  1  0  0  0
 55 57  1  0  0  0
 55139  1  0  0  0
 56 69  2  0  0  0
 57 58  2  0  0  0
 57140  1  0  0  0
 58141  1  0  0  0
 59 60  1  0  0  0
 59 61  1  0  0  0
 59 62  1  0  0  0
 60142  1  0  0  0
 60143  1  0  0  0
 60144  1  0  0  0
 61145  1  0  0  0
 61146  1  0  0  0
 61147  1  0  0  0
 62148  1  0  0  0
 62149  1  0  0  0
 62150  1  0  0  0
 63 65  1  0  0  0
 63151  1  0  0  0
 63152  1  0  0  0
 63153  1  0  0  0
 64154  1  0  0  0
 65155  1  0  0  0
 68 89  1  0  0  0
 71 73  2  0  0  0
 71 76  1  0  0  0
 71156  1  0  0  0
 72 74  1  0  0  0
 72 76  2  0  0  0
 72157  1  0  0  0
 73 75  1  0  0  0
 73 79  1  0  0  0
 74 75  2  0  0  0
 74 80  1  0  0  0
 75 84  1  0  0  0
 76 93  1  0  0  0
 77 78  2  0  0  0
 77158  1  0  0  0
 77159  1  0  0  0
 78 81  1  0  0  0
 78160  1  0  0  0
 79 85  1  0  0  0
 79 91  2  0  0  0
 80 92  1  0  0  0
 80 94  2  0  0  0
 81 82  1  0  0  0
 81 95  2  0  0  0
 82 90  1  0  0  0
 82 92  2  0  0  0
 83 88  1  0  0  0
 83 91  1  0  0  0
 83 96  2  0  0  0
 84161  1  0  0  0
 84162  1  0  0  0
 84163  1  0  0  0
 85164  1  0  0  0
 85165  1  0  0  0
 85166  1  0  0  0
 86 88  1  0  0  0
 86167  1  0  0  0
 86168  1  0  0  0
 86169  1  0  0  0
 87170  1  0  0  0
 87171  1  0  0  0
 87172  1  0  0  0
 87 90  1  0  0  0
 88173  1  0  0  0
 88174  1  0  0  0
 89 90  1  0  0  0
 89175  1  0  0  0
 89176  1  0  0  0
 90177  1  0  0  0
 93178  1  0  0  0
M  ISO  4   1 100  68 101  89 101  93 100
M  END
> <chiral flag>
0

> <version>
0

> <s_m_source_file>
/data/baiqing/PycharmProjects/Reinvent-master-3.2/result/LINK_invent/BTK/process_docking_weight1_custom_product_contain_oxygen_bond_distance_aromatic_linkinvent_7_9_3/rearranged_h_0063.sdf

> <i_m_source_file_index>
37

> <r_mmod_Potential_Energy-OPLS-2005>
129.859756469727

> <r_mmod_Stretch_Energy-OPLS-2005>
66.6905136108398

> <r_mmod_Bend_Energy-OPLS-2005>
149.116928100586

> <r_mmod_Torsional_Energy-OPLS-2005>
323.301940917969

> <r_mmod_Improper_Torsional_Energy-OPLS-2005>
5.45079660415649

> <r_mmod_Van_der_Waal_Energy-OPLS-2005>
198.365692138672

> <r_mmod_Electrostatic_Energy-OPLS-2005>
-422.892608642578

> <r_mmod_Solvation_Energy-OPLS-2005>
-215.515823364258

> <b_mmod_Minimization_Converged-OPLS-2005>
0

> <r_mmod_RMS_Derivative-OPLS-2005>
4.79650831222534

$$$$
38
                    3D
 Structure written by MMmdl.
161170  0  0  1  0            999 V2000
  -30.6065  -14.7598   20.4365 C   0  0  0  0  0  0
  -30.4513  -12.4363   19.5293 C   0  0  0  0  0  0
  -29.5360  -12.3982   18.2845 C   0  0  0  0  0  0
  -28.0457  -12.3159   18.6721 C   0  0  0  0  0  0
  -27.6506  -13.2307   19.8631 C   0  0  2  0  0  0
  -28.6880  -13.1801   21.0050 C   0  0  0  0  0  0
  -25.2545  -13.8185   20.5724 C   0  0  0  0  0  0
  -24.1819  -13.0438   20.9228 C   0  0  0  0  0  0
  -24.6412  -11.6909   20.8789 C   0  0  0  0  0  0
  -23.9083  -10.4268   21.0425 C   0  0  0  0  0  0
  -24.3608   -9.4161   21.9187 C   0  0  0  0  0  0
  -23.6265   -8.2202   22.0755 C   0  0  0  0  0  0
  -22.4247   -8.0262   21.3538 C   0  0  0  0  0  0
  -21.9901   -9.0258   20.4654 C   0  0  0  0  0  0
  -22.7256  -10.2127   20.3065 C   0  0  0  0  0  0
  -21.6843   -6.0695   22.5269 C   0  0  0  0  0  0
  -21.4025   -6.5599   23.8203 C   0  0  0  0  0  0
  -21.3673   -5.6766   24.9166 C   0  0  0  0  0  0
  -21.6056   -4.3028   24.7228 C   0  0  0  0  0  0
  -21.8811   -3.8110   23.4347 C   0  0  0  0  0  0
  -21.9187   -4.6925   22.3400 C   0  0  0  0  0  0
  -22.7839  -13.5227   21.1901 C   0  0  0  0  0  0
  -22.1645   -4.2097   21.0973 F   0  0  0  0  0  0
  -21.5645   -3.4520   25.7747 F   0  0  0  0  0  0
  -29.9910  -13.5256   20.4238 N   0  0  0  0  0  0
  -26.2985  -12.9404   20.3357 N   0  0  0  0  0  0
  -25.9352  -11.6547   20.5852 N   0  0  0  0  0  0
  -22.0469  -12.8219   22.0450 N   0  0  0  0  0  0
  -25.4321  -15.1890   20.4107 N   0  0  0  0  0  0
  -31.7943  -14.8473   20.1144 O   0  0  0  0  0  0
  -21.6615   -6.8845   21.4232 O   0  0  0  0  0  0
  -22.3533  -14.5549   20.6776 O   0  0  0  0  0  0
  -24.6331  -31.8552   23.1996 C   0  0  0  0  0  0
  -25.9152  -32.4758   23.8330 C   0  0  1  0  0  0
  -27.1992  -27.2417   20.1310 C   0  0  0  0  0  0
  -25.5939  -33.8558   24.2251 N   0  0  0  0  0  0
  -23.4290  -30.4811   21.5452 C   0  0  2  0  0  0
  -24.8738  -28.9374   20.1020 C   0  0  0  0  0  0
  -22.7516  -29.4593   22.4915 C   0  0  0  0  0  0
  -18.0292  -28.1400   22.8485 C   0  0  0  0  0  0
  -24.1483  -36.7272   23.2637 C   0  0  0  0  0  0
  -25.9790  -30.7640   21.3822 C   0  0  0  0  0  0
  -26.0475  -29.3875   20.7196 C   0  0  0  0  0  0
  -27.2139  -28.5526   20.7224 C   0  0  0  0  0  0
  -26.0118  -26.8837   19.4523 C   0  0  0  0  0  0
  -24.8647  -27.6972   19.4517 C   0  0  0  0  0  0
  -23.6454  -29.8248   20.1569 C   0  0  0  0  0  0
  -25.4106  -36.3071   24.0331 C   0  0  1  0  0  0
  -20.5896  -28.3697   23.1279 C   0  0  2  0  0  0
  -20.6776  -26.9409   22.5418 C   0  0  0  0  0  0
  -19.5745  -26.6386   21.5225 C   0  0  0  0  0  0
  -18.1928  -26.7945   22.1638 C   0  0  0  0  0  0
  -19.1549  -28.8867   23.2876 C   0  0  0  0  0  0
  -18.9461  -30.1477   23.8886 C   0  0  0  0  0  0
  -17.6456  -30.6602   24.0563 C   0  0  0  0  0  0
  -25.9056  -34.9443   23.5093 C   0  0  0  0  0  0
  -16.5350  -29.9092   23.6342 C   0  0  0  0  0  0
  -16.7279  -28.6522   23.0347 C   0  0  0  0  0  0
  -26.4506  -31.6589   25.0727 C   0  0  0  0  0  0
  -25.3705  -31.3763   26.1434 C   0  0  0  0  0  0
  -27.0338  -30.2994   24.6229 C   0  0  0  0  0  0
  -27.6062  -32.4316   25.7496 C   0  0  0  0  0  0
  -27.5586  -37.1773   24.8450 C   0  0  0  0  0  0
  -21.4216  -29.3036   22.3664 N   0  0  0  0  0  0
  -26.4276  -37.3778   23.9427 N   0  0  0  0  0  0
  -24.6997  -31.0509   22.0984 N   0  0  0  0  0  0
  -23.4223  -28.8119   23.2998 O   0  0  0  0  0  0
  -28.2611  -26.3025   20.2373 O   0  0  0  0  0  0
  -26.5634  -34.8925   22.4667 O   0  0  0  0  0  0
  -23.5478  -32.1372   23.7291 O   0  0  0  0  0  0
  -29.9515  -18.5028   17.8401 C   0  0  0  0  0  0
  -29.6151  -18.5281   20.5972 C   0  0  0  0  0  0
  -29.7686  -19.7391   18.4830 C   0  0  0  0  0  0
  -29.9663  -17.2778   18.5330 C   0  0  0  0  0  0
  -29.5532  -19.8077   19.8837 C   0  0  0  0  0  0
  -29.8500  -17.2317   19.9500 C   0  0  0  0  0  0
  -28.3702  -22.0818   20.3452 C   0  0  0  0  0  0
  -30.2614  -23.4594   20.5390 C   0  0  0  0  0  0
  -30.5866  -21.9656   20.8396 C   0  0  0  0  0  0
  -28.7482  -23.5811   20.7130 C   0  0  1  0  0  0
  -29.8201  -20.9840   17.6093 C   0  0  0  0  0  0
  -30.0403  -16.0286   17.6725 C   0  0  0  0  0  0
  -27.9866  -24.8295   19.9938 C   0  0  0  0  0  0
  -29.4053  -21.1740   20.4761 N   0  0  0  0  0  0
  -29.8300  -15.9010   20.6376 N   0  0  0  0  0  0
  -27.2221  -21.7781   20.0062 O   0  0  0  0  0  0
  -31.4918  -12.5578   19.2240 H   0  0  0  0  0  0
  -30.4207  -11.4850   20.0629 H   0  0  0  0  0  0
  -29.7960  -11.5232   17.6869 H   0  0  0  0  0  0
  -29.7244  -13.2518   17.6411 H   0  0  0  0  0  0
  -27.8456  -11.2748   18.9284 H   0  0  0  0  0  0
  -27.4198  -12.5370   17.8077 H   0  0  0  0  0  0
  -27.6484  -14.2500   19.4752 H   0  0  0  0  0  0
  -28.7201  -12.1913   21.4663 H   0  0  0  0  0  0
  -28.4208  -13.8746   21.8042 H   0  0  0  0  0  0
  -25.2743   -9.5610   22.4780 H   0  0  0  0  0  0
  -23.9957   -7.4575   22.7465 H   0  0  0  0  0  0
  -21.0837   -8.8816   19.8929 H   0  0  0  0  0  0
  -22.3750  -10.9682   19.6172 H   0  0  0  0  0  0
  -21.2021   -7.6112   23.9707 H   0  0  0  0  0  0
  -21.1526   -6.0482   25.9078 H   0  0  0  0  0  0
  -22.0589   -2.7572   23.2860 H   0  0  0  0  0  0
  -22.4078  -11.9851   22.4787 H   0  0  0  0  0  0
  -21.1126  -13.1304   22.2739 H   0  0  0  0  0  0
  -24.6848  -15.8614   20.5426 H   0  0  0  0  0  0
  -26.2915  -15.6106   20.0820 H   0  0  0  0  0  0
  -26.7223  -32.5387   23.1069 H   0  0  0  0  0  0
  -25.0056  -33.9681   25.0380 H   0  0  0  0  0  0
  -22.7257  -31.3047   21.4052 H   0  0  0  0  0  0
  -23.3769  -35.9576   23.3252 H   0  0  0  0  0  0
  -24.3595  -36.8938   22.2063 H   0  0  0  0  0  0
  -23.7196  -37.6441   23.6693 H   0  0  0  0  0  0
  -26.1196  -31.5270   20.6150 H   0  0  0  0  0  0
  -26.8567  -30.8107   22.0150 H   0  0  0  0  0  0
  -28.1086  -28.8864   21.2277 H   0  0  0  0  0  0
  -25.9292  -25.9454   18.9264 H   0  0  0  0  0  0
  -23.9722  -27.3588   18.9439 H   0  0  0  0  0  0
  -23.7664  -30.6064   19.4051 H   0  0  0  0  0  0
  -22.7614  -29.2608   19.8535 H   0  0  0  0  0  0
  -25.1279  -36.1909   25.0821 H   0  0  0  0  0  0
  -20.9996  -28.3272   24.1396 H   0  0  0  0  0  0
  -20.5688  -26.2292   23.3614 H   0  0  0  0  0  0
  -21.6638  -26.7438   22.1199 H   0  0  0  0  0  0
  -19.6886  -25.6292   21.1263 H   0  0  0  0  0  0
  -19.6690  -27.3196   20.6755 H   0  0  0  0  0  0
  -17.4189  -26.6695   21.4041 H   0  0  0  0  0  0
  -18.0320  -26.0106   22.9057 H   0  0  0  0  0  0
  -19.7925  -30.7308   24.2240 H   0  0  0  0  0  0
  -17.5002  -31.6281   24.5168 H   0  0  0  0  0  0
  -15.5345  -30.2980   23.7682 H   0  0  0  0  0  0
  -15.8684  -28.0850   22.7041 H   0  0  0  0  0  0
  -24.5860  -30.7151   25.7742 H   0  0  0  0  0  0
  -24.8927  -32.2952   26.4842 H   0  0  0  0  0  0
  -25.7988  -30.8922   27.0220 H   0  0  0  0  0  0
  -26.2931  -29.6743   24.1237 H   0  0  0  0  0  0
  -27.3982  -29.7264   25.4765 H   0  0  0  0  0  0
  -27.8831  -30.4243   23.9505 H   0  0  0  0  0  0
  -27.2698  -33.3637   26.2046 H   0  0  0  0  0  0
  -28.3897  -32.6833   25.0337 H   0  0  0  0  0  0
  -28.0710  -31.8447   26.5428 H   0  0  0  0  0  0
  -28.2549  -38.0128   24.7594 H   0  0  0  0  0  0
  -28.1140  -36.2665   24.6151 H   0  0  0  0  0  0
  -27.2329  -37.1276   25.8857 H   0  0  0  0  0  0
  -20.9402  -29.8756   21.6866 H   0  0  0  0  0  0
  -26.0146  -38.2836   24.1482 H   0  0  0  0  0  0
  -30.0709  -18.4918   16.7662 H   0  0  0  0  0  0
  -29.4794  -18.5433   21.6695 H   0  0  0  0  0  0
  -30.5304  -23.7136   19.5125 H   0  0  0  0  0  0
  -30.8053  -24.1393   21.1948 H   0  0  0  0  0  0
  -30.7632  -21.8307   21.9077 H   0  0  0  0  0  0
  -31.4837  -21.6347   20.3145 H   0  0  0  0  0  0
  -28.5498  -23.6657   21.7818 H   0  0  0  0  0  0
  -30.2390  -20.7704   16.6255 H   0  0  0  0  0  0
  -30.4546  -21.7494   18.0514 H   0  0  0  0  0  0
  -28.8199  -21.3920   17.4656 H   0  0  0  0  0  0
  -29.8473  -16.2443   16.6227 H   0  0  0  0  0  0
  -29.2724  -15.3266   17.9884 H   0  0  0  0  0  0
  -31.0222  -15.5599   17.7384 H   0  0  0  0  0  0
  -26.9509  -24.6485   20.2821 H   0  0  0  0  0  0
  -28.0190  -24.6694   18.9155 H   0  0  0  0  0  0
  -28.9760  -15.7118   21.1365 H   0  0  0  0  0  0
  1 25  1  0  0  0
  1 30  2  0  0  0
  1 85  1  0  0  0
  2  3  1  0  0  0
  2 25  1  0  0  0
  2 87  1  0  0  0
  2 88  1  0  0  0
  3  4  1  0  0  0
  3 89  1  0  0  0
  3 90  1  0  0  0
  4  5  1  0  0  0
  4 91  1  0  0  0
  4 92  1  0  0  0
  5  6  1  0  0  0
  5 26  1  0  0  0
  5 93  1  0  0  0
  6 25  1  0  0  0
  6 94  1  0  0  0
  6 95  1  0  0  0
  7  8  2  0  0  0
  7 26  1  0  0  0
  7 29  1  0  0  0
  8  9  1  0  0  0
  8 22  1  0  0  0
  9 10  1  0  0  0
  9 27  2  0  0  0
 10 11  2  0  0  0
 10 15  1  0  0  0
 11 12  1  0  0  0
 11 96  1  0  0  0
 12 13  2  0  0  0
 12 97  1  0  0  0
 13 14  1  0  0  0
 13 31  1  0  0  0
 14 15  2  0  0  0
 14 98  1  0  0  0
 15 99  1  0  0  0
 16 17  2  0  0  0
 16 21  1  0  0  0
 16 31  1  0  0  0
 17 18  1  0  0  0
 17100  1  0  0  0
 18 19  2  0  0  0
 18101  1  0  0  0
 19 20  1  0  0  0
 19 24  1  0  0  0
 20 21  2  0  0  0
 20102  1  0  0  0
 21 23  1  0  0  0
 22 28  1  0  0  0
 22 32  2  0  0  0
 26 27  1  0  0  0
 28103  1  0  0  0
 28104  1  0  0  0
 29105  1  0  0  0
 29106  1  0  0  0
 33 34  1  0  0  0
 33 66  1  0  0  0
 33 70  2  0  0  0
 34 36  1  0  0  0
 34 59  1  0  0  0
 34107  1  0  0  0
 35 44  2  0  0  0
 35 45  1  0  0  0
 35 68  1  0  0  0
 36 56  1  0  0  0
 36108  1  0  0  0
 37 39  1  0  0  0
 37 47  1  0  0  0
 37 66  1  0  0  0
 37109  1  0  0  0
 38 43  2  0  0  0
 38 46  1  0  0  0
 38 47  1  0  0  0
 39 64  1  0  0  0
 39 67  2  0  0  0
 40 52  1  0  0  0
 40 53  2  0  0  0
 40 58  1  0  0  0
 41110  1  0  0  0
 41111  1  0  0  0
 41112  1  0  0  0
 41 48  1  0  0  0
 42 43  1  0  0  0
 42 66  1  0  0  0
 42113  1  0  0  0
 42114  1  0  0  0
 43 44  1  0  0  0
 44115  1  0  0  0
 45 46  2  0  0  0
 45116  1  0  0  0
 46117  1  0  0  0
 47118  1  0  0  0
 47119  1  0  0  0
 48 56  1  0  0  0
 48 65  1  0  0  0
 48120  1  0  0  0
 49 50  1  0  0  0
 49 53  1  0  0  0
 49 64  1  0  0  0
 49121  1  0  0  0
 50 51  1  0  0  0
 50122  1  0  0  0
 50123  1  0  0  0
 51 52  1  0  0  0
 51124  1  0  0  0
 51125  1  0  0  0
 52126  1  0  0  0
 52127  1  0  0  0
 53 54  1  0  0  0
 54 55  2  0  0  0
 54128  1  0  0  0
 55 57  1  0  0  0
 55129  1  0  0  0
 56 69  2  0  0  0
 57 58  2  0  0  0
 57130  1  0  0  0
 58131  1  0  0  0
 59 60  1  0  0  0
 59 61  1  0  0  0
 59 62  1  0  0  0
 60132  1  0  0  0
 60133  1  0  0  0
 60134  1  0  0  0
 61135  1  0  0  0
 61136  1  0  0  0
 61137  1  0  0  0
 62138  1  0  0  0
 62139  1  0  0  0
 62140  1  0  0  0
 63 65  1  0  0  0
 63141  1  0  0  0
 63142  1  0  0  0
 63143  1  0  0  0
 64144  1  0  0  0
 65145  1  0  0  0
 68 83  1  0  0  0
 71 73  2  0  0  0
 71 74  1  0  0  0
 71146  1  0  0  0
 72 75  2  0  0  0
 72 76  1  0  0  0
 72147  1  0  0  0
 73 75  1  0  0  0
 73 81  1  0  0  0
 74 76  2  0  0  0
 74 82  1  0  0  0
 75 84  1  0  0  0
 76 85  1  0  0  0
 77 80  1  0  0  0
 77 84  1  0  0  0
 77 86  2  0  0  0
 78 79  1  0  0  0
 78 80  1  0  0  0
 78148  1  0  0  0
 78149  1  0  0  0
 79 84  1  0  0  0
 79150  1  0  0  0
 79151  1  0  0  0
 80 83  1  0  0  0
 80152  1  0  0  0
 81153  1  0  0  0
 81154  1  0  0  0
 81155  1  0  0  0
 82156  1  0  0  0
 82157  1  0  0  0
 82158  1  0  0  0
 83159  1  0  0  0
 83160  1  0  0  0
 85161  1  0  0  0
M  ISO  4   1 100  68 101  83 101  85 100
M  END
> <chiral flag>
0

> <version>
0

> <s_m_source_file>
/data/baiqing/PycharmProjects/Reinvent-master-3.2/result/LINK_invent/BTK/process_docking_weight1_custom_product_contain_oxygen_bond_distance_aromatic_linkinvent_7_9_3/rearranged_h_0063.sdf

> <i_m_source_file_index>
38

> <r_mmod_Potential_Energy-OPLS-2005>
330.9853515625

> <r_mmod_Stretch_Energy-OPLS-2005>
138.205764770508

> <r_mmod_Bend_Energy-OPLS-2005>
203.664886474609

> <r_mmod_Torsional_Energy-OPLS-2005>
326.180755615234

> <r_mmod_Improper_Torsional_Energy-OPLS-2005>
6.91946029663086

> <r_mmod_Van_der_Waal_Energy-OPLS-2005>
143.460784912109

> <r_mmod_Electrostatic_Energy-OPLS-2005>
-368.607269287109

> <r_mmod_Solvation_Energy-OPLS-2005>
-222.161254882812

> <b_mmod_Minimization_Converged-OPLS-2005>
0

> <r_mmod_RMS_Derivative-OPLS-2005>
3.10290932655334

$$$$
39
                    3D
 Structure written by MMmdl.
157166  0  0  1  0            999 V2000
  -30.4927  -14.9865   20.4244 C   0  0  0  0  0  0
  -30.4504  -12.6109   19.5073 C   0  0  0  0  0  0
  -29.5280  -12.5471   18.2648 C   0  0  0  0  0  0
  -28.0600  -12.3260   18.6782 C   0  0  0  0  0  0
  -27.6330  -13.2493   19.8483 C   0  0  2  0  0  0
  -28.6754  -13.2607   20.9881 C   0  0  0  0  0  0
  -25.2433  -13.8194   20.5682 C   0  0  0  0  0  0
  -24.1764  -13.0414   20.9212 C   0  0  0  0  0  0
  -24.6400  -11.6907   20.8753 C   0  0  0  0  0  0
  -23.9084  -10.4277   21.0405 C   0  0  0  0  0  0
  -24.3628   -9.4194   21.9188 C   0  0  0  0  0  0
  -23.6295   -8.2234   22.0757 C   0  0  0  0  0  0
  -22.4277   -8.0280   21.3547 C   0  0  0  0  0  0
  -21.9916   -9.0252   20.4648 C   0  0  0  0  0  0
  -22.7253  -10.2127   20.3053 C   0  0  0  0  0  0
  -21.6849   -6.0732   22.5276 C   0  0  0  0  0  0
  -21.4012   -6.5635   23.8210 C   0  0  0  0  0  0
  -21.3661   -5.6792   24.9172 C   0  0  0  0  0  0
  -21.6044   -4.3054   24.7227 C   0  0  0  0  0  0
  -21.8820   -3.8144   23.4348 C   0  0  0  0  0  0
  -21.9192   -4.6958   22.3403 C   0  0  0  0  0  0
  -22.7783  -13.5186   21.1880 C   0  0  0  0  0  0
  -22.1658   -4.2139   21.0980 F   0  0  0  0  0  0
  -21.5633   -3.4541   25.7741 F   0  0  0  0  0  0
  -29.9521  -13.6966   20.4025 N   0  0  0  0  0  0
  -26.2895  -12.9445   20.3285 N   0  0  0  0  0  0
  -25.9343  -11.6569   20.5764 N   0  0  0  0  0  0
  -22.0448  -12.8172   22.0448 N   0  0  0  0  0  0
  -25.4040  -15.1913   20.4055 N   0  0  0  0  0  0
  -31.6772  -15.1054   20.0877 O   0  0  0  0  0  0
  -21.6642   -6.8877   21.4241 O   0  0  0  0  0  0
  -22.3442  -14.5486   20.6734 O   0  0  0  0  0  0
  -24.6469  -31.8391   23.1839 C   0  0  0  0  0  0
  -25.9221  -32.4668   23.8244 C   0  0  1  0  0  0
  -27.2223  -27.0977   20.1548 C   0  0  0  0  0  0
  -25.5946  -33.8474   24.2158 N   0  0  0  0  0  0
  -23.4522  -30.4568   21.5298 C   0  0  2  0  0  0
  -24.9016  -28.8735   20.1097 C   0  0  0  0  0  0
  -22.7581  -29.4522   22.4838 C   0  0  0  0  0  0
  -18.0308  -28.1406   22.8477 C   0  0  0  0  0  0
  -24.1491  -36.7244   23.2647 C   0  0  0  0  0  0
  -26.0104  -30.6994   21.3882 C   0  0  0  0  0  0
  -26.0787  -29.3060   20.7316 C   0  0  0  0  0  0
  -27.2345  -28.4341   20.7382 C   0  0  0  0  0  0
  -26.0142  -26.7700   19.5007 C   0  0  0  0  0  0
  -24.8842  -27.6196   19.4792 C   0  0  0  0  0  0
  -23.6802  -29.7814   20.1501 C   0  0  0  0  0  0
  -25.4122  -36.3012   24.0317 C   0  0  1  0  0  0
  -20.5925  -28.3732   23.1235 C   0  0  2  0  0  0
  -20.6795  -26.9430   22.5408 C   0  0  0  0  0  0
  -19.5771  -26.6384   21.5218 C   0  0  0  0  0  0
  -18.1948  -26.7948   22.1620 C   0  0  0  0  0  0
  -19.1566  -28.8886   23.2849 C   0  0  0  0  0  0
  -18.9481  -30.1483   23.8872 C   0  0  0  0  0  0
  -17.6476  -30.6599   24.0565 C   0  0  0  0  0  0
  -25.9076  -34.9389   23.5049 C   0  0  0  0  0  0
  -16.5366  -29.9095   23.6340 C   0  0  0  0  0  0
  -16.7293  -28.6516   23.0356 C   0  0  0  0  0  0
  -26.4522  -31.6561   25.0713 C   0  0  0  0  0  0
  -25.3693  -31.3770   26.1402 C   0  0  0  0  0  0
  -27.0396  -30.2951   24.6328 C   0  0  0  0  0  0
  -27.6044  -32.4343   25.7499 C   0  0  0  0  0  0
  -27.5573  -37.1777   24.8464 C   0  0  0  0  0  0
  -21.4267  -29.3048   22.3593 N   0  0  0  0  0  0
  -26.4277  -37.3732   23.9415 N   0  0  0  0  0  0
  -24.7231  -31.0211   22.0888 N   0  0  0  0  0  0
  -23.4210  -28.8081   23.3006 O   0  0  0  0  0  0
  -28.2923  -26.1192   20.2397 O   0  0  0  0  0  0
  -26.5674  -34.8897   22.4636 O   0  0  0  0  0  0
  -23.5579  -32.1279   23.7044 O   0  0  0  0  0  0
  -28.3954  -19.8821   21.1885 C   0  0  0  0  0  0
  -30.2827  -18.5164   19.6962 C   0  0  0  0  0  0
  -27.7970  -24.0072   18.7844 C   0  0  0  0  0  0
  -28.5993  -18.4409   21.3491 C   0  0  0  0  0  0
  -30.0589  -19.9606   19.5373 C   0  0  0  0  0  0
  -29.0767  -20.7426   20.2671 C   0  0  0  0  0  0
  -29.5597  -17.6481   20.5912 C   0  0  0  0  0  0
  -28.2647  -24.6575   19.9742 C   0  0  0  0  0  0
  -28.0245  -22.6400   18.8265 C   0  0  0  0  0  0
  -28.7994  -23.5177   20.6676 C   0  0  0  0  0  0
  -30.9049  -20.6749   18.4995 C   0  0  0  0  0  0
  -27.7274  -17.7715   22.4181 C   0  0  0  0  0  0
  -28.6834  -22.2209   19.9865 N   0  0  0  0  0  0
  -29.6440  -16.0971   20.7088 N   0  0  0  0  0  0
  -27.6889  -21.7211   17.8776 O   0  0  0  0  0  0
  -29.4215  -23.5443   21.8783 O   0  0  0  0  0  0
  -26.5579  -18.3988   22.5578 F   0  0  0  0  0  0
  -27.4552  -16.4956   22.1428 F   0  0  0  0  0  0
  -28.3664  -17.8188   23.5864 F   0  0  0  0  0  0
  -31.4810  -12.7877   19.1954 H   0  0  0  0  0  0
  -30.4602  -11.6546   20.0320 H   0  0  0  0  0  0
  -29.8515  -11.7519   17.5917 H   0  0  0  0  0  0
  -29.6111  -13.4780   17.7015 H   0  0  0  0  0  0
  -27.9559  -11.2832   18.9785 H   0  0  0  0  0  0
  -27.3973  -12.4645   17.8232 H   0  0  0  0  0  0
  -27.5989  -14.2559   19.4304 H   0  0  0  0  0  0
  -28.7682  -12.2740   21.4432 H   0  0  0  0  0  0
  -28.3656  -13.9351   21.7878 H   0  0  0  0  0  0
  -25.2771   -9.5667   22.4765 H   0  0  0  0  0  0
  -23.9997   -7.4623   22.7477 H   0  0  0  0  0  0
  -21.0846   -8.8777   19.8951 H   0  0  0  0  0  0
  -22.3716  -10.9669   19.6162 H   0  0  0  0  0  0
  -21.2002   -7.6144   23.9708 H   0  0  0  0  0  0
  -21.1481   -6.0524   25.9075 H   0  0  0  0  0  0
  -22.0599   -2.7605   23.2854 H   0  0  0  0  0  0
  -22.4085  -11.9844   22.4832 H   0  0  0  0  0  0
  -21.1065  -13.1184   22.2675 H   0  0  0  0  0  0
  -24.6478  -15.8454   20.5692 H   0  0  0  0  0  0
  -26.2731  -15.6454   20.1619 H   0  0  0  0  0  0
  -26.7291  -32.5245   23.0973 H   0  0  0  0  0  0
  -25.0051  -33.9587   25.0277 H   0  0  0  0  0  0
  -22.7574  -31.2845   21.3731 H   0  0  0  0  0  0
  -23.3757  -35.9570   23.3277 H   0  0  0  0  0  0
  -24.3571  -36.8899   22.2065 H   0  0  0  0  0  0
  -23.7242  -37.6428   23.6709 H   0  0  0  0  0  0
  -26.1724  -31.4494   20.6130 H   0  0  0  0  0  0
  -26.8788  -30.7502   22.0331 H   0  0  0  0  0  0
  -28.1296  -28.7629   21.2472 H   0  0  0  0  0  0
  -25.9021  -25.8066   19.0313 H   0  0  0  0  0  0
  -23.9835  -27.2803   18.9860 H   0  0  0  0  0  0
  -23.8223  -30.5551   19.3946 H   0  0  0  0  0  0
  -22.7939  -29.2264   19.8372 H   0  0  0  0  0  0
  -25.1316  -36.1817   25.0809 H   0  0  0  0  0  0
  -21.0020  -28.3320   24.1358 H   0  0  0  0  0  0
  -20.5696  -26.2337   23.3628 H   0  0  0  0  0  0
  -21.6659  -26.7442   22.1198 H   0  0  0  0  0  0
  -19.6934  -25.6290   21.1260 H   0  0  0  0  0  0
  -19.6714  -27.3185   20.6742 H   0  0  0  0  0  0
  -17.4220  -26.6689   21.4021 H   0  0  0  0  0  0
  -18.0347  -26.0101   22.9027 H   0  0  0  0  0  0
  -19.7953  -30.7312   24.2220 H   0  0  0  0  0  0
  -17.5030  -31.6278   24.5178 H   0  0  0  0  0  0
  -15.5367  -30.2993   23.7692 H   0  0  0  0  0  0
  -15.8687  -28.0838   22.7085 H   0  0  0  0  0  0
  -24.5880  -30.7114   25.7716 H   0  0  0  0  0  0
  -24.8880  -32.2961   26.4755 H   0  0  0  0  0  0
  -25.7961  -30.8981   27.0225 H   0  0  0  0  0  0
  -26.3027  -29.6664   24.1321 H   0  0  0  0  0  0
  -27.3978  -29.7267   25.4922 H   0  0  0  0  0  0
  -27.8946  -30.4179   23.9679 H   0  0  0  0  0  0
  -27.2638  -33.3682   26.1988 H   0  0  0  0  0  0
  -28.3902  -32.6833   25.0356 H   0  0  0  0  0  0
  -28.0665  -31.8521   26.5483 H   0  0  0  0  0  0
  -28.2570  -38.0094   24.7515 H   0  0  0  0  0  0
  -28.1084  -36.2616   24.6277 H   0  0  0  0  0  0
  -27.2293  -37.1405   25.8869 H   0  0  0  0  0  0
  -20.9490  -29.8731   21.6739 H   0  0  0  0  0  0
  -26.0128  -38.2790   24.1422 H   0  0  0  0  0  0
  -27.6351  -20.3502   21.7950 H   0  0  0  0  0  0
  -31.0251  -18.0501   19.0637 H   0  0  0  0  0  0
  -27.3428  -24.5092   17.9428 H   0  0  0  0  0  0
  -31.8433  -20.1487   18.3214 H   0  0  0  0  0  0
  -31.1510  -21.6867   18.8230 H   0  0  0  0  0  0
  -30.3664  -20.7404   17.5539 H   0  0  0  0  0  0
  -28.7881  -15.7339   21.1057 H   0  0  0  0  0  0
  -27.2550  -22.1804   17.1652 H   0  0  0  0  0  0
  -29.4184  -24.4502   22.1740 H   0  0  0  0  0  0
  1 25  1  0  0  0
  1 30  2  0  0  0
  1 84  1  0  0  0
  2  3  1  0  0  0
  2 25  1  0  0  0
  2 90  1  0  0  0
  2 91  1  0  0  0
  3  4  1  0  0  0
  3 92  1  0  0  0
  3 93  1  0  0  0
  4  5  1  0  0  0
  4 94  1  0  0  0
  4 95  1  0  0  0
  5  6  1  0  0  0
  5 26  1  0  0  0
  5 96  1  0  0  0
  6 25  1  0  0  0
  6 97  1  0  0  0
  6 98  1  0  0  0
  7  8  2  0  0  0
  7 26  1  0  0  0
  7 29  1  0  0  0
  8  9  1  0  0  0
  8 22  1  0  0  0
  9 10  1  0  0  0
  9 27  2  0  0  0
 10 11  2  0  0  0
 10 15  1  0  0  0
 11 12  1  0  0  0
 11 99  1  0  0  0
 12 13  2  0  0  0
 12100  1  0  0  0
 13 14  1  0  0  0
 13 31  1  0  0  0
 14 15  2  0  0  0
 14101  1  0  0  0
 15102  1  0  0  0
 16 17  2  0  0  0
 16 21  1  0  0  0
 16 31  1  0  0  0
 17 18  1  0  0  0
 17103  1  0  0  0
 18 19  2  0  0  0
 18104  1  0  0  0
 19 20  1  0  0  0
 19 24  1  0  0  0
 20 21  2  0  0  0
 20105  1  0  0  0
 21 23  1  0  0  0
 22 28  1  0  0  0
 22 32  2  0  0  0
 26 27  1  0  0  0
 28106  1  0  0  0
 28107  1  0  0  0
 29108  1  0  0  0
 29109  1  0  0  0
 33 34  1  0  0  0
 33 66  1  0  0  0
 33 70  2  0  0  0
 34 36  1  0  0  0
 34 59  1  0  0  0
 34110  1  0  0  0
 35 44  2  0  0  0
 35 45  1  0  0  0
 35 68  1  0  0  0
 36 56  1  0  0  0
 36111  1  0  0  0
 37 39  1  0  0  0
 37 47  1  0  0  0
 37 66  1  0  0  0
 37112  1  0  0  0
 38 43  2  0  0  0
 38 46  1  0  0  0
 38 47  1  0  0  0
 39 64  1  0  0  0
 39 67  2  0  0  0
 40 52  1  0  0  0
 40 53  2  0  0  0
 40 58  1  0  0  0
 41113  1  0  0  0
 41114  1  0  0  0
 41115  1  0  0  0
 41 48  1  0  0  0
 42 43  1  0  0  0
 42 66  1  0  0  0
 42116  1  0  0  0
 42117  1  0  0  0
 43 44  1  0  0  0
 44118  1  0  0  0
 45 46  2  0  0  0
 45119  1  0  0  0
 46120  1  0  0  0
 47121  1  0  0  0
 47122  1  0  0  0
 48 56  1  0  0  0
 48 65  1  0  0  0
 48123  1  0  0  0
 49 50  1  0  0  0
 49 53  1  0  0  0
 49 64  1  0  0  0
 49124  1  0  0  0
 50 51  1  0  0  0
 50125  1  0  0  0
 50126  1  0  0  0
 51 52  1  0  0  0
 51127  1  0  0  0
 51128  1  0  0  0
 52129  1  0  0  0
 52130  1  0  0  0
 53 54  1  0  0  0
 54 55  2  0  0  0
 54131  1  0  0  0
 55 57  1  0  0  0
 55132  1  0  0  0
 56 69  2  0  0  0
 57 58  2  0  0  0
 57133  1  0  0  0
 58134  1  0  0  0
 59 60  1  0  0  0
 59 61  1  0  0  0
 59 62  1  0  0  0
 60135  1  0  0  0
 60136  1  0  0  0
 60137  1  0  0  0
 61138  1  0  0  0
 61139  1  0  0  0
 61140  1  0  0  0
 62141  1  0  0  0
 62142  1  0  0  0
 62143  1  0  0  0
 63 65  1  0  0  0
 63144  1  0  0  0
 63145  1  0  0  0
 63146  1  0  0  0
 64147  1  0  0  0
 65148  1  0  0  0
 68 78  1  0  0  0
 71 74  2  0  0  0
 71 76  1  0  0  0
 71149  1  0  0  0
 72 75  1  0  0  0
 72 77  2  0  0  0
 72150  1  0  0  0
 73 78  1  0  0  0
 73 79  2  0  0  0
 73151  1  0  0  0
 74 77  1  0  0  0
 74 82  1  0  0  0
 75 76  2  0  0  0
 75 81  1  0  0  0
 76 83  1  0  0  0
 77 84  1  0  0  0
 78 80  2  0  0  0
 79 83  1  0  0  0
 79 85  1  0  0  0
 80 83  1  0  0  0
 80 86  1  0  0  0
 81152  1  0  0  0
 81153  1  0  0  0
 81154  1  0  0  0
 82 87  1  0  0  0
 82 88  1  0  0  0
 82 89  1  0  0  0
 84155  1  0  0  0
 85156  1  0  0  0
 86157  1  0  0  0
M  ISO  4   1 100  68 101  78 101  84 100
M  END
> <chiral flag>
0

> <version>
0

> <s_m_source_file>
/data/baiqing/PycharmProjects/Reinvent-master-3.2/result/LINK_invent/BTK/process_docking_weight1_custom_product_contain_oxygen_bond_distance_aromatic_linkinvent_7_9_3/rearranged_h_0063.sdf

> <i_m_source_file_index>
39

> <r_mmod_Potential_Energy-OPLS-2005>
542.636169433594

> <r_mmod_Stretch_Energy-OPLS-2005>
249.324569702148

> <r_mmod_Bend_Energy-OPLS-2005>
265.276519775391

> <r_mmod_Torsional_Energy-OPLS-2005>
233.583053588867

> <r_mmod_Improper_Torsional_Energy-OPLS-2005>
4.29653167724609

> <r_mmod_Van_der_Waal_Energy-OPLS-2005>
127.277320861816

> <r_mmod_Electrostatic_Energy-OPLS-2005>
-334.897064208984

> <r_mmod_Solvation_Energy-OPLS-2005>
-223.862915039062

> <b_mmod_Minimization_Converged-OPLS-2005>
0

> <r_mmod_RMS_Derivative-OPLS-2005>
1.05260515213013

$$$$
40
                    3D
 Structure written by MMmdl.
152160  0  0  1  0            999 V2000
  -30.6146  -14.8229   20.4254 C   0  0  0  0  0  0
  -30.4268  -12.5020   19.4895 C   0  0  0  0  0  0
  -29.5117  -12.5085   18.2456 C   0  0  0  0  0  0
  -28.0406  -12.3240   18.6604 C   0  0  0  0  0  0
  -27.6344  -13.2444   19.8426 C   0  0  2  0  0  0
  -28.6791  -13.2361   20.9799 C   0  0  0  0  0  0
  -25.2478  -13.8220   20.5708 C   0  0  0  0  0  0
  -24.1786  -13.0445   20.9218 C   0  0  0  0  0  0
  -24.6396  -11.6929   20.8750 C   0  0  0  0  0  0
  -23.9079  -10.4296   21.0402 C   0  0  0  0  0  0
  -24.3628   -9.4210   21.9180 C   0  0  0  0  0  0
  -23.6300   -8.2245   22.0750 C   0  0  0  0  0  0
  -22.4281   -8.0282   21.3542 C   0  0  0  0  0  0
  -21.9918   -9.0257   20.4645 C   0  0  0  0  0  0
  -22.7249  -10.2135   20.3053 C   0  0  0  0  0  0
  -21.6857   -6.0736   22.5279 C   0  0  0  0  0  0
  -21.4017   -6.5640   23.8212 C   0  0  0  0  0  0
  -21.3660   -5.6793   24.9175 C   0  0  0  0  0  0
  -21.6044   -4.3056   24.7226 C   0  0  0  0  0  0
  -21.8820   -3.8146   23.4348 C   0  0  0  0  0  0
  -21.9194   -4.6962   22.3404 C   0  0  0  0  0  0
  -22.7807  -13.5215   21.1876 C   0  0  0  0  0  0
  -22.1663   -4.2145   21.0982 F   0  0  0  0  0  0
  -21.5628   -3.4540   25.7740 F   0  0  0  0  0  0
  -29.9713  -13.5973   20.3860 N   0  0  0  0  0  0
  -26.2910  -12.9451   20.3267 N   0  0  0  0  0  0
  -25.9331  -11.6581   20.5754 N   0  0  0  0  0  0
  -22.0462  -12.8199   22.0433 N   0  0  0  0  0  0
  -25.4142  -15.1949   20.4135 N   0  0  0  0  0  0
  -31.8185  -14.8344   20.1600 O   0  0  0  0  0  0
  -21.6645   -6.8879   21.4239 O   0  0  0  0  0  0
  -22.3484  -14.5519   20.6722 O   0  0  0  0  0  0
  -24.6369  -31.8511   23.1955 C   0  0  0  0  0  0
  -25.9170  -32.4735   23.8320 C   0  0  1  0  0  0
  -27.2141  -27.2158   20.1395 C   0  0  0  0  0  0
  -25.5947  -33.8539   24.2236 N   0  0  0  0  0  0
  -23.4375  -30.4730   21.5389 C   0  0  2  0  0  0
  -24.8887  -28.9180   20.1058 C   0  0  0  0  0  0
  -22.7538  -29.4577   22.4880 C   0  0  0  0  0  0
  -18.0299  -28.1391   22.8482 C   0  0  0  0  0  0
  -24.1488  -36.7272   23.2640 C   0  0  0  0  0  0
  -25.9885  -30.7492   21.3857 C   0  0  0  0  0  0
  -26.0632  -29.3688   20.7252 C   0  0  0  0  0  0
  -27.2324  -28.5297   20.7338 C   0  0  0  0  0  0
  -26.0241  -26.8540   19.4744 C   0  0  0  0  0  0
  -24.8768  -27.6703   19.4662 C   0  0  0  0  0  0
  -23.6605  -29.8093   20.1548 C   0  0  0  0  0  0
  -25.4117  -36.3057   24.0321 C   0  0  1  0  0  0
  -20.5908  -28.3710   23.1246 C   0  0  2  0  0  0
  -20.6780  -26.9419   22.5402 C   0  0  0  0  0  0
  -19.5754  -26.6380   21.5208 C   0  0  0  0  0  0
  -18.1937  -26.7932   22.1623 C   0  0  0  0  0  0
  -19.1555  -28.8870   23.2859 C   0  0  0  0  0  0
  -18.9474  -30.1469   23.8880 C   0  0  0  0  0  0
  -17.6470  -30.6590   24.0560 C   0  0  0  0  0  0
  -25.9061  -34.9429   23.5081 C   0  0  0  0  0  0
  -16.5361  -29.9083   23.6335 C   0  0  0  0  0  0
  -16.7284  -28.6501   23.0356 C   0  0  0  0  0  0
  -26.4517  -31.6578   25.0732 C   0  0  0  0  0  0
  -25.3722  -31.3751   26.1442 C   0  0  0  0  0  0
  -27.0370  -30.2981   24.6271 C   0  0  0  0  0  0
  -27.6062  -32.4330   25.7507 C   0  0  0  0  0  0
  -27.5576  -37.1790   24.8466 C   0  0  0  0  0  0
  -21.4238  -29.3048   22.3627 N   0  0  0  0  0  0
  -26.4288  -37.3761   23.9409 N   0  0  0  0  0  0
  -24.7067  -31.0431   22.0959 N   0  0  0  0  0  0
  -23.4212  -28.8115   23.2998 O   0  0  0  0  0  0
  -28.2195  -26.2079   20.2152 O   0  0  0  0  0  0
  -26.5640  -34.8913   22.4653 O   0  0  0  0  0  0
  -23.5503  -32.1355   23.7213 O   0  0  0  0  0  0
  -31.0369  -20.1940   19.6493 C   0  0  0  0  0  0
  -31.4741  -17.7731   19.6753 C   0  0  0  0  0  0
  -31.8692  -19.0916   19.3718 C   0  0  0  0  0  0
  -29.7645  -20.0417   20.2436 C   0  0  0  0  0  0
  -30.2349  -17.4682   20.2898 C   0  0  0  0  0  0
  -29.3909  -18.6483   20.5615 C   0  0  0  0  0  0
  -28.1130  -23.5984   20.8417 C   0  0  0  0  0  0
  -27.8085  -24.9747   20.8324 C   0  0  0  0  0  0
  -29.0786  -22.6419   20.1841 C   0  0  0  0  0  0
  -33.2239  -19.3229   18.7299 C   0  0  0  0  0  0
  -28.9493  -21.2803   20.5363 N   0  0  0  0  0  0
  -29.8834  -16.0185   20.5718 N   0  0  0  0  0  0
  -29.9189  -23.0274   19.3698 O   0  0  0  0  0  0
  -28.1865  -18.4361   21.1447 F   0  0  0  0  0  0
  -31.4676  -12.6169   19.1831 H   0  0  0  0  0  0
  -30.3753  -11.5412   20.0040 H   0  0  0  0  0  0
  -29.8073  -11.7186   17.5538 H   0  0  0  0  0  0
  -29.6276  -13.4497   17.7058 H   0  0  0  0  0  0
  -27.9116  -11.2790   18.9445 H   0  0  0  0  0  0
  -27.3820  -12.4891   17.8068 H   0  0  0  0  0  0
  -27.6109  -14.2551   19.4339 H   0  0  0  0  0  0
  -28.7325  -12.2560   21.4562 H   0  0  0  0  0  0
  -28.4031  -13.9454   21.7618 H   0  0  0  0  0  0
  -25.2771   -9.5688   22.4758 H   0  0  0  0  0  0
  -24.0009   -7.4637   22.7471 H   0  0  0  0  0  0
  -21.0849   -8.8779   19.8952 H   0  0  0  0  0  0
  -22.3705  -10.9676   19.6166 H   0  0  0  0  0  0
  -21.2010   -7.6148   23.9715 H   0  0  0  0  0  0
  -21.1482   -6.0524   25.9079 H   0  0  0  0  0  0
  -22.0598   -2.7606   23.2852 H   0  0  0  0  0  0
  -22.4095  -11.9872   22.4827 H   0  0  0  0  0  0
  -21.1074  -13.1208   22.2637 H   0  0  0  0  0  0
  -24.6456  -15.8461   20.5304 H   0  0  0  0  0  0
  -26.2612  -15.6407   20.0852 H   0  0  0  0  0  0
  -26.7237  -32.5373   23.1058 H   0  0  0  0  0  0
  -25.0088  -33.9667   25.0378 H   0  0  0  0  0  0
  -22.7364  -31.2970   21.3902 H   0  0  0  0  0  0
  -23.3755  -35.9599   23.3301 H   0  0  0  0  0  0
  -24.3575  -36.8903   22.2055 H   0  0  0  0  0  0
  -23.7239  -37.6468   23.6672 H   0  0  0  0  0  0
  -26.1350  -31.5094   20.6171 H   0  0  0  0  0  0
  -26.8621  -30.7973   22.0241 H   0  0  0  0  0  0
  -28.1242  -28.8595   21.2479 H   0  0  0  0  0  0
  -25.9643  -25.8877   18.9934 H   0  0  0  0  0  0
  -23.9802  -27.3198   18.9736 H   0  0  0  0  0  0
  -23.7892  -30.5878   19.4019 H   0  0  0  0  0  0
  -22.7777  -29.2466   19.8459 H   0  0  0  0  0  0
  -25.1298  -36.1894   25.0812 H   0  0  0  0  0  0
  -21.0002  -28.3301   24.1366 H   0  0  0  0  0  0
  -20.5666  -26.2328   23.3621 H   0  0  0  0  0  0
  -21.6647  -26.7423   22.1202 H   0  0  0  0  0  0
  -19.6915  -25.6286   21.1250 H   0  0  0  0  0  0
  -19.6689  -27.3180   20.6729 H   0  0  0  0  0  0
  -17.4200  -26.6681   21.4032 H   0  0  0  0  0  0
  -18.0341  -26.0077   22.9023 H   0  0  0  0  0  0
  -19.7950  -30.7294   24.2239 H   0  0  0  0  0  0
  -17.5019  -31.6267   24.5168 H   0  0  0  0  0  0
  -15.5358  -30.2976   23.7667 H   0  0  0  0  0  0
  -15.8687  -28.0813   22.7076 H   0  0  0  0  0  0
  -24.5903  -30.7093   25.7773 H   0  0  0  0  0  0
  -24.8909  -32.2929   26.4833 H   0  0  0  0  0  0
  -25.8025  -30.8955   27.0243 H   0  0  0  0  0  0
  -26.2973  -29.6719   24.1271 H   0  0  0  0  0  0
  -27.3995  -29.7263   25.4825 H   0  0  0  0  0  0
  -27.8878  -30.4232   23.9570 H   0  0  0  0  0  0
  -27.2664  -33.3643   26.2051 H   0  0  0  0  0  0
  -28.3888  -32.6871   25.0345 H   0  0  0  0  0  0
  -28.0712  -31.8479   26.5452 H   0  0  0  0  0  0
  -28.2591  -38.0088   24.7507 H   0  0  0  0  0  0
  -28.1073  -36.2619   24.6294 H   0  0  0  0  0  0
  -27.2296  -37.1439   25.8870 H   0  0  0  0  0  0
  -20.9435  -29.8776   21.6829 H   0  0  0  0  0  0
  -26.0165  -38.2830   24.1418 H   0  0  0  0  0  0
  -31.4135  -21.1736   19.4020 H   0  0  0  0  0  0
  -32.1715  -16.9977   19.4063 H   0  0  0  0  0  0
  -27.4602  -23.0772   21.5271 H   0  0  0  0  0  0
  -26.9997  -25.2218   21.5082 H   0  0  0  0  0  0
  -33.5452  -20.3599   18.8340 H   0  0  0  0  0  0
  -33.1849  -19.0841   17.6668 H   0  0  0  0  0  0
  -33.9842  -18.6928   19.1930 H   0  0  0  0  0  0
  -28.1551  -21.0962   21.1334 H   0  0  0  0  0  0
  -28.9231  -15.8766   20.8456 H   0  0  0  0  0  0
  1 25  1  0  0  0
  1 30  2  0  0  0
  1 82  1  0  0  0
  2  3  1  0  0  0
  2 25  1  0  0  0
  2 85  1  0  0  0
  2 86  1  0  0  0
  3  4  1  0  0  0
  3 87  1  0  0  0
  3 88  1  0  0  0
  4  5  1  0  0  0
  4 89  1  0  0  0
  4 90  1  0  0  0
  5  6  1  0  0  0
  5 26  1  0  0  0
  5 91  1  0  0  0
  6 25  1  0  0  0
  6 92  1  0  0  0
  6 93  1  0  0  0
  7  8  2  0  0  0
  7 26  1  0  0  0
  7 29  1  0  0  0
  8  9  1  0  0  0
  8 22  1  0  0  0
  9 10  1  0  0  0
  9 27  2  0  0  0
 10 11  2  0  0  0
 10 15  1  0  0  0
 11 12  1  0  0  0
 11 94  1  0  0  0
 12 13  2  0  0  0
 12 95  1  0  0  0
 13 14  1  0  0  0
 13 31  1  0  0  0
 14 15  2  0  0  0
 14 96  1  0  0  0
 15 97  1  0  0  0
 16 17  2  0  0  0
 16 21  1  0  0  0
 16 31  1  0  0  0
 17 18  1  0  0  0
 17 98  1  0  0  0
 18 19  2  0  0  0
 18 99  1  0  0  0
 19 20  1  0  0  0
 19 24  1  0  0  0
 20 21  2  0  0  0
 20100  1  0  0  0
 21 23  1  0  0  0
 22 28  1  0  0  0
 22 32  2  0  0  0
 26 27  1  0  0  0
 28101  1  0  0  0
 28102  1  0  0  0
 29103  1  0  0  0
 29104  1  0  0  0
 33 34  1  0  0  0
 33 66  1  0  0  0
 33 70  2  0  0  0
 34 36  1  0  0  0
 34 59  1  0  0  0
 34105  1  0  0  0
 35 44  2  0  0  0
 35 45  1  0  0  0
 35 68  1  0  0  0
 36 56  1  0  0  0
 36106  1  0  0  0
 37 39  1  0  0  0
 37 47  1  0  0  0
 37 66  1  0  0  0
 37107  1  0  0  0
 38 43  2  0  0  0
 38 46  1  0  0  0
 38 47  1  0  0  0
 39 64  1  0  0  0
 39 67  2  0  0  0
 40 52  1  0  0  0
 40 53  2  0  0  0
 40 58  1  0  0  0
 41108  1  0  0  0
 41109  1  0  0  0
 41110  1  0  0  0
 41 48  1  0  0  0
 42 43  1  0  0  0
 42 66  1  0  0  0
 42111  1  0  0  0
 42112  1  0  0  0
 43 44  1  0  0  0
 44113  1  0  0  0
 45 46  2  0  0  0
 45114  1  0  0  0
 46115  1  0  0  0
 47116  1  0  0  0
 47117  1  0  0  0
 48 56  1  0  0  0
 48 65  1  0  0  0
 48118  1  0  0  0
 49 50  1  0  0  0
 49 53  1  0  0  0
 49 64  1  0  0  0
 49119  1  0  0  0
 50 51  1  0  0  0
 50120  1  0  0  0
 50121  1  0  0  0
 51 52  1  0  0  0
 51122  1  0  0  0
 51123  1  0  0  0
 52124  1  0  0  0
 52125  1  0  0  0
 53 54  1  0  0  0
 54 55  2  0  0  0
 54126  1  0  0  0
 55 57  1  0  0  0
 55127  1  0  0  0
 56 69  2  0  0  0
 57 58  2  0  0  0
 57128  1  0  0  0
 58129  1  0  0  0
 59 60  1  0  0  0
 59 61  1  0  0  0
 59 62  1  0  0  0
 60130  1  0  0  0
 60131  1  0  0  0
 60132  1  0  0  0
 61133  1  0  0  0
 61134  1  0  0  0
 61135  1  0  0  0
 62136  1  0  0  0
 62137  1  0  0  0
 62138  1  0  0  0
 63 65  1  0  0  0
 63139  1  0  0  0
 63140  1  0  0  0
 63141  1  0  0  0
 64142  1  0  0  0
 65143  1  0  0  0
 68 78  1  0  0  0
 71 73  2  0  0  0
 71 74  1  0  0  0
 71144  1  0  0  0
 72 73  1  0  0  0
 72 75  2  0  0  0
 72145  1  0  0  0
 73 80  1  0  0  0
 74 76  2  0  0  0
 74 81  1  0  0  0
 75 76  1  0  0  0
 75 82  1  0  0  0
 76 84  1  0  0  0
 77 78  2  0  0  0
 77 79  1  0  0  0
 77146  1  0  0  0
 78147  1  0  0  0
 79 81  1  0  0  0
 79 83  2  0  0  0
 80148  1  0  0  0
 80149  1  0  0  0
 80150  1  0  0  0
 81151  1  0  0  0
 82152  1  0  0  0
M  ISO  4   1 100  68 101  78 101  82 100
M  END
> <chiral flag>
0

> <version>
0

> <s_m_source_file>
/data/baiqing/PycharmProjects/Reinvent-master-3.2/result/LINK_invent/BTK/process_docking_weight1_custom_product_contain_oxygen_bond_distance_aromatic_linkinvent_7_9_3/rearranged_h_0063.sdf

> <i_m_source_file_index>
40

> <r_mmod_Potential_Energy-OPLS-2005>
274.140808105469

> <r_mmod_Stretch_Energy-OPLS-2005>
164.299621582031

> <r_mmod_Bend_Energy-OPLS-2005>
244.57145690918

> <r_mmod_Torsional_Energy-OPLS-2005>
227.981826782227

> <r_mmod_Improper_Torsional_Energy-OPLS-2005>
4.28486919403076

> <r_mmod_Van_der_Waal_Energy-OPLS-2005>
147.213516235352

> <r_mmod_Electrostatic_Energy-OPLS-2005>
-424.457092285156

> <r_mmod_Solvation_Energy-OPLS-2005>
-221.04931640625

> <b_mmod_Minimization_Converged-OPLS-2005>
0

> <r_mmod_RMS_Derivative-OPLS-2005>
0.453688770532608

$$$$
41
                    3D
 Structure written by MMmdl.
161170  0  0  1  0            999 V2000
  -30.6047  -14.7591   20.4715 C   0  0  0  0  0  0
  -30.4454  -12.4777   19.4493 C   0  0  0  0  0  0
  -29.5117  -12.5080   18.2187 C   0  0  0  0  0  0
  -28.0376  -12.3283   18.6332 C   0  0  0  0  0  0
  -27.6399  -13.2289   19.8342 C   0  0  2  0  0  0
  -28.6888  -13.1736   20.9636 C   0  0  0  0  0  0
  -25.2500  -13.8163   20.5638 C   0  0  0  0  0  0
  -24.1807  -13.0415   20.9183 C   0  0  0  0  0  0
  -24.6404  -11.6906   20.8734 C   0  0  0  0  0  0
  -23.9075  -10.4296   21.0407 C   0  0  0  0  0  0
  -24.3616   -9.4221   21.9194 C   0  0  0  0  0  0
  -23.6289   -8.2256   22.0782 C   0  0  0  0  0  0
  -22.4283   -8.0278   21.3553 C   0  0  0  0  0  0
  -21.9913   -9.0260   20.4663 C   0  0  0  0  0  0
  -22.7248  -10.2132   20.3066 C   0  0  0  0  0  0
  -21.6846   -6.0727   22.5284 C   0  0  0  0  0  0
  -21.4013   -6.5634   23.8216 C   0  0  0  0  0  0
  -21.3651   -5.6786   24.9173 C   0  0  0  0  0  0
  -21.6040   -4.3056   24.7228 C   0  0  0  0  0  0
  -21.8816   -3.8150   23.4354 C   0  0  0  0  0  0
  -21.9201   -4.6957   22.3407 C   0  0  0  0  0  0
  -22.7832  -13.5214   21.1838 C   0  0  0  0  0  0
  -22.1665   -4.2145   21.0978 F   0  0  0  0  0  0
  -21.5623   -3.4543   25.7743 F   0  0  0  0  0  0
  -29.9804  -13.5367   20.3699 N   0  0  0  0  0  0
  -26.2931  -12.9376   20.3200 N   0  0  0  0  0  0
  -25.9326  -11.6526   20.5712 N   0  0  0  0  0  0
  -22.0460  -12.8246   22.0404 N   0  0  0  0  0  0
  -25.4100  -15.1883   20.3983 N   0  0  0  0  0  0
  -31.8134  -14.8522   20.2393 O   0  0  0  0  0  0
  -21.6637   -6.8881   21.4254 O   0  0  0  0  0  0
  -22.3540  -14.5529   20.6679 O   0  0  0  0  0  0
  -24.6288  -31.8515   23.2034 C   0  0  0  0  0  0
  -25.9115  -32.4754   23.8355 C   0  0  1  0  0  0
  -27.1941  -27.2596   20.1230 C   0  0  0  0  0  0
  -25.5905  -33.8543   24.2255 N   0  0  0  0  0  0
  -23.4216  -30.4862   21.5451 C   0  0  2  0  0  0
  -24.8665  -28.9413   20.1054 C   0  0  0  0  0  0
  -22.7479  -29.4590   22.4884 C   0  0  0  0  0  0
  -18.0273  -28.1318   22.8443 C   0  0  0  0  0  0
  -24.1512  -36.7288   23.2631 C   0  0  0  0  0  0
  -25.9684  -30.7704   21.3801 C   0  0  0  0  0  0
  -26.0400  -29.3957   20.7205 C   0  0  0  0  0  0
  -27.2091  -28.5650   20.7233 C   0  0  0  0  0  0
  -25.9966  -26.8819   19.4772 C   0  0  0  0  0  0
  -24.8475  -27.6919   19.4749 C   0  0  0  0  0  0
  -23.6410  -29.8322   20.1577 C   0  0  0  0  0  0
  -25.4131  -36.3063   24.0322 C   0  0  1  0  0  0
  -20.5880  -28.3614   23.1241 C   0  0  2  0  0  0
  -20.6740  -26.9325   22.5379 C   0  0  0  0  0  0
  -19.5740  -26.6313   21.5149 C   0  0  0  0  0  0
  -18.1892  -26.7855   22.1562 C   0  0  0  0  0  0
  -19.1538  -28.8791   23.2831 C   0  0  0  0  0  0
  -18.9486  -30.1403   23.8833 C   0  0  0  0  0  0
  -17.6481  -30.6513   24.0536 C   0  0  0  0  0  0
  -25.9047  -34.9428   23.5097 C   0  0  0  0  0  0
  -16.5364  -29.9008   23.6328 C   0  0  0  0  0  0
  -16.7273  -28.6446   23.0320 C   0  0  0  0  0  0
  -26.4515  -31.6602   25.0747 C   0  0  0  0  0  0
  -25.3734  -31.3755   26.1484 C   0  0  0  0  0  0
  -27.0380  -30.3033   24.6201 C   0  0  0  0  0  0
  -27.6076  -32.4339   25.7513 C   0  0  0  0  0  0
  -27.5591  -37.1794   24.8446 C   0  0  0  0  0  0
  -21.4177  -29.3002   22.3675 N   0  0  0  0  0  0
  -26.4299  -37.3770   23.9412 N   0  0  0  0  0  0
  -24.6920  -31.0526   22.1020 N   0  0  0  0  0  0
  -23.4216  -28.8076   23.2896 O   0  0  0  0  0  0
  -28.2680  -26.3392   20.1753 O   0  0  0  0  0  0
  -26.5625  -34.8906   22.4668 O   0  0  0  0  0  0
  -23.5464  -32.1340   23.7373 O   0  0  0  0  0  0
  -30.8360  -18.5979   22.8993 C   0  0  0  0  0  0
  -30.6995  -17.3617   22.2485 C   0  0  0  0  0  0
  -29.5728  -18.5222   20.4258 C   0  0  0  0  0  0
  -30.3742  -19.8075   22.3401 C   0  0  0  0  0  0
  -29.7367  -19.8316   21.0622 C   0  0  0  0  0  0
  -30.0486  -17.2642   21.0048 C   0  0  0  0  0  0
  -29.9615  -21.6619   19.3421 C   0  0  0  0  0  0
  -29.6239  -23.1497   19.0991 C   0  0  0  0  0  0
  -28.5617  -22.2901   21.0244 C   0  0  0  0  0  0
  -29.0396  -23.7015   20.4216 C   0  0  1  0  0  0
  -30.6642  -21.0612   23.1479 C   0  0  0  0  0  0
  -30.1409  -24.2962   21.3259 C   0  0  0  0  0  0
  -27.9337  -24.8700   20.2302 C   0  0  0  0  0  0
  -29.3689  -21.1504   20.4425 N   0  0  0  0  0  0
  -29.7992  -15.8934   20.4958 N   0  0  0  0  0  0
  -30.7017  -21.0401   18.5726 O   0  0  0  0  0  0
  -31.4790  -12.6361   19.1331 H   0  0  0  0  0  0
  -30.4239  -11.5029   19.9394 H   0  0  0  0  0  0
  -29.8005  -11.7325   17.5082 H   0  0  0  0  0  0
  -29.6320  -13.4564   17.6922 H   0  0  0  0  0  0
  -27.8944  -11.2802   18.8949 H   0  0  0  0  0  0
  -27.3846  -12.5244   17.7811 H   0  0  0  0  0  0
  -27.6246  -14.2476   19.4454 H   0  0  0  0  0  0
  -28.7347  -12.1780   21.4072 H   0  0  0  0  0  0
  -28.4253  -13.8646   21.7678 H   0  0  0  0  0  0
  -25.2746   -9.5693   22.4795 H   0  0  0  0  0  0
  -23.9977   -7.4652   22.7522 H   0  0  0  0  0  0
  -21.0839   -8.8773   19.8982 H   0  0  0  0  0  0
  -22.3693  -10.9666   19.6182 H   0  0  0  0  0  0
  -21.2004   -7.6143   23.9713 H   0  0  0  0  0  0
  -21.1465   -6.0520   25.9069 H   0  0  0  0  0  0
  -22.0607   -2.7615   23.2852 H   0  0  0  0  0  0
  -22.4032  -11.9866   22.4761 H   0  0  0  0  0  0
  -21.1082  -13.1317   22.2580 H   0  0  0  0  0  0
  -24.6176  -15.8197   20.4610 H   0  0  0  0  0  0
  -26.2349  -15.6371   20.0231 H   0  0  0  0  0  0
  -26.7151  -32.5420   23.1063 H   0  0  0  0  0  0
  -25.0144  -33.9716   25.0463 H   0  0  0  0  0  0
  -22.7191  -31.3116   21.4046 H   0  0  0  0  0  0
  -23.3788  -35.9603   23.3243 H   0  0  0  0  0  0
  -24.3597  -36.8975   22.2058 H   0  0  0  0  0  0
  -23.7249  -37.6453   23.6705 H   0  0  0  0  0  0
  -26.1082  -31.5368   20.6174 H   0  0  0  0  0  0
  -26.8463  -30.8135   22.0105 H   0  0  0  0  0  0
  -28.1022  -28.8893   21.2394 H   0  0  0  0  0  0
  -25.8973  -25.9358   18.9717 H   0  0  0  0  0  0
  -23.9490  -27.3336   18.9910 H   0  0  0  0  0  0
  -23.7652  -30.6170   19.4091 H   0  0  0  0  0  0
  -22.7549  -29.2759   19.8466 H   0  0  0  0  0  0
  -25.1312  -36.1914   25.0818 H   0  0  0  0  0  0
  -20.9968  -28.3168   24.1361 H   0  0  0  0  0  0
  -20.5555  -26.2213   23.3569 H   0  0  0  0  0  0
  -21.6637  -26.7282   22.1255 H   0  0  0  0  0  0
  -19.6920  -25.6215   21.1197 H   0  0  0  0  0  0
  -19.6747  -27.3122   20.6666 H   0  0  0  0  0  0
  -17.4190  -26.6588   21.3943 H   0  0  0  0  0  0
  -18.0325  -26.0000   22.8991 H   0  0  0  0  0  0
  -19.8013  -30.7189   24.2178 H   0  0  0  0  0  0
  -17.5078  -31.6230   24.5107 H   0  0  0  0  0  0
  -15.5377  -30.2884   23.7707 H   0  0  0  0  0  0
  -15.8670  -28.0764   22.7007 H   0  0  0  0  0  0
  -24.6000  -30.6963   25.7885 H   0  0  0  0  0  0
  -24.8819  -32.2903   26.4803 H   0  0  0  0  0  0
  -25.8097  -30.9105   27.0333 H   0  0  0  0  0  0
  -26.2973  -29.6745   24.1235 H   0  0  0  0  0  0
  -27.4099  -29.7352   25.4733 H   0  0  0  0  0  0
  -27.8840  -30.4346   23.9442 H   0  0  0  0  0  0
  -27.2731  -33.3728   26.1947 H   0  0  0  0  0  0
  -28.3975  -32.6710   25.0374 H   0  0  0  0  0  0
  -28.0593  -31.8502   26.5549 H   0  0  0  0  0  0
  -28.2560  -38.0148   24.7548 H   0  0  0  0  0  0
  -28.1143  -36.2666   24.6200 H   0  0  0  0  0  0
  -27.2285  -37.1326   25.8841 H   0  0  0  0  0  0
  -20.9258  -29.8943   21.7143 H   0  0  0  0  0  0
  -26.0174  -38.2828   24.1504 H   0  0  0  0  0  0
  -31.3242  -18.6085   23.8641 H   0  0  0  0  0  0
  -31.0755  -16.4746   22.7412 H   0  0  0  0  0  0
  -29.0661  -18.4872   19.4696 H   0  0  0  0  0  0
  -28.8967  -23.1865   18.2890 H   0  0  0  0  0  0
  -30.5052  -23.7050   18.7687 H   0  0  0  0  0  0
  -27.5186  -22.1190   20.7511 H   0  0  0  0  0  0
  -28.5663  -22.3048   22.1109 H   0  0  0  0  0  0
  -31.4174  -20.8839   23.9183 H   0  0  0  0  0  0
  -29.7747  -21.4167   23.6687 H   0  0  0  0  0  0
  -31.0654  -21.8407   22.5079 H   0  0  0  0  0  0
  -31.0059  -23.6452   21.4159 H   0  0  0  0  0  0
  -29.7538  -24.4974   22.3262 H   0  0  0  0  0  0
  -30.5225  -25.2396   20.9328 H   0  0  0  0  0  0
  -27.2171  -24.7641   21.0473 H   0  0  0  0  0  0
  -27.3932  -24.6031   19.3240 H   0  0  0  0  0  0
  -28.8287  -15.6985   20.3103 H   0  0  0  0  0  0
  1 25  1  0  0  0
  1 30  2  0  0  0
  1 85  1  0  0  0
  2  3  1  0  0  0
  2 25  1  0  0  0
  2 87  1  0  0  0
  2 88  1  0  0  0
  3  4  1  0  0  0
  3 89  1  0  0  0
  3 90  1  0  0  0
  4  5  1  0  0  0
  4 91  1  0  0  0
  4 92  1  0  0  0
  5  6  1  0  0  0
  5 26  1  0  0  0
  5 93  1  0  0  0
  6 25  1  0  0  0
  6 94  1  0  0  0
  6 95  1  0  0  0
  7  8  2  0  0  0
  7 26  1  0  0  0
  7 29  1  0  0  0
  8  9  1  0  0  0
  8 22  1  0  0  0
  9 10  1  0  0  0
  9 27  2  0  0  0
 10 11  2  0  0  0
 10 15  1  0  0  0
 11 12  1  0  0  0
 11 96  1  0  0  0
 12 13  2  0  0  0
 12 97  1  0  0  0
 13 14  1  0  0  0
 13 31  1  0  0  0
 14 15  2  0  0  0
 14 98  1  0  0  0
 15 99  1  0  0  0
 16 17  2  0  0  0
 16 21  1  0  0  0
 16 31  1  0  0  0
 17 18  1  0  0  0
 17100  1  0  0  0
 18 19  2  0  0  0
 18101  1  0  0  0
 19 20  1  0  0  0
 19 24  1  0  0  0
 20 21  2  0  0  0
 20102  1  0  0  0
 21 23  1  0  0  0
 22 28  1  0  0  0
 22 32  2  0  0  0
 26 27  1  0  0  0
 28103  1  0  0  0
 28104  1  0  0  0
 29105  1  0  0  0
 29106  1  0  0  0
 33 34  1  0  0  0
 33 66  1  0  0  0
 33 70  2  0  0  0
 34 36  1  0  0  0
 34 59  1  0  0  0
 34107  1  0  0  0
 35 44  2  0  0  0
 35 45  1  0  0  0
 35 68  1  0  0  0
 36 56  1  0  0  0
 36108  1  0  0  0
 37 39  1  0  0  0
 37 47  1  0  0  0
 37 66  1  0  0  0
 37109  1  0  0  0
 38 43  2  0  0  0
 38 46  1  0  0  0
 38 47  1  0  0  0
 39 64  1  0  0  0
 39 67  2  0  0  0
 40 52  1  0  0  0
 40 53  2  0  0  0
 40 58  1  0  0  0
 41110  1  0  0  0
 41111  1  0  0  0
 41112  1  0  0  0
 41 48  1  0  0  0
 42 43  1  0  0  0
 42 66  1  0  0  0
 42113  1  0  0  0
 42114  1  0  0  0
 43 44  1  0  0  0
 44115  1  0  0  0
 45 46  2  0  0  0
 45116  1  0  0  0
 46117  1  0  0  0
 47118  1  0  0  0
 47119  1  0  0  0
 48 56  1  0  0  0
 48 65  1  0  0  0
 48120  1  0  0  0
 49 50  1  0  0  0
 49 53  1  0  0  0
 49 64  1  0  0  0
 49121  1  0  0  0
 50 51  1  0  0  0
 50122  1  0  0  0
 50123  1  0  0  0
 51 52  1  0  0  0
 51124  1  0  0  0
 51125  1  0  0  0
 52126  1  0  0  0
 52127  1  0  0  0
 53 54  1  0  0  0
 54 55  2  0  0  0
 54128  1  0  0  0
 55 57  1  0  0  0
 55129  1  0  0  0
 56 69  2  0  0  0
 57 58  2  0  0  0
 57130  1  0  0  0
 58131  1  0  0  0
 59 60  1  0  0  0
 59 61  1  0  0  0
 59 62  1  0  0  0
 60132  1  0  0  0
 60133  1  0  0  0
 60134  1  0  0  0
 61135  1  0  0  0
 61136  1  0  0  0
 61137  1  0  0  0
 62138  1  0  0  0
 62139  1  0  0  0
 62140  1  0  0  0
 63 65  1  0  0  0
 63141  1  0  0  0
 63142  1  0  0  0
 63143  1  0  0  0
 64144  1  0  0  0
 65145  1  0  0  0
 68 83  1  0  0  0
 71 72  2  0  0  0
 71 74  1  0  0  0
 71146  1  0  0  0
 72 76  1  0  0  0
 72147  1  0  0  0
 73 75  1  0  0  0
 73 76  2  0  0  0
 73148  1  0  0  0
 74 75  2  0  0  0
 74 81  1  0  0  0
 75 84  1  0  0  0
 76 85  1  0  0  0
 77 78  1  0  0  0
 77 84  1  0  0  0
 77 86  2  0  0  0
 78 80  1  0  0  0
 78149  1  0  0  0
 78150  1  0  0  0
 79 80  1  0  0  0
 79 84  1  0  0  0
 79151  1  0  0  0
 79152  1  0  0  0
 80 82  1  0  0  0
 80 83  1  0  0  0
 81153  1  0  0  0
 81154  1  0  0  0
 81155  1  0  0  0
 82156  1  0  0  0
 82157  1  0  0  0
 82158  1  0  0  0
 83159  1  0  0  0
 83160  1  0  0  0
 85161  1  0  0  0
M  ISO  4   1 100  68 101  83 101  85 100
M  END
> <chiral flag>
0

> <version>
0

> <s_m_source_file>
/data/baiqing/PycharmProjects/Reinvent-master-3.2/result/LINK_invent/BTK/process_docking_weight1_custom_product_contain_oxygen_bond_distance_aromatic_linkinvent_7_9_3/rearranged_h_0063.sdf

> <i_m_source_file_index>
41

> <r_mmod_Potential_Energy-OPLS-2005>
313.830169677734

> <r_mmod_Stretch_Energy-OPLS-2005>
128.164672851562

> <r_mmod_Bend_Energy-OPLS-2005>
191.887969970703

> <r_mmod_Torsional_Energy-OPLS-2005>
325.903747558594

> <r_mmod_Improper_Torsional_Energy-OPLS-2005>
10.4829120635986

> <r_mmod_Van_der_Waal_Energy-OPLS-2005>
140.76188659668

> <r_mmod_Electrostatic_Energy-OPLS-2005>
-350.648620605469

> <r_mmod_Solvation_Energy-OPLS-2005>
-228.107452392578

> <b_mmod_Minimization_Converged-OPLS-2005>
0

> <r_mmod_RMS_Derivative-OPLS-2005>
4.69398736953735

$$$$
42
                    3D
 Structure written by MMmdl.
149157  0  0  1  0            999 V2000
  -30.5860  -14.8176   20.4625 C   0  0  0  0  0  0
  -30.4347  -12.5085   19.4732 C   0  0  0  0  0  0
  -29.5115  -12.5171   18.2349 C   0  0  0  0  0  0
  -28.0420  -12.3193   18.6537 C   0  0  0  0  0  0
  -27.6336  -13.2330   19.8398 C   0  0  2  0  0  0
  -28.6777  -13.2076   20.9755 C   0  0  0  0  0  0
  -25.2476  -13.8182   20.5667 C   0  0  0  0  0  0
  -24.1782  -13.0429   20.9208 C   0  0  0  0  0  0
  -24.6389  -11.6911   20.8751 C   0  0  0  0  0  0
  -23.9065  -10.4287   21.0406 C   0  0  0  0  0  0
  -24.3614   -9.4202   21.9182 C   0  0  0  0  0  0
  -23.6291   -8.2241   22.0760 C   0  0  0  0  0  0
  -22.4278   -8.0272   21.3548 C   0  0  0  0  0  0
  -21.9905   -9.0243   20.4652 C   0  0  0  0  0  0
  -22.7233  -10.2123   20.3052 C   0  0  0  0  0  0
  -21.6851   -6.0728   22.5278 C   0  0  0  0  0  0
  -21.4016   -6.5638   23.8211 C   0  0  0  0  0  0
  -21.3660   -5.6795   24.9178 C   0  0  0  0  0  0
  -21.6039   -4.3059   24.7230 C   0  0  0  0  0  0
  -21.8820   -3.8146   23.4357 C   0  0  0  0  0  0
  -21.9195   -4.6957   22.3409 C   0  0  0  0  0  0
  -22.7808  -13.5207   21.1873 C   0  0  0  0  0  0
  -22.1662   -4.2143   21.0986 F   0  0  0  0  0  0
  -21.5628   -3.4541   25.7744 F   0  0  0  0  0  0
  -29.9672  -13.5839   20.3835 N   0  0  0  0  0  0
  -26.2896  -12.9393   20.3223 N   0  0  0  0  0  0
  -25.9305  -11.6537   20.5727 N   0  0  0  0  0  0
  -22.0463  -12.8194   22.0435 N   0  0  0  0  0  0
  -25.4138  -15.1907   20.4062 N   0  0  0  0  0  0
  -31.7899  -14.8910   20.1936 O   0  0  0  0  0  0
  -21.6647   -6.8870   21.4242 O   0  0  0  0  0  0
  -22.3494  -14.5516   20.6722 O   0  0  0  0  0  0
  -24.6356  -31.8515   23.1963 C   0  0  0  0  0  0
  -25.9171  -32.4737   23.8316 C   0  0  1  0  0  0
  -27.2229  -27.2251   20.1484 C   0  0  0  0  0  0
  -25.5946  -33.8536   24.2235 N   0  0  0  0  0  0
  -23.4342  -30.4705   21.5406 C   0  0  2  0  0  0
  -24.8815  -28.9043   20.1198 C   0  0  0  0  0  0
  -22.7513  -29.4569   22.4917 C   0  0  0  0  0  0
  -18.0279  -28.1395   22.8494 C   0  0  0  0  0  0
  -24.1481  -36.7265   23.2643 C   0  0  0  0  0  0
  -25.9817  -30.7530   21.3793 C   0  0  0  0  0  0
  -26.0542  -29.3679   20.7303 C   0  0  0  0  0  0
  -27.2303  -28.5434   20.7296 C   0  0  0  0  0  0
  -26.0264  -26.8289   19.5182 C   0  0  0  0  0  0
  -24.8727  -27.6423   19.5029 C   0  0  0  0  0  0
  -23.6566  -29.7997   20.1587 C   0  0  0  0  0  0
  -25.4117  -36.3055   24.0325 C   0  0  1  0  0  0
  -20.5889  -28.3694   23.1279 C   0  0  2  0  0  0
  -20.6770  -26.9410   22.5414 C   0  0  0  0  0  0
  -19.5737  -26.6386   21.5219 C   0  0  0  0  0  0
  -18.1920  -26.7933   22.1646 C   0  0  0  0  0  0
  -19.1535  -28.8867   23.2877 C   0  0  0  0  0  0
  -18.9455  -30.1473   23.8885 C   0  0  0  0  0  0
  -17.6454  -30.6595   24.0563 C   0  0  0  0  0  0
  -25.9062  -34.9426   23.5079 C   0  0  0  0  0  0
  -16.5348  -29.9091   23.6339 C   0  0  0  0  0  0
  -16.7267  -28.6511   23.0361 C   0  0  0  0  0  0
  -26.4521  -31.6581   25.0719 C   0  0  0  0  0  0
  -25.3733  -31.3779   26.1437 C   0  0  0  0  0  0
  -27.0344  -30.2986   24.6223 C   0  0  0  0  0  0
  -27.6078  -32.4311   25.7482 C   0  0  0  0  0  0
  -27.5566  -37.1802   24.8479 C   0  0  0  0  0  0
  -21.4210  -29.3038   22.3670 N   0  0  0  0  0  0
  -26.4291  -37.3760   23.9401 N   0  0  0  0  0  0
  -24.7037  -31.0440   22.0956 N   0  0  0  0  0  0
  -23.4185  -28.8109   23.3037 O   0  0  0  0  0  0
  -28.3162  -26.3219   20.1017 O   0  0  0  0  0  0
  -26.5622  -34.8915   22.4638 O   0  0  0  0  0  0
  -23.5496  -32.1345   23.7244 O   0  0  0  0  0  0
  -31.7030  -19.0292   21.8449 C   0  0  0  0  0  0
  -30.9318  -20.1413   21.4512 C   0  0  0  0  0  0
  -31.3254  -17.7078   21.5318 C   0  0  0  0  0  0
  -29.3627  -18.6037   20.4066 C   0  0  0  0  0  0
  -29.7354  -19.9956   20.7138 C   0  0  0  0  0  0
  -30.1492  -17.4214   20.8034 C   0  0  0  0  0  0
  -28.7862  -23.7975   20.1511 C   0  0  0  0  0  0
  -28.2439  -24.9918   20.6445 C   0  0  0  0  0  0
  -28.8696  -22.4779   20.9098 C   0  0  0  0  0  0
  -29.0912  -21.2710   20.2326 N   0  0  0  0  0  0
  -29.7977  -15.9746   20.5795 N   0  0  0  0  0  0
  -28.7588  -22.4493   22.1375 O   0  0  0  0  0  0
  -31.4722  -12.6501   19.1659 H   0  0  0  0  0  0
  -30.3994  -11.5412   19.9760 H   0  0  0  0  0  0
  -29.8110  -11.7368   17.5332 H   0  0  0  0  0  0
  -29.6176  -13.4645   17.7038 H   0  0  0  0  0  0
  -27.9200  -11.2722   18.9354 H   0  0  0  0  0  0
  -27.3795  -12.4823   17.8032 H   0  0  0  0  0  0
  -27.6140  -14.2452   19.4365 H   0  0  0  0  0  0
  -28.7354  -12.2207   21.4358 H   0  0  0  0  0  0
  -28.3977  -13.9027   21.7689 H   0  0  0  0  0  0
  -25.2760   -9.5688   22.4759 H   0  0  0  0  0  0
  -24.0007   -7.4631   22.7474 H   0  0  0  0  0  0
  -21.0840   -8.8747   19.8955 H   0  0  0  0  0  0
  -22.3678  -10.9656   19.6162 H   0  0  0  0  0  0
  -21.2006   -7.6146   23.9709 H   0  0  0  0  0  0
  -21.1478   -6.0531   25.9078 H   0  0  0  0  0  0
  -22.0597   -2.7606   23.2858 H   0  0  0  0  0  0
  -22.4094  -11.9861   22.4821 H   0  0  0  0  0  0
  -21.1076  -13.1219   22.2646 H   0  0  0  0  0  0
  -24.6359  -15.8350   20.4994 H   0  0  0  0  0  0
  -26.2484  -15.6321   20.0440 H   0  0  0  0  0  0
  -26.7216  -32.5373   23.1034 H   0  0  0  0  0  0
  -25.0123  -33.9661   25.0404 H   0  0  0  0  0  0
  -22.7334  -31.2956   21.3926 H   0  0  0  0  0  0
  -23.3735  -35.9609   23.3351 H   0  0  0  0  0  0
  -24.3559  -36.8834   22.2045 H   0  0  0  0  0  0
  -23.7251  -37.6493   23.6633 H   0  0  0  0  0  0
  -26.1181  -31.5082   20.6040 H   0  0  0  0  0  0
  -26.8595  -30.8105   22.0112 H   0  0  0  0  0  0
  -28.1344  -28.9006   21.2006 H   0  0  0  0  0  0
  -25.9829  -25.8620   19.0361 H   0  0  0  0  0  0
  -23.9750  -27.2803   19.0198 H   0  0  0  0  0  0
  -23.7892  -30.5749   19.4034 H   0  0  0  0  0  0
  -22.7730  -29.2389   19.8511 H   0  0  0  0  0  0
  -25.1304  -36.1896   25.0821 H   0  0  0  0  0  0
  -20.9981  -28.3248   24.1406 H   0  0  0  0  0  0
  -20.5667  -26.2292   23.3613 H   0  0  0  0  0  0
  -21.6633  -26.7425   22.1214 H   0  0  0  0  0  0
  -19.6886  -25.6290   21.1257 H   0  0  0  0  0  0
  -19.6675  -27.3191   20.6742 H   0  0  0  0  0  0
  -17.4192  -26.6677   21.4052 H   0  0  0  0  0  0
  -18.0326  -26.0077   22.9048 H   0  0  0  0  0  0
  -19.7927  -30.7299   24.2244 H   0  0  0  0  0  0
  -17.5005  -31.6273   24.5165 H   0  0  0  0  0  0
  -15.5346  -30.2990   23.7674 H   0  0  0  0  0  0
  -15.8670  -28.0828   22.7079 H   0  0  0  0  0  0
  -24.5859  -30.7174   25.7778 H   0  0  0  0  0  0
  -24.8981  -32.2976   26.4857 H   0  0  0  0  0  0
  -25.8029  -30.8941   27.0215 H   0  0  0  0  0  0
  -26.2916  -29.6747   24.1235 H   0  0  0  0  0  0
  -27.3991  -29.7246   25.4751 H   0  0  0  0  0  0
  -27.8821  -30.4247   23.9483 H   0  0  0  0  0  0
  -27.2713  -33.3659   26.1977 H   0  0  0  0  0  0
  -28.3940  -32.6781   25.0333 H   0  0  0  0  0  0
  -28.0679  -31.8467   26.5459 H   0  0  0  0  0  0
  -28.2634  -38.0051   24.7461 H   0  0  0  0  0  0
  -28.1002  -36.2577   24.6385 H   0  0  0  0  0  0
  -27.2268  -37.1553   25.8882 H   0  0  0  0  0  0
  -20.9393  -29.8792   21.6904 H   0  0  0  0  0  0
  -26.0158  -38.2834   24.1386 H   0  0  0  0  0  0
  -32.6173  -19.1948   22.3979 H   0  0  0  0  0  0
  -31.2984  -21.1280   21.6981 H   0  0  0  0  0  0
  -31.9603  -16.9056   21.8815 H   0  0  0  0  0  0
  -28.4523  -18.4407   19.8477 H   0  0  0  0  0  0
  -29.2531  -23.8297   19.1774 H   0  0  0  0  0  0
  -27.7325  -25.0023   21.5975 H   0  0  0  0  0  0
  -28.9127  -21.3104   19.2387 H   0  0  0  0  0  0
  -28.8083  -15.7850   20.5410 H   0  0  0  0  0  0
  1 25  1  0  0  0
  1 30  2  0  0  0
  1 81  1  0  0  0
  2  3  1  0  0  0
  2 25  1  0  0  0
  2 83  1  0  0  0
  2 84  1  0  0  0
  3  4  1  0  0  0
  3 85  1  0  0  0
  3 86  1  0  0  0
  4  5  1  0  0  0
  4 87  1  0  0  0
  4 88  1  0  0  0
  5  6  1  0  0  0
  5 26  1  0  0  0
  5 89  1  0  0  0
  6 25  1  0  0  0
  6 90  1  0  0  0
  6 91  1  0  0  0
  7  8  2  0  0  0
  7 26  1  0  0  0
  7 29  1  0  0  0
  8  9  1  0  0  0
  8 22  1  0  0  0
  9 10  1  0  0  0
  9 27  2  0  0  0
 10 11  2  0  0  0
 10 15  1  0  0  0
 11 12  1  0  0  0
 11 92  1  0  0  0
 12 13  2  0  0  0
 12 93  1  0  0  0
 13 14  1  0  0  0
 13 31  1  0  0  0
 14 15  2  0  0  0
 14 94  1  0  0  0
 15 95  1  0  0  0
 16 17  2  0  0  0
 16 21  1  0  0  0
 16 31  1  0  0  0
 17 18  1  0  0  0
 17 96  1  0  0  0
 18 19  2  0  0  0
 18 97  1  0  0  0
 19 20  1  0  0  0
 19 24  1  0  0  0
 20 21  2  0  0  0
 20 98  1  0  0  0
 21 23  1  0  0  0
 22 28  1  0  0  0
 22 32  2  0  0  0
 26 27  1  0  0  0
 28 99  1  0  0  0
 28100  1  0  0  0
 29101  1  0  0  0
 29102  1  0  0  0
 33 34  1  0  0  0
 33 66  1  0  0  0
 33 70  2  0  0  0
 34 36  1  0  0  0
 34 59  1  0  0  0
 34103  1  0  0  0
 35 44  2  0  0  0
 35 45  1  0  0  0
 35 68  1  0  0  0
 36 56  1  0  0  0
 36104  1  0  0  0
 37 39  1  0  0  0
 37 47  1  0  0  0
 37 66  1  0  0  0
 37105  1  0  0  0
 38 43  2  0  0  0
 38 46  1  0  0  0
 38 47  1  0  0  0
 39 64  1  0  0  0
 39 67  2  0  0  0
 40 52  1  0  0  0
 40 53  2  0  0  0
 40 58  1  0  0  0
 41106  1  0  0  0
 41107  1  0  0  0
 41108  1  0  0  0
 41 48  1  0  0  0
 42 43  1  0  0  0
 42 66  1  0  0  0
 42109  1  0  0  0
 42110  1  0  0  0
 43 44  1  0  0  0
 44111  1  0  0  0
 45 46  2  0  0  0
 45112  1  0  0  0
 46113  1  0  0  0
 47114  1  0  0  0
 47115  1  0  0  0
 48 56  1  0  0  0
 48 65  1  0  0  0
 48116  1  0  0  0
 49 50  1  0  0  0
 49 53  1  0  0  0
 49 64  1  0  0  0
 49117  1  0  0  0
 50 51  1  0  0  0
 50118  1  0  0  0
 50119  1  0  0  0
 51 52  1  0  0  0
 51120  1  0  0  0
 51121  1  0  0  0
 52122  1  0  0  0
 52123  1  0  0  0
 53 54  1  0  0  0
 54 55  2  0  0  0
 54124  1  0  0  0
 55 57  1  0  0  0
 55125  1  0  0  0
 56 69  2  0  0  0
 57 58  2  0  0  0
 57126  1  0  0  0
 58127  1  0  0  0
 59 60  1  0  0  0
 59 61  1  0  0  0
 59 62  1  0  0  0
 60128  1  0  0  0
 60129  1  0  0  0
 60130  1  0  0  0
 61131  1  0  0  0
 61132  1  0  0  0
 61133  1  0  0  0
 62134  1  0  0  0
 62135  1  0  0  0
 62136  1  0  0  0
 63 65  1  0  0  0
 63137  1  0  0  0
 63138  1  0  0  0
 63139  1  0  0  0
 64140  1  0  0  0
 65141  1  0  0  0
 68 78  1  0  0  0
 71 72  2  0  0  0
 71 73  1  0  0  0
 71142  1  0  0  0
 72 75  1  0  0  0
 72143  1  0  0  0
 73 76  2  0  0  0
 73144  1  0  0  0
 74 75  2  0  0  0
 74 76  1  0  0  0
 74145  1  0  0  0
 75 80  1  0  0  0
 76 81  1  0  0  0
 77 78  2  0  0  0
 77 79  1  0  0  0
 77146  1  0  0  0
 78147  1  0  0  0
 79 80  1  0  0  0
 79 82  2  0  0  0
 80148  1  0  0  0
 81149  1  0  0  0
M  ISO  4   1 100  68 101  78 101  81 100
M  END
> <chiral flag>
0

> <version>
0

> <s_m_source_file>
/data/baiqing/PycharmProjects/Reinvent-master-3.2/result/LINK_invent/BTK/process_docking_weight1_custom_product_contain_oxygen_bond_distance_aromatic_linkinvent_7_9_3/rearranged_h_0063.sdf

> <i_m_source_file_index>
42

> <r_mmod_Potential_Energy-OPLS-2005>
225.721710205078

> <r_mmod_Stretch_Energy-OPLS-2005>
150.955795288086

> <r_mmod_Bend_Energy-OPLS-2005>
168.483627319336

> <r_mmod_Torsional_Energy-OPLS-2005>
266.281341552734

> <r_mmod_Improper_Torsional_Energy-OPLS-2005>
8.213942527771

> <r_mmod_Van_der_Waal_Energy-OPLS-2005>
133.450607299805

> <r_mmod_Electrostatic_Energy-OPLS-2005>
-381.644805908203

> <r_mmod_Solvation_Energy-OPLS-2005>
-232.530303955078

> <b_mmod_Minimization_Converged-OPLS-2005>
0

> <r_mmod_RMS_Derivative-OPLS-2005>
2.62025117874146

$$$$
43
                    3D
 Structure written by MMmdl.
156165  0  0  1  0            999 V2000
  -30.6438  -14.7985   20.4347 C   0  0  0  0  0  0
  -30.4235  -12.4875   19.4865 C   0  0  0  0  0  0
  -29.5106  -12.5058   18.2424 C   0  0  0  0  0  0
  -28.0399  -12.3271   18.6605 C   0  0  0  0  0  0
  -27.6382  -13.2445   19.8478 C   0  0  2  0  0  0
  -28.6858  -13.2350   20.9833 C   0  0  0  0  0  0
  -25.2496  -13.8223   20.5730 C   0  0  0  0  0  0
  -24.1817  -13.0446   20.9231 C   0  0  0  0  0  0
  -24.6439  -11.6925   20.8784 C   0  0  0  0  0  0
  -23.9122  -10.4295   21.0430 C   0  0  0  0  0  0
  -24.3662   -9.4198   21.9206 C   0  0  0  0  0  0
  -23.6320   -8.2248   22.0775 C   0  0  0  0  0  0
  -22.4302   -8.0297   21.3565 C   0  0  0  0  0  0
  -21.9952   -9.0283   20.4664 C   0  0  0  0  0  0
  -22.7299  -10.2149   20.3067 C   0  0  0  0  0  0
  -21.6858   -6.0743   22.5291 C   0  0  0  0  0  0
  -21.4017   -6.5651   23.8220 C   0  0  0  0  0  0
  -21.3653   -5.6813   24.9190 C   0  0  0  0  0  0
  -21.6042   -4.3072   24.7249 C   0  0  0  0  0  0
  -21.8817   -3.8157   23.4370 C   0  0  0  0  0  0
  -21.9192   -4.6969   22.3421 C   0  0  0  0  0  0
  -22.7829  -13.5199   21.1875 C   0  0  0  0  0  0
  -22.1658   -4.2141   21.1013 F   0  0  0  0  0  0
  -21.5625   -3.4560   25.7774 F   0  0  0  0  0  0
  -29.9783  -13.5862   20.3848 N   0  0  0  0  0  0
  -26.2938  -12.9455   20.3309 N   0  0  0  0  0  0
  -25.9370  -11.6585   20.5796 N   0  0  0  0  0  0
  -22.0482  -12.8179   22.0417 N   0  0  0  0  0  0
  -25.4144  -15.1956   20.4135 N   0  0  0  0  0  0
  -31.8390  -14.7902   20.1360 O   0  0  0  0  0  0
  -21.6655   -6.8898   21.4263 O   0  0  0  0  0  0
  -22.3501  -14.5504   20.6721 O   0  0  0  0  0  0
  -24.6347  -31.8506   23.1922 C   0  0  0  0  0  0
  -25.9154  -32.4728   23.8298 C   0  0  1  0  0  0
  -27.2306  -27.2359   20.1287 C   0  0  0  0  0  0
  -25.5923  -33.8534   24.2223 N   0  0  0  0  0  0
  -23.4340  -30.4697   21.5362 C   0  0  2  0  0  0
  -24.8844  -28.9118   20.1007 C   0  0  0  0  0  0
  -22.7527  -29.4573   22.4889 C   0  0  0  0  0  0
  -18.0295  -28.1404   22.8490 C   0  0  0  0  0  0
  -24.1494  -36.7284   23.2639 C   0  0  0  0  0  0
  -25.9794  -30.7578   21.3728 C   0  0  0  0  0  0
  -26.0531  -29.3758   20.7171 C   0  0  0  0  0  0
  -27.2228  -28.5470   20.7243 C   0  0  0  0  0  0
  -26.0376  -26.8413   19.4848 C   0  0  0  0  0  0
  -24.8841  -27.6558   19.4723 C   0  0  0  0  0  0
  -23.6530  -29.7978   20.1527 C   0  0  0  0  0  0
  -25.4114  -36.3052   24.0321 C   0  0  1  0  0  0
  -20.5902  -28.3712   23.1270 C   0  0  2  0  0  0
  -20.6775  -26.9421   22.5422 C   0  0  0  0  0  0
  -19.5754  -26.6398   21.5223 C   0  0  0  0  0  0
  -18.1930  -26.7950   22.1624 C   0  0  0  0  0  0
  -19.1549  -28.8876   23.2881 C   0  0  0  0  0  0
  -18.9457  -30.1474   23.8906 C   0  0  0  0  0  0
  -17.6450  -30.6594   24.0575 C   0  0  0  0  0  0
  -25.9057  -34.9427   23.5080 C   0  0  0  0  0  0
  -16.5347  -29.9091   23.6336 C   0  0  0  0  0  0
  -16.7280  -28.6514   23.0356 C   0  0  0  0  0  0
  -26.4507  -31.6562   25.0702 C   0  0  0  0  0  0
  -25.3706  -31.3716   26.1401 C   0  0  0  0  0  0
  -27.0337  -30.2969   24.6200 C   0  0  0  0  0  0
  -27.6066  -32.4298   25.7473 C   0  0  0  0  0  0
  -27.5577  -37.1792   24.8459 C   0  0  0  0  0  0
  -21.4228  -29.3046   22.3647 N   0  0  0  0  0  0
  -26.4285  -37.3751   23.9403 N   0  0  0  0  0  0
  -24.7021  -31.0448   22.0906 N   0  0  0  0  0  0
  -23.4209  -28.8130   23.3011 O   0  0  0  0  0  0
  -28.3131  -26.3266   20.2671 O   0  0  0  0  0  0
  -26.5649  -34.8911   22.4664 O   0  0  0  0  0  0
  -23.5488  -32.1341   23.7201 O   0  0  0  0  0  0
  -32.2686  -18.9973   20.0528 C   0  0  0  0  0  0
  -31.7737  -17.7213   20.3566 C   0  0  0  0  0  0
  -27.7975  -22.6889   18.8115 C   0  0  0  0  0  0
  -29.5382  -18.6570   20.3910 C   0  0  0  0  0  0
  -31.4269  -20.1094   19.8700 C   0  0  0  0  0  0
  -28.5552  -23.5694   19.6458 C   0  0  0  0  0  0
  -30.0255  -20.0293   20.1364 C   0  0  0  0  0  0
  -30.3893  -17.4506   20.4549 C   0  0  0  0  0  0
  -28.1975  -21.3877   18.9821 C   0  0  0  0  0  0
  -29.2909  -22.6577   20.4398 C   0  0  0  0  0  0
  -32.1031  -21.3506   19.2992 C   0  0  0  0  0  0
  -28.5703  -25.1707   19.3442 C   0  0  0  0  0  0
  -29.2008  -21.2855   19.9357 N   0  0  0  0  0  0
  -29.9440  -16.0099   20.6040 N   0  0  0  0  0  0
  -27.7963  -20.2963   18.2756 O   0  0  0  0  0  0
  -30.2673  -23.0600   21.8300 S   0  5  0  0  0  0
  -31.4665  -12.5865   19.1811 H   0  0  0  0  0  0
  -30.3607  -11.5274   20.0015 H   0  0  0  0  0  0
  -29.7993  -11.7152   17.5490 H   0  0  0  0  0  0
  -29.6330  -13.4468   17.7037 H   0  0  0  0  0  0
  -27.9099  -11.2815   18.9440 H   0  0  0  0  0  0
  -27.3792  -12.4965   17.8095 H   0  0  0  0  0  0
  -27.6157  -14.2561   19.4425 H   0  0  0  0  0  0
  -28.7363  -12.2559   21.4616 H   0  0  0  0  0  0
  -28.4189  -13.9484   21.7654 H   0  0  0  0  0  0
  -25.2811   -9.5654   22.4776 H   0  0  0  0  0  0
  -24.0009   -7.4646   22.7502 H   0  0  0  0  0  0
  -21.0874   -8.8828   19.8974 H   0  0  0  0  0  0
  -22.3788  -10.9696   19.6179 H   0  0  0  0  0  0
  -21.2009   -7.6158   23.9721 H   0  0  0  0  0  0
  -21.1471   -6.0555   25.9090 H   0  0  0  0  0  0
  -22.0594   -2.7615   23.2909 H   0  0  0  0  0  0
  -22.4113  -11.9830   22.4781 H   0  0  0  0  0  0
  -21.1090  -13.1176   22.2613 H   0  0  0  0  0  0
  -24.6454  -15.8477   20.5243 H   0  0  0  0  0  0
  -26.2565  -15.6367   20.0677 H   0  0  0  0  0  0
  -26.7222  -32.5371   23.1043 H   0  0  0  0  0  0
  -25.0026  -33.9667   25.0340 H   0  0  0  0  0  0
  -22.7320  -31.2920   21.3844 H   0  0  0  0  0  0
  -23.3745  -35.9627   23.3290 H   0  0  0  0  0  0
  -24.3587  -36.8926   22.2054 H   0  0  0  0  0  0
  -23.7261  -37.6485   23.6685 H   0  0  0  0  0  0
  -26.1124  -31.5127   20.5963 H   0  0  0  0  0  0
  -26.8609  -30.8180   21.9995 H   0  0  0  0  0  0
  -28.1145  -28.8925   21.2292 H   0  0  0  0  0  0
  -25.9588  -25.8610   19.0384 H   0  0  0  0  0  0
  -23.9871  -27.2938   18.9897 H   0  0  0  0  0  0
  -23.7693  -30.5714   19.3924 H   0  0  0  0  0  0
  -22.7739  -29.2245   19.8531 H   0  0  0  0  0  0
  -25.1300  -36.1887   25.0809 H   0  0  0  0  0  0
  -21.0006  -28.3293   24.1388 H   0  0  0  0  0  0
  -20.5669  -26.2318   23.3631 H   0  0  0  0  0  0
  -21.6641  -26.7433   22.1215 H   0  0  0  0  0  0
  -19.6914  -25.6310   21.1252 H   0  0  0  0  0  0
  -19.6699  -27.3217   20.6758 H   0  0  0  0  0  0
  -17.4204  -26.6729   21.4014 H   0  0  0  0  0  0
  -18.0306  -26.0089   22.9007 H   0  0  0  0  0  0
  -19.7918  -30.7307   24.2288 H   0  0  0  0  0  0
  -17.4984  -31.6268   24.5183 H   0  0  0  0  0  0
  -15.5348  -30.2988   23.7651 H   0  0  0  0  0  0
  -15.8679  -28.0836   22.7063 H   0  0  0  0  0  0
  -24.5921  -30.7030   25.7707 H   0  0  0  0  0  0
  -24.8849  -32.2878   26.4764 H   0  0  0  0  0  0
  -25.7996  -30.8928   27.0214 H   0  0  0  0  0  0
  -26.2908  -29.6715   24.1234 H   0  0  0  0  0  0
  -27.4007  -29.7235   25.4723 H   0  0  0  0  0  0
  -27.8798  -30.4216   23.9439 H   0  0  0  0  0  0
  -27.2703  -33.3633   26.1995 H   0  0  0  0  0  0
  -28.3902  -32.6793   25.0307 H   0  0  0  0  0  0
  -28.0707  -31.8446   26.5422 H   0  0  0  0  0  0
  -28.2575  -38.0104   24.7492 H   0  0  0  0  0  0
  -28.1096  -36.2630   24.6296 H   0  0  0  0  0  0
  -27.2308  -37.1454   25.8867 H   0  0  0  0  0  0
  -20.9431  -29.8739   21.6817 H   0  0  0  0  0  0
  -26.0161  -38.2825   24.1398 H   0  0  0  0  0  0
  -33.3350  -19.1065   19.9055 H   0  0  0  0  0  0
  -32.5214  -16.9533   20.4630 H   0  0  0  0  0  0
  -27.0892  -23.0068   18.0582 H   0  0  0  0  0  0
  -28.4704  -18.5310   20.4959 H   0  0  0  0  0  0
  -32.8845  -21.0677   18.5925 H   0  0  0  0  0  0
  -32.5746  -21.9353   20.0874 H   0  0  0  0  0  0
  -31.4100  -21.9897   18.7537 H   0  0  0  0  0  0
  -28.0127  -25.3307   18.4220 H   0  0  0  0  0  0
  -29.5999  -25.3467   19.0323 H   0  0  0  0  0  0
  -28.9574  -15.8853   20.7727 H   0  0  0  0  0  0
  -27.2583  -20.6071   17.5547 H   0  0  0  0  0  0
  1 25  1  0  0  0
  1 30  2  0  0  0
  1 84  1  0  0  0
  2  3  1  0  0  0
  2 25  1  0  0  0
  2 87  1  0  0  0
  2 88  1  0  0  0
  3  4  1  0  0  0
  3 89  1  0  0  0
  3 90  1  0  0  0
  4  5  1  0  0  0
  4 91  1  0  0  0
  4 92  1  0  0  0
  5  6  1  0  0  0
  5 26  1  0  0  0
  5 93  1  0  0  0
  6 25  1  0  0  0
  6 94  1  0  0  0
  6 95  1  0  0  0
  7  8  2  0  0  0
  7 26  1  0  0  0
  7 29  1  0  0  0
  8  9  1  0  0  0
  8 22  1  0  0  0
  9 10  1  0  0  0
  9 27  2  0  0  0
 10 11  2  0  0  0
 10 15  1  0  0  0
 11 12  1  0  0  0
 11 96  1  0  0  0
 12 13  2  0  0  0
 12 97  1  0  0  0
 13 14  1  0  0  0
 13 31  1  0  0  0
 14 15  2  0  0  0
 14 98  1  0  0  0
 15 99  1  0  0  0
 16 17  2  0  0  0
 16 21  1  0  0  0
 16 31  1  0  0  0
 17 18  1  0  0  0
 17100  1  0  0  0
 18 19  2  0  0  0
 18101  1  0  0  0
 19 20  1  0  0  0
 19 24  1  0  0  0
 20 21  2  0  0  0
 20102  1  0  0  0
 21 23  1  0  0  0
 22 28  1  0  0  0
 22 32  2  0  0  0
 26 27  1  0  0  0
 28103  1  0  0  0
 28104  1  0  0  0
 29105  1  0  0  0
 29106  1  0  0  0
 33 34  1  0  0  0
 33 66  1  0  0  0
 33 70  2  0  0  0
 34 36  1  0  0  0
 34 59  1  0  0  0
 34107  1  0  0  0
 35 44  2  0  0  0
 35 45  1  0  0  0
 35 68  1  0  0  0
 36 56  1  0  0  0
 36108  1  0  0  0
 37 39  1  0  0  0
 37 47  1  0  0  0
 37 66  1  0  0  0
 37109  1  0  0  0
 38 43  2  0  0  0
 38 46  1  0  0  0
 38 47  1  0  0  0
 39 64  1  0  0  0
 39 67  2  0  0  0
 40 52  1  0  0  0
 40 53  2  0  0  0
 40 58  1  0  0  0
 41110  1  0  0  0
 41111  1  0  0  0
 41112  1  0  0  0
 41 48  1  0  0  0
 42 43  1  0  0  0
 42 66  1  0  0  0
 42113  1  0  0  0
 42114  1  0  0  0
 43 44  1  0  0  0
 44115  1  0  0  0
 45 46  2  0  0  0
 45116  1  0  0  0
 46117  1  0  0  0
 47118  1  0  0  0
 47119  1  0  0  0
 48 56  1  0  0  0
 48 65  1  0  0  0
 48120  1  0  0  0
 49 50  1  0  0  0
 49 53  1  0  0  0
 49 64  1  0  0  0
 49121  1  0  0  0
 50 51  1  0  0  0
 50122  1  0  0  0
 50123  1  0  0  0
 51 52  1  0  0  0
 51124  1  0  0  0
 51125  1  0  0  0
 52126  1  0  0  0
 52127  1  0  0  0
 53 54  1  0  0  0
 54 55  2  0  0  0
 54128  1  0  0  0
 55 57  1  0  0  0
 55129  1  0  0  0
 56 69  2  0  0  0
 57 58  2  0  0  0
 57130  1  0  0  0
 58131  1  0  0  0
 59 60  1  0  0  0
 59 61  1  0  0  0
 59 62  1  0  0  0
 60132  1  0  0  0
 60133  1  0  0  0
 60134  1  0  0  0
 61135  1  0  0  0
 61136  1  0  0  0
 61137  1  0  0  0
 62138  1  0  0  0
 62139  1  0  0  0
 62140  1  0  0  0
 63 65  1  0  0  0
 63141  1  0  0  0
 63142  1  0  0  0
 63143  1  0  0  0
 64144  1  0  0  0
 65145  1  0  0  0
 68 82  1  0  0  0
 71 72  2  0  0  0
 71 75  1  0  0  0
 71146  1  0  0  0
 72 78  1  0  0  0
 72147  1  0  0  0
 73 76  1  0  0  0
 73 79  2  0  0  0
 73148  1  0  0  0
 74 77  1  0  0  0
 74 78  2  0  0  0
 74149  1  0  0  0
 75 77  2  0  0  0
 75 81  1  0  0  0
 76 80  2  0  0  0
 76 82  1  0  0  0
 77 83  1  0  0  0
 78 84  1  0  0  0
 79 83  1  0  0  0
 79 85  1  0  0  0
 80 83  1  0  0  0
 80 86  1  0  0  0
 81150  1  0  0  0
 81151  1  0  0  0
 81152  1  0  0  0
 82153  1  0  0  0
 82154  1  0  0  0
 84155  1  0  0  0
 85156  1  0  0  0
M  CHG  1  86  -1
M  ISO  4   1 100  68 101  82 101  84 100
M  END
> <chiral flag>
0

> <version>
0

> <s_m_source_file>
/data/baiqing/PycharmProjects/Reinvent-master-3.2/result/LINK_invent/BTK/process_docking_weight1_custom_product_contain_oxygen_bond_distance_aromatic_linkinvent_7_9_3/rearranged_h_0063.sdf

> <i_m_source_file_index>
43

> <r_mmod_Potential_Energy-OPLS-2005>
73.7497482299805

> <r_mmod_Stretch_Energy-OPLS-2005>
172.769821166992

> <r_mmod_Bend_Energy-OPLS-2005>
226.93147277832

> <r_mmod_Torsional_Energy-OPLS-2005>
266.813629150391

> <r_mmod_Improper_Torsional_Energy-OPLS-2005>
9.12356948852539

> <r_mmod_Van_der_Waal_Energy-OPLS-2005>
145.369171142578

> <r_mmod_Electrostatic_Energy-OPLS-2005>
-373.211822509766

> <r_mmod_Solvation_Energy-OPLS-2005>
-484.260498046875

> <b_mmod_Minimization_Converged-OPLS-2005>
0

> <r_mmod_RMS_Derivative-OPLS-2005>
2.03413510322571

$$$$
44
                    3D
 Structure written by MMmdl.
157165  0  0  1  0            999 V2000
  -30.6403  -14.7248   20.4429 C   0  0  0  0  0  0
  -30.4174  -12.4415   19.4770 C   0  0  0  0  0  0
  -29.5045  -12.5001   18.2343 C   0  0  0  0  0  0
  -28.0303  -12.3278   18.6480 C   0  0  0  0  0  0
  -27.6365  -13.2343   19.8453 C   0  0  2  0  0  0
  -28.6791  -13.1867   20.9834 C   0  0  0  0  0  0
  -25.2486  -13.8204   20.5683 C   0  0  0  0  0  0
  -24.1787  -13.0440   20.9201 C   0  0  0  0  0  0
  -24.6388  -11.6923   20.8751 C   0  0  0  0  0  0
  -23.9077  -10.4292   21.0409 C   0  0  0  0  0  0
  -24.3618   -9.4210   21.9194 C   0  0  0  0  0  0
  -23.6292   -8.2250   22.0759 C   0  0  0  0  0  0
  -22.4281   -8.0281   21.3542 C   0  0  0  0  0  0
  -21.9914   -9.0255   20.4648 C   0  0  0  0  0  0
  -22.7239  -10.2143   20.3063 C   0  0  0  0  0  0
  -21.6862   -6.0739   22.5272 C   0  0  0  0  0  0
  -21.4016   -6.5641   23.8204 C   0  0  0  0  0  0
  -21.3656   -5.6797   24.9166 C   0  0  0  0  0  0
  -21.6037   -4.3058   24.7221 C   0  0  0  0  0  0
  -21.8822   -3.8147   23.4341 C   0  0  0  0  0  0
  -21.9192   -4.6965   22.3394 C   0  0  0  0  0  0
  -22.7814  -13.5223   21.1857 C   0  0  0  0  0  0
  -22.1663   -4.2145   21.0974 F   0  0  0  0  0  0
  -21.5626   -3.4547   25.7732 F   0  0  0  0  0  0
  -29.9817  -13.5179   20.3971 N   0  0  0  0  0  0
  -26.2909  -12.9416   20.3263 N   0  0  0  0  0  0
  -25.9321  -11.6558   20.5749 N   0  0  0  0  0  0
  -22.0470  -12.8208   22.0414 N   0  0  0  0  0  0
  -25.4182  -15.1922   20.4076 N   0  0  0  0  0  0
  -31.8466  -14.7410   20.1903 O   0  0  0  0  0  0
  -21.6639   -6.8880   21.4231 O   0  0  0  0  0  0
  -22.3501  -14.5528   20.6693 O   0  0  0  0  0  0
  -24.6304  -31.8535   23.2025 C   0  0  0  0  0  0
  -25.9133  -32.4748   23.8340 C   0  0  1  0  0  0
  -27.2062  -27.2684   20.1195 C   0  0  0  0  0  0
  -25.5926  -33.8548   24.2244 N   0  0  0  0  0  0
  -23.4250  -30.4812   21.5447 C   0  0  2  0  0  0
  -24.8687  -28.9374   20.1019 C   0  0  0  0  0  0
  -22.7494  -29.4590   22.4909 C   0  0  0  0  0  0
  -18.0291  -28.1380   22.8453 C   0  0  0  0  0  0
  -24.1486  -36.7308   23.2633 C   0  0  0  0  0  0
  -25.9704  -30.7715   21.3797 C   0  0  0  0  0  0
  -26.0384  -29.3956   20.7187 C   0  0  0  0  0  0
  -27.2085  -28.5711   20.7223 C   0  0  0  0  0  0
  -26.0183  -26.8934   19.4465 C   0  0  0  0  0  0
  -24.8629  -27.6953   19.4534 C   0  0  0  0  0  0
  -23.6389  -29.8215   20.1575 C   0  0  0  0  0  0
  -25.4105  -36.3064   24.0316 C   0  0  1  0  0  0
  -20.5884  -28.3702   23.1257 C   0  0  2  0  0  0
  -20.6773  -26.9415   22.5397 C   0  0  0  0  0  0
  -19.5756  -26.6376   21.5195 C   0  0  0  0  0  0
  -18.1928  -26.7928   22.1590 C   0  0  0  0  0  0
  -19.1537  -28.8854   23.2842 C   0  0  0  0  0  0
  -18.9465  -30.1447   23.8877 C   0  0  0  0  0  0
  -17.6473  -30.6582   24.0555 C   0  0  0  0  0  0
  -25.9045  -34.9432   23.5082 C   0  0  0  0  0  0
  -16.5356  -29.9077   23.6327 C   0  0  0  0  0  0
  -16.7274  -28.6496   23.0342 C   0  0  0  0  0  0
  -26.4510  -31.6591   25.0740 C   0  0  0  0  0  0
  -25.3721  -31.3770   26.1464 C   0  0  0  0  0  0
  -27.0356  -30.2985   24.6251 C   0  0  0  0  0  0
  -27.6055  -32.4353   25.7501 C   0  0  0  0  0  0
  -27.5587  -37.1784   24.8450 C   0  0  0  0  0  0
  -21.4195  -29.3057   22.3657 N   0  0  0  0  0  0
  -26.4289  -37.3757   23.9404 N   0  0  0  0  0  0
  -24.6947  -31.0525   22.0988 N   0  0  0  0  0  0
  -23.4201  -28.8101   23.2985 O   0  0  0  0  0  0
  -28.2909  -26.3647   20.2097 O   0  0  0  0  0  0
  -26.5637  -34.8915   22.4668 O   0  0  0  0  0  0
  -23.5453  -32.1338   23.7338 O   0  0  0  0  0  0
  -31.8769  -18.8268   19.0984 C   0  0  0  0  0  0
  -31.4296  -17.5385   19.4208 C   0  0  0  0  0  0
  -29.5476  -18.5213   20.5844 C   0  0  0  0  0  0
  -31.2027  -19.9884   19.5221 C   0  0  0  0  0  0
  -30.2842  -17.3113   20.2186 C   0  0  0  0  0  0
  -29.9606  -19.8838   20.2311 C   0  0  0  0  0  0
  -31.9176  -21.2485   19.2426 C   0  0  0  0  0  0
  -28.9750  -22.2751   19.9385 C   0  0  0  0  0  0
  -28.9147  -23.7282   20.6041 C   0  0  0  0  0  0
  -28.0728  -24.9086   19.9000 C   0  0  0  0  0  0
  -32.2172  -22.0916   20.2291 N   0  0  0  0  0  0
  -29.2438  -21.1206   20.6635 N   0  0  0  0  0  0
  -29.9115  -15.9064   20.5735 N   0  0  0  0  0  0
  -32.3050  -21.5574   18.0050 N   0  3  0  0  0  0
  -28.8007  -22.2009   18.7209 O   0  0  0  0  0  0
  -31.4626  -12.5394   19.1787 H   0  0  0  0  0  0
  -30.3400  -11.4706   19.9676 H   0  0  0  0  0  0
  -29.7865  -11.7247   17.5205 H   0  0  0  0  0  0
  -29.6338  -13.4544   17.7199 H   0  0  0  0  0  0
  -27.8886  -11.2797   18.9152 H   0  0  0  0  0  0
  -27.3732  -12.5154   17.7982 H   0  0  0  0  0  0
  -27.6266  -14.2522   19.4563 H   0  0  0  0  0  0
  -28.7088  -12.1999   21.4470 H   0  0  0  0  0  0
  -28.4174  -13.8902   21.7749 H   0  0  0  0  0  0
  -25.2774   -9.5686   22.4755 H   0  0  0  0  0  0
  -23.9995   -7.4650   22.7496 H   0  0  0  0  0  0
  -21.0840   -8.8777   19.8961 H   0  0  0  0  0  0
  -22.3697  -10.9677   19.6161 H   0  0  0  0  0  0
  -21.2016   -7.6155   23.9695 H   0  0  0  0  0  0
  -21.1473   -6.0536   25.9063 H   0  0  0  0  0  0
  -22.0604   -2.7610   23.2842 H   0  0  0  0  0  0
  -22.4104  -11.9868   22.4791 H   0  0  0  0  0  0
  -21.1089  -13.1216   22.2626 H   0  0  0  0  0  0
  -24.6447  -15.8416   20.5009 H   0  0  0  0  0  0
  -26.2567  -15.6272   20.0445 H   0  0  0  0  0  0
  -26.7195  -32.5385   23.1073 H   0  0  0  0  0  0
  -25.0056  -33.9665   25.0377 H   0  0  0  0  0  0
  -22.7212  -31.3039   21.4043 H   0  0  0  0  0  0
  -23.3742  -35.9656   23.3261 H   0  0  0  0  0  0
  -24.3571  -36.8975   22.2054 H   0  0  0  0  0  0
  -23.7250  -37.6495   23.6701 H   0  0  0  0  0  0
  -26.1034  -31.5360   20.6134 H   0  0  0  0  0  0
  -26.8513  -30.8174   22.0086 H   0  0  0  0  0  0
  -28.0994  -28.9082   21.2318 H   0  0  0  0  0  0
  -25.9408  -25.9588   18.9117 H   0  0  0  0  0  0
  -23.9704  -27.3488   18.9495 H   0  0  0  0  0  0
  -23.7544  -30.6002   19.4027 H   0  0  0  0  0  0
  -22.7564  -29.2534   19.8574 H   0  0  0  0  0  0
  -25.1275  -36.1904   25.0810 H   0  0  0  0  0  0
  -20.9942  -28.3294   24.1383 H   0  0  0  0  0  0
  -20.5656  -26.2315   23.3611 H   0  0  0  0  0  0
  -21.6647  -26.7441   22.1195 H   0  0  0  0  0  0
  -19.6943  -25.6280   21.1233 H   0  0  0  0  0  0
  -19.6715  -27.3186   20.6723 H   0  0  0  0  0  0
  -17.4196  -26.6656   21.3988 H   0  0  0  0  0  0
  -18.0322  -26.0085   22.9003 H   0  0  0  0  0  0
  -19.7954  -30.7225   24.2259 H   0  0  0  0  0  0
  -17.5045  -31.6269   24.5162 H   0  0  0  0  0  0
  -15.5353  -30.2980   23.7680 H   0  0  0  0  0  0
  -15.8662  -28.0810   22.7083 H   0  0  0  0  0  0
  -24.5912  -30.7098   25.7798 H   0  0  0  0  0  0
  -24.8918  -32.2968   26.4818 H   0  0  0  0  0  0
  -25.8027  -30.8997   27.0270 H   0  0  0  0  0  0
  -26.2948  -29.6717   24.1290 H   0  0  0  0  0  0
  -27.4002  -29.7273   25.4795 H   0  0  0  0  0  0
  -27.8841  -30.4214   23.9520 H   0  0  0  0  0  0
  -27.2663  -33.3689   26.1994 H   0  0  0  0  0  0
  -28.3910  -32.6849   25.0357 H   0  0  0  0  0  0
  -28.0688  -31.8546   26.5479 H   0  0  0  0  0  0
  -28.2553  -38.0129   24.7515 H   0  0  0  0  0  0
  -28.1123  -36.2646   24.6237 H   0  0  0  0  0  0
  -27.2311  -37.1388   25.8855 H   0  0  0  0  0  0
  -20.9384  -29.8801   21.6879 H   0  0  0  0  0  0
  -26.0167  -38.2818   24.1443 H   0  0  0  0  0  0
  -32.8025  -18.9150   18.5462 H   0  0  0  0  0  0
  -32.0308  -16.7312   19.0365 H   0  0  0  0  0  0
  -28.6431  -18.4024   21.1619 H   0  0  0  0  0  0
  -29.9526  -24.0592   20.6529 H   0  0  0  0  0  0
  -28.5950  -23.6249   21.6402 H   0  0  0  0  0  0
  -27.0428  -24.6454   20.1365 H   0  0  0  0  0  0
  -28.1677  -24.8103   18.8185 H   0  0  0  0  0  0
  -31.9932  -21.8286   21.1780 H   0  0  0  0  0  0
  -32.7339  -22.9441   20.0890 H   0  0  0  0  0  0
  -29.0732  -21.1919   21.6583 H   0  0  0  0  0  0
  -28.9584  -15.7759   20.8739 H   0  0  0  0  0  0
  -32.0510  -20.9449   17.2434 H   0  0  0  0  0  0
  -32.7667  -22.4249   17.7817 H   0  0  0  0  0  0
  1 25  1  0  0  0
  1 30  2  0  0  0
  1 83  1  0  0  0
  2  3  1  0  0  0
  2 25  1  0  0  0
  2 86  1  0  0  0
  2 87  1  0  0  0
  3  4  1  0  0  0
  3 88  1  0  0  0
  3 89  1  0  0  0
  4  5  1  0  0  0
  4 90  1  0  0  0
  4 91  1  0  0  0
  5  6  1  0  0  0
  5 26  1  0  0  0
  5 92  1  0  0  0
  6 25  1  0  0  0
  6 93  1  0  0  0
  6 94  1  0  0  0
  7  8  2  0  0  0
  7 26  1  0  0  0
  7 29  1  0  0  0
  8  9  1  0  0  0
  8 22  1  0  0  0
  9 10  1  0  0  0
  9 27  2  0  0  0
 10 11  2  0  0  0
 10 15  1  0  0  0
 11 12  1  0  0  0
 11 95  1  0  0  0
 12 13  2  0  0  0
 12 96  1  0  0  0
 13 14  1  0  0  0
 13 31  1  0  0  0
 14 15  2  0  0  0
 14 97  1  0  0  0
 15 98  1  0  0  0
 16 17  2  0  0  0
 16 21  1  0  0  0
 16 31  1  0  0  0
 17 18  1  0  0  0
 17 99  1  0  0  0
 18 19  2  0  0  0
 18100  1  0  0  0
 19 20  1  0  0  0
 19 24  1  0  0  0
 20 21  2  0  0  0
 20101  1  0  0  0
 21 23  1  0  0  0
 22 28  1  0  0  0
 22 32  2  0  0  0
 26 27  1  0  0  0
 28102  1  0  0  0
 28103  1  0  0  0
 29104  1  0  0  0
 29105  1  0  0  0
 33 34  1  0  0  0
 33 66  1  0  0  0
 33 70  2  0  0  0
 34 36  1  0  0  0
 34 59  1  0  0  0
 34106  1  0  0  0
 35 44  2  0  0  0
 35 45  1  0  0  0
 35 68  1  0  0  0
 36 56  1  0  0  0
 36107  1  0  0  0
 37 39  1  0  0  0
 37 47  1  0  0  0
 37 66  1  0  0  0
 37108  1  0  0  0
 38 43  2  0  0  0
 38 46  1  0  0  0
 38 47  1  0  0  0
 39 64  1  0  0  0
 39 67  2  0  0  0
 40 52  1  0  0  0
 40 53  2  0  0  0
 40 58  1  0  0  0
 41109  1  0  0  0
 41110  1  0  0  0
 41111  1  0  0  0
 41 48  1  0  0  0
 42 43  1  0  0  0
 42 66  1  0  0  0
 42112  1  0  0  0
 42113  1  0  0  0
 43 44  1  0  0  0
 44114  1  0  0  0
 45 46  2  0  0  0
 45115  1  0  0  0
 46116  1  0  0  0
 47117  1  0  0  0
 47118  1  0  0  0
 48 56  1  0  0  0
 48 65  1  0  0  0
 48119  1  0  0  0
 49 50  1  0  0  0
 49 53  1  0  0  0
 49 64  1  0  0  0
 49120  1  0  0  0
 50 51  1  0  0  0
 50121  1  0  0  0
 50122  1  0  0  0
 51 52  1  0  0  0
 51123  1  0  0  0
 51124  1  0  0  0
 52125  1  0  0  0
 52126  1  0  0  0
 53 54  1  0  0  0
 54 55  2  0  0  0
 54127  1  0  0  0
 55 57  1  0  0  0
 55128  1  0  0  0
 56 69  2  0  0  0
 57 58  2  0  0  0
 57129  1  0  0  0
 58130  1  0  0  0
 59 60  1  0  0  0
 59 61  1  0  0  0
 59 62  1  0  0  0
 60131  1  0  0  0
 60132  1  0  0  0
 60133  1  0  0  0
 61134  1  0  0  0
 61135  1  0  0  0
 61136  1  0  0  0
 62137  1  0  0  0
 62138  1  0  0  0
 62139  1  0  0  0
 63 65  1  0  0  0
 63140  1  0  0  0
 63141  1  0  0  0
 63142  1  0  0  0
 64143  1  0  0  0
 65144  1  0  0  0
 68 80  1  0  0  0
 71 72  2  0  0  0
 71 74  1  0  0  0
 71145  1  0  0  0
 72 75  1  0  0  0
 72146  1  0  0  0
 73 75  2  0  0  0
 73 76  1  0  0  0
 73147  1  0  0  0
 74 76  2  0  0  0
 74 77  1  0  0  0
 75 83  1  0  0  0
 76 82  1  0  0  0
 77 81  1  0  0  0
 77 84  2  0  0  0
 78 79  1  0  0  0
 78 82  1  0  0  0
 78 85  2  0  0  0
 79 80  1  0  0  0
 79148  1  0  0  0
 79149  1  0  0  0
 80150  1  0  0  0
 80151  1  0  0  0
 81152  1  0  0  0
 81153  1  0  0  0
 82154  1  0  0  0
 83155  1  0  0  0
 84156  1  0  0  0
 84157  1  0  0  0
M  CHG  1  84   1
M  ISO  4   1 100  68 101  80 101  83 100
M  END
> <chiral flag>
0

> <version>
0

> <s_m_source_file>
/data/baiqing/PycharmProjects/Reinvent-master-3.2/result/LINK_invent/BTK/process_docking_weight1_custom_product_contain_oxygen_bond_distance_aromatic_linkinvent_7_9_3/rearranged_h_0063.sdf

> <i_m_source_file_index>
44

> <r_mmod_Potential_Energy-OPLS-2005>
-16.7921619415283

> <r_mmod_Stretch_Energy-OPLS-2005>
128.01969909668

> <r_mmod_Bend_Energy-OPLS-2005>
161.76789855957

> <r_mmod_Torsional_Energy-OPLS-2005>
265.561981201172

> <r_mmod_Improper_Torsional_Energy-OPLS-2005>
5.66583108901978

> <r_mmod_Van_der_Waal_Energy-OPLS-2005>
162.432281494141

> <r_mmod_Electrostatic_Energy-OPLS-2005>
-362.193634033203

> <r_mmod_Solvation_Energy-OPLS-2005>
-462.610565185547

> <b_mmod_Minimization_Converged-OPLS-2005>
0

> <r_mmod_RMS_Derivative-OPLS-2005>
2.51225328445435

$$$$
45
                    3D
 Structure written by MMmdl.
155164  0  0  1  0            999 V2000
  -30.6114  -14.7679   20.4227 C   0  0  0  0  0  0
  -30.4360  -12.4595   19.4972 C   0  0  0  0  0  0
  -29.5177  -12.4794   18.2544 C   0  0  0  0  0  0
  -28.0462  -12.3026   18.6730 C   0  0  0  0  0  0
  -27.6416  -13.2288   19.8502 C   0  0  2  0  0  0
  -28.6810  -13.2000   20.9917 C   0  0  0  0  0  0
  -25.2528  -13.8210   20.5718 C   0  0  0  0  0  0
  -24.1818  -13.0455   20.9246 C   0  0  0  0  0  0
  -24.6409  -11.6928   20.8788 C   0  0  0  0  0  0
  -23.9081  -10.4307   21.0433 C   0  0  0  0  0  0
  -24.3615   -9.4197   21.9198 C   0  0  0  0  0  0
  -23.6284   -8.2232   22.0758 C   0  0  0  0  0  0
  -22.4254   -8.0296   21.3558 C   0  0  0  0  0  0
  -21.9896   -9.0291   20.4666 C   0  0  0  0  0  0
  -22.7246  -10.2163   20.3081 C   0  0  0  0  0  0
  -21.6859   -6.0730   22.5293 C   0  0  0  0  0  0
  -21.4016   -6.5644   23.8224 C   0  0  0  0  0  0
  -21.3650   -5.6797   24.9192 C   0  0  0  0  0  0
  -21.6036   -4.3061   24.7236 C   0  0  0  0  0  0
  -21.8813   -3.8147   23.4359 C   0  0  0  0  0  0
  -21.9190   -4.6960   22.3411 C   0  0  0  0  0  0
  -22.7837  -13.5247   21.1889 C   0  0  0  0  0  0
  -22.1657   -4.2162   21.0995 F   0  0  0  0  0  0
  -21.5615   -3.4542   25.7737 F   0  0  0  0  0  0
  -29.9856  -13.5378   20.4092 N   0  0  0  0  0  0
  -26.2935  -12.9407   20.3286 N   0  0  0  0  0  0
  -25.9330  -11.6555   20.5796 N   0  0  0  0  0  0
  -22.0473  -12.8277   22.0473 N   0  0  0  0  0  0
  -25.4248  -15.1934   20.4126 N   0  0  0  0  0  0
  -31.8041  -14.8334   20.1090 O   0  0  0  0  0  0
  -21.6635   -6.8880   21.4253 O   0  0  0  0  0  0
  -22.3537  -14.5534   20.6695 O   0  0  0  0  0  0
  -24.6350  -31.8520   23.1984 C   0  0  0  0  0  0
  -25.9170  -32.4731   23.8331 C   0  0  1  0  0  0
  -27.1986  -27.2186   20.1268 C   0  0  0  0  0  0
  -25.5961  -33.8536   24.2252 N   0  0  0  0  0  0
  -23.4317  -30.4807   21.5399 C   0  0  2  0  0  0
  -24.8776  -28.9322   20.1056 C   0  0  0  0  0  0
  -22.7522  -29.4596   22.4857 C   0  0  0  0  0  0
  -18.0302  -28.1381   22.8460 C   0  0  0  0  0  0
  -24.1499  -36.7280   23.2636 C   0  0  0  0  0  0
  -25.9843  -30.7520   21.3871 C   0  0  0  0  0  0
  -26.0536  -29.3729   20.7265 C   0  0  0  0  0  0
  -27.2171  -28.5274   20.7318 C   0  0  0  0  0  0
  -26.0026  -26.8810   19.4476 C   0  0  0  0  0  0
  -24.8599  -27.6959   19.4533 C   0  0  0  0  0  0
  -23.6513  -29.8226   20.1547 C   0  0  0  0  0  0
  -25.4116  -36.3046   24.0323 C   0  0  1  0  0  0
  -20.5906  -28.3692   23.1236 C   0  0  2  0  0  0
  -20.6783  -26.9401   22.5391 C   0  0  0  0  0  0
  -19.5769  -26.6370   21.5187 C   0  0  0  0  0  0
  -18.1951  -26.7922   22.1602 C   0  0  0  0  0  0
  -19.1555  -28.8852   23.2848 C   0  0  0  0  0  0
  -18.9476  -30.1445   23.8884 C   0  0  0  0  0  0
  -17.6474  -30.6572   24.0554 C   0  0  0  0  0  0
  -25.9054  -34.9419   23.5081 C   0  0  0  0  0  0
  -16.5365  -29.9068   23.6324 C   0  0  0  0  0  0
  -16.7287  -28.6486   23.0346 C   0  0  0  0  0  0
  -26.4525  -31.6566   25.0734 C   0  0  0  0  0  0
  -25.3749  -31.3740   26.1462 C   0  0  0  0  0  0
  -27.0352  -30.2967   24.6256 C   0  0  0  0  0  0
  -27.6082  -32.4302   25.7504 C   0  0  0  0  0  0
  -27.5583  -37.1787   24.8451 C   0  0  0  0  0  0
  -21.4224  -29.3047   22.3631 N   0  0  0  0  0  0
  -26.4283  -37.3753   23.9409 N   0  0  0  0  0  0
  -24.7028  -31.0464   22.0973 N   0  0  0  0  0  0
  -23.4211  -28.8126   23.2954 O   0  0  0  0  0  0
  -28.2424  -26.2481   20.2131 O   0  0  0  0  0  0
  -26.5618  -34.8892   22.4647 O   0  0  0  0  0  0
  -23.5491  -32.1367   23.7251 O   0  0  0  0  0  0
  -30.6845  -18.4870   17.9398 C   0  0  0  0  0  0
  -30.5629  -17.2963   18.6720 C   0  0  0  0  0  0
  -29.5528  -18.5688   20.4783 C   0  0  0  0  0  0
  -30.2748  -19.7365   18.4523 C   0  0  0  0  0  0
  -29.6800  -19.8390   19.7480 C   0  0  0  0  0  0
  -30.0048  -17.2697   19.9676 C   0  0  0  0  0  0
  -29.5977  -23.2632   21.2408 C   0  0  0  0  0  0
  -28.6929  -23.4881   20.2801 C   0  0  0  0  0  0
  -30.0065  -21.8578   21.2308 C   0  0  0  0  0  0
  -28.4867  -22.1468   19.6666 C   0  0  0  0  0  0
  -30.5369  -20.9489   17.5638 C   0  0  0  0  0  0
  -27.8824  -24.8089   19.8747 C   0  0  0  0  0  0
  -29.3247  -21.2178   20.2525 N   0  0  0  0  0  0
  -29.8642  -15.9286   20.6202 N   0  0  0  0  0  0
  -30.8293  -21.3280   21.9878 O   0  0  0  0  0  0
  -27.6626  -21.8774   18.7847 O   0  0  0  0  0  0
  -31.4777  -12.5789   19.1936 H   0  0  0  0  0  0
  -30.3861  -11.4948   20.0025 H   0  0  0  0  0  0
  -29.7971  -11.6769   17.5704 H   0  0  0  0  0  0
  -29.6482  -13.4137   17.7062 H   0  0  0  0  0  0
  -27.9254  -11.2623   18.9740 H   0  0  0  0  0  0
  -27.3837  -12.4518   17.8201 H   0  0  0  0  0  0
  -27.6279  -14.2381   19.4397 H   0  0  0  0  0  0
  -28.7145  -12.2178   21.4668 H   0  0  0  0  0  0
  -28.4109  -13.9154   21.7715 H   0  0  0  0  0  0
  -25.2768   -9.5651   22.4765 H   0  0  0  0  0  0
  -24.0005   -7.4605   22.7441 H   0  0  0  0  0  0
  -21.0827   -8.8801   19.8973 H   0  0  0  0  0  0
  -22.3699  -10.9697   19.6187 H   0  0  0  0  0  0
  -21.2015   -7.6147   23.9726 H   0  0  0  0  0  0
  -21.1475   -6.0536   25.9098 H   0  0  0  0  0  0
  -22.0590   -2.7597   23.2867 H   0  0  0  0  0  0
  -22.4056  -11.9958   22.4934 H   0  0  0  0  0  0
  -21.1073  -13.1295   22.2602 H   0  0  0  0  0  0
  -24.6590  -15.8495   20.5280 H   0  0  0  0  0  0
  -26.2637  -15.6291   20.0504 H   0  0  0  0  0  0
  -26.7227  -32.5366   23.1053 H   0  0  0  0  0  0
  -25.0111  -33.9670   25.0396 H   0  0  0  0  0  0
  -22.7302  -31.3053   21.3969 H   0  0  0  0  0  0
  -23.3752  -35.9624   23.3268 H   0  0  0  0  0  0
  -24.3584  -36.8937   22.2055 H   0  0  0  0  0  0
  -23.7274  -37.6480   23.6677 H   0  0  0  0  0  0
  -26.1288  -31.5108   20.6168 H   0  0  0  0  0  0
  -26.8610  -30.7987   22.0213 H   0  0  0  0  0  0
  -28.1100  -28.8485   21.2501 H   0  0  0  0  0  0
  -25.8949  -25.9508   18.9137 H   0  0  0  0  0  0
  -23.9639  -27.3584   18.9493 H   0  0  0  0  0  0
  -23.7771  -30.6011   19.4017 H   0  0  0  0  0  0
  -22.7681  -29.2609   19.8448 H   0  0  0  0  0  0
  -25.1292  -36.1878   25.0817 H   0  0  0  0  0  0
  -21.0001  -28.3283   24.1353 H   0  0  0  0  0  0
  -20.5619  -26.2323   23.3606 H   0  0  0  0  0  0
  -21.6662  -26.7381   22.1236 H   0  0  0  0  0  0
  -19.6926  -25.6276   21.1232 H   0  0  0  0  0  0
  -19.6706  -27.3161   20.6704 H   0  0  0  0  0  0
  -17.4208  -26.6649   21.4021 H   0  0  0  0  0  0
  -18.0356  -26.0066   22.8996 H   0  0  0  0  0  0
  -19.7947  -30.7266   24.2266 H   0  0  0  0  0  0
  -17.5018  -31.6247   24.5162 H   0  0  0  0  0  0
  -15.5360  -30.2965   23.7646 H   0  0  0  0  0  0
  -15.8692  -28.0792   22.7079 H   0  0  0  0  0  0
  -24.5949  -30.7043   25.7817 H   0  0  0  0  0  0
  -24.8924  -32.2917   26.4836 H   0  0  0  0  0  0
  -25.8089  -30.8977   27.0264 H   0  0  0  0  0  0
  -26.2938  -29.6717   24.1270 H   0  0  0  0  0  0
  -27.3986  -29.7231   25.4793 H   0  0  0  0  0  0
  -27.8844  -30.4201   23.9533 H   0  0  0  0  0  0
  -27.2700  -33.3600   26.2081 H   0  0  0  0  0  0
  -28.3905  -32.6861   25.0342 H   0  0  0  0  0  0
  -28.0740  -31.8430   26.5427 H   0  0  0  0  0  0
  -28.2575  -38.0105   24.7489 H   0  0  0  0  0  0
  -28.1102  -36.2635   24.6258 H   0  0  0  0  0  0
  -27.2300  -37.1407   25.8854 H   0  0  0  0  0  0
  -20.9410  -29.8826   21.6889 H   0  0  0  0  0  0
  -26.0150  -38.2814   24.1438 H   0  0  0  0  0  0
  -31.1196  -18.4294   16.9499 H   0  0  0  0  0  0
  -30.8979  -16.3852   18.1970 H   0  0  0  0  0  0
  -29.1020  -18.6011   21.4615 H   0  0  0  0  0  0
  -29.9680  -23.9990   21.9362 H   0  0  0  0  0  0
  -31.2172  -20.7064   16.7464 H   0  0  0  0  0  0
  -30.9937  -21.7648   18.1232 H   0  0  0  0  0  0
  -29.6152  -21.3054   17.1035 H   0  0  0  0  0  0
  -26.8979  -24.6071   20.2987 H   0  0  0  0  0  0
  -27.7762  -24.7633   18.7893 H   0  0  0  0  0  0
  -28.9984  -15.7830   21.1189 H   0  0  0  0  0  0
  1 25  1  0  0  0
  1 30  2  0  0  0
  1 84  1  0  0  0
  2  3  1  0  0  0
  2 25  1  0  0  0
  2 87  1  0  0  0
  2 88  1  0  0  0
  3  4  1  0  0  0
  3 89  1  0  0  0
  3 90  1  0  0  0
  4  5  1  0  0  0
  4 91  1  0  0  0
  4 92  1  0  0  0
  5  6  1  0  0  0
  5 26  1  0  0  0
  5 93  1  0  0  0
  6 25  1  0  0  0
  6 94  1  0  0  0
  6 95  1  0  0  0
  7  8  2  0  0  0
  7 26  1  0  0  0
  7 29  1  0  0  0
  8  9  1  0  0  0
  8 22  1  0  0  0
  9 10  1  0  0  0
  9 27  2  0  0  0
 10 11  2  0  0  0
 10 15  1  0  0  0
 11 12  1  0  0  0
 11 96  1  0  0  0
 12 13  2  0  0  0
 12 97  1  0  0  0
 13 14  1  0  0  0
 13 31  1  0  0  0
 14 15  2  0  0  0
 14 98  1  0  0  0
 15 99  1  0  0  0
 16 17  2  0  0  0
 16 21  1  0  0  0
 16 31  1  0  0  0
 17 18  1  0  0  0
 17100  1  0  0  0
 18 19  2  0  0  0
 18101  1  0  0  0
 19 20  1  0  0  0
 19 24  1  0  0  0
 20 21  2  0  0  0
 20102  1  0  0  0
 21 23  1  0  0  0
 22 28  1  0  0  0
 22 32  2  0  0  0
 26 27  1  0  0  0
 28103  1  0  0  0
 28104  1  0  0  0
 29105  1  0  0  0
 29106  1  0  0  0
 33 34  1  0  0  0
 33 66  1  0  0  0
 33 70  2  0  0  0
 34 36  1  0  0  0
 34 59  1  0  0  0
 34107  1  0  0  0
 35 44  2  0  0  0
 35 45  1  0  0  0
 35 68  1  0  0  0
 36 56  1  0  0  0
 36108  1  0  0  0
 37 39  1  0  0  0
 37 47  1  0  0  0
 37 66  1  0  0  0
 37109  1  0  0  0
 38 43  2  0  0  0
 38 46  1  0  0  0
 38 47  1  0  0  0
 39 64  1  0  0  0
 39 67  2  0  0  0
 40 52  1  0  0  0
 40 53  2  0  0  0
 40 58  1  0  0  0
 41110  1  0  0  0
 41111  1  0  0  0
 41112  1  0  0  0
 41 48  1  0  0  0
 42 43  1  0  0  0
 42 66  1  0  0  0
 42113  1  0  0  0
 42114  1  0  0  0
 43 44  1  0  0  0
 44115  1  0  0  0
 45 46  2  0  0  0
 45116  1  0  0  0
 46117  1  0  0  0
 47118  1  0  0  0
 47119  1  0  0  0
 48 56  1  0  0  0
 48 65  1  0  0  0
 48120  1  0  0  0
 49 50  1  0  0  0
 49 53  1  0  0  0
 49 64  1  0  0  0
 49121  1  0  0  0
 50 51  1  0  0  0
 50122  1  0  0  0
 50123  1  0  0  0
 51 52  1  0  0  0
 51124  1  0  0  0
 51125  1  0  0  0
 52126  1  0  0  0
 52127  1  0  0  0
 53 54  1  0  0  0
 54 55  2  0  0  0
 54128  1  0  0  0
 55 57  1  0  0  0
 55129  1  0  0  0
 56 69  2  0  0  0
 57 58  2  0  0  0
 57130  1  0  0  0
 58131  1  0  0  0
 59 60  1  0  0  0
 59 61  1  0  0  0
 59 62  1  0  0  0
 60132  1  0  0  0
 60133  1  0  0  0
 60134  1  0  0  0
 61135  1  0  0  0
 61136  1  0  0  0
 61137  1  0  0  0
 62138  1  0  0  0
 62139  1  0  0  0
 62140  1  0  0  0
 63 65  1  0  0  0
 63141  1  0  0  0
 63142  1  0  0  0
 63143  1  0  0  0
 64144  1  0  0  0
 65145  1  0  0  0
 68 82  1  0  0  0
 71 72  2  0  0  0
 71 74  1  0  0  0
 71146  1  0  0  0
 72 76  1  0  0  0
 72147  1  0  0  0
 73 75  1  0  0  0
 73 76  2  0  0  0
 73148  1  0  0  0
 74 75  2  0  0  0
 74 81  1  0  0  0
 75 83  1  0  0  0
 76 84  1  0  0  0
 77 78  2  0  0  0
 77 79  1  0  0  0
 77149  1  0  0  0
 78 80  1  0  0  0
 78 82  1  0  0  0
 79 83  1  0  0  0
 79 85  2  0  0  0
 80 83  1  0  0  0
 80 86  2  0  0  0
 81150  1  0  0  0
 81151  1  0  0  0
 81152  1  0  0  0
 82153  1  0  0  0
 82154  1  0  0  0
 84155  1  0  0  0
M  ISO  4   1 100  68 101  82 101  84 100
M  END
> <chiral flag>
0

> <version>
0

> <s_m_source_file>
/data/baiqing/PycharmProjects/Reinvent-master-3.2/result/LINK_invent/BTK/process_docking_weight1_custom_product_contain_oxygen_bond_distance_aromatic_linkinvent_7_9_3/rearranged_h_0063.sdf

> <i_m_source_file_index>
45

> <r_mmod_Potential_Energy-OPLS-2005>
259.537078857422

> <r_mmod_Stretch_Energy-OPLS-2005>
144.817855834961

> <r_mmod_Bend_Energy-OPLS-2005>
218.315734863281

> <r_mmod_Torsional_Energy-OPLS-2005>
273.598663330078

> <r_mmod_Improper_Torsional_Energy-OPLS-2005>
5.23582744598389

> <r_mmod_Van_der_Waal_Energy-OPLS-2005>
145.641784667969

> <r_mmod_Electrostatic_Energy-OPLS-2005>
-399.017303466797

> <r_mmod_Solvation_Energy-OPLS-2005>
-241.557830810547

> <b_mmod_Minimization_Converged-OPLS-2005>
0

> <r_mmod_RMS_Derivative-OPLS-2005>
3.31027817726135

$$$$
46
                    3D
 Structure written by MMmdl.
166175  0  0  1  0            999 V2000
  -30.6141  -14.6208   20.5206 C   0  0  0  0  0  0
  -30.4432  -12.3820   19.4452 C   0  0  0  0  0  0
  -29.5097  -12.5101   18.2205 C   0  0  0  0  0  0
  -28.0302  -12.3536   18.6297 C   0  0  0  0  0  0
  -27.6570  -13.2111   19.8688 C   0  0  2  0  0  0
  -28.7013  -13.0341   20.9935 C   0  0  0  0  0  0
  -25.2570  -13.8155   20.5643 C   0  0  0  0  0  0
  -24.1839  -13.0428   20.9181 C   0  0  0  0  0  0
  -24.6405  -11.6900   20.8742 C   0  0  0  0  0  0
  -23.9070  -10.4285   21.0403 C   0  0  0  0  0  0
  -24.3621   -9.4200   21.9178 C   0  0  0  0  0  0
  -23.6294   -8.2243   22.0749 C   0  0  0  0  0  0
  -22.4273   -8.0289   21.3543 C   0  0  0  0  0  0
  -21.9910   -9.0261   20.4642 C   0  0  0  0  0  0
  -22.7243  -10.2136   20.3049 C   0  0  0  0  0  0
  -21.6853   -6.0736   22.5275 C   0  0  0  0  0  0
  -21.4021   -6.5635   23.8214 C   0  0  0  0  0  0
  -21.3656   -5.6785   24.9173 C   0  0  0  0  0  0
  -21.6039   -4.3049   24.7222 C   0  0  0  0  0  0
  -21.8821   -3.8141   23.4342 C   0  0  0  0  0  0
  -21.9193   -4.6961   22.3396 C   0  0  0  0  0  0
  -22.7861  -13.5228   21.1845 C   0  0  0  0  0  0
  -22.1655   -4.2144   21.0974 F   0  0  0  0  0  0
  -21.5620   -3.4534   25.7733 F   0  0  0  0  0  0
  -30.0206  -13.3884   20.4388 N   0  0  0  0  0  0
  -26.3006  -12.9329   20.3321 N   0  0  0  0  0  0
  -25.9335  -11.6493   20.5769 N   0  0  0  0  0  0
  -22.0497  -12.8239   22.0408 N   0  0  0  0  0  0
  -25.4254  -15.1869   20.3997 N   0  0  0  0  0  0
  -31.7620  -14.8155   20.1079 O   0  0  0  0  0  0
  -21.6641   -6.8887   21.4243 O   0  0  0  0  0  0
  -22.3550  -14.5532   20.6682 O   0  0  0  0  0  0
  -24.6259  -31.8602   23.2040 C   0  0  0  0  0  0
  -25.9111  -32.4780   23.8366 C   0  0  1  0  0  0
  -27.2203  -27.3246   20.1120 C   0  0  0  0  0  0
  -25.5926  -33.8578   24.2286 N   0  0  0  0  0  0
  -23.4190  -30.4864   21.5456 C   0  0  2  0  0  0
  -24.8638  -28.9418   20.1120 C   0  0  0  0  0  0
  -22.7469  -29.4640   22.4929 C   0  0  0  0  0  0
  -18.0288  -28.1388   22.8478 C   0  0  0  0  0  0
  -24.1487  -36.7288   23.2637 C   0  0  0  0  0  0
  -25.9607  -30.7926   21.3754 C   0  0  0  0  0  0
  -26.0341  -29.4214   20.7146 C   0  0  0  0  0  0
  -27.2166  -28.6246   20.7045 C   0  0  0  0  0  0
  -26.0250  -26.8954   19.4907 C   0  0  0  0  0  0
  -24.8605  -27.6833   19.4934 C   0  0  0  0  0  0
  -23.6334  -29.8233   20.1602 C   0  0  0  0  0  0
  -25.4112  -36.3076   24.0327 C   0  0  1  0  0  0
  -20.5884  -28.3694   23.1270 C   0  0  2  0  0  0
  -20.6772  -26.9417   22.5400 C   0  0  0  0  0  0
  -19.5752  -26.6387   21.5197 C   0  0  0  0  0  0
  -18.1933  -26.7932   22.1614 C   0  0  0  0  0  0
  -19.1539  -28.8856   23.2874 C   0  0  0  0  0  0
  -18.9466  -30.1448   23.8911 C   0  0  0  0  0  0
  -17.6469  -30.6586   24.0564 C   0  0  0  0  0  0
  -25.9055  -34.9450   23.5111 C   0  0  0  0  0  0
  -16.5359  -29.9089   23.6326 C   0  0  0  0  0  0
  -16.7276  -28.6501   23.0356 C   0  0  0  0  0  0
  -26.4496  -31.6591   25.0737 C   0  0  0  0  0  0
  -25.3732  -31.3742   26.1468 C   0  0  0  0  0  0
  -27.0333  -30.3011   24.6196 C   0  0  0  0  0  0
  -27.6057  -32.4328   25.7496 C   0  0  0  0  0  0
  -27.5577  -37.1797   24.8458 C   0  0  0  0  0  0
  -21.4186  -29.3052   22.3666 N   0  0  0  0  0  0
  -26.4283  -37.3775   23.9411 N   0  0  0  0  0  0
  -24.6872  -31.0626   22.0986 N   0  0  0  0  0  0
  -23.4192  -28.8183   23.3010 O   0  0  0  0  0  0
  -28.3402  -26.4813   20.1494 O   0  0  0  0  0  0
  -26.5628  -34.8915   22.4679 O   0  0  0  0  0  0
  -23.5426  -32.1398   23.7375 O   0  0  0  0  0  0
  -30.7765  -17.8625   20.2101 C   0  0  0  0  0  0
  -28.7506  -19.2529   21.5936 C   0  0  0  0  0  0
  -28.7788  -17.8157   21.5758 C   0  0  0  0  0  0
  -29.7415  -20.0215   20.9086 C   0  0  0  0  0  0
  -29.8125  -17.0869   20.9077 C   0  0  0  0  0  0
  -30.7406  -19.2887   20.2079 C   0  0  0  0  0  0
  -30.5796  -23.2812   22.5099 C   0  0  0  0  0  0
  -29.9495  -24.2689   21.8412 C   0  0  0  0  0  0
  -30.7057  -21.8990   22.0611 C   0  0  0  0  0  0
  -29.4876  -25.8336   23.6869 C   0  0  0  0  0  0
  -29.9201  -25.5925   22.4386 C   0  0  0  0  0  0
  -28.9372  -22.4544   20.3877 C   0  0  0  0  0  0
  -29.2889  -24.0077   20.4974 C   0  0  1  0  0  0
  -27.6711  -19.9667   22.4086 C   0  0  0  0  0  0
  -27.6875  -17.0563   22.3339 C   0  0  0  0  0  0
  -28.1011  -25.0185   20.1574 C   0  0  0  0  0  0
  -29.8592  -21.4800   21.0775 N   0  0  0  0  0  0
  -29.7948  -15.6230   20.9618 N   0  0  0  0  0  0
  -31.5372  -21.1458   22.5809 O   0  0  0  0  0  0
  -31.7090  -19.9643   19.5423 F   0  0  0  0  0  0
  -31.4836  -12.5152   19.1418 H   0  0  0  0  0  0
  -30.3822  -11.3797   19.8722 H   0  0  0  0  0  0
  -29.7679  -11.7638   17.4674 H   0  0  0  0  0  0
  -29.6582  -13.4823   17.7477 H   0  0  0  0  0  0
  -27.8573  -11.2988   18.8455 H   0  0  0  0  0  0
  -27.3814  -12.6014   17.7892 H   0  0  0  0  0  0
  -27.6833  -14.2512   19.5453 H   0  0  0  0  0  0
  -28.7095  -12.0004   21.3419 H   0  0  0  0  0  0
  -28.4443  -13.6340   21.8688 H   0  0  0  0  0  0
  -25.2771   -9.5670   22.4759 H   0  0  0  0  0  0
  -23.9986   -7.4634   22.7472 H   0  0  0  0  0  0
  -21.0833   -8.8795   19.8961 H   0  0  0  0  0  0
  -22.3703  -10.9681   19.6161 H   0  0  0  0  0  0
  -21.2023   -7.6145   23.9720 H   0  0  0  0  0  0
  -21.1470   -6.0514   25.9077 H   0  0  0  0  0  0
  -22.0605   -2.7605   23.2848 H   0  0  0  0  0  0
  -22.4116  -11.9898   22.4790 H   0  0  0  0  0  0
  -21.1116  -13.1282   22.2611 H   0  0  0  0  0  0
  -24.6550  -15.8361   20.5143 H   0  0  0  0  0  0
  -26.2598  -15.6268   20.0336 H   0  0  0  0  0  0
  -26.7181  -32.5451   23.1118 H   0  0  0  0  0  0
  -25.0072  -33.9722   25.0431 H   0  0  0  0  0  0
  -22.7133  -31.3074   21.4035 H   0  0  0  0  0  0
  -23.3748  -35.9619   23.3296 H   0  0  0  0  0  0
  -24.3576  -36.8915   22.2051 H   0  0  0  0  0  0
  -23.7244  -37.6488   23.6671 H   0  0  0  0  0  0
  -26.0953  -31.5586   20.6105 H   0  0  0  0  0  0
  -26.8399  -30.8370   22.0066 H   0  0  0  0  0  0
  -28.1154  -28.9863   21.1849 H   0  0  0  0  0  0
  -25.9608  -25.9368   18.9987 H   0  0  0  0  0  0
  -23.9629  -27.3096   19.0195 H   0  0  0  0  0  0
  -23.7553  -30.6007   19.4049 H   0  0  0  0  0  0
  -22.7521  -29.2554   19.8561 H   0  0  0  0  0  0
  -25.1288  -36.1931   25.0818 H   0  0  0  0  0  0
  -20.9975  -28.3277   24.1390 H   0  0  0  0  0  0
  -20.5646  -26.2317   23.3606 H   0  0  0  0  0  0
  -21.6650  -26.7433   22.1218 H   0  0  0  0  0  0
  -19.6918  -25.6296   21.1228 H   0  0  0  0  0  0
  -19.6689  -27.3188   20.6720 H   0  0  0  0  0  0
  -17.4199  -26.6668   21.4024 H   0  0  0  0  0  0
  -18.0342  -26.0073   22.9008 H   0  0  0  0  0  0
  -19.7944  -30.7245   24.2309 H   0  0  0  0  0  0
  -17.5029  -31.6271   24.5158 H   0  0  0  0  0  0
  -15.5362  -30.3000   23.7645 H   0  0  0  0  0  0
  -15.8671  -28.0815   22.7091 H   0  0  0  0  0  0
  -24.5899  -30.7095   25.7808 H   0  0  0  0  0  0
  -24.8941  -32.2917   26.4895 H   0  0  0  0  0  0
  -25.8059  -30.8921   27.0243 H   0  0  0  0  0  0
  -26.2909  -29.6767   24.1211 H   0  0  0  0  0  0
  -27.4014  -29.7265   25.4707 H   0  0  0  0  0  0
  -27.8788  -30.4295   23.9433 H   0  0  0  0  0  0
  -27.2672  -33.3627   26.2077 H   0  0  0  0  0  0
  -28.3859  -32.6887   25.0315 H   0  0  0  0  0  0
  -28.0732  -31.8454   26.5409 H   0  0  0  0  0  0
  -28.2591  -38.0097   24.7508 H   0  0  0  0  0  0
  -28.1077  -36.2632   24.6273 H   0  0  0  0  0  0
  -27.2301  -37.1430   25.8861 H   0  0  0  0  0  0
  -20.9366  -29.8792   21.6887 H   0  0  0  0  0  0
  -26.0162  -38.2845   24.1425 H   0  0  0  0  0  0
  -31.5717  -17.3733   19.6678 H   0  0  0  0  0  0
  -31.0484  -23.5201   23.4536 H   0  0  0  0  0  0
  -29.4844  -26.8363   24.0886 H   0  0  0  0  0  0
  -29.1261  -25.0388   24.3245 H   0  0  0  0  0  0
  -30.2707  -26.4287   21.8485 H   0  0  0  0  0  0
  -28.8572  -22.1723   19.3377 H   0  0  0  0  0  0
  -27.9428  -22.3049   20.8059 H   0  0  0  0  0  0
  -30.0733  -24.2004   19.7645 H   0  0  0  0  0  0
  -26.7423  -20.0173   21.8400 H   0  0  0  0  0  0
  -27.9470  -20.9789   22.6954 H   0  0  0  0  0  0
  -27.4676  -19.4538   23.3480 H   0  0  0  0  0  0
  -27.8493  -17.1466   23.4081 H   0  0  0  0  0  0
  -27.6328  -15.9942   22.1064 H   0  0  0  0  0  0
  -26.7029  -17.4641   22.1034 H   0  0  0  0  0  0
  -27.2831  -24.8103   20.8497 H   0  0  0  0  0  0
  -27.7418  -24.7361   19.1673 H   0  0  0  0  0  0
  -28.9375  -15.2490   21.3354 H   0  0  0  0  0  0
  1 25  1  0  0  0
  1 30  2  0  0  0
  1 88  1  0  0  0
  2  3  1  0  0  0
  2 25  1  0  0  0
  2 91  1  0  0  0
  2 92  1  0  0  0
  3  4  1  0  0  0
  3 93  1  0  0  0
  3 94  1  0  0  0
  4  5  1  0  0  0
  4 95  1  0  0  0
  4 96  1  0  0  0
  5  6  1  0  0  0
  5 26  1  0  0  0
  5 97  1  0  0  0
  6 25  1  0  0  0
  6 98  1  0  0  0
  6 99  1  0  0  0
  7  8  2  0  0  0
  7 26  1  0  0  0
  7 29  1  0  0  0
  8  9  1  0  0  0
  8 22  1  0  0  0
  9 10  1  0  0  0
  9 27  2  0  0  0
 10 11  2  0  0  0
 10 15  1  0  0  0
 11 12  1  0  0  0
 11100  1  0  0  0
 12 13  2  0  0  0
 12101  1  0  0  0
 13 14  1  0  0  0
 13 31  1  0  0  0
 14 15  2  0  0  0
 14102  1  0  0  0
 15103  1  0  0  0
 16 17  2  0  0  0
 16 21  1  0  0  0
 16 31  1  0  0  0
 17 18  1  0  0  0
 17104  1  0  0  0
 18 19  2  0  0  0
 18105  1  0  0  0
 19 20  1  0  0  0
 19 24  1  0  0  0
 20 21  2  0  0  0
 20106  1  0  0  0
 21 23  1  0  0  0
 22 28  1  0  0  0
 22 32  2  0  0  0
 26 27  1  0  0  0
 28107  1  0  0  0
 28108  1  0  0  0
 29109  1  0  0  0
 29110  1  0  0  0
 33 34  1  0  0  0
 33 66  1  0  0  0
 33 70  2  0  0  0
 34 36  1  0  0  0
 34 59  1  0  0  0
 34111  1  0  0  0
 35 44  2  0  0  0
 35 45  1  0  0  0
 35 68  1  0  0  0
 36 56  1  0  0  0
 36112  1  0  0  0
 37 39  1  0  0  0
 37 47  1  0  0  0
 37 66  1  0  0  0
 37113  1  0  0  0
 38 43  2  0  0  0
 38 46  1  0  0  0
 38 47  1  0  0  0
 39 64  1  0  0  0
 39 67  2  0  0  0
 40 52  1  0  0  0
 40 53  2  0  0  0
 40 58  1  0  0  0
 41114  1  0  0  0
 41115  1  0  0  0
 41116  1  0  0  0
 41 48  1  0  0  0
 42 43  1  0  0  0
 42 66  1  0  0  0
 42117  1  0  0  0
 42118  1  0  0  0
 43 44  1  0  0  0
 44119  1  0  0  0
 45 46  2  0  0  0
 45120  1  0  0  0
 46121  1  0  0  0
 47122  1  0  0  0
 47123  1  0  0  0
 48 56  1  0  0  0
 48 65  1  0  0  0
 48124  1  0  0  0
 49 50  1  0  0  0
 49 53  1  0  0  0
 49 64  1  0  0  0
 49125  1  0  0  0
 50 51  1  0  0  0
 50126  1  0  0  0
 50127  1  0  0  0
 51 52  1  0  0  0
 51128  1  0  0  0
 51129  1  0  0  0
 52130  1  0  0  0
 52131  1  0  0  0
 53 54  1  0  0  0
 54 55  2  0  0  0
 54132  1  0  0  0
 55 57  1  0  0  0
 55133  1  0  0  0
 56 69  2  0  0  0
 57 58  2  0  0  0
 57134  1  0  0  0
 58135  1  0  0  0
 59 60  1  0  0  0
 59 61  1  0  0  0
 59 62  1  0  0  0
 60136  1  0  0  0
 60137  1  0  0  0
 60138  1  0  0  0
 61139  1  0  0  0
 61140  1  0  0  0
 61141  1  0  0  0
 62142  1  0  0  0
 62143  1  0  0  0
 62144  1  0  0  0
 63 65  1  0  0  0
 63145  1  0  0  0
 63146  1  0  0  0
 63147  1  0  0  0
 64148  1  0  0  0
 65149  1  0  0  0
 68 86  1  0  0  0
 71 75  2  0  0  0
 71 76  1  0  0  0
 71150  1  0  0  0
 72 73  2  0  0  0
 72 74  1  0  0  0
 72 84  1  0  0  0
 73 75  1  0  0  0
 73 85  1  0  0  0
 74 76  2  0  0  0
 74 87  1  0  0  0
 75 88  1  0  0  0
 76 90  1  0  0  0
 77 78  2  0  0  0
 77 79  1  0  0  0
 77151  1  0  0  0
 78 81  1  0  0  0
 78 83  1  0  0  0
 79 87  1  0  0  0
 79 89  2  0  0  0
 80 81  2  0  0  0
 80152  1  0  0  0
 80153  1  0  0  0
 81154  1  0  0  0
 82 83  1  0  0  0
 82 87  1  0  0  0
 82155  1  0  0  0
 82156  1  0  0  0
 83 86  1  0  0  0
 83157  1  0  0  0
 84158  1  0  0  0
 84159  1  0  0  0
 84160  1  0  0  0
 85161  1  0  0  0
 85162  1  0  0  0
 85163  1  0  0  0
 86164  1  0  0  0
 86165  1  0  0  0
 88166  1  0  0  0
M  ISO  4   1 100  68 101  86 101  88 100
M  END
> <chiral flag>
0

> <version>
0

> <s_m_source_file>
/data/baiqing/PycharmProjects/Reinvent-master-3.2/result/LINK_invent/BTK/process_docking_weight1_custom_product_contain_oxygen_bond_distance_aromatic_linkinvent_7_9_3/rearranged_h_0063.sdf

> <i_m_source_file_index>
46

> <r_mmod_Potential_Energy-OPLS-2005>
167.694442749023

> <r_mmod_Stretch_Energy-OPLS-2005>
87.1850662231445

> <r_mmod_Bend_Energy-OPLS-2005>
151.124725341797

> <r_mmod_Torsional_Energy-OPLS-2005>
310.392120361328

> <r_mmod_Improper_Torsional_Energy-OPLS-2005>
4.77300786972046

> <r_mmod_Van_der_Waal_Energy-OPLS-2005>
167.247131347656

> <r_mmod_Electrostatic_Energy-OPLS-2005>
-379.073638916016

> <r_mmod_Solvation_Energy-OPLS-2005>
-217.7548828125

> <b_mmod_Minimization_Converged-OPLS-2005>
0

> <r_mmod_RMS_Derivative-OPLS-2005>
1.65995705127716

$$$$
47
                    3D
 Structure written by MMmdl.
156165  0  0  1  0            999 V2000
  -30.5878  -14.7675   20.4406 C   0  0  0  0  0  0
  -30.4375  -12.4644   19.4877 C   0  0  0  0  0  0
  -29.5201  -12.5114   18.2456 C   0  0  0  0  0  0
  -28.0446  -12.3324   18.6548 C   0  0  0  0  0  0
  -27.6445  -13.2310   19.8538 C   0  0  2  0  0  0
  -28.6837  -13.1672   20.9930 C   0  0  0  0  0  0
  -25.2559  -13.8184   20.5714 C   0  0  0  0  0  0
  -24.1854  -13.0437   20.9234 C   0  0  0  0  0  0
  -24.6442  -11.6909   20.8773 C   0  0  0  0  0  0
  -23.9113  -10.4293   21.0431 C   0  0  0  0  0  0
  -24.3641   -9.4203   21.9210 C   0  0  0  0  0  0
  -23.6309   -8.2248   22.0771 C   0  0  0  0  0  0
  -22.4290   -8.0304   21.3557 C   0  0  0  0  0  0
  -21.9931   -9.0289   20.4668 C   0  0  0  0  0  0
  -22.7287  -10.2154   20.3076 C   0  0  0  0  0  0
  -21.6860   -6.0755   22.5293 C   0  0  0  0  0  0
  -21.4016   -6.5652   23.8230 C   0  0  0  0  0  0
  -21.3648   -5.6798   24.9187 C   0  0  0  0  0  0
  -21.6039   -4.3062   24.7226 C   0  0  0  0  0  0
  -21.8819   -3.8164   23.4345 C   0  0  0  0  0  0
  -21.9198   -4.6985   22.3411 C   0  0  0  0  0  0
  -22.7880  -13.5236   21.1876 C   0  0  0  0  0  0
  -22.1678   -4.2177   21.0991 F   0  0  0  0  0  0
  -21.5609   -3.4546   25.7735 F   0  0  0  0  0  0
  -29.9847  -13.5289   20.4156 N   0  0  0  0  0  0
  -26.2966  -12.9389   20.3280 N   0  0  0  0  0  0
  -25.9360  -11.6527   20.5748 N   0  0  0  0  0  0
  -22.0501  -12.8239   22.0418 N   0  0  0  0  0  0
  -25.4257  -15.1907   20.4129 N   0  0  0  0  0  0
  -31.7801  -14.8553   20.1293 O   0  0  0  0  0  0
  -21.6655   -6.8899   21.4253 O   0  0  0  0  0  0
  -22.3573  -14.5546   20.6733 O   0  0  0  0  0  0
  -24.6300  -31.8512   23.1910 C   0  0  0  0  0  0
  -25.9121  -32.4743   23.8247 C   0  0  1  0  0  0
  -27.2286  -27.2532   20.1002 C   0  0  0  0  0  0
  -25.5934  -33.8545   24.2188 N   0  0  0  0  0  0
  -23.4279  -30.4733   21.5335 C   0  0  2  0  0  0
  -24.8754  -28.9199   20.0981 C   0  0  0  0  0  0
  -22.7502  -29.4578   22.4846 C   0  0  0  0  0  0
  -18.0315  -28.1386   22.8472 C   0  0  0  0  0  0
  -24.1496  -36.7281   23.2641 C   0  0  0  0  0  0
  -25.9734  -30.7602   21.3719 C   0  0  0  0  0  0
  -26.0490  -29.3862   20.7019 C   0  0  0  0  0  0
  -27.2261  -28.5666   20.6918 C   0  0  0  0  0  0
  -26.0126  -26.8401   19.5118 C   0  0  0  0  0  0
  -24.8617  -27.6538   19.4952 C   0  0  0  0  0  0
  -23.6446  -29.8084   20.1486 C   0  0  0  0  0  0
  -25.4131  -36.3072   24.0318 C   0  0  1  0  0  0
  -20.5916  -28.3681   23.1269 C   0  0  2  0  0  0
  -20.6799  -26.9396   22.5398 C   0  0  0  0  0  0
  -19.5775  -26.6364   21.5209 C   0  0  0  0  0  0
  -18.1953  -26.7930   22.1608 C   0  0  0  0  0  0
  -19.1571  -28.8851   23.2865 C   0  0  0  0  0  0
  -18.9499  -30.1468   23.8856 C   0  0  0  0  0  0
  -17.6500  -30.6590   24.0566 C   0  0  0  0  0  0
  -25.9069  -34.9447   23.5059 C   0  0  0  0  0  0
  -16.5385  -29.9084   23.6349 C   0  0  0  0  0  0
  -16.7307  -28.6514   23.0334 C   0  0  0  0  0  0
  -26.4482  -31.6594   25.0669 C   0  0  0  0  0  0
  -25.3709  -31.3773   26.1417 C   0  0  0  0  0  0
  -27.0310  -30.3007   24.6134 C   0  0  0  0  0  0
  -27.6001  -32.4328   25.7502 C   0  0  0  0  0  0
  -27.5579  -37.1820   24.8478 C   0  0  0  0  0  0
  -21.4202  -29.3048   22.3659 N   0  0  0  0  0  0
  -26.4297  -37.3783   23.9422 N   0  0  0  0  0  0
  -24.6959  -31.0466   22.0884 N   0  0  0  0  0  0
  -23.4221  -28.8110   23.2927 O   0  0  0  0  0  0
  -28.2939  -26.3310   20.2582 O   0  0  0  0  0  0
  -26.5636  -34.8934   22.4627 O   0  0  0  0  0  0
  -23.5450  -32.1319   23.7219 O   0  0  0  0  0  0
  -31.0964  -19.0135   18.8395 C   0  0  0  0  0  0
  -30.3705  -20.0866   19.4033 C   0  0  0  0  0  0
  -30.9147  -17.6769   19.2500 C   0  0  0  0  0  0
  -29.2237  -18.4612   20.7877 C   0  0  0  0  0  0
  -29.4036  -19.8782   20.4133 C   0  0  0  0  0  0
  -29.9849  -17.3342   20.2578 C   0  0  0  0  0  0
  -28.6051  -22.5017   20.6825 C   0  0  0  0  0  0
  -28.0995  -20.9140   22.2569 C   0  0  0  0  0  0
  -28.9466  -23.2192   19.5583 C   0  0  0  0  0  0
  -27.9451  -23.2273   21.8383 C   0  0  0  0  0  0
  -27.3167  -22.1403   22.6791 C   0  0  0  0  0  0
  -28.7011  -21.0636   21.0476 N   0  0  0  0  0  0
  -29.8009  -15.9004   20.6544 N   0  0  0  0  0  0
  -28.1622  -19.9482   23.0253 O   0  0  0  0  0  0
  -30.2092  -25.4849   18.7981 O   0  0  0  0  0  0
  -27.8723  -25.1544   17.9626 O   0  0  0  0  0  0
  -28.8145  -25.1036   19.0986 S   0  0  0  0  0  0
  -31.4810  -12.5883   19.1915 H   0  0  0  0  0  0
  -30.3809  -11.4876   19.9722 H   0  0  0  0  0  0
  -29.8098  -11.7385   17.5338 H   0  0  0  0  0  0
  -29.6414  -13.4646   17.7291 H   0  0  0  0  0  0
  -27.9060  -11.2825   18.9177 H   0  0  0  0  0  0
  -27.3900  -12.5237   17.8046 H   0  0  0  0  0  0
  -27.6409  -14.2540   19.4762 H   0  0  0  0  0  0
  -28.7195  -12.1669   21.4276 H   0  0  0  0  0  0
  -28.4104  -13.8411   21.8067 H   0  0  0  0  0  0
  -25.2765   -9.5677   22.4808 H   0  0  0  0  0  0
  -24.0029   -7.4610   22.7450 H   0  0  0  0  0  0
  -21.0874   -8.8806   19.8949 H   0  0  0  0  0  0
  -22.3754  -10.9701   19.6186 H   0  0  0  0  0  0
  -21.2020   -7.6166   23.9743 H   0  0  0  0  0  0
  -21.1463   -6.0532   25.9091 H   0  0  0  0  0  0
  -22.0606   -2.7637   23.2846 H   0  0  0  0  0  0
  -22.4110  -11.9892   22.4789 H   0  0  0  0  0  0
  -21.1108  -13.1270   22.2591 H   0  0  0  0  0  0
  -24.6496  -15.8356   20.5107 H   0  0  0  0  0  0
  -26.2636  -15.6265   20.0505 H   0  0  0  0  0  0
  -26.7168  -32.5367   23.0950 H   0  0  0  0  0  0
  -25.0185  -33.9694   25.0404 H   0  0  0  0  0  0
  -22.7242  -31.2959   21.3893 H   0  0  0  0  0  0
  -23.3779  -35.9596   23.3304 H   0  0  0  0  0  0
  -24.3571  -36.8884   22.2051 H   0  0  0  0  0  0
  -23.7230  -37.6484   23.6665 H   0  0  0  0  0  0
  -26.1175  -31.5236   20.6078 H   0  0  0  0  0  0
  -26.8474  -30.7989   22.0091 H   0  0  0  0  0  0
  -28.1171  -28.9159   21.1960 H   0  0  0  0  0  0
  -25.9013  -25.8468   19.1057 H   0  0  0  0  0  0
  -23.9530  -27.2787   19.0455 H   0  0  0  0  0  0
  -23.7749  -30.5885   19.3956 H   0  0  0  0  0  0
  -22.7581  -29.2491   19.8414 H   0  0  0  0  0  0
  -25.1310  -36.1898   25.0808 H   0  0  0  0  0  0
  -21.0002  -28.3259   24.1394 H   0  0  0  0  0  0
  -20.5698  -26.2285   23.3598 H   0  0  0  0  0  0
  -21.6663  -26.7405   22.1188 H   0  0  0  0  0  0
  -19.6941  -25.6264   21.1255 H   0  0  0  0  0  0
  -19.6753  -27.3174   20.6736 H   0  0  0  0  0  0
  -17.4224  -26.6697   21.3998 H   0  0  0  0  0  0
  -18.0349  -26.0081   22.8998 H   0  0  0  0  0  0
  -19.7990  -30.7308   24.2165 H   0  0  0  0  0  0
  -17.5076  -31.6273   24.5160 H   0  0  0  0  0  0
  -15.5392  -30.2970   23.7720 H   0  0  0  0  0  0
  -15.8707  -28.0850   22.7004 H   0  0  0  0  0  0
  -24.5900  -30.7075   25.7824 H   0  0  0  0  0  0
  -24.8889  -32.2962   26.4776 H   0  0  0  0  0  0
  -25.8060  -30.9060   27.0231 H   0  0  0  0  0  0
  -26.2885  -29.6800   24.1122 H   0  0  0  0  0  0
  -27.3995  -29.7236   25.4619 H   0  0  0  0  0  0
  -27.8763  -30.4313   23.9367 H   0  0  0  0  0  0
  -27.2568  -33.3640   26.2019 H   0  0  0  0  0  0
  -28.3894  -32.6832   25.0408 H   0  0  0  0  0  0
  -28.0565  -31.8466   26.5475 H   0  0  0  0  0  0
  -28.2616  -38.0104   24.7521 H   0  0  0  0  0  0
  -28.1048  -36.2637   24.6310 H   0  0  0  0  0  0
  -27.2291  -37.1458   25.8879 H   0  0  0  0  0  0
  -20.9354  -29.8829   21.6939 H   0  0  0  0  0  0
  -26.0168  -38.2851   24.1439 H   0  0  0  0  0  0
  -31.8231  -19.2213   18.0646 H   0  0  0  0  0  0
  -30.6018  -21.0756   19.0479 H   0  0  0  0  0  0
  -31.5002  -16.9109   18.7603 H   0  0  0  0  0  0
  -28.4797  -18.1997   21.5240 H   0  0  0  0  0  0
  -29.3648  -22.7035   18.7111 H   0  0  0  0  0  0
  -27.1860  -23.9300   21.4865 H   0  0  0  0  0  0
  -28.6908  -23.7871   22.4066 H   0  0  0  0  0  0
  -27.3813  -22.3301   23.7505 H   0  0  0  0  0  0
  -26.2695  -21.9925   22.4123 H   0  0  0  0  0  0
  -28.9004  -15.6873   21.0563 H   0  0  0  0  0  0
  1 25  1  0  0  0
  1 30  2  0  0  0
  1 83  1  0  0  0
  2  3  1  0  0  0
  2 25  1  0  0  0
  2 88  1  0  0  0
  2 89  1  0  0  0
  3  4  1  0  0  0
  3 90  1  0  0  0
  3 91  1  0  0  0
  4  5  1  0  0  0
  4 92  1  0  0  0
  4 93  1  0  0  0
  5  6  1  0  0  0
  5 26  1  0  0  0
  5 94  1  0  0  0
  6 25  1  0  0  0
  6 95  1  0  0  0
  6 96  1  0  0  0
  7  8  2  0  0  0
  7 26  1  0  0  0
  7 29  1  0  0  0
  8  9  1  0  0  0
  8 22  1  0  0  0
  9 10  1  0  0  0
  9 27  2  0  0  0
 10 11  2  0  0  0
 10 15  1  0  0  0
 11 12  1  0  0  0
 11 97  1  0  0  0
 12 13  2  0  0  0
 12 98  1  0  0  0
 13 14  1  0  0  0
 13 31  1  0  0  0
 14 15  2  0  0  0
 14 99  1  0  0  0
 15100  1  0  0  0
 16 17  2  0  0  0
 16 21  1  0  0  0
 16 31  1  0  0  0
 17 18  1  0  0  0
 17101  1  0  0  0
 18 19  2  0  0  0
 18102  1  0  0  0
 19 20  1  0  0  0
 19 24  1  0  0  0
 20 21  2  0  0  0
 20103  1  0  0  0
 21 23  1  0  0  0
 22 28  1  0  0  0
 22 32  2  0  0  0
 26 27  1  0  0  0
 28104  1  0  0  0
 28105  1  0  0  0
 29106  1  0  0  0
 29107  1  0  0  0
 33 34  1  0  0  0
 33 66  1  0  0  0
 33 70  2  0  0  0
 34 36  1  0  0  0
 34 59  1  0  0  0
 34108  1  0  0  0
 35 44  2  0  0  0
 35 45  1  0  0  0
 35 68  1  0  0  0
 36 56  1  0  0  0
 36109  1  0  0  0
 37 39  1  0  0  0
 37 47  1  0  0  0
 37 66  1  0  0  0
 37110  1  0  0  0
 38 43  2  0  0  0
 38 46  1  0  0  0
 38 47  1  0  0  0
 39 64  1  0  0  0
 39 67  2  0  0  0
 40 52  1  0  0  0
 40 53  2  0  0  0
 40 58  1  0  0  0
 41111  1  0  0  0
 41112  1  0  0  0
 41113  1  0  0  0
 41 48  1  0  0  0
 42 43  1  0  0  0
 42 66  1  0  0  0
 42114  1  0  0  0
 42115  1  0  0  0
 43 44  1  0  0  0
 44116  1  0  0  0
 45 46  2  0  0  0
 45117  1  0  0  0
 46118  1  0  0  0
 47119  1  0  0  0
 47120  1  0  0  0
 48 56  1  0  0  0
 48 65  1  0  0  0
 48121  1  0  0  0
 49 50  1  0  0  0
 49 53  1  0  0  0
 49 64  1  0  0  0
 49122  1  0  0  0
 50 51  1  0  0  0
 50123  1  0  0  0
 50124  1  0  0  0
 51 52  1  0  0  0
 51125  1  0  0  0
 51126  1  0  0  0
 52127  1  0  0  0
 52128  1  0  0  0
 53 54  1  0  0  0
 54 55  2  0  0  0
 54129  1  0  0  0
 55 57  1  0  0  0
 55130  1  0  0  0
 56 69  2  0  0  0
 57 58  2  0  0  0
 57131  1  0  0  0
 58132  1  0  0  0
 59 60  1  0  0  0
 59 61  1  0  0  0
 59 62  1  0  0  0
 60133  1  0  0  0
 60134  1  0  0  0
 60135  1  0  0  0
 61136  1  0  0  0
 61137  1  0  0  0
 61138  1  0  0  0
 62139  1  0  0  0
 62140  1  0  0  0
 62141  1  0  0  0
 63 65  1  0  0  0
 63142  1  0  0  0
 63143  1  0  0  0
 63144  1  0  0  0
 64145  1  0  0  0
 65146  1  0  0  0
 68 87  1  0  0  0
 71 72  2  0  0  0
 71 73  1  0  0  0
 71147  1  0  0  0
 72 75  1  0  0  0
 72148  1  0  0  0
 73 76  2  0  0  0
 73149  1  0  0  0
 74 75  2  0  0  0
 74 76  1  0  0  0
 74150  1  0  0  0
 75 82  1  0  0  0
 76 83  1  0  0  0
 77 79  2  0  0  0
 77 80  1  0  0  0
 77 82  1  0  0  0
 78 81  1  0  0  0
 78 82  1  0  0  0
 78 84  2  0  0  0
 79 87  1  0  0  0
 79151  1  0  0  0
 80 81  1  0  0  0
 80152  1  0  0  0
 80153  1  0  0  0
 81154  1  0  0  0
 81155  1  0  0  0
 83156  1  0  0  0
 85 87  2  0  0  0
 86 87  2  0  0  0
M  ISO  4   1 100  68 101  83 100  87 101
M  END
> <chiral flag>
0

> <version>
0

> <s_m_source_file>
/data/baiqing/PycharmProjects/Reinvent-master-3.2/result/LINK_invent/BTK/process_docking_weight1_custom_product_contain_oxygen_bond_distance_aromatic_linkinvent_7_9_3/rearranged_h_0063.sdf

> <i_m_source_file_index>
47

> <r_mmod_Potential_Energy-OPLS-2005>
330.191589355469

> <r_mmod_Stretch_Energy-OPLS-2005>
155.974395751953

> <r_mmod_Bend_Energy-OPLS-2005>
258.368499755859

> <r_mmod_Torsional_Energy-OPLS-2005>
220.345962524414

> <r_mmod_Improper_Torsional_Energy-OPLS-2005>
5.39122629165649

> <r_mmod_Van_der_Waal_Energy-OPLS-2005>
141.631942749023

> <r_mmod_Electrostatic_Energy-OPLS-2005>
-292.322906494141

> <r_mmod_Solvation_Energy-OPLS-2005>
-258.251983642578

> <b_mmod_Minimization_Converged-OPLS-2005>
0

> <r_mmod_RMS_Derivative-OPLS-2005>
3.57910180091858

$$$$
48
                    3D
 Structure written by MMmdl.
158166  0  0  1  0            999 V2000
  -30.7181  -14.4916   20.5828 C   0  0  0  0  0  0
  -30.4184  -12.3399   19.4008 C   0  0  0  0  0  0
  -29.4724  -12.4916   18.1914 C   0  0  0  0  0  0
  -28.0021  -12.3373   18.6253 C   0  0  0  0  0  0
  -27.6486  -13.1917   19.8702 C   0  0  2  0  0  0
  -28.7040  -13.0175   20.9843 C   0  0  0  0  0  0
  -25.2582  -13.8141   20.5737 C   0  0  0  0  0  0
  -24.1810  -13.0438   20.9207 C   0  0  0  0  0  0
  -24.6335  -11.6897   20.8761 C   0  0  0  0  0  0
  -23.9006  -10.4298   21.0429 C   0  0  0  0  0  0
  -24.3573   -9.4207   21.9195 C   0  0  0  0  0  0
  -23.6267   -8.2231   22.0758 C   0  0  0  0  0  0
  -22.4252   -8.0271   21.3542 C   0  0  0  0  0  0
  -21.9877   -9.0236   20.4642 C   0  0  0  0  0  0
  -22.7194  -10.2127   20.3063 C   0  0  0  0  0  0
  -21.6849   -6.0727   22.5276 C   0  0  0  0  0  0
  -21.4010   -6.5633   23.8210 C   0  0  0  0  0  0
  -21.3652   -5.6786   24.9174 C   0  0  0  0  0  0
  -21.6045   -4.3049   24.7223 C   0  0  0  0  0  0
  -21.8822   -3.8139   23.4345 C   0  0  0  0  0  0
  -21.9197   -4.6956   22.3401 C   0  0  0  0  0  0
  -22.7839  -13.5264   21.1828 C   0  0  0  0  0  0
  -22.1670   -4.2146   21.0977 F   0  0  0  0  0  0
  -21.5621   -3.4530   25.7732 F   0  0  0  0  0  0
  -30.0202  -13.3346   20.4099 N   0  0  0  0  0  0
  -26.2965  -12.9249   20.3422 N   0  0  0  0  0  0
  -25.9259  -11.6422   20.5837 N   0  0  0  0  0  0
  -22.0445  -12.8282   22.0387 N   0  0  0  0  0  0
  -25.4344  -15.1857   20.4146 N   0  0  0  0  0  0
  -31.8475  -14.6621   20.1198 O   0  0  0  0  0  0
  -21.6633   -6.8857   21.4234 O   0  0  0  0  0  0
  -22.3549  -14.5564   20.6671 O   0  0  0  0  0  0
  -24.6170  -31.8631   23.2009 C   0  0  0  0  0  0
  -25.9046  -32.4782   23.8326 C   0  0  1  0  0  0
  -27.2607  -27.4156   20.0981 C   0  0  0  0  0  0
  -25.5906  -33.8580   24.2277 N   0  0  0  0  0  0
  -23.4108  -30.4807   21.5371 C   0  0  2  0  0  0
  -24.8666  -28.9413   20.1095 C   0  0  0  0  0  0
  -22.7418  -29.4640   22.4905 C   0  0  0  0  0  0
  -18.0284  -28.1362   22.8465 C   0  0  0  0  0  0
  -24.1495  -36.7299   23.2635 C   0  0  0  0  0  0
  -25.9394  -30.8213   21.3617 C   0  0  0  0  0  0
  -26.0199  -29.4530   20.7141 C   0  0  0  0  0  0
  -27.2171  -28.6963   20.7058 C   0  0  0  0  0  0
  -26.0847  -26.9222   19.4877 C   0  0  0  0  0  0
  -24.8995  -27.6809   19.4893 C   0  0  0  0  0  0
  -23.6250  -29.8027   20.1562 C   0  0  0  0  0  0
  -25.4119  -36.3081   24.0331 C   0  0  1  0  0  0
  -20.5872  -28.3648   23.1296 C   0  0  2  0  0  0
  -20.6755  -26.9402   22.5295 C   0  0  0  0  0  0
  -19.5753  -26.6497   21.5066 C   0  0  0  0  0  0
  -18.1927  -26.7962   22.1506 C   0  0  0  0  0  0
  -19.1530  -28.8811   23.2908 C   0  0  0  0  0  0
  -18.9483  -30.1373   23.8985 C   0  0  0  0  0  0
  -17.6501  -30.6537   24.0651 C   0  0  0  0  0  0
  -25.9048  -34.9446   23.5107 C   0  0  0  0  0  0
  -16.5384  -29.9074   23.6346 C   0  0  0  0  0  0
  -16.7283  -28.6503   23.0324 C   0  0  0  0  0  0
  -26.4492  -31.6570   25.0658 C   0  0  0  0  0  0
  -25.3755  -31.3674   26.1394 C   0  0  0  0  0  0
  -27.0348  -30.3012   24.6084 C   0  0  0  0  0  0
  -27.6056  -32.4298   25.7438 C   0  0  0  0  0  0
  -27.5586  -37.1799   24.8468 C   0  0  0  0  0  0
  -21.4135  -29.3041   22.3699 N   0  0  0  0  0  0
  -26.4303  -37.3778   23.9402 N   0  0  0  0  0  0
  -24.6720  -31.0730   22.0902 N   0  0  0  0  0  0
  -23.4173  -28.8180   23.2962 O   0  0  0  0  0  0
  -28.4513  -26.7026   20.1240 O   0  0  0  0  0  0
  -26.5618  -34.8922   22.4673 O   0  0  0  0  0  0
  -23.5366  -32.1383   23.7421 O   0  0  0  0  0  0
  -28.1334  -17.5768   18.7455 C   0  0  0  0  0  0
  -28.8910  -16.5219   19.2869 C   0  0  0  0  0  0
  -29.2035  -17.8098   21.3239 C   0  0  0  0  0  0
  -27.9048  -18.7591   19.4775 C   0  0  0  0  0  0
  -29.3999  -16.6013   20.6027 C   0  0  0  0  0  0
  -28.4875  -18.9023   20.7644 C   0  0  0  0  0  0
  -27.0122  -19.8201   18.8579 C   0  0  0  0  0  0
  -27.8749  -24.3053   20.7029 C   0  0  0  0  0  0
  -28.7759  -23.1498   21.2657 C   0  0  0  0  0  0
  -28.5157  -25.3216   19.6991 C   0  0  0  0  0  0
  -30.0950  -15.5054   21.2225 N   0  0  0  0  0  0
  -28.5235  -21.8019   20.6802 N   0  0  0  0  0  0
  -26.9521  -20.5224   22.2774 O   0  0  0  0  0  0
  -29.4503  -20.5025   22.6951 O   0  0  0  0  0  0
  -28.3220  -20.4361   21.7510 S   0  0  0  0  0  0
  -31.4545  -12.4580   19.0791 H   0  0  0  0  0  0
  -30.3503  -11.3344   19.8209 H   0  0  0  0  0  0
  -29.7147  -11.7510   17.4288 H   0  0  0  0  0  0
  -29.6175  -13.4666   17.7233 H   0  0  0  0  0  0
  -27.8331  -11.2817   18.8434 H   0  0  0  0  0  0
  -27.3349  -12.5814   17.7970 H   0  0  0  0  0  0
  -27.6627  -14.2273   19.5474 H   0  0  0  0  0  0
  -28.7039  -11.9906   21.3521 H   0  0  0  0  0  0
  -28.4670  -13.6420   21.8465 H   0  0  0  0  0  0
  -25.2712   -9.5705   22.4784 H   0  0  0  0  0  0
  -23.9984   -7.4632   22.7483 H   0  0  0  0  0  0
  -21.0812   -8.8741   19.8953 H   0  0  0  0  0  0
  -22.3637  -10.9662   19.6180 H   0  0  0  0  0  0
  -21.2001   -7.6139   23.9712 H   0  0  0  0  0  0
  -21.1473   -6.0513   25.9073 H   0  0  0  0  0  0
  -22.0609   -2.7603   23.2842 H   0  0  0  0  0  0
  -22.4028  -11.9948   22.4814 H   0  0  0  0  0  0
  -21.1061  -13.1327   22.2541 H   0  0  0  0  0  0
  -24.6723  -15.8461   20.5240 H   0  0  0  0  0  0
  -26.3034  -15.6245   20.1359 H   0  0  0  0  0  0
  -26.7114  -32.5503   23.1093 H   0  0  0  0  0  0
  -25.0050  -33.9726   25.0416 H   0  0  0  0  0  0
  -22.6985  -31.2952   21.3878 H   0  0  0  0  0  0
  -23.3752  -35.9637   23.3311 H   0  0  0  0  0  0
  -24.3584  -36.8911   22.2045 H   0  0  0  0  0  0
  -23.7263  -37.6511   23.6658 H   0  0  0  0  0  0
  -26.0645  -31.5885   20.5961 H   0  0  0  0  0  0
  -26.8219  -30.8723   21.9875 H   0  0  0  0  0  0
  -28.1080  -29.0910   21.1771 H   0  0  0  0  0  0
  -26.0680  -25.9580   18.9999 H   0  0  0  0  0  0
  -24.0216  -27.2883   19.0000 H   0  0  0  0  0  0
  -23.7180  -30.5673   19.3859 H   0  0  0  0  0  0
  -22.7562  -29.2073   19.8681 H   0  0  0  0  0  0
  -25.1305  -36.1927   25.0830 H   0  0  0  0  0  0
  -21.0002  -28.3158   24.1374 H   0  0  0  0  0  0
  -20.5632  -26.2220   23.3423 H   0  0  0  0  0  0
  -21.6637  -26.7481   22.1093 H   0  0  0  0  0  0
  -19.6914  -25.6488   21.0890 H   0  0  0  0  0  0
  -19.6646  -27.3444   20.6706 H   0  0  0  0  0  0
  -17.4189  -26.6779   21.3881 H   0  0  0  0  0  0
  -18.0319  -26.0000   22.8794 H   0  0  0  0  0  0
  -19.7966  -30.7136   24.2430 H   0  0  0  0  0  0
  -17.5072  -31.6184   24.5320 H   0  0  0  0  0  0
  -15.5385  -30.3018   23.7686 H   0  0  0  0  0  0
  -15.8672  -28.0894   22.6976 H   0  0  0  0  0  0
  -24.5912  -30.7072   25.7701 H   0  0  0  0  0  0
  -24.8976  -32.2826   26.4883 H   0  0  0  0  0  0
  -25.8084  -30.8776   27.0121 H   0  0  0  0  0  0
  -26.2901  -29.6715   24.1216 H   0  0  0  0  0  0
  -27.4183  -29.7314   25.4554 H   0  0  0  0  0  0
  -27.8697  -30.4309   23.9197 H   0  0  0  0  0  0
  -27.2664  -33.3570   26.2074 H   0  0  0  0  0  0
  -28.3844  -32.6912   25.0258 H   0  0  0  0  0  0
  -28.0765  -31.8387   26.5309 H   0  0  0  0  0  0
  -28.2610  -38.0089   24.7512 H   0  0  0  0  0  0
  -28.1076  -36.2621   24.6302 H   0  0  0  0  0  0
  -27.2298  -37.1457   25.8869 H   0  0  0  0  0  0
  -20.9307  -29.8746   21.6897 H   0  0  0  0  0  0
  -26.0181  -38.2860   24.1397 H   0  0  0  0  0  0
  -27.7164  -17.4644   17.7533 H   0  0  0  0  0  0
  -29.0550  -15.6501   18.6705 H   0  0  0  0  0  0
  -29.5946  -17.9089   22.3252 H   0  0  0  0  0  0
  -27.6119  -20.6216   18.4254 H   0  0  0  0  0  0
  -26.3228  -20.2386   19.5919 H   0  0  0  0  0  0
  -26.4065  -19.3954   18.0561 H   0  0  0  0  0  0
  -27.5194  -24.8841   21.5592 H   0  0  0  0  0  0
  -26.9659  -23.8972   20.2629 H   0  0  0  0  0  0
  -28.5767  -23.0766   22.3391 H   0  0  0  0  0  0
  -29.8378  -23.3911   21.1916 H   0  0  0  0  0  0
  -29.5679  -25.0827   19.5395 H   0  0  0  0  0  0
  -28.0785  -25.2107   18.7096 H   0  0  0  0  0  0
  -30.6020  -15.7851   22.0486 H   0  0  0  0  0  0
  -27.7764  -21.8025   19.9804 H   0  0  0  0  0  0
  1 25  1  0  0  0
  1 30  2  0  0  0
  1 81  1  0  0  0
  2  3  1  0  0  0
  2 25  1  0  0  0
  2 86  1  0  0  0
  2 87  1  0  0  0
  3  4  1  0  0  0
  3 88  1  0  0  0
  3 89  1  0  0  0
  4  5  1  0  0  0
  4 90  1  0  0  0
  4 91  1  0  0  0
  5  6  1  0  0  0
  5 26  1  0  0  0
  5 92  1  0  0  0
  6 25  1  0  0  0
  6 93  1  0  0  0
  6 94  1  0  0  0
  7  8  2  0  0  0
  7 26  1  0  0  0
  7 29  1  0  0  0
  8  9  1  0  0  0
  8 22  1  0  0  0
  9 10  1  0  0  0
  9 27  2  0  0  0
 10 11  2  0  0  0
 10 15  1  0  0  0
 11 12  1  0  0  0
 11 95  1  0  0  0
 12 13  2  0  0  0
 12 96  1  0  0  0
 13 14  1  0  0  0
 13 31  1  0  0  0
 14 15  2  0  0  0
 14 97  1  0  0  0
 15 98  1  0  0  0
 16 17  2  0  0  0
 16 21  1  0  0  0
 16 31  1  0  0  0
 17 18  1  0  0  0
 17 99  1  0  0  0
 18 19  2  0  0  0
 18100  1  0  0  0
 19 20  1  0  0  0
 19 24  1  0  0  0
 20 21  2  0  0  0
 20101  1  0  0  0
 21 23  1  0  0  0
 22 28  1  0  0  0
 22 32  2  0  0  0
 26 27  1  0  0  0
 28102  1  0  0  0
 28103  1  0  0  0
 29104  1  0  0  0
 29105  1  0  0  0
 33 34  1  0  0  0
 33 66  1  0  0  0
 33 70  2  0  0  0
 34 36  1  0  0  0
 34 59  1  0  0  0
 34106  1  0  0  0
 35 44  2  0  0  0
 35 45  1  0  0  0
 35 68  1  0  0  0
 36 56  1  0  0  0
 36107  1  0  0  0
 37 39  1  0  0  0
 37 47  1  0  0  0
 37 66  1  0  0  0
 37108  1  0  0  0
 38 43  2  0  0  0
 38 46  1  0  0  0
 38 47  1  0  0  0
 39 64  1  0  0  0
 39 67  2  0  0  0
 40 52  1  0  0  0
 40 53  2  0  0  0
 40 58  1  0  0  0
 41109  1  0  0  0
 41110  1  0  0  0
 41111  1  0  0  0
 41 48  1  0  0  0
 42 43  1  0  0  0
 42 66  1  0  0  0
 42112  1  0  0  0
 42113  1  0  0  0
 43 44  1  0  0  0
 44114  1  0  0  0
 45 46  2  0  0  0
 45115  1  0  0  0
 46116  1  0  0  0
 47117  1  0  0  0
 47118  1  0  0  0
 48 56  1  0  0  0
 48 65  1  0  0  0
 48119  1  0  0  0
 49 50  1  0  0  0
 49 53  1  0  0  0
 49 64  1  0  0  0
 49120  1  0  0  0
 50 51  1  0  0  0
 50121  1  0  0  0
 50122  1  0  0  0
 51 52  1  0  0  0
 51123  1  0  0  0
 51124  1  0  0  0
 52125  1  0  0  0
 52126  1  0  0  0
 53 54  1  0  0  0
 54 55  2  0  0  0
 54127  1  0  0  0
 55 57  1  0  0  0
 55128  1  0  0  0
 56 69  2  0  0  0
 57 58  2  0  0  0
 57129  1  0  0  0
 58130  1  0  0  0
 59 60  1  0  0  0
 59 61  1  0  0  0
 59 62  1  0  0  0
 60131  1  0  0  0
 60132  1  0  0  0
 60133  1  0  0  0
 61134  1  0  0  0
 61135  1  0  0  0
 61136  1  0  0  0
 62137  1  0  0  0
 62138  1  0  0  0
 62139  1  0  0  0
 63 65  1  0  0  0
 63140  1  0  0  0
 63141  1  0  0  0
 63142  1  0  0  0
 64143  1  0  0  0
 65144  1  0  0  0
 68 80  1  0  0  0
 71 72  2  0  0  0
 71 74  1  0  0  0
 71145  1  0  0  0
 72 75  1  0  0  0
 72146  1  0  0  0
 73 75  2  0  0  0
 73 76  1  0  0  0
 73147  1  0  0  0
 74 76  2  0  0  0
 74 77  1  0  0  0
 75 81  1  0  0  0
 76 85  1  0  0  0
 77148  1  0  0  0
 77149  1  0  0  0
 77150  1  0  0  0
 78 79  1  0  0  0
 78 80  1  0  0  0
 78151  1  0  0  0
 78152  1  0  0  0
 79 82  1  0  0  0
 79153  1  0  0  0
 79154  1  0  0  0
 80155  1  0  0  0
 80156  1  0  0  0
 81157  1  0  0  0
 82158  1  0  0  0
 82 85  1  0  0  0
 83 85  2  0  0  0
 84 85  2  0  0  0
M  ISO  4   1 100  68 101  80 101  81 100
M  END
> <chiral flag>
0

> <version>
0

> <s_m_source_file>
/data/baiqing/PycharmProjects/Reinvent-master-3.2/result/LINK_invent/BTK/process_docking_weight1_custom_product_contain_oxygen_bond_distance_aromatic_linkinvent_7_9_3/rearranged_h_0063.sdf

> <i_m_source_file_index>
48

> <r_mmod_Potential_Energy-OPLS-2005>
-22.1878490447998

> <r_mmod_Stretch_Energy-OPLS-2005>
46.0544319152832

> <r_mmod_Bend_Energy-OPLS-2005>
121.816383361816

> <r_mmod_Torsional_Energy-OPLS-2005>
285.861968994141

> <r_mmod_Improper_Torsional_Energy-OPLS-2005>
9.52693271636963

> <r_mmod_Van_der_Waal_Energy-OPLS-2005>
140.678344726562

> <r_mmod_Electrostatic_Energy-OPLS-2005>
-403.676574707031

> <r_mmod_Solvation_Energy-OPLS-2005>
-239.658157348633

> <b_mmod_Minimization_Converged-OPLS-2005>
0

> <r_mmod_RMS_Derivative-OPLS-2005>
5.87843894958496

$$$$
49
                    3D
 Structure written by MMmdl.
161170  0  0  1  0            999 V2000
  -30.6791  -14.5311   20.5046 C   0  0  0  0  0  0
  -30.4261  -12.3147   19.4336 C   0  0  0  0  0  0
  -29.4950  -12.4693   18.2114 C   0  0  0  0  0  0
  -28.0202  -12.3200   18.6349 C   0  0  0  0  0  0
  -27.6568  -13.1926   19.8637 C   0  0  2  0  0  0
  -28.7054  -13.0314   20.9877 C   0  0  0  0  0  0
  -25.2522  -13.8024   20.5610 C   0  0  0  0  0  0
  -24.1815  -13.0320   20.9233 C   0  0  0  0  0  0
  -24.6408  -11.6816   20.8838 C   0  0  0  0  0  0
  -23.9081  -10.4209   21.0475 C   0  0  0  0  0  0
  -24.3621   -9.4115   21.9252 C   0  0  0  0  0  0
  -23.6278   -8.2156   22.0787 C   0  0  0  0  0  0
  -22.4262   -8.0235   21.3553 C   0  0  0  0  0  0
  -21.9916   -9.0216   20.4660 C   0  0  0  0  0  0
  -22.7261  -10.2093   20.3102 C   0  0  0  0  0  0
  -21.6816   -6.0729   22.5284 C   0  0  0  0  0  0
  -21.3972   -6.5636   23.8213 C   0  0  0  0  0  0
  -21.3670   -5.6800   24.9181 C   0  0  0  0  0  0
  -21.6034   -4.3057   24.7227 C   0  0  0  0  0  0
  -21.8810   -3.8147   23.4346 C   0  0  0  0  0  0
  -21.9173   -4.6965   22.3404 C   0  0  0  0  0  0
  -22.7836  -13.5148   21.1843 C   0  0  0  0  0  0
  -22.1637   -4.2142   21.0982 F   0  0  0  0  0  0
  -21.5676   -3.4552   25.7752 F   0  0  0  0  0  0
  -30.0292  -13.3349   20.4202 N   0  0  0  0  0  0
  -26.3007  -12.9230   20.3358 N   0  0  0  0  0  0
  -25.9343  -11.6400   20.5888 N   0  0  0  0  0  0
  -22.0459  -12.8182   22.0429 N   0  0  0  0  0  0
  -25.4010  -15.1692   20.3759 N   0  0  0  0  0  0
  -31.8401  -14.6691   20.1163 O   0  0  0  0  0  0
  -21.6594   -6.8863   21.4247 O   0  0  0  0  0  0
  -22.3528  -14.5436   20.6667 O   0  0  0  0  0  0
  -24.6203  -31.8623   23.2044 C   0  0  0  0  0  0
  -25.9067  -32.4795   23.8370 C   0  0  1  0  0  0
  -27.2298  -27.3867   20.0929 C   0  0  0  0  0  0
  -25.5883  -33.8598   24.2307 N   0  0  0  0  0  0
  -23.4127  -30.4844   21.5443 C   0  0  2  0  0  0
  -24.8526  -28.9374   20.1170 C   0  0  0  0  0  0
  -22.7467  -29.4650   22.5004 C   0  0  0  0  0  0
  -18.0277  -28.1388   22.8447 C   0  0  0  0  0  0
  -24.1493  -36.7324   23.2638 C   0  0  0  0  0  0
  -25.9427  -30.8105   21.3644 C   0  0  0  0  0  0
  -26.0143  -29.4389   20.7152 C   0  0  0  0  0  0
  -27.2010  -28.6682   20.7037 C   0  0  0  0  0  0
  -26.0425  -26.9058   19.4932 C   0  0  0  0  0  0
  -24.8630  -27.6716   19.5080 C   0  0  0  0  0  0
  -23.6241  -29.8126   20.1603 C   0  0  0  0  0  0
  -25.4112  -36.3103   24.0337 C   0  0  1  0  0  0
  -20.5883  -28.3706   23.1293 C   0  0  2  0  0  0
  -20.6767  -26.9407   22.5407 C   0  0  0  0  0  0
  -19.5755  -26.6397   21.5199 C   0  0  0  0  0  0
  -18.1927  -26.7933   22.1577 C   0  0  0  0  0  0
  -19.1534  -28.8844   23.2875 C   0  0  0  0  0  0
  -18.9462  -30.1436   23.8895 C   0  0  0  0  0  0
  -17.6466  -30.6592   24.0572 C   0  0  0  0  0  0
  -25.9043  -34.9461   23.5146 C   0  0  0  0  0  0
  -16.5370  -29.9104   23.6326 C   0  0  0  0  0  0
  -16.7272  -28.6524   23.0339 C   0  0  0  0  0  0
  -26.4477  -31.6584   25.0727 C   0  0  0  0  0  0
  -25.3739  -31.3708   26.1485 C   0  0  0  0  0  0
  -27.0323  -30.3013   24.6138 C   0  0  0  0  0  0
  -27.6041  -32.4320   25.7494 C   0  0  0  0  0  0
  -27.5580  -37.1820   24.8460 C   0  0  0  0  0  0
  -21.4189  -29.3066   22.3710 N   0  0  0  0  0  0
  -26.4296  -37.3785   23.9399 N   0  0  0  0  0  0
  -24.6769  -31.0692   22.0957 N   0  0  0  0  0  0
  -23.4219  -28.8206   23.3092 O   0  0  0  0  0  0
  -28.4099  -26.6591   20.1128 O   0  0  0  0  0  0
  -26.5613  -34.8924   22.4718 O   0  0  0  0  0  0
  -23.5369  -32.1385   23.7385 O   0  0  0  0  0  0
  -31.6876  -18.9223   20.9869 C   0  0  0  0  0  0
  -30.6144  -19.8245   20.8662 C   0  0  0  0  0  0
  -31.4633  -17.5320   20.9662 C   0  0  0  0  0  0
  -29.2942  -19.3596   20.6892 C   0  0  0  0  0  0
  -29.0802  -17.9419   20.6165 C   0  0  0  0  0  0
  -30.1598  -17.0115   20.7860 C   0  0  0  0  0  0
  -27.9959  -22.7613   19.8123 C   0  0  0  0  0  0
  -28.6794  -23.9579   21.7513 C   0  0  0  0  0  0
  -28.5815  -22.4447   22.0262 C   0  0  0  0  0  0
  -27.9353  -24.1741   20.4283 C   0  0  1  0  0  0
  -27.6841  -17.3951   20.3521 C   0  0  0  0  0  0
  -28.1122  -20.3630   20.5984 C   0  0  0  0  0  0
  -28.4839  -25.3320   19.5367 C   0  0  0  0  0  0
  -28.3525  -21.8275   20.7214 N   0  0  0  0  0  0
  -29.8957  -15.5888   20.8406 N   0  0  0  0  0  0
  -27.6717  -22.5308   18.6431 O   0  0  0  0  0  0
  -31.4711  -12.4028   19.1314 H   0  0  0  0  0  0
  -30.3227  -11.3201   19.8729 H   0  0  0  0  0  0
  -29.7382  -11.7224   17.4530 H   0  0  0  0  0  0
  -29.6490  -13.4437   17.7451 H   0  0  0  0  0  0
  -27.8539  -11.2702   18.8767 H   0  0  0  0  0  0
  -27.3583  -12.5433   17.7970 H   0  0  0  0  0  0
  -27.6810  -14.2242   19.5181 H   0  0  0  0  0  0
  -28.7082  -12.0108   21.3706 H   0  0  0  0  0  0
  -28.4729  -13.6670   21.8418 H   0  0  0  0  0  0
  -25.2768   -9.5549   22.4839 H   0  0  0  0  0  0
  -23.9962   -7.4522   22.7503 H   0  0  0  0  0  0
  -21.0839   -8.8742   19.8958 H   0  0  0  0  0  0
  -22.3736  -10.9654   19.6213 H   0  0  0  0  0  0
  -21.1927   -7.6141   23.9708 H   0  0  0  0  0  0
  -21.1525   -6.0538   25.9089 H   0  0  0  0  0  0
  -22.0586   -2.7609   23.2841 H   0  0  0  0  0  0
  -22.4014  -11.9841   22.4874 H   0  0  0  0  0  0
  -21.1121  -13.1309   22.2669 H   0  0  0  0  0  0
  -24.5848  -15.7721   20.3771 H   0  0  0  0  0  0
  -26.1820  -15.5722   19.8772 H   0  0  0  0  0  0
  -26.7136  -32.5484   23.1116 H   0  0  0  0  0  0
  -24.9999  -33.9717   25.0432 H   0  0  0  0  0  0
  -22.7031  -31.3003   21.3963 H   0  0  0  0  0  0
  -23.3730  -35.9682   23.3319 H   0  0  0  0  0  0
  -24.3561  -36.8932   22.2045 H   0  0  0  0  0  0
  -23.7297  -37.6561   23.6641 H   0  0  0  0  0  0
  -26.0629  -31.5689   20.5871 H   0  0  0  0  0  0
  -26.8273  -30.8621   21.9895 H   0  0  0  0  0  0
  -28.0950  -29.0520   21.1755 H   0  0  0  0  0  0
  -25.9969  -25.9414   19.0108 H   0  0  0  0  0  0
  -23.9694  -27.2751   19.0440 H   0  0  0  0  0  0
  -23.7561  -30.5826   19.3998 H   0  0  0  0  0  0
  -22.7471  -29.2394   19.8561 H   0  0  0  0  0  0
  -25.1281  -36.1964   25.0826 H   0  0  0  0  0  0
  -21.0001  -28.3275   24.1416 H   0  0  0  0  0  0
  -21.6625  -26.7364   22.1200 H   0  0  0  0  0  0
  -20.5613  -26.2323   23.3630 H   0  0  0  0  0  0
  -19.6925  -25.6316   21.1222 H   0  0  0  0  0  0
  -19.6673  -27.3210   20.6720 H   0  0  0  0  0  0
  -17.4190  -26.6643   21.3986 H   0  0  0  0  0  0
  -18.0354  -26.0053   22.8968 H   0  0  0  0  0  0
  -19.7958  -30.7213   24.2284 H   0  0  0  0  0  0
  -17.5023  -31.6249   24.5213 H   0  0  0  0  0  0
  -15.5368  -30.3010   23.7658 H   0  0  0  0  0  0
  -15.8651  -28.0876   22.7039 H   0  0  0  0  0  0
  -24.5865  -30.7103   25.7825 H   0  0  0  0  0  0
  -24.8993  -32.2895   26.4946 H   0  0  0  0  0  0
  -25.8065  -30.8854   27.0256 H   0  0  0  0  0  0
  -26.2895  -29.6769   24.1164 H   0  0  0  0  0  0
  -27.4063  -29.7215   25.4594 H   0  0  0  0  0  0
  -27.8732  -30.4306   23.9321 H   0  0  0  0  0  0
  -27.2619  -33.3570   26.2136 H   0  0  0  0  0  0
  -28.3812  -32.6981   25.0317 H   0  0  0  0  0  0
  -28.0786  -31.8460   26.5374 H   0  0  0  0  0  0
  -28.2607  -38.0104   24.7475 H   0  0  0  0  0  0
  -28.1067  -36.2636   24.6318 H   0  0  0  0  0  0
  -27.2284  -37.1520   25.8860 H   0  0  0  0  0  0
  -20.9431  -29.8893   21.6946 H   0  0  0  0  0  0
  -26.0184  -38.2873   24.1370 H   0  0  0  0  0  0
  -32.6943  -19.2990   21.1183 H   0  0  0  0  0  0
  -30.8232  -20.8821   20.9171 H   0  0  0  0  0  0
  -32.3152  -16.8824   21.1061 H   0  0  0  0  0  0
  -29.7247  -24.2524   21.6452 H   0  0  0  0  0  0
  -28.2565  -24.5568   22.5595 H   0  0  0  0  0  0
  -27.7280  -22.2346   22.6730 H   0  0  0  0  0  0
  -29.4776  -22.0635   22.5186 H   0  0  0  0  0  0
  -26.8809  -24.3576   20.6414 H   0  0  0  0  0  0
  -27.0347  -18.0825   19.8124 H   0  0  0  0  0  0
  -27.1999  -17.1309   21.2919 H   0  0  0  0  0  0
  -27.7461  -16.5056   19.7276 H   0  0  0  0  0  0
  -27.4003  -20.1011   21.3816 H   0  0  0  0  0  0
  -27.5928  -20.1785   19.6571 H   0  0  0  0  0  0
  -28.0164  -25.3173   18.5514 H   0  0  0  0  0  0
  -29.5399  -25.1477   19.3388 H   0  0  0  0  0  0
  -28.9418  -15.3346   21.0425 H   0  0  0  0  0  0
  1 25  1  0  0  0
  1 30  2  0  0  0
  1 85  1  0  0  0
  2  3  1  0  0  0
  2 25  1  0  0  0
  2 87  1  0  0  0
  2 88  1  0  0  0
  3  4  1  0  0  0
  3 89  1  0  0  0
  3 90  1  0  0  0
  4  5  1  0  0  0
  4 91  1  0  0  0
  4 92  1  0  0  0
  5  6  1  0  0  0
  5 26  1  0  0  0
  5 93  1  0  0  0
  6 25  1  0  0  0
  6 94  1  0  0  0
  6 95  1  0  0  0
  7  8  2  0  0  0
  7 26  1  0  0  0
  7 29  1  0  0  0
  8  9  1  0  0  0
  8 22  1  0  0  0
  9 10  1  0  0  0
  9 27  2  0  0  0
 10 11  2  0  0  0
 10 15  1  0  0  0
 11 12  1  0  0  0
 11 96  1  0  0  0
 12 13  2  0  0  0
 12 97  1  0  0  0
 13 14  1  0  0  0
 13 31  1  0  0  0
 14 15  2  0  0  0
 14 98  1  0  0  0
 15 99  1  0  0  0
 16 17  2  0  0  0
 16 21  1  0  0  0
 16 31  1  0  0  0
 17 18  1  0  0  0
 17100  1  0  0  0
 18 19  2  0  0  0
 18101  1  0  0  0
 19 20  1  0  0  0
 19 24  1  0  0  0
 20 21  2  0  0  0
 20102  1  0  0  0
 21 23  1  0  0  0
 22 28  1  0  0  0
 22 32  2  0  0  0
 26 27  1  0  0  0
 28103  1  0  0  0
 28104  1  0  0  0
 29105  1  0  0  0
 29106  1  0  0  0
 33 34  1  0  0  0
 33 66  1  0  0  0
 33 70  2  0  0  0
 34 36  1  0  0  0
 34 59  1  0  0  0
 34107  1  0  0  0
 35 44  2  0  0  0
 35 45  1  0  0  0
 35 68  1  0  0  0
 36 56  1  0  0  0
 36108  1  0  0  0
 37 39  1  0  0  0
 37 47  1  0  0  0
 37 66  1  0  0  0
 37109  1  0  0  0
 38 43  2  0  0  0
 38 46  1  0  0  0
 38 47  1  0  0  0
 39 64  1  0  0  0
 39 67  2  0  0  0
 40 52  1  0  0  0
 40 53  2  0  0  0
 40 58  1  0  0  0
 41110  1  0  0  0
 41111  1  0  0  0
 41112  1  0  0  0
 41 48  1  0  0  0
 42 43  1  0  0  0
 42 66  1  0  0  0
 42113  1  0  0  0
 42114  1  0  0  0
 43 44  1  0  0  0
 44115  1  0  0  0
 45 46  2  0  0  0
 45116  1  0  0  0
 46117  1  0  0  0
 47118  1  0  0  0
 47119  1  0  0  0
 48 56  1  0  0  0
 48 65  1  0  0  0
 48120  1  0  0  0
 49 50  1  0  0  0
 49 53  1  0  0  0
 49 64  1  0  0  0
 49121  1  0  0  0
 50 51  1  0  0  0
 50122  1  0  0  0
 50123  1  0  0  0
 51 52  1  0  0  0
 51124  1  0  0  0
 51125  1  0  0  0
 52126  1  0  0  0
 52127  1  0  0  0
 53 54  1  0  0  0
 54 55  2  0  0  0
 54128  1  0  0  0
 55 57  1  0  0  0
 55129  1  0  0  0
 56 69  2  0  0  0
 57 58  2  0  0  0
 57130  1  0  0  0
 58131  1  0  0  0
 59 60  1  0  0  0
 59 61  1  0  0  0
 59 62  1  0  0  0
 60132  1  0  0  0
 60133  1  0  0  0
 60134  1  0  0  0
 61135  1  0  0  0
 61136  1  0  0  0
 61137  1  0  0  0
 62138  1  0  0  0
 62139  1  0  0  0
 62140  1  0  0  0
 63 65  1  0  0  0
 63141  1  0  0  0
 63142  1  0  0  0
 63143  1  0  0  0
 64144  1  0  0  0
 65145  1  0  0  0
 68 83  1  0  0  0
 71 72  2  0  0  0
 71 73  1  0  0  0
 71146  1  0  0  0
 72 74  1  0  0  0
 72147  1  0  0  0
 73 76  2  0  0  0
 73148  1  0  0  0
 74 75  2  0  0  0
 74 82  1  0  0  0
 75 76  1  0  0  0
 75 81  1  0  0  0
 76 85  1  0  0  0
 77 80  1  0  0  0
 77 84  1  0  0  0
 77 86  2  0  0  0
 78 79  1  0  0  0
 78 80  1  0  0  0
 78149  1  0  0  0
 78150  1  0  0  0
 79 84  1  0  0  0
 79151  1  0  0  0
 79152  1  0  0  0
 80 83  1  0  0  0
 80153  1  0  0  0
 81154  1  0  0  0
 81155  1  0  0  0
 81156  1  0  0  0
 82 84  1  0  0  0
 82157  1  0  0  0
 82158  1  0  0  0
 83159  1  0  0  0
 83160  1  0  0  0
 85161  1  0  0  0
M  ISO  4   1 100  68 101  83 101  85 100
M  END
> <chiral flag>
0

> <version>
0

> <s_m_source_file>
/data/baiqing/PycharmProjects/Reinvent-master-3.2/result/LINK_invent/BTK/process_docking_weight1_custom_product_contain_oxygen_bond_distance_aromatic_linkinvent_7_9_3/rearranged_h_0063.sdf

> <i_m_source_file_index>
49

> <r_mmod_Potential_Energy-OPLS-2005>
-9.93417835235596

> <r_mmod_Stretch_Energy-OPLS-2005>
51.2833518981934

> <r_mmod_Bend_Energy-OPLS-2005>
140.732955932617

> <r_mmod_Torsional_Energy-OPLS-2005>
234.642852783203

> <r_mmod_Improper_Torsional_Energy-OPLS-2005>
8.00111103057861

> <r_mmod_Van_der_Waal_Energy-OPLS-2005>
150.415191650391

> <r_mmod_Electrostatic_Energy-OPLS-2005>
-395.608215332031

> <r_mmod_Solvation_Energy-OPLS-2005>
-222.681503295898

> <b_mmod_Minimization_Converged-OPLS-2005>
0

> <r_mmod_RMS_Derivative-OPLS-2005>
4.8485951423645

$$$$
50
                    3D
 Structure written by MMmdl.
159168  0  0  1  0            999 V2000
  -30.6206  -14.6385   20.4973 C   0  0  0  0  0  0
  -30.4405  -12.3908   19.4481 C   0  0  0  0  0  0
  -29.5076  -12.5038   18.2213 C   0  0  0  0  0  0
  -28.0307  -12.3414   18.6344 C   0  0  0  0  0  0
  -27.6534  -13.2130   19.8613 C   0  0  2  0  0  0
  -28.6994  -13.0680   20.9902 C   0  0  0  0  0  0
  -25.2565  -13.8161   20.5661 C   0  0  0  0  0  0
  -24.1834  -13.0435   20.9193 C   0  0  0  0  0  0
  -24.6395  -11.6905   20.8743 C   0  0  0  0  0  0
  -23.9060  -10.4290   21.0411 C   0  0  0  0  0  0
  -24.3617   -9.4205   21.9186 C   0  0  0  0  0  0
  -23.6290   -8.2241   22.0756 C   0  0  0  0  0  0
  -22.4270   -8.0282   21.3546 C   0  0  0  0  0  0
  -21.9903   -9.0258   20.4652 C   0  0  0  0  0  0
  -22.7233  -10.2135   20.3062 C   0  0  0  0  0  0
  -21.6854   -6.0729   22.5275 C   0  0  0  0  0  0
  -21.4017   -6.5636   23.8209 C   0  0  0  0  0  0
  -21.3656   -5.6788   24.9170 C   0  0  0  0  0  0
  -21.6042   -4.3050   24.7223 C   0  0  0  0  0  0
  -21.8821   -3.8142   23.4344 C   0  0  0  0  0  0
  -21.9195   -4.6958   22.3400 C   0  0  0  0  0  0
  -22.7856  -13.5234   21.1849 C   0  0  0  0  0  0
  -22.1665   -4.2142   21.0977 F   0  0  0  0  0  0
  -21.5625   -3.4536   25.7737 F   0  0  0  0  0  0
  -30.0149  -13.4110   20.4257 N   0  0  0  0  0  0
  -26.2988  -12.9332   20.3299 N   0  0  0  0  0  0
  -25.9322  -11.6493   20.5755 N   0  0  0  0  0  0
  -22.0496  -12.8241   22.0413 N   0  0  0  0  0  0
  -25.4275  -15.1881   20.4019 N   0  0  0  0  0  0
  -31.7890  -14.8002   20.1322 O   0  0  0  0  0  0
  -21.6639   -6.8877   21.4237 O   0  0  0  0  0  0
  -22.3542  -14.5537   20.6687 O   0  0  0  0  0  0
  -24.6255  -31.8610   23.2030 C   0  0  0  0  0  0
  -25.9106  -32.4782   23.8357 C   0  0  1  0  0  0
  -27.2281  -27.3275   20.1094 C   0  0  0  0  0  0
  -25.5929  -33.8583   24.2288 N   0  0  0  0  0  0
  -23.4192  -30.4850   21.5458 C   0  0  2  0  0  0
  -24.8657  -28.9427   20.1128 C   0  0  0  0  0  0
  -22.7473  -29.4626   22.4932 C   0  0  0  0  0  0
  -18.0291  -28.1383   22.8483 C   0  0  0  0  0  0
  -24.1493  -36.7294   23.2633 C   0  0  0  0  0  0
  -25.9611  -30.7937   21.3744 C   0  0  0  0  0  0
  -26.0359  -29.4227   20.7145 C   0  0  0  0  0  0
  -27.2203  -28.6275   20.7019 C   0  0  0  0  0  0
  -26.0301  -26.8993   19.4889 C   0  0  0  0  0  0
  -24.8644  -27.6855   19.4928 C   0  0  0  0  0  0
  -23.6338  -29.8217   20.1612 C   0  0  0  0  0  0
  -25.4115  -36.3084   24.0327 C   0  0  1  0  0  0
  -20.5890  -28.3685   23.1281 C   0  0  2  0  0  0
  -20.6780  -26.9406   22.5411 C   0  0  0  0  0  0
  -19.5756  -26.6378   21.5211 C   0  0  0  0  0  0
  -18.1935  -26.7924   22.1622 C   0  0  0  0  0  0
  -19.1542  -28.8850   23.2879 C   0  0  0  0  0  0
  -18.9461  -30.1451   23.8895 C   0  0  0  0  0  0
  -17.6462  -30.6581   24.0562 C   0  0  0  0  0  0
  -25.9052  -34.9452   23.5107 C   0  0  0  0  0  0
  -16.5356  -29.9080   23.6325 C   0  0  0  0  0  0
  -16.7278  -28.6501   23.0345 C   0  0  0  0  0  0
  -26.4492  -31.6585   25.0720 C   0  0  0  0  0  0
  -25.3732  -31.3747   26.1458 C   0  0  0  0  0  0
  -27.0311  -30.2995   24.6174 C   0  0  0  0  0  0
  -27.6064  -32.4311   25.7482 C   0  0  0  0  0  0
  -27.5589  -37.1793   24.8454 C   0  0  0  0  0  0
  -21.4187  -29.3041   22.3674 N   0  0  0  0  0  0
  -26.4293  -37.3778   23.9411 N   0  0  0  0  0  0
  -24.6874  -31.0628   22.0980 N   0  0  0  0  0  0
  -23.4200  -28.8161   23.3004 O   0  0  0  0  0  0
  -28.3523  -26.4858   20.1477 O   0  0  0  0  0  0
  -26.5616  -34.8916   22.4670 O   0  0  0  0  0  0
  -23.5420  -32.1405   23.7362 O   0  0  0  0  0  0
  -31.1470  -19.2847   20.6029 C   0  0  0  0  0  0
  -28.7498  -19.3576   20.6808 C   0  0  0  0  0  0
  -31.1263  -17.8582   20.6277 C   0  0  0  0  0  0
  -28.7264  -17.9303   20.7199 C   0  0  0  0  0  0
  -29.9672  -20.0852   20.6476 C   0  0  0  0  0  0
  -29.9076  -17.1368   20.7030 C   0  0  0  0  0  0
  -31.2284  -23.4052   21.8678 C   0  0  0  0  0  0
  -30.0424  -24.3564   21.6483 C   0  0  0  0  0  0
  -30.7737  -21.9383   21.9390 C   0  0  0  0  0  0
  -28.9297  -22.4487   20.3661 C   0  0  0  0  0  0
  -29.3106  -24.0065   20.3441 C   0  0  1  0  0  0
  -28.1193  -25.0246   20.0753 C   0  0  0  0  0  0
  -30.0521  -21.5226   20.7299 N   0  0  0  0  0  0
  -29.7881  -15.6822   20.8070 N   0  0  0  0  0  0
  -31.4808  -12.5203   19.1439 H   0  0  0  0  0  0
  -30.3790  -11.3950   19.8900 H   0  0  0  0  0  0
  -29.7714  -11.7512   17.4771 H   0  0  0  0  0  0
  -29.6487  -13.4725   17.7388 H   0  0  0  0  0  0
  -27.8688  -11.2883   18.8678 H   0  0  0  0  0  0
  -27.3754  -12.5692   17.7929 H   0  0  0  0  0  0
  -27.6701  -14.2472   19.5178 H   0  0  0  0  0  0
  -28.7109  -12.0459   21.3714 H   0  0  0  0  0  0
  -28.4462  -13.6995   21.8435 H   0  0  0  0  0  0
  -25.2768   -9.5672   22.4756 H   0  0  0  0  0  0
  -23.9998   -7.4630   22.7473 H   0  0  0  0  0  0
  -21.0830   -8.8783   19.8963 H   0  0  0  0  0  0
  -22.3698  -10.9679   19.6169 H   0  0  0  0  0  0
  -21.2014   -7.6144   23.9712 H   0  0  0  0  0  0
  -21.1472   -6.0517   25.9073 H   0  0  0  0  0  0
  -22.0604   -2.7603   23.2849 H   0  0  0  0  0  0
  -22.4113  -11.9908   22.4811 H   0  0  0  0  0  0
  -21.1119  -13.1280   22.2624 H   0  0  0  0  0  0
  -24.6509  -15.8355   20.4845 H   0  0  0  0  0  0
  -26.2544  -15.6136   20.0042 H   0  0  0  0  0  0
  -26.7170  -32.5458   23.1106 H   0  0  0  0  0  0
  -25.0085  -33.9730   25.0439 H   0  0  0  0  0  0
  -22.7125  -31.3051   21.4033 H   0  0  0  0  0  0
  -23.3752  -35.9629   23.3293 H   0  0  0  0  0  0
  -24.3589  -36.8916   22.2049 H   0  0  0  0  0  0
  -23.7244  -37.6495   23.6655 H   0  0  0  0  0  0
  -26.0944  -31.5594   20.6087 H   0  0  0  0  0  0
  -26.8407  -30.8399   22.0049 H   0  0  0  0  0  0
  -28.1189  -28.9921   21.1799 H   0  0  0  0  0  0
  -25.9608  -25.9421   18.9959 H   0  0  0  0  0  0
  -23.9670  -27.3121   19.0186 H   0  0  0  0  0  0
  -23.7531  -30.5987   19.4052 H   0  0  0  0  0  0
  -22.7542  -29.2511   19.8576 H   0  0  0  0  0  0
  -25.1289  -36.1939   25.0816 H   0  0  0  0  0  0
  -20.9985  -28.3266   24.1402 H   0  0  0  0  0  0
  -20.5680  -26.2291   23.3611 H   0  0  0  0  0  0
  -21.6651  -26.7436   22.1205 H   0  0  0  0  0  0
  -19.6919  -25.6290   21.1236 H   0  0  0  0  0  0
  -19.6693  -27.3191   20.6743 H   0  0  0  0  0  0
  -17.4203  -26.6665   21.4028 H   0  0  0  0  0  0
  -18.0339  -26.0068   22.9020 H   0  0  0  0  0  0
  -19.7937  -30.7270   24.2261 H   0  0  0  0  0  0
  -17.5014  -31.6260   24.5164 H   0  0  0  0  0  0
  -15.5355  -30.2983   23.7644 H   0  0  0  0  0  0
  -15.8680  -28.0820   22.7058 H   0  0  0  0  0  0
  -24.5885  -30.7115   25.7800 H   0  0  0  0  0  0
  -24.8953  -32.2930   26.4883 H   0  0  0  0  0  0
  -25.8057  -30.8922   27.0232 H   0  0  0  0  0  0
  -26.2873  -29.6764   24.1193 H   0  0  0  0  0  0
  -27.3987  -29.7235   25.4675 H   0  0  0  0  0  0
  -27.8760  -30.4260   23.9400 H   0  0  0  0  0  0
  -27.2681  -33.3605   26.2077 H   0  0  0  0  0  0
  -28.3863  -32.6885   25.0301 H   0  0  0  0  0  0
  -28.0744  -31.8425   26.5382 H   0  0  0  0  0  0
  -28.2589  -38.0109   24.7527 H   0  0  0  0  0  0
  -28.1103  -36.2641   24.6243 H   0  0  0  0  0  0
  -27.2313  -37.1398   25.8858 H   0  0  0  0  0  0
  -20.9358  -29.8771   21.6895 H   0  0  0  0  0  0
  -26.0175  -38.2848   24.1430 H   0  0  0  0  0  0
  -32.1121  -19.7693   20.5650 H   0  0  0  0  0  0
  -27.8096  -19.8875   20.7203 H   0  0  0  0  0  0
  -32.0687  -17.3296   20.6154 H   0  0  0  0  0  0
  -27.7629  -17.4439   20.7783 H   0  0  0  0  0  0
  -31.7433  -23.6702   22.7924 H   0  0  0  0  0  0
  -31.9590  -23.5292   21.0666 H   0  0  0  0  0  0
  -30.3976  -25.3872   21.6138 H   0  0  0  0  0  0
  -29.3537  -24.2918   22.4915 H   0  0  0  0  0  0
  -30.1213  -21.7986   22.8030 H   0  0  0  0  0  0
  -31.6513  -21.3164   22.1203 H   0  0  0  0  0  0
  -28.5391  -22.1610   19.3886 H   0  0  0  0  0  0
  -28.1152  -22.2943   21.0755 H   0  0  0  0  0  0
  -30.0231  -24.1481   19.5301 H   0  0  0  0  0  0
  -27.3148  -24.7793   20.7707 H   0  0  0  0  0  0
  -27.7490  -24.7894   19.0776 H   0  0  0  0  0  0
  -28.8626  -15.3606   21.0448 H   0  0  0  0  0  0
  1 25  1  0  0  0
  1 30  2  0  0  0
  1 84  1  0  0  0
  2  3  1  0  0  0
  2 25  1  0  0  0
  2 85  1  0  0  0
  2 86  1  0  0  0
  3  4  1  0  0  0
  3 87  1  0  0  0
  3 88  1  0  0  0
  4  5  1  0  0  0
  4 89  1  0  0  0
  4 90  1  0  0  0
  5  6  1  0  0  0
  5 26  1  0  0  0
  5 91  1  0  0  0
  6 25  1  0  0  0
  6 92  1  0  0  0
  6 93  1  0  0  0
  7  8  2  0  0  0
  7 26  1  0  0  0
  7 29  1  0  0  0
  8  9  1  0  0  0
  8 22  1  0  0  0
  9 10  1  0  0  0
  9 27  2  0  0  0
 10 11  2  0  0  0
 10 15  1  0  0  0
 11 12  1  0  0  0
 11 94  1  0  0  0
 12 13  2  0  0  0
 12 95  1  0  0  0
 13 14  1  0  0  0
 13 31  1  0  0  0
 14 15  2  0  0  0
 14 96  1  0  0  0
 15 97  1  0  0  0
 16 17  2  0  0  0
 16 21  1  0  0  0
 16 31  1  0  0  0
 17 18  1  0  0  0
 17 98  1  0  0  0
 18 19  2  0  0  0
 18 99  1  0  0  0
 19 20  1  0  0  0
 19 24  1  0  0  0
 20 21  2  0  0  0
 20100  1  0  0  0
 21 23  1  0  0  0
 22 28  1  0  0  0
 22 32  2  0  0  0
 26 27  1  0  0  0
 28101  1  0  0  0
 28102  1  0  0  0
 29103  1  0  0  0
 29104  1  0  0  0
 33 34  1  0  0  0
 33 66  1  0  0  0
 33 70  2  0  0  0
 34 36  1  0  0  0
 34 59  1  0  0  0
 34105  1  0  0  0
 35 44  2  0  0  0
 35 45  1  0  0  0
 35 68  1  0  0  0
 36 56  1  0  0  0
 36106  1  0  0  0
 37 39  1  0  0  0
 37 47  1  0  0  0
 37 66  1  0  0  0
 37107  1  0  0  0
 38 43  2  0  0  0
 38 46  1  0  0  0
 38 47  1  0  0  0
 39 64  1  0  0  0
 39 67  2  0  0  0
 40 52  1  0  0  0
 40 53  2  0  0  0
 40 58  1  0  0  0
 41108  1  0  0  0
 41109  1  0  0  0
 41110  1  0  0  0
 41 48  1  0  0  0
 42 43  1  0  0  0
 42 66  1  0  0  0
 42111  1  0  0  0
 42112  1  0  0  0
 43 44  1  0  0  0
 44113  1  0  0  0
 45 46  2  0  0  0
 45114  1  0  0  0
 46115  1  0  0  0
 47116  1  0  0  0
 47117  1  0  0  0
 48 56  1  0  0  0
 48 65  1  0  0  0
 48118  1  0  0  0
 49 50  1  0  0  0
 49 53  1  0  0  0
 49 64  1  0  0  0
 49119  1  0  0  0
 50 51  1  0  0  0
 50120  1  0  0  0
 50121  1  0  0  0
 51 52  1  0  0  0
 51122  1  0  0  0
 51123  1  0  0  0
 52124  1  0  0  0
 52125  1  0  0  0
 53 54  1  0  0  0
 54 55  2  0  0  0
 54126  1  0  0  0
 55 57  1  0  0  0
 55127  1  0  0  0
 56 69  2  0  0  0
 57 58  2  0  0  0
 57128  1  0  0  0
 58129  1  0  0  0
 59 60  1  0  0  0
 59 61  1  0  0  0
 59 62  1  0  0  0
 60130  1  0  0  0
 60131  1  0  0  0
 60132  1  0  0  0
 61133  1  0  0  0
 61134  1  0  0  0
 61135  1  0  0  0
 62136  1  0  0  0
 62137  1  0  0  0
 62138  1  0  0  0
 63 65  1  0  0  0
 63139  1  0  0  0
 63140  1  0  0  0
 63141  1  0  0  0
 64142  1  0  0  0
 65143  1  0  0  0
 68 82  1  0  0  0
 71 73  2  0  0  0
 71 75  1  0  0  0
 71144  1  0  0  0
 72 74  1  0  0  0
 72 75  2  0  0  0
 72145  1  0  0  0
 73 76  1  0  0  0
 73146  1  0  0  0
 74 76  2  0  0  0
 74147  1  0  0  0
 75 83  1  0  0  0
 76 84  1  0  0  0
 77 78  1  0  0  0
 77 79  1  0  0  0
 77148  1  0  0  0
 77149  1  0  0  0
 78 81  1  0  0  0
 78150  1  0  0  0
 78151  1  0  0  0
 79 83  1  0  0  0
 79152  1  0  0  0
 79153  1  0  0  0
 80 81  1  0  0  0
 80 83  1  0  0  0
 80154  1  0  0  0
 80155  1  0  0  0
 81 82  1  0  0  0
 81156  1  0  0  0
 82157  1  0  0  0
 82158  1  0  0  0
 84159  1  0  0  0
M  ISO  4   1 100  68 101  82 101  84 100
M  END
> <chiral flag>
0

> <version>
0

> <s_m_source_file>
/data/baiqing/PycharmProjects/Reinvent-master-3.2/result/LINK_invent/BTK/process_docking_weight1_custom_product_contain_oxygen_bond_distance_aromatic_linkinvent_7_9_3/rearranged_h_0063.sdf

> <i_m_source_file_index>
50

> <r_mmod_Potential_Energy-OPLS-2005>
68.6117706298828

> <r_mmod_Stretch_Energy-OPLS-2005>
79.2566528320312

> <r_mmod_Bend_Energy-OPLS-2005>
139.449142456055

> <r_mmod_Torsional_Energy-OPLS-2005>
248.970016479492

> <r_mmod_Improper_Torsional_Energy-OPLS-2005>
8.59434032440186

> <r_mmod_Van_der_Waal_Energy-OPLS-2005>
151.917037963867

> <r_mmod_Electrostatic_Energy-OPLS-2005>
-382.694854736328

> <r_mmod_Solvation_Energy-OPLS-2005>
-223.40283203125

> <b_mmod_Minimization_Converged-OPLS-2005>
0

> <r_mmod_RMS_Derivative-OPLS-2005>
0.75936496257782

$$$$
51
                    3D
 Structure written by MMmdl.
158167  0  0  1  0            999 V2000
  -30.7309  -14.4476   20.5951 C   0  0  0  0  0  0
  -30.4154  -12.3039   19.4148 C   0  0  0  0  0  0
  -29.4870  -12.5021   18.2006 C   0  0  0  0  0  0
  -28.0099  -12.3653   18.6168 C   0  0  0  0  0  0
  -27.6592  -13.2078   19.8729 C   0  0  2  0  0  0
  -28.7020  -12.9957   20.9928 C   0  0  0  0  0  0
  -25.2581  -13.8168   20.5680 C   0  0  0  0  0  0
  -24.1835  -13.0445   20.9182 C   0  0  0  0  0  0
  -24.6390  -11.6912   20.8744 C   0  0  0  0  0  0
  -23.9059  -10.4296   21.0412 C   0  0  0  0  0  0
  -24.3614   -9.4210   21.9190 C   0  0  0  0  0  0
  -23.6292   -8.2244   22.0757 C   0  0  0  0  0  0
  -22.4275   -8.0283   21.3547 C   0  0  0  0  0  0
  -21.9908   -9.0256   20.4649 C   0  0  0  0  0  0
  -22.7233  -10.2137   20.3062 C   0  0  0  0  0  0
  -21.6852   -6.0739   22.5282 C   0  0  0  0  0  0
  -21.4009   -6.5641   23.8215 C   0  0  0  0  0  0
  -21.3657   -5.6794   24.9177 C   0  0  0  0  0  0
  -21.6046   -4.3060   24.7225 C   0  0  0  0  0  0
  -21.8819   -3.8151   23.4347 C   0  0  0  0  0  0
  -21.9191   -4.6967   22.3407 C   0  0  0  0  0  0
  -22.7856  -13.5244   21.1844 C   0  0  0  0  0  0
  -22.1661   -4.2154   21.0985 F   0  0  0  0  0  0
  -21.5628   -3.4545   25.7737 F   0  0  0  0  0  0
  -30.0307  -13.2927   20.4342 N   0  0  0  0  0  0
  -26.3015  -12.9335   20.3367 N   0  0  0  0  0  0
  -25.9316  -11.6494   20.5780 N   0  0  0  0  0  0
  -22.0498  -12.8238   22.0400 N   0  0  0  0  0  0
  -25.4313  -15.1885   20.4065 N   0  0  0  0  0  0
  -31.8496  -14.6172   20.1014 O   0  0  0  0  0  0
  -21.6642   -6.8882   21.4244 O   0  0  0  0  0  0
  -22.3542  -14.5557   20.6703 O   0  0  0  0  0  0
  -24.6150  -31.8682   23.2092 C   0  0  0  0  0  0
  -25.9043  -32.4822   23.8388 C   0  0  1  0  0  0
  -27.2299  -27.4199   20.0786 C   0  0  0  0  0  0
  -25.5900  -33.8620   24.2317 N   0  0  0  0  0  0
  -23.4022  -30.4936   21.5514 C   0  0  2  0  0  0
  -24.8432  -28.9628   20.1101 C   0  0  0  0  0  0
  -22.7413  -29.4658   22.4986 C   0  0  0  0  0  0
  -18.0272  -28.1381   22.8489 C   0  0  0  0  0  0
  -24.1489  -36.7314   23.2639 C   0  0  0  0  0  0
  -25.9329  -30.8282   21.3643 C   0  0  0  0  0  0
  -26.0052  -29.4630   20.7078 C   0  0  0  0  0  0
  -27.1949  -28.6974   20.6931 C   0  0  0  0  0  0
  -26.0385  -26.9430   19.4773 C   0  0  0  0  0  0
  -24.8560  -27.7026   19.4937 C   0  0  0  0  0  0
  -23.6072  -29.8313   20.1636 C   0  0  0  0  0  0
  -25.4109  -36.3111   24.0342 C   0  0  1  0  0  0
  -20.5862  -28.3667   23.1317 C   0  0  2  0  0  0
  -20.6758  -26.9402   22.5420 C   0  0  0  0  0  0
  -19.5741  -26.6383   21.5217 C   0  0  0  0  0  0
  -18.1917  -26.7926   22.1619 C   0  0  0  0  0  0
  -19.1522  -28.8837   23.2910 C   0  0  0  0  0  0
  -18.9454  -30.1439   23.8929 C   0  0  0  0  0  0
  -17.6459  -30.6593   24.0563 C   0  0  0  0  0  0
  -25.9042  -34.9477   23.5129 C   0  0  0  0  0  0
  -16.5349  -29.9094   23.6326 C   0  0  0  0  0  0
  -16.7263  -28.6508   23.0353 C   0  0  0  0  0  0
  -26.4456  -31.6598   25.0718 C   0  0  0  0  0  0
  -25.3716  -31.3719   26.1466 C   0  0  0  0  0  0
  -27.0260  -30.3030   24.6086 C   0  0  0  0  0  0
  -27.6046  -32.4297   25.7476 C   0  0  0  0  0  0
  -27.5581  -37.1809   24.8468 C   0  0  0  0  0  0
  -21.4140  -29.3039   22.3730 N   0  0  0  0  0  0
  -26.4295  -37.3794   23.9409 N   0  0  0  0  0  0
  -24.6685  -31.0776   22.0996 N   0  0  0  0  0  0
  -23.4191  -28.8193   23.3019 O   0  0  0  0  0  0
  -28.4092  -26.6923   20.1551 O   0  0  0  0  0  0
  -26.5619  -34.8934   22.4702 O   0  0  0  0  0  0
  -23.5337  -32.1437   23.7480 O   0  0  0  0  0  0
  -32.4343  -17.9165   22.7614 C   0  0  0  0  0  0
  -31.9328  -19.1356   22.2735 C   0  0  0  0  0  0
  -31.8112  -16.7075   22.4087 C   0  0  0  0  0  0
  -30.1373  -17.9413   21.1208 C   0  0  0  0  0  0
  -30.7884  -19.1639   21.4419 C   0  0  0  0  0  0
  -30.6736  -16.7048   21.5712 C   0  0  0  0  0  0
  -30.7783  -22.6298   20.0942 C   0  0  0  0  0  0
  -29.7695  -23.1952   20.7898 C   0  0  0  0  0  0
  -31.1148  -21.2070   20.1626 C   0  0  0  0  0  0
  -28.5276  -25.3313   19.9639 C   0  0  0  0  0  0
  -28.8265  -22.3454   21.6232 C   0  0  0  0  0  0
  -28.9491  -20.8424   21.2875 C   0  0  0  0  0  0
  -29.5998  -24.7195   20.8813 C   0  0  0  0  0  0
  -30.3225  -20.4331   20.9597 N   0  0  0  0  0  0
  -30.0825  -15.4596   21.2060 N   0  0  0  0  0  0
  -32.0918  -20.7455   19.5623 O   0  0  0  0  0  0
  -27.8708  -24.6296   19.1900 O   0  0  0  0  0  0
  -31.4596  -12.3944   19.1102 H   0  0  0  0  0  0
  -30.3124  -11.2952   19.8172 H   0  0  0  0  0  0
  -29.7237  -11.7736   17.4240 H   0  0  0  0  0  0
  -29.6554  -13.4856   17.7597 H   0  0  0  0  0  0
  -27.8195  -11.3094   18.8142 H   0  0  0  0  0  0
  -27.3575  -12.6393   17.7864 H   0  0  0  0  0  0
  -27.7028  -14.2550   19.5729 H   0  0  0  0  0  0
  -28.6767  -11.9630   21.3448 H   0  0  0  0  0  0
  -28.4661  -13.6065   21.8649 H   0  0  0  0  0  0
  -25.2760   -9.5690   22.4760 H   0  0  0  0  0  0
  -24.0007   -7.4637   22.7473 H   0  0  0  0  0  0
  -21.0842   -8.8778   19.8950 H   0  0  0  0  0  0
  -22.3699  -10.9681   19.6173 H   0  0  0  0  0  0
  -21.1999   -7.6148   23.9721 H   0  0  0  0  0  0
  -21.1475   -6.0525   25.9080 H   0  0  0  0  0  0
  -22.0599   -2.7613   23.2849 H   0  0  0  0  0  0
  -22.4104  -11.9891   22.4782 H   0  0  0  0  0  0
  -21.1122  -13.1270   22.2619 H   0  0  0  0  0  0
  -24.6645  -15.8455   20.5039 H   0  0  0  0  0  0
  -26.2843  -15.6241   20.0781 H   0  0  0  0  0  0
  -26.7114  -32.5514   23.1148 H   0  0  0  0  0  0
  -25.0028  -33.9781   25.0446 H   0  0  0  0  0  0
  -22.6915  -31.3114   21.4155 H   0  0  0  0  0  0
  -23.3751  -35.9647   23.3298 H   0  0  0  0  0  0
  -24.3581  -36.8926   22.2054 H   0  0  0  0  0  0
  -23.7241  -37.6519   23.6651 H   0  0  0  0  0  0
  -26.0487  -31.5938   20.5960 H   0  0  0  0  0  0
  -26.8204  -30.8772   21.9831 H   0  0  0  0  0  0
  -28.0887  -29.0787   21.1665 H   0  0  0  0  0  0
  -25.9818  -25.9859   18.9856 H   0  0  0  0  0  0
  -23.9619  -27.3104   19.0290 H   0  0  0  0  0  0
  -23.7152  -30.6084   19.4059 H   0  0  0  0  0  0
  -22.7293  -29.2541   19.8674 H   0  0  0  0  0  0
  -25.1283  -36.1972   25.0836 H   0  0  0  0  0  0
  -20.9952  -28.3237   24.1441 H   0  0  0  0  0  0
  -20.5666  -26.2284   23.3615 H   0  0  0  0  0  0
  -21.6628  -26.7447   22.1209 H   0  0  0  0  0  0
  -19.6905  -25.6299   21.1233 H   0  0  0  0  0  0
  -19.6676  -27.3197   20.6750 H   0  0  0  0  0  0
  -17.4186  -26.6674   21.4022 H   0  0  0  0  0  0
  -18.0320  -26.0072   22.9018 H   0  0  0  0  0  0
  -19.7938  -30.7235   24.2319 H   0  0  0  0  0  0
  -17.5019  -31.6283   24.5145 H   0  0  0  0  0  0
  -15.5354  -30.3007   23.7639 H   0  0  0  0  0  0
  -15.8658  -28.0837   22.7064 H   0  0  0  0  0  0
  -24.5894  -30.7061   25.7796 H   0  0  0  0  0  0
  -24.8907  -32.2884   26.4899 H   0  0  0  0  0  0
  -25.8056  -30.8894   27.0233 H   0  0  0  0  0  0
  -26.2789  -29.6830   24.1111 H   0  0  0  0  0  0
  -27.3987  -29.7227   25.4534 H   0  0  0  0  0  0
  -27.8653  -30.4334   23.9251 H   0  0  0  0  0  0
  -27.2689  -33.3606   26.2057 H   0  0  0  0  0  0
  -28.3858  -32.6830   25.0298 H   0  0  0  0  0  0
  -28.0708  -31.8412   26.5386 H   0  0  0  0  0  0
  -28.2603  -38.0099   24.7493 H   0  0  0  0  0  0
  -28.1070  -36.2627   24.6310 H   0  0  0  0  0  0
  -27.2300  -37.1477   25.8872 H   0  0  0  0  0  0
  -20.9293  -29.8777   21.6969 H   0  0  0  0  0  0
  -26.0186  -38.2878   24.1395 H   0  0  0  0  0  0
  -33.3080  -17.9063   23.3985 H   0  0  0  0  0  0
  -32.4342  -20.0551   22.5444 H   0  0  0  0  0  0
  -32.2202  -15.7780   22.7799 H   0  0  0  0  0  0
  -29.2604  -17.9521   20.4879 H   0  0  0  0  0  0
  -31.4463  -23.2675   19.5350 H   0  0  0  0  0  0
  -27.7971  -22.6746   21.4755 H   0  0  0  0  0  0
  -29.0639  -22.5099   22.6749 H   0  0  0  0  0  0
  -28.3307  -20.6180   20.4168 H   0  0  0  0  0  0
  -28.5499  -20.2442   22.1080 H   0  0  0  0  0  0
  -30.5478  -25.1957   20.6310 H   0  0  0  0  0  0
  -29.3806  -24.9935   21.9135 H   0  0  0  0  0  0
  -29.1073  -15.3190   21.4221 H   0  0  0  0  0  0
  1 25  1  0  0  0
  1 30  2  0  0  0
  1 85  1  0  0  0
  2  3  1  0  0  0
  2 25  1  0  0  0
  2 88  1  0  0  0
  2 89  1  0  0  0
  3  4  1  0  0  0
  3 90  1  0  0  0
  3 91  1  0  0  0
  4  5  1  0  0  0
  4 92  1  0  0  0
  4 93  1  0  0  0
  5  6  1  0  0  0
  5 26  1  0  0  0
  5 94  1  0  0  0
  6 25  1  0  0  0
  6 95  1  0  0  0
  6 96  1  0  0  0
  7  8  2  0  0  0
  7 26  1  0  0  0
  7 29  1  0  0  0
  8  9  1  0  0  0
  8 22  1  0  0  0
  9 10  1  0  0  0
  9 27  2  0  0  0
 10 11  2  0  0  0
 10 15  1  0  0  0
 11 12  1  0  0  0
 11 97  1  0  0  0
 12 13  2  0  0  0
 12 98  1  0  0  0
 13 14  1  0  0  0
 13 31  1  0  0  0
 14 15  2  0  0  0
 14 99  1  0  0  0
 15100  1  0  0  0
 16 17  2  0  0  0
 16 21  1  0  0  0
 16 31  1  0  0  0
 17 18  1  0  0  0
 17101  1  0  0  0
 18 19  2  0  0  0
 18102  1  0  0  0
 19 20  1  0  0  0
 19 24  1  0  0  0
 20 21  2  0  0  0
 20103  1  0  0  0
 21 23  1  0  0  0
 22 28  1  0  0  0
 22 32  2  0  0  0
 26 27  1  0  0  0
 28104  1  0  0  0
 28105  1  0  0  0
 29106  1  0  0  0
 29107  1  0  0  0
 33 34  1  0  0  0
 33 66  1  0  0  0
 33 70  2  0  0  0
 34 36  1  0  0  0
 34 59  1  0  0  0
 34108  1  0  0  0
 35 44  2  0  0  0
 35 45  1  0  0  0
 35 68  1  0  0  0
 36 56  1  0  0  0
 36109  1  0  0  0
 37 39  1  0  0  0
 37 47  1  0  0  0
 37 66  1  0  0  0
 37110  1  0  0  0
 38 43  2  0  0  0
 38 46  1  0  0  0
 38 47  1  0  0  0
 39 64  1  0  0  0
 39 67  2  0  0  0
 40 52  1  0  0  0
 40 53  2  0  0  0
 40 58  1  0  0  0
 41111  1  0  0  0
 41112  1  0  0  0
 41113  1  0  0  0
 41 48  1  0  0  0
 42 43  1  0  0  0
 42 66  1  0  0  0
 42114  1  0  0  0
 42115  1  0  0  0
 43 44  1  0  0  0
 44116  1  0  0  0
 45 46  2  0  0  0
 45117  1  0  0  0
 46118  1  0  0  0
 47119  1  0  0  0
 47120  1  0  0  0
 48 56  1  0  0  0
 48 65  1  0  0  0
 48121  1  0  0  0
 49 50  1  0  0  0
 49 53  1  0  0  0
 49 64  1  0  0  0
 49122  1  0  0  0
 50 51  1  0  0  0
 50123  1  0  0  0
 50124  1  0  0  0
 51 52  1  0  0  0
 51125  1  0  0  0
 51126  1  0  0  0
 52127  1  0  0  0
 52128  1  0  0  0
 53 54  1  0  0  0
 54 55  2  0  0  0
 54129  1  0  0  0
 55 57  1  0  0  0
 55130  1  0  0  0
 56 69  2  0  0  0
 57 58  2  0  0  0
 57131  1  0  0  0
 58132  1  0  0  0
 59 60  1  0  0  0
 59 61  1  0  0  0
 59 62  1  0  0  0
 60133  1  0  0  0
 60134  1  0  0  0
 60135  1  0  0  0
 61136  1  0  0  0
 61137  1  0  0  0
 61138  1  0  0  0
 62139  1  0  0  0
 62140  1  0  0  0
 62141  1  0  0  0
 63 65  1  0  0  0
 63142  1  0  0  0
 63143  1  0  0  0
 63144  1  0  0  0
 64145  1  0  0  0
 65146  1  0  0  0
 68 80  1  0  0  0
 71 72  2  0  0  0
 71 73  1  0  0  0
 71147  1  0  0  0
 72 75  1  0  0  0
 72148  1  0  0  0
 73 76  2  0  0  0
 73149  1  0  0  0
 74 75  2  0  0  0
 74 76  1  0  0  0
 74150  1  0  0  0
 75 84  1  0  0  0
 76 85  1  0  0  0
 77 78  2  0  0  0
 77 79  1  0  0  0
 77151  1  0  0  0
 78 81  1  0  0  0
 78 83  1  0  0  0
 79 84  1  0  0  0
 79 86  2  0  0  0
 80 83  1  0  0  0
 80 87  2  0  0  0
 81 82  1  0  0  0
 81152  1  0  0  0
 81153  1  0  0  0
 82 84  1  0  0  0
 82154  1  0  0  0
 82155  1  0  0  0
 83156  1  0  0  0
 83157  1  0  0  0
 85158  1  0  0  0
M  ISO  4   1 100  68 101  80 101  85 100
M  END
> <chiral flag>
0

> <version>
0

> <s_m_source_file>
/data/baiqing/PycharmProjects/Reinvent-master-3.2/result/LINK_invent/BTK/process_docking_weight1_custom_product_contain_oxygen_bond_distance_aromatic_linkinvent_7_9_3/rearranged_h_0063.sdf

> <i_m_source_file_index>
51

> <r_mmod_Potential_Energy-OPLS-2005>
102.384536743164

> <r_mmod_Stretch_Energy-OPLS-2005>
43.2874908447266

> <r_mmod_Bend_Energy-OPLS-2005>
109.103042602539

> <r_mmod_Torsional_Energy-OPLS-2005>
291.902770996094

> <r_mmod_Improper_Torsional_Energy-OPLS-2005>
3.43109464645386

> <r_mmod_Van_der_Waal_Energy-OPLS-2005>
173.219757080078

> <r_mmod_Electrostatic_Energy-OPLS-2005>
-301.535766601562

> <r_mmod_Solvation_Energy-OPLS-2005>
-231.280807495117

> <b_mmod_Minimization_Converged-OPLS-2005>
0

> <r_mmod_RMS_Derivative-OPLS-2005>
1.08406007289886

$$$$
52
                    3D
 Structure written by MMmdl.
153161  0  0  1  0            999 V2000
  -30.5894  -14.8525   20.4337 C   0  0  0  0  0  0
  -30.4336  -12.5231   19.4880 C   0  0  0  0  0  0
  -29.5146  -12.5172   18.2462 C   0  0  0  0  0  0
  -28.0440  -12.3241   18.6621 C   0  0  0  0  0  0
  -27.6339  -13.2432   19.8431 C   0  0  2  0  0  0
  -28.6792  -13.2350   20.9797 C   0  0  0  0  0  0
  -25.2465  -13.8200   20.5698 C   0  0  0  0  0  0
  -24.1782  -13.0433   20.9235 C   0  0  0  0  0  0
  -24.6396  -11.6920   20.8763 C   0  0  0  0  0  0
  -23.9077  -10.4290   21.0412 C   0  0  0  0  0  0
  -24.3624   -9.4203   21.9188 C   0  0  0  0  0  0
  -23.6296   -8.2240   22.0755 C   0  0  0  0  0  0
  -22.4279   -8.0280   21.3543 C   0  0  0  0  0  0
  -21.9917   -9.0254   20.4646 C   0  0  0  0  0  0
  -22.7249  -10.2133   20.3059 C   0  0  0  0  0  0
  -21.6854   -6.0734   22.5276 C   0  0  0  0  0  0
  -21.4015   -6.5638   23.8209 C   0  0  0  0  0  0
  -21.3660   -5.6791   24.9171 C   0  0  0  0  0  0
  -21.6044   -4.3053   24.7222 C   0  0  0  0  0  0
  -21.8820   -3.8146   23.4343 C   0  0  0  0  0  0
  -21.9193   -4.6962   22.3400 C   0  0  0  0  0  0
  -22.7802  -13.5206   21.1884 C   0  0  0  0  0  0
  -22.1662   -4.2147   21.0977 F   0  0  0  0  0  0
  -21.5629   -3.4537   25.7735 F   0  0  0  0  0  0
  -29.9677  -13.6132   20.3858 N   0  0  0  0  0  0
  -26.2900  -12.9435   20.3262 N   0  0  0  0  0  0
  -25.9329  -11.6567   20.5756 N   0  0  0  0  0  0
  -22.0451  -12.8193   22.0439 N   0  0  0  0  0  0
  -25.4104  -15.1919   20.4057 N   0  0  0  0  0  0
  -31.7900  -14.8978   20.1500 O   0  0  0  0  0  0
  -21.6642   -6.8878   21.4238 O   0  0  0  0  0  0
  -22.3486  -14.5507   20.6724 O   0  0  0  0  0  0
  -24.6390  -31.8488   23.1928 C   0  0  0  0  0  0
  -25.9181  -32.4719   23.8303 C   0  0  1  0  0  0
  -27.2158  -27.1879   20.1400 C   0  0  0  0  0  0
  -25.5947  -33.8524   24.2220 N   0  0  0  0  0  0
  -23.4394  -30.4714   21.5373 C   0  0  2  0  0  0
  -24.8875  -28.9091   20.1099 C   0  0  0  0  0  0
  -22.7543  -29.4575   22.4872 C   0  0  0  0  0  0
  -18.0304  -28.1393   22.8484 C   0  0  0  0  0  0
  -24.1488  -36.7264   23.2641 C   0  0  0  0  0  0
  -25.9928  -30.7401   21.3839 C   0  0  0  0  0  0
  -26.0642  -29.3569   20.7237 C   0  0  0  0  0  0
  -27.2310  -28.5120   20.7220 C   0  0  0  0  0  0
  -26.0112  -26.8297   19.4929 C   0  0  0  0  0  0
  -24.8707  -27.6570   19.4808 C   0  0  0  0  0  0
  -23.6623  -29.8053   20.1546 C   0  0  0  0  0  0
  -25.4118  -36.3045   24.0323 C   0  0  1  0  0  0
  -20.5913  -28.3713   23.1245 C   0  0  2  0  0  0
  -20.6788  -26.9420   22.5403 C   0  0  0  0  0  0
  -19.5760  -26.6384   21.5211 C   0  0  0  0  0  0
  -18.1943  -26.7937   22.1626 C   0  0  0  0  0  0
  -19.1559  -28.8871   23.2861 C   0  0  0  0  0  0
  -18.9477  -30.1470   23.8882 C   0  0  0  0  0  0
  -17.6473  -30.6592   24.0561 C   0  0  0  0  0  0
  -25.9066  -34.9420   23.5079 C   0  0  0  0  0  0
  -16.5364  -29.9085   23.6335 C   0  0  0  0  0  0
  -16.7289  -28.6504   23.0359 C   0  0  0  0  0  0
  -26.4519  -31.6572   25.0723 C   0  0  0  0  0  0
  -25.3716  -31.3748   26.1424 C   0  0  0  0  0  0
  -27.0382  -30.2978   24.6272 C   0  0  0  0  0  0
  -27.6056  -32.4332   25.7505 C   0  0  0  0  0  0
  -27.5580  -37.1781   24.8461 C   0  0  0  0  0  0
  -21.4241  -29.3048   22.3619 N   0  0  0  0  0  0
  -26.4282  -37.3757   23.9418 N   0  0  0  0  0  0
  -24.7100  -31.0397   22.0934 N   0  0  0  0  0  0
  -23.4211  -28.8115   23.2997 O   0  0  0  0  0  0
  -28.2817  -26.2318   20.2052 O   0  0  0  0  0  0
  -26.5644  -34.8911   22.4651 O   0  0  0  0  0  0
  -23.5521  -32.1334   23.7183 O   0  0  0  0  0  0
  -31.8632  -19.2971   20.4694 C   0  0  0  0  0  0
  -31.4878  -17.9352   20.5273 C   0  0  0  0  0  0
  -30.9150  -20.3410   20.3964 C   0  0  0  0  0  0
  -29.1634  -18.6297   20.4459 C   0  0  0  0  0  0
  -30.1350  -17.5148   20.5109 C   0  0  0  0  0  0
  -29.5370  -20.0637   20.3882 C   0  0  0  0  0  0
  -27.6833  -18.2902   20.4235 C   0  0  0  0  0  0
  -27.9826  -24.7263   20.0868 C   0  0  0  0  0  0
  -29.0197  -23.4583   20.3423 C   0  0  0  0  0  0
  -29.8167  -16.0265   20.5786 N   0  0  0  0  0  0
  -27.7501  -21.4775   18.8749 O   0  0  0  0  0  0
  -27.3827  -21.4623   21.3449 O   0  0  0  0  0  0
  -28.3329  -21.5877   20.2247 S   0  0  0  0  0  0
  -31.4720  -12.6551   19.1804 H   0  0  0  0  0  0
  -30.3968  -11.5617   20.0027 H   0  0  0  0  0  0
  -29.8153  -11.7281   17.5558 H   0  0  0  0  0  0
  -29.6231  -13.4576   17.7040 H   0  0  0  0  0  0
  -27.9194  -11.2794   18.9485 H   0  0  0  0  0  0
  -27.3839  -12.4856   17.8091 H   0  0  0  0  0  0
  -27.6093  -14.2537   19.4344 H   0  0  0  0  0  0
  -28.7410  -12.2518   21.4485 H   0  0  0  0  0  0
  -28.3970  -13.9350   21.7681 H   0  0  0  0  0  0
  -25.2768   -9.5677   22.4765 H   0  0  0  0  0  0
  -24.0002   -7.4630   22.7474 H   0  0  0  0  0  0
  -21.0850   -8.8774   19.8951 H   0  0  0  0  0  0
  -22.3707  -10.9672   19.6168 H   0  0  0  0  0  0
  -21.2008   -7.6147   23.9710 H   0  0  0  0  0  0
  -21.1482   -6.0523   25.9074 H   0  0  0  0  0  0
  -22.0600   -2.7607   23.2842 H   0  0  0  0  0  0
  -22.4076  -11.9860   22.4828 H   0  0  0  0  0  0
  -21.1065  -13.1208   22.2643 H   0  0  0  0  0  0
  -24.6296  -15.8332   20.4944 H   0  0  0  0  0  0
  -26.2274  -15.6184   19.9921 H   0  0  0  0  0  0
  -26.7247  -32.5341   23.1037 H   0  0  0  0  0  0
  -25.0080  -33.9649   25.0358 H   0  0  0  0  0  0
  -22.7398  -31.2963   21.3876 H   0  0  0  0  0  0
  -23.3760  -35.9584   23.3281 H   0  0  0  0  0  0
  -24.3582  -36.8912   22.2059 H   0  0  0  0  0  0
  -23.7229  -37.6452   23.6685 H   0  0  0  0  0  0
  -26.1440  -31.4991   20.6149 H   0  0  0  0  0  0
  -26.8652  -30.7863   22.0241 H   0  0  0  0  0  0
  -28.1291  -28.8507   21.2195 H   0  0  0  0  0  0
  -25.9103  -25.8743   19.0025 H   0  0  0  0  0  0
  -23.9713  -27.3093   18.9915 H   0  0  0  0  0  0
  -23.7952  -30.5817   19.4000 H   0  0  0  0  0  0
  -22.7779  -29.2455   19.8450 H   0  0  0  0  0  0
  -25.1301  -36.1876   25.0814 H   0  0  0  0  0  0
  -21.0017  -28.3296   24.1360 H   0  0  0  0  0  0
  -20.5682  -26.2323   23.3618 H   0  0  0  0  0  0
  -21.6655  -26.7427   22.1197 H   0  0  0  0  0  0
  -19.6915  -25.6289   21.1252 H   0  0  0  0  0  0
  -19.6698  -27.3186   20.6735 H   0  0  0  0  0  0
  -17.4211  -26.6687   21.4031 H   0  0  0  0  0  0
  -18.0341  -26.0085   22.9027 H   0  0  0  0  0  0
  -19.7950  -30.7297   24.2242 H   0  0  0  0  0  0
  -17.5022  -31.6270   24.5165 H   0  0  0  0  0  0
  -15.5362  -30.2979   23.7669 H   0  0  0  0  0  0
  -15.8692  -28.0814   22.7081 H   0  0  0  0  0  0
  -24.5898  -30.7092   25.7745 H   0  0  0  0  0  0
  -24.8901  -32.2928   26.4807 H   0  0  0  0  0  0
  -25.8009  -30.8949   27.0228 H   0  0  0  0  0  0
  -26.2991  -29.6705   24.1274 H   0  0  0  0  0  0
  -27.4009  -29.7268   25.4830 H   0  0  0  0  0  0
  -27.8893  -30.4232   23.9574 H   0  0  0  0  0  0
  -27.2653  -33.3647   26.2045 H   0  0  0  0  0  0
  -28.3888  -32.6872   25.0347 H   0  0  0  0  0  0
  -28.0704  -31.8482   26.5452 H   0  0  0  0  0  0
  -28.2567  -38.0107   24.7545 H   0  0  0  0  0  0
  -28.1107  -36.2641   24.6239 H   0  0  0  0  0  0
  -27.2308  -37.1366   25.8864 H   0  0  0  0  0  0
  -20.9437  -29.8765   21.6811 H   0  0  0  0  0  0
  -26.0150  -38.2820   24.1444 H   0  0  0  0  0  0
  -32.9150  -19.5473   20.4780 H   0  0  0  0  0  0
  -32.2883  -17.2140   20.5901 H   0  0  0  0  0  0
  -31.2494  -21.3667   20.3427 H   0  0  0  0  0  0
  -27.4998  -17.2199   20.4866 H   0  0  0  0  0  0
  -27.2250  -18.6516   19.5029 H   0  0  0  0  0  0
  -27.1739  -18.7577   21.2658 H   0  0  0  0  0  0
  -27.1267  -24.5426   20.7379 H   0  0  0  0  0  0
  -27.6129  -24.5713   19.0735 H   0  0  0  0  0  0
  -29.4698  -23.5482   21.3284 H   0  0  0  0  0  0
  -29.8418  -23.5212   19.6324 H   0  0  0  0  0  0
  -28.8404  -15.8200   20.7179 H   0  0  0  0  0  0
  1 25  1  0  0  0
  1 30  2  0  0  0
  1 80  1  0  0  0
  2  3  1  0  0  0
  2 25  1  0  0  0
  2 84  1  0  0  0
  2 85  1  0  0  0
  3  4  1  0  0  0
  3 86  1  0  0  0
  3 87  1  0  0  0
  4  5  1  0  0  0
  4 88  1  0  0  0
  4 89  1  0  0  0
  5  6  1  0  0  0
  5 26  1  0  0  0
  5 90  1  0  0  0
  6 25  1  0  0  0
  6 91  1  0  0  0
  6 92  1  0  0  0
  7  8  2  0  0  0
  7 26  1  0  0  0
  7 29  1  0  0  0
  8  9  1  0  0  0
  8 22  1  0  0  0
  9 10  1  0  0  0
  9 27  2  0  0  0
 10 11  2  0  0  0
 10 15  1  0  0  0
 11 12  1  0  0  0
 11 93  1  0  0  0
 12 13  2  0  0  0
 12 94  1  0  0  0
 13 14  1  0  0  0
 13 31  1  0  0  0
 14 15  2  0  0  0
 14 95  1  0  0  0
 15 96  1  0  0  0
 16 17  2  0  0  0
 16 21  1  0  0  0
 16 31  1  0  0  0
 17 18  1  0  0  0
 17 97  1  0  0  0
 18 19  2  0  0  0
 18 98  1  0  0  0
 19 20  1  0  0  0
 19 24  1  0  0  0
 20 21  2  0  0  0
 20 99  1  0  0  0
 21 23  1  0  0  0
 22 28  1  0  0  0
 22 32  2  0  0  0
 26 27  1  0  0  0
 28100  1  0  0  0
 28101  1  0  0  0
 29102  1  0  0  0
 29103  1  0  0  0
 33 34  1  0  0  0
 33 66  1  0  0  0
 33 70  2  0  0  0
 34 36  1  0  0  0
 34 59  1  0  0  0
 34104  1  0  0  0
 35 44  2  0  0  0
 35 45  1  0  0  0
 35 68  1  0  0  0
 36 56  1  0  0  0
 36105  1  0  0  0
 37 39  1  0  0  0
 37 47  1  0  0  0
 37 66  1  0  0  0
 37106  1  0  0  0
 38 43  2  0  0  0
 38 46  1  0  0  0
 38 47  1  0  0  0
 39 64  1  0  0  0
 39 67  2  0  0  0
 40 52  1  0  0  0
 40 53  2  0  0  0
 40 58  1  0  0  0
 41107  1  0  0  0
 41108  1  0  0  0
 41109  1  0  0  0
 41 48  1  0  0  0
 42 43  1  0  0  0
 42 66  1  0  0  0
 42110  1  0  0  0
 42111  1  0  0  0
 43 44  1  0  0  0
 44112  1  0  0  0
 45 46  2  0  0  0
 45113  1  0  0  0
 46114  1  0  0  0
 47115  1  0  0  0
 47116  1  0  0  0
 48 56  1  0  0  0
 48 65  1  0  0  0
 48117  1  0  0  0
 49 50  1  0  0  0
 49 53  1  0  0  0
 49 64  1  0  0  0
 49118  1  0  0  0
 50 51  1  0  0  0
 50119  1  0  0  0
 50120  1  0  0  0
 51 52  1  0  0  0
 51121  1  0  0  0
 51122  1  0  0  0
 52123  1  0  0  0
 52124  1  0  0  0
 53 54  1  0  0  0
 54 55  2  0  0  0
 54125  1  0  0  0
 55 57  1  0  0  0
 55126  1  0  0  0
 56 69  2  0  0  0
 57 58  2  0  0  0
 57127  1  0  0  0
 58128  1  0  0  0
 59 60  1  0  0  0
 59 61  1  0  0  0
 59 62  1  0  0  0
 60129  1  0  0  0
 60130  1  0  0  0
 60131  1  0  0  0
 61132  1  0  0  0
 61133  1  0  0  0
 61134  1  0  0  0
 62135  1  0  0  0
 62136  1  0  0  0
 62137  1  0  0  0
 63 65  1  0  0  0
 63138  1  0  0  0
 63139  1  0  0  0
 63140  1  0  0  0
 64141  1  0  0  0
 65142  1  0  0  0
 68 78  1  0  0  0
 71 72  2  0  0  0
 71 73  1  0  0  0
 71143  1  0  0  0
 72 75  1  0  0  0
 72144  1  0  0  0
 73 76  2  0  0  0
 73145  1  0  0  0
 74 75  2  0  0  0
 74 76  1  0  0  0
 74 77  1  0  0  0
 75 80  1  0  0  0
 76 83  1  0  0  0
 77146  1  0  0  0
 77147  1  0  0  0
 77148  1  0  0  0
 78 79  1  0  0  0
 78149  1  0  0  0
 78150  1  0  0  0
 79151  1  0  0  0
 79152  1  0  0  0
 79 83  1  0  0  0
 80153  1  0  0  0
 81 83  2  0  0  0
 82 83  2  0  0  0
M  ISO  4   1 100  68 101  78 101  80 100
M  END
> <chiral flag>
0

> <version>
0

> <s_m_source_file>
/data/baiqing/PycharmProjects/Reinvent-master-3.2/result/LINK_invent/BTK/process_docking_weight1_custom_product_contain_oxygen_bond_distance_aromatic_linkinvent_7_9_3/rearranged_h_0063.sdf

> <i_m_source_file_index>
52

> <r_mmod_Potential_Energy-OPLS-2005>
234.616012573242

> <r_mmod_Stretch_Energy-OPLS-2005>
204.305328369141

> <r_mmod_Bend_Energy-OPLS-2005>
215.006851196289

> <r_mmod_Torsional_Energy-OPLS-2005>
220.841888427734

> <r_mmod_Improper_Torsional_Energy-OPLS-2005>
5.30906200408936

> <r_mmod_Van_der_Waal_Energy-OPLS-2005>
130.089324951172

> <r_mmod_Electrostatic_Energy-OPLS-2005>
-420.236114501953

> <r_mmod_Solvation_Energy-OPLS-2005>
-259.351898193359

> <b_mmod_Minimization_Converged-OPLS-2005>
0

> <r_mmod_RMS_Derivative-OPLS-2005>
0.484268486499786

$$$$
53
                    3D
 Structure written by MMmdl.
159168  0  0  1  0            999 V2000
  -30.5257  -15.0492   20.3982 C   0  0  0  0  0  0
  -30.4367  -12.6544   19.5106 C   0  0  0  0  0  0
  -29.5239  -12.5415   18.2669 C   0  0  0  0  0  0
  -28.0619  -12.3103   18.6882 C   0  0  0  0  0  0
  -27.6230  -13.2600   19.8331 C   0  0  2  0  0  0
  -28.6644  -13.3436   20.9699 C   0  0  0  0  0  0
  -25.2435  -13.8234   20.5726 C   0  0  0  0  0  0
  -24.1768  -13.0444   20.9249 C   0  0  0  0  0  0
  -24.6403  -11.6932   20.8766 C   0  0  0  0  0  0
  -23.9089  -10.4295   21.0414 C   0  0  0  0  0  0
  -24.3633   -9.4208   21.9190 C   0  0  0  0  0  0
  -23.6305   -8.2243   22.0753 C   0  0  0  0  0  0
  -22.4287   -8.0284   21.3545 C   0  0  0  0  0  0
  -21.9929   -9.0259   20.4646 C   0  0  0  0  0  0
  -22.7260  -10.2138   20.3061 C   0  0  0  0  0  0
  -21.6855   -6.0743   22.5281 C   0  0  0  0  0  0
  -21.4015   -6.5645   23.8214 C   0  0  0  0  0  0
  -21.3658   -5.6798   24.9176 C   0  0  0  0  0  0
  -21.6041   -4.3060   24.7225 C   0  0  0  0  0  0
  -21.8820   -3.8153   23.4346 C   0  0  0  0  0  0
  -21.9193   -4.6971   22.3404 C   0  0  0  0  0  0
  -22.7786  -13.5205   21.1896 C   0  0  0  0  0  0
  -22.1664   -4.2157   21.0982 F   0  0  0  0  0  0
  -21.5626   -3.4541   25.7736 F   0  0  0  0  0  0
  -29.9276  -13.7790   20.3594 N   0  0  0  0  0  0
  -26.2862  -12.9487   20.3244 N   0  0  0  0  0  0
  -25.9338  -11.6604   20.5742 N   0  0  0  0  0  0
  -22.0443  -12.8184   22.0449 N   0  0  0  0  0  0
  -25.4087  -15.1960   20.4133 N   0  0  0  0  0  0
  -31.7385  -15.0552   20.1556 O   0  0  0  0  0  0
  -21.6646   -6.8887   21.4245 O   0  0  0  0  0  0
  -22.3469  -14.5508   20.6740 O   0  0  0  0  0  0
  -24.6503  -31.8375   23.1832 C   0  0  0  0  0  0
  -25.9244  -32.4659   23.8243 C   0  0  1  0  0  0
  -27.2118  -27.0596   20.1648 C   0  0  0  0  0  0
  -25.5959  -33.8469   24.2142 N   0  0  0  0  0  0
  -23.4583  -30.4557   21.5306 C   0  0  2  0  0  0
  -24.9083  -28.8711   20.1126 C   0  0  0  0  0  0
  -22.7602  -29.4508   22.4824 C   0  0  0  0  0  0
  -18.0308  -28.1405   22.8467 C   0  0  0  0  0  0
  -24.1489  -36.7238   23.2645 C   0  0  0  0  0  0
  -26.0204  -30.6871   21.3952 C   0  0  0  0  0  0
  -26.0898  -29.2906   20.7378 C   0  0  0  0  0  0
  -27.2418  -28.4032   20.7438 C   0  0  0  0  0  0
  -26.0060  -26.7698   19.4864 C   0  0  0  0  0  0
  -24.8838  -27.6269   19.4689 C   0  0  0  0  0  0
  -23.6903  -29.7843   20.1515 C   0  0  0  0  0  0
  -25.4124  -36.3005   24.0310 C   0  0  1  0  0  0
  -20.5928  -28.3728   23.1214 C   0  0  2  0  0  0
  -20.6794  -26.9424   22.5401 C   0  0  0  0  0  0
  -19.5765  -26.6379   21.5213 C   0  0  0  0  0  0
  -18.1942  -26.7939   22.1620 C   0  0  0  0  0  0
  -19.1570  -28.8885   23.2830 C   0  0  0  0  0  0
  -18.9489  -30.1478   23.8859 C   0  0  0  0  0  0
  -17.6488  -30.6598   24.0554 C   0  0  0  0  0  0
  -25.9084  -34.9387   23.5036 C   0  0  0  0  0  0
  -16.5374  -29.9091   23.6345 C   0  0  0  0  0  0
  -16.7295  -28.6514   23.0357 C   0  0  0  0  0  0
  -26.4536  -31.6562   25.0719 C   0  0  0  0  0  0
  -25.3696  -31.3781   26.1394 C   0  0  0  0  0  0
  -27.0416  -30.2947   24.6368 C   0  0  0  0  0  0
  -27.6041  -32.4355   25.7517 C   0  0  0  0  0  0
  -27.5568  -37.1768   24.8462 C   0  0  0  0  0  0
  -21.4286  -29.3042   22.3573 N   0  0  0  0  0  0
  -26.4272  -37.3733   23.9417 N   0  0  0  0  0  0
  -24.7302  -31.0165   22.0908 N   0  0  0  0  0  0
  -23.4208  -28.8054   23.3002 O   0  0  0  0  0  0
  -28.2367  -26.0179   20.2151 O   0  0  0  0  0  0
  -26.5682  -34.8900   22.4624 O   0  0  0  0  0  0
  -23.5605  -32.1289   23.7003 O   0  0  0  0  0  0
  -31.8485  -19.5127   20.0546 C   0  0  0  0  0  0
  -30.9788  -20.6150   20.1905 C   0  0  0  0  0  0
  -31.4239  -18.1714   20.1533 C   0  0  0  0  0  0
  -29.1736  -19.0236   20.4899 C   0  0  0  0  0  0
  -29.5852  -20.4884   20.3994 C   0  0  0  0  0  0
  -30.0797  -17.8113   20.3899 C   0  0  0  0  0  0
  -28.0492  -21.8204   21.8842 C   0  0  0  0  0  0
  -28.8627  -23.1460   20.0059 C   0  0  0  0  0  0
  -28.3381  -20.9931   22.9113 C   0  0  0  0  0  0
  -26.8971  -22.8143   22.0244 C   0  0  0  0  0  0
  -27.3576  -24.2633   21.8236 C   0  0  0  0  0  0
  -27.8868  -24.4696   20.4051 C   0  0  1  0  0  0
  -27.7006  -18.7245   20.6957 C   0  0  0  0  0  0
  -28.7913  -21.8431   20.6651 N   0  0  0  0  0  0
  -29.7641  -16.2781   20.5072 N   0  0  0  0  0  0
  -29.8231  -23.4220   18.6611 S   0  0  0  0  0  0
  -31.4681  -12.8148   19.1928 H   0  0  0  0  0  0
  -30.4449  -11.7186   20.0719 H   0  0  0  0  0  0
  -29.8606  -11.7312   17.6187 H   0  0  0  0  0  0
  -29.5955  -13.4567   17.6773 H   0  0  0  0  0  0
  -27.9765  -11.2743   19.0186 H   0  0  0  0  0  0
  -27.3964  -12.4129   17.8302 H   0  0  0  0  0  0
  -27.5690  -14.2494   19.3783 H   0  0  0  0  0  0
  -28.7758  -12.3846   21.4781 H   0  0  0  0  0  0
  -28.3471  -14.0626   21.7269 H   0  0  0  0  0  0
  -25.2773   -9.5684   22.4769 H   0  0  0  0  0  0
  -24.0013   -7.4635   22.7469 H   0  0  0  0  0  0
  -21.0860   -8.8783   19.8948 H   0  0  0  0  0  0
  -22.3719  -10.9682   19.6171 H   0  0  0  0  0  0
  -21.2010   -7.6150   23.9722 H   0  0  0  0  0  0
  -21.1478   -6.0524   25.9079 H   0  0  0  0  0  0
  -22.0599   -2.7614   23.2843 H   0  0  0  0  0  0
  -22.4076  -11.9847   22.4826 H   0  0  0  0  0  0
  -21.1057  -13.1192   22.2658 H   0  0  0  0  0  0
  -24.6333  -15.8422   20.5111 H   0  0  0  0  0  0
  -26.2407  -15.6306   20.0385 H   0  0  0  0  0  0
  -26.7307  -32.5237   23.0963 H   0  0  0  0  0  0
  -25.0052  -33.9569   25.0252 H   0  0  0  0  0  0
  -22.7648  -31.2845   21.3714 H   0  0  0  0  0  0
  -23.3754  -35.9562   23.3286 H   0  0  0  0  0  0
  -24.3569  -36.8903   22.2063 H   0  0  0  0  0  0
  -23.7249  -37.6425   23.6710 H   0  0  0  0  0  0
  -26.1847  -31.4373   20.6204 H   0  0  0  0  0  0
  -26.8865  -30.7394   22.0430 H   0  0  0  0  0  0
  -28.1388  -28.7188   21.2576 H   0  0  0  0  0  0
  -25.8927  -25.8350   18.9616 H   0  0  0  0  0  0
  -23.9876  -27.3044   18.9561 H   0  0  0  0  0  0
  -23.8372  -30.5599   19.3981 H   0  0  0  0  0  0
  -22.8024  -29.2343   19.8344 H   0  0  0  0  0  0
  -25.1317  -36.1810   25.0803 H   0  0  0  0  0  0
  -21.0017  -28.3330   24.1338 H   0  0  0  0  0  0
  -20.5690  -26.2343   23.3632 H   0  0  0  0  0  0
  -21.6657  -26.7427   22.1196 H   0  0  0  0  0  0
  -19.6932  -25.6282   21.1267 H   0  0  0  0  0  0
  -19.6711  -27.3167   20.6727 H   0  0  0  0  0  0
  -17.4216  -26.6679   21.4023 H   0  0  0  0  0  0
  -18.0329  -26.0101   22.9035 H   0  0  0  0  0  0
  -19.7973  -30.7292   24.2214 H   0  0  0  0  0  0
  -17.5052  -31.6279   24.5152 H   0  0  0  0  0  0
  -15.5376  -30.2981   23.7701 H   0  0  0  0  0  0
  -15.8693  -28.0824   22.7091 H   0  0  0  0  0  0
  -24.5892  -30.7113   25.7713 H   0  0  0  0  0  0
  -24.8860  -32.2972   26.4718 H   0  0  0  0  0  0
  -25.7949  -30.9028   27.0241 H   0  0  0  0  0  0
  -26.3057  -29.6645   24.1358 H   0  0  0  0  0  0
  -27.3976  -29.7279   25.4982 H   0  0  0  0  0  0
  -27.8988  -30.4152   23.9739 H   0  0  0  0  0  0
  -27.2614  -33.3693   26.1988 H   0  0  0  0  0  0
  -28.3905  -32.6862   25.0385 H   0  0  0  0  0  0
  -28.0650  -31.8560   26.5526 H   0  0  0  0  0  0
  -28.2554  -38.0090   24.7516 H   0  0  0  0  0  0
  -28.1091  -36.2618   24.6269 H   0  0  0  0  0  0
  -27.2285  -37.1386   25.8862 H   0  0  0  0  0  0
  -20.9507  -29.8759   21.6748 H   0  0  0  0  0  0
  -26.0127  -38.2789   24.1447 H   0  0  0  0  0  0
  -32.8995  -19.7057   19.8908 H   0  0  0  0  0  0
  -31.4335  -21.5941   20.1661 H   0  0  0  0  0  0
  -32.1861  -17.4156   20.0498 H   0  0  0  0  0  0
  -27.7558  -21.0165   23.8212 H   0  0  0  0  0  0
  -29.1585  -20.2901   22.8953 H   0  0  0  0  0  0
  -26.4404  -22.7210   23.0112 H   0  0  0  0  0  0
  -26.1140  -22.5571   21.3091 H   0  0  0  0  0  0
  -28.1292  -24.5212   22.5500 H   0  0  0  0  0  0
  -26.5200  -24.9359   22.0080 H   0  0  0  0  0  0
  -27.0323  -24.2971   19.7566 H   0  0  0  0  0  0
  -27.0782  -19.5571   20.3690 H   0  0  0  0  0  0
  -27.4923  -18.5304   21.7474 H   0  0  0  0  0  0
  -27.3991  -17.8490   20.1220 H   0  0  0  0  0  0
  -28.7888  -16.0856   20.6744 H   0  0  0  0  0  0
  1 25  1  0  0  0
  1 30  2  0  0  0
  1 85  1  0  0  0
  2  3  1  0  0  0
  2 25  1  0  0  0
  2 87  1  0  0  0
  2 88  1  0  0  0
  3  4  1  0  0  0
  3 89  1  0  0  0
  3 90  1  0  0  0
  4  5  1  0  0  0
  4 91  1  0  0  0
  4 92  1  0  0  0
  5  6  1  0  0  0
  5 26  1  0  0  0
  5 93  1  0  0  0
  6 25  1  0  0  0
  6 94  1  0  0  0
  6 95  1  0  0  0
  7  8  2  0  0  0
  7 26  1  0  0  0
  7 29  1  0  0  0
  8  9  1  0  0  0
  8 22  1  0  0  0
  9 10  1  0  0  0
  9 27  2  0  0  0
 10 11  2  0  0  0
 10 15  1  0  0  0
 11 12  1  0  0  0
 11 96  1  0  0  0
 12 13  2  0  0  0
 12 97  1  0  0  0
 13 14  1  0  0  0
 13 31  1  0  0  0
 14 15  2  0  0  0
 14 98  1  0  0  0
 15 99  1  0  0  0
 16 17  2  0  0  0
 16 21  1  0  0  0
 16 31  1  0  0  0
 17 18  1  0  0  0
 17100  1  0  0  0
 18 19  2  0  0  0
 18101  1  0  0  0
 19 20  1  0  0  0
 19 24  1  0  0  0
 20 21  2  0  0  0
 20102  1  0  0  0
 21 23  1  0  0  0
 22 28  1  0  0  0
 22 32  2  0  0  0
 26 27  1  0  0  0
 28103  1  0  0  0
 28104  1  0  0  0
 29105  1  0  0  0
 29106  1  0  0  0
 33 34  1  0  0  0
 33 66  1  0  0  0
 33 70  2  0  0  0
 34 36  1  0  0  0
 34 59  1  0  0  0
 34107  1  0  0  0
 35 44  2  0  0  0
 35 45  1  0  0  0
 35 68  1  0  0  0
 36 56  1  0  0  0
 36108  1  0  0  0
 37 39  1  0  0  0
 37 47  1  0  0  0
 37 66  1  0  0  0
 37109  1  0  0  0
 38 43  2  0  0  0
 38 46  1  0  0  0
 38 47  1  0  0  0
 39 64  1  0  0  0
 39 67  2  0  0  0
 40 52  1  0  0  0
 40 53  2  0  0  0
 40 58  1  0  0  0
 41110  1  0  0  0
 41111  1  0  0  0
 41112  1  0  0  0
 41 48  1  0  0  0
 42 43  1  0  0  0
 42 66  1  0  0  0
 42113  1  0  0  0
 42114  1  0  0  0
 43 44  1  0  0  0
 44115  1  0  0  0
 45 46  2  0  0  0
 45116  1  0  0  0
 46117  1  0  0  0
 47118  1  0  0  0
 47119  1  0  0  0
 48 56  1  0  0  0
 48 65  1  0  0  0
 48120  1  0  0  0
 49 50  1  0  0  0
 49 53  1  0  0  0
 49 64  1  0  0  0
 49121  1  0  0  0
 50 51  1  0  0  0
 50122  1  0  0  0
 50123  1  0  0  0
 51 52  1  0  0  0
 51124  1  0  0  0
 51125  1  0  0  0
 52126  1  0  0  0
 52127  1  0  0  0
 53 54  1  0  0  0
 54 55  2  0  0  0
 54128  1  0  0  0
 55 57  1  0  0  0
 55129  1  0  0  0
 56 69  2  0  0  0
 57 58  2  0  0  0
 57130  1  0  0  0
 58131  1  0  0  0
 59 60  1  0  0  0
 59 61  1  0  0  0
 59 62  1  0  0  0
 60132  1  0  0  0
 60133  1  0  0  0
 60134  1  0  0  0
 61135  1  0  0  0
 61136  1  0  0  0
 61137  1  0  0  0
 62138  1  0  0  0
 62139  1  0  0  0
 62140  1  0  0  0
 63 65  1  0  0  0
 63141  1  0  0  0
 63142  1  0  0  0
 63143  1  0  0  0
 64144  1  0  0  0
 65145  1  0  0  0
 68 82  1  0  0  0
 71 72  2  0  0  0
 71 73  1  0  0  0
 71146  1  0  0  0
 72 75  1  0  0  0
 72147  1  0  0  0
 73 76  2  0  0  0
 73148  1  0  0  0
 74 75  2  0  0  0
 74 76  1  0  0  0
 74 83  1  0  0  0
 75 84  1  0  0  0
 76 85  1  0  0  0
 77 79  2  0  0  0
 77 80  1  0  0  0
 77 84  1  0  0  0
 78 82  1  0  0  0
 78 84  1  0  0  0
 78 86  2  0  0  0
 79149  1  0  0  0
 79150  1  0  0  0
 80 81  1  0  0  0
 80151  1  0  0  0
 80152  1  0  0  0
 81 82  1  0  0  0
 81153  1  0  0  0
 81154  1  0  0  0
 82155  1  0  0  0
 83156  1  0  0  0
 83157  1  0  0  0
 83158  1  0  0  0
 85159  1  0  0  0
M  ISO  4   1 100  68 101  82 101  85 100
M  END
> <chiral flag>
0

> <version>
0

> <s_m_source_file>
/data/baiqing/PycharmProjects/Reinvent-master-3.2/result/LINK_invent/BTK/process_docking_weight1_custom_product_contain_oxygen_bond_distance_aromatic_linkinvent_7_9_3/rearranged_h_0063.sdf

> <i_m_source_file_index>
53

> <r_mmod_Potential_Energy-OPLS-2005>
855.711486816406

> <r_mmod_Stretch_Energy-OPLS-2005>
384.421783447266

> <r_mmod_Bend_Energy-OPLS-2005>
288.275146484375

> <r_mmod_Torsional_Energy-OPLS-2005>
257.51220703125

> <r_mmod_Improper_Torsional_Energy-OPLS-2005>
6.44071388244629

> <r_mmod_Van_der_Waal_Energy-OPLS-2005>
155.141326904297

> <r_mmod_Electrostatic_Energy-OPLS-2005>
-291.543365478516

> <r_mmod_Solvation_Energy-OPLS-2005>
-211.985961914062

> <b_mmod_Minimization_Converged-OPLS-2005>
0

> <r_mmod_RMS_Derivative-OPLS-2005>
0.91535347700119

$$$$
54
                    3D
 Structure written by MMmdl.
159167  0  0  1  0            999 V2000
  -30.6386  -14.7350   20.4274 C   0  0  0  0  0  0
  -30.4319  -12.4419   19.4886 C   0  0  0  0  0  0
  -29.5136  -12.4951   18.2480 C   0  0  0  0  0  0
  -28.0425  -12.3155   18.6636 C   0  0  0  0  0  0
  -27.6439  -13.2325   19.8505 C   0  0  2  0  0  0
  -28.6876  -13.1888   20.9908 C   0  0  0  0  0  0
  -25.2524  -13.8202   20.5699 C   0  0  0  0  0  0
  -24.1806  -13.0453   20.9193 C   0  0  0  0  0  0
  -24.6393  -11.6924   20.8756 C   0  0  0  0  0  0
  -23.9078  -10.4294   21.0411 C   0  0  0  0  0  0
  -24.3616   -9.4214   21.9192 C   0  0  0  0  0  0
  -23.6288   -8.2252   22.0770 C   0  0  0  0  0  0
  -22.4275   -8.0290   21.3550 C   0  0  0  0  0  0
  -21.9919   -9.0262   20.4655 C   0  0  0  0  0  0
  -22.7252  -10.2138   20.3063 C   0  0  0  0  0  0
  -21.6846   -6.0735   22.5276 C   0  0  0  0  0  0
  -21.4012   -6.5636   23.8211 C   0  0  0  0  0  0
  -21.3662   -5.6790   24.9175 C   0  0  0  0  0  0
  -21.6033   -4.3048   24.7222 C   0  0  0  0  0  0
  -21.8827   -3.8146   23.4342 C   0  0  0  0  0  0
  -21.9193   -4.6964   22.3394 C   0  0  0  0  0  0
  -22.7833  -13.5246   21.1842 C   0  0  0  0  0  0
  -22.1668   -4.2145   21.0974 F   0  0  0  0  0  0
  -21.5625   -3.4535   25.7738 F   0  0  0  0  0  0
  -29.9970  -13.5160   20.4123 N   0  0  0  0  0  0
  -26.2954  -12.9411   20.3302 N   0  0  0  0  0  0
  -25.9323  -11.6547   20.5760 N   0  0  0  0  0  0
  -22.0473  -12.8241   22.0386 N   0  0  0  0  0  0
  -25.4215  -15.1933   20.4126 N   0  0  0  0  0  0
  -31.8228  -14.8034   20.0884 O   0  0  0  0  0  0
  -21.6643   -6.8884   21.4241 O   0  0  0  0  0  0
  -22.3523  -14.5543   20.6675 O   0  0  0  0  0  0
  -24.6319  -31.8543   23.1986 C   0  0  0  0  0  0
  -25.9134  -32.4753   23.8350 C   0  0  1  0  0  0
  -27.2252  -27.2578   20.1264 C   0  0  0  0  0  0
  -25.5897  -33.8554   24.2261 N   0  0  0  0  0  0
  -23.4291  -30.4747   21.5420 C   0  0  2  0  0  0
  -24.8826  -28.9280   20.1039 C   0  0  0  0  0  0
  -22.7508  -29.4569   22.4925 C   0  0  0  0  0  0
  -18.0283  -28.1359   22.8479 C   0  0  0  0  0  0
  -24.1492  -36.7286   23.2640 C   0  0  0  0  0  0
  -25.9745  -30.7678   21.3791 C   0  0  0  0  0  0
  -26.0530  -29.3903   20.7188 C   0  0  0  0  0  0
  -27.2275  -28.5684   20.7168 C   0  0  0  0  0  0
  -26.0395  -26.8815   19.4546 C   0  0  0  0  0  0
  -24.8819  -27.6822   19.4590 C   0  0  0  0  0  0
  -23.6490  -29.8094   20.1576 C   0  0  0  0  0  0
  -25.4113  -36.3053   24.0319 C   0  0  1  0  0  0
  -20.5890  -28.3672   23.1289 C   0  0  2  0  0  0
  -20.6763  -26.9393   22.5417 C   0  0  0  0  0  0
  -19.5746  -26.6374   21.5207 C   0  0  0  0  0  0
  -18.1918  -26.7909   22.1616 C   0  0  0  0  0  0
  -19.1538  -28.8830   23.2863 C   0  0  0  0  0  0
  -18.9470  -30.1410   23.8926 C   0  0  0  0  0  0
  -17.6478  -30.6580   24.0547 C   0  0  0  0  0  0
  -25.9049  -34.9430   23.5102 C   0  0  0  0  0  0
  -16.5361  -29.9084   23.6329 C   0  0  0  0  0  0
  -16.7272  -28.6474   23.0391 C   0  0  0  0  0  0
  -26.4515  -31.6592   25.0735 C   0  0  0  0  0  0
  -25.3738  -31.3714   26.1456 C   0  0  0  0  0  0
  -27.0366  -30.3000   24.6211 C   0  0  0  0  0  0
  -27.6065  -32.4355   25.7515 C   0  0  0  0  0  0
  -27.5582  -37.1773   24.8453 C   0  0  0  0  0  0
  -21.4214  -29.3018   22.3689 N   0  0  0  0  0  0
  -26.4292  -37.3749   23.9415 N   0  0  0  0  0  0
  -24.6964  -31.0498   22.0972 N   0  0  0  0  0  0
  -23.4210  -28.8101   23.3014 O   0  0  0  0  0  0
  -28.3088  -26.3460   20.2220 O   0  0  0  0  0  0
  -26.5654  -34.8906   22.4695 O   0  0  0  0  0  0
  -23.5468  -32.1422   23.7257 O   0  0  0  0  0  0
  -30.7593  -18.4861   18.0044 C   0  0  0  0  0  0
  -30.5984  -17.2733   18.6944 C   0  0  0  0  0  0
  -29.7380  -18.5249   20.5871 C   0  0  0  0  0  0
  -29.9097  -19.8080   19.9065 C   0  0  0  0  0  0
  -30.4459  -19.7377   18.5812 C   0  0  0  0  0  0
  -30.0960  -17.2317   20.0119 C   0  0  0  0  0  0
  -29.6685  -21.1802   20.5786 C   0  0  0  0  0  0
  -30.7465  -20.9673   17.7264 C   0  0  0  0  0  0
  -27.0311  -24.4215   21.2052 C   0  0  0  0  0  0
  -29.3323  -23.8392   20.3817 C   0  0  0  0  0  0
  -28.0842  -24.8461   20.1579 C   0  0  2  0  0  0
  -29.9788  -21.2813   21.8692 N   0  0  0  0  0  0
  -29.9085  -15.8966   20.6432 N   0  0  0  0  0  0
  -29.2216  -22.3485   19.9717 N   0  3  0  0  0  0
  -31.4736  -12.5527   19.1828 H   0  0  0  0  0  0
  -30.3699  -11.4735   19.9844 H   0  0  0  0  0  0
  -29.7995  -11.7212   17.5345 H   0  0  0  0  0  0
  -29.6333  -13.4500   17.7343 H   0  0  0  0  0  0
  -27.9136  -11.2714   18.9498 H   0  0  0  0  0  0
  -27.3821  -12.4814   17.8121 H   0  0  0  0  0  0
  -27.6352  -14.2477   19.4530 H   0  0  0  0  0  0
  -28.7109  -12.2035   21.4591 H   0  0  0  0  0  0
  -28.4235  -13.8953   21.7785 H   0  0  0  0  0  0
  -25.2753   -9.5683   22.4780 H   0  0  0  0  0  0
  -23.9975   -7.4658   22.7510 H   0  0  0  0  0  0
  -21.0844   -8.8793   19.8969 H   0  0  0  0  0  0
  -22.3714  -10.9679   19.6175 H   0  0  0  0  0  0
  -21.2013   -7.6148   23.9713 H   0  0  0  0  0  0
  -21.1475   -6.0522   25.9075 H   0  0  0  0  0  0
  -22.0601   -2.7607   23.2848 H   0  0  0  0  0  0
  -22.4093  -11.9897   22.4756 H   0  0  0  0  0  0
  -21.1096  -13.1278   22.2600 H   0  0  0  0  0  0
  -24.6508  -15.8448   20.5125 H   0  0  0  0  0  0
  -26.2703  -15.6328   20.0788 H   0  0  0  0  0  0
  -26.7189  -32.5418   23.1092 H   0  0  0  0  0  0
  -24.9936  -33.9698   25.0317 H   0  0  0  0  0  0
  -22.7219  -31.2941   21.3948 H   0  0  0  0  0  0
  -23.3755  -35.9615   23.3264 H   0  0  0  0  0  0
  -24.3557  -36.8972   22.2056 H   0  0  0  0  0  0
  -23.7271  -37.6467   23.6732 H   0  0  0  0  0  0
  -26.1067  -31.5304   20.6096 H   0  0  0  0  0  0
  -26.8520  -30.8216   22.0127 H   0  0  0  0  0  0
  -28.1224  -28.9152   21.2161 H   0  0  0  0  0  0
  -25.9729  -25.9332   18.9456 H   0  0  0  0  0  0
  -23.9874  -27.3310   18.9610 H   0  0  0  0  0  0
  -23.7662  -30.5875   19.4024 H   0  0  0  0  0  0
  -22.7707  -29.2331   19.8595 H   0  0  0  0  0  0
  -25.1283  -36.1894   25.0813 H   0  0  0  0  0  0
  -20.9935  -28.3279   24.1435 H   0  0  0  0  0  0
  -20.5655  -26.2281   23.3606 H   0  0  0  0  0  0
  -21.6626  -26.7419   22.1216 H   0  0  0  0  0  0
  -19.6906  -25.6285   21.1244 H   0  0  0  0  0  0
  -19.6716  -27.3184   20.6731 H   0  0  0  0  0  0
  -17.4179  -26.6649   21.4014 H   0  0  0  0  0  0
  -18.0293  -26.0049   22.9012 H   0  0  0  0  0  0
  -19.7948  -30.7154   24.2381 H   0  0  0  0  0  0
  -17.5057  -31.6293   24.5081 H   0  0  0  0  0  0
  -15.5361  -30.3002   23.7643 H   0  0  0  0  0  0
  -15.8657  -28.0787   22.7183 H   0  0  0  0  0  0
  -24.5939  -30.7034   25.7778 H   0  0  0  0  0  0
  -24.8877  -32.2846   26.4889 H   0  0  0  0  0  0
  -25.8048  -30.8903   27.0243 H   0  0  0  0  0  0
  -26.2930  -29.6726   24.1260 H   0  0  0  0  0  0
  -27.4065  -29.7290   25.4735 H   0  0  0  0  0  0
  -27.8818  -30.4260   23.9437 H   0  0  0  0  0  0
  -27.2691  -33.3723   26.1996 H   0  0  0  0  0  0
  -28.3933  -32.6828   25.0364 H   0  0  0  0  0  0
  -28.0672  -31.8531   26.5512 H   0  0  0  0  0  0
  -28.2543  -38.0120   24.7529 H   0  0  0  0  0  0
  -28.1129  -36.2634   24.6246 H   0  0  0  0  0  0
  -27.2271  -37.1369   25.8844 H   0  0  0  0  0  0
  -20.9411  -29.8772   21.6916 H   0  0  0  0  0  0
  -26.0161  -38.2812   24.1461 H   0  0  0  0  0  0
  -31.1523  -18.4362   16.9991 H   0  0  0  0  0  0
  -30.8593  -16.3610   18.1759 H   0  0  0  0  0  0
  -29.3482  -18.5343   21.5937 H   0  0  0  0  0  0
  -31.3255  -20.7061   16.8399 H   0  0  0  0  0  0
  -31.3379  -21.7052   18.2689 H   0  0  0  0  0  0
  -29.8264  -21.4301   17.3703 H   0  0  0  0  0  0
  -26.8829  -23.3401   21.1848 H   0  0  0  0  0  0
  -26.0519  -24.8669   21.0463 H   0  0  0  0  0  0
  -27.3565  -24.6920   22.2086 H   0  0  0  0  0  0
  -29.6259  -23.8964   21.4306 H   0  0  0  0  0  0
  -30.1854  -24.2448   19.8385 H   0  0  0  0  0  0
  -27.6940  -24.6217   19.1660 H   0  0  0  0  0  0
  -30.3905  -20.4936   22.3482 H   0  0  0  0  0  0
  -29.8102  -22.1201   22.3974 H   0  0  0  0  0  0
  -29.0316  -15.7656   21.1208 H   0  0  0  0  0  0
  -28.9397  -22.2173   19.0089 H   0  0  0  0  0  0
  1 25  1  0  0  0
  1 30  2  0  0  0
  1 83  1  0  0  0
  2  3  1  0  0  0
  2 25  1  0  0  0
  2 85  1  0  0  0
  2 86  1  0  0  0
  3  4  1  0  0  0
  3 87  1  0  0  0
  3 88  1  0  0  0
  4  5  1  0  0  0
  4 89  1  0  0  0
  4 90  1  0  0  0
  5  6  1  0  0  0
  5 26  1  0  0  0
  5 91  1  0  0  0
  6 25  1  0  0  0
  6 92  1  0  0  0
  6 93  1  0  0  0
  7  8  2  0  0  0
  7 26  1  0  0  0
  7 29  1  0  0  0
  8  9  1  0  0  0
  8 22  1  0  0  0
  9 10  1  0  0  0
  9 27  2  0  0  0
 10 11  2  0  0  0
 10 15  1  0  0  0
 11 12  1  0  0  0
 11 94  1  0  0  0
 12 13  2  0  0  0
 12 95  1  0  0  0
 13 14  1  0  0  0
 13 31  1  0  0  0
 14 15  2  0  0  0
 14 96  1  0  0  0
 15 97  1  0  0  0
 16 17  2  0  0  0
 16 21  1  0  0  0
 16 31  1  0  0  0
 17 18  1  0  0  0
 17 98  1  0  0  0
 18 19  2  0  0  0
 18 99  1  0  0  0
 19 20  1  0  0  0
 19 24  1  0  0  0
 20 21  2  0  0  0
 20100  1  0  0  0
 21 23  1  0  0  0
 22 28  1  0  0  0
 22 32  2  0  0  0
 26 27  1  0  0  0
 28101  1  0  0  0
 28102  1  0  0  0
 29103  1  0  0  0
 29104  1  0  0  0
 33 34  1  0  0  0
 33 66  1  0  0  0
 33 70  2  0  0  0
 34 36  1  0  0  0
 34 59  1  0  0  0
 34105  1  0  0  0
 35 44  2  0  0  0
 35 45  1  0  0  0
 35 68  1  0  0  0
 36 56  1  0  0  0
 36106  1  0  0  0
 37 39  1  0  0  0
 37 47  1  0  0  0
 37 66  1  0  0  0
 37107  1  0  0  0
 38 43  2  0  0  0
 38 46  1  0  0  0
 38 47  1  0  0  0
 39 64  1  0  0  0
 39 67  2  0  0  0
 40 52  1  0  0  0
 40 53  2  0  0  0
 40 58  1  0  0  0
 41108  1  0  0  0
 41109  1  0  0  0
 41110  1  0  0  0
 41 48  1  0  0  0
 42 43  1  0  0  0
 42 66  1  0  0  0
 42111  1  0  0  0
 42112  1  0  0  0
 43 44  1  0  0  0
 44113  1  0  0  0
 45 46  2  0  0  0
 45114  1  0  0  0
 46115  1  0  0  0
 47116  1  0  0  0
 47117  1  0  0  0
 48 56  1  0  0  0
 48 65  1  0  0  0
 48118  1  0  0  0
 49 50  1  0  0  0
 49 53  1  0  0  0
 49 64  1  0  0  0
 49119  1  0  0  0
 50 51  1  0  0  0
 50120  1  0  0  0
 50121  1  0  0  0
 51 52  1  0  0  0
 51122  1  0  0  0
 51123  1  0  0  0
 52124  1  0  0  0
 52125  1  0  0  0
 53 54  1  0  0  0
 54 55  2  0  0  0
 54126  1  0  0  0
 55 57  1  0  0  0
 55127  1  0  0  0
 56 69  2  0  0  0
 57 58  2  0  0  0
 57128  1  0  0  0
 58129  1  0  0  0
 59 60  1  0  0  0
 59 61  1  0  0  0
 59 62  1  0  0  0
 60130  1  0  0  0
 60131  1  0  0  0
 60132  1  0  0  0
 61133  1  0  0  0
 61134  1  0  0  0
 61135  1  0  0  0
 62136  1  0  0  0
 62137  1  0  0  0
 62138  1  0  0  0
 63 65  1  0  0  0
 63139  1  0  0  0
 63140  1  0  0  0
 63141  1  0  0  0
 64142  1  0  0  0
 65143  1  0  0  0
 68 81  1  0  0  0
 71 72  2  0  0  0
 71 75  1  0  0  0
 71144  1  0  0  0
 72 76  1  0  0  0
 72145  1  0  0  0
 73 74  1  0  0  0
 73 76  2  0  0  0
 73146  1  0  0  0
 74 75  2  0  0  0
 74 77  1  0  0  0
 75 78  1  0  0  0
 76 83  1  0  0  0
 77 82  1  0  0  0
 77 84  2  0  0  0
 78147  1  0  0  0
 78148  1  0  0  0
 78149  1  0  0  0
 79150  1  0  0  0
 79151  1  0  0  0
 79152  1  0  0  0
 79 81  1  0  0  0
 80 81  1  0  0  0
 80 84  1  0  0  0
 80153  1  0  0  0
 80154  1  0  0  0
 81155  1  0  0  0
 82156  1  0  0  0
 82157  1  0  0  0
 83158  1  0  0  0
 84159  1  0  0  0
M  CHG  1  84   1
M  ISO  4   1 100  68 101  81 101  83 100
M  END
> <chiral flag>
0

> <version>
0

> <s_m_source_file>
/data/baiqing/PycharmProjects/Reinvent-master-3.2/result/LINK_invent/BTK/process_docking_weight1_custom_product_contain_oxygen_bond_distance_aromatic_linkinvent_7_9_3/rearranged_h_0063.sdf

> <i_m_source_file_index>
54

> <r_mmod_Potential_Energy-OPLS-2005>
-53.3564529418945

> <r_mmod_Stretch_Energy-OPLS-2005>
132.317413330078

> <r_mmod_Bend_Energy-OPLS-2005>
160.374969482422

> <r_mmod_Torsional_Energy-OPLS-2005>
240.388977050781

> <r_mmod_Improper_Torsional_Energy-OPLS-2005>
5.76598072052002

> <r_mmod_Van_der_Waal_Energy-OPLS-2005>
149.793563842773

> <r_mmod_Electrostatic_Energy-OPLS-2005>
-418.660369873047

> <r_mmod_Solvation_Energy-OPLS-2005>
-411.584320068359

> <b_mmod_Minimization_Converged-OPLS-2005>
0

> <r_mmod_RMS_Derivative-OPLS-2005>
3.58399724960327

$$$$
55
                    3D
 Structure written by MMmdl.
167175  0  0  1  0            999 V2000
  -30.6546  -14.6505   20.4999 C   0  0  0  0  0  0
  -30.4261  -12.4049   19.4502 C   0  0  0  0  0  0
  -29.4999  -12.4971   18.2196 C   0  0  0  0  0  0
  -28.0254  -12.3334   18.6379 C   0  0  0  0  0  0
  -27.6440  -13.2231   19.8517 C   0  0  2  0  0  0
  -28.6916  -13.1223   20.9817 C   0  0  0  0  0  0
  -25.2521  -13.8182   20.5686 C   0  0  0  0  0  0
  -24.1805  -13.0434   20.9206 C   0  0  0  0  0  0
  -24.6390  -11.6910   20.8751 C   0  0  0  0  0  0
  -23.9067  -10.4289   21.0411 C   0  0  0  0  0  0
  -24.3622   -9.4204   21.9184 C   0  0  0  0  0  0
  -23.6297   -8.2238   22.0754 C   0  0  0  0  0  0
  -22.4276   -8.0279   21.3545 C   0  0  0  0  0  0
  -21.9915   -9.0253   20.4646 C   0  0  0  0  0  0
  -22.7243  -10.2129   20.3056 C   0  0  0  0  0  0
  -21.6851   -6.0738   22.5280 C   0  0  0  0  0  0
  -21.4013   -6.5642   23.8215 C   0  0  0  0  0  0
  -21.3660   -5.6792   24.9177 C   0  0  0  0  0  0
  -21.6043   -4.3055   24.7225 C   0  0  0  0  0  0
  -21.8820   -3.8149   23.4345 C   0  0  0  0  0  0
  -21.9193   -4.6966   22.3401 C   0  0  0  0  0  0
  -22.7828  -13.5218   21.1870 C   0  0  0  0  0  0
  -22.1660   -4.2151   21.0980 F   0  0  0  0  0  0
  -21.5630   -3.4539   25.7737 F   0  0  0  0  0  0
  -29.9973  -13.4527   20.3976 N   0  0  0  0  0  0
  -26.2946  -12.9376   20.3294 N   0  0  0  0  0  0
  -25.9315  -11.6526   20.5759 N   0  0  0  0  0  0
  -22.0483  -12.8197   22.0427 N   0  0  0  0  0  0
  -25.4208  -15.1907   20.4085 N   0  0  0  0  0  0
  -31.8416  -14.7432   20.1753 O   0  0  0  0  0  0
  -21.6639   -6.8878   21.4240 O   0  0  0  0  0  0
  -22.3508  -14.5526   20.6727 O   0  0  0  0  0  0
  -24.6242  -31.8595   23.2008 C   0  0  0  0  0  0
  -25.9087  -32.4782   23.8342 C   0  0  1  0  0  0
  -27.2282  -27.3301   20.1270 C   0  0  0  0  0  0
  -25.5904  -33.8581   24.2276 N   0  0  0  0  0  0
  -23.4180  -30.4806   21.5431 C   0  0  2  0  0  0
  -24.8659  -28.9259   20.1190 C   0  0  0  0  0  0
  -22.7463  -29.4626   22.4944 C   0  0  0  0  0  0
  -18.0284  -28.1392   22.8492 C   0  0  0  0  0  0
  -24.1490  -36.7300   23.2644 C   0  0  0  0  0  0
  -25.9565  -30.7939   21.3685 C   0  0  0  0  0  0
  -26.0325  -29.4183   20.7189 C   0  0  0  0  0  0
  -27.2203  -28.6321   20.7098 C   0  0  0  0  0  0
  -26.0424  -26.8730   19.5207 C   0  0  0  0  0  0
  -24.8707  -27.6573   19.5129 C   0  0  0  0  0  0
  -23.6334  -29.8069   20.1616 C   0  0  0  0  0  0
  -25.4114  -36.3091   24.0332 C   0  0  1  0  0  0
  -20.5882  -28.3690   23.1294 C   0  0  2  0  0  0
  -20.6777  -26.9415   22.5416 C   0  0  0  0  0  0
  -19.5750  -26.6386   21.5222 C   0  0  0  0  0  0
  -18.1927  -26.7935   22.1628 C   0  0  0  0  0  0
  -19.1536  -28.8857   23.2887 C   0  0  0  0  0  0
  -18.9460  -30.1461   23.8902 C   0  0  0  0  0  0
  -17.6459  -30.6593   24.0569 C   0  0  0  0  0  0
  -25.9047  -34.9458   23.5108 C   0  0  0  0  0  0
  -16.5351  -29.9095   23.6331 C   0  0  0  0  0  0
  -16.7269  -28.6514   23.0349 C   0  0  0  0  0  0
  -26.4481  -31.6587   25.0709 C   0  0  0  0  0  0
  -25.3719  -31.3715   26.1445 C   0  0  0  0  0  0
  -27.0325  -30.3017   24.6144 C   0  0  0  0  0  0
  -27.6049  -32.4316   25.7473 C   0  0  0  0  0  0
  -27.5578  -37.1807   24.8467 C   0  0  0  0  0  0
  -21.4177  -29.3045   22.3687 N   0  0  0  0  0  0
  -26.4295  -37.3780   23.9409 N   0  0  0  0  0  0
  -24.6849  -31.0620   22.0949 N   0  0  0  0  0  0
  -23.4192  -28.8171   23.3021 O   0  0  0  0  0  0
  -28.3595  -26.5146   20.0827 O   0  0  0  0  0  0
  -26.5621  -34.8928   22.4679 O   0  0  0  0  0  0
  -23.5405  -32.1378   23.7349 O   0  0  0  0  0  0
  -31.8094  -18.4566   22.5208 C   0  0  0  0  0  0
  -31.4534  -17.2286   21.9543 C   0  0  0  0  0  0
  -29.6428  -18.3604   20.8010 C   0  0  0  0  0  0
  -31.0757  -19.6474   22.3083 C   0  0  0  0  0  0
  -30.3293  -17.1243   21.1197 C   0  0  0  0  0  0
  -30.0093  -19.6628   21.3360 C   0  0  0  0  0  0
  -31.5230  -20.7329   23.2366 C   0  0  0  0  0  0
  -30.1282  -19.4911   25.0379 C   0  0  0  0  0  0
  -30.4371  -21.9461   25.2232 C   0  0  0  0  0  0
  -32.3835  -20.4318   25.5953 C   0  0  0  0  0  0
  -28.3543  -25.2517   20.8449 C   0  0  0  0  0  0
  -28.5195  -23.8247   20.1423 C   0  0  0  0  0  0
  -31.1143  -20.6460   24.7395 C   0  0  0  0  0  0
  -32.3255  -21.6413   22.8687 N   0  0  0  0  0  0
  -29.8970  -15.7814   20.7130 N   0  0  0  0  0  0
  -29.3018  -20.8558   20.9019 N   0  0  0  0  0  0
  -29.3713  -22.8842   22.5345 O   0  0  0  0  0  0
  -31.0008  -22.8038   20.5815 O   0  0  0  0  0  0
  -29.6406  -22.6273   21.1148 S   0  0  0  0  0  0
  -31.4684  -12.5167   19.1459 H   0  0  0  0  0  0
  -30.3547  -11.4208   19.9156 H   0  0  0  0  0  0
  -29.7673  -11.7346   17.4870 H   0  0  0  0  0  0
  -29.6371  -13.4599   17.7243 H   0  0  0  0  0  0
  -27.8704  -11.2827   18.8876 H   0  0  0  0  0  0
  -27.3672  -12.5433   17.7939 H   0  0  0  0  0  0
  -27.6486  -14.2502   19.4869 H   0  0  0  0  0  0
  -28.7097  -12.1169   21.4050 H   0  0  0  0  0  0
  -28.4422  -13.7941   21.8048 H   0  0  0  0  0  0
  -25.2768   -9.5674   22.4756 H   0  0  0  0  0  0
  -24.0008   -7.4624   22.7466 H   0  0  0  0  0  0
  -21.0851   -8.8768   19.8946 H   0  0  0  0  0  0
  -22.3707  -10.9668   19.6163 H   0  0  0  0  0  0
  -21.2004   -7.6150   23.9719 H   0  0  0  0  0  0
  -21.1482   -6.0523   25.9080 H   0  0  0  0  0  0
  -22.0598   -2.7610   23.2844 H   0  0  0  0  0  0
  -22.4111  -11.9853   22.4792 H   0  0  0  0  0  0
  -21.1101  -13.1209   22.2654 H   0  0  0  0  0  0
  -24.6497  -15.8412   20.5147 H   0  0  0  0  0  0
  -26.2619  -15.6312   20.0590 H   0  0  0  0  0  0
  -26.7151  -32.5457   23.1087 H   0  0  0  0  0  0
  -25.0051  -33.9723   25.0421 H   0  0  0  0  0  0
  -22.7120  -31.3007   21.3953 H   0  0  0  0  0  0
  -23.3748  -35.9635   23.3318 H   0  0  0  0  0  0
  -24.3582  -36.8904   22.2056 H   0  0  0  0  0  0
  -23.7245  -37.6508   23.6653 H   0  0  0  0  0  0
  -26.0834  -31.5536   20.5957 H   0  0  0  0  0  0
  -26.8395  -30.8489   21.9937 H   0  0  0  0  0  0
  -28.1227  -29.0111   21.1683 H   0  0  0  0  0  0
  -26.0268  -25.8992   19.0516 H   0  0  0  0  0  0
  -23.9751  -27.2724   19.0450 H   0  0  0  0  0  0
  -23.7531  -30.5796   19.4011 H   0  0  0  0  0  0
  -22.7545  -29.2339   19.8603 H   0  0  0  0  0  0
  -25.1295  -36.1945   25.0821 H   0  0  0  0  0  0
  -20.9967  -28.3262   24.1416 H   0  0  0  0  0  0
  -20.5695  -26.2296   23.3614 H   0  0  0  0  0  0
  -21.6643  -26.7459   22.1196 H   0  0  0  0  0  0
  -19.6918  -25.6300   21.1249 H   0  0  0  0  0  0
  -19.6694  -27.3205   20.6762 H   0  0  0  0  0  0
  -17.4202  -26.6690   21.4026 H   0  0  0  0  0  0
  -18.0318  -26.0081   22.9026 H   0  0  0  0  0  0
  -19.7935  -30.7278   24.2270 H   0  0  0  0  0  0
  -17.5015  -31.6275   24.5170 H   0  0  0  0  0  0
  -15.5353  -30.2998   23.7657 H   0  0  0  0  0  0
  -15.8668  -28.0838   22.7055 H   0  0  0  0  0  0
  -24.5888  -30.7072   25.7773 H   0  0  0  0  0  0
  -24.8923  -32.2883   26.4883 H   0  0  0  0  0  0
  -25.8050  -30.8880   27.0211 H   0  0  0  0  0  0
  -26.2892  -29.6766   24.1188 H   0  0  0  0  0  0
  -27.4059  -29.7273   25.4631 H   0  0  0  0  0  0
  -27.8739  -30.4324   23.9337 H   0  0  0  0  0  0
  -27.2668  -33.3620   26.2047 H   0  0  0  0  0  0
  -28.3855  -32.6867   25.0291 H   0  0  0  0  0  0
  -28.0721  -31.8440   26.5387 H   0  0  0  0  0  0
  -28.2607  -38.0096   24.7502 H   0  0  0  0  0  0
  -28.1060  -36.2626   24.6302 H   0  0  0  0  0  0
  -27.2298  -37.1466   25.8872 H   0  0  0  0  0  0
  -20.9351  -29.8761   21.6896 H   0  0  0  0  0  0
  -26.0181  -38.2857   24.1391 H   0  0  0  0  0  0
  -32.6420  -18.4571   23.2109 H   0  0  0  0  0  0
  -32.0286  -16.3575   22.2340 H   0  0  0  0  0  0
  -28.8010  -18.3056   20.1260 H   0  0  0  0  0  0
  -29.2309  -19.5589   24.4208 H   0  0  0  0  0  0
  -29.8011  -19.5145   26.0780 H   0  0  0  0  0  0
  -30.5729  -18.5091   24.8781 H   0  0  0  0  0  0
  -29.4322  -22.0469   24.8171 H   0  0  0  0  0  0
  -31.0061  -22.8356   24.9503 H   0  0  0  0  0  0
  -30.3281  -21.9556   26.3082 H   0  0  0  0  0  0
  -32.9151  -19.5239   25.3099 H   0  0  0  0  0  0
  -32.1426  -20.3443   26.6551 H   0  0  0  0  0  0
  -33.0828  -21.2630   25.4943 H   0  0  0  0  0  0
  -29.1958  -25.3663   21.5288 H   0  0  0  0  0  0
  -27.4827  -25.2159   21.5010 H   0  0  0  0  0  0
  -28.9508  -23.9232   19.1486 H   0  0  0  0  0  0
  -27.5462  -23.3561   20.0239 H   0  0  0  0  0  0
  -32.5307  -21.5808   21.8774 H   0  0  0  0  0  0
  -28.9002  -15.6355   20.6762 H   0  0  0  0  0  0
  -28.5460  -20.6785   20.2537 H   0  0  0  0  0  0
  1 25  1  0  0  0
  1 30  2  0  0  0
  1 85  1  0  0  0
  2  3  1  0  0  0
  2 25  1  0  0  0
  2 90  1  0  0  0
  2 91  1  0  0  0
  3  4  1  0  0  0
  3 92  1  0  0  0
  3 93  1  0  0  0
  4  5  1  0  0  0
  4 94  1  0  0  0
  4 95  1  0  0  0
  5  6  1  0  0  0
  5 26  1  0  0  0
  5 96  1  0  0  0
  6 25  1  0  0  0
  6 97  1  0  0  0
  6 98  1  0  0  0
  7  8  2  0  0  0
  7 26  1  0  0  0
  7 29  1  0  0  0
  8  9  1  0  0  0
  8 22  1  0  0  0
  9 10  1  0  0  0
  9 27  2  0  0  0
 10 11  2  0  0  0
 10 15  1  0  0  0
 11 12  1  0  0  0
 11 99  1  0  0  0
 12 13  2  0  0  0
 12100  1  0  0  0
 13 14  1  0  0  0
 13 31  1  0  0  0
 14 15  2  0  0  0
 14101  1  0  0  0
 15102  1  0  0  0
 16 17  2  0  0  0
 16 21  1  0  0  0
 16 31  1  0  0  0
 17 18  1  0  0  0
 17103  1  0  0  0
 18 19  2  0  0  0
 18104  1  0  0  0
 19 20  1  0  0  0
 19 24  1  0  0  0
 20 21  2  0  0  0
 20105  1  0  0  0
 21 23  1  0  0  0
 22 28  1  0  0  0
 22 32  2  0  0  0
 26 27  1  0  0  0
 28106  1  0  0  0
 28107  1  0  0  0
 29108  1  0  0  0
 29109  1  0  0  0
 33 34  1  0  0  0
 33 66  1  0  0  0
 33 70  2  0  0  0
 34 36  1  0  0  0
 34 59  1  0  0  0
 34110  1  0  0  0
 35 44  2  0  0  0
 35 45  1  0  0  0
 35 68  1  0  0  0
 36 56  1  0  0  0
 36111  1  0  0  0
 37 39  1  0  0  0
 37 47  1  0  0  0
 37 66  1  0  0  0
 37112  1  0  0  0
 38 43  2  0  0  0
 38 46  1  0  0  0
 38 47  1  0  0  0
 39 64  1  0  0  0
 39 67  2  0  0  0
 40 52  1  0  0  0
 40 53  2  0  0  0
 40 58  1  0  0  0
 41113  1  0  0  0
 41114  1  0  0  0
 41115  1  0  0  0
 41 48  1  0  0  0
 42 43  1  0  0  0
 42 66  1  0  0  0
 42116  1  0  0  0
 42117  1  0  0  0
 43 44  1  0  0  0
 44118  1  0  0  0
 45 46  2  0  0  0
 45119  1  0  0  0
 46120  1  0  0  0
 47121  1  0  0  0
 47122  1  0  0  0
 48 56  1  0  0  0
 48 65  1  0  0  0
 48123  1  0  0  0
 49 50  1  0  0  0
 49 53  1  0  0  0
 49 64  1  0  0  0
 49124  1  0  0  0
 50 51  1  0  0  0
 50125  1  0  0  0
 50126  1  0  0  0
 51 52  1  0  0  0
 51127  1  0  0  0
 51128  1  0  0  0
 52129  1  0  0  0
 52130  1  0  0  0
 53 54  1  0  0  0
 54 55  2  0  0  0
 54131  1  0  0  0
 55 57  1  0  0  0
 55132  1  0  0  0
 56 69  2  0  0  0
 57 58  2  0  0  0
 57133  1  0  0  0
 58134  1  0  0  0
 59 60  1  0  0  0
 59 61  1  0  0  0
 59 62  1  0  0  0
 60135  1  0  0  0
 60136  1  0  0  0
 60137  1  0  0  0
 61138  1  0  0  0
 61139  1  0  0  0
 61140  1  0  0  0
 62141  1  0  0  0
 62142  1  0  0  0
 62143  1  0  0  0
 63 65  1  0  0  0
 63144  1  0  0  0
 63145  1  0  0  0
 63146  1  0  0  0
 64147  1  0  0  0
 65148  1  0  0  0
 68 81  1  0  0  0
 71 72  2  0  0  0
 71 74  1  0  0  0
 71149  1  0  0  0
 72 75  1  0  0  0
 72150  1  0  0  0
 73 75  2  0  0  0
 73 76  1  0  0  0
 73151  1  0  0  0
 74 76  2  0  0  0
 74 77  1  0  0  0
 75 85  1  0  0  0
 76 86  1  0  0  0
 77 83  1  0  0  0
 77 84  2  0  0  0
 78152  1  0  0  0
 78153  1  0  0  0
 78154  1  0  0  0
 78 83  1  0  0  0
 79 83  1  0  0  0
 79155  1  0  0  0
 79156  1  0  0  0
 79157  1  0  0  0
 80 83  1  0  0  0
 80158  1  0  0  0
 80159  1  0  0  0
 80160  1  0  0  0
 81 82  1  0  0  0
 81161  1  0  0  0
 81162  1  0  0  0
 82163  1  0  0  0
 82164  1  0  0  0
 82 89  1  0  0  0
 84165  1  0  0  0
 85166  1  0  0  0
 86 89  1  0  0  0
 86167  1  0  0  0
 87 89  2  0  0  0
 88 89  2  0  0  0
M  ISO  4   1 100  68 101  81 101  85 100
M  END
> <chiral flag>
0

> <version>
0

> <s_m_source_file>
/data/baiqing/PycharmProjects/Reinvent-master-3.2/result/LINK_invent/BTK/process_docking_weight1_custom_product_contain_oxygen_bond_distance_aromatic_linkinvent_7_9_3/rearranged_h_0063.sdf

> <i_m_source_file_index>
55

> <r_mmod_Potential_Energy-OPLS-2005>
-14.5125226974487

> <r_mmod_Stretch_Energy-OPLS-2005>
94.6032028198242

> <r_mmod_Bend_Energy-OPLS-2005>
174.379287719727

> <r_mmod_Torsional_Energy-OPLS-2005>
265.042572021484

> <r_mmod_Improper_Torsional_Energy-OPLS-2005>
7.95579290390015

> <r_mmod_Van_der_Waal_Energy-OPLS-2005>
147.700668334961

> <r_mmod_Electrostatic_Energy-OPLS-2005>
-482.860015869141

> <r_mmod_Solvation_Energy-OPLS-2005>
-269.139221191406

> <b_mmod_Minimization_Converged-OPLS-2005>
0

> <r_mmod_RMS_Derivative-OPLS-2005>
0.876590967178345

$$$$
56
                    3D
 Structure written by MMmdl.
161170  0  0  1  0            999 V2000
  -30.5722  -14.9534   20.3713 C   0  0  0  0  0  0
  -30.4580  -12.5833   19.4934 C   0  0  0  0  0  0
  -29.5305  -12.4122   18.2665 C   0  0  0  0  0  0
  -28.0644  -12.2473   18.6975 C   0  0  0  0  0  0
  -27.6367  -13.2265   19.8226 C   0  0  2  0  0  0
  -28.6835  -13.3155   20.9508 C   0  0  0  0  0  0
  -25.2572  -13.8151   20.5690 C   0  0  0  0  0  0
  -24.1838  -13.0429   20.9211 C   0  0  0  0  0  0
  -24.6403  -11.6897   20.8730 C   0  0  0  0  0  0
  -23.9059  -10.4284   21.0369 C   0  0  0  0  0  0
  -24.3614   -9.4219   21.9153 C   0  0  0  0  0  0
  -23.6317   -8.2252   22.0723 C   0  0  0  0  0  0
  -22.4299   -8.0267   21.3510 C   0  0  0  0  0  0
  -21.9894   -9.0234   20.4622 C   0  0  0  0  0  0
  -22.7210  -10.2125   20.3038 C   0  0  0  0  0  0
  -21.6845   -6.0718   22.5265 C   0  0  0  0  0  0
  -21.3988   -6.5623   23.8194 C   0  0  0  0  0  0
  -21.3676   -5.6783   24.9165 C   0  0  0  0  0  0
  -21.6062   -4.3049   24.7213 C   0  0  0  0  0  0
  -21.8816   -3.8136   23.4332 C   0  0  0  0  0  0
  -21.9187   -4.6947   22.3393 C   0  0  0  0  0  0
  -22.7868  -13.5247   21.1866 C   0  0  0  0  0  0
  -22.1671   -4.2130   21.0968 F   0  0  0  0  0  0
  -21.5660   -3.4547   25.7741 F   0  0  0  0  0  0
  -29.9477  -13.7081   20.3195 N   0  0  0  0  0  0
  -26.2964  -12.9344   20.3232 N   0  0  0  0  0  0
  -25.9341  -11.6499   20.5736 N   0  0  0  0  0  0
  -22.0508  -12.8224   22.0398 N   0  0  0  0  0  0
  -25.4374  -15.1863   20.4132 N   0  0  0  0  0  0
  -31.8039  -14.9585   20.2968 O   0  0  0  0  0  0
  -21.6641   -6.8866   21.4229 O   0  0  0  0  0  0
  -22.3555  -14.5587   20.6765 O   0  0  0  0  0  0
  -24.6387  -31.8463   23.1892 C   0  0  0  0  0  0
  -25.9159  -32.4715   23.8268 C   0  0  1  0  0  0
  -27.2176  -27.1678   20.1682 C   0  0  0  0  0  0
  -25.5917  -33.8525   24.2177 N   0  0  0  0  0  0
  -23.4405  -30.4658   21.5358 C   0  0  2  0  0  0
  -24.8899  -28.8921   20.1143 C   0  0  0  0  0  0
  -22.7538  -29.4577   22.4900 C   0  0  0  0  0  0
  -18.0298  -28.1403   22.8485 C   0  0  0  0  0  0
  -24.1493  -36.7265   23.2640 C   0  0  0  0  0  0
  -25.9921  -30.7296   21.3855 C   0  0  0  0  0  0
  -26.0643  -29.3430   20.7319 C   0  0  0  0  0  0
  -27.2328  -28.4973   20.7399 C   0  0  0  0  0  0
  -26.0227  -26.8065   19.5107 C   0  0  0  0  0  0
  -24.8805  -27.6354   19.4882 C   0  0  0  0  0  0
  -23.6647  -29.7908   20.1564 C   0  0  0  0  0  0
  -25.4126  -36.3039   24.0302 C   0  0  1  0  0  0
  -20.5914  -28.3723   23.1249 C   0  0  2  0  0  0
  -20.6790  -26.9431   22.5410 C   0  0  0  0  0  0
  -19.5756  -26.6393   21.5218 C   0  0  0  0  0  0
  -18.1937  -26.7944   22.1631 C   0  0  0  0  0  0
  -19.1555  -28.8879   23.2866 C   0  0  0  0  0  0
  -18.9475  -30.1483   23.8882 C   0  0  0  0  0  0
  -17.6473  -30.6599   24.0568 C   0  0  0  0  0  0
  -25.9064  -34.9418   23.5045 C   0  0  0  0  0  0
  -16.5368  -29.9089   23.6351 C   0  0  0  0  0  0
  -16.7287  -28.6514   23.0361 C   0  0  0  0  0  0
  -26.4493  -31.6584   25.0710 C   0  0  0  0  0  0
  -25.3669  -31.3790   26.1411 C   0  0  0  0  0  0
  -27.0330  -30.2964   24.6285 C   0  0  0  0  0  0
  -27.6022  -32.4367   25.7484 C   0  0  0  0  0  0
  -27.5580  -37.1783   24.8455 C   0  0  0  0  0  0
  -21.4234  -29.3039   22.3608 N   0  0  0  0  0  0
  -26.4291  -37.3748   23.9410 N   0  0  0  0  0  0
  -24.7100  -31.0360   22.0908 N   0  0  0  0  0  0
  -23.4200  -28.8132   23.3051 O   0  0  0  0  0  0
  -28.2873  -26.2122   20.1887 O   0  0  0  0  0  0
  -26.5673  -34.8918   22.4641 O   0  0  0  0  0  0
  -23.5517  -32.1335   23.7124 O   0  0  0  0  0  0
  -28.8156  -19.9433   19.6970 C   0  0  0  0  0  0
  -28.9856  -18.5219   19.4590 C   0  0  0  0  0  0
  -30.0211  -19.6810   21.6922 C   0  0  0  0  0  0
  -30.2021  -18.2532   21.4577 C   0  0  0  0  0  0
  -29.3161  -20.6289   20.8431 C   0  0  0  0  0  0
  -29.7021  -17.5771   20.2957 C   0  0  0  0  0  0
  -29.0838  -22.5229   22.4750 C   0  0  0  0  0  0
  -28.0857  -23.5905   22.9283 C   0  0  0  0  0  0
  -28.3402  -24.9207   22.2239 C   0  0  0  0  0  0
  -28.7856  -23.3378   20.2074 C   0  0  0  0  0  0
  -28.0757  -24.7792   20.7253 C   0  0  2  0  0  0
  -30.9653  -17.4592   22.5031 C   0  0  0  0  0  0
  -29.7380  -15.9726   18.4076 C   0  0  0  0  0  0
  -29.0503  -22.1205   21.1763 N   0  0  0  0  0  0
  -29.8668  -16.0961   19.8754 N   0  0  0  0  0  0
  -29.8836  -22.1163   23.3237 O   0  0  0  0  0  0
  -31.4780  -12.7624   19.1510 H   0  0  0  0  0  0
  -30.4987  -11.6698   20.0878 H   0  0  0  0  0  0
  -29.8490  -11.5331   17.7018 H   0  0  0  0  0  0
  -29.6177  -13.2396   17.5671 H   0  0  0  0  0  0
  -27.9650  -11.2197   19.0512 H   0  0  0  0  0  0
  -27.3993  -12.3373   17.8382 H   0  0  0  0  0  0
  -27.5860  -14.2069   19.3501 H   0  0  0  0  0  0
  -28.7822  -12.3695   21.4882 H   0  0  0  0  0  0
  -28.3804  -14.0673   21.6828 H   0  0  0  0  0  0
  -25.2742   -9.5739   22.4718 H   0  0  0  0  0  0
  -24.0027   -7.4659   22.7466 H   0  0  0  0  0  0
  -21.0813   -8.8741   19.8959 H   0  0  0  0  0  0
  -22.3627  -10.9656   19.6167 H   0  0  0  0  0  0
  -21.1935   -7.6122   23.9671 H   0  0  0  0  0  0
  -21.1526   -6.0515   25.9065 H   0  0  0  0  0  0
  -22.0588   -2.7594   23.2815 H   0  0  0  0  0  0
  -22.4168  -11.9910   22.4811 H   0  0  0  0  0  0
  -21.1134  -13.1253   22.2629 H   0  0  0  0  0  0
  -24.6845  -15.8523   20.5459 H   0  0  0  0  0  0
  -26.3073  -15.6176   20.1193 H   0  0  0  0  0  0
  -26.7230  -32.5336   23.1001 H   0  0  0  0  0  0
  -24.9983  -33.9650   25.0269 H   0  0  0  0  0  0
  -22.7392  -31.2888   21.3810 H   0  0  0  0  0  0
  -23.3753  -35.9602   23.3306 H   0  0  0  0  0  0
  -24.3557  -36.8903   22.2053 H   0  0  0  0  0  0
  -23.7263  -37.6464   23.6685 H   0  0  0  0  0  0
  -26.1448  -31.4837   20.6139 H   0  0  0  0  0  0
  -26.8614  -30.7782   22.0288 H   0  0  0  0  0  0
  -28.1311  -28.8363   21.2371 H   0  0  0  0  0  0
  -25.9602  -25.8468   19.0151 H   0  0  0  0  0  0
  -23.9838  -27.2843   18.9974 H   0  0  0  0  0  0
  -23.7930  -30.5593   19.3930 H   0  0  0  0  0  0
  -22.7800  -29.2263   19.8573 H   0  0  0  0  0  0
  -25.1326  -36.1858   25.0791 H   0  0  0  0  0  0
  -21.0008  -28.3315   24.1376 H   0  0  0  0  0  0
  -20.5705  -26.2326   23.3626 H   0  0  0  0  0  0
  -21.6658  -26.7467   22.1197 H   0  0  0  0  0  0
  -19.6924  -25.6294   21.1260 H   0  0  0  0  0  0
  -19.6697  -27.3194   20.6738 H   0  0  0  0  0  0
  -17.4214  -26.6703   21.4032 H   0  0  0  0  0  0
  -18.0344  -26.0102   22.9039 H   0  0  0  0  0  0
  -19.7946  -30.7315   24.2249 H   0  0  0  0  0  0
  -17.5023  -31.6278   24.5159 H   0  0  0  0  0  0
  -15.5368  -30.2990   23.7676 H   0  0  0  0  0  0
  -15.8687  -28.0828   22.7093 H   0  0  0  0  0  0
  -24.5820  -30.7177   25.7718 H   0  0  0  0  0  0
  -24.8892  -32.2992   26.4793 H   0  0  0  0  0  0
  -25.7942  -30.8968   27.0210 H   0  0  0  0  0  0
  -26.2921  -29.6727   24.1266 H   0  0  0  0  0  0
  -27.3884  -29.7252   25.4869 H   0  0  0  0  0  0
  -27.8871  -30.4183   23.9617 H   0  0  0  0  0  0
  -27.2582  -33.3664   26.2039 H   0  0  0  0  0  0
  -28.3823  -32.6955   25.0308 H   0  0  0  0  0  0
  -28.0701  -31.8520   26.5419 H   0  0  0  0  0  0
  -28.2589  -38.0084   24.7512 H   0  0  0  0  0  0
  -28.1085  -36.2620   24.6274 H   0  0  0  0  0  0
  -27.2298  -37.1422   25.8853 H   0  0  0  0  0  0
  -20.9428  -29.8706   21.6751 H   0  0  0  0  0  0
  -26.0157  -38.2817   24.1411 H   0  0  0  0  0  0
  -28.2444  -20.5086   18.9749 H   0  0  0  0  0  0
  -28.5166  -18.1671   18.5520 H   0  0  0  0  0  0
  -30.4757  -20.0311   22.6036 H   0  0  0  0  0  0
  -28.1524  -23.7154   24.0090 H   0  0  0  0  0  0
  -27.0743  -23.2365   22.7201 H   0  0  0  0  0  0
  -29.3689  -25.2428   22.3967 H   0  0  0  0  0  0
  -27.6980  -25.6907   22.6513 H   0  0  0  0  0  0
  -29.7706  -23.5930   19.8147 H   0  0  0  0  0  0
  -28.2288  -22.9689   19.3466 H   0  0  0  0  0  0
  -27.0055  -24.5857   20.6476 H   0  0  0  0  0  0
  -31.1466  -18.0428   23.4046 H   0  0  0  0  0  0
  -31.9334  -17.1439   22.1099 H   0  0  0  0  0  0
  -30.3963  -16.5766   22.7942 H   0  0  0  0  0  0
  -28.6929  -15.8739   18.1166 H   0  0  0  0  0  0
  -30.2952  -15.1529   17.9618 H   0  0  0  0  0  0
  -30.1588  -16.8393   17.8971 H   0  0  0  0  0  0
  1 25  1  0  0  0
  1 30  2  0  0  0
  1 85  1  0  0  0
  2  3  1  0  0  0
  2 25  1  0  0  0
  2 87  1  0  0  0
  2 88  1  0  0  0
  3  4  1  0  0  0
  3 89  1  0  0  0
  3 90  1  0  0  0
  4  5  1  0  0  0
  4 91  1  0  0  0
  4 92  1  0  0  0
  5  6  1  0  0  0
  5 26  1  0  0  0
  5 93  1  0  0  0
  6 25  1  0  0  0
  6 94  1  0  0  0
  6 95  1  0  0  0
  7  8  2  0  0  0
  7 26  1  0  0  0
  7 29  1  0  0  0
  8  9  1  0  0  0
  8 22  1  0  0  0
  9 10  1  0  0  0
  9 27  2  0  0  0
 10 11  2  0  0  0
 10 15  1  0  0  0
 11 12  1  0  0  0
 11 96  1  0  0  0
 12 13  2  0  0  0
 12 97  1  0  0  0
 13 14  1  0  0  0
 13 31  1  0  0  0
 14 15  2  0  0  0
 14 98  1  0  0  0
 15 99  1  0  0  0
 16 17  2  0  0  0
 16 21  1  0  0  0
 16 31  1  0  0  0
 17 18  1  0  0  0
 17100  1  0  0  0
 18 19  2  0  0  0
 18101  1  0  0  0
 19 20  1  0  0  0
 19 24  1  0  0  0
 20 21  2  0  0  0
 20102  1  0  0  0
 21 23  1  0  0  0
 22 28  1  0  0  0
 22 32  2  0  0  0
 26 27  1  0  0  0
 28103  1  0  0  0
 28104  1  0  0  0
 29105  1  0  0  0
 29106  1  0  0  0
 33 34  1  0  0  0
 33 66  1  0  0  0
 33 70  2  0  0  0
 34 36  1  0  0  0
 34 59  1  0  0  0
 34107  1  0  0  0
 35 44  2  0  0  0
 35 45  1  0  0  0
 35 68  1  0  0  0
 36 56  1  0  0  0
 36108  1  0  0  0
 37 39  1  0  0  0
 37 47  1  0  0  0
 37 66  1  0  0  0
 37109  1  0  0  0
 38 43  2  0  0  0
 38 46  1  0  0  0
 38 47  1  0  0  0
 39 64  1  0  0  0
 39 67  2  0  0  0
 40 52  1  0  0  0
 40 53  2  0  0  0
 40 58  1  0  0  0
 41110  1  0  0  0
 41111  1  0  0  0
 41112  1  0  0  0
 41 48  1  0  0  0
 42 43  1  0  0  0
 42 66  1  0  0  0
 42113  1  0  0  0
 42114  1  0  0  0
 43 44  1  0  0  0
 44115  1  0  0  0
 45 46  2  0  0  0
 45116  1  0  0  0
 46117  1  0  0  0
 47118  1  0  0  0
 47119  1  0  0  0
 48 56  1  0  0  0
 48 65  1  0  0  0
 48120  1  0  0  0
 49 50  1  0  0  0
 49 53  1  0  0  0
 49 64  1  0  0  0
 49121  1  0  0  0
 50 51  1  0  0  0
 50122  1  0  0  0
 50123  1  0  0  0
 51 52  1  0  0  0
 51124  1  0  0  0
 51125  1  0  0  0
 52126  1  0  0  0
 52127  1  0  0  0
 53 54  1  0  0  0
 54 55  2  0  0  0
 54128  1  0  0  0
 55 57  1  0  0  0
 55129  1  0  0  0
 56 69  2  0  0  0
 57 58  2  0  0  0
 57130  1  0  0  0
 58131  1  0  0  0
 59 60  1  0  0  0
 59 61  1  0  0  0
 59 62  1  0  0  0
 60132  1  0  0  0
 60133  1  0  0  0
 60134  1  0  0  0
 61135  1  0  0  0
 61136  1  0  0  0
 61137  1  0  0  0
 62138  1  0  0  0
 62139  1  0  0  0
 62140  1  0  0  0
 63 65  1  0  0  0
 63141  1  0  0  0
 63142  1  0  0  0
 63143  1  0  0  0
 64144  1  0  0  0
 65145  1  0  0  0
 68 81  1  0  0  0
 71 72  2  0  0  0
 71 75  1  0  0  0
 71146  1  0  0  0
 72 76  1  0  0  0
 72147  1  0  0  0
 73 74  1  0  0  0
 73 75  2  0  0  0
 73148  1  0  0  0
 74 76  2  0  0  0
 74 82  1  0  0  0
 75 84  1  0  0  0
 76 85  1  0  0  0
 77 78  1  0  0  0
 77 84  1  0  0  0
 77 86  2  0  0  0
 78 79  1  0  0  0
 78149  1  0  0  0
 78150  1  0  0  0
 79 81  1  0  0  0
 79151  1  0  0  0
 79152  1  0  0  0
 80 81  1  0  0  0
 80 84  1  0  0  0
 80153  1  0  0  0
 80154  1  0  0  0
 81155  1  0  0  0
 82156  1  0  0  0
 82157  1  0  0  0
 82158  1  0  0  0
 83 85  1  0  0  0
 83159  1  0  0  0
 83160  1  0  0  0
 83161  1  0  0  0
M  ISO  4   1 100  68 101  81 101  85 100
M  END
> <chiral flag>
0

> <version>
0

> <s_m_source_file>
/data/baiqing/PycharmProjects/Reinvent-master-3.2/result/LINK_invent/BTK/process_docking_weight1_custom_product_contain_oxygen_bond_distance_aromatic_linkinvent_7_9_3/rearranged_h_0063.sdf

> <i_m_source_file_index>
56

> <r_mmod_Potential_Energy-OPLS-2005>
751.546691894531

> <r_mmod_Stretch_Energy-OPLS-2005>
244.23713684082

> <r_mmod_Bend_Energy-OPLS-2005>
268.170684814453

> <r_mmod_Torsional_Energy-OPLS-2005>
382.360015869141

> <r_mmod_Improper_Torsional_Energy-OPLS-2005>
25.4653835296631

> <r_mmod_Van_der_Waal_Energy-OPLS-2005>
163.031646728516

> <r_mmod_Electrostatic_Energy-OPLS-2005>
-320.792785644531

> <r_mmod_Solvation_Energy-OPLS-2005>
-201.972290039062

> <b_mmod_Minimization_Converged-OPLS-2005>
0

> <r_mmod_RMS_Derivative-OPLS-2005>
4.25512409210205

$$$$
57
                    3D
 Structure written by MMmdl.
162171  0  0  1  0            999 V2000
  -30.6065  -14.7066   20.4635 C   0  0  0  0  0  0
  -30.4362  -12.4232   19.4792 C   0  0  0  0  0  0
  -29.5172  -12.4935   18.2387 C   0  0  0  0  0  0
  -28.0394  -12.3369   18.6454 C   0  0  0  0  0  0
  -27.6505  -13.2231   19.8592 C   0  0  2  0  0  0
  -28.6913  -13.1238   20.9962 C   0  0  0  0  0  0
  -25.2573  -13.8163   20.5730 C   0  0  0  0  0  0
  -24.1831  -13.0428   20.9203 C   0  0  0  0  0  0
  -24.6403  -11.6894   20.8749 C   0  0  0  0  0  0
  -23.9072  -10.4279   21.0422 C   0  0  0  0  0  0
  -24.3628   -9.4189   21.9192 C   0  0  0  0  0  0
  -23.6292   -8.2232   22.0759 C   0  0  0  0  0  0
  -22.4273   -8.0288   21.3547 C   0  0  0  0  0  0
  -21.9917   -9.0267   20.4657 C   0  0  0  0  0  0
  -22.7251  -10.2140   20.3067 C   0  0  0  0  0  0
  -21.6843   -6.0735   22.5277 C   0  0  0  0  0  0
  -21.4003   -6.5630   23.8213 C   0  0  0  0  0  0
  -21.3661   -5.6786   24.9175 C   0  0  0  0  0  0
  -21.6051   -4.3050   24.7221 C   0  0  0  0  0  0
  -21.8818   -3.8142   23.4337 C   0  0  0  0  0  0
  -21.9185   -4.6960   22.3396 C   0  0  0  0  0  0
  -22.7856  -13.5240   21.1865 C   0  0  0  0  0  0
  -22.1655   -4.2159   21.0964 F   0  0  0  0  0  0
  -21.5642   -3.4523   25.7725 F   0  0  0  0  0  0
  -30.0021  -13.4707   20.4312 N   0  0  0  0  0  0
  -26.2983  -12.9350   20.3314 N   0  0  0  0  0  0
  -25.9336  -11.6502   20.5751 N   0  0  0  0  0  0
  -22.0483  -12.8252   22.0421 N   0  0  0  0  0  0
  -25.4337  -15.1883   20.4225 N   0  0  0  0  0  0
  -31.7692  -14.8439   20.0690 O   0  0  0  0  0  0
  -21.6631   -6.8886   21.4242 O   0  0  0  0  0  0
  -22.3556  -14.5549   20.6712 O   0  0  0  0  0  0
  -24.6313  -31.8569   23.2003 C   0  0  0  0  0  0
  -25.9137  -32.4756   23.8347 C   0  0  1  0  0  0
  -27.2128  -27.2709   20.1171 C   0  0  0  0  0  0
  -25.5933  -33.8558   24.2275 N   0  0  0  0  0  0
  -23.4269  -30.4808   21.5454 C   0  0  2  0  0  0
  -24.8708  -28.9344   20.1078 C   0  0  0  0  0  0
  -22.7512  -29.4591   22.4924 C   0  0  0  0  0  0
  -18.0282  -28.1402   22.8473 C   0  0  0  0  0  0
  -24.1482  -36.7275   23.2639 C   0  0  0  0  0  0
  -25.9737  -30.7702   21.3807 C   0  0  0  0  0  0
  -26.0440  -29.3958   20.7189 C   0  0  0  0  0  0
  -27.2176  -28.5766   20.7135 C   0  0  0  0  0  0
  -26.0164  -26.8830   19.4691 C   0  0  0  0  0  0
  -24.8613  -27.6856   19.4728 C   0  0  0  0  0  0
  -23.6441  -29.8228   20.1586 C   0  0  0  0  0  0
  -25.4106  -36.3067   24.0330 C   0  0  1  0  0  0
  -20.5889  -28.3700   23.1270 C   0  0  2  0  0  0
  -20.6775  -26.9418   22.5415 C   0  0  0  0  0  0
  -19.5748  -26.6383   21.5221 C   0  0  0  0  0  0
  -18.1926  -26.7937   22.1628 C   0  0  0  0  0  0
  -19.1539  -28.8870   23.2862 C   0  0  0  0  0  0
  -18.9467  -30.1469   23.8881 C   0  0  0  0  0  0
  -17.6469  -30.6587   24.0572 C   0  0  0  0  0  0
  -25.9055  -34.9440   23.5109 C   0  0  0  0  0  0
  -16.5359  -29.9096   23.6333 C   0  0  0  0  0  0
  -16.7269  -28.6520   23.0341 C   0  0  0  0  0  0
  -26.4507  -31.6570   25.0727 C   0  0  0  0  0  0
  -25.3730  -31.3738   26.1457 C   0  0  0  0  0  0
  -27.0351  -30.2977   24.6212 C   0  0  0  0  0  0
  -27.6057  -32.4320   25.7496 C   0  0  0  0  0  0
  -27.5575  -37.1792   24.8461 C   0  0  0  0  0  0
  -21.4220  -29.3037   22.3662 N   0  0  0  0  0  0
  -26.4279  -37.3770   23.9413 N   0  0  0  0  0  0
  -24.6964  -31.0538   22.0979 N   0  0  0  0  0  0
  -23.4217  -28.8116   23.3007 O   0  0  0  0  0  0
  -28.3035  -26.3727   20.1883 O   0  0  0  0  0  0
  -26.5639  -34.8914   22.4685 O   0  0  0  0  0  0
  -23.5464  -32.1392   23.7298 O   0  0  0  0  0  0
  -29.0557  -19.4951   18.7146 C   0  0  0  0  0  0
  -29.6887  -18.3960   20.7787 C   0  0  0  0  0  0
  -29.0227  -18.2384   18.0633 C   0  0  0  0  0  0
  -29.4124  -19.6500   20.0761 C   0  0  0  0  0  0
  -29.6837  -17.0901   20.1470 C   0  0  0  0  0  0
  -29.3371  -17.0591   18.7768 C   0  0  0  0  0  0
  -30.1791  -21.3122   21.7749 C   0  0  0  0  0  0
  -28.2004  -19.1052   15.8335 C   0  0  0  0  0  0
  -28.6366  -18.1226   16.6405 C   0  0  0  0  0  0
  -30.1229  -22.6928   22.4581 C   0  0  0  0  0  0
  -29.0397  -23.6627   21.9670 C   0  0  0  0  0  0
  -28.8175  -22.2426   19.9217 C   0  0  0  0  0  0
  -29.0473  -23.7504   20.4479 C   0  0  1  0  0  0
  -28.0618  -24.9147   19.9228 C   0  0  0  0  0  0
  -29.4699  -21.0476   20.6392 N   0  0  0  0  0  0
  -29.8514  -15.7967   20.8459 N   0  0  0  0  0  0
  -30.9368  -20.4950   22.3068 O   0  0  0  0  0  0
  -29.2455  -15.8652   18.1409 F   0  0  0  0  0  0
  -31.4792  -12.5425   19.1826 H   0  0  0  0  0  0
  -30.3726  -11.4395   19.9463 H   0  0  0  0  0  0
  -29.7926  -11.7177   17.5244 H   0  0  0  0  0  0
  -29.6629  -13.4420   17.7200 H   0  0  0  0  0  0
  -27.8796  -11.2861   18.8906 H   0  0  0  0  0  0
  -27.3905  -12.5485   17.7962 H   0  0  0  0  0  0
  -27.6550  -14.2526   19.5001 H   0  0  0  0  0  0
  -28.7109  -12.1138   21.4101 H   0  0  0  0  0  0
  -28.4276  -13.7835   21.8250 H   0  0  0  0  0  0
  -25.2785   -9.5647   22.4760 H   0  0  0  0  0  0
  -23.9998   -7.4610   22.7469 H   0  0  0  0  0  0
  -21.0849   -8.8795   19.8962 H   0  0  0  0  0  0
  -22.3726  -10.9687   19.6172 H   0  0  0  0  0  0
  -21.1978   -7.6139   23.9722 H   0  0  0  0  0  0
  -21.1496   -6.0511   25.9088 H   0  0  0  0  0  0
  -22.0600   -2.7606   23.2832 H   0  0  0  0  0  0
  -22.4072  -11.9896   22.4795 H   0  0  0  0  0  0
  -21.1122  -13.1320   22.2643 H   0  0  0  0  0  0
  -24.6758  -15.8513   20.5441 H   0  0  0  0  0  0
  -26.2917  -15.6227   20.1081 H   0  0  0  0  0  0
  -26.7197  -32.5412   23.1085 H   0  0  0  0  0  0
  -25.0056  -33.9698   25.0403 H   0  0  0  0  0  0
  -22.7218  -31.3023   21.4045 H   0  0  0  0  0  0
  -23.3746  -35.9605   23.3293 H   0  0  0  0  0  0
  -24.3571  -36.8904   22.2054 H   0  0  0  0  0  0
  -23.7231  -37.6469   23.6676 H   0  0  0  0  0  0
  -26.1176  -31.5297   20.6114 H   0  0  0  0  0  0
  -26.8513  -30.8154   22.0138 H   0  0  0  0  0  0
  -28.1146  -28.9239   21.2068 H   0  0  0  0  0  0
  -25.9342  -25.9344   18.9600 H   0  0  0  0  0  0
  -23.9636  -27.3308   18.9840 H   0  0  0  0  0  0
  -23.7751  -30.6055   19.4101 H   0  0  0  0  0  0
  -22.7597  -29.2636   19.8471 H   0  0  0  0  0  0
  -25.1277  -36.1926   25.0820 H   0  0  0  0  0  0
  -20.9967  -28.3290   24.1398 H   0  0  0  0  0  0
  -20.5686  -26.2311   23.3619 H   0  0  0  0  0  0
  -21.6646  -26.7444   22.1215 H   0  0  0  0  0  0
  -19.6910  -25.6299   21.1237 H   0  0  0  0  0  0
  -19.6677  -27.3196   20.6755 H   0  0  0  0  0  0
  -17.4198  -26.6675   21.4034 H   0  0  0  0  0  0
  -18.0310  -26.0090   22.9032 H   0  0  0  0  0  0
  -19.7948  -30.7291   24.2241 H   0  0  0  0  0  0
  -17.5023  -31.6262   24.5191 H   0  0  0  0  0  0
  -15.5361  -30.3007   23.7654 H   0  0  0  0  0  0
  -15.8666  -28.0843   22.7059 H   0  0  0  0  0  0
  -24.5886  -30.7103   25.7801 H   0  0  0  0  0  0
  -24.8949  -32.2919   26.4882 H   0  0  0  0  0  0
  -25.8046  -30.8920   27.0238 H   0  0  0  0  0  0
  -26.2935  -29.6719   24.1231 H   0  0  0  0  0  0
  -27.4018  -29.7246   25.4738 H   0  0  0  0  0  0
  -27.8823  -30.4231   23.9461 H   0  0  0  0  0  0
  -27.2652  -33.3626   26.2053 H   0  0  0  0  0  0
  -28.3877  -32.6876   25.0330 H   0  0  0  0  0  0
  -28.0714  -31.8463   26.5432 H   0  0  0  0  0  0
  -28.2593  -38.0093   24.7523 H   0  0  0  0  0  0
  -28.1081  -36.2629   24.6272 H   0  0  0  0  0  0
  -27.2303  -37.1415   25.8869 H   0  0  0  0  0  0
  -20.9415  -29.8773   21.6872 H   0  0  0  0  0  0
  -26.0157  -38.2838   24.1440 H   0  0  0  0  0  0
  -28.8064  -20.3599   18.1270 H   0  0  0  0  0  0
  -29.9048  -18.4108   21.8356 H   0  0  0  0  0  0
  -27.9543  -18.8890   14.8041 H   0  0  0  0  0  0
  -28.0731  -20.1279   16.1557 H   0  0  0  0  0  0
  -28.7215  -17.1355   16.2068 H   0  0  0  0  0  0
  -31.1015  -23.1552   22.3309 H   0  0  0  0  0  0
  -30.0022  -22.5318   23.5299 H   0  0  0  0  0  0
  -29.2157  -24.6489   22.3972 H   0  0  0  0  0  0
  -28.0592  -23.3400   22.3193 H   0  0  0  0  0  0
  -29.1464  -22.2523   18.8840 H   0  0  0  0  0  0
  -27.7465  -22.0404   19.8961 H   0  0  0  0  0  0
  -30.0500  -24.0435   20.1322 H   0  0  0  0  0  0
  -27.0815  -24.6506   20.3220 H   0  0  0  0  0  0
  -27.9837  -24.8081   18.8397 H   0  0  0  0  0  0
  -29.0374  -15.5264   21.3763 H   0  0  0  0  0  0
  1 25  1  0  0  0
  1 30  2  0  0  0
  1 86  1  0  0  0
  2  3  1  0  0  0
  2 25  1  0  0  0
  2 89  1  0  0  0
  2 90  1  0  0  0
  3  4  1  0  0  0
  3 91  1  0  0  0
  3 92  1  0  0  0
  4  5  1  0  0  0
  4 93  1  0  0  0
  4 94  1  0  0  0
  5  6  1  0  0  0
  5 26  1  0  0  0
  5 95  1  0  0  0
  6 25  1  0  0  0
  6 96  1  0  0  0
  6 97  1  0  0  0
  7  8  2  0  0  0
  7 26  1  0  0  0
  7 29  1  0  0  0
  8  9  1  0  0  0
  8 22  1  0  0  0
  9 10  1  0  0  0
  9 27  2  0  0  0
 10 11  2  0  0  0
 10 15  1  0  0  0
 11 12  1  0  0  0
 11 98  1  0  0  0
 12 13  2  0  0  0
 12 99  1  0  0  0
 13 14  1  0  0  0
 13 31  1  0  0  0
 14 15  2  0  0  0
 14100  1  0  0  0
 15101  1  0  0  0
 16 17  2  0  0  0
 16 21  1  0  0  0
 16 31  1  0  0  0
 17 18  1  0  0  0
 17102  1  0  0  0
 18 19  2  0  0  0
 18103  1  0  0  0
 19 20  1  0  0  0
 19 24  1  0  0  0
 20 21  2  0  0  0
 20104  1  0  0  0
 21 23  1  0  0  0
 22 28  1  0  0  0
 22 32  2  0  0  0
 26 27  1  0  0  0
 28105  1  0  0  0
 28106  1  0  0  0
 29107  1  0  0  0
 29108  1  0  0  0
 33 34  1  0  0  0
 33 66  1  0  0  0
 33 70  2  0  0  0
 34 36  1  0  0  0
 34 59  1  0  0  0
 34109  1  0  0  0
 35 44  2  0  0  0
 35 45  1  0  0  0
 35 68  1  0  0  0
 36 56  1  0  0  0
 36110  1  0  0  0
 37 39  1  0  0  0
 37 47  1  0  0  0
 37 66  1  0  0  0
 37111  1  0  0  0
 38 43  2  0  0  0
 38 46  1  0  0  0
 38 47  1  0  0  0
 39 64  1  0  0  0
 39 67  2  0  0  0
 40 52  1  0  0  0
 40 53  2  0  0  0
 40 58  1  0  0  0
 41112  1  0  0  0
 41113  1  0  0  0
 41114  1  0  0  0
 41 48  1  0  0  0
 42 43  1  0  0  0
 42 66  1  0  0  0
 42115  1  0  0  0
 42116  1  0  0  0
 43 44  1  0  0  0
 44117  1  0  0  0
 45 46  2  0  0  0
 45118  1  0  0  0
 46119  1  0  0  0
 47120  1  0  0  0
 47121  1  0  0  0
 48 56  1  0  0  0
 48 65  1  0  0  0
 48122  1  0  0  0
 49 50  1  0  0  0
 49 53  1  0  0  0
 49 64  1  0  0  0
 49123  1  0  0  0
 50 51  1  0  0  0
 50124  1  0  0  0
 50125  1  0  0  0
 51 52  1  0  0  0
 51126  1  0  0  0
 51127  1  0  0  0
 52128  1  0  0  0
 52129  1  0  0  0
 53 54  1  0  0  0
 54 55  2  0  0  0
 54130  1  0  0  0
 55 57  1  0  0  0
 55131  1  0  0  0
 56 69  2  0  0  0
 57 58  2  0  0  0
 57132  1  0  0  0
 58133  1  0  0  0
 59 60  1  0  0  0
 59 61  1  0  0  0
 59 62  1  0  0  0
 60134  1  0  0  0
 60135  1  0  0  0
 60136  1  0  0  0
 61137  1  0  0  0
 61138  1  0  0  0
 61139  1  0  0  0
 62140  1  0  0  0
 62141  1  0  0  0
 62142  1  0  0  0
 63 65  1  0  0  0
 63143  1  0  0  0
 63144  1  0  0  0
 63145  1  0  0  0
 64146  1  0  0  0
 65147  1  0  0  0
 68 84  1  0  0  0
 71 73  2  0  0  0
 71 74  1  0  0  0
 71148  1  0  0  0
 72 74  2  0  0  0
 72 75  1  0  0  0
 72149  1  0  0  0
 73 76  1  0  0  0
 73 79  1  0  0  0
 74 85  1  0  0  0
 75 76  2  0  0  0
 75 86  1  0  0  0
 76 88  1  0  0  0
 77 80  1  0  0  0
 77 85  1  0  0  0
 77 87  2  0  0  0
 78 79  2  0  0  0
 78150  1  0  0  0
 78151  1  0  0  0
 79152  1  0  0  0
 80 81  1  0  0  0
 80153  1  0  0  0
 80154  1  0  0  0
 81 83  1  0  0  0
 81155  1  0  0  0
 81156  1  0  0  0
 82 83  1  0  0  0
 82 85  1  0  0  0
 82157  1  0  0  0
 82158  1  0  0  0
 83 84  1  0  0  0
 83159  1  0  0  0
 84160  1  0  0  0
 84161  1  0  0  0
 86162  1  0  0  0
M  ISO  4   1 100  68 101  84 101  86 100
M  END
> <chiral flag>
0

> <version>
0

> <s_m_source_file>
/data/baiqing/PycharmProjects/Reinvent-master-3.2/result/LINK_invent/BTK/process_docking_weight1_custom_product_contain_oxygen_bond_distance_aromatic_linkinvent_7_9_3/rearranged_h_0063.sdf

> <i_m_source_file_index>
57

> <r_mmod_Potential_Energy-OPLS-2005>
250.289031982422

> <r_mmod_Stretch_Energy-OPLS-2005>
127.548034667969

> <r_mmod_Bend_Energy-OPLS-2005>
164.483383178711

> <r_mmod_Torsional_Energy-OPLS-2005>
290.259460449219

> <r_mmod_Improper_Torsional_Energy-OPLS-2005>
5.70935392379761

> <r_mmod_Van_der_Waal_Energy-OPLS-2005>
164.925186157227

> <r_mmod_Electrostatic_Energy-OPLS-2005>
-352.828063964844

> <r_mmod_Solvation_Energy-OPLS-2005>
-224.953094482422

> <b_mmod_Minimization_Converged-OPLS-2005>
0

> <r_mmod_RMS_Derivative-OPLS-2005>
2.35279107093811

$$$$
58
                    3D
 Structure written by MMmdl.
153161  0  0  1  0            999 V2000
  -30.5837  -14.7583   20.4650 C   0  0  0  0  0  0
  -30.4402  -12.4692   19.4556 C   0  0  0  0  0  0
  -29.5098  -12.5092   18.2230 C   0  0  0  0  0  0
  -28.0364  -12.3248   18.6436 C   0  0  0  0  0  0
  -27.6398  -13.2248   19.8450 C   0  0  2  0  0  0
  -28.6896  -13.1614   20.9752 C   0  0  0  0  0  0
  -25.2517  -13.8161   20.5703 C   0  0  0  0  0  0
  -24.1803  -13.0415   20.9207 C   0  0  0  0  0  0
  -24.6381  -11.6895   20.8726 C   0  0  0  0  0  0
  -23.9050  -10.4279   21.0386 C   0  0  0  0  0  0
  -24.3605   -9.4199   21.9172 C   0  0  0  0  0  0
  -23.6281   -8.2233   22.0755 C   0  0  0  0  0  0
  -22.4267   -8.0262   21.3542 C   0  0  0  0  0  0
  -21.9892   -9.0233   20.4649 C   0  0  0  0  0  0
  -22.7213  -10.2116   20.3047 C   0  0  0  0  0  0
  -21.6851   -6.0722   22.5270 C   0  0  0  0  0  0
  -21.4018   -6.5626   23.8205 C   0  0  0  0  0  0
  -21.3660   -5.6782   24.9168 C   0  0  0  0  0  0
  -21.6059   -4.3049   24.7219 C   0  0  0  0  0  0
  -21.8813   -3.8135   23.4339 C   0  0  0  0  0  0
  -21.9198   -4.6951   22.3393 C   0  0  0  0  0  0
  -22.7828  -13.5216   21.1862 C   0  0  0  0  0  0
  -22.1662   -4.2129   21.0974 F   0  0  0  0  0  0
  -21.5635   -3.4540   25.7737 F   0  0  0  0  0  0
  -29.9792  -13.5261   20.3800 N   0  0  0  0  0  0
  -26.2937  -12.9363   20.3266 N   0  0  0  0  0  0
  -25.9311  -11.6520   20.5736 N   0  0  0  0  0  0
  -22.0465  -12.8212   22.0418 N   0  0  0  0  0  0
  -25.4178  -15.1888   20.4135 N   0  0  0  0  0  0
  -31.7905  -14.8690   20.2323 O   0  0  0  0  0  0
  -21.6639   -6.8856   21.4230 O   0  0  0  0  0  0
  -22.3538  -14.5538   20.6717 O   0  0  0  0  0  0
  -24.6342  -31.8526   23.1948 C   0  0  0  0  0  0
  -25.9160  -32.4730   23.8301 C   0  0  1  0  0  0
  -27.2167  -27.2522   20.1369 C   0  0  0  0  0  0
  -25.5962  -33.8528   24.2232 N   0  0  0  0  0  0
  -23.4293  -30.4748   21.5377 C   0  0  2  0  0  0
  -24.8783  -28.9176   20.1066 C   0  0  0  0  0  0
  -22.7508  -29.4586   22.4896 C   0  0  0  0  0  0
  -18.0320  -28.1369   22.8463 C   0  0  0  0  0  0
  -24.1495  -36.7298   23.2637 C   0  0  0  0  0  0
  -25.9760  -30.7617   21.3755 C   0  0  0  0  0  0
  -26.0497  -29.3834   20.7188 C   0  0  0  0  0  0
  -27.2277  -28.5662   20.7147 C   0  0  0  0  0  0
  -26.0276  -26.8477   19.5004 C   0  0  0  0  0  0
  -24.8729  -27.6592   19.4834 C   0  0  0  0  0  0
  -23.6482  -29.8072   20.1549 C   0  0  0  0  0  0
  -25.4114  -36.3057   24.0326 C   0  0  1  0  0  0
  -20.5900  -28.3677   23.1262 C   0  0  2  0  0  0
  -20.6790  -26.9400   22.5388 C   0  0  0  0  0  0
  -19.5774  -26.6366   21.5187 C   0  0  0  0  0  0
  -18.1957  -26.7904   22.1604 C   0  0  0  0  0  0
  -19.1563  -28.8843   23.2854 C   0  0  0  0  0  0
  -18.9477  -30.1439   23.8871 C   0  0  0  0  0  0
  -17.6480  -30.6567   24.0542 C   0  0  0  0  0  0
  -25.9069  -34.9427   23.5087 C   0  0  0  0  0  0
  -16.5374  -29.9051   23.6324 C   0  0  0  0  0  0
  -16.7299  -28.6476   23.0324 C   0  0  0  0  0  0
  -26.4508  -31.6561   25.0706 C   0  0  0  0  0  0
  -25.3737  -31.3712   26.1438 C   0  0  0  0  0  0
  -27.0361  -30.2972   24.6205 C   0  0  0  0  0  0
  -27.6051  -32.4313   25.7484 C   0  0  0  0  0  0
  -27.5583  -37.1794   24.8467 C   0  0  0  0  0  0
  -21.4214  -29.3033   22.3646 N   0  0  0  0  0  0
  -26.4291  -37.3757   23.9417 N   0  0  0  0  0  0
  -24.6987  -31.0467   22.0940 N   0  0  0  0  0  0
  -23.4195  -28.8130   23.3009 O   0  0  0  0  0  0
  -28.2985  -26.3450   20.1497 O   0  0  0  0  0  0
  -26.5632  -34.8906   22.4637 O   0  0  0  0  0  0
  -23.5486  -32.1371   23.7236 O   0  0  0  0  0  0
  -30.7192  -17.5144   22.0770 C   0  0  0  0  0  0
  -30.8480  -18.8039   22.6286 C   0  0  0  0  0  0
  -29.3901  -18.4827   20.2856 C   0  0  0  0  0  0
  -29.5465  -19.8476   20.7972 C   0  0  0  0  0  0
  -29.9756  -17.2907   20.9020 C   0  0  0  0  0  0
  -30.2815  -19.9495   22.0244 C   0  0  0  0  0  0
  -28.5016  -23.6123   20.0665 C   0  0  0  0  0  0
  -29.0131  -21.1601   20.0959 C   0  0  0  0  0  0
  -28.0875  -24.9930   20.7845 C   0  0  0  0  0  0
  -28.8073  -22.4567   20.6548 N   0  0  0  0  0  0
  -30.4922  -21.1680   22.6925 N   0  0  0  0  0  0
  -29.7505  -15.8742   20.4901 N   0  0  0  0  0  0
  -28.7581  -21.0082   18.8315 N   0  3  0  0  0  0
  -31.4785  -12.6122   19.1508 H   0  0  0  0  0  0
  -30.3979  -11.4934   19.9408 H   0  0  0  0  0  0
  -29.7923  -11.7361   17.5078 H   0  0  0  0  0  0
  -29.6237  -13.4624   17.7034 H   0  0  0  0  0  0
  -27.8979  -11.2757   18.9104 H   0  0  0  0  0  0
  -27.3746  -12.5139   17.7970 H   0  0  0  0  0  0
  -27.6259  -14.2438   19.4584 H   0  0  0  0  0  0
  -28.7344  -12.1632   21.4114 H   0  0  0  0  0  0
  -28.4270  -13.8404   21.7884 H   0  0  0  0  0  0
  -25.2745   -9.5692   22.4765 H   0  0  0  0  0  0
  -23.9984   -7.4637   22.7490 H   0  0  0  0  0  0
  -21.0818   -8.8754   19.8961 H   0  0  0  0  0  0
  -22.3653  -10.9662   19.6175 H   0  0  0  0  0  0
  -21.1998   -7.6133   23.9693 H   0  0  0  0  0  0
  -21.1503   -6.0522   25.9072 H   0  0  0  0  0  0
  -22.0594   -2.7596   23.2849 H   0  0  0  0  0  0
  -22.4085  -11.9867   22.4791 H   0  0  0  0  0  0
  -21.1103  -13.1283   22.2647 H   0  0  0  0  0  0
  -24.6419  -15.8323   20.5242 H   0  0  0  0  0  0
  -26.2573  -15.6392   20.0780 H   0  0  0  0  0  0
  -26.7226  -32.5360   23.1042 H   0  0  0  0  0  0
  -25.0113  -33.9651   25.0379 H   0  0  0  0  0  0
  -22.7290  -31.3001   21.3916 H   0  0  0  0  0  0
  -23.3749  -35.9639   23.3298 H   0  0  0  0  0  0
  -24.3603  -36.8933   22.2056 H   0  0  0  0  0  0
  -23.7271  -37.6506   23.6678 H   0  0  0  0  0  0
  -26.1116  -31.5231   20.6060 H   0  0  0  0  0  0
  -26.8563  -30.8119   22.0069 H   0  0  0  0  0  0
  -28.1324  -28.9150   21.1909 H   0  0  0  0  0  0
  -25.9821  -25.8775   19.0251 H   0  0  0  0  0  0
  -23.9802  -27.3002   18.9902 H   0  0  0  0  0  0
  -23.7710  -30.5860   19.4019 H   0  0  0  0  0  0
  -22.7640  -29.2451   19.8481 H   0  0  0  0  0  0
  -25.1285  -36.1899   25.0824 H   0  0  0  0  0  0
  -20.9980  -28.3263   24.1377 H   0  0  0  0  0  0
  -20.5661  -26.2303   23.3591 H   0  0  0  0  0  0
  -21.6658  -26.7408   22.1194 H   0  0  0  0  0  0
  -19.6936  -25.6263   21.1244 H   0  0  0  0  0  0
  -19.6708  -27.3148   20.6691 H   0  0  0  0  0  0
  -17.4200  -26.6642   21.4021 H   0  0  0  0  0  0
  -18.0379  -26.0018   22.8986 H   0  0  0  0  0  0
  -19.7952  -30.7256   24.2214 H   0  0  0  0  0  0
  -17.5033  -31.6242   24.5151 H   0  0  0  0  0  0
  -15.5357  -30.2937   23.7673 H   0  0  0  0  0  0
  -15.8699  -28.0807   22.7010 H   0  0  0  0  0  0
  -24.5927  -30.7039   25.7797 H   0  0  0  0  0  0
  -24.8898  -32.2866   26.4844 H   0  0  0  0  0  0
  -25.8051  -30.8928   27.0230 H   0  0  0  0  0  0
  -26.2949  -29.6706   24.1246 H   0  0  0  0  0  0
  -27.4071  -29.7242   25.4714 H   0  0  0  0  0  0
  -27.8806  -30.4257   23.9432 H   0  0  0  0  0  0
  -27.2680  -33.3637   26.2013 H   0  0  0  0  0  0
  -28.3889  -32.6836   25.0335 H   0  0  0  0  0  0
  -28.0702  -31.8474   26.5443 H   0  0  0  0  0  0
  -28.2567  -38.0110   24.7499 H   0  0  0  0  0  0
  -28.1098  -36.2642   24.6293 H   0  0  0  0  0  0
  -27.2314  -37.1446   25.8867 H   0  0  0  0  0  0
  -20.9401  -29.8789   21.6877 H   0  0  0  0  0  0
  -26.0174  -38.2833   24.1375 H   0  0  0  0  0  0
  -31.1695  -16.6836   22.6024 H   0  0  0  0  0  0
  -31.4011  -18.9053   23.5506 H   0  0  0  0  0  0
  -28.8043  -18.3534   19.3905 H   0  0  0  0  0  0
  -28.4714  -23.6927   18.9760 H   0  0  0  0  0  0
  -28.6219  -25.0268   21.7337 H   0  0  0  0  0  0
  -27.0407  -24.8877   21.0711 H   0  0  0  0  0  0
  -30.3806  -21.1380   23.6991 H   0  0  0  0  0  0
  -29.9255  -21.9128   22.2791 H   0  0  0  0  0  0
  -28.7861  -15.6350   20.3185 H   0  0  0  0  0  0
  -28.8962  -20.1209   18.3524 H   0  0  0  0  0  0
  -28.3828  -21.7382   18.2377 H   0  0  0  0  0  0
  1 25  1  0  0  0
  1 30  2  0  0  0
  1 82  1  0  0  0
  2  3  1  0  0  0
  2 25  1  0  0  0
  2 84  1  0  0  0
  2 85  1  0  0  0
  3  4  1  0  0  0
  3 86  1  0  0  0
  3 87  1  0  0  0
  4  5  1  0  0  0
  4 88  1  0  0  0
  4 89  1  0  0  0
  5  6  1  0  0  0
  5 26  1  0  0  0
  5 90  1  0  0  0
  6 25  1  0  0  0
  6 91  1  0  0  0
  6 92  1  0  0  0
  7  8  2  0  0  0
  7 26  1  0  0  0
  7 29  1  0  0  0
  8  9  1  0  0  0
  8 22  1  0  0  0
  9 10  1  0  0  0
  9 27  2  0  0  0
 10 11  2  0  0  0
 10 15  1  0  0  0
 11 12  1  0  0  0
 11 93  1  0  0  0
 12 13  2  0  0  0
 12 94  1  0  0  0
 13 14  1  0  0  0
 13 31  1  0  0  0
 14 15  2  0  0  0
 14 95  1  0  0  0
 15 96  1  0  0  0
 16 17  2  0  0  0
 16 21  1  0  0  0
 16 31  1  0  0  0
 17 18  1  0  0  0
 17 97  1  0  0  0
 18 19  2  0  0  0
 18 98  1  0  0  0
 19 20  1  0  0  0
 19 24  1  0  0  0
 20 21  2  0  0  0
 20 99  1  0  0  0
 21 23  1  0  0  0
 22 28  1  0  0  0
 22 32  2  0  0  0
 26 27  1  0  0  0
 28100  1  0  0  0
 28101  1  0  0  0
 29102  1  0  0  0
 29103  1  0  0  0
 33 34  1  0  0  0
 33 66  1  0  0  0
 33 70  2  0  0  0
 34 36  1  0  0  0
 34 59  1  0  0  0
 34104  1  0  0  0
 35 44  2  0  0  0
 35 45  1  0  0  0
 35 68  1  0  0  0
 36 56  1  0  0  0
 36105  1  0  0  0
 37 39  1  0  0  0
 37 47  1  0  0  0
 37 66  1  0  0  0
 37106  1  0  0  0
 38 43  2  0  0  0
 38 46  1  0  0  0
 38 47  1  0  0  0
 39 64  1  0  0  0
 39 67  2  0  0  0
 40 52  1  0  0  0
 40 53  2  0  0  0
 40 58  1  0  0  0
 41107  1  0  0  0
 41108  1  0  0  0
 41109  1  0  0  0
 41 48  1  0  0  0
 42 43  1  0  0  0
 42 66  1  0  0  0
 42110  1  0  0  0
 42111  1  0  0  0
 43 44  1  0  0  0
 44112  1  0  0  0
 45 46  2  0  0  0
 45113  1  0  0  0
 46114  1  0  0  0
 47115  1  0  0  0
 47116  1  0  0  0
 48 56  1  0  0  0
 48 65  1  0  0  0
 48117  1  0  0  0
 49 50  1  0  0  0
 49 53  1  0  0  0
 49 64  1  0  0  0
 49118  1  0  0  0
 50 51  1  0  0  0
 50119  1  0  0  0
 50120  1  0  0  0
 51 52  1  0  0  0
 51121  1  0  0  0
 51122  1  0  0  0
 52123  1  0  0  0
 52124  1  0  0  0
 53 54  1  0  0  0
 54 55  2  0  0  0
 54125  1  0  0  0
 55 57  1  0  0  0
 55126  1  0  0  0
 56 69  2  0  0  0
 57 58  2  0  0  0
 57127  1  0  0  0
 58128  1  0  0  0
 59 60  1  0  0  0
 59 61  1  0  0  0
 59 62  1  0  0  0
 60129  1  0  0  0
 60130  1  0  0  0
 60131  1  0  0  0
 61132  1  0  0  0
 61133  1  0  0  0
 61134  1  0  0  0
 62135  1  0  0  0
 62136  1  0  0  0
 62137  1  0  0  0
 63 65  1  0  0  0
 63138  1  0  0  0
 63139  1  0  0  0
 63140  1  0  0  0
 64141  1  0  0  0
 65142  1  0  0  0
 68 79  1  0  0  0
 71 72  2  0  0  0
 71 75  1  0  0  0
 71143  1  0  0  0
 72 76  1  0  0  0
 72144  1  0  0  0
 73 74  1  0  0  0
 73 75  2  0  0  0
 73145  1  0  0  0
 74 76  2  0  0  0
 74 78  1  0  0  0
 75 82  1  0  0  0
 76 81  1  0  0  0
 77 79  1  0  0  0
 77 80  2  0  0  0
 77146  1  0  0  0
 78 80  1  0  0  0
 78 83  2  0  0  0
 79147  1  0  0  0
 79148  1  0  0  0
 81149  1  0  0  0
 81150  1  0  0  0
 82151  1  0  0  0
 83152  1  0  0  0
 83153  1  0  0  0
M  CHG  1  83   1
M  ISO  4   1 100  68 101  79 101  82 100
M  END
> <chiral flag>
0

> <version>
0

> <s_m_source_file>
/data/baiqing/PycharmProjects/Reinvent-master-3.2/result/LINK_invent/BTK/process_docking_weight1_custom_product_contain_oxygen_bond_distance_aromatic_linkinvent_7_9_3/rearranged_h_0063.sdf

> <i_m_source_file_index>
58

> <r_mmod_Potential_Energy-OPLS-2005>
425.175354003906

> <r_mmod_Stretch_Energy-OPLS-2005>
154.132278442383

> <r_mmod_Bend_Energy-OPLS-2005>
169.354354858398

> <r_mmod_Torsional_Energy-OPLS-2005>
265.652130126953

> <r_mmod_Improper_Torsional_Energy-OPLS-2005>
14.1220502853394

> <r_mmod_Van_der_Waal_Energy-OPLS-2005>
147.811050415039

> <r_mmod_Electrostatic_Energy-OPLS-2005>
74.7811965942383

> <r_mmod_Solvation_Energy-OPLS-2005>
-495.001831054688

> <b_mmod_Minimization_Converged-OPLS-2005>
0

> <r_mmod_RMS_Derivative-OPLS-2005>
3.14228463172913

$$$$
59
                    3D
 Structure written by MMmdl.
151159  0  0  1  0            999 V2000
  -30.6241  -14.6633   20.4868 C   0  0  0  0  0  0
  -30.4347  -12.4119   19.4436 C   0  0  0  0  0  0
  -29.4999  -12.4890   18.2171 C   0  0  0  0  0  0
  -28.0270  -12.3152   18.6385 C   0  0  0  0  0  0
  -27.6435  -13.2131   19.8450 C   0  0  2  0  0  0
  -28.6898  -13.1138   20.9761 C   0  0  0  0  0  0
  -25.2547  -13.8172   20.5707 C   0  0  0  0  0  0
  -24.1810  -13.0442   20.9209 C   0  0  0  0  0  0
  -24.6365  -11.6909   20.8729 C   0  0  0  0  0  0
  -23.9039  -10.4287   21.0421 C   0  0  0  0  0  0
  -24.3609   -9.4205   21.9203 C   0  0  0  0  0  0
  -23.6278   -8.2236   22.0759 C   0  0  0  0  0  0
  -22.4254   -8.0273   21.3544 C   0  0  0  0  0  0
  -21.9880   -9.0260   20.4661 C   0  0  0  0  0  0
  -22.7204  -10.2144   20.3077 C   0  0  0  0  0  0
  -21.6850   -6.0738   22.5276 C   0  0  0  0  0  0
  -21.4017   -6.5647   23.8221 C   0  0  0  0  0  0
  -21.3646   -5.6788   24.9180 C   0  0  0  0  0  0
  -21.6030   -4.3056   24.7228 C   0  0  0  0  0  0
  -21.8815   -3.8161   23.4340 C   0  0  0  0  0  0
  -21.9198   -4.6974   22.3393 C   0  0  0  0  0  0
  -22.7837  -13.5255   21.1873 C   0  0  0  0  0  0
  -22.1666   -4.2160   21.0980 F   0  0  0  0  0  0
  -21.5629   -3.4534   25.7740 F   0  0  0  0  0  0
  -29.9967  -13.4497   20.3945 N   0  0  0  0  0  0
  -26.2923  -12.9337   20.3223 N   0  0  0  0  0  0
  -25.9282  -11.6490   20.5699 N   0  0  0  0  0  0
  -22.0469  -12.8252   22.0434 N   0  0  0  0  0  0
  -25.4291  -15.1904   20.4171 N   0  0  0  0  0  0
  -31.8211  -14.7807   20.2088 O   0  0  0  0  0  0
  -21.6624   -6.8869   21.4232 O   0  0  0  0  0  0
  -22.3518  -14.5561   20.6721 O   0  0  0  0  0  0
  -24.6259  -31.8594   23.2000 C   0  0  0  0  0  0
  -25.9112  -32.4779   23.8330 C   0  0  1  0  0  0
  -27.2260  -27.3167   20.1383 C   0  0  0  0  0  0
  -25.5919  -33.8577   24.2269 N   0  0  0  0  0  0
  -23.4192  -30.4816   21.5435 C   0  0  2  0  0  0
  -24.8684  -28.9320   20.1112 C   0  0  0  0  0  0
  -22.7482  -29.4616   22.4926 C   0  0  0  0  0  0
  -18.0291  -28.1391   22.8492 C   0  0  0  0  0  0
  -24.1486  -36.7300   23.2634 C   0  0  0  0  0  0
  -25.9555  -30.7955   21.3656 C   0  0  0  0  0  0
  -26.0332  -29.4171   20.7178 C   0  0  0  0  0  0
  -27.2170  -28.6214   20.7202 C   0  0  0  0  0  0
  -26.0457  -26.8837   19.5013 C   0  0  0  0  0  0
  -24.8773  -27.6713   19.4923 C   0  0  0  0  0  0
  -23.6344  -29.8119   20.1591 C   0  0  0  0  0  0
  -25.4109  -36.3088   24.0333 C   0  0  1  0  0  0
  -20.5897  -28.3689   23.1289 C   0  0  2  0  0  0
  -20.6790  -26.9416   22.5390 C   0  0  0  0  0  0
  -19.5744  -26.6410   21.5184 C   0  0  0  0  0  0
  -18.1928  -26.7935   22.1614 C   0  0  0  0  0  0
  -19.1545  -28.8851   23.2891 C   0  0  0  0  0  0
  -18.9463  -30.1449   23.8918 C   0  0  0  0  0  0
  -17.6457  -30.6577   24.0590 C   0  0  0  0  0  0
  -25.9036  -34.9457   23.5100 C   0  0  0  0  0  0
  -16.5356  -29.9085   23.6328 C   0  0  0  0  0  0
  -16.7277  -28.6511   23.0336 C   0  0  0  0  0  0
  -26.4499  -31.6569   25.0685 C   0  0  0  0  0  0
  -25.3739  -31.3716   26.1423 C   0  0  0  0  0  0
  -27.0317  -30.3002   24.6084 C   0  0  0  0  0  0
  -27.6059  -32.4294   25.7447 C   0  0  0  0  0  0
  -27.5579  -37.1803   24.8463 C   0  0  0  0  0  0
  -21.4186  -29.3074   22.3692 N   0  0  0  0  0  0
  -26.4285  -37.3782   23.9413 N   0  0  0  0  0  0
  -24.6863  -31.0610   22.0947 N   0  0  0  0  0  0
  -23.4206  -28.8155   23.3006 O   0  0  0  0  0  0
  -28.3386  -26.4660   20.1673 O   0  0  0  0  0  0
  -26.5608  -34.8933   22.4671 O   0  0  0  0  0  0
  -23.5424  -32.1387   23.7337 O   0  0  0  0  0  0
  -31.4482  -18.8503   22.1069 C   0  0  0  0  0  0
  -31.1535  -17.5046   21.7877 C   0  0  0  0  0  0
  -30.7540  -19.9203   21.4963 C   0  0  0  0  0  0
  -29.4178  -18.2780   20.2729 C   0  0  0  0  0  0
  -30.1346  -17.1734   20.8625 C   0  0  0  0  0  0
  -29.7368  -19.6551   20.5586 C   0  0  0  0  0  0
  -28.9502  -23.9291   20.0101 C   0  0  0  0  0  0
  -28.1367  -25.0928   20.7100 C   0  0  0  0  0  0
  -29.8091  -15.7630   20.6161 N   0  0  0  0  0  0
  -28.9012  -22.5964   20.5529 N   0  0  0  0  0  0
  -29.5929  -24.1757   18.9858 O   0  0  0  0  0  0
  -27.5127  -20.6932   19.4347 O   0  0  0  0  0  0
  -29.7581  -21.2900   18.4443 O   0  0  0  0  0  0
  -28.9227  -21.0629   19.6370 S   0  0  0  0  0  0
  -31.4740  -12.5445   19.1326 H   0  0  0  0  0  0
  -30.3817  -11.4259   19.9067 H   0  0  0  0  0  0
  -29.7682  -11.7234   17.4863 H   0  0  0  0  0  0
  -29.6284  -13.4506   17.7147 H   0  0  0  0  0  0
  -27.8783  -11.2665   18.8981 H   0  0  0  0  0  0
  -27.3659  -12.5141   17.7931 H   0  0  0  0  0  0
  -27.6484  -14.2357   19.4683 H   0  0  0  0  0  0
  -28.7040  -12.1074   21.3997 H   0  0  0  0  0  0
  -28.4327  -13.7855   21.7971 H   0  0  0  0  0  0
  -25.2765   -9.5689   22.4767 H   0  0  0  0  0  0
  -23.9998   -7.4623   22.7469 H   0  0  0  0  0  0
  -21.0814   -8.8774   19.8975 H   0  0  0  0  0  0
  -22.3654  -10.9697   19.6183 H   0  0  0  0  0  0
  -21.1995   -7.6160   23.9731 H   0  0  0  0  0  0
  -21.1473   -6.0517   25.9079 H   0  0  0  0  0  0
  -22.0601   -2.7609   23.2847 H   0  0  0  0  0  0
  -22.4053  -11.9899   22.4845 H   0  0  0  0  0  0
  -21.1102  -13.1332   22.2668 H   0  0  0  0  0  0
  -24.6596  -15.8405   20.5273 H   0  0  0  0  0  0
  -26.2684  -15.6301   20.0656 H   0  0  0  0  0  0
  -26.7173  -32.5453   23.1066 H   0  0  0  0  0  0
  -25.0067  -33.9697   25.0424 H   0  0  0  0  0  0
  -22.7129  -31.3018   21.3993 H   0  0  0  0  0  0
  -23.3729  -35.9641   23.3279 H   0  0  0  0  0  0
  -24.3587  -36.8930   22.2046 H   0  0  0  0  0  0
  -23.7240  -37.6510   23.6653 H   0  0  0  0  0  0
  -26.0685  -31.5511   20.5870 H   0  0  0  0  0  0
  -26.8418  -30.8592   21.9845 H   0  0  0  0  0  0
  -28.1089  -28.9878   21.2062 H   0  0  0  0  0  0
  -26.0201  -25.9210   19.0127 H   0  0  0  0  0  0
  -23.9879  -27.2961   19.0044 H   0  0  0  0  0  0
  -23.7508  -30.5852   19.3995 H   0  0  0  0  0  0
  -22.7552  -29.2390   19.8578 H   0  0  0  0  0  0
  -25.1278  -36.1935   25.0820 H   0  0  0  0  0  0
  -20.9982  -28.3245   24.1414 H   0  0  0  0  0  0
  -20.5682  -26.2274   23.3577 H   0  0  0  0  0  0
  -21.6643  -26.7455   22.1172 H   0  0  0  0  0  0
  -19.6909  -25.6337   21.1183 H   0  0  0  0  0  0
  -19.6672  -27.3251   20.6726 H   0  0  0  0  0  0
  -17.4183  -26.6672   21.4024 H   0  0  0  0  0  0
  -18.0358  -26.0069   22.9020 H   0  0  0  0  0  0
  -19.7949  -30.7267   24.2295 H   0  0  0  0  0  0
  -17.5020  -31.6247   24.5215 H   0  0  0  0  0  0
  -15.5357  -30.2989   23.7633 H   0  0  0  0  0  0
  -15.8685  -28.0834   22.7023 H   0  0  0  0  0  0
  -24.5881  -30.7105   25.7755 H   0  0  0  0  0  0
  -24.8975  -32.2890   26.4886 H   0  0  0  0  0  0
  -25.8079  -30.8860   27.0170 H   0  0  0  0  0  0
  -26.2864  -29.6762   24.1142 H   0  0  0  0  0  0
  -27.4068  -29.7252   25.4554 H   0  0  0  0  0  0
  -27.8705  -30.4290   23.9244 H   0  0  0  0  0  0
  -27.2661  -33.3568   26.2064 H   0  0  0  0  0  0
  -28.3843  -32.6897   25.0262 H   0  0  0  0  0  0
  -28.0743  -31.8390   26.5326 H   0  0  0  0  0  0
  -28.2599  -38.0102   24.7518 H   0  0  0  0  0  0
  -28.1079  -36.2639   24.6268 H   0  0  0  0  0  0
  -27.2312  -37.1430   25.8873 H   0  0  0  0  0  0
  -20.9345  -29.8828   21.6939 H   0  0  0  0  0  0
  -26.0168  -38.2852   24.1430 H   0  0  0  0  0  0
  -32.2332  -19.0631   22.8188 H   0  0  0  0  0  0
  -31.7117  -16.7206   22.2809 H   0  0  0  0  0  0
  -31.0192  -20.9425   21.7208 H   0  0  0  0  0  0
  -28.6272  -18.0828   19.5618 H   0  0  0  0  0  0
  -28.4260  -25.1181   21.7609 H   0  0  0  0  0  0
  -27.0858  -24.8035   20.7051 H   0  0  0  0  0  0
  -28.8268  -15.5497   20.5479 H   0  0  0  0  0  0
  -28.3709  -22.4601   21.4116 H   0  0  0  0  0  0
  1 25  1  0  0  0
  1 30  2  0  0  0
  1 79  1  0  0  0
  2  3  1  0  0  0
  2 25  1  0  0  0
  2 85  1  0  0  0
  2 86  1  0  0  0
  3  4  1  0  0  0
  3 87  1  0  0  0
  3 88  1  0  0  0
  4  5  1  0  0  0
  4 89  1  0  0  0
  4 90  1  0  0  0
  5  6  1  0  0  0
  5 26  1  0  0  0
  5 91  1  0  0  0
  6 25  1  0  0  0
  6 92  1  0  0  0
  6 93  1  0  0  0
  7  8  2  0  0  0
  7 26  1  0  0  0
  7 29  1  0  0  0
  8  9  1  0  0  0
  8 22  1  0  0  0
  9 10  1  0  0  0
  9 27  2  0  0  0
 10 11  2  0  0  0
 10 15  1  0  0  0
 11 12  1  0  0  0
 11 94  1  0  0  0
 12 13  2  0  0  0
 12 95  1  0  0  0
 13 14  1  0  0  0
 13 31  1  0  0  0
 14 15  2  0  0  0
 14 96  1  0  0  0
 15 97  1  0  0  0
 16 17  2  0  0  0
 16 21  1  0  0  0
 16 31  1  0  0  0
 17 18  1  0  0  0
 17 98  1  0  0  0
 18 19  2  0  0  0
 18 99  1  0  0  0
 19 20  1  0  0  0
 19 24  1  0  0  0
 20 21  2  0  0  0
 20100  1  0  0  0
 21 23  1  0  0  0
 22 28  1  0  0  0
 22 32  2  0  0  0
 26 27  1  0  0  0
 28101  1  0  0  0
 28102  1  0  0  0
 29103  1  0  0  0
 29104  1  0  0  0
 33 34  1  0  0  0
 33 66  1  0  0  0
 33 70  2  0  0  0
 34 36  1  0  0  0
 34 59  1  0  0  0
 34105  1  0  0  0
 35 44  2  0  0  0
 35 45  1  0  0  0
 35 68  1  0  0  0
 36 56  1  0  0  0
 36106  1  0  0  0
 37 39  1  0  0  0
 37 47  1  0  0  0
 37 66  1  0  0  0
 37107  1  0  0  0
 38 43  2  0  0  0
 38 46  1  0  0  0
 38 47  1  0  0  0
 39 64  1  0  0  0
 39 67  2  0  0  0
 40 52  1  0  0  0
 40 53  2  0  0  0
 40 58  1  0  0  0
 41108  1  0  0  0
 41109  1  0  0  0
 41110  1  0  0  0
 41 48  1  0  0  0
 42 43  1  0  0  0
 42 66  1  0  0  0
 42111  1  0  0  0
 42112  1  0  0  0
 43 44  1  0  0  0
 44113  1  0  0  0
 45 46  2  0  0  0
 45114  1  0  0  0
 46115  1  0  0  0
 47116  1  0  0  0
 47117  1  0  0  0
 48 56  1  0  0  0
 48 65  1  0  0  0
 48118  1  0  0  0
 49 50  1  0  0  0
 49 53  1  0  0  0
 49 64  1  0  0  0
 49119  1  0  0  0
 50 51  1  0  0  0
 50120  1  0  0  0
 50121  1  0  0  0
 51 52  1  0  0  0
 51122  1  0  0  0
 51123  1  0  0  0
 52124  1  0  0  0
 52125  1  0  0  0
 53 54  1  0  0  0
 54 55  2  0  0  0
 54126  1  0  0  0
 55 57  1  0  0  0
 55127  1  0  0  0
 56 69  2  0  0  0
 57 58  2  0  0  0
 57128  1  0  0  0
 58129  1  0  0  0
 59 60  1  0  0  0
 59 61  1  0  0  0
 59 62  1  0  0  0
 60130  1  0  0  0
 60131  1  0  0  0
 60132  1  0  0  0
 61133  1  0  0  0
 61134  1  0  0  0
 61135  1  0  0  0
 62136  1  0  0  0
 62137  1  0  0  0
 62138  1  0  0  0
 63 65  1  0  0  0
 63139  1  0  0  0
 63140  1  0  0  0
 63141  1  0  0  0
 64142  1  0  0  0
 65143  1  0  0  0
 68 78  1  0  0  0
 71 72  2  0  0  0
 71 73  1  0  0  0
 71144  1  0  0  0
 72 75  1  0  0  0
 72145  1  0  0  0
 73 76  2  0  0  0
 73146  1  0  0  0
 74 75  2  0  0  0
 74 76  1  0  0  0
 74147  1  0  0  0
 75 79  1  0  0  0
 76 84  1  0  0  0
 77 78  1  0  0  0
 77 80  1  0  0  0
 77 81  2  0  0  0
 78148  1  0  0  0
 78149  1  0  0  0
 79150  1  0  0  0
 80151  1  0  0  0
 80 84  1  0  0  0
 82 84  2  0  0  0
 83 84  2  0  0  0
M  ISO  4   1 100  68 101  78 101  79 100
M  END
> <chiral flag>
0

> <version>
0

> <s_m_source_file>
/data/baiqing/PycharmProjects/Reinvent-master-3.2/result/LINK_invent/BTK/process_docking_weight1_custom_product_contain_oxygen_bond_distance_aromatic_linkinvent_7_9_3/rearranged_h_0063.sdf

> <i_m_source_file_index>
59

> <r_mmod_Potential_Energy-OPLS-2005>
-95.2606430053711

> <r_mmod_Stretch_Energy-OPLS-2005>
83.7013092041016

> <r_mmod_Bend_Energy-OPLS-2005>
133.380554199219

> <r_mmod_Torsional_Energy-OPLS-2005>
269.968597412109

> <r_mmod_Improper_Torsional_Energy-OPLS-2005>
9.18949890136719

> <r_mmod_Van_der_Waal_Energy-OPLS-2005>
131.649826049805

> <r_mmod_Electrostatic_Energy-OPLS-2005>
-488.577423095703

> <r_mmod_Solvation_Energy-OPLS-2005>
-291.100891113281

> <b_mmod_Minimization_Converged-OPLS-2005>
0

> <r_mmod_RMS_Derivative-OPLS-2005>
3.88543796539307

$$$$
60
                    3D
 Structure written by MMmdl.
153161  0  0  1  0            999 V2000
  -30.6093  -14.7831   20.3572 C   0  0  0  0  0  0
  -30.4388  -12.4485   19.4903 C   0  0  0  0  0  0
  -29.5207  -12.4086   18.2475 C   0  0  0  0  0  0
  -28.0352  -12.2878   18.6539 C   0  0  0  0  0  0
  -27.6269  -13.2139   19.8321 C   0  0  2  0  0  0
  -28.6799  -13.2309   20.9572 C   0  0  0  0  0  0
  -25.2507  -13.8135   20.5732 C   0  0  0  0  0  0
  -24.1779  -13.0410   20.9232 C   0  0  0  0  0  0
  -24.6350  -11.6880   20.8783 C   0  0  0  0  0  0
  -23.9031  -10.4272   21.0432 C   0  0  0  0  0  0
  -24.3595   -9.4187   21.9199 C   0  0  0  0  0  0
  -23.6277   -8.2221   22.0757 C   0  0  0  0  0  0
  -22.4262   -8.0264   21.3543 C   0  0  0  0  0  0
  -21.9893   -9.0237   20.4648 C   0  0  0  0  0  0
  -22.7214  -10.2119   20.3068 C   0  0  0  0  0  0
  -21.6845   -6.0727   22.5279 C   0  0  0  0  0  0
  -21.4008   -6.5634   23.8211 C   0  0  0  0  0  0
  -21.3657   -5.6790   24.9175 C   0  0  0  0  0  0
  -21.6044   -4.3052   24.7227 C   0  0  0  0  0  0
  -21.8820   -3.8142   23.4350 C   0  0  0  0  0  0
  -21.9190   -4.6956   22.3404 C   0  0  0  0  0  0
  -22.7809  -13.5216   21.1880 C   0  0  0  0  0  0
  -22.1660   -4.2143   21.0982 F   0  0  0  0  0  0
  -21.5630   -3.4537   25.7741 F   0  0  0  0  0  0
  -29.9814  -13.5538   20.3614 N   0  0  0  0  0  0
  -26.2882  -12.9279   20.3280 N   0  0  0  0  0  0
  -25.9271  -11.6454   20.5797 N   0  0  0  0  0  0
  -22.0446  -12.8214   22.0435 N   0  0  0  0  0  0
  -25.4247  -15.1861   20.4175 N   0  0  0  0  0  0
  -31.8365  -14.8277   20.2474 O   0  0  0  0  0  0
  -21.6628   -6.8864   21.4238 O   0  0  0  0  0  0
  -22.3506  -14.5523   20.6720 O   0  0  0  0  0  0
  -24.6297  -31.8559   23.1983 C   0  0  0  0  0  0
  -25.9126  -32.4760   23.8330 C   0  0  1  0  0  0
  -27.2250  -27.2786   20.1415 C   0  0  0  0  0  0
  -25.5925  -33.8560   24.2258 N   0  0  0  0  0  0
  -23.4267  -30.4768   21.5409 C   0  0  2  0  0  0
  -24.8767  -28.9223   20.1130 C   0  0  0  0  0  0
  -22.7497  -29.4601   22.4915 C   0  0  0  0  0  0
  -18.0291  -28.1387   22.8484 C   0  0  0  0  0  0
  -24.1489  -36.7286   23.2640 C   0  0  0  0  0  0
  -25.9702  -30.7761   21.3744 C   0  0  0  0  0  0
  -26.0467  -29.3984   20.7200 C   0  0  0  0  0  0
  -27.2273  -28.5905   20.7190 C   0  0  0  0  0  0
  -26.0368  -26.8633   19.5051 C   0  0  0  0  0  0
  -24.8758  -27.6622   19.4928 C   0  0  0  0  0  0
  -23.6455  -29.8071   20.1581 C   0  0  0  0  0  0
  -25.4115  -36.3072   24.0327 C   0  0  1  0  0  0
  -20.5894  -28.3696   23.1273 C   0  0  2  0  0  0
  -20.6778  -26.9414   22.5410 C   0  0  0  0  0  0
  -19.5754  -26.6384   21.5212 C   0  0  0  0  0  0
  -18.1935  -26.7929   22.1625 C   0  0  0  0  0  0
  -19.1545  -28.8859   23.2873 C   0  0  0  0  0  0
  -18.9465  -30.1460   23.8891 C   0  0  0  0  0  0
  -17.6464  -30.6588   24.0562 C   0  0  0  0  0  0
  -25.9053  -34.9442   23.5096 C   0  0  0  0  0  0
  -16.5355  -29.9084   23.6332 C   0  0  0  0  0  0
  -16.7278  -28.6503   23.0352 C   0  0  0  0  0  0
  -26.4499  -31.6580   25.0714 C   0  0  0  0  0  0
  -25.3726  -31.3727   26.1437 C   0  0  0  0  0  0
  -27.0347  -30.3000   24.6191 C   0  0  0  0  0  0
  -27.6053  -32.4321   25.7490 C   0  0  0  0  0  0
  -27.5578  -37.1799   24.8465 C   0  0  0  0  0  0
  -21.4205  -29.3041   22.3660 N   0  0  0  0  0  0
  -26.4291  -37.3770   23.9407 N   0  0  0  0  0  0
  -24.6944  -31.0539   22.0947 N   0  0  0  0  0  0
  -23.4201  -28.8148   23.3016 O   0  0  0  0  0  0
  -28.3160  -26.3867   20.1666 O   0  0  0  0  0  0
  -26.5627  -34.8917   22.4666 O   0  0  0  0  0  0
  -23.5450  -32.1368   23.7289 O   0  0  0  0  0  0
  -28.4548  -17.1811   18.2395 C   0  0  0  0  0  0
  -29.1130  -16.0680   18.7779 C   0  0  0  0  0  0
  -28.5384  -18.4310   18.8616 C   0  0  0  0  0  0
  -29.8356  -16.1053   19.9907 C   0  0  0  0  0  0
  -29.9372  -17.4369   20.6108 C   0  0  0  0  0  0
  -29.2997  -18.6304   20.0345 C   0  0  0  0  0  0
  -28.8235  -22.4677   20.6642 C   0  0  0  0  0  0
  -28.5948  -23.7136   20.0879 C   0  0  0  0  0  0
  -29.1994  -21.2273   19.9021 C   0  0  0  0  0  0
  -30.7402  -17.6074   21.8907 C   0  0  0  0  0  0
  -28.0965  -25.0430   20.7923 C   0  0  0  0  0  0
  -29.3039  -20.0169   20.5846 N   0  0  0  0  0  0
  -29.4361  -21.2789   18.6922 O   0  0  0  0  0  0
  -31.4788  -12.5708   19.1831 H   0  0  0  0  0  0
  -30.3947  -11.5025   20.0320 H   0  0  0  0  0  0
  -29.7922  -11.5553   17.6246 H   0  0  0  0  0  0
  -29.6894  -13.2778   17.6165 H   0  0  0  0  0  0
  -27.8730  -11.2484   18.9410 H   0  0  0  0  0  0
  -27.3900  -12.4632   17.7923 H   0  0  0  0  0  0
  -27.5631  -14.2103   19.4171 H   0  0  0  0  0  0
  -28.7221  -12.2681   21.4681 H   0  0  0  0  0  0
  -28.4170  -13.9744   21.7117 H   0  0  0  0  0  0
  -25.2738   -9.5665   22.4776 H   0  0  0  0  0  0
  -23.9988   -7.4609   22.7471 H   0  0  0  0  0  0
  -21.0827   -8.8754   19.8952 H   0  0  0  0  0  0
  -22.3674  -10.9663   19.6181 H   0  0  0  0  0  0
  -21.1999   -7.6142   23.9712 H   0  0  0  0  0  0
  -21.1480   -6.0521   25.9077 H   0  0  0  0  0  0
  -22.0603   -2.7605   23.2852 H   0  0  0  0  0  0
  -22.4057  -11.9875   22.4828 H   0  0  0  0  0  0
  -21.1065  -13.1245   22.2640 H   0  0  0  0  0  0
  -24.6660  -15.8473   20.5423 H   0  0  0  0  0  0
  -26.2897  -15.6257   20.1266 H   0  0  0  0  0  0
  -26.7193  -32.5422   23.1077 H   0  0  0  0  0  0
  -25.0068  -33.9697   25.0400 H   0  0  0  0  0  0
  -22.7223  -31.2981   21.3931 H   0  0  0  0  0  0
  -23.3751  -35.9619   23.3302 H   0  0  0  0  0  0
  -24.3579  -36.8909   22.2054 H   0  0  0  0  0  0
  -23.7243  -37.6488   23.6664 H   0  0  0  0  0  0
  -26.1042  -31.5365   20.6037 H   0  0  0  0  0  0
  -26.8490  -30.8283   22.0054 H   0  0  0  0  0  0
  -28.1254  -28.9514   21.2005 H   0  0  0  0  0  0
  -25.9996  -25.8936   19.0287 H   0  0  0  0  0  0
  -23.9810  -27.2926   19.0111 H   0  0  0  0  0  0
  -23.7685  -30.5814   19.4000 H   0  0  0  0  0  0
  -22.7652  -29.2377   19.8547 H   0  0  0  0  0  0
  -25.1298  -36.1920   25.0820 H   0  0  0  0  0  0
  -20.9987  -28.3274   24.1393 H   0  0  0  0  0  0
  -20.5677  -26.2306   23.3614 H   0  0  0  0  0  0
  -21.6647  -26.7438   22.1205 H   0  0  0  0  0  0
  -19.6915  -25.6294   21.1245 H   0  0  0  0  0  0
  -19.6692  -27.3192   20.6741 H   0  0  0  0  0  0
  -17.4204  -26.6675   21.4027 H   0  0  0  0  0  0
  -18.0335  -26.0073   22.9023 H   0  0  0  0  0  0
  -19.7941  -30.7278   24.2257 H   0  0  0  0  0  0
  -17.5018  -31.6267   24.5164 H   0  0  0  0  0  0
  -15.5355  -30.2984   23.7659 H   0  0  0  0  0  0
  -15.8679  -28.0820   22.7068 H   0  0  0  0  0  0
  -24.5905  -30.7071   25.7766 H   0  0  0  0  0  0
  -24.8913  -32.2896   26.4850 H   0  0  0  0  0  0
  -25.8047  -30.8915   27.0220 H   0  0  0  0  0  0
  -26.2928  -29.6744   24.1213 H   0  0  0  0  0  0
  -27.4031  -29.7263   25.4706 H   0  0  0  0  0  0
  -27.8803  -30.4276   23.9429 H   0  0  0  0  0  0
  -27.2658  -33.3623   26.2059 H   0  0  0  0  0  0
  -28.3869  -32.6878   25.0324 H   0  0  0  0  0  0
  -28.0715  -31.8452   26.5414 H   0  0  0  0  0  0
  -28.2597  -38.0094   24.7508 H   0  0  0  0  0  0
  -28.1073  -36.2625   24.6298 H   0  0  0  0  0  0
  -27.2297  -37.1455   25.8869 H   0  0  0  0  0  0
  -20.9391  -29.8757   21.6859 H   0  0  0  0  0  0
  -26.0171  -38.2845   24.1405 H   0  0  0  0  0  0
  -27.8937  -17.0793   17.3208 H   0  0  0  0  0  0
  -29.0647  -15.1596   18.2058 H   0  0  0  0  0  0
  -28.0004  -19.2472   18.4014 H   0  0  0  0  0  0
  -28.6958  -22.3788   21.7333 H   0  0  0  0  0  0
  -28.7208  -23.8055   19.0183 H   0  0  0  0  0  0
  -31.5623  -16.8961   21.9582 H   0  0  0  0  0  0
  -30.0967  -17.4674   22.7593 H   0  0  0  0  0  0
  -31.1793  -18.6033   21.9507 H   0  0  0  0  0  0
  -28.5530  -25.0740   21.7821 H   0  0  0  0  0  0
  -27.0333  -24.8979   20.9863 H   0  0  0  0  0  0
  -29.2975  -20.0870   21.5926 H   0  0  0  0  0  0
  1 25  1  0  0  0
  1 30  2  0  0  0
  1 74  1  0  0  0
  2  3  1  0  0  0
  2 25  1  0  0  0
  2 84  1  0  0  0
  2 85  1  0  0  0
  3  4  1  0  0  0
  3 86  1  0  0  0
  3 87  1  0  0  0
  4  5  1  0  0  0
  4 88  1  0  0  0
  4 89  1  0  0  0
  5  6  1  0  0  0
  5 26  1  0  0  0
  5 90  1  0  0  0
  6 25  1  0  0  0
  6 91  1  0  0  0
  6 92  1  0  0  0
  7  8  2  0  0  0
  7 26  1  0  0  0
  7 29  1  0  0  0
  8  9  1  0  0  0
  8 22  1  0  0  0
  9 10  1  0  0  0
  9 27  2  0  0  0
 10 11  2  0  0  0
 10 15  1  0  0  0
 11 12  1  0  0  0
 11 93  1  0  0  0
 12 13  2  0  0  0
 12 94  1  0  0  0
 13 14  1  0  0  0
 13 31  1  0  0  0
 14 15  2  0  0  0
 14 95  1  0  0  0
 15 96  1  0  0  0
 16 17  2  0  0  0
 16 21  1  0  0  0
 16 31  1  0  0  0
 17 18  1  0  0  0
 17 97  1  0  0  0
 18 19  2  0  0  0
 18 98  1  0  0  0
 19 20  1  0  0  0
 19 24  1  0  0  0
 20 21  2  0  0  0
 20 99  1  0  0  0
 21 23  1  0  0  0
 22 28  1  0  0  0
 22 32  2  0  0  0
 26 27  1  0  0  0
 28100  1  0  0  0
 28101  1  0  0  0
 29102  1  0  0  0
 29103  1  0  0  0
 33 34  1  0  0  0
 33 66  1  0  0  0
 33 70  2  0  0  0
 34 36  1  0  0  0
 34 59  1  0  0  0
 34104  1  0  0  0
 35 44  2  0  0  0
 35 45  1  0  0  0
 35 68  1  0  0  0
 36 56  1  0  0  0
 36105  1  0  0  0
 37 39  1  0  0  0
 37 47  1  0  0  0
 37 66  1  0  0  0
 37106  1  0  0  0
 38 43  2  0  0  0
 38 46  1  0  0  0
 38 47  1  0  0  0
 39 64  1  0  0  0
 39 67  2  0  0  0
 40 52  1  0  0  0
 40 53  2  0  0  0
 40 58  1  0  0  0
 41107  1  0  0  0
 41108  1  0  0  0
 41109  1  0  0  0
 41 48  1  0  0  0
 42 43  1  0  0  0
 42 66  1  0  0  0
 42110  1  0  0  0
 42111  1  0  0  0
 43 44  1  0  0  0
 44112  1  0  0  0
 45 46  2  0  0  0
 45113  1  0  0  0
 46114  1  0  0  0
 47115  1  0  0  0
 47116  1  0  0  0
 48 56  1  0  0  0
 48 65  1  0  0  0
 48117  1  0  0  0
 49 50  1  0  0  0
 49 53  1  0  0  0
 49 64  1  0  0  0
 49118  1  0  0  0
 50 51  1  0  0  0
 50119  1  0  0  0
 50120  1  0  0  0
 51 52  1  0  0  0
 51121  1  0  0  0
 51122  1  0  0  0
 52123  1  0  0  0
 52124  1  0  0  0
 53 54  1  0  0  0
 54 55  2  0  0  0
 54125  1  0  0  0
 55 57  1  0  0  0
 55126  1  0  0  0
 56 69  2  0  0  0
 57 58  2  0  0  0
 57127  1  0  0  0
 58128  1  0  0  0
 59 60  1  0  0  0
 59 61  1  0  0  0
 59 62  1  0  0  0
 60129  1  0  0  0
 60130  1  0  0  0
 60131  1  0  0  0
 61132  1  0  0  0
 61133  1  0  0  0
 61134  1  0  0  0
 62135  1  0  0  0
 62136  1  0  0  0
 62137  1  0  0  0
 63 65  1  0  0  0
 63138  1  0  0  0
 63139  1  0  0  0
 63140  1  0  0  0
 64141  1  0  0  0
 65142  1  0  0  0
 68 81  1  0  0  0
 71 72  2  0  0  0
 71 73  1  0  0  0
 71143  1  0  0  0
 72 74  1  0  0  0
 72144  1  0  0  0
 73 76  2  0  0  0
 73145  1  0  0  0
 74 75  2  0  0  0
 75 76  1  0  0  0
 75 80  1  0  0  0
 76 82  1  0  0  0
 77 78  2  0  0  0
 77 79  1  0  0  0
 77146  1  0  0  0
 78 81  1  0  0  0
 78147  1  0  0  0
 79 82  1  0  0  0
 79 83  2  0  0  0
 80148  1  0  0  0
 80149  1  0  0  0
 80150  1  0  0  0
 81151  1  0  0  0
 81152  1  0  0  0
 82153  1  0  0  0
M  ISO  4   1 100  68 101  74 100  81 101
M  END
> <chiral flag>
0

> <version>
0

> <s_m_source_file>
/data/baiqing/PycharmProjects/Reinvent-master-3.2/result/LINK_invent/BTK/process_docking_weight1_custom_product_contain_oxygen_bond_distance_aromatic_linkinvent_7_9_3/rearranged_h_0063.sdf

> <i_m_source_file_index>
60

> <r_mmod_Potential_Energy-OPLS-2005>
224.731262207031

> <r_mmod_Stretch_Energy-OPLS-2005>
122.887847900391

> <r_mmod_Bend_Energy-OPLS-2005>
151.621520996094

> <r_mmod_Torsional_Energy-OPLS-2005>
264.5439453125

> <r_mmod_Improper_Torsional_Energy-OPLS-2005>
14.6809415817261

> <r_mmod_Van_der_Waal_Energy-OPLS-2005>
144.573287963867

> <r_mmod_Electrostatic_Energy-OPLS-2005>
-361.277069091797

> <r_mmod_Solvation_Energy-OPLS-2005>
-213.947067260742

> <b_mmod_Minimization_Converged-OPLS-2005>
0

> <r_mmod_RMS_Derivative-OPLS-2005>
0.150574311614037

$$$$
61
                    3D
 Structure written by MMmdl.
163172  0  0  1  0            999 V2000
  -30.5405  -14.8089   20.4482 C   0  0  0  0  0  0
  -30.4466  -12.4953   19.4686 C   0  0  0  0  0  0
  -29.5167  -12.5061   18.2327 C   0  0  0  0  0  0
  -28.0385  -12.3287   18.6391 C   0  0  0  0  0  0
  -27.6320  -13.2291   19.8363 C   0  0  2  0  0  0
  -28.6775  -13.1827   20.9688 C   0  0  0  0  0  0
  -25.2482  -13.8215   20.5684 C   0  0  0  0  0  0
  -24.1772  -13.0473   20.9243 C   0  0  0  0  0  0
  -24.6356  -11.6949   20.8768 C   0  0  0  0  0  0
  -23.9030  -10.4325   21.0446 C   0  0  0  0  0  0
  -24.3579   -9.4244   21.9218 C   0  0  0  0  0  0
  -23.6269   -8.2256   22.0771 C   0  0  0  0  0  0
  -22.4254   -8.0279   21.3550 C   0  0  0  0  0  0
  -21.9882   -9.0267   20.4658 C   0  0  0  0  0  0
  -22.7211  -10.2157   20.3088 C   0  0  0  0  0  0
  -21.6848   -6.0722   22.5278 C   0  0  0  0  0  0
  -21.4010   -6.5621   23.8211 C   0  0  0  0  0  0
  -21.3670   -5.6780   24.9171 C   0  0  0  0  0  0
  -21.6057   -4.3046   24.7220 C   0  0  0  0  0  0
  -21.8821   -3.8136   23.4334 C   0  0  0  0  0  0
  -21.9196   -4.6957   22.3403 C   0  0  0  0  0  0
  -22.7813  -13.5288   21.1886 C   0  0  0  0  0  0
  -22.1679   -4.2148   21.0969 F   0  0  0  0  0  0
  -21.5615   -3.4525   25.7728 F   0  0  0  0  0  0
  -29.9702  -13.5567   20.3792 N   0  0  0  0  0  0
  -26.2857  -12.9402   20.3179 N   0  0  0  0  0  0
  -25.9255  -11.6557   20.5695 N   0  0  0  0  0  0
  -22.0405  -12.8326   22.0407 N   0  0  0  0  0  0
  -25.4163  -15.1932   20.4064 N   0  0  0  0  0  0
  -31.7537  -14.9490   20.2816 O   0  0  0  0  0  0
  -21.6643   -6.8870   21.4238 O   0  0  0  0  0  0
  -22.3526  -14.5610   20.6757 O   0  0  0  0  0  0
  -24.6310  -31.8575   23.1985 C   0  0  0  0  0  0
  -25.9159  -32.4744   23.8318 C   0  0  1  0  0  0
  -27.2161  -27.2706   20.1119 C   0  0  0  0  0  0
  -25.5960  -33.8546   24.2252 N   0  0  0  0  0  0
  -23.4252  -30.4837   21.5427 C   0  0  2  0  0  0
  -24.8693  -28.9360   20.1076 C   0  0  0  0  0  0
  -22.7502  -29.4641   22.4916 C   0  0  0  0  0  0
  -18.0304  -28.1378   22.8500 C   0  0  0  0  0  0
  -24.1498  -36.7269   23.2631 C   0  0  0  0  0  0
  -25.9721  -30.7737   21.3779 C   0  0  0  0  0  0
  -26.0438  -29.3995   20.7145 C   0  0  0  0  0  0
  -27.2197  -28.5806   20.7048 C   0  0  0  0  0  0
  -26.0119  -26.8777   19.4817 C   0  0  0  0  0  0
  -24.8603  -27.6851   19.4777 C   0  0  0  0  0  0
  -23.6396  -29.8208   20.1582 C   0  0  0  0  0  0
  -25.4116  -36.3048   24.0321 C   0  0  1  0  0  0
  -20.5905  -28.3711   23.1272 C   0  0  2  0  0  0
  -20.6793  -26.9434   22.5407 C   0  0  0  0  0  0
  -19.5749  -26.6394   21.5223 C   0  0  0  0  0  0
  -18.1934  -26.7928   22.1636 C   0  0  0  0  0  0
  -19.1551  -28.8855   23.2884 C   0  0  0  0  0  0
  -18.9474  -30.1453   23.8902 C   0  0  0  0  0  0
  -17.6467  -30.6585   24.0564 C   0  0  0  0  0  0
  -25.9067  -34.9423   23.5087 C   0  0  0  0  0  0
  -16.5364  -29.9080   23.6323 C   0  0  0  0  0  0
  -16.7289  -28.6494   23.0361 C   0  0  0  0  0  0
  -26.4518  -31.6536   25.0691 C   0  0  0  0  0  0
  -25.3737  -31.3674   26.1402 C   0  0  0  0  0  0
  -27.0354  -30.2935   24.6179 C   0  0  0  0  0  0
  -27.6069  -32.4268   25.7475 C   0  0  0  0  0  0
  -27.5584  -37.1784   24.8461 C   0  0  0  0  0  0
  -21.4209  -29.3075   22.3674 N   0  0  0  0  0  0
  -26.4281  -37.3760   23.9421 N   0  0  0  0  0  0
  -24.6952  -31.0558   22.0960 N   0  0  0  0  0  0
  -23.4205  -28.8205   23.3036 O   0  0  0  0  0  0
  -28.3136  -26.3740   20.1549 O   0  0  0  0  0  0
  -26.5659  -34.8913   22.4669 O   0  0  0  0  0  0
  -23.5466  -32.1420   23.7290 O   0  0  0  0  0  0
  -28.3506  -17.2216   21.7974 C   0  0  0  0  0  0
  -29.8022  -18.5275   20.3488 C   0  0  0  0  0  0
  -27.7320  -18.4123   22.2484 C   0  0  0  0  0  0
  -29.1996  -19.7806   20.8149 C   0  0  0  0  0  0
  -29.3868  -17.2117   20.8354 C   0  0  0  0  0  0
  -28.1838  -19.6695   21.7942 C   0  0  0  0  0  0
  -28.7226  -22.2036   20.0710 C   0  0  0  0  0  0
  -26.6137  -18.3303   23.2277 C   0  0  0  0  0  0
  -31.1779  -22.9027   21.4739 C   0  0  0  0  0  0
  -29.9556  -23.8500   21.4778 C   0  0  0  0  0  0
  -30.9873  -21.5620   20.7018 C   0  0  0  0  0  0
  -29.1690  -23.7414   20.1677 C   0  0  2  0  0  0
  -25.4519  -19.3112   23.0607 C   0  0  0  0  0  0
  -28.0439  -24.8989   20.0052 C   0  0  0  0  0  0
  -29.5885  -21.1779   20.4623 N   0  0  0  0  0  0
  -29.6503  -15.8646   20.2536 N   0  0  0  0  0  0
  -27.5977  -21.9535   19.6268 O   0  0  0  0  0  0
  -26.5556  -17.4909   24.1314 O   0  0  0  0  0  0
  -27.6745  -20.7994   22.3463 F   0  0  0  0  0  0
  -31.4836  -12.6624   19.1639 H   0  0  0  0  0  0
  -30.4246  -11.5273   19.9720 H   0  0  0  0  0  0
  -29.8052  -11.7217   17.5336 H   0  0  0  0  0  0
  -29.6367  -13.4479   17.6943 H   0  0  0  0  0  0
  -27.8802  -11.2811   18.8961 H   0  0  0  0  0  0
  -27.3945  -12.5356   17.7842 H   0  0  0  0  0  0
  -27.6138  -14.2447   19.4419 H   0  0  0  0  0  0
  -28.7249  -12.1943   21.4254 H   0  0  0  0  0  0
  -28.4060  -13.8752   21.7686 H   0  0  0  0  0  0
  -25.2714   -9.5738   22.4809 H   0  0  0  0  0  0
  -23.9994   -7.4643   22.7483 H   0  0  0  0  0  0
  -21.0802   -8.8809   19.8945 H   0  0  0  0  0  0
  -22.3677  -10.9708   19.6207 H   0  0  0  0  0  0
  -21.2011   -7.6136   23.9719 H   0  0  0  0  0  0
  -21.1481   -6.0497   25.9077 H   0  0  0  0  0  0
  -22.0587   -2.7593   23.2841 H   0  0  0  0  0  0
  -22.3927  -11.9973   22.4844 H   0  0  0  0  0  0
  -21.1042  -13.1449   22.2575 H   0  0  0  0  0  0
  -24.6316  -15.8308   20.4831 H   0  0  0  0  0  0
  -26.2083  -15.6119   19.9395 H   0  0  0  0  0  0
  -26.7232  -32.5386   23.1059 H   0  0  0  0  0  0
  -25.0069  -33.9678   25.0370 H   0  0  0  0  0  0
  -22.7193  -31.3047   21.3987 H   0  0  0  0  0  0
  -23.3765  -35.9594   23.3250 H   0  0  0  0  0  0
  -24.3616  -36.8942   22.2061 H   0  0  0  0  0  0
  -23.7249  -37.6450   23.6690 H   0  0  0  0  0  0
  -26.1138  -31.5426   20.6165 H   0  0  0  0  0  0
  -26.8471  -30.8155   22.0154 H   0  0  0  0  0  0
  -28.1172  -28.9337   21.1917 H   0  0  0  0  0  0
  -25.9182  -25.9248   18.9846 H   0  0  0  0  0  0
  -23.9626  -27.3290   18.9904 H   0  0  0  0  0  0
  -23.7579  -30.5962   19.4005 H   0  0  0  0  0  0
  -22.7580  -29.2515   19.8576 H   0  0  0  0  0  0
  -25.1285  -36.1874   25.0810 H   0  0  0  0  0  0
  -20.9996  -28.3297   24.1390 H   0  0  0  0  0  0
  -20.5712  -26.2334   23.3623 H   0  0  0  0  0  0
  -21.6658  -26.7484   22.1183 H   0  0  0  0  0  0
  -19.6917  -25.6308   21.1243 H   0  0  0  0  0  0
  -19.6638  -27.3216   20.6756 H   0  0  0  0  0  0
  -17.4209  -26.6711   21.4030 H   0  0  0  0  0  0
  -18.0307  -26.0051   22.9006 H   0  0  0  0  0  0
  -19.7948  -30.7277   24.2268 H   0  0  0  0  0  0
  -17.5025  -31.6267   24.5168 H   0  0  0  0  0  0
  -15.5361  -30.2983   23.7628 H   0  0  0  0  0  0
  -15.8704  -28.0805   22.7067 H   0  0  0  0  0  0
  -24.5937  -30.7001   25.7719 H   0  0  0  0  0  0
  -24.8902  -32.2834   26.4800 H   0  0  0  0  0  0
  -25.8054  -30.8864   27.0190 H   0  0  0  0  0  0
  -26.2930  -29.6673   24.1221 H   0  0  0  0  0  0
  -27.4042  -29.7198   25.4694 H   0  0  0  0  0  0
  -27.8808  -30.4167   23.9407 H   0  0  0  0  0  0
  -27.2674  -33.3580   26.2016 H   0  0  0  0  0  0
  -28.3897  -32.6806   25.0313 H   0  0  0  0  0  0
  -28.0714  -31.8411   26.5418 H   0  0  0  0  0  0
  -28.2552  -38.0127   24.7561 H   0  0  0  0  0  0
  -28.1123  -36.2665   24.6187 H   0  0  0  0  0  0
  -27.2327  -37.1321   25.8868 H   0  0  0  0  0  0
  -20.9396  -29.8773   21.6856 H   0  0  0  0  0  0
  -26.0136  -38.2819   24.1440 H   0  0  0  0  0  0
  -27.9617  -16.2821   22.1615 H   0  0  0  0  0  0
  -30.5633  -18.5788   19.5817 H   0  0  0  0  0  0
  -31.4753  -22.7013   22.5032 H   0  0  0  0  0  0
  -32.0228  -23.4277   21.0283 H   0  0  0  0  0  0
  -30.2768  -24.8765   21.6570 H   0  0  0  0  0  0
  -29.2974  -23.5923   22.3107 H   0  0  0  0  0  0
  -31.5113  -20.7671   21.2324 H   0  0  0  0  0  0
  -31.4754  -21.6353   19.7298 H   0  0  0  0  0  0
  -29.8743  -23.9011   19.3522 H   0  0  0  0  0  0
  -25.3861  -19.6674   22.0320 H   0  0  0  0  0  0
  -25.5915  -20.1725   23.7157 H   0  0  0  0  0  0
  -24.5064  -18.8310   23.3106 H   0  0  0  0  0  0
  -27.2146  -24.6476   20.6690 H   0  0  0  0  0  0
  -27.6710  -24.7636   18.9904 H   0  0  0  0  0  0
  -28.7792  -15.4352   19.9856 H   0  0  0  0  0  0
  1 25  1  0  0  0
  1 30  2  0  0  0
  1 86  1  0  0  0
  2  3  1  0  0  0
  2 25  1  0  0  0
  2 90  1  0  0  0
  2 91  1  0  0  0
  3  4  1  0  0  0
  3 92  1  0  0  0
  3 93  1  0  0  0
  4  5  1  0  0  0
  4 94  1  0  0  0
  4 95  1  0  0  0
  5  6  1  0  0  0
  5 26  1  0  0  0
  5 96  1  0  0  0
  6 25  1  0  0  0
  6 97  1  0  0  0
  6 98  1  0  0  0
  7  8  2  0  0  0
  7 26  1  0  0  0
  7 29  1  0  0  0
  8  9  1  0  0  0
  8 22  1  0  0  0
  9 10  1  0  0  0
  9 27  2  0  0  0
 10 11  2  0  0  0
 10 15  1  0  0  0
 11 12  1  0  0  0
 11 99  1  0  0  0
 12 13  2  0  0  0
 12100  1  0  0  0
 13 14  1  0  0  0
 13 31  1  0  0  0
 14 15  2  0  0  0
 14101  1  0  0  0
 15102  1  0  0  0
 16 17  2  0  0  0
 16 21  1  0  0  0
 16 31  1  0  0  0
 17 18  1  0  0  0
 17103  1  0  0  0
 18 19  2  0  0  0
 18104  1  0  0  0
 19 20  1  0  0  0
 19 24  1  0  0  0
 20 21  2  0  0  0
 20105  1  0  0  0
 21 23  1  0  0  0
 22 28  1  0  0  0
 22 32  2  0  0  0
 26 27  1  0  0  0
 28106  1  0  0  0
 28107  1  0  0  0
 29108  1  0  0  0
 29109  1  0  0  0
 33 34  1  0  0  0
 33 66  1  0  0  0
 33 70  2  0  0  0
 34 36  1  0  0  0
 34 59  1  0  0  0
 34110  1  0  0  0
 35 44  2  0  0  0
 35 45  1  0  0  0
 35 68  1  0  0  0
 36 56  1  0  0  0
 36111  1  0  0  0
 37 39  1  0  0  0
 37 47  1  0  0  0
 37 66  1  0  0  0
 37112  1  0  0  0
 38 43  2  0  0  0
 38 46  1  0  0  0
 38 47  1  0  0  0
 39 64  1  0  0  0
 39 67  2  0  0  0
 40 52  1  0  0  0
 40 53  2  0  0  0
 40 58  1  0  0  0
 41113  1  0  0  0
 41114  1  0  0  0
 41115  1  0  0  0
 41 48  1  0  0  0
 42 43  1  0  0  0
 42 66  1  0  0  0
 42116  1  0  0  0
 42117  1  0  0  0
 43 44  1  0  0  0
 44118  1  0  0  0
 45 46  2  0  0  0
 45119  1  0  0  0
 46120  1  0  0  0
 47121  1  0  0  0
 47122  1  0  0  0
 48 56  1  0  0  0
 48 65  1  0  0  0
 48123  1  0  0  0
 49 50  1  0  0  0
 49 53  1  0  0  0
 49 64  1  0  0  0
 49124  1  0  0  0
 50 51  1  0  0  0
 50125  1  0  0  0
 50126  1  0  0  0
 51 52  1  0  0  0
 51127  1  0  0  0
 51128  1  0  0  0
 52129  1  0  0  0
 52130  1  0  0  0
 53 54  1  0  0  0
 54 55  2  0  0  0
 54131  1  0  0  0
 55 57  1  0  0  0
 55132  1  0  0  0
 56 69  2  0  0  0
 57 58  2  0  0  0
 57133  1  0  0  0
 58134  1  0  0  0
 59 60  1  0  0  0
 59 61  1  0  0  0
 59 62  1  0  0  0
 60135  1  0  0  0
 60136  1  0  0  0
 60137  1  0  0  0
 61138  1  0  0  0
 61139  1  0  0  0
 61140  1  0  0  0
 62141  1  0  0  0
 62142  1  0  0  0
 62143  1  0  0  0
 63 65  1  0  0  0
 63144  1  0  0  0
 63145  1  0  0  0
 63146  1  0  0  0
 64147  1  0  0  0
 65148  1  0  0  0
 68 84  1  0  0  0
 71 73  2  0  0  0
 71 75  1  0  0  0
 71149  1  0  0  0
 72 74  1  0  0  0
 72 75  2  0  0  0
 72150  1  0  0  0
 73 76  1  0  0  0
 73 78  1  0  0  0
 74 76  2  0  0  0
 74 85  1  0  0  0
 75 86  1  0  0  0
 76 89  1  0  0  0
 77 82  1  0  0  0
 77 85  1  0  0  0
 77 87  2  0  0  0
 78 83  1  0  0  0
 78 88  2  0  0  0
 79 80  1  0  0  0
 79 81  1  0  0  0
 79151  1  0  0  0
 79152  1  0  0  0
 80 82  1  0  0  0
 80153  1  0  0  0
 80154  1  0  0  0
 81 85  1  0  0  0
 81155  1  0  0  0
 81156  1  0  0  0
 82 84  1  0  0  0
 82157  1  0  0  0
 83158  1  0  0  0
 83159  1  0  0  0
 83160  1  0  0  0
 84161  1  0  0  0
 84162  1  0  0  0
 86163  1  0  0  0
M  ISO  4   1 100  68 101  84 101  86 100
M  END
> <chiral flag>
0

> <version>
0

> <s_m_source_file>
/data/baiqing/PycharmProjects/Reinvent-master-3.2/result/LINK_invent/BTK/process_docking_weight1_custom_product_contain_oxygen_bond_distance_aromatic_linkinvent_7_9_3/rearranged_h_0063.sdf

> <i_m_source_file_index>
61

> <r_mmod_Potential_Energy-OPLS-2005>
346.506988525391

> <r_mmod_Stretch_Energy-OPLS-2005>
133.893096923828

> <r_mmod_Bend_Energy-OPLS-2005>
187.423217773438

> <r_mmod_Torsional_Energy-OPLS-2005>
378.562194824219

> <r_mmod_Improper_Torsional_Energy-OPLS-2005>
19.9497528076172

> <r_mmod_Van_der_Waal_Energy-OPLS-2005>
148.452163696289

> <r_mmod_Electrostatic_Energy-OPLS-2005>
-401.987030029297

> <r_mmod_Solvation_Energy-OPLS-2005>
-226.389251708984

> <b_mmod_Minimization_Converged-OPLS-2005>
0

> <r_mmod_RMS_Derivative-OPLS-2005>
4.04382944107056

$$$$
62
                    3D
 Structure written by MMmdl.
163172  0  0  1  0            999 V2000
  -30.6208  -14.7015   20.5544 C   0  0  0  0  0  0
  -30.4386  -12.4458   19.4843 C   0  0  0  0  0  0
  -29.5203  -12.5427   18.2434 C   0  0  0  0  0  0
  -28.0410  -12.3675   18.6389 C   0  0  0  0  0  0
  -27.6519  -13.2321   19.8688 C   0  0  2  0  0  0
  -28.6898  -13.1129   21.0104 C   0  0  0  0  0  0
  -25.2531  -13.8184   20.5705 C   0  0  0  0  0  0
  -24.1795  -13.0434   20.9157 C   0  0  0  0  0  0
  -24.6381  -11.6927   20.8686 C   0  0  0  0  0  0
  -23.9027  -10.4308   21.0349 C   0  0  0  0  0  0
  -24.3591   -9.4229   21.9144 C   0  0  0  0  0  0
  -23.6287   -8.2253   22.0752 C   0  0  0  0  0  0
  -22.4272   -8.0266   21.3543 C   0  0  0  0  0  0
  -21.9872   -9.0218   20.4643 C   0  0  0  0  0  0
  -22.7173  -10.2111   20.3021 C   0  0  0  0  0  0
  -21.6856   -6.0708   22.5273 C   0  0  0  0  0  0
  -21.4017   -6.5629   23.8198 C   0  0  0  0  0  0
  -21.3661   -5.6792   24.9175 C   0  0  0  0  0  0
  -21.6048   -4.3051   24.7233 C   0  0  0  0  0  0
  -21.8817   -3.8124   23.4357 C   0  0  0  0  0  0
  -21.9203   -4.6937   22.3403 C   0  0  0  0  0  0
  -22.7819  -13.5232   21.1836 C   0  0  0  0  0  0
  -22.1670   -4.2115   21.0980 F   0  0  0  0  0  0
  -21.5628   -3.4546   25.7751 F   0  0  0  0  0  0
  -30.0078  -13.4707   20.4660 N   0  0  0  0  0  0
  -26.2978  -12.9408   20.3323 N   0  0  0  0  0  0
  -25.9319  -11.6535   20.5693 N   0  0  0  0  0  0
  -22.0469  -12.8217   22.0395 N   0  0  0  0  0  0
  -25.4221  -15.1913   20.4221 N   0  0  0  0  0  0
  -31.7427  -14.8713   20.0657 O   0  0  0  0  0  0
  -21.6655   -6.8837   21.4235 O   0  0  0  0  0  0
  -22.3484  -14.5527   20.6680 O   0  0  0  0  0  0
  -24.6309  -31.8567   23.1927 C   0  0  0  0  0  0
  -25.9139  -32.4768   23.8281 C   0  0  1  0  0  0
  -27.2439  -27.2713   20.1288 C   0  0  0  0  0  0
  -25.5951  -33.8564   24.2237 N   0  0  0  0  0  0
  -23.4258  -30.4692   21.5402 C   0  0  2  0  0  0
  -24.8783  -28.9095   20.1172 C   0  0  0  0  0  0
  -22.7494  -29.4593   22.4972 C   0  0  0  0  0  0
  -18.0273  -28.1378   22.8502 C   0  0  0  0  0  0
  -24.1513  -36.7307   23.2627 C   0  0  0  0  0  0
  -25.9679  -30.7765   21.3639 C   0  0  0  0  0  0
  -26.0479  -29.3948   20.7141 C   0  0  0  0  0  0
  -27.2297  -28.5871   20.7057 C   0  0  0  0  0  0
  -26.0439  -26.8442   19.5155 C   0  0  0  0  0  0
  -24.8806  -27.6419   19.5112 C   0  0  0  0  0  0
  -23.6456  -29.7894   20.1628 C   0  0  0  0  0  0
  -25.4133  -36.3086   24.0316 C   0  0  1  0  0  0
  -20.5870  -28.3673   23.1325 C   0  0  2  0  0  0
  -20.6763  -26.9411   22.5429 C   0  0  0  0  0  0
  -19.5745  -26.6396   21.5221 C   0  0  0  0  0  0
  -18.1925  -26.7933   22.1624 C   0  0  0  0  0  0
  -19.1531  -28.8839   23.2910 C   0  0  0  0  0  0
  -18.9447  -30.1434   23.8920 C   0  0  0  0  0  0
  -17.6455  -30.6592   24.0552 C   0  0  0  0  0  0
  -25.9057  -34.9451   23.5081 C   0  0  0  0  0  0
  -16.5338  -29.9078   23.6340 C   0  0  0  0  0  0
  -16.7265  -28.6497   23.0364 C   0  0  0  0  0  0
  -26.4492  -31.6554   25.0649 C   0  0  0  0  0  0
  -25.3709  -31.3700   26.1368 C   0  0  0  0  0  0
  -27.0288  -30.2967   24.6082 C   0  0  0  0  0  0
  -27.6068  -32.4238   25.7444 C   0  0  0  0  0  0
  -27.5609  -37.1821   24.8473 C   0  0  0  0  0  0
  -21.4206  -29.3026   22.3729 N   0  0  0  0  0  0
  -26.4325  -37.3782   23.9394 N   0  0  0  0  0  0
  -24.6950  -31.0524   22.0894 N   0  0  0  0  0  0
  -23.4221  -28.8153   23.3070 O   0  0  0  0  0  0
  -28.3907  -26.4457   20.1886 O   0  0  0  0  0  0
  -26.5645  -34.8934   22.4651 O   0  0  0  0  0  0
  -23.5471  -32.1368   23.7261 O   0  0  0  0  0  0
  -29.4333  -19.1954   19.5628 C   0  0  0  0  0  0
  -29.6012  -17.7846   19.7262 C   0  0  0  0  0  0
  -29.9656  -19.5556   21.8826 C   0  0  0  0  0  0
  -30.1115  -18.1229   22.0532 C   0  0  0  0  0  0
  -29.6056  -20.1373   20.6210 C   0  0  0  0  0  0
  -29.9388  -17.1965   20.9708 C   0  0  0  0  0  0
  -28.2862  -23.9641   20.9979 C   0  0  0  0  0  0
  -30.4962  -22.2101   19.6401 C   0  0  0  0  0  0
  -28.2669  -22.3871   20.7552 C   0  0  0  0  0  0
  -30.7844  -23.7263   19.7470 C   0  0  0  0  0  0
  -29.7654  -24.6892   19.0596 C   0  0  0  0  0  0
  -28.4269  -24.9878   19.8027 C   0  0  2  0  0  0
  -30.2302  -20.4775   23.0752 C   0  0  0  0  0  0
  -30.4505  -17.5657   23.4360 C   0  0  0  0  0  0
  -29.5151  -21.6117   20.3804 N   0  0  0  0  0  0
  -29.9208  -15.7288   21.1564 N   0  0  0  0  0  0
  -28.1839  -24.3941   22.1488 O   0  0  0  0  0  0
  -31.2410  -21.5607   18.9002 O   0  0  0  0  0  0
  -31.4841  -12.5631   19.1969 H   0  0  0  0  0  0
  -30.3699  -11.4553   19.9359 H   0  0  0  0  0  0
  -29.8014  -11.7918   17.5040 H   0  0  0  0  0  0
  -29.6550  -13.5108   17.7607 H   0  0  0  0  0  0
  -27.8736  -11.3112   18.8572 H   0  0  0  0  0  0
  -27.3970  -12.6113   17.7924 H   0  0  0  0  0  0
  -27.6621  -14.2688   19.5282 H   0  0  0  0  0  0
  -28.7128  -12.0982   21.4115 H   0  0  0  0  0  0
  -28.4083  -13.7539   21.8483 H   0  0  0  0  0  0
  -25.2733   -9.5743   22.4717 H   0  0  0  0  0  0
  -24.0009   -7.4657   22.7496 H   0  0  0  0  0  0
  -21.0782   -8.8706   19.8960 H   0  0  0  0  0  0
  -22.3583  -10.9649   19.6132 H   0  0  0  0  0  0
  -21.2002   -7.6142   23.9681 H   0  0  0  0  0  0
  -21.1490   -6.0537   25.9070 H   0  0  0  0  0  0
  -22.0591   -2.7591   23.2876 H   0  0  0  0  0  0
  -22.4101  -11.9898   22.4819 H   0  0  0  0  0  0
  -21.1075  -13.1216   22.2589 H   0  0  0  0  0  0
  -24.6562  -15.8459   20.5404 H   0  0  0  0  0  0
  -26.2878  -15.6452   20.1592 H   0  0  0  0  0  0
  -26.7211  -32.5431   23.1026 H   0  0  0  0  0  0
  -25.0082  -33.9673   25.0384 H   0  0  0  0  0  0
  -22.7185  -31.2859   21.3817 H   0  0  0  0  0  0
  -23.3766  -35.9658   23.3289 H   0  0  0  0  0  0
  -24.3604  -36.8935   22.2053 H   0  0  0  0  0  0
  -23.7291  -37.6514   23.6634 H   0  0  0  0  0  0
  -26.0896  -31.5347   20.5901 H   0  0  0  0  0  0
  -26.8526  -30.8403   21.9842 H   0  0  0  0  0  0
  -28.1300  -28.9572   21.1754 H   0  0  0  0  0  0
  -25.9676  -25.8736   19.0549 H   0  0  0  0  0  0
  -23.9833  -27.2565   19.0518 H   0  0  0  0  0  0
  -23.7683  -30.5531   19.3950 H   0  0  0  0  0  0
  -22.7663  -29.2168   19.8649 H   0  0  0  0  0  0
  -25.1327  -36.1921   25.0817 H   0  0  0  0  0  0
  -20.9939  -28.3217   24.1452 H   0  0  0  0  0  0
  -20.5656  -26.2288   23.3606 H   0  0  0  0  0  0
  -21.6634  -26.7465   22.1217 H   0  0  0  0  0  0
  -19.6917  -25.6320   21.1224 H   0  0  0  0  0  0
  -19.6664  -27.3215   20.6755 H   0  0  0  0  0  0
  -17.4200  -26.6693   21.4012 H   0  0  0  0  0  0
  -18.0307  -26.0044   22.8985 H   0  0  0  0  0  0
  -19.7905  -30.7243   24.2326 H   0  0  0  0  0  0
  -17.4993  -31.6267   24.5139 H   0  0  0  0  0  0
  -15.5338  -30.2981   23.7648 H   0  0  0  0  0  0
  -15.8658  -28.0805   22.7103 H   0  0  0  0  0  0
  -24.5942  -30.6967   25.7718 H   0  0  0  0  0  0
  -24.8817  -32.2860   26.4703 H   0  0  0  0  0  0
  -25.8053  -30.8971   27.0190 H   0  0  0  0  0  0
  -26.2854  -29.6761   24.1065 H   0  0  0  0  0  0
  -27.3926  -29.7173   25.4576 H   0  0  0  0  0  0
  -27.8754  -30.4230   23.9321 H   0  0  0  0  0  0
  -27.2710  -33.3550   26.2021 H   0  0  0  0  0  0
  -28.3911  -32.6765   25.0289 H   0  0  0  0  0  0
  -28.0676  -31.8316   26.5364 H   0  0  0  0  0  0
  -28.2633  -38.0114   24.7493 H   0  0  0  0  0  0
  -28.1086  -36.2629   24.6310 H   0  0  0  0  0  0
  -27.2306  -37.1527   25.8875 H   0  0  0  0  0  0
  -20.9399  -29.8744   21.6926 H   0  0  0  0  0  0
  -26.0195  -38.2874   24.1309 H   0  0  0  0  0  0
  -29.1854  -19.5539   18.5751 H   0  0  0  0  0  0
  -29.4356  -17.1372   18.8771 H   0  0  0  0  0  0
  -27.5109  -22.1762   19.9986 H   0  0  0  0  0  0
  -27.8809  -21.9364   21.6726 H   0  0  0  0  0  0
  -31.7531  -23.8800   19.2686 H   0  0  0  0  0  0
  -30.9580  -23.9923   20.7910 H   0  0  0  0  0  0
  -29.5520  -24.3071   18.0609 H   0  0  0  0  0  0
  -30.2731  -25.6394   18.8913 H   0  0  0  0  0  0
  -27.6336  -24.7653   19.0947 H   0  0  0  0  0  0
  -30.0674  -21.5310   22.8585 H   0  0  0  0  0  0
  -31.2667  -20.3975   23.4105 H   0  0  0  0  0  0
  -29.5828  -20.2245   23.9153 H   0  0  0  0  0  0
  -31.1401  -18.2047   23.9822 H   0  0  0  0  0  0
  -30.9306  -16.5885   23.3768 H   0  0  0  0  0  0
  -29.5424  -17.4646   24.0301 H   0  0  0  0  0  0
  -29.1510  -15.4012   21.7172 H   0  0  0  0  0  0
  1 25  1  0  0  0
  1 30  2  0  0  0
  1 86  1  0  0  0
  2  3  1  0  0  0
  2 25  1  0  0  0
  2 89  1  0  0  0
  2 90  1  0  0  0
  3  4  1  0  0  0
  3 91  1  0  0  0
  3 92  1  0  0  0
  4  5  1  0  0  0
  4 93  1  0  0  0
  4 94  1  0  0  0
  5  6  1  0  0  0
  5 26  1  0  0  0
  5 95  1  0  0  0
  6 25  1  0  0  0
  6 96  1  0  0  0
  6 97  1  0  0  0
  7  8  2  0  0  0
  7 26  1  0  0  0
  7 29  1  0  0  0
  8  9  1  0  0  0
  8 22  1  0  0  0
  9 10  1  0  0  0
  9 27  2  0  0  0
 10 11  2  0  0  0
 10 15  1  0  0  0
 11 12  1  0  0  0
 11 98  1  0  0  0
 12 13  2  0  0  0
 12 99  1  0  0  0
 13 14  1  0  0  0
 13 31  1  0  0  0
 14 15  2  0  0  0
 14100  1  0  0  0
 15101  1  0  0  0
 16 17  2  0  0  0
 16 21  1  0  0  0
 16 31  1  0  0  0
 17 18  1  0  0  0
 17102  1  0  0  0
 18 19  2  0  0  0
 18103  1  0  0  0
 19 20  1  0  0  0
 19 24  1  0  0  0
 20 21  2  0  0  0
 20104  1  0  0  0
 21 23  1  0  0  0
 22 28  1  0  0  0
 22 32  2  0  0  0
 26 27  1  0  0  0
 28105  1  0  0  0
 28106  1  0  0  0
 29107  1  0  0  0
 29108  1  0  0  0
 33 34  1  0  0  0
 33 66  1  0  0  0
 33 70  2  0  0  0
 34 36  1  0  0  0
 34 59  1  0  0  0
 34109  1  0  0  0
 35 44  2  0  0  0
 35 45  1  0  0  0
 35 68  1  0  0  0
 36 56  1  0  0  0
 36110  1  0  0  0
 37 39  1  0  0  0
 37 47  1  0  0  0
 37 66  1  0  0  0
 37111  1  0  0  0
 38 43  2  0  0  0
 38 46  1  0  0  0
 38 47  1  0  0  0
 39 64  1  0  0  0
 39 67  2  0  0  0
 40 52  1  0  0  0
 40 53  2  0  0  0
 40 58  1  0  0  0
 41112  1  0  0  0
 41113  1  0  0  0
 41114  1  0  0  0
 41 48  1  0  0  0
 42 43  1  0  0  0
 42 66  1  0  0  0
 42115  1  0  0  0
 42116  1  0  0  0
 43 44  1  0  0  0
 44117  1  0  0  0
 45 46  2  0  0  0
 45118  1  0  0  0
 46119  1  0  0  0
 47120  1  0  0  0
 47121  1  0  0  0
 48 56  1  0  0  0
 48 65  1  0  0  0
 48122  1  0  0  0
 49 50  1  0  0  0
 49 53  1  0  0  0
 49 64  1  0  0  0
 49123  1  0  0  0
 50 51  1  0  0  0
 50124  1  0  0  0
 50125  1  0  0  0
 51 52  1  0  0  0
 51126  1  0  0  0
 51127  1  0  0  0
 52128  1  0  0  0
 52129  1  0  0  0
 53 54  1  0  0  0
 54 55  2  0  0  0
 54130  1  0  0  0
 55 57  1  0  0  0
 55131  1  0  0  0
 56 69  2  0  0  0
 57 58  2  0  0  0
 57132  1  0  0  0
 58133  1  0  0  0
 59 60  1  0  0  0
 59 61  1  0  0  0
 59 62  1  0  0  0
 60134  1  0  0  0
 60135  1  0  0  0
 60136  1  0  0  0
 61137  1  0  0  0
 61138  1  0  0  0
 61139  1  0  0  0
 62140  1  0  0  0
 62141  1  0  0  0
 62142  1  0  0  0
 63 65  1  0  0  0
 63143  1  0  0  0
 63144  1  0  0  0
 63145  1  0  0  0
 64146  1  0  0  0
 65147  1  0  0  0
 68 82  1  0  0  0
 71 72  2  0  0  0
 71 75  1  0  0  0
 71148  1  0  0  0
 72 76  1  0  0  0
 72149  1  0  0  0
 73 74  1  0  0  0
 73 75  2  0  0  0
 73 83  1  0  0  0
 74 76  2  0  0  0
 74 84  1  0  0  0
 75 85  1  0  0  0
 76 86  1  0  0  0
 77 79  1  0  0  0
 77 82  1  0  0  0
 77 87  2  0  0  0
 78 80  1  0  0  0
 78 85  1  0  0  0
 78 88  2  0  0  0
 79 85  1  0  0  0
 79150  1  0  0  0
 79151  1  0  0  0
 80 81  1  0  0  0
 80152  1  0  0  0
 80153  1  0  0  0
 81 82  1  0  0  0
 81154  1  0  0  0
 81155  1  0  0  0
 82156  1  0  0  0
 83157  1  0  0  0
 83158  1  0  0  0
 83159  1  0  0  0
 84160  1  0  0  0
 84161  1  0  0  0
 84162  1  0  0  0
 86163  1  0  0  0
M  ISO  4   1 100  68 101  82 101  86 100
M  END
> <chiral flag>
0

> <version>
0

> <s_m_source_file>
/data/baiqing/PycharmProjects/Reinvent-master-3.2/result/LINK_invent/BTK/process_docking_weight1_custom_product_contain_oxygen_bond_distance_aromatic_linkinvent_7_9_3/rearranged_h_0063.sdf

> <i_m_source_file_index>
62

> <r_mmod_Potential_Energy-OPLS-2005>
177.225006103516

> <r_mmod_Stretch_Energy-OPLS-2005>
121.046051025391

> <r_mmod_Bend_Energy-OPLS-2005>
172.068557739258

> <r_mmod_Torsional_Energy-OPLS-2005>
319.5859375

> <r_mmod_Improper_Torsional_Energy-OPLS-2005>
3.92549395561218

> <r_mmod_Van_der_Waal_Energy-OPLS-2005>
156.176986694336

> <r_mmod_Electrostatic_Energy-OPLS-2005>
-413.911193847656

> <r_mmod_Solvation_Energy-OPLS-2005>
-248.508926391602

> <b_mmod_Minimization_Converged-OPLS-2005>
0

> <r_mmod_RMS_Derivative-OPLS-2005>
4.54166793823242

$$$$
63
                    3D
 Structure written by MMmdl.
160169  0  0  1  0            999 V2000
  -30.5763  -14.7532   20.4496 C   0  0  0  0  0  0
  -30.4359  -12.4548   19.4894 C   0  0  0  0  0  0
  -29.5168  -12.5176   18.2465 C   0  0  0  0  0  0
  -28.0395  -12.3467   18.6481 C   0  0  0  0  0  0
  -27.6460  -13.2323   19.8592 C   0  0  2  0  0  0
  -28.6853  -13.1424   20.9993 C   0  0  0  0  0  0
  -25.2529  -13.8202   20.5673 C   0  0  0  0  0  0
  -24.1805  -13.0453   20.9165 C   0  0  0  0  0  0
  -24.6389  -11.6928   20.8708 C   0  0  0  0  0  0
  -23.9051  -10.4308   21.0362 C   0  0  0  0  0  0
  -24.3599   -9.4221   21.9141 C   0  0  0  0  0  0
  -23.6277   -8.2259   22.0709 C   0  0  0  0  0  0
  -22.4258   -8.0296   21.3513 C   0  0  0  0  0  0
  -21.9900   -9.0267   20.4611 C   0  0  0  0  0  0
  -22.7220  -10.2148   20.3010 C   0  0  0  0  0  0
  -21.6842   -6.0753   22.5265 C   0  0  0  0  0  0
  -21.4019   -6.5643   23.8207 C   0  0  0  0  0  0
  -21.3666   -5.6786   24.9162 C   0  0  0  0  0  0
  -21.6040   -4.3045   24.7194 C   0  0  0  0  0  0
  -21.8822   -3.8148   23.4313 C   0  0  0  0  0  0
  -21.9181   -4.6978   22.3383 C   0  0  0  0  0  0
  -22.7831  -13.5232   21.1839 C   0  0  0  0  0  0
  -22.1643   -4.2168   21.0961 F   0  0  0  0  0  0
  -21.5637   -3.4524   25.7704 F   0  0  0  0  0  0
  -29.9897  -13.5069   20.4345 N   0  0  0  0  0  0
  -26.2953  -12.9402   20.3284 N   0  0  0  0  0  0
  -25.9326  -11.6538   20.5722 N   0  0  0  0  0  0
  -22.0487  -12.8228   22.0412 N   0  0  0  0  0  0
  -25.4325  -15.1911   20.4116 N   0  0  0  0  0  0
  -31.7416  -14.8834   20.0595 O   0  0  0  0  0  0
  -21.6605   -6.8905   21.4227 O   0  0  0  0  0  0
  -22.3525  -14.5549   20.6702 O   0  0  0  0  0  0
  -24.6360  -31.8511   23.1957 C   0  0  0  0  0  0
  -25.9180  -32.4720   23.8310 C   0  0  1  0  0  0
  -27.2200  -27.2427   20.1229 C   0  0  0  0  0  0
  -25.5977  -33.8527   24.2246 N   0  0  0  0  0  0
  -23.4333  -30.4747   21.5374 C   0  0  2  0  0  0
  -24.8778  -28.9146   20.1068 C   0  0  0  0  0  0
  -22.7517  -29.4596   22.4881 C   0  0  0  0  0  0
  -18.0283  -28.1410   22.8487 C   0  0  0  0  0  0
  -24.1486  -36.7260   23.2646 C   0  0  0  0  0  0
  -25.9798  -30.7573   21.3772 C   0  0  0  0  0  0
  -26.0479  -29.3787   20.7180 C   0  0  0  0  0  0
  -27.2187  -28.5535   20.7158 C   0  0  0  0  0  0
  -26.0207  -26.8400   19.4966 C   0  0  0  0  0  0
  -24.8692  -27.6549   19.4868 C   0  0  0  0  0  0
  -23.6521  -29.8071   20.1537 C   0  0  0  0  0  0
  -25.4105  -36.3036   24.0336 C   0  0  1  0  0  0
  -20.5898  -28.3715   23.1264 C   0  0  2  0  0  0
  -20.6773  -26.9432   22.5406 C   0  0  0  0  0  0
  -19.5749  -26.6390   21.5222 C   0  0  0  0  0  0
  -18.1922  -26.7953   22.1620 C   0  0  0  0  0  0
  -19.1539  -28.8877   23.2876 C   0  0  0  0  0  0
  -18.9458  -30.1479   23.8901 C   0  0  0  0  0  0
  -17.6459  -30.6615   24.0559 C   0  0  0  0  0  0
  -25.9061  -34.9420   23.5081 C   0  0  0  0  0  0
  -16.5353  -29.9108   23.6346 C   0  0  0  0  0  0
  -16.7265  -28.6522   23.0370 C   0  0  0  0  0  0
  -26.4550  -31.6562   25.0717 C   0  0  0  0  0  0
  -25.3770  -31.3736   26.1436 C   0  0  0  0  0  0
  -27.0433  -30.2982   24.6245 C   0  0  0  0  0  0
  -27.6097  -32.4320   25.7492 C   0  0  0  0  0  0
  -27.5576  -37.1777   24.8466 C   0  0  0  0  0  0
  -21.4215  -29.3058   22.3647 N   0  0  0  0  0  0
  -26.4270  -37.3746   23.9425 N   0  0  0  0  0  0
  -24.7024  -31.0475   22.0930 N   0  0  0  0  0  0
  -23.4203  -28.8124   23.2982 O   0  0  0  0  0  0
  -28.3327  -26.3724   20.2083 O   0  0  0  0  0  0
  -26.5608  -34.8909   22.4633 O   0  0  0  0  0  0
  -23.5511  -32.1324   23.7264 O   0  0  0  0  0  0
  -28.8767  -19.4140   18.4459 C   0  0  0  0  0  0
  -29.3502  -17.0157   18.6617 C   0  0  0  0  0  0
  -29.4497  -18.4735   20.6120 C   0  0  0  0  0  0
  -28.9713  -18.1233   17.8689 C   0  0  0  0  0  0
  -29.1036  -19.6597   19.8210 C   0  0  0  0  0  0
  -29.5936  -17.1328   20.0449 C   0  0  0  0  0  0
  -29.3239  -21.6490   21.4412 C   0  0  0  0  0  0
  -28.6578  -17.8943   16.4262 C   0  0  0  0  0  0
  -29.1641  -23.1938   21.4650 C   0  0  0  0  0  0
  -28.4759  -22.2407   19.4123 C   0  0  0  0  0  0
  -28.2571  -23.5633   20.2783 C   0  0  2  0  0  0
  -28.1132  -19.0648   15.6128 C   0  0  0  0  0  0
  -28.4359  -25.0168   19.5560 C   0  0  0  0  0  0
  -28.9463  -21.0889   20.2711 N   0  0  0  0  0  0
  -29.8072  -15.8624   20.7895 N   0  0  0  0  0  0
  -29.7561  -21.0375   22.4215 O   0  0  0  0  0  0
  -28.7961  -16.8025   15.8679 O   0  0  0  0  0  0
  -31.4788  -12.5839   19.1925 H   0  0  0  0  0  0
  -30.3883  -11.4725   19.9621 H   0  0  0  0  0  0
  -29.7995  -11.7490   17.5260 H   0  0  0  0  0  0
  -29.6474  -13.4750   17.7381 H   0  0  0  0  0  0
  -27.8810  -11.2954   18.8900 H   0  0  0  0  0  0
  -27.3919  -12.5633   17.7978 H   0  0  0  0  0  0
  -27.6500  -14.2581   19.4894 H   0  0  0  0  0  0
  -28.7223  -12.1342   21.4134 H   0  0  0  0  0  0
  -28.4149  -13.7999   21.8258 H   0  0  0  0  0  0
  -25.2759   -9.5684   22.4705 H   0  0  0  0  0  0
  -23.9964   -7.4663   22.7436 H   0  0  0  0  0  0
  -21.0828   -8.8796   19.8932 H   0  0  0  0  0  0
  -22.3679  -10.9676   19.6113 H   0  0  0  0  0  0
  -21.2016   -7.6154   23.9723 H   0  0  0  0  0  0
  -21.1486   -6.0502   25.9071 H   0  0  0  0  0  0
  -22.0598   -2.7612   23.2782 H   0  0  0  0  0  0
  -22.4081  -11.9851   22.4755 H   0  0  0  0  0  0
  -21.1120  -13.1271   22.2647 H   0  0  0  0  0  0
  -24.6844  -15.8640   20.5353 H   0  0  0  0  0  0
  -26.3029  -15.6183   20.1209 H   0  0  0  0  0  0
  -26.7246  -32.5364   23.1050 H   0  0  0  0  0  0
  -25.0202  -33.9645   25.0450 H   0  0  0  0  0  0
  -22.7329  -31.2995   21.3885 H   0  0  0  0  0  0
  -23.3754  -35.9588   23.3265 H   0  0  0  0  0  0
  -24.3597  -36.8918   22.2067 H   0  0  0  0  0  0
  -23.7229  -37.6449   23.6685 H   0  0  0  0  0  0
  -26.1258  -31.5164   20.6076 H   0  0  0  0  0  0
  -26.8564  -30.8034   22.0127 H   0  0  0  0  0  0
  -28.1152  -28.9022   21.2098 H   0  0  0  0  0  0
  -25.9311  -25.8659   19.0427 H   0  0  0  0  0  0
  -23.9682  -27.2908   19.0111 H   0  0  0  0  0  0
  -23.7856  -30.5815   19.3974 H   0  0  0  0  0  0
  -22.7696  -29.2448   19.8446 H   0  0  0  0  0  0
  -25.1292  -36.1859   25.0827 H   0  0  0  0  0  0
  -20.9991  -28.3279   24.1387 H   0  0  0  0  0  0
  -20.5676  -26.2330   23.3612 H   0  0  0  0  0  0
  -21.6637  -26.7462   22.1193 H   0  0  0  0  0  0
  -19.6901  -25.6287   21.1284 H   0  0  0  0  0  0
  -19.6693  -27.3175   20.6735 H   0  0  0  0  0  0
  -17.4200  -26.6719   21.4008 H   0  0  0  0  0  0
  -18.0295  -26.0097   22.9012 H   0  0  0  0  0  0
  -19.7935  -30.7293   24.2273 H   0  0  0  0  0  0
  -17.5018  -31.6306   24.5132 H   0  0  0  0  0  0
  -15.5349  -30.3014   23.7686 H   0  0  0  0  0  0
  -15.8653  -28.0847   22.7102 H   0  0  0  0  0  0
  -24.5940  -30.7089   25.7768 H   0  0  0  0  0  0
  -24.8976  -32.2917   26.4837 H   0  0  0  0  0  0
  -25.8083  -30.8926   27.0221 H   0  0  0  0  0  0
  -26.3048  -29.6675   24.1283 H   0  0  0  0  0  0
  -27.4126  -29.7302   25.4791 H   0  0  0  0  0  0
  -27.8907  -30.4255   23.9507 H   0  0  0  0  0  0
  -27.2702  -33.3626   26.2046 H   0  0  0  0  0  0
  -28.3922  -32.6860   25.0332 H   0  0  0  0  0  0
  -28.0748  -31.8460   26.5426 H   0  0  0  0  0  0
  -28.2561  -38.0107   24.7546 H   0  0  0  0  0  0
  -28.1102  -36.2639   24.6231 H   0  0  0  0  0  0
  -27.2316  -37.1351   25.8876 H   0  0  0  0  0  0
  -20.9397  -29.8802   21.6876 H   0  0  0  0  0  0
  -26.0136  -38.2816   24.1432 H   0  0  0  0  0  0
  -28.6135  -20.2454   17.8105 H   0  0  0  0  0  0
  -29.3987  -16.0391   18.1969 H   0  0  0  0  0  0
  -29.6012  -18.5863   21.6756 H   0  0  0  0  0  0
  -30.1498  -23.6470   21.3557 H   0  0  0  0  0  0
  -28.7406  -23.5291   22.4125 H   0  0  0  0  0  0
  -29.2366  -22.4229   18.6519 H   0  0  0  0  0  0
  -27.5562  -21.9803   18.8875 H   0  0  0  0  0  0
  -27.2322  -23.5308   20.6488 H   0  0  0  0  0  0
  -27.1884  -19.4358   16.0535 H   0  0  0  0  0  0
  -27.8981  -18.7521   14.5909 H   0  0  0  0  0  0
  -28.8398  -19.8752   15.5757 H   0  0  0  0  0  0
  -27.8277  -25.0099   18.6536 H   0  0  0  0  0  0
  -29.4497  -25.0092   19.1550 H   0  0  0  0  0  0
  -29.0387  -15.6268   21.4002 H   0  0  0  0  0  0
  1 25  1  0  0  0
  1 30  2  0  0  0
  1 85  1  0  0  0
  2  3  1  0  0  0
  2 25  1  0  0  0
  2 88  1  0  0  0
  2 89  1  0  0  0
  3  4  1  0  0  0
  3 90  1  0  0  0
  3 91  1  0  0  0
  4  5  1  0  0  0
  4 92  1  0  0  0
  4 93  1  0  0  0
  5  6  1  0  0  0
  5 26  1  0  0  0
  5 94  1  0  0  0
  6 25  1  0  0  0
  6 95  1  0  0  0
  6 96  1  0  0  0
  7  8  2  0  0  0
  7 26  1  0  0  0
  7 29  1  0  0  0
  8  9  1  0  0  0
  8 22  1  0  0  0
  9 10  1  0  0  0
  9 27  2  0  0  0
 10 11  2  0  0  0
 10 15  1  0  0  0
 11 12  1  0  0  0
 11 97  1  0  0  0
 12 13  2  0  0  0
 12 98  1  0  0  0
 13 14  1  0  0  0
 13 31  1  0  0  0
 14 15  2  0  0  0
 14 99  1  0  0  0
 15100  1  0  0  0
 16 17  2  0  0  0
 16 21  1  0  0  0
 16 31  1  0  0  0
 17 18  1  0  0  0
 17101  1  0  0  0
 18 19  2  0  0  0
 18102  1  0  0  0
 19 20  1  0  0  0
 19 24  1  0  0  0
 20 21  2  0  0  0
 20103  1  0  0  0
 21 23  1  0  0  0
 22 28  1  0  0  0
 22 32  2  0  0  0
 26 27  1  0  0  0
 28104  1  0  0  0
 28105  1  0  0  0
 29106  1  0  0  0
 29107  1  0  0  0
 33 34  1  0  0  0
 33 66  1  0  0  0
 33 70  2  0  0  0
 34 36  1  0  0  0
 34 59  1  0  0  0
 34108  1  0  0  0
 35 44  2  0  0  0
 35 45  1  0  0  0
 35 68  1  0  0  0
 36 56  1  0  0  0
 36109  1  0  0  0
 37 39  1  0  0  0
 37 47  1  0  0  0
 37 66  1  0  0  0
 37110  1  0  0  0
 38 43  2  0  0  0
 38 46  1  0  0  0
 38 47  1  0  0  0
 39 64  1  0  0  0
 39 67  2  0  0  0
 40 52  1  0  0  0
 40 53  2  0  0  0
 40 58  1  0  0  0
 41111  1  0  0  0
 41112  1  0  0  0
 41113  1  0  0  0
 41 48  1  0  0  0
 42 43  1  0  0  0
 42 66  1  0  0  0
 42114  1  0  0  0
 42115  1  0  0  0
 43 44  1  0  0  0
 44116  1  0  0  0
 45 46  2  0  0  0
 45117  1  0  0  0
 46118  1  0  0  0
 47119  1  0  0  0
 47120  1  0  0  0
 48 56  1  0  0  0
 48 65  1  0  0  0
 48121  1  0  0  0
 49 50  1  0  0  0
 49 53  1  0  0  0
 49 64  1  0  0  0
 49122  1  0  0  0
 50 51  1  0  0  0
 50123  1  0  0  0
 50124  1  0  0  0
 51 52  1  0  0  0
 51125  1  0  0  0
 51126  1  0  0  0
 52127  1  0  0  0
 52128  1  0  0  0
 53 54  1  0  0  0
 54 55  2  0  0  0
 54129  1  0  0  0
 55 57  1  0  0  0
 55130  1  0  0  0
 56 69  2  0  0  0
 57 58  2  0  0  0
 57131  1  0  0  0
 58132  1  0  0  0
 59 60  1  0  0  0
 59 61  1  0  0  0
 59 62  1  0  0  0
 60133  1  0  0  0
 60134  1  0  0  0
 60135  1  0  0  0
 61136  1  0  0  0
 61137  1  0  0  0
 61138  1  0  0  0
 62139  1  0  0  0
 62140  1  0  0  0
 62141  1  0  0  0
 63 65  1  0  0  0
 63142  1  0  0  0
 63143  1  0  0  0
 63144  1  0  0  0
 64145  1  0  0  0
 65146  1  0  0  0
 68 83  1  0  0  0
 71 74  2  0  0  0
 71 75  1  0  0  0
 71147  1  0  0  0
 72 74  1  0  0  0
 72 76  2  0  0  0
 72148  1  0  0  0
 73 75  2  0  0  0
 73 76  1  0  0  0
 73149  1  0  0  0
 74 78  1  0  0  0
 75 84  1  0  0  0
 76 85  1  0  0  0
 77 79  1  0  0  0
 77 84  1  0  0  0
 77 86  2  0  0  0
 78 82  1  0  0  0
 78 87  2  0  0  0
 79 81  1  0  0  0
 79150  1  0  0  0
 79151  1  0  0  0
 80 81  1  0  0  0
 80 84  1  0  0  0
 80152  1  0  0  0
 80153  1  0  0  0
 81 83  1  0  0  0
 81154  1  0  0  0
 82155  1  0  0  0
 82156  1  0  0  0
 82157  1  0  0  0
 83158  1  0  0  0
 83159  1  0  0  0
 85160  1  0  0  0
M  ISO  4   1 100  68 101  83 101  85 100
M  END
> <chiral flag>
0

> <version>
0

> <s_m_source_file>
/data/baiqing/PycharmProjects/Reinvent-master-3.2/result/LINK_invent/BTK/process_docking_weight1_custom_product_contain_oxygen_bond_distance_aromatic_linkinvent_7_9_3/rearranged_h_0063.sdf

> <i_m_source_file_index>
63

> <r_mmod_Potential_Energy-OPLS-2005>
251.590179443359

> <r_mmod_Stretch_Energy-OPLS-2005>
133.616485595703

> <r_mmod_Bend_Energy-OPLS-2005>
216.498611450195

> <r_mmod_Torsional_Energy-OPLS-2005>
306.560363769531

> <r_mmod_Improper_Torsional_Energy-OPLS-2005>
5.4867115020752

> <r_mmod_Van_der_Waal_Energy-OPLS-2005>
134.95166015625

> <r_mmod_Electrostatic_Energy-OPLS-2005>
-391.526489257812

> <r_mmod_Solvation_Energy-OPLS-2005>
-244.75390625

> <b_mmod_Minimization_Converged-OPLS-2005>
0

> <r_mmod_RMS_Derivative-OPLS-2005>
2.23101496696472

$$$$
64
                    3D
 Structure written by MMmdl.
152160  0  0  1  0            999 V2000
  -30.5866  -14.8012   20.4631 C   0  0  0  0  0  0
  -30.4351  -12.4975   19.4688 C   0  0  0  0  0  0
  -29.5099  -12.5192   18.2323 C   0  0  0  0  0  0
  -28.0358  -12.3369   18.6453 C   0  0  0  0  0  0
  -27.6362  -13.2357   19.8454 C   0  0  2  0  0  0
  -28.6820  -13.1892   20.9787 C   0  0  0  0  0  0
  -25.2479  -13.8200   20.5679 C   0  0  0  0  0  0
  -24.1785  -13.0437   20.9214 C   0  0  0  0  0  0
  -24.6385  -11.6915   20.8754 C   0  0  0  0  0  0
  -23.9070  -10.4292   21.0413 C   0  0  0  0  0  0
  -24.3625   -9.4208   21.9187 C   0  0  0  0  0  0
  -23.6303   -8.2243   22.0758 C   0  0  0  0  0  0
  -22.4288   -8.0281   21.3547 C   0  0  0  0  0  0
  -21.9915   -9.0255   20.4655 C   0  0  0  0  0  0
  -22.7240  -10.2133   20.3063 C   0  0  0  0  0  0
  -21.6850   -6.0738   22.5281 C   0  0  0  0  0  0
  -21.4018   -6.5644   23.8216 C   0  0  0  0  0  0
  -21.3654   -5.6801   24.9181 C   0  0  0  0  0  0
  -21.6038   -4.3063   24.7231 C   0  0  0  0  0  0
  -21.8817   -3.8152   23.4355 C   0  0  0  0  0  0
  -21.9199   -4.6969   22.3409 C   0  0  0  0  0  0
  -22.7805  -13.5213   21.1876 C   0  0  0  0  0  0
  -22.1662   -4.2155   21.0985 F   0  0  0  0  0  0
  -21.5625   -3.4544   25.7742 F   0  0  0  0  0  0
  -29.9703  -13.5667   20.3864 N   0  0  0  0  0  0
  -26.2910  -12.9407   20.3260 N   0  0  0  0  0  0
  -25.9317  -11.6549   20.5752 N   0  0  0  0  0  0
  -22.0460  -12.8202   22.0441 N   0  0  0  0  0  0
  -25.4142  -15.1920   20.4042 N   0  0  0  0  0  0
  -31.7879  -14.8781   20.1874 O   0  0  0  0  0  0
  -21.6644   -6.8879   21.4244 O   0  0  0  0  0  0
  -22.3491  -14.5523   20.6728 O   0  0  0  0  0  0
  -24.6361  -31.8506   23.1951 C   0  0  0  0  0  0
  -25.9161  -32.4746   23.8302 C   0  0  1  0  0  0
  -27.2201  -27.2143   20.1481 C   0  0  0  0  0  0
  -25.5933  -33.8543   24.2232 N   0  0  0  0  0  0
  -23.4369  -30.4689   21.5402 C   0  0  2  0  0  0
  -24.8843  -28.9002   20.1200 C   0  0  0  0  0  0
  -22.7532  -29.4560   22.4911 C   0  0  0  0  0  0
  -18.0288  -28.1394   22.8489 C   0  0  0  0  0  0
  -24.1480  -36.7262   23.2647 C   0  0  0  0  0  0
  -25.9863  -30.7492   21.3798 C   0  0  0  0  0  0
  -26.0584  -29.3626   20.7305 C   0  0  0  0  0  0
  -27.2329  -28.5339   20.7281 C   0  0  0  0  0  0
  -26.0246  -26.8241   19.5154 C   0  0  0  0  0  0
  -24.8741  -27.6402   19.4997 C   0  0  0  0  0  0
  -23.6596  -29.7971   20.1591 C   0  0  0  0  0  0
  -25.4117  -36.3070   24.0331 C   0  0  1  0  0  0
  -20.5903  -28.3694   23.1283 C   0  0  2  0  0  0
  -20.6778  -26.9408   22.5422 C   0  0  0  0  0  0
  -19.5743  -26.6383   21.5236 C   0  0  0  0  0  0
  -18.1926  -26.7936   22.1646 C   0  0  0  0  0  0
  -19.1545  -28.8872   23.2874 C   0  0  0  0  0  0
  -18.9457  -30.1476   23.8879 C   0  0  0  0  0  0
  -17.6454  -30.6598   24.0565 C   0  0  0  0  0  0
  -25.9056  -34.9436   23.5091 C   0  0  0  0  0  0
  -16.5347  -29.9087   23.6342 C   0  0  0  0  0  0
  -16.7273  -28.6511   23.0364 C   0  0  0  0  0  0
  -26.4506  -31.6592   25.0719 C   0  0  0  0  0  0
  -25.3715  -31.3763   26.1440 C   0  0  0  0  0  0
  -27.0347  -30.3002   24.6232 C   0  0  0  0  0  0
  -27.6066  -32.4332   25.7484 C   0  0  0  0  0  0
  -27.5569  -37.1798   24.8476 C   0  0  0  0  0  0
  -21.4238  -29.3036   22.3670 N   0  0  0  0  0  0
  -26.4289  -37.3766   23.9415 N   0  0  0  0  0  0
  -24.7061  -31.0424   22.0940 N   0  0  0  0  0  0
  -23.4214  -28.8111   23.3044 O   0  0  0  0  0  0
  -28.3097  -26.3059   20.0965 O   0  0  0  0  0  0
  -26.5633  -34.8919   22.4658 O   0  0  0  0  0  0
  -23.5503  -32.1330   23.7225 O   0  0  0  0  0  0
  -30.9322  -20.1157   21.4446 C   0  0  0  0  0  0
  -31.3366  -17.6865   21.5081 C   0  0  0  0  0  0
  -29.3521  -18.5793   20.4176 C   0  0  0  0  0  0
  -31.7221  -19.0066   21.8244 C   0  0  0  0  0  0
  -29.7254  -19.9701   20.7219 C   0  0  0  0  0  0
  -30.1479  -17.4004   20.8024 C   0  0  0  0  0  0
  -28.7524  -23.7700   20.1433 C   0  0  0  0  0  0
  -28.2523  -24.9783   20.6534 C   0  0  0  0  0  0
  -28.8756  -22.4606   20.9162 C   0  0  0  0  0  0
  -33.0259  -19.2287   22.5697 C   0  0  0  0  0  0
  -29.0592  -21.2396   20.2514 N   0  0  0  0  0  0
  -29.7945  -15.9535   20.5881 N   0  0  0  0  0  0
  -28.8331  -22.4565   22.1492 O   0  0  0  0  0  0
  -31.4712  -12.6409   19.1573 H   0  0  0  0  0  0
  -30.4027  -11.5249   19.9628 H   0  0  0  0  0  0
  -29.7998  -11.7391   17.5271 H   0  0  0  0  0  0
  -29.6277  -13.4676   17.7055 H   0  0  0  0  0  0
  -27.8924  -11.2871   18.9035 H   0  0  0  0  0  0
  -27.3804  -12.5348   17.7960 H   0  0  0  0  0  0
  -27.6222  -14.2543   19.4581 H   0  0  0  0  0  0
  -28.7351  -12.1934   21.4229 H   0  0  0  0  0  0
  -28.4092  -13.8736   21.7840 H   0  0  0  0  0  0
  -25.2765   -9.5688   22.4760 H   0  0  0  0  0  0
  -24.0018   -7.4632   22.7471 H   0  0  0  0  0  0
  -21.0845   -8.8765   19.8962 H   0  0  0  0  0  0
  -22.3688  -10.9672   19.6176 H   0  0  0  0  0  0
  -21.2003   -7.6148   23.9719 H   0  0  0  0  0  0
  -21.1471   -6.0530   25.9084 H   0  0  0  0  0  0
  -22.0596   -2.7614   23.2853 H   0  0  0  0  0  0
  -22.4089  -11.9867   22.4827 H   0  0  0  0  0  0
  -21.1084  -13.1228   22.2663 H   0  0  0  0  0  0
  -24.6372  -15.8386   20.4919 H   0  0  0  0  0  0
  -26.2481  -15.6274   20.0328 H   0  0  0  0  0  0
  -26.7229  -32.5385   23.1035 H   0  0  0  0  0  0
  -25.0098  -33.9645   25.0398 H   0  0  0  0  0  0
  -22.7366  -31.2935   21.3911 H   0  0  0  0  0  0
  -23.3752  -35.9585   23.3346 H   0  0  0  0  0  0
  -24.3555  -36.8841   22.2053 H   0  0  0  0  0  0
  -23.7225  -37.6471   23.6643 H   0  0  0  0  0  0
  -26.1298  -31.5039   20.6051 H   0  0  0  0  0  0
  -26.8615  -30.8028   22.0158 H   0  0  0  0  0  0
  -28.1404  -28.8910   21.1957 H   0  0  0  0  0  0
  -25.9794  -25.8609   19.0291 H   0  0  0  0  0  0
  -23.9765  -27.2813   19.0150 H   0  0  0  0  0  0
  -23.7930  -30.5703   19.4010 H   0  0  0  0  0  0
  -22.7775  -29.2327   19.8525 H   0  0  0  0  0  0
  -25.1308  -36.1909   25.0825 H   0  0  0  0  0  0
  -20.9970  -28.3246   24.1415 H   0  0  0  0  0  0
  -20.5685  -26.2294   23.3618 H   0  0  0  0  0  0
  -21.6648  -26.7422   22.1225 H   0  0  0  0  0  0
  -19.6884  -25.6288   21.1274 H   0  0  0  0  0  0
  -19.6692  -27.3194   20.6765 H   0  0  0  0  0  0
  -17.4207  -26.6700   21.4035 H   0  0  0  0  0  0
  -18.0304  -26.0079   22.9037 H   0  0  0  0  0  0
  -19.7923  -30.7321   24.2228 H   0  0  0  0  0  0
  -17.5000  -31.6272   24.5176 H   0  0  0  0  0  0
  -15.5345  -30.2990   23.7680 H   0  0  0  0  0  0
  -15.8672  -28.0831   22.7078 H   0  0  0  0  0  0
  -24.5886  -30.7106   25.7782 H   0  0  0  0  0  0
  -24.8906  -32.2939   26.4832 H   0  0  0  0  0  0
  -25.8018  -30.8960   27.0235 H   0  0  0  0  0  0
  -26.2918  -29.6769   24.1239 H   0  0  0  0  0  0
  -27.4000  -29.7266   25.4763 H   0  0  0  0  0  0
  -27.8822  -30.4297   23.9499 H   0  0  0  0  0  0
  -27.2687  -33.3665   26.2001 H   0  0  0  0  0  0
  -28.3894  -32.6826   25.0308 H   0  0  0  0  0  0
  -28.0714  -31.8488   26.5439 H   0  0  0  0  0  0
  -28.2634  -38.0053   24.7495 H   0  0  0  0  0  0
  -28.1011  -36.2585   24.6341 H   0  0  0  0  0  0
  -27.2280  -37.1510   25.8879 H   0  0  0  0  0  0
  -20.9436  -29.8750   21.6852 H   0  0  0  0  0  0
  -26.0167  -38.2835   24.1407 H   0  0  0  0  0  0
  -31.2894  -21.1074   21.6859 H   0  0  0  0  0  0
  -31.9772  -16.8792   21.8360 H   0  0  0  0  0  0
  -28.4355  -18.4134   19.8694 H   0  0  0  0  0  0
  -29.1584  -23.7816   19.1417 H   0  0  0  0  0  0
  -27.8011  -25.0055   21.6367 H   0  0  0  0  0  0
  -33.0366  -20.1918   23.0804 H   0  0  0  0  0  0
  -33.8677  -19.2013   21.8769 H   0  0  0  0  0  0
  -33.1821  -18.4521   23.3193 H   0  0  0  0  0  0
  -28.8065  -21.2503   19.2726 H   0  0  0  0  0  0
  -28.8057  -15.7600   20.5724 H   0  0  0  0  0  0
  1 25  1  0  0  0
  1 30  2  0  0  0
  1 82  1  0  0  0
  2  3  1  0  0  0
  2 25  1  0  0  0
  2 84  1  0  0  0
  2 85  1  0  0  0
  3  4  1  0  0  0
  3 86  1  0  0  0
  3 87  1  0  0  0
  4  5  1  0  0  0
  4 88  1  0  0  0
  4 89  1  0  0  0
  5  6  1  0  0  0
  5 26  1  0  0  0
  5 90  1  0  0  0
  6 25  1  0  0  0
  6 91  1  0  0  0
  6 92  1  0  0  0
  7  8  2  0  0  0
  7 26  1  0  0  0
  7 29  1  0  0  0
  8  9  1  0  0  0
  8 22  1  0  0  0
  9 10  1  0  0  0
  9 27  2  0  0  0
 10 11  2  0  0  0
 10 15  1  0  0  0
 11 12  1  0  0  0
 11 93  1  0  0  0
 12 13  2  0  0  0
 12 94  1  0  0  0
 13 14  1  0  0  0
 13 31  1  0  0  0
 14 15  2  0  0  0
 14 95  1  0  0  0
 15 96  1  0  0  0
 16 17  2  0  0  0
 16 21  1  0  0  0
 16 31  1  0  0  0
 17 18  1  0  0  0
 17 97  1  0  0  0
 18 19  2  0  0  0
 18 98  1  0  0  0
 19 20  1  0  0  0
 19 24  1  0  0  0
 20 21  2  0  0  0
 20 99  1  0  0  0
 21 23  1  0  0  0
 22 28  1  0  0  0
 22 32  2  0  0  0
 26 27  1  0  0  0
 28100  1  0  0  0
 28101  1  0  0  0
 29102  1  0  0  0
 29103  1  0  0  0
 33 34  1  0  0  0
 33 66  1  0  0  0
 33 70  2  0  0  0
 34 36  1  0  0  0
 34 59  1  0  0  0
 34104  1  0  0  0
 35 44  2  0  0  0
 35 45  1  0  0  0
 35 68  1  0  0  0
 36 56  1  0  0  0
 36105  1  0  0  0
 37 39  1  0  0  0
 37 47  1  0  0  0
 37 66  1  0  0  0
 37106  1  0  0  0
 38 43  2  0  0  0
 38 46  1  0  0  0
 38 47  1  0  0  0
 39 64  1  0  0  0
 39 67  2  0  0  0
 40 52  1  0  0  0
 40 53  2  0  0  0
 40 58  1  0  0  0
 41107  1  0  0  0
 41108  1  0  0  0
 41109  1  0  0  0
 41 48  1  0  0  0
 42 43  1  0  0  0
 42 66  1  0  0  0
 42110  1  0  0  0
 42111  1  0  0  0
 43 44  1  0  0  0
 44112  1  0  0  0
 45 46  2  0  0  0
 45113  1  0  0  0
 46114  1  0  0  0
 47115  1  0  0  0
 47116  1  0  0  0
 48 56  1  0  0  0
 48 65  1  0  0  0
 48117  1  0  0  0
 49 50  1  0  0  0
 49 53  1  0  0  0
 49 64  1  0  0  0
 49118  1  0  0  0
 50 51  1  0  0  0
 50119  1  0  0  0
 50120  1  0  0  0
 51 52  1  0  0  0
 51121  1  0  0  0
 51122  1  0  0  0
 52123  1  0  0  0
 52124  1  0  0  0
 53 54  1  0  0  0
 54 55  2  0  0  0
 54125  1  0  0  0
 55 57  1  0  0  0
 55126  1  0  0  0
 56 69  2  0  0  0
 57 58  2  0  0  0
 57127  1  0  0  0
 58128  1  0  0  0
 59 60  1  0  0  0
 59 61  1  0  0  0
 59 62  1  0  0  0
 60129  1  0  0  0
 60130  1  0  0  0
 60131  1  0  0  0
 61132  1  0  0  0
 61133  1  0  0  0
 61134  1  0  0  0
 62135  1  0  0  0
 62136  1  0  0  0
 62137  1  0  0  0
 63 65  1  0  0  0
 63138  1  0  0  0
 63139  1  0  0  0
 63140  1  0  0  0
 64141  1  0  0  0
 65142  1  0  0  0
 68 78  1  0  0  0
 71 74  2  0  0  0
 71 75  1  0  0  0
 71143  1  0  0  0
 72 74  1  0  0  0
 72 76  2  0  0  0
 72144  1  0  0  0
 73 75  2  0  0  0
 73 76  1  0  0  0
 73145  1  0  0  0
 74 80  1  0  0  0
 75 81  1  0  0  0
 76 82  1  0  0  0
 77 78  2  0  0  0
 77 79  1  0  0  0
 77146  1  0  0  0
 78147  1  0  0  0
 79 81  1  0  0  0
 79 83  2  0  0  0
 80148  1  0  0  0
 80149  1  0  0  0
 80150  1  0  0  0
 81151  1  0  0  0
 82152  1  0  0  0
M  ISO  4   1 100  68 101  78 101  82 100
M  END
> <chiral flag>
0

> <version>
0

> <s_m_source_file>
/data/baiqing/PycharmProjects/Reinvent-master-3.2/result/LINK_invent/BTK/process_docking_weight1_custom_product_contain_oxygen_bond_distance_aromatic_linkinvent_7_9_3/rearranged_h_0063.sdf

> <i_m_source_file_index>
64

> <r_mmod_Potential_Energy-OPLS-2005>
232.738143920898

> <r_mmod_Stretch_Energy-OPLS-2005>
152.820343017578

> <r_mmod_Bend_Energy-OPLS-2005>
169.284927368164

> <r_mmod_Torsional_Energy-OPLS-2005>
266.353118896484

> <r_mmod_Improper_Torsional_Energy-OPLS-2005>
8.34169101715088

> <r_mmod_Van_der_Waal_Energy-OPLS-2005>
133.352188110352

> <r_mmod_Electrostatic_Energy-OPLS-2005>
-376.928863525391

> <r_mmod_Solvation_Energy-OPLS-2005>
-230.639373779297

> <b_mmod_Minimization_Converged-OPLS-2005>
0

> <r_mmod_RMS_Derivative-OPLS-2005>
2.33498764038086

$$$$
65
                    3D
 Structure written by MMmdl.
149157  0  0  1  0            999 V2000
  -30.5862  -14.8183   20.4588 C   0  0  0  0  0  0
  -30.4334  -12.5086   19.4743 C   0  0  0  0  0  0
  -29.5122  -12.5174   18.2351 C   0  0  0  0  0  0
  -28.0413  -12.3214   18.6509 C   0  0  0  0  0  0
  -27.6327  -13.2334   19.8384 C   0  0  2  0  0  0
  -28.6766  -13.2092   20.9743 C   0  0  0  0  0  0
  -25.2471  -13.8183   20.5668 C   0  0  0  0  0  0
  -24.1776  -13.0426   20.9208 C   0  0  0  0  0  0
  -24.6371  -11.6905   20.8739 C   0  0  0  0  0  0
  -23.9053  -10.4283   21.0398 C   0  0  0  0  0  0
  -24.3604   -9.4207   21.9177 C   0  0  0  0  0  0
  -23.6289   -8.2240   22.0754 C   0  0  0  0  0  0
  -22.4276   -8.0267   21.3543 C   0  0  0  0  0  0
  -21.9898   -9.0238   20.4644 C   0  0  0  0  0  0
  -22.7218  -10.2121   20.3048 C   0  0  0  0  0  0
  -21.6853   -6.0721   22.5279 C   0  0  0  0  0  0
  -21.4012   -6.5632   23.8209 C   0  0  0  0  0  0
  -21.3660   -5.6796   24.9177 C   0  0  0  0  0  0
  -21.6042   -4.3058   24.7233 C   0  0  0  0  0  0
  -21.8822   -3.8140   23.4358 C   0  0  0  0  0  0
  -21.9195   -4.6950   22.3408 C   0  0  0  0  0  0
  -22.7801  -13.5203   21.1878 C   0  0  0  0  0  0
  -22.1665   -4.2134   21.0989 F   0  0  0  0  0  0
  -21.5628   -3.4541   25.7745 F   0  0  0  0  0  0
  -29.9663  -13.5849   20.3826 N   0  0  0  0  0  0
  -26.2886  -12.9387   20.3218 N   0  0  0  0  0  0
  -25.9294  -11.6530   20.5708 N   0  0  0  0  0  0
  -22.0456  -12.8192   22.0437 N   0  0  0  0  0  0
  -25.4138  -15.1909   20.4076 N   0  0  0  0  0  0
  -31.7897  -14.8906   20.1901 O   0  0  0  0  0  0
  -21.6647   -6.8859   21.4238 O   0  0  0  0  0  0
  -22.3487  -14.5514   20.6731 O   0  0  0  0  0  0
  -24.6359  -31.8519   23.1956 C   0  0  0  0  0  0
  -25.9176  -32.4740   23.8304 C   0  0  1  0  0  0
  -27.2186  -27.2234   20.1396 C   0  0  0  0  0  0
  -25.5955  -33.8536   24.2226 N   0  0  0  0  0  0
  -23.4335  -30.4711   21.5414 C   0  0  2  0  0  0
  -24.8790  -28.9045   20.1181 C   0  0  0  0  0  0
  -22.7509  -29.4576   22.4926 C   0  0  0  0  0  0
  -18.0280  -28.1404   22.8494 C   0  0  0  0  0  0
  -24.1478  -36.7257   23.2642 C   0  0  0  0  0  0
  -25.9813  -30.7507   21.3797 C   0  0  0  0  0  0
  -26.0532  -29.3656   20.7290 C   0  0  0  0  0  0
  -27.2269  -28.5388   20.7259 C   0  0  0  0  0  0
  -26.0223  -26.8330   19.5047 C   0  0  0  0  0  0
  -24.8686  -27.6458   19.4969 C   0  0  0  0  0  0
  -23.6539  -29.8004   20.1598 C   0  0  0  0  0  0
  -25.4116  -36.3045   24.0316 C   0  0  1  0  0  0
  -20.5891  -28.3700   23.1280 C   0  0  2  0  0  0
  -20.6769  -26.9421   22.5413 C   0  0  0  0  0  0
  -19.5739  -26.6391   21.5220 C   0  0  0  0  0  0
  -18.1923  -26.7939   22.1645 C   0  0  0  0  0  0
  -19.1538  -28.8876   23.2872 C   0  0  0  0  0  0
  -18.9457  -30.1479   23.8880 C   0  0  0  0  0  0
  -17.6454  -30.6602   24.0569 C   0  0  0  0  0  0
  -25.9066  -34.9426   23.5069 C   0  0  0  0  0  0
  -16.5347  -29.9097   23.6352 C   0  0  0  0  0  0
  -16.7267  -28.6521   23.0362 C   0  0  0  0  0  0
  -26.4525  -31.6584   25.0716 C   0  0  0  0  0  0
  -25.3736  -31.3793   26.1438 C   0  0  0  0  0  0
  -27.0348  -30.2982   24.6231 C   0  0  0  0  0  0
  -27.6084  -32.4316   25.7483 C   0  0  0  0  0  0
  -27.5561  -37.1797   24.8477 C   0  0  0  0  0  0
  -21.4210  -29.3038   22.3668 N   0  0  0  0  0  0
  -26.4285  -37.3753   23.9403 N   0  0  0  0  0  0
  -24.7031  -31.0436   22.0959 N   0  0  0  0  0  0
  -23.4183  -28.8117   23.3044 O   0  0  0  0  0  0
  -28.3078  -26.3148   20.1028 O   0  0  0  0  0  0
  -26.5621  -34.8916   22.4628 O   0  0  0  0  0  0
  -23.5501  -32.1353   23.7246 O   0  0  0  0  0  0
  -31.3528  -17.7161   21.4706 C   0  0  0  0  0  0
  -31.7541  -19.0412   21.7399 C   0  0  0  0  0  0
  -29.3713  -18.6094   20.3769 C   0  0  0  0  0  0
  -30.1597  -17.4273   20.7724 C   0  0  0  0  0  0
  -29.7667  -20.0041   20.6440 C   0  0  0  0  0  0
  -30.9936  -20.1556   21.3326 C   0  0  0  0  0  0
  -28.8107  -23.7953   20.1297 C   0  0  0  0  0  0
  -28.1928  -24.9646   20.5891 C   0  0  0  0  0  0
  -28.8040  -22.4441   20.8365 C   0  0  0  0  0  0
  -29.1296  -21.2735   20.1446 N   0  0  0  0  0  0
  -29.8002  -15.9783   20.5729 N   0  0  0  0  0  0
  -28.5100  -22.3567   22.0311 O   0  0  0  0  0  0
  -31.4916  -21.3933   21.5721 F   0  0  0  0  0  0
  -31.4702  -12.6511   19.1676 H   0  0  0  0  0  0
  -30.3985  -11.5413   19.9773 H   0  0  0  0  0  0
  -29.8127  -11.7389   17.5326 H   0  0  0  0  0  0
  -29.6193  -13.4647   17.7038 H   0  0  0  0  0  0
  -27.9158  -11.2738   18.9274 H   0  0  0  0  0  0
  -27.3816  -12.4901   17.7987 H   0  0  0  0  0  0
  -27.6120  -14.2455   19.4350 H   0  0  0  0  0  0
  -28.7342  -12.2223   21.4363 H   0  0  0  0  0  0
  -28.3954  -13.9054   21.7662 H   0  0  0  0  0  0
  -25.2746   -9.5702   22.4746 H   0  0  0  0  0  0
  -24.0012   -7.4634   22.7468 H   0  0  0  0  0  0
  -21.0830   -8.8725   19.8952 H   0  0  0  0  0  0
  -22.3649  -10.9646   19.6156 H   0  0  0  0  0  0
  -21.2002   -7.6139   23.9703 H   0  0  0  0  0  0
  -21.1477   -6.0530   25.9080 H   0  0  0  0  0  0
  -22.0596   -2.7600   23.2865 H   0  0  0  0  0  0
  -22.4092  -11.9869   22.4834 H   0  0  0  0  0  0
  -21.1069  -13.1200   22.2638 H   0  0  0  0  0  0
  -24.6363  -15.8357   20.5022 H   0  0  0  0  0  0
  -26.2509  -15.6331   20.0515 H   0  0  0  0  0  0
  -26.7226  -32.5364   23.1025 H   0  0  0  0  0  0
  -25.0145  -33.9652   25.0401 H   0  0  0  0  0  0
  -22.7329  -31.2957   21.3944 H   0  0  0  0  0  0
  -23.3732  -35.9599   23.3347 H   0  0  0  0  0  0
  -24.3560  -36.8835   22.2047 H   0  0  0  0  0  0
  -23.7242  -37.6479   23.6640 H   0  0  0  0  0  0
  -26.1204  -31.5063   20.6052 H   0  0  0  0  0  0
  -26.8591  -30.8043   22.0125 H   0  0  0  0  0  0
  -28.1300  -28.8920   21.2025 H   0  0  0  0  0  0
  -25.9753  -25.8708   19.0149 H   0  0  0  0  0  0
  -23.9696  -27.2858   19.0140 H   0  0  0  0  0  0
  -23.7834  -30.5751   19.4029 H   0  0  0  0  0  0
  -22.7697  -29.2391   19.8551 H   0  0  0  0  0  0
  -25.1303  -36.1883   25.0807 H   0  0  0  0  0  0
  -20.9971  -28.3255   24.1409 H   0  0  0  0  0  0
  -20.5676  -26.2299   23.3607 H   0  0  0  0  0  0
  -21.6632  -26.7440   22.1211 H   0  0  0  0  0  0
  -19.6886  -25.6293   21.1265 H   0  0  0  0  0  0
  -19.6681  -27.3192   20.6742 H   0  0  0  0  0  0
  -17.4191  -26.6682   21.4057 H   0  0  0  0  0  0
  -18.0330  -26.0089   22.9056 H   0  0  0  0  0  0
  -19.7926  -30.7311   24.2231 H   0  0  0  0  0  0
  -17.5009  -31.6277   24.5170 H   0  0  0  0  0  0
  -15.5351  -30.2994   23.7685 H   0  0  0  0  0  0
  -15.8669  -28.0839   22.7078 H   0  0  0  0  0  0
  -24.5835  -30.7230   25.7771 H   0  0  0  0  0  0
  -24.9029  -32.3007   26.4875 H   0  0  0  0  0  0
  -25.8026  -30.8928   27.0202 H   0  0  0  0  0  0
  -26.2922  -29.6745   24.1243 H   0  0  0  0  0  0
  -27.3987  -29.7246   25.4764 H   0  0  0  0  0  0
  -27.8826  -30.4237   23.9493 H   0  0  0  0  0  0
  -27.2713  -33.3666   26.1962 H   0  0  0  0  0  0
  -28.3946  -32.6783   25.0337 H   0  0  0  0  0  0
  -28.0672  -31.8484   26.5472 H   0  0  0  0  0  0
  -28.2622  -38.0052   24.7466 H   0  0  0  0  0  0
  -28.1001  -36.2580   24.6371 H   0  0  0  0  0  0
  -27.2269  -37.1526   25.8880 H   0  0  0  0  0  0
  -20.9393  -29.8787   21.6903 H   0  0  0  0  0  0
  -26.0149  -38.2820   24.1408 H   0  0  0  0  0  0
  -31.9891  -16.9164   21.8237 H   0  0  0  0  0  0
  -32.6844  -19.2108   22.2612 H   0  0  0  0  0  0
  -28.4452  -18.4481   19.8453 H   0  0  0  0  0  0
  -29.4029  -23.8691   19.2294 H   0  0  0  0  0  0
  -27.5610  -24.9355   21.4670 H   0  0  0  0  0  0
  -29.1303  -21.3707   19.1382 H   0  0  0  0  0  0
  -28.8098  -15.7925   20.5396 H   0  0  0  0  0  0
  1 25  1  0  0  0
  1 30  2  0  0  0
  1 81  1  0  0  0
  2  3  1  0  0  0
  2 25  1  0  0  0
  2 84  1  0  0  0
  2 85  1  0  0  0
  3  4  1  0  0  0
  3 86  1  0  0  0
  3 87  1  0  0  0
  4  5  1  0  0  0
  4 88  1  0  0  0
  4 89  1  0  0  0
  5  6  1  0  0  0
  5 26  1  0  0  0
  5 90  1  0  0  0
  6 25  1  0  0  0
  6 91  1  0  0  0
  6 92  1  0  0  0
  7  8  2  0  0  0
  7 26  1  0  0  0
  7 29  1  0  0  0
  8  9  1  0  0  0
  8 22  1  0  0  0
  9 10  1  0  0  0
  9 27  2  0  0  0
 10 11  2  0  0  0
 10 15  1  0  0  0
 11 12  1  0  0  0
 11 93  1  0  0  0
 12 13  2  0  0  0
 12 94  1  0  0  0
 13 14  1  0  0  0
 13 31  1  0  0  0
 14 15  2  0  0  0
 14 95  1  0  0  0
 15 96  1  0  0  0
 16 17  2  0  0  0
 16 21  1  0  0  0
 16 31  1  0  0  0
 17 18  1  0  0  0
 17 97  1  0  0  0
 18 19  2  0  0  0
 18 98  1  0  0  0
 19 20  1  0  0  0
 19 24  1  0  0  0
 20 21  2  0  0  0
 20 99  1  0  0  0
 21 23  1  0  0  0
 22 28  1  0  0  0
 22 32  2  0  0  0
 26 27  1  0  0  0
 28100  1  0  0  0
 28101  1  0  0  0
 29102  1  0  0  0
 29103  1  0  0  0
 33 34  1  0  0  0
 33 66  1  0  0  0
 33 70  2  0  0  0
 34 36  1  0  0  0
 34 59  1  0  0  0
 34104  1  0  0  0
 35 44  2  0  0  0
 35 45  1  0  0  0
 35 68  1  0  0  0
 36 56  1  0  0  0
 36105  1  0  0  0
 37 39  1  0  0  0
 37 47  1  0  0  0
 37 66  1  0  0  0
 37106  1  0  0  0
 38 43  2  0  0  0
 38 46  1  0  0  0
 38 47  1  0  0  0
 39 64  1  0  0  0
 39 67  2  0  0  0
 40 52  1  0  0  0
 40 53  2  0  0  0
 40 58  1  0  0  0
 41107  1  0  0  0
 41108  1  0  0  0
 41109  1  0  0  0
 41 48  1  0  0  0
 42 43  1  0  0  0
 42 66  1  0  0  0
 42110  1  0  0  0
 42111  1  0  0  0
 43 44  1  0  0  0
 44112  1  0  0  0
 45 46  2  0  0  0
 45113  1  0  0  0
 46114  1  0  0  0
 47115  1  0  0  0
 47116  1  0  0  0
 48 56  1  0  0  0
 48 65  1  0  0  0
 48117  1  0  0  0
 49 50  1  0  0  0
 49 53  1  0  0  0
 49 64  1  0  0  0
 49118  1  0  0  0
 50 51  1  0  0  0
 50119  1  0  0  0
 50120  1  0  0  0
 51 52  1  0  0  0
 51121  1  0  0  0
 51122  1  0  0  0
 52123  1  0  0  0
 52124  1  0  0  0
 53 54  1  0  0  0
 54 55  2  0  0  0
 54125  1  0  0  0
 55 57  1  0  0  0
 55126  1  0  0  0
 56 69  2  0  0  0
 57 58  2  0  0  0
 57127  1  0  0  0
 58128  1  0  0  0
 59 60  1  0  0  0
 59 61  1  0  0  0
 59 62  1  0  0  0
 60129  1  0  0  0
 60130  1  0  0  0
 60131  1  0  0  0
 61132  1  0  0  0
 61133  1  0  0  0
 61134  1  0  0  0
 62135  1  0  0  0
 62136  1  0  0  0
 62137  1  0  0  0
 63 65  1  0  0  0
 63138  1  0  0  0
 63139  1  0  0  0
 63140  1  0  0  0
 64141  1  0  0  0
 65142  1  0  0  0
 68 78  1  0  0  0
 71 72  2  0  0  0
 71 74  1  0  0  0
 71143  1  0  0  0
 72 76  1  0  0  0
 72144  1  0  0  0
 73 74  2  0  0  0
 73 75  1  0  0  0
 73145  1  0  0  0
 74 81  1  0  0  0
 75 76  2  0  0  0
 75 80  1  0  0  0
 76 83  1  0  0  0
 77 78  2  0  0  0
 77 79  1  0  0  0
 77146  1  0  0  0
 78147  1  0  0  0
 79 80  1  0  0  0
 79 82  2  0  0  0
 80148  1  0  0  0
 81149  1  0  0  0
M  ISO  4   1 100  68 101  78 101  81 100
M  END
> <chiral flag>
0

> <version>
0

> <s_m_source_file>
/data/baiqing/PycharmProjects/Reinvent-master-3.2/result/LINK_invent/BTK/process_docking_weight1_custom_product_contain_oxygen_bond_distance_aromatic_linkinvent_7_9_3/rearranged_h_0063.sdf

> <i_m_source_file_index>
65

> <r_mmod_Potential_Energy-OPLS-2005>
193.15608215332

> <r_mmod_Stretch_Energy-OPLS-2005>
150.190979003906

> <r_mmod_Bend_Energy-OPLS-2005>
168.341949462891

> <r_mmod_Torsional_Energy-OPLS-2005>
269.395416259766

> <r_mmod_Improper_Torsional_Energy-OPLS-2005>
8.46954727172852

> <r_mmod_Van_der_Waal_Energy-OPLS-2005>
135.089080810547

> <r_mmod_Electrostatic_Energy-OPLS-2005>
-418.831268310547

> <r_mmod_Solvation_Energy-OPLS-2005>
-233.453857421875

> <b_mmod_Minimization_Converged-OPLS-2005>
0

> <r_mmod_RMS_Derivative-OPLS-2005>
2.43674468994141

$$$$
66
                    3D
 Structure written by MMmdl.
163171  0  0  1  0            999 V2000
  -30.7483  -14.4211   20.6742 C   0  0  0  0  0  0
  -30.4124  -12.3236   19.4025 C   0  0  0  0  0  0
  -29.4825  -12.5338   18.1945 C   0  0  0  0  0  0
  -28.0046  -12.3905   18.6066 C   0  0  0  0  0  0
  -27.6629  -13.2087   19.8796 C   0  0  2  0  0  0
  -28.7020  -12.9496   20.9881 C   0  0  0  0  0  0
  -25.2603  -13.8174   20.5723 C   0  0  0  0  0  0
  -24.1843  -13.0441   20.9178 C   0  0  0  0  0  0
  -24.6393  -11.6917   20.8705 C   0  0  0  0  0  0
  -23.9037  -10.4309   21.0382 C   0  0  0  0  0  0
  -24.3589   -9.4236   21.9168 C   0  0  0  0  0  0
  -23.6280   -8.2260   22.0726 C   0  0  0  0  0  0
  -22.4262   -8.0292   21.3526 C   0  0  0  0  0  0
  -21.9896   -9.0260   20.4622 C   0  0  0  0  0  0
  -22.7208  -10.2147   20.3036 C   0  0  0  0  0  0
  -21.6856   -6.0732   22.5284 C   0  0  0  0  0  0
  -21.4023   -6.5632   23.8225 C   0  0  0  0  0  0
  -21.3661   -5.6772   24.9179 C   0  0  0  0  0  0
  -21.6042   -4.3035   24.7217 C   0  0  0  0  0  0
  -21.8827   -3.8127   23.4341 C   0  0  0  0  0  0
  -21.9201   -4.6955   22.3403 C   0  0  0  0  0  0
  -22.7871  -13.5238   21.1872 C   0  0  0  0  0  0
  -22.1679   -4.2157   21.0977 F   0  0  0  0  0  0
  -21.5632   -3.4509   25.7722 F   0  0  0  0  0  0
  -30.0290  -13.2841   20.4527 N   0  0  0  0  0  0
  -26.3030  -12.9344   20.3386 N   0  0  0  0  0  0
  -25.9316  -11.6490   20.5716 N   0  0  0  0  0  0
  -22.0495  -12.8208   22.0401 N   0  0  0  0  0  0
  -25.4337  -15.1876   20.4213 N   0  0  0  0  0  0
  -31.7817  -14.6776   20.0503 O   0  0  0  0  0  0
  -21.6642   -6.8874   21.4239 O   0  0  0  0  0  0
  -22.3563  -14.5549   20.6739 O   0  0  0  0  0  0
  -24.6153  -31.8693   23.2092 C   0  0  0  0  0  0
  -25.9052  -32.4822   23.8392 C   0  0  1  0  0  0
  -27.2241  -27.4234   20.0996 C   0  0  0  0  0  0
  -25.5937  -33.8626   24.2327 N   0  0  0  0  0  0
  -23.4021  -30.4899   21.5527 C   0  0  2  0  0  0
  -24.8460  -28.9531   20.1199 C   0  0  0  0  0  0
  -22.7430  -29.4630   22.5004 C   0  0  0  0  0  0
  -18.0311  -28.1331   22.8492 C   0  0  0  0  0  0
  -24.1491  -36.7296   23.2636 C   0  0  0  0  0  0
  -25.9338  -30.8321   21.3627 C   0  0  0  0  0  0
  -26.0111  -29.4669   20.7060 C   0  0  0  0  0  0
  -27.2074  -28.7127   20.6849 C   0  0  0  0  0  0
  -26.0407  -26.9171   19.5247 C   0  0  0  0  0  0
  -24.8554  -27.6769   19.5305 C   0  0  0  0  0  0
  -23.6101  -29.8230   20.1674 C   0  0  0  0  0  0
  -25.4113  -36.3108   24.0328 C   0  0  1  0  0  0
  -20.5905  -28.3591   23.1329 C   0  0  2  0  0  0
  -20.6787  -26.9333   22.5407 C   0  0  0  0  0  0
  -19.5752  -26.6319   21.5221 C   0  0  0  0  0  0
  -18.1934  -26.7886   22.1618 C   0  0  0  0  0  0
  -19.1565  -28.8778   23.2923 C   0  0  0  0  0  0
  -18.9493  -30.1391   23.8920 C   0  0  0  0  0  0
  -17.6499  -30.6531   24.0589 C   0  0  0  0  0  0
  -25.9044  -34.9479   23.5101 C   0  0  0  0  0  0
  -16.5383  -29.9047   23.6335 C   0  0  0  0  0  0
  -16.7302  -28.6467   23.0325 C   0  0  0  0  0  0
  -26.4484  -31.6599   25.0718 C   0  0  0  0  0  0
  -25.3756  -31.3716   26.1467 C   0  0  0  0  0  0
  -27.0317  -30.3037   24.6099 C   0  0  0  0  0  0
  -27.6044  -32.4340   25.7487 C   0  0  0  0  0  0
  -27.5581  -37.1804   24.8469 C   0  0  0  0  0  0
  -21.4172  -29.2957   22.3728 N   0  0  0  0  0  0
  -26.4300  -37.3787   23.9403 N   0  0  0  0  0  0
  -24.6684  -31.0781   22.0993 N   0  0  0  0  0  0
  -23.4221  -28.8197   23.3047 O   0  0  0  0  0  0
  -28.3758  -26.6693   20.0635 O   0  0  0  0  0  0
  -26.5590  -34.8925   22.4660 O   0  0  0  0  0  0
  -23.5342  -32.1462   23.7476 O   0  0  0  0  0  0
  -27.1162  -17.8751   22.2853 C   0  0  0  0  0  0
  -28.3789  -15.8786   22.8833 C   0  0  0  0  0  0
  -29.0575  -17.2194   20.9618 C   0  0  0  0  0  0
  -27.2996  -16.7516   23.1132 C   0  0  0  0  0  0
  -27.9930  -18.1309   21.2060 C   0  0  0  0  0  0
  -29.2510  -16.0831   21.7949 C   0  0  0  0  0  0
  -28.7756  -21.5649   20.5466 C   0  0  0  0  0  0
  -26.3279  -16.4581   24.2405 C   0  0  0  0  0  0
  -26.5730  -21.1231   21.5639 C   0  0  0  0  0  0
  -27.7212  -19.3183   20.2653 C   0  0  0  0  0  0
  -28.7947  -22.9826   21.1713 C   0  0  0  0  0  0
  -28.4046  -24.1442   20.2106 C   0  0  0  0  0  0
  -28.3905  -25.5223   20.9291 C   0  0  0  0  0  0
  -30.3935  -15.2326   21.6888 N   0  0  0  0  0  0
  -27.7766  -20.6865   20.8449 N   0  0  0  0  0  0
  -29.7112  -21.2635   19.8011 O   0  0  0  0  0  0
  -31.4566  -12.4242   19.1021 H   0  0  0  0  0  0
  -30.3131  -11.3026   19.7743 H   0  0  0  0  0  0
  -29.7186  -11.8117   17.4134 H   0  0  0  0  0  0
  -29.6494  -13.5224   17.7653 H   0  0  0  0  0  0
  -27.8058  -11.3314   18.7769 H   0  0  0  0  0  0
  -27.3577  -12.6896   17.7816 H   0  0  0  0  0  0
  -27.7200  -14.2665   19.6194 H   0  0  0  0  0  0
  -28.6842  -11.8996   21.2771 H   0  0  0  0  0  0
  -28.4499  -13.4906   21.8949 H   0  0  0  0  0  0
  -25.2732   -9.5728   22.4744 H   0  0  0  0  0  0
  -24.0010   -7.4635   22.7409 H   0  0  0  0  0  0
  -21.0835   -8.8742   19.8912 H   0  0  0  0  0  0
  -22.3634  -10.9672   19.6151 H   0  0  0  0  0  0
  -21.2011   -7.6136   23.9730 H   0  0  0  0  0  0
  -21.1483   -6.0505   25.9085 H   0  0  0  0  0  0
  -22.0598   -2.7588   23.2823 H   0  0  0  0  0  0
  -22.4080  -11.9851   22.4762 H   0  0  0  0  0  0
  -21.1103  -13.1228   22.2592 H   0  0  0  0  0  0
  -24.6936  -15.8520   20.6150 H   0  0  0  0  0  0
  -26.3248  -15.6294   20.2336 H   0  0  0  0  0  0
  -26.7111  -32.5517   23.1150 H   0  0  0  0  0  0
  -25.0157  -33.9817   25.0512 H   0  0  0  0  0  0
  -22.6874  -31.3038   21.4137 H   0  0  0  0  0  0
  -23.3770  -35.9617   23.3328 H   0  0  0  0  0  0
  -24.3569  -36.8874   22.2043 H   0  0  0  0  0  0
  -23.7240  -37.6502   23.6636 H   0  0  0  0  0  0
  -26.0552  -31.6040   20.6021 H   0  0  0  0  0  0
  -26.8182  -30.8765   21.9866 H   0  0  0  0  0  0
  -28.1111  -29.1117   21.1235 H   0  0  0  0  0  0
  -26.0291  -25.9323   19.0779 H   0  0  0  0  0  0
  -23.9532  -27.2731   19.0902 H   0  0  0  0  0  0
  -23.7209  -30.6010   19.4095 H   0  0  0  0  0  0
  -22.7321  -29.2478   19.8688 H   0  0  0  0  0  0
  -25.1302  -36.1959   25.0820 H   0  0  0  0  0  0
  -21.0021  -28.3129   24.1438 H   0  0  0  0  0  0
  -20.5711  -26.2194   23.3579 H   0  0  0  0  0  0
  -21.6650  -26.7376   22.1180 H   0  0  0  0  0  0
  -19.6893  -25.6236   21.1243 H   0  0  0  0  0  0
  -19.6702  -27.3137   20.6756 H   0  0  0  0  0  0
  -17.4229  -26.6670   21.4003 H   0  0  0  0  0  0
  -18.0322  -26.0014   22.8999 H   0  0  0  0  0  0
  -19.7983  -30.7188   24.2284 H   0  0  0  0  0  0
  -17.5058  -31.6185   24.5241 H   0  0  0  0  0  0
  -15.5383  -30.2937   23.7657 H   0  0  0  0  0  0
  -15.8706  -28.0797   22.7003 H   0  0  0  0  0  0
  -24.5911  -30.7079   25.7815 H   0  0  0  0  0  0
  -24.8988  -32.2890   26.4933 H   0  0  0  0  0  0
  -25.8118  -30.8877   27.0211 H   0  0  0  0  0  0
  -26.2858  -29.6793   24.1165 H   0  0  0  0  0  0
  -27.4103  -29.7265   25.4544 H   0  0  0  0  0  0
  -27.8687  -30.4351   23.9234 H   0  0  0  0  0  0
  -27.2626  -33.3611   26.2094 H   0  0  0  0  0  0
  -28.3841  -32.6944   25.0322 H   0  0  0  0  0  0
  -28.0739  -31.8468   26.5388 H   0  0  0  0  0  0
  -28.2613  -38.0088   24.7510 H   0  0  0  0  0  0
  -28.1067  -36.2625   24.6323 H   0  0  0  0  0  0
  -27.2296  -37.1465   25.8870 H   0  0  0  0  0  0
  -20.9319  -29.8657   21.6947 H   0  0  0  0  0  0
  -26.0193  -38.2859   24.1417 H   0  0  0  0  0  0
  -26.2758  -18.5273   22.4679 H   0  0  0  0  0  0
  -28.5358  -15.0431   23.5494 H   0  0  0  0  0  0
  -29.7352  -17.4065   20.1393 H   0  0  0  0  0  0
  -25.8917  -17.3727   24.6419 H   0  0  0  0  0  0
  -26.8303  -15.9407   25.0573 H   0  0  0  0  0  0
  -25.5164  -15.8216   23.8842 H   0  0  0  0  0  0
  -26.1931  -22.0656   21.1641 H   0  0  0  0  0  0
  -26.7894  -21.2614   22.6242 H   0  0  0  0  0  0
  -25.7516  -20.4111   21.4848 H   0  0  0  0  0  0
  -26.7160  -19.1747   19.8643 H   0  0  0  0  0  0
  -28.3621  -19.2296   19.3870 H   0  0  0  0  0  0
  -29.8189  -23.1591   21.5021 H   0  0  0  0  0  0
  -28.2038  -23.0251   22.0849 H   0  0  0  0  0  0
  -27.4277  -23.9542   19.7669 H   0  0  0  0  0  0
  -29.1159  -24.1656   19.3836 H   0  0  0  0  0  0
  -27.5648  -25.5548   21.6441 H   0  0  0  0  0  0
  -29.2936  -25.6160   21.5297 H   0  0  0  0  0  0
  -31.2224  -15.7189   21.9966 H   0  0  0  0  0  0
  1 25  1  0  0  0
  1 30  2  0  0  0
  1 84  1  0  0  0
  2  3  1  0  0  0
  2 25  1  0  0  0
  2 87  1  0  0  0
  2 88  1  0  0  0
  3  4  1  0  0  0
  3 89  1  0  0  0
  3 90  1  0  0  0
  4  5  1  0  0  0
  4 91  1  0  0  0
  4 92  1  0  0  0
  5  6  1  0  0  0
  5 26  1  0  0  0
  5 93  1  0  0  0
  6 25  1  0  0  0
  6 94  1  0  0  0
  6 95  1  0  0  0
  7  8  2  0  0  0
  7 26  1  0  0  0
  7 29  1  0  0  0
  8  9  1  0  0  0
  8 22  1  0  0  0
  9 10  1  0  0  0
  9 27  2  0  0  0
 10 11  2  0  0  0
 10 15  1  0  0  0
 11 12  1  0  0  0
 11 96  1  0  0  0
 12 13  2  0  0  0
 12 97  1  0  0  0
 13 14  1  0  0  0
 13 31  1  0  0  0
 14 15  2  0  0  0
 14 98  1  0  0  0
 15 99  1  0  0  0
 16 17  2  0  0  0
 16 21  1  0  0  0
 16 31  1  0  0  0
 17 18  1  0  0  0
 17100  1  0  0  0
 18 19  2  0  0  0
 18101  1  0  0  0
 19 20  1  0  0  0
 19 24  1  0  0  0
 20 21  2  0  0  0
 20102  1  0  0  0
 21 23  1  0  0  0
 22 28  1  0  0  0
 22 32  2  0  0  0
 26 27  1  0  0  0
 28103  1  0  0  0
 28104  1  0  0  0
 29105  1  0  0  0
 29106  1  0  0  0
 33 34  1  0  0  0
 33 66  1  0  0  0
 33 70  2  0  0  0
 34 36  1  0  0  0
 34 59  1  0  0  0
 34107  1  0  0  0
 35 44  2  0  0  0
 35 45  1  0  0  0
 35 68  1  0  0  0
 36 56  1  0  0  0
 36108  1  0  0  0
 37 39  1  0  0  0
 37 47  1  0  0  0
 37 66  1  0  0  0
 37109  1  0  0  0
 38 43  2  0  0  0
 38 46  1  0  0  0
 38 47  1  0  0  0
 39 64  1  0  0  0
 39 67  2  0  0  0
 40 52  1  0  0  0
 40 53  2  0  0  0
 40 58  1  0  0  0
 41110  1  0  0  0
 41111  1  0  0  0
 41112  1  0  0  0
 41 48  1  0  0  0
 42 43  1  0  0  0
 42 66  1  0  0  0
 42113  1  0  0  0
 42114  1  0  0  0
 43 44  1  0  0  0
 44115  1  0  0  0
 45 46  2  0  0  0
 45116  1  0  0  0
 46117  1  0  0  0
 47118  1  0  0  0
 47119  1  0  0  0
 48 56  1  0  0  0
 48 65  1  0  0  0
 48120  1  0  0  0
 49 50  1  0  0  0
 49 53  1  0  0  0
 49 64  1  0  0  0
 49121  1  0  0  0
 50 51  1  0  0  0
 50122  1  0  0  0
 50123  1  0  0  0
 51 52  1  0  0  0
 51124  1  0  0  0
 51125  1  0  0  0
 52126  1  0  0  0
 52127  1  0  0  0
 53 54  1  0  0  0
 54 55  2  0  0  0
 54128  1  0  0  0
 55 57  1  0  0  0
 55129  1  0  0  0
 56 69  2  0  0  0
 57 58  2  0  0  0
 57130  1  0  0  0
 58131  1  0  0  0
 59 60  1  0  0  0
 59 61  1  0  0  0
 59 62  1  0  0  0
 60132  1  0  0  0
 60133  1  0  0  0
 60134  1  0  0  0
 61135  1  0  0  0
 61136  1  0  0  0
 61137  1  0  0  0
 62138  1  0  0  0
 62139  1  0  0  0
 62140  1  0  0  0
 63 65  1  0  0  0
 63141  1  0  0  0
 63142  1  0  0  0
 63143  1  0  0  0
 64144  1  0  0  0
 65145  1  0  0  0
 68 83  1  0  0  0
 71 74  2  0  0  0
 71 75  1  0  0  0
 71146  1  0  0  0
 72 74  1  0  0  0
 72 76  2  0  0  0
 72147  1  0  0  0
 73 75  2  0  0  0
 73 76  1  0  0  0
 73148  1  0  0  0
 74 78  1  0  0  0
 75 80  1  0  0  0
 76 84  1  0  0  0
 77 81  1  0  0  0
 77 85  1  0  0  0
 77 86  2  0  0  0
 78149  1  0  0  0
 78150  1  0  0  0
 78151  1  0  0  0
 79 85  1  0  0  0
 79152  1  0  0  0
 79153  1  0  0  0
 79154  1  0  0  0
 80 85  1  0  0  0
 80155  1  0  0  0
 80156  1  0  0  0
 81 82  1  0  0  0
 81157  1  0  0  0
 81158  1  0  0  0
 82 83  1  0  0  0
 82159  1  0  0  0
 82160  1  0  0  0
 83161  1  0  0  0
 83162  1  0  0  0
 84163  1  0  0  0
M  ISO  4   1 100  68 101  83 101  84 100
M  END
> <chiral flag>
0

> <version>
0

> <s_m_source_file>
/data/baiqing/PycharmProjects/Reinvent-master-3.2/result/LINK_invent/BTK/process_docking_weight1_custom_product_contain_oxygen_bond_distance_aromatic_linkinvent_7_9_3/rearranged_h_0063.sdf

> <i_m_source_file_index>
66

> <r_mmod_Potential_Energy-OPLS-2005>
-18.3071022033691

> <r_mmod_Stretch_Energy-OPLS-2005>
42.7424201965332

> <r_mmod_Bend_Energy-OPLS-2005>
117.601150512695

> <r_mmod_Torsional_Energy-OPLS-2005>
294.928863525391

> <r_mmod_Improper_Torsional_Energy-OPLS-2005>
7.88332366943359

> <r_mmod_Van_der_Waal_Energy-OPLS-2005>
140.21501159668

> <r_mmod_Electrostatic_Energy-OPLS-2005>
-417.111907958984

> <r_mmod_Solvation_Energy-OPLS-2005>
-214.963287353516

> <b_mmod_Minimization_Converged-OPLS-2005>
0

> <r_mmod_RMS_Derivative-OPLS-2005>
3.09842562675476

$$$$
67
                    3D
 Structure written by MMmdl.
154163  0  0  1  0            999 V2000
  -30.6223  -14.7636   20.4367 C   0  0  0  0  0  0
  -30.4310  -12.4644   19.4873 C   0  0  0  0  0  0
  -29.5134  -12.5108   18.2446 C   0  0  0  0  0  0
  -28.0393  -12.3345   18.6544 C   0  0  0  0  0  0
  -27.6415  -13.2385   19.8519 C   0  0  2  0  0  0
  -28.6846  -13.1889   20.9903 C   0  0  0  0  0  0
  -25.2499  -13.8213   20.5699 C   0  0  0  0  0  0
  -24.1796  -13.0448   20.9202 C   0  0  0  0  0  0
  -24.6392  -11.6923   20.8735 C   0  0  0  0  0  0
  -23.9072  -10.4293   21.0388 C   0  0  0  0  0  0
  -24.3617   -9.4212   21.9172 C   0  0  0  0  0  0
  -23.6292   -8.2249   22.0756 C   0  0  0  0  0  0
  -22.4273   -8.0283   21.3547 C   0  0  0  0  0  0
  -21.9907   -9.0259   20.4654 C   0  0  0  0  0  0
  -22.7238  -10.2134   20.3052 C   0  0  0  0  0  0
  -21.6853   -6.0730   22.5270 C   0  0  0  0  0  0
  -21.4016   -6.5638   23.8203 C   0  0  0  0  0  0
  -21.3667   -5.6793   24.9168 C   0  0  0  0  0  0
  -21.6043   -4.3060   24.7218 C   0  0  0  0  0  0
  -21.8821   -3.8143   23.4344 C   0  0  0  0  0  0
  -21.9196   -4.6958   22.3393 C   0  0  0  0  0  0
  -22.7818  -13.5236   21.1863 C   0  0  0  0  0  0
  -22.1660   -4.2148   21.0969 F   0  0  0  0  0  0
  -21.5636   -3.4545   25.7730 F   0  0  0  0  0  0
  -29.9879  -13.5375   20.4102 N   0  0  0  0  0  0
  -26.2927  -12.9432   20.3284 N   0  0  0  0  0  0
  -25.9324  -11.6563   20.5743 N   0  0  0  0  0  0
  -22.0465  -12.8214   22.0421 N   0  0  0  0  0  0
  -25.4196  -15.1937   20.4120 N   0  0  0  0  0  0
  -31.8214  -14.8240   20.1506 O   0  0  0  0  0  0
  -21.6643   -6.8876   21.4235 O   0  0  0  0  0  0
  -22.3494  -14.5537   20.6718 O   0  0  0  0  0  0
  -24.6348  -31.8542   23.1993 C   0  0  0  0  0  0
  -25.9161  -32.4750   23.8342 C   0  0  1  0  0  0
  -27.2160  -27.2374   20.1183 C   0  0  0  0  0  0
  -25.5944  -33.8554   24.2261 N   0  0  0  0  0  0
  -23.4318  -30.4805   21.5438 C   0  0  2  0  0  0
  -24.8804  -28.9361   20.1038 C   0  0  0  0  0  0
  -22.7521  -29.4589   22.4891 C   0  0  0  0  0  0
  -18.0299  -28.1396   22.8483 C   0  0  0  0  0  0
  -24.1493  -36.7279   23.2639 C   0  0  0  0  0  0
  -25.9830  -30.7574   21.3879 C   0  0  0  0  0  0
  -26.0541  -29.3811   20.7250 C   0  0  0  0  0  0
  -27.2224  -28.5439   20.7276 C   0  0  0  0  0  0
  -26.0202  -26.8906   19.4404 C   0  0  0  0  0  0
  -24.8721  -27.6998   19.4485 C   0  0  0  0  0  0
  -23.6503  -29.8222   20.1577 C   0  0  0  0  0  0
  -25.4119  -36.3065   24.0327 C   0  0  1  0  0  0
  -20.5907  -28.3703   23.1263 C   0  0  2  0  0  0
  -20.6783  -26.9416   22.5410 C   0  0  0  0  0  0
  -19.5755  -26.6386   21.5215 C   0  0  0  0  0  0
  -18.1937  -26.7935   22.1630 C   0  0  0  0  0  0
  -19.1556  -28.8863   23.2868 C   0  0  0  0  0  0
  -18.9472  -30.1465   23.8888 C   0  0  0  0  0  0
  -17.6465  -30.6590   24.0557 C   0  0  0  0  0  0
  -25.9054  -34.9436   23.5090 C   0  0  0  0  0  0
  -16.5358  -29.9083   23.6335 C   0  0  0  0  0  0
  -16.7282  -28.6507   23.0349 C   0  0  0  0  0  0
  -26.4514  -31.6584   25.0741 C   0  0  0  0  0  0
  -25.3723  -31.3744   26.1448 C   0  0  0  0  0  0
  -27.0357  -30.2990   24.6255 C   0  0  0  0  0  0
  -27.6069  -32.4324   25.7510 C   0  0  0  0  0  0
  -27.5578  -37.1798   24.8466 C   0  0  0  0  0  0
  -21.4219  -29.3046   22.3639 N   0  0  0  0  0  0
  -26.4291  -37.3766   23.9400 N   0  0  0  0  0  0
  -24.7025  -31.0485   22.0992 N   0  0  0  0  0  0
  -23.4212  -28.8115   23.2986 O   0  0  0  0  0  0
  -28.2769  -26.2863   20.2043 O   0  0  0  0  0  0
  -26.5622  -34.8910   22.4655 O   0  0  0  0  0  0
  -23.5491  -32.1370   23.7271 O   0  0  0  0  0  0
  -30.3379  -19.7582   18.5339 C   0  0  0  0  0  0
  -30.6991  -18.5257   17.9629 C   0  0  0  0  0  0
  -29.5522  -23.2401   21.3953 C   0  0  0  0  0  0
  -29.6510  -18.5745   20.5459 C   0  0  0  0  0  0
  -28.7666  -23.5234   20.2302 C   0  0  0  0  0  0
  -29.7826  -19.8473   19.8273 C   0  0  0  0  0  0
  -30.0452  -17.2737   19.9842 C   0  0  0  0  0  0
  -30.5413  -17.3119   18.6552 C   0  0  0  0  0  0
  -29.9397  -21.9115   21.3933 C   0  0  0  0  0  0
  -28.7518  -22.2710   19.5914 C   0  0  0  0  0  0
  -27.9657  -24.8547   19.8157 C   0  0  0  0  0  0
  -29.4652  -21.2375   20.2724 N   0  0  0  0  0  0
  -29.8800  -15.9292   20.6261 N   0  0  0  0  0  0
  -30.7151  -21.2573   22.3010 O   0  0  0  0  0  0
  -28.1274  -21.9564   18.4213 O   0  0  0  0  0  0
  -30.8280  -16.1724   17.9821 F   0  0  0  0  0  0
  -31.4724  -12.5827   19.1821 H   0  0  0  0  0  0
  -30.3740  -11.4902   19.9756 H   0  0  0  0  0  0
  -29.7993  -11.7350   17.5337 H   0  0  0  0  0  0
  -29.6417  -13.4648   17.7301 H   0  0  0  0  0  0
  -27.8933  -11.2861   18.9161 H   0  0  0  0  0  0
  -27.3862  -12.5293   17.8023 H   0  0  0  0  0  0
  -27.6346  -14.2577   19.4640 H   0  0  0  0  0  0
  -28.7189  -12.1968   21.4442 H   0  0  0  0  0  0
  -28.4134  -13.8827   21.7880 H   0  0  0  0  0  0
  -25.2757   -9.5705   22.4745 H   0  0  0  0  0  0
  -24.0012   -7.4640   22.7467 H   0  0  0  0  0  0
  -21.0844   -8.8771   19.8949 H   0  0  0  0  0  0
  -22.3687  -10.9670   19.6166 H   0  0  0  0  0  0
  -21.2005   -7.6143   23.9706 H   0  0  0  0  0  0
  -21.1491   -6.0518   25.9070 H   0  0  0  0  0  0
  -22.0597   -2.7605   23.2829 H   0  0  0  0  0  0
  -22.4095  -11.9879   22.4802 H   0  0  0  0  0  0
  -21.1088  -13.1235   22.2649 H   0  0  0  0  0  0
  -24.6532  -15.8491   20.5183 H   0  0  0  0  0  0
  -26.2691  -15.6307   20.0776 H   0  0  0  0  0  0
  -26.7221  -32.5392   23.1075 H   0  0  0  0  0  0
  -25.0098  -33.9690   25.0411 H   0  0  0  0  0  0
  -22.7294  -31.3047   21.4018 H   0  0  0  0  0  0
  -23.3754  -35.9614   23.3311 H   0  0  0  0  0  0
  -24.3582  -36.8888   22.2051 H   0  0  0  0  0  0
  -23.7252  -37.6484   23.6656 H   0  0  0  0  0  0
  -26.1292  -31.5171   20.6187 H   0  0  0  0  0  0
  -26.8580  -30.8019   22.0244 H   0  0  0  0  0  0
  -28.1130  -28.8748   21.2441 H   0  0  0  0  0  0
  -25.9185  -25.9622   18.9004 H   0  0  0  0  0  0
  -23.9816  -27.3615   18.9369 H   0  0  0  0  0  0
  -23.7708  -30.6021   19.4050 H   0  0  0  0  0  0
  -22.7682  -29.2562   19.8520 H   0  0  0  0  0  0
  -25.1305  -36.1912   25.0822 H   0  0  0  0  0  0
  -21.0016  -28.3288   24.1375 H   0  0  0  0  0  0
  -20.5692  -26.2308   23.3615 H   0  0  0  0  0  0
  -21.6645  -26.7435   22.1199 H   0  0  0  0  0  0
  -19.6912  -25.6293   21.1251 H   0  0  0  0  0  0
  -19.6701  -27.3190   20.6739 H   0  0  0  0  0  0
  -17.4208  -26.6684   21.4028 H   0  0  0  0  0  0
  -18.0334  -26.0087   22.9039 H   0  0  0  0  0  0
  -19.7939  -30.7287   24.2260 H   0  0  0  0  0  0
  -17.5014  -31.6270   24.5154 H   0  0  0  0  0  0
  -15.5354  -30.2976   23.7665 H   0  0  0  0  0  0
  -15.8683  -28.0816   22.7065 H   0  0  0  0  0  0
  -24.5915  -30.7072   25.7770 H   0  0  0  0  0  0
  -24.8893  -32.2914   26.4833 H   0  0  0  0  0  0
  -25.8029  -30.8951   27.0248 H   0  0  0  0  0  0
  -26.2946  -29.6736   24.1258 H   0  0  0  0  0  0
  -27.3985  -29.7258   25.4797 H   0  0  0  0  0  0
  -27.8858  -30.4236   23.9543 H   0  0  0  0  0  0
  -27.2683  -33.3633   26.2067 H   0  0  0  0  0  0
  -28.3890  -32.6862   25.0343 H   0  0  0  0  0  0
  -28.0727  -31.8462   26.5438 H   0  0  0  0  0  0
  -28.2601  -38.0089   24.7494 H   0  0  0  0  0  0
  -28.1068  -36.2615   24.6318 H   0  0  0  0  0  0
  -27.2290  -37.1481   25.8869 H   0  0  0  0  0  0
  -20.9405  -29.8770   21.6842 H   0  0  0  0  0  0
  -26.0171  -38.2839   24.1397 H   0  0  0  0  0  0
  -30.4853  -20.6562   17.9508 H   0  0  0  0  0  0
  -31.0943  -18.5065   16.9583 H   0  0  0  0  0  0
  -29.7999  -23.9494   22.1742 H   0  0  0  0  0  0
  -29.2410  -18.6010   21.5446 H   0  0  0  0  0  0
  -26.9720  -24.6208   20.1971 H   0  0  0  0  0  0
  -27.8952  -24.8376   18.7274 H   0  0  0  0  0  0
  -28.9962  -15.7887   21.0891 H   0  0  0  0  0  0
  -30.9782  -21.8848   22.9681 H   0  0  0  0  0  0
  -27.7702  -22.7542   18.0468 H   0  0  0  0  0  0
  1 25  1  0  0  0
  1 30  2  0  0  0
  1 83  1  0  0  0
  2  3  1  0  0  0
  2 25  1  0  0  0
  2 87  1  0  0  0
  2 88  1  0  0  0
  3  4  1  0  0  0
  3 89  1  0  0  0
  3 90  1  0  0  0
  4  5  1  0  0  0
  4 91  1  0  0  0
  4 92  1  0  0  0
  5  6  1  0  0  0
  5 26  1  0  0  0
  5 93  1  0  0  0
  6 25  1  0  0  0
  6 94  1  0  0  0
  6 95  1  0  0  0
  7  8  2  0  0  0
  7 26  1  0  0  0
  7 29  1  0  0  0
  8  9  1  0  0  0
  8 22  1  0  0  0
  9 10  1  0  0  0
  9 27  2  0  0  0
 10 11  2  0  0  0
 10 15  1  0  0  0
 11 12  1  0  0  0
 11 96  1  0  0  0
 12 13  2  0  0  0
 12 97  1  0  0  0
 13 14  1  0  0  0
 13 31  1  0  0  0
 14 15  2  0  0  0
 14 98  1  0  0  0
 15 99  1  0  0  0
 16 17  2  0  0  0
 16 21  1  0  0  0
 16 31  1  0  0  0
 17 18  1  0  0  0
 17100  1  0  0  0
 18 19  2  0  0  0
 18101  1  0  0  0
 19 20  1  0  0  0
 19 24  1  0  0  0
 20 21  2  0  0  0
 20102  1  0  0  0
 21 23  1  0  0  0
 22 28  1  0  0  0
 22 32  2  0  0  0
 26 27  1  0  0  0
 28103  1  0  0  0
 28104  1  0  0  0
 29105  1  0  0  0
 29106  1  0  0  0
 33 34  1  0  0  0
 33 66  1  0  0  0
 33 70  2  0  0  0
 34 36  1  0  0  0
 34 59  1  0  0  0
 34107  1  0  0  0
 35 44  2  0  0  0
 35 45  1  0  0  0
 35 68  1  0  0  0
 36 56  1  0  0  0
 36108  1  0  0  0
 37 39  1  0  0  0
 37 47  1  0  0  0
 37 66  1  0  0  0
 37109  1  0  0  0
 38 43  2  0  0  0
 38 46  1  0  0  0
 38 47  1  0  0  0
 39 64  1  0  0  0
 39 67  2  0  0  0
 40 52  1  0  0  0
 40 53  2  0  0  0
 40 58  1  0  0  0
 41110  1  0  0  0
 41111  1  0  0  0
 41112  1  0  0  0
 41 48  1  0  0  0
 42 43  1  0  0  0
 42 66  1  0  0  0
 42113  1  0  0  0
 42114  1  0  0  0
 43 44  1  0  0  0
 44115  1  0  0  0
 45 46  2  0  0  0
 45116  1  0  0  0
 46117  1  0  0  0
 47118  1  0  0  0
 47119  1  0  0  0
 48 56  1  0  0  0
 48 65  1  0  0  0
 48120  1  0  0  0
 49 50  1  0  0  0
 49 53  1  0  0  0
 49 64  1  0  0  0
 49121  1  0  0  0
 50 51  1  0  0  0
 50122  1  0  0  0
 50123  1  0  0  0
 51 52  1  0  0  0
 51124  1  0  0  0
 51125  1  0  0  0
 52126  1  0  0  0
 52127  1  0  0  0
 53 54  1  0  0  0
 54 55  2  0  0  0
 54128  1  0  0  0
 55 57  1  0  0  0
 55129  1  0  0  0
 56 69  2  0  0  0
 57 58  2  0  0  0
 57130  1  0  0  0
 58131  1  0  0  0
 59 60  1  0  0  0
 59 61  1  0  0  0
 59 62  1  0  0  0
 60132  1  0  0  0
 60133  1  0  0  0
 60134  1  0  0  0
 61135  1  0  0  0
 61136  1  0  0  0
 61137  1  0  0  0
 62138  1  0  0  0
 62139  1  0  0  0
 62140  1  0  0  0
 63 65  1  0  0  0
 63141  1  0  0  0
 63142  1  0  0  0
 63143  1  0  0  0
 64144  1  0  0  0
 65145  1  0  0  0
 68 81  1  0  0  0
 71 72  2  0  0  0
 71 76  1  0  0  0
 71146  1  0  0  0
 72 78  1  0  0  0
 72147  1  0  0  0
 73 75  1  0  0  0
 73 79  2  0  0  0
 73148  1  0  0  0
 74 76  2  0  0  0
 74 77  1  0  0  0
 74149  1  0  0  0
 75 80  2  0  0  0
 75 81  1  0  0  0
 76 82  1  0  0  0
 77 78  2  0  0  0
 77 83  1  0  0  0
 78 86  1  0  0  0
 79 82  1  0  0  0
 79 84  1  0  0  0
 80 82  1  0  0  0
 80 85  1  0  0  0
 81150  1  0  0  0
 81151  1  0  0  0
 83152  1  0  0  0
 84153  1  0  0  0
 85154  1  0  0  0
M  ISO  4   1 100  68 101  81 101  83 100
M  END
> <chiral flag>
0

> <version>
0

> <s_m_source_file>
/data/baiqing/PycharmProjects/Reinvent-master-3.2/result/LINK_invent/BTK/process_docking_weight1_custom_product_contain_oxygen_bond_distance_aromatic_linkinvent_7_9_3/rearranged_h_0063.sdf

> <i_m_source_file_index>
67

> <r_mmod_Potential_Energy-OPLS-2005>
214.904403686523

> <r_mmod_Stretch_Energy-OPLS-2005>
139.344146728516

> <r_mmod_Bend_Energy-OPLS-2005>
178.924560546875

> <r_mmod_Torsional_Energy-OPLS-2005>
252.467178344727

> <r_mmod_Improper_Torsional_Energy-OPLS-2005>
5.63785457611084

> <r_mmod_Van_der_Waal_Energy-OPLS-2005>
145.033798217773

> <r_mmod_Electrostatic_Energy-OPLS-2005>
-367.697418212891

> <r_mmod_Solvation_Energy-OPLS-2005>
-240.986785888672

> <b_mmod_Minimization_Converged-OPLS-2005>
0

> <r_mmod_RMS_Derivative-OPLS-2005>
1.7808735370636

$$$$
68
                    3D
 Structure written by MMmdl.
155163  0  0  1  0            999 V2000
  -30.7100  -14.5166   20.5519 C   0  0  0  0  0  0
  -30.4169  -12.3308   19.4349 C   0  0  0  0  0  0
  -29.4933  -12.4993   18.2119 C   0  0  0  0  0  0
  -28.0167  -12.3547   18.6267 C   0  0  0  0  0  0
  -27.6550  -13.2154   19.8671 C   0  0  2  0  0  0
  -28.6990  -13.0455   20.9943 C   0  0  0  0  0  0
  -25.2554  -13.8174   20.5679 C   0  0  0  0  0  0
  -24.1826  -13.0440   20.9199 C   0  0  0  0  0  0
  -24.6394  -11.6913   20.8751 C   0  0  0  0  0  0
  -23.9065  -10.4294   21.0412 C   0  0  0  0  0  0
  -24.3617   -9.4207   21.9187 C   0  0  0  0  0  0
  -23.6292   -8.2242   22.0755 C   0  0  0  0  0  0
  -22.4274   -8.0282   21.3545 C   0  0  0  0  0  0
  -21.9910   -9.0257   20.4648 C   0  0  0  0  0  0
  -22.7239  -10.2136   20.3059 C   0  0  0  0  0  0
  -21.6852   -6.0736   22.5279 C   0  0  0  0  0  0
  -21.4013   -6.5640   23.8213 C   0  0  0  0  0  0
  -21.3658   -5.6793   24.9175 C   0  0  0  0  0  0
  -21.6045   -4.3056   24.7226 C   0  0  0  0  0  0
  -21.8818   -3.8147   23.4347 C   0  0  0  0  0  0
  -21.9192   -4.6963   22.3403 C   0  0  0  0  0  0
  -22.7847  -13.5233   21.1854 C   0  0  0  0  0  0
  -22.1661   -4.2149   21.0980 F   0  0  0  0  0  0
  -21.5628   -3.4539   25.7739 F   0  0  0  0  0  0
  -30.0231  -13.3449   20.4290 N   0  0  0  0  0  0
  -26.2993  -12.9362   20.3342 N   0  0  0  0  0  0
  -25.9322  -11.6516   20.5776 N   0  0  0  0  0  0
  -22.0487  -12.8228   22.0411 N   0  0  0  0  0  0
  -25.4244  -15.1888   20.4038 N   0  0  0  0  0  0
  -31.8544  -14.6428   20.1084 O   0  0  0  0  0  0
  -21.6639   -6.8879   21.4242 O   0  0  0  0  0  0
  -22.3534  -14.5540   20.6701 O   0  0  0  0  0  0
  -24.6183  -31.8658   23.2085 C   0  0  0  0  0  0
  -25.9064  -32.4812   23.8388 C   0  0  1  0  0  0
  -27.2254  -27.4005   20.1069 C   0  0  0  0  0  0
  -25.5908  -33.8610   24.2317 N   0  0  0  0  0  0
  -23.4082  -30.4899   21.5492 C   0  0  2  0  0  0
  -24.8557  -28.9567   20.1097 C   0  0  0  0  0  0
  -22.7433  -29.4648   22.4970 C   0  0  0  0  0  0
  -18.0275  -28.1378   22.8488 C   0  0  0  0  0  0
  -24.1488  -36.7311   23.2638 C   0  0  0  0  0  0
  -25.9413  -30.8225   21.3670 C   0  0  0  0  0  0
  -26.0194  -29.4561   20.7104 C   0  0  0  0  0  0
  -27.2116  -28.6872   20.7031 C   0  0  0  0  0  0
  -26.0496  -26.9351   19.4803 C   0  0  0  0  0  0
  -24.8679  -27.6976   19.4875 C   0  0  0  0  0  0
  -23.6185  -29.8257   20.1627 C   0  0  0  0  0  0
  -25.4109  -36.3105   24.0335 C   0  0  1  0  0  0
  -20.5869  -28.3671   23.1305 C   0  0  2  0  0  0
  -20.6766  -26.9403   22.5413 C   0  0  0  0  0  0
  -19.5744  -26.6385   21.5209 C   0  0  0  0  0  0
  -18.1923  -26.7922   22.1621 C   0  0  0  0  0  0
  -19.1526  -28.8840   23.2893 C   0  0  0  0  0  0
  -18.9454  -30.1445   23.8906 C   0  0  0  0  0  0
  -17.6457  -30.6584   24.0564 C   0  0  0  0  0  0
  -25.9038  -34.9471   23.5124 C   0  0  0  0  0  0
  -16.5348  -29.9086   23.6328 C   0  0  0  0  0  0
  -16.7265  -28.6502   23.0349 C   0  0  0  0  0  0
  -26.4479  -31.6596   25.0725 C   0  0  0  0  0  0
  -25.3738  -31.3710   26.1470 C   0  0  0  0  0  0
  -27.0309  -30.3033   24.6117 C   0  0  0  0  0  0
  -27.6054  -32.4317   25.7487 C   0  0  0  0  0  0
  -27.5581  -37.1810   24.8465 C   0  0  0  0  0  0
  -21.4157  -29.3036   22.3713 N   0  0  0  0  0  0
  -26.4295  -37.3791   23.9408 N   0  0  0  0  0  0
  -24.6743  -31.0736   22.0998 N   0  0  0  0  0  0
  -23.4192  -28.8188   23.3022 O   0  0  0  0  0  0
  -28.3399  -26.5796   20.1446 O   0  0  0  0  0  0
  -26.5602  -34.8927   22.4687 O   0  0  0  0  0  0
  -23.5367  -32.1422   23.7461 O   0  0  0  0  0  0
  -32.3133  -18.4046   21.9813 C   0  0  0  0  0  0
  -31.5462  -19.5393   21.6759 C   0  0  0  0  0  0
  -31.7987  -17.1192   21.7553 C   0  0  0  0  0  0
  -29.7120  -18.0999   20.9339 C   0  0  0  0  0  0
  -30.2427  -19.4195   21.1381 C   0  0  0  0  0  0
  -30.5051  -16.9346   21.2148 C   0  0  0  0  0  0
  -28.8529  -22.8984   20.7240 C   0  0  0  0  0  0
  -29.1365  -24.2294   20.6646 C   0  0  0  0  0  0
  -29.8897  -21.8679   20.5942 C   0  0  0  0  0  0
  -28.3021  -17.9429   20.3800 C   0  0  0  0  0  0
  -28.1145  -25.3529   20.8870 C   0  0  0  0  0  0
  -29.4585  -20.6119   20.8892 N   0  0  0  0  0  0
  -30.0150  -15.5884   21.0142 N   0  0  0  0  0  0
  -31.0448  -22.1096   20.2334 O   0  0  0  0  0  0
  -31.4619  -12.4182   19.1324 H   0  0  0  0  0  0
  -30.3152  -11.3307   19.8590 H   0  0  0  0  0  0
  -29.7402  -11.7610   17.4479 H   0  0  0  0  0  0
  -29.6550  -13.4777   17.7567 H   0  0  0  0  0  0
  -27.8384  -11.3008   18.8438 H   0  0  0  0  0  0
  -27.3633  -12.6059   17.7903 H   0  0  0  0  0  0
  -27.6844  -14.2556   19.5423 H   0  0  0  0  0  0
  -28.6844  -12.0244   21.3784 H   0  0  0  0  0  0
  -28.4611  -13.6853   21.8453 H   0  0  0  0  0  0
  -25.2762   -9.5681   22.4763 H   0  0  0  0  0  0
  -24.0001   -7.4632   22.7473 H   0  0  0  0  0  0
  -21.0841   -8.8777   19.8953 H   0  0  0  0  0  0
  -22.3699  -10.9677   19.6169 H   0  0  0  0  0  0
  -21.2006   -7.6148   23.9716 H   0  0  0  0  0  0
  -21.1481   -6.0523   25.9078 H   0  0  0  0  0  0
  -22.0599   -2.7609   23.2848 H   0  0  0  0  0  0
  -22.4100  -11.9889   22.4801 H   0  0  0  0  0  0
  -21.1105  -13.1256   22.2615 H   0  0  0  0  0  0
  -24.6502  -15.8375   20.4963 H   0  0  0  0  0  0
  -26.2575  -15.6187   20.0251 H   0  0  0  0  0  0
  -26.7135  -32.5515   23.1151 H   0  0  0  0  0  0
  -25.0063  -33.9767   25.0466 H   0  0  0  0  0  0
  -22.6981  -31.3078   21.4101 H   0  0  0  0  0  0
  -23.3746  -35.9648   23.3310 H   0  0  0  0  0  0
  -24.3581  -36.8917   22.2051 H   0  0  0  0  0  0
  -23.7245  -37.6520   23.6647 H   0  0  0  0  0  0
  -26.0590  -31.5894   20.6001 H   0  0  0  0  0  0
  -26.8268  -30.8737   21.9887 H   0  0  0  0  0  0
  -28.1063  -29.0618   21.1805 H   0  0  0  0  0  0
  -26.0398  -25.9690   18.9951 H   0  0  0  0  0  0
  -23.9764  -27.3102   19.0135 H   0  0  0  0  0  0
  -23.7278  -30.6026   19.4049 H   0  0  0  0  0  0
  -22.7415  -29.2476   19.8656 H   0  0  0  0  0  0
  -25.1285  -36.1971   25.0828 H   0  0  0  0  0  0
  -20.9961  -28.3240   24.1425 H   0  0  0  0  0  0
  -20.5668  -26.2280   23.3603 H   0  0  0  0  0  0
  -21.6637  -26.7444   22.1206 H   0  0  0  0  0  0
  -19.6909  -25.6300   21.1231 H   0  0  0  0  0  0
  -19.6684  -27.3202   20.6745 H   0  0  0  0  0  0
  -17.4193  -26.6670   21.4024 H   0  0  0  0  0  0
  -18.0326  -26.0061   22.9014 H   0  0  0  0  0  0
  -19.7933  -30.7255   24.2283 H   0  0  0  0  0  0
  -17.5015  -31.6266   24.5163 H   0  0  0  0  0  0
  -15.5349  -30.2993   23.7648 H   0  0  0  0  0  0
  -15.8662  -28.0828   22.7060 H   0  0  0  0  0  0
  -24.5910  -30.7058   25.7808 H   0  0  0  0  0  0
  -24.8931  -32.2867   26.4922 H   0  0  0  0  0  0
  -25.8086  -30.8877   27.0227 H   0  0  0  0  0  0
  -26.2857  -29.6796   24.1165 H   0  0  0  0  0  0
  -27.4063  -29.7271   25.4583 H   0  0  0  0  0  0
  -27.8702  -30.4342   23.9281 H   0  0  0  0  0  0
  -27.2673  -33.3608   26.2086 H   0  0  0  0  0  0
  -28.3851  -32.6890   25.0305 H   0  0  0  0  0  0
  -28.0735  -31.8426   26.5383 H   0  0  0  0  0  0
  -28.2607  -38.0100   24.7507 H   0  0  0  0  0  0
  -28.1068  -36.2631   24.6295 H   0  0  0  0  0  0
  -27.2298  -37.1469   25.8869 H   0  0  0  0  0  0
  -20.9322  -29.8765   21.6938 H   0  0  0  0  0  0
  -26.0185  -38.2870   24.1404 H   0  0  0  0  0  0
  -33.3031  -18.5210   22.4000 H   0  0  0  0  0  0
  -31.9773  -20.5072   21.8881 H   0  0  0  0  0  0
  -32.4175  -16.2713   22.0138 H   0  0  0  0  0  0
  -27.8304  -22.5945   20.8979 H   0  0  0  0  0  0
  -30.1532  -24.5543   20.4929 H   0  0  0  0  0  0
  -27.6227  -18.6779   20.8107 H   0  0  0  0  0  0
  -27.8768  -16.9648   20.5965 H   0  0  0  0  0  0
  -28.3098  -18.0774   19.2983 H   0  0  0  0  0  0
  -28.1497  -25.6116   21.9461 H   0  0  0  0  0  0
  -27.1226  -24.9332   20.7168 H   0  0  0  0  0  0
  -28.4600  -20.5131   21.0017 H   0  0  0  0  0  0
  -29.0342  -15.4304   21.1835 H   0  0  0  0  0  0
  1 25  1  0  0  0
  1 30  2  0  0  0
  1 83  1  0  0  0
  2  3  1  0  0  0
  2 25  1  0  0  0
  2 85  1  0  0  0
  2 86  1  0  0  0
  3  4  1  0  0  0
  3 87  1  0  0  0
  3 88  1  0  0  0
  4  5  1  0  0  0
  4 89  1  0  0  0
  4 90  1  0  0  0
  5  6  1  0  0  0
  5 26  1  0  0  0
  5 91  1  0  0  0
  6 25  1  0  0  0
  6 92  1  0  0  0
  6 93  1  0  0  0
  7  8  2  0  0  0
  7 26  1  0  0  0
  7 29  1  0  0  0
  8  9  1  0  0  0
  8 22  1  0  0  0
  9 10  1  0  0  0
  9 27  2  0  0  0
 10 11  2  0  0  0
 10 15  1  0  0  0
 11 12  1  0  0  0
 11 94  1  0  0  0
 12 13  2  0  0  0
 12 95  1  0  0  0
 13 14  1  0  0  0
 13 31  1  0  0  0
 14 15  2  0  0  0
 14 96  1  0  0  0
 15 97  1  0  0  0
 16 17  2  0  0  0
 16 21  1  0  0  0
 16 31  1  0  0  0
 17 18  1  0  0  0
 17 98  1  0  0  0
 18 19  2  0  0  0
 18 99  1  0  0  0
 19 20  1  0  0  0
 19 24  1  0  0  0
 20 21  2  0  0  0
 20100  1  0  0  0
 21 23  1  0  0  0
 22 28  1  0  0  0
 22 32  2  0  0  0
 26 27  1  0  0  0
 28101  1  0  0  0
 28102  1  0  0  0
 29103  1  0  0  0
 29104  1  0  0  0
 33 34  1  0  0  0
 33 66  1  0  0  0
 33 70  2  0  0  0
 34 36  1  0  0  0
 34 59  1  0  0  0
 34105  1  0  0  0
 35 44  2  0  0  0
 35 45  1  0  0  0
 35 68  1  0  0  0
 36 56  1  0  0  0
 36106  1  0  0  0
 37 39  1  0  0  0
 37 47  1  0  0  0
 37 66  1  0  0  0
 37107  1  0  0  0
 38 43  2  0  0  0
 38 46  1  0  0  0
 38 47  1  0  0  0
 39 64  1  0  0  0
 39 67  2  0  0  0
 40 52  1  0  0  0
 40 53  2  0  0  0
 40 58  1  0  0  0
 41108  1  0  0  0
 41109  1  0  0  0
 41110  1  0  0  0
 41 48  1  0  0  0
 42 43  1  0  0  0
 42 66  1  0  0  0
 42111  1  0  0  0
 42112  1  0  0  0
 43 44  1  0  0  0
 44113  1  0  0  0
 45 46  2  0  0  0
 45114  1  0  0  0
 46115  1  0  0  0
 47116  1  0  0  0
 47117  1  0  0  0
 48 56  1  0  0  0
 48 65  1  0  0  0
 48118  1  0  0  0
 49 50  1  0  0  0
 49 53  1  0  0  0
 49 64  1  0  0  0
 49119  1  0  0  0
 50 51  1  0  0  0
 50120  1  0  0  0
 50121  1  0  0  0
 51 52  1  0  0  0
 51122  1  0  0  0
 51123  1  0  0  0
 52124  1  0  0  0
 52125  1  0  0  0
 53 54  1  0  0  0
 54 55  2  0  0  0
 54126  1  0  0  0
 55 57  1  0  0  0
 55127  1  0  0  0
 56 69  2  0  0  0
 57 58  2  0  0  0
 57128  1  0  0  0
 58129  1  0  0  0
 59 60  1  0  0  0
 59 61  1  0  0  0
 59 62  1  0  0  0
 60130  1  0  0  0
 60131  1  0  0  0
 60132  1  0  0  0
 61133  1  0  0  0
 61134  1  0  0  0
 61135  1  0  0  0
 62136  1  0  0  0
 62137  1  0  0  0
 62138  1  0  0  0
 63 65  1  0  0  0
 63139  1  0  0  0
 63140  1  0  0  0
 63141  1  0  0  0
 64142  1  0  0  0
 65143  1  0  0  0
 68 81  1  0  0  0
 71 72  2  0  0  0
 71 73  1  0  0  0
 71144  1  0  0  0
 72 75  1  0  0  0
 72145  1  0  0  0
 73 76  2  0  0  0
 73146  1  0  0  0
 74 75  2  0  0  0
 74 76  1  0  0  0
 74 80  1  0  0  0
 75 82  1  0  0  0
 76 83  1  0  0  0
 77 78  2  0  0  0
 77 79  1  0  0  0
 77147  1  0  0  0
 78 81  1  0  0  0
 78148  1  0  0  0
 79 82  1  0  0  0
 79 84  2  0  0  0
 80149  1  0  0  0
 80150  1  0  0  0
 80151  1  0  0  0
 81152  1  0  0  0
 81153  1  0  0  0
 82154  1  0  0  0
 83155  1  0  0  0
M  ISO  4   1 100  68 101  81 101  83 100
M  END
> <chiral flag>
0

> <version>
0

> <s_m_source_file>
/data/baiqing/PycharmProjects/Reinvent-master-3.2/result/LINK_invent/BTK/process_docking_weight1_custom_product_contain_oxygen_bond_distance_aromatic_linkinvent_7_9_3/rearranged_h_0063.sdf

> <i_m_source_file_index>
68

> <r_mmod_Potential_Energy-OPLS-2005>
-74.8466110229492

> <r_mmod_Stretch_Energy-OPLS-2005>
51.0112075805664

> <r_mmod_Bend_Energy-OPLS-2005>
97.910888671875

> <r_mmod_Torsional_Energy-OPLS-2005>
252.653030395508

> <r_mmod_Improper_Torsional_Energy-OPLS-2005>
4.76074838638306

> <r_mmod_Van_der_Waal_Energy-OPLS-2005>
161.103469848633

> <r_mmod_Electrostatic_Energy-OPLS-2005>
-429.371063232422

> <r_mmod_Solvation_Energy-OPLS-2005>
-235.198303222656

> <b_mmod_Minimization_Converged-OPLS-2005>
0

> <r_mmod_RMS_Derivative-OPLS-2005>
0.32180991768837

$$$$
69
                    3D
 Structure written by MMmdl.
167176  0  0  1  0            999 V2000
  -30.6099  -14.6877   20.4644 C   0  0  0  0  0  0
  -30.4336  -12.4100   19.4827 C   0  0  0  0  0  0
  -29.5205  -12.5126   18.2414 C   0  0  0  0  0  0
  -28.0410  -12.3562   18.6429 C   0  0  0  0  0  0
  -27.6525  -13.2292   19.8685 C   0  0  2  0  0  0
  -28.6934  -13.1096   21.0044 C   0  0  0  0  0  0
  -25.2537  -13.8198   20.5685 C   0  0  0  0  0  0
  -24.1814  -13.0454   20.9201 C   0  0  0  0  0  0
  -24.6409  -11.6925   20.8772 C   0  0  0  0  0  0
  -23.9091  -10.4303   21.0446 C   0  0  0  0  0  0
  -24.3637   -9.4194   21.9204 C   0  0  0  0  0  0
  -23.6289   -8.2243   22.0761 C   0  0  0  0  0  0
  -22.4273   -8.0295   21.3556 C   0  0  0  0  0  0
  -21.9921   -9.0283   20.4668 C   0  0  0  0  0  0
  -22.7270  -10.2155   20.3078 C   0  0  0  0  0  0
  -21.6848   -6.0729   22.5275 C   0  0  0  0  0  0
  -21.4008   -6.5629   23.8209 C   0  0  0  0  0  0
  -21.3653   -5.6786   24.9169 C   0  0  0  0  0  0
  -21.6046   -4.3053   24.7223 C   0  0  0  0  0  0
  -21.8817   -3.8141   23.4344 C   0  0  0  0  0  0
  -21.9186   -4.6957   22.3396 C   0  0  0  0  0  0
  -22.7843  -13.5259   21.1858 C   0  0  0  0  0  0
  -22.1661   -4.2147   21.0972 F   0  0  0  0  0  0
  -21.5628   -3.4523   25.7731 F   0  0  0  0  0  0
  -30.0067  -13.4529   20.4397 N   0  0  0  0  0  0
  -26.2984  -12.9404   20.3335 N   0  0  0  0  0  0
  -25.9347  -11.6553   20.5789 N   0  0  0  0  0  0
  -22.0478  -12.8266   22.0415 N   0  0  0  0  0  0
  -25.4270  -15.1918   20.4078 N   0  0  0  0  0  0
  -31.7642  -14.8335   20.0486 O   0  0  0  0  0  0
  -21.6640   -6.8888   21.4242 O   0  0  0  0  0  0
  -22.3546  -14.5560   20.6694 O   0  0  0  0  0  0
  -24.6297  -31.8546   23.2012 C   0  0  0  0  0  0
  -25.9127  -32.4742   23.8348 C   0  0  1  0  0  0
  -27.2199  -27.2718   20.1155 C   0  0  0  0  0  0
  -25.5918  -33.8550   24.2267 N   0  0  0  0  0  0
  -23.4262  -30.4793   21.5447 C   0  0  2  0  0  0
  -24.8725  -28.9311   20.1091 C   0  0  0  0  0  0
  -22.7487  -29.4585   22.4908 C   0  0  0  0  0  0
  -18.0277  -28.1382   22.8472 C   0  0  0  0  0  0
  -24.1476  -36.7282   23.2635 C   0  0  0  0  0  0
  -25.9722  -30.7694   21.3813 C   0  0  0  0  0  0
  -26.0446  -29.3935   20.7215 C   0  0  0  0  0  0
  -27.2193  -28.5750   20.7188 C   0  0  0  0  0  0
  -26.0264  -26.8857   19.4609 C   0  0  0  0  0  0
  -24.8676  -27.6832   19.4708 C   0  0  0  0  0  0
  -23.6442  -29.8176   20.1588 C   0  0  0  0  0  0
  -25.4097  -36.3059   24.0323 C   0  0  1  0  0  0
  -20.5875  -28.3686   23.1260 C   0  0  2  0  0  0
  -20.6754  -26.9399   22.5406 C   0  0  0  0  0  0
  -19.5736  -26.6375   21.5199 C   0  0  0  0  0  0
  -18.1918  -26.7920   22.1615 C   0  0  0  0  0  0
  -19.1531  -28.8857   23.2852 C   0  0  0  0  0  0
  -18.9469  -30.1455   23.8879 C   0  0  0  0  0  0
  -17.6470  -30.6576   24.0567 C   0  0  0  0  0  0
  -25.9050  -34.9431   23.5101 C   0  0  0  0  0  0
  -16.5358  -29.9087   23.6323 C   0  0  0  0  0  0
  -16.7267  -28.6501   23.0350 C   0  0  0  0  0  0
  -26.4507  -31.6558   25.0731 C   0  0  0  0  0  0
  -25.3754  -31.3744   26.1484 C   0  0  0  0  0  0
  -27.0336  -30.2957   24.6221 C   0  0  0  0  0  0
  -27.6059  -32.4309   25.7494 C   0  0  0  0  0  0
  -27.5570  -37.1782   24.8448 C   0  0  0  0  0  0
  -21.4191  -29.3033   22.3653 N   0  0  0  0  0  0
  -26.4264  -37.3766   23.9417 N   0  0  0  0  0  0
  -24.6952  -31.0518   22.0985 N   0  0  0  0  0  0
  -23.4190  -28.8109   23.2992 O   0  0  0  0  0  0
  -28.3129  -26.3743   20.1827 O   0  0  0  0  0  0
  -26.5629  -34.8908   22.4675 O   0  0  0  0  0  0
  -23.5448  -32.1380   23.7302 O   0  0  0  0  0  0
  -28.8040  -19.4396   18.8141 C   0  0  0  0  0  0
  -29.1469  -17.0068   18.8435 C   0  0  0  0  0  0
  -29.6955  -18.3574   20.7852 C   0  0  0  0  0  0
  -28.7135  -18.1738   18.1772 C   0  0  0  0  0  0
  -29.2965  -19.6095   20.1382 C   0  0  0  0  0  0
  -29.6348  -17.0522   20.1644 C   0  0  0  0  0  0
  -29.7472  -21.2432   22.0056 C   0  0  0  0  0  0
  -29.9828  -22.6764   22.5098 C   0  0  0  0  0  0
  -28.9964  -23.7145   21.9748 C   0  0  0  0  0  0
  -28.8143  -22.2249   19.9344 C   0  0  0  0  0  0
  -29.0451  -23.7451   20.4536 C   0  0  1  0  0  0
  -26.5932  -18.4344   16.8094 C   0  0  0  0  0  0
  -28.8480  -18.8483   15.7160 C   0  0  0  0  0  0
  -28.0876  -24.9170   19.8890 C   0  0  0  0  0  0
  -28.0815  -18.0541   16.7832 C   0  0  0  0  0  0
  -29.3385  -21.0079   20.7197 N   0  0  0  0  0  0
  -29.8564  -15.7719   20.8584 N   0  0  0  0  0  0
  -29.9648  -20.3615   22.8394 O   0  0  0  0  0  0
  -28.1153  -16.7831   16.3725 F   0  0  0  0  0  0
  -31.4808  -12.5137   19.1972 H   0  0  0  0  0  0
  -30.3497  -11.4215   19.9365 H   0  0  0  0  0  0
  -29.7939  -11.7524   17.5092 H   0  0  0  0  0  0
  -29.6756  -13.4767   17.7522 H   0  0  0  0  0  0
  -27.8760  -11.3046   18.8763 H   0  0  0  0  0  0
  -27.3939  -12.5835   17.7951 H   0  0  0  0  0  0
  -27.6645  -14.2631   19.5245 H   0  0  0  0  0  0
  -28.7065  -12.0959   21.4077 H   0  0  0  0  0  0
  -28.4347  -13.7619   21.8407 H   0  0  0  0  0  0
  -25.2776   -9.5636   22.4803 H   0  0  0  0  0  0
  -23.9973   -7.4606   22.7451 H   0  0  0  0  0  0
  -21.0860   -8.8814   19.8966 H   0  0  0  0  0  0
  -22.3730  -10.9706   19.6195 H   0  0  0  0  0  0
  -21.1992   -7.6140   23.9713 H   0  0  0  0  0  0
  -21.1488   -6.0521   25.9081 H   0  0  0  0  0  0
  -22.0603   -2.7603   23.2855 H   0  0  0  0  0  0
  -22.4076  -11.9925   22.4822 H   0  0  0  0  0  0
  -21.1099  -13.1331   22.2606 H   0  0  0  0  0  0
  -24.6657  -15.8539   20.5084 H   0  0  0  0  0  0
  -26.2764  -15.6190   20.0644 H   0  0  0  0  0  0
  -26.7185  -32.5411   23.1086 H   0  0  0  0  0  0
  -25.0026  -33.9690   25.0383 H   0  0  0  0  0  0
  -22.7228  -31.3012   21.3999 H   0  0  0  0  0  0
  -23.3726  -35.9625   23.3284 H   0  0  0  0  0  0
  -24.3561  -36.8921   22.2050 H   0  0  0  0  0  0
  -23.7259  -37.6487   23.6680 H   0  0  0  0  0  0
  -26.1100  -31.5299   20.6116 H   0  0  0  0  0  0
  -26.8503  -30.8174   22.0131 H   0  0  0  0  0  0
  -28.1138  -28.9212   21.2189 H   0  0  0  0  0  0
  -25.9529  -25.9435   18.9384 H   0  0  0  0  0  0
  -23.9724  -27.3280   18.9779 H   0  0  0  0  0  0
  -23.7693  -30.5975   19.4068 H   0  0  0  0  0  0
  -22.7621  -29.2533   19.8498 H   0  0  0  0  0  0
  -25.1269  -36.1896   25.0812 H   0  0  0  0  0  0
  -20.9958  -28.3276   24.1385 H   0  0  0  0  0  0
  -20.5607  -26.2306   23.3619 H   0  0  0  0  0  0
  -21.6636  -26.7391   22.1241 H   0  0  0  0  0  0
  -19.6893  -25.6288   21.1225 H   0  0  0  0  0  0
  -19.6669  -27.3178   20.6727 H   0  0  0  0  0  0
  -17.4179  -26.6650   21.4029 H   0  0  0  0  0  0
  -18.0317  -26.0065   22.9014 H   0  0  0  0  0  0
  -19.7958  -30.7264   24.2237 H   0  0  0  0  0  0
  -17.5043  -31.6258   24.5165 H   0  0  0  0  0  0
  -15.5369  -30.3003   23.7660 H   0  0  0  0  0  0
  -15.8658  -28.0834   22.7078 H   0  0  0  0  0  0
  -24.5911  -30.7080   25.7876 H   0  0  0  0  0  0
  -24.8976  -32.2931   26.4897 H   0  0  0  0  0  0
  -25.8106  -30.8969   27.0271 H   0  0  0  0  0  0
  -26.2911  -29.6713   24.1238 H   0  0  0  0  0  0
  -27.3975  -29.7217   25.4751 H   0  0  0  0  0  0
  -27.8811  -30.4189   23.9477 H   0  0  0  0  0  0
  -27.2640  -33.3600   26.2067 H   0  0  0  0  0  0
  -28.3871  -32.6882   25.0330 H   0  0  0  0  0  0
  -28.0716  -31.8444   26.5424 H   0  0  0  0  0  0
  -28.2570  -38.0096   24.7514 H   0  0  0  0  0  0
  -28.1083  -36.2633   24.6226 H   0  0  0  0  0  0
  -27.2299  -37.1375   25.8853 H   0  0  0  0  0  0
  -20.9364  -29.8806   21.6909 H   0  0  0  0  0  0
  -26.0129  -38.2820   24.1473 H   0  0  0  0  0  0
  -28.4482  -20.2890   18.2515 H   0  0  0  0  0  0
  -29.0475  -16.0483   18.3544 H   0  0  0  0  0  0
  -30.0517  -18.3439   21.8021 H   0  0  0  0  0  0
  -31.0033  -22.9622   22.2575 H   0  0  0  0  0  0
  -29.9337  -22.6724   23.5997 H   0  0  0  0  0  0
  -29.2510  -24.6975   22.3743 H   0  0  0  0  0  0
  -27.9863  -23.4877   22.3208 H   0  0  0  0  0  0
  -29.2266  -22.1831   18.9265 H   0  0  0  0  0  0
  -27.7398  -22.0695   19.8242 H   0  0  0  0  0  0
  -30.0618  -24.0197   20.1652 H   0  0  0  0  0  0
  -26.4425  -19.4720   17.1075 H   0  0  0  0  0  0
  -26.0406  -17.8032   17.5061 H   0  0  0  0  0  0
  -26.1363  -18.3065   15.8275 H   0  0  0  0  0  0
  -28.8679  -19.9157   15.9332 H   0  0  0  0  0  0
  -28.3875  -18.7247   14.7348 H   0  0  0  0  0  0
  -29.8780  -18.5036   15.6364 H   0  0  0  0  0  0
  -27.0953  -24.6468   20.2513 H   0  0  0  0  0  0
  -28.0513  -24.8237   18.8024 H   0  0  0  0  0  0
  -29.0738  -15.4935   21.4316 H   0  0  0  0  0  0
  1 25  1  0  0  0
  1 30  2  0  0  0
  1 87  1  0  0  0
  2  3  1  0  0  0
  2 25  1  0  0  0
  2 90  1  0  0  0
  2 91  1  0  0  0
  3  4  1  0  0  0
  3 92  1  0  0  0
  3 93  1  0  0  0
  4  5  1  0  0  0
  4 94  1  0  0  0
  4 95  1  0  0  0
  5  6  1  0  0  0
  5 26  1  0  0  0
  5 96  1  0  0  0
  6 25  1  0  0  0
  6 97  1  0  0  0
  6 98  1  0  0  0
  7  8  2  0  0  0
  7 26  1  0  0  0
  7 29  1  0  0  0
  8  9  1  0  0  0
  8 22  1  0  0  0
  9 10  1  0  0  0
  9 27  2  0  0  0
 10 11  2  0  0  0
 10 15  1  0  0  0
 11 12  1  0  0  0
 11 99  1  0  0  0
 12 13  2  0  0  0
 12100  1  0  0  0
 13 14  1  0  0  0
 13 31  1  0  0  0
 14 15  2  0  0  0
 14101  1  0  0  0
 15102  1  0  0  0
 16 17  2  0  0  0
 16 21  1  0  0  0
 16 31  1  0  0  0
 17 18  1  0  0  0
 17103  1  0  0  0
 18 19  2  0  0  0
 18104  1  0  0  0
 19 20  1  0  0  0
 19 24  1  0  0  0
 20 21  2  0  0  0
 20105  1  0  0  0
 21 23  1  0  0  0
 22 28  1  0  0  0
 22 32  2  0  0  0
 26 27  1  0  0  0
 28106  1  0  0  0
 28107  1  0  0  0
 29108  1  0  0  0
 29109  1  0  0  0
 33 34  1  0  0  0
 33 66  1  0  0  0
 33 70  2  0  0  0
 34 36  1  0  0  0
 34 59  1  0  0  0
 34110  1  0  0  0
 35 44  2  0  0  0
 35 45  1  0  0  0
 35 68  1  0  0  0
 36 56  1  0  0  0
 36111  1  0  0  0
 37 39  1  0  0  0
 37 47  1  0  0  0
 37 66  1  0  0  0
 37112  1  0  0  0
 38 43  2  0  0  0
 38 46  1  0  0  0
 38 47  1  0  0  0
 39 64  1  0  0  0
 39 67  2  0  0  0
 40 52  1  0  0  0
 40 53  2  0  0  0
 40 58  1  0  0  0
 41113  1  0  0  0
 41114  1  0  0  0
 41115  1  0  0  0
 41 48  1  0  0  0
 42 43  1  0  0  0
 42 66  1  0  0  0
 42116  1  0  0  0
 42117  1  0  0  0
 43 44  1  0  0  0
 44118  1  0  0  0
 45 46  2  0  0  0
 45119  1  0  0  0
 46120  1  0  0  0
 47121  1  0  0  0
 47122  1  0  0  0
 48 56  1  0  0  0
 48 65  1  0  0  0
 48123  1  0  0  0
 49 50  1  0  0  0
 49 53  1  0  0  0
 49 64  1  0  0  0
 49124  1  0  0  0
 50 51  1  0  0  0
 50125  1  0  0  0
 50126  1  0  0  0
 51 52  1  0  0  0
 51127  1  0  0  0
 51128  1  0  0  0
 52129  1  0  0  0
 52130  1  0  0  0
 53 54  1  0  0  0
 54 55  2  0  0  0
 54131  1  0  0  0
 55 57  1  0  0  0
 55132  1  0  0  0
 56 69  2  0  0  0
 57 58  2  0  0  0
 57133  1  0  0  0
 58134  1  0  0  0
 59 60  1  0  0  0
 59 61  1  0  0  0
 59 62  1  0  0  0
 60135  1  0  0  0
 60136  1  0  0  0
 60137  1  0  0  0
 61138  1  0  0  0
 61139  1  0  0  0
 61140  1  0  0  0
 62141  1  0  0  0
 62142  1  0  0  0
 62143  1  0  0  0
 63 65  1  0  0  0
 63144  1  0  0  0
 63145  1  0  0  0
 63146  1  0  0  0
 64147  1  0  0  0
 65148  1  0  0  0
 68 84  1  0  0  0
 71 74  2  0  0  0
 71 75  1  0  0  0
 71149  1  0  0  0
 72 74  1  0  0  0
 72 76  2  0  0  0
 72150  1  0  0  0
 73 75  2  0  0  0
 73 76  1  0  0  0
 73151  1  0  0  0
 74 85  1  0  0  0
 75 86  1  0  0  0
 76 87  1  0  0  0
 77 78  1  0  0  0
 77 86  1  0  0  0
 77 88  2  0  0  0
 78 79  1  0  0  0
 78152  1  0  0  0
 78153  1  0  0  0
 79 81  1  0  0  0
 79154  1  0  0  0
 79155  1  0  0  0
 80 81  1  0  0  0
 80 86  1  0  0  0
 80156  1  0  0  0
 80157  1  0  0  0
 81 84  1  0  0  0
 81158  1  0  0  0
 82159  1  0  0  0
 82160  1  0  0  0
 82161  1  0  0  0
 82 85  1  0  0  0
 83 85  1  0  0  0
 83162  1  0  0  0
 83163  1  0  0  0
 83164  1  0  0  0
 84165  1  0  0  0
 84166  1  0  0  0
 85 89  1  0  0  0
 87167  1  0  0  0
M  ISO  4   1 100  68 101  84 101  87 100
M  END
> <chiral flag>
0

> <version>
0

> <s_m_source_file>
/data/baiqing/PycharmProjects/Reinvent-master-3.2/result/LINK_invent/BTK/process_docking_weight1_custom_product_contain_oxygen_bond_distance_aromatic_linkinvent_7_9_3/rearranged_h_0063.sdf

> <i_m_source_file_index>
69

> <r_mmod_Potential_Energy-OPLS-2005>
235.714263916016

> <r_mmod_Stretch_Energy-OPLS-2005>
132.099594116211

> <r_mmod_Bend_Energy-OPLS-2005>
168.565719604492

> <r_mmod_Torsional_Energy-OPLS-2005>
290.818908691406

> <r_mmod_Improper_Torsional_Energy-OPLS-2005>
6.11089658737183

> <r_mmod_Van_der_Waal_Energy-OPLS-2005>
159.815521240234

> <r_mmod_Electrostatic_Energy-OPLS-2005>
-374.265380859375

> <r_mmod_Solvation_Energy-OPLS-2005>
-218.029800415039

> <b_mmod_Minimization_Converged-OPLS-2005>
0

> <r_mmod_RMS_Derivative-OPLS-2005>
3.1280837059021

$$$$
70
                    3D
 Structure written by MMmdl.
149157  0  0  1  0            999 V2000
  -30.6111  -14.7813   20.4144 C   0  0  0  0  0  0
  -30.4230  -12.4701   19.4763 C   0  0  0  0  0  0
  -29.5111  -12.5413   18.2322 C   0  0  0  0  0  0
  -28.0308  -12.3804   18.6319 C   0  0  0  0  0  0
  -27.6417  -13.2521   19.8565 C   0  0  2  0  0  0
  -28.6923  -13.1846   20.9872 C   0  0  0  0  0  0
  -25.2510  -13.8233   20.5768 C   0  0  0  0  0  0
  -24.1793  -13.0448   20.9185 C   0  0  0  0  0  0
  -24.6407  -11.6929   20.8689 C   0  0  0  0  0  0
  -23.9077  -10.4302   21.0347 C   0  0  0  0  0  0
  -24.3621   -9.4222   21.9138 C   0  0  0  0  0  0
  -23.6281   -8.2271   22.0728 C   0  0  0  0  0  0
  -22.4273   -8.0281   21.3523 C   0  0  0  0  0  0
  -21.9895   -9.0258   20.4641 C   0  0  0  0  0  0
  -22.7232  -10.2129   20.3023 C   0  0  0  0  0  0
  -21.6863   -6.0727   22.5276 C   0  0  0  0  0  0
  -21.4030   -6.5632   23.8206 C   0  0  0  0  0  0
  -21.3659   -5.6792   24.9172 C   0  0  0  0  0  0
  -21.6042   -4.3058   24.7221 C   0  0  0  0  0  0
  -21.8819   -3.8148   23.4351 C   0  0  0  0  0  0
  -21.9201   -4.6962   22.3399 C   0  0  0  0  0  0
  -22.7825  -13.5210   21.1871 C   0  0  0  0  0  0
  -22.1653   -4.2146   21.0977 F   0  0  0  0  0  0
  -21.5627   -3.4539   25.7729 F   0  0  0  0  0  0
  -29.9898  -13.5463   20.4024 N   0  0  0  0  0  0
  -26.2953  -12.9486   20.3326 N   0  0  0  0  0  0
  -25.9350  -11.6592   20.5717 N   0  0  0  0  0  0
  -22.0489  -12.8189   22.0439 N   0  0  0  0  0  0
  -25.4205  -15.1973   20.4330 N   0  0  0  0  0  0
  -31.8070  -14.8452   20.1148 O   0  0  0  0  0  0
  -21.6641   -6.8876   21.4238 O   0  0  0  0  0  0
  -22.3486  -14.5503   20.6715 O   0  0  0  0  0  0
  -24.6376  -31.8494   23.1939 C   0  0  0  0  0  0
  -25.9190  -32.4704   23.8306 C   0  0  1  0  0  0
  -27.2342  -27.2178   20.1412 C   0  0  0  0  0  0
  -25.5998  -33.8512   24.2236 N   0  0  0  0  0  0
  -23.4371  -30.4708   21.5339 C   0  0  2  0  0  0
  -24.8883  -28.9051   20.1068 C   0  0  0  0  0  0
  -22.7531  -29.4585   22.4855 C   0  0  0  0  0  0
  -18.0309  -28.1388   22.8483 C   0  0  0  0  0  0
  -24.1503  -36.7246   23.2633 C   0  0  0  0  0  0
  -25.9865  -30.7436   21.3843 C   0  0  0  0  0  0
  -26.0585  -29.3658   20.7219 C   0  0  0  0  0  0
  -27.2291  -28.5355   20.7274 C   0  0  0  0  0  0
  -26.0362  -26.8297   19.4999 C   0  0  0  0  0  0
  -24.8849  -27.6465   19.4846 C   0  0  0  0  0  0
  -23.6607  -29.8000   20.1507 C   0  0  0  0  0  0
  -25.4134  -36.3034   24.0322 C   0  0  1  0  0  0
  -20.5919  -28.3724   23.1231 C   0  0  2  0  0  0
  -20.6800  -26.9418   22.5404 C   0  0  0  0  0  0
  -19.5768  -26.6371   21.5215 C   0  0  0  0  0  0
  -18.1954  -26.7929   22.1617 C   0  0  0  0  0  0
  -19.1566  -28.8869   23.2859 C   0  0  0  0  0  0
  -18.9481  -30.1466   23.8884 C   0  0  0  0  0  0
  -17.6480  -30.6583   24.0563 C   0  0  0  0  0  0
  -25.9090  -34.9407   23.5077 C   0  0  0  0  0  0
  -16.5370  -29.9080   23.6330 C   0  0  0  0  0  0
  -16.7296  -28.6493   23.0354 C   0  0  0  0  0  0
  -26.4539  -31.6556   25.0722 C   0  0  0  0  0  0
  -25.3757  -31.3744   26.1443 C   0  0  0  0  0  0
  -27.0374  -30.2947   24.6276 C   0  0  0  0  0  0
  -27.6117  -32.4290   25.7472 C   0  0  0  0  0  0
  -27.5592  -37.1773   24.8453 C   0  0  0  0  0  0
  -21.4230  -29.3062   22.3601 N   0  0  0  0  0  0
  -26.4291  -37.3758   23.9415 N   0  0  0  0  0  0
  -24.7057  -31.0427   22.0921 N   0  0  0  0  0  0
  -23.4204  -28.8131   23.2985 O   0  0  0  0  0  0
  -28.3223  -26.3051   20.2540 O   0  0  0  0  0  0
  -26.5640  -34.8905   22.4633 O   0  0  0  0  0  0
  -23.5522  -32.1324   23.7220 O   0  0  0  0  0  0
  -30.1695  -19.8217   18.5525 C   0  0  0  0  0  0
  -30.5679  -18.6035   17.9669 C   0  0  0  0  0  0
  -29.5558  -18.5937   20.5545 C   0  0  0  0  0  0
  -29.6136  -19.8872   19.8510 C   0  0  0  0  0  0
  -29.9837  -17.3056   19.9810 C   0  0  0  0  0  0
  -30.4604  -17.3751   18.6458 C   0  0  0  0  0  0
  -28.7450  -23.7619   20.3785 C   0  0  0  0  0  0
  -28.3122  -24.9484   19.7670 C   0  0  0  0  0  0
  -28.7933  -22.4013   19.6903 C   0  0  0  0  0  0
  -29.2268  -21.2509   20.3768 N   0  0  0  0  0  0
  -29.8620  -15.9445   20.6173 N   0  0  0  0  0  0
  -28.4337  -22.2943   18.5151 O   0  0  0  0  0  0
  -30.7839  -16.2525   17.9616 F   0  0  0  0  0  0
  -31.4697  -12.5695   19.1817 H   0  0  0  0  0  0
  -30.3379  -11.4919   19.9507 H   0  0  0  0  0  0
  -29.7884  -11.7750   17.5081 H   0  0  0  0  0  0
  -29.6554  -13.4992   17.7311 H   0  0  0  0  0  0
  -27.8602  -11.3274   18.8564 H   0  0  0  0  0  0
  -27.3863  -12.6235   17.7870 H   0  0  0  0  0  0
  -27.6328  -14.2812   19.4968 H   0  0  0  0  0  0
  -28.7324  -12.1832   21.4185 H   0  0  0  0  0  0
  -28.4353  -13.8622   21.8028 H   0  0  0  0  0  0
  -25.2767   -9.5709   22.4718 H   0  0  0  0  0  0
  -23.9987   -7.4679   22.7458 H   0  0  0  0  0  0
  -21.0809   -8.8770   19.8975 H   0  0  0  0  0  0
  -22.3655  -10.9647   19.6141 H   0  0  0  0  0  0
  -21.2027   -7.6141   23.9700 H   0  0  0  0  0  0
  -21.1467   -6.0527   25.9064 H   0  0  0  0  0  0
  -22.0597   -2.7608   23.2861 H   0  0  0  0  0  0
  -22.4097  -11.9829   22.4786 H   0  0  0  0  0  0
  -21.1113  -13.1221   22.2665 H   0  0  0  0  0  0
  -24.6681  -15.8574   20.5960 H   0  0  0  0  0  0
  -26.2917  -15.6443   20.1794 H   0  0  0  0  0  0
  -26.7254  -32.5309   23.1035 H   0  0  0  0  0  0
  -25.0253  -33.9656   25.0454 H   0  0  0  0  0  0
  -22.7384  -31.2966   21.3834 H   0  0  0  0  0  0
  -23.3798  -35.9541   23.3254 H   0  0  0  0  0  0
  -24.3603  -36.8901   22.2050 H   0  0  0  0  0  0
  -23.7221  -37.6419   23.6693 H   0  0  0  0  0  0
  -26.1531  -31.5036   20.6201 H   0  0  0  0  0  0
  -26.8518  -30.7774   22.0330 H   0  0  0  0  0  0
  -28.1182  -28.8827   21.2348 H   0  0  0  0  0  0
  -25.9544  -25.8553   19.0445 H   0  0  0  0  0  0
  -23.9879  -27.2806   19.0035 H   0  0  0  0  0  0
  -23.7974  -30.5762   19.3965 H   0  0  0  0  0  0
  -22.7755  -29.2420   19.8367 H   0  0  0  0  0  0
  -25.1325  -36.1859   25.0819 H   0  0  0  0  0  0
  -21.0044  -28.3308   24.1341 H   0  0  0  0  0  0
  -20.5699  -26.2334   23.3629 H   0  0  0  0  0  0
  -21.6663  -26.7434   22.1185 H   0  0  0  0  0  0
  -19.6940  -25.6277   21.1253 H   0  0  0  0  0  0
  -19.6702  -27.3172   20.6738 H   0  0  0  0  0  0
  -17.4231  -26.6686   21.4015 H   0  0  0  0  0  0
  -18.0347  -26.0055   22.8997 H   0  0  0  0  0  0
  -19.7959  -30.7293   24.2230 H   0  0  0  0  0  0
  -17.5028  -31.6260   24.5162 H   0  0  0  0  0  0
  -15.5370  -30.2982   23.7651 H   0  0  0  0  0  0
  -15.8688  -28.0802   22.7089 H   0  0  0  0  0  0
  -24.5937  -30.7088   25.7776 H   0  0  0  0  0  0
  -24.8962  -32.2926   26.4846 H   0  0  0  0  0  0
  -25.8062  -30.8927   27.0232 H   0  0  0  0  0  0
  -26.2958  -29.6684   24.1302 H   0  0  0  0  0  0
  -27.4002  -29.7239   25.4841 H   0  0  0  0  0  0
  -27.8883  -30.4177   23.9575 H   0  0  0  0  0  0
  -27.2779  -33.3634   26.1997 H   0  0  0  0  0  0
  -28.3954  -32.6747   25.0293 H   0  0  0  0  0  0
  -28.0763  -31.8428   26.5414 H   0  0  0  0  0  0
  -28.2567  -38.0115   24.7569 H   0  0  0  0  0  0
  -28.1136  -36.2646   24.6200 H   0  0  0  0  0  0
  -27.2318  -37.1316   25.8856 H   0  0  0  0  0  0
  -20.9438  -29.8756   21.6762 H   0  0  0  0  0  0
  -26.0150  -38.2815   24.1463 H   0  0  0  0  0  0
  -30.3055  -20.7192   17.9679 H   0  0  0  0  0  0
  -30.9501  -18.6051   16.9563 H   0  0  0  0  0  0
  -29.1676  -18.5830   21.5629 H   0  0  0  0  0  0
  -29.0897  -23.8185   21.4021 H   0  0  0  0  0  0
  -27.9518  -24.9241   18.7473 H   0  0  0  0  0  0
  -29.3441  -21.3756   21.3732 H   0  0  0  0  0  0
  -28.9889  -15.7836   21.0942 H   0  0  0  0  0  0
  1 25  1  0  0  0
  1 30  2  0  0  0
  1 81  1  0  0  0
  2  3  1  0  0  0
  2 25  1  0  0  0
  2 84  1  0  0  0
  2 85  1  0  0  0
  3  4  1  0  0  0
  3 86  1  0  0  0
  3 87  1  0  0  0
  4  5  1  0  0  0
  4 88  1  0  0  0
  4 89  1  0  0  0
  5  6  1  0  0  0
  5 26  1  0  0  0
  5 90  1  0  0  0
  6 25  1  0  0  0
  6 91  1  0  0  0
  6 92  1  0  0  0
  7  8  2  0  0  0
  7 26  1  0  0  0
  7 29  1  0  0  0
  8  9  1  0  0  0
  8 22  1  0  0  0
  9 10  1  0  0  0
  9 27  2  0  0  0
 10 11  2  0  0  0
 10 15  1  0  0  0
 11 12  1  0  0  0
 11 93  1  0  0  0
 12 13  2  0  0  0
 12 94  1  0  0  0
 13 14  1  0  0  0
 13 31  1  0  0  0
 14 15  2  0  0  0
 14 95  1  0  0  0
 15 96  1  0  0  0
 16 17  2  0  0  0
 16 21  1  0  0  0
 16 31  1  0  0  0
 17 18  1  0  0  0
 17 97  1  0  0  0
 18 19  2  0  0  0
 18 98  1  0  0  0
 19 20  1  0  0  0
 19 24  1  0  0  0
 20 21  2  0  0  0
 20 99  1  0  0  0
 21 23  1  0  0  0
 22 28  1  0  0  0
 22 32  2  0  0  0
 26 27  1  0  0  0
 28100  1  0  0  0
 28101  1  0  0  0
 29102  1  0  0  0
 29103  1  0  0  0
 33 34  1  0  0  0
 33 66  1  0  0  0
 33 70  2  0  0  0
 34 36  1  0  0  0
 34 59  1  0  0  0
 34104  1  0  0  0
 35 44  2  0  0  0
 35 45  1  0  0  0
 35 68  1  0  0  0
 36 56  1  0  0  0
 36105  1  0  0  0
 37 39  1  0  0  0
 37 47  1  0  0  0
 37 66  1  0  0  0
 37106  1  0  0  0
 38 43  2  0  0  0
 38 46  1  0  0  0
 38 47  1  0  0  0
 39 64  1  0  0  0
 39 67  2  0  0  0
 40 52  1  0  0  0
 40 53  2  0  0  0
 40 58  1  0  0  0
 41107  1  0  0  0
 41108  1  0  0  0
 41109  1  0  0  0
 41 48  1  0  0  0
 42 43  1  0  0  0
 42 66  1  0  0  0
 42110  1  0  0  0
 42111  1  0  0  0
 43 44  1  0  0  0
 44112  1  0  0  0
 45 46  2  0  0  0
 45113  1  0  0  0
 46114  1  0  0  0
 47115  1  0  0  0
 47116  1  0  0  0
 48 56  1  0  0  0
 48 65  1  0  0  0
 48117  1  0  0  0
 49 50  1  0  0  0
 49 53  1  0  0  0
 49 64  1  0  0  0
 49118  1  0  0  0
 50 51  1  0  0  0
 50119  1  0  0  0
 50120  1  0  0  0
 51 52  1  0  0  0
 51121  1  0  0  0
 51122  1  0  0  0
 52123  1  0  0  0
 52124  1  0  0  0
 53 54  1  0  0  0
 54 55  2  0  0  0
 54125  1  0  0  0
 55 57  1  0  0  0
 55126  1  0  0  0
 56 69  2  0  0  0
 57 58  2  0  0  0
 57127  1  0  0  0
 58128  1  0  0  0
 59 60  1  0  0  0
 59 61  1  0  0  0
 59 62  1  0  0  0
 60129  1  0  0  0
 60130  1  0  0  0
 60131  1  0  0  0
 61132  1  0  0  0
 61133  1  0  0  0
 61134  1  0  0  0
 62135  1  0  0  0
 62136  1  0  0  0
 62137  1  0  0  0
 63 65  1  0  0  0
 63138  1  0  0  0
 63139  1  0  0  0
 63140  1  0  0  0
 64141  1  0  0  0
 65142  1  0  0  0
 68 78  1  0  0  0
 71 72  2  0  0  0
 71 74  1  0  0  0
 71143  1  0  0  0
 72 76  1  0  0  0
 72144  1  0  0  0
 73 74  2  0  0  0
 73 75  1  0  0  0
 73145  1  0  0  0
 74 80  1  0  0  0
 75 76  2  0  0  0
 75 81  1  0  0  0
 76 83  1  0  0  0
 77 78  2  0  0  0
 77 79  1  0  0  0
 77146  1  0  0  0
 78147  1  0  0  0
 79 80  1  0  0  0
 79 82  2  0  0  0
 80148  1  0  0  0
 81149  1  0  0  0
M  ISO  4   1 100  68 101  78 101  81 100
M  END
> <chiral flag>
0

> <version>
0

> <s_m_source_file>
/data/baiqing/PycharmProjects/Reinvent-master-3.2/result/LINK_invent/BTK/process_docking_weight1_custom_product_contain_oxygen_bond_distance_aromatic_linkinvent_7_9_3/rearranged_h_0063.sdf

> <i_m_source_file_index>
70

> <r_mmod_Potential_Energy-OPLS-2005>
177.497711181641

> <r_mmod_Stretch_Energy-OPLS-2005>
156.90837097168

> <r_mmod_Bend_Energy-OPLS-2005>
172.632797241211

> <r_mmod_Torsional_Energy-OPLS-2005>
251.664505004883

> <r_mmod_Improper_Torsional_Energy-OPLS-2005>
4.80391883850098

> <r_mmod_Van_der_Waal_Energy-OPLS-2005>
143.739761352539

> <r_mmod_Electrostatic_Energy-OPLS-2005>
-424.214813232422

> <r_mmod_Solvation_Energy-OPLS-2005>
-236.316650390625

> <b_mmod_Minimization_Converged-OPLS-2005>
0

> <r_mmod_RMS_Derivative-OPLS-2005>
3.51092314720154

$$$$
71
                    3D
 Structure written by MMmdl.
160169  0  0  1  0            999 V2000
  -30.6345  -14.7398   20.4700 C   0  0  0  0  0  0
  -30.4205  -12.4547   19.4805 C   0  0  0  0  0  0
  -29.5085  -12.4899   18.2368 C   0  0  0  0  0  0
  -28.0345  -12.3173   18.6471 C   0  0  0  0  0  0
  -27.6321  -13.2316   19.8353 C   0  0  2  0  0  0
  -28.6720  -13.2018   20.9754 C   0  0  0  0  0  0
  -25.2465  -13.8221   20.5665 C   0  0  0  0  0  0
  -24.1791  -13.0469   20.9232 C   0  0  0  0  0  0
  -24.6374  -11.6938   20.8745 C   0  0  0  0  0  0
  -23.9056  -10.4302   21.0405 C   0  0  0  0  0  0
  -24.3612   -9.4208   21.9185 C   0  0  0  0  0  0
  -23.6272   -8.2252   22.0771 C   0  0  0  0  0  0
  -22.4256   -8.0297   21.3561 C   0  0  0  0  0  0
  -21.9877   -9.0270   20.4657 C   0  0  0  0  0  0
  -22.7228  -10.2130   20.3058 C   0  0  0  0  0  0
  -21.6863   -6.0721   22.5274 C   0  0  0  0  0  0
  -21.4038   -6.5620   23.8202 C   0  0  0  0  0  0
  -21.3655   -5.6780   24.9165 C   0  0  0  0  0  0
  -21.6032   -4.3041   24.7211 C   0  0  0  0  0  0
  -21.8834   -3.8137   23.4345 C   0  0  0  0  0  0
  -21.9220   -4.6951   22.3390 C   0  0  0  0  0  0
  -22.7807  -13.5260   21.1903 C   0  0  0  0  0  0
  -22.1710   -4.2146   21.0968 F   0  0  0  0  0  0
  -21.5587   -3.4522   25.7721 F   0  0  0  0  0  0
  -29.9708  -13.5370   20.3857 N   0  0  0  0  0  0
  -26.2880  -12.9432   20.3200 N   0  0  0  0  0  0
  -25.9295  -11.6573   20.5700 N   0  0  0  0  0  0
  -22.0410  -12.8274   22.0418 N   0  0  0  0  0  0
  -25.4130  -15.1961   20.4036 N   0  0  0  0  0  0
  -31.8401  -14.7462   20.1912 O   0  0  0  0  0  0
  -21.6655   -6.8876   21.4236 O   0  0  0  0  0  0
  -22.3525  -14.5605   20.6781 O   0  0  0  0  0  0
  -24.6310  -31.8554   23.1987 C   0  0  0  0  0  0
  -25.9144  -32.4750   23.8316 C   0  0  1  0  0  0
  -27.2014  -27.2772   20.1216 C   0  0  0  0  0  0
  -25.5956  -33.8550   24.2252 N   0  0  0  0  0  0
  -23.4247  -30.4788   21.5436 C   0  0  2  0  0  0
  -24.8652  -28.9226   20.1144 C   0  0  0  0  0  0
  -22.7494  -29.4598   22.4923 C   0  0  0  0  0  0
  -18.0292  -28.1390   22.8492 C   0  0  0  0  0  0
  -24.1493  -36.7279   23.2631 C   0  0  0  0  0  0
  -25.9681  -30.7735   21.3736 C   0  0  0  0  0  0
  -26.0384  -29.3959   20.7179 C   0  0  0  0  0  0
  -27.2174  -28.5861   20.7054 C   0  0  0  0  0  0
  -26.0086  -26.8550   19.5087 C   0  0  0  0  0  0
  -24.8525  -27.6589   19.5010 C   0  0  0  0  0  0
  -23.6396  -29.8127   20.1596 C   0  0  0  0  0  0
  -25.4116  -36.3055   24.0320 C   0  0  1  0  0  0
  -20.5895  -28.3691   23.1278 C   0  0  2  0  0  0
  -20.6782  -26.9410   22.5406 C   0  0  0  0  0  0
  -19.5753  -26.6383   21.5214 C   0  0  0  0  0  0
  -18.1935  -26.7933   22.1626 C   0  0  0  0  0  0
  -19.1547  -28.8861   23.2878 C   0  0  0  0  0  0
  -18.9466  -30.1465   23.8894 C   0  0  0  0  0  0
  -17.6462  -30.6582   24.0571 C   0  0  0  0  0  0
  -25.9068  -34.9430   23.5085 C   0  0  0  0  0  0
  -16.5355  -29.9084   23.6324 C   0  0  0  0  0  0
  -16.7279  -28.6504   23.0342 C   0  0  0  0  0  0
  -26.4516  -31.6572   25.0698 C   0  0  0  0  0  0
  -25.3755  -31.3725   26.1439 C   0  0  0  0  0  0
  -27.0348  -30.2981   24.6171 C   0  0  0  0  0  0
  -27.6058  -32.4320   25.7484 C   0  0  0  0  0  0
  -27.5584  -37.1784   24.8449 C   0  0  0  0  0  0
  -21.4201  -29.3038   22.3675 N   0  0  0  0  0  0
  -26.4278  -37.3768   23.9420 N   0  0  0  0  0  0
  -24.6936  -31.0538   22.0953 N   0  0  0  0  0  0
  -23.4203  -28.8136   23.3009 O   0  0  0  0  0  0
  -28.2984  -26.4029   20.0743 O   0  0  0  0  0  0
  -26.5628  -34.8911   22.4650 O   0  0  0  0  0  0
  -23.5466  -32.1367   23.7300 O   0  0  0  0  0  0
  -28.3522  -19.4617   18.3235 C   0  0  0  0  0  0
  -28.9185  -18.3532   18.9861 C   0  0  0  0  0  0
  -28.3829  -20.7559   18.8806 C   0  0  0  0  0  0
  -29.4665  -18.4585   20.2833 C   0  0  0  0  0  0
  -29.3158  -19.7831   20.9088 C   0  0  0  0  0  0
  -28.8963  -20.9929   20.1764 C   0  0  0  0  0  0
  -29.9270  -22.7918   21.5350 C   0  0  0  0  0  0
  -30.3238  -17.2454   20.7898 C   0  0  0  0  0  0
  -29.5701  -23.8916   22.5323 C   0  0  0  0  0  0
  -29.3092  -25.2038   21.8004 C   0  0  0  0  0  0
  -28.3694  -23.6503   19.9394 C   0  0  0  0  0  0
  -28.2126  -25.0679   20.7385 C   0  0  2  0  0  0
  -29.5010  -19.8753   22.4223 C   0  0  0  0  0  0
  -28.9645  -22.4204   20.6598 N   0  0  0  0  0  0
  -29.8967  -15.9214   20.6088 N   0  0  0  0  0  0
  -31.0738  -22.3331   21.5361 O   0  0  0  0  0  0
  -31.7973  -17.6411   21.5112 S   0  0  0  0  0  0
  -31.4626  -12.5666   19.1740 H   0  0  0  0  0  0
  -30.3566  -11.4882   19.9827 H   0  0  0  0  0  0
  -29.7927  -11.7035   17.5403 H   0  0  0  0  0  0
  -29.6363  -13.4321   17.7024 H   0  0  0  0  0  0
  -27.8872  -11.2701   18.9147 H   0  0  0  0  0  0
  -27.3873  -12.5050   17.7902 H   0  0  0  0  0  0
  -27.6112  -14.2422   19.4282 H   0  0  0  0  0  0
  -28.7068  -12.2212   21.4514 H   0  0  0  0  0  0
  -28.4013  -13.9176   21.7544 H   0  0  0  0  0  0
  -25.2758   -9.5684   22.4753 H   0  0  0  0  0  0
  -23.9984   -7.4645   22.7481 H   0  0  0  0  0  0
  -21.0815   -8.8781   19.8949 H   0  0  0  0  0  0
  -22.3699  -10.9667   19.6149 H   0  0  0  0  0  0
  -21.2052   -7.6129   23.9711 H   0  0  0  0  0  0
  -21.1459   -6.0502   25.9060 H   0  0  0  0  0  0
  -22.0617   -2.7603   23.2853 H   0  0  0  0  0  0
  -22.4050  -11.9971   22.4843 H   0  0  0  0  0  0
  -21.1008  -13.1315   22.2586 H   0  0  0  0  0  0
  -24.6309  -15.8370   20.4896 H   0  0  0  0  0  0
  -26.2351  -15.6298   20.0072 H   0  0  0  0  0  0
  -26.7209  -32.5401   23.1057 H   0  0  0  0  0  0
  -25.0105  -33.9682   25.0404 H   0  0  0  0  0  0
  -22.7205  -31.3002   21.3991 H   0  0  0  0  0  0
  -23.3756  -35.9609   23.3260 H   0  0  0  0  0  0
  -24.3593  -36.8938   22.2051 H   0  0  0  0  0  0
  -23.7244  -37.6469   23.6687 H   0  0  0  0  0  0
  -26.1047  -31.5327   20.6026 H   0  0  0  0  0  0
  -26.8479  -30.8212   22.0036 H   0  0  0  0  0  0
  -28.1247  -28.9446   21.1710 H   0  0  0  0  0  0
  -25.9685  -25.8829   19.0375 H   0  0  0  0  0  0
  -23.9530  -27.2908   19.0255 H   0  0  0  0  0  0
  -23.7690  -30.5879   19.4035 H   0  0  0  0  0  0
  -22.7556  -29.2502   19.8532 H   0  0  0  0  0  0
  -25.1291  -36.1883   25.0807 H   0  0  0  0  0  0
  -20.9992  -28.3267   24.1400 H   0  0  0  0  0  0
  -20.5681  -26.2296   23.3605 H   0  0  0  0  0  0
  -21.6650  -26.7434   22.1201 H   0  0  0  0  0  0
  -19.6907  -25.6298   21.1229 H   0  0  0  0  0  0
  -19.6679  -27.3205   20.6750 H   0  0  0  0  0  0
  -17.4199  -26.6685   21.4031 H   0  0  0  0  0  0
  -18.0325  -26.0078   22.9020 H   0  0  0  0  0  0
  -19.7941  -30.7291   24.2250 H   0  0  0  0  0  0
  -17.5010  -31.6254   24.5181 H   0  0  0  0  0  0
  -15.5355  -30.2977   23.7652 H   0  0  0  0  0  0
  -15.8681  -28.0822   22.7043 H   0  0  0  0  0  0
  -24.5920  -30.7082   25.7784 H   0  0  0  0  0  0
  -24.8978  -32.2903   26.4872 H   0  0  0  0  0  0
  -25.8098  -30.8899   27.0207 H   0  0  0  0  0  0
  -26.2909  -29.6735   24.1212 H   0  0  0  0  0  0
  -27.4043  -29.7234   25.4675 H   0  0  0  0  0  0
  -27.8789  -30.4235   23.9384 H   0  0  0  0  0  0
  -27.2642  -33.3612   26.2059 H   0  0  0  0  0  0
  -28.3883  -32.6902   25.0335 H   0  0  0  0  0  0
  -28.0723  -31.8459   26.5419 H   0  0  0  0  0  0
  -28.2551  -38.0128   24.7562 H   0  0  0  0  0  0
  -28.1132  -36.2669   24.6188 H   0  0  0  0  0  0
  -27.2321  -37.1317   25.8851 H   0  0  0  0  0  0
  -20.9383  -29.8777   21.6900 H   0  0  0  0  0  0
  -26.0141  -38.2825   24.1475 H   0  0  0  0  0  0
  -27.9403  -19.3291   17.3318 H   0  0  0  0  0  0
  -28.9642  -17.4133   18.4522 H   0  0  0  0  0  0
  -28.0051  -21.5692   18.2776 H   0  0  0  0  0  0
  -30.3789  -24.0151   23.2520 H   0  0  0  0  0  0
  -28.6890  -23.5839   23.0964 H   0  0  0  0  0  0
  -30.2347  -25.5343   21.3289 H   0  0  0  0  0  0
  -29.0355  -25.9809   22.5153 H   0  0  0  0  0  0
  -29.0090  -23.8357   19.0754 H   0  0  0  0  0  0
  -27.3982  -23.3847   19.5208 H   0  0  0  0  0  0
  -27.2612  -25.0111   21.2716 H   0  0  0  0  0  0
  -29.3214  -18.9138   22.9026 H   0  0  0  0  0  0
  -28.7812  -20.5668   22.8556 H   0  0  0  0  0  0
  -30.5052  -20.1960   22.6989 H   0  0  0  0  0  0
  -28.9044  -15.8064   20.4920 H   0  0  0  0  0  0
  1 25  1  0  0  0
  1 30  2  0  0  0
  1 85  1  0  0  0
  2  3  1  0  0  0
  2 25  1  0  0  0
  2 88  1  0  0  0
  2 89  1  0  0  0
  3  4  1  0  0  0
  3 90  1  0  0  0
  3 91  1  0  0  0
  4  5  1  0  0  0
  4 92  1  0  0  0
  4 93  1  0  0  0
  5  6  1  0  0  0
  5 26  1  0  0  0
  5 94  1  0  0  0
  6 25  1  0  0  0
  6 95  1  0  0  0
  6 96  1  0  0  0
  7  8  2  0  0  0
  7 26  1  0  0  0
  7 29  1  0  0  0
  8  9  1  0  0  0
  8 22  1  0  0  0
  9 10  1  0  0  0
  9 27  2  0  0  0
 10 11  2  0  0  0
 10 15  1  0  0  0
 11 12  1  0  0  0
 11 97  1  0  0  0
 12 13  2  0  0  0
 12 98  1  0  0  0
 13 14  1  0  0  0
 13 31  1  0  0  0
 14 15  2  0  0  0
 14 99  1  0  0  0
 15100  1  0  0  0
 16 17  2  0  0  0
 16 21  1  0  0  0
 16 31  1  0  0  0
 17 18  1  0  0  0
 17101  1  0  0  0
 18 19  2  0  0  0
 18102  1  0  0  0
 19 20  1  0  0  0
 19 24  1  0  0  0
 20 21  2  0  0  0
 20103  1  0  0  0
 21 23  1  0  0  0
 22 28  1  0  0  0
 22 32  2  0  0  0
 26 27  1  0  0  0
 28104  1  0  0  0
 28105  1  0  0  0
 29106  1  0  0  0
 29107  1  0  0  0
 33 34  1  0  0  0
 33 66  1  0  0  0
 33 70  2  0  0  0
 34 36  1  0  0  0
 34 59  1  0  0  0
 34108  1  0  0  0
 35 44  2  0  0  0
 35 45  1  0  0  0
 35 68  1  0  0  0
 36 56  1  0  0  0
 36109  1  0  0  0
 37 39  1  0  0  0
 37 47  1  0  0  0
 37 66  1  0  0  0
 37110  1  0  0  0
 38 43  2  0  0  0
 38 46  1  0  0  0
 38 47  1  0  0  0
 39 64  1  0  0  0
 39 67  2  0  0  0
 40 52  1  0  0  0
 40 53  2  0  0  0
 40 58  1  0  0  0
 41111  1  0  0  0
 41112  1  0  0  0
 41113  1  0  0  0
 41 48  1  0  0  0
 42 43  1  0  0  0
 42 66  1  0  0  0
 42114  1  0  0  0
 42115  1  0  0  0
 43 44  1  0  0  0
 44116  1  0  0  0
 45 46  2  0  0  0
 45117  1  0  0  0
 46118  1  0  0  0
 47119  1  0  0  0
 47120  1  0  0  0
 48 56  1  0  0  0
 48 65  1  0  0  0
 48121  1  0  0  0
 49 50  1  0  0  0
 49 53  1  0  0  0
 49 64  1  0  0  0
 49122  1  0  0  0
 50 51  1  0  0  0
 50123  1  0  0  0
 50124  1  0  0  0
 51 52  1  0  0  0
 51125  1  0  0  0
 51126  1  0  0  0
 52127  1  0  0  0
 52128  1  0  0  0
 53 54  1  0  0  0
 54 55  2  0  0  0
 54129  1  0  0  0
 55 57  1  0  0  0
 55130  1  0  0  0
 56 69  2  0  0  0
 57 58  2  0  0  0
 57131  1  0  0  0
 58132  1  0  0  0
 59 60  1  0  0  0
 59 61  1  0  0  0
 59 62  1  0  0  0
 60133  1  0  0  0
 60134  1  0  0  0
 60135  1  0  0  0
 61136  1  0  0  0
 61137  1  0  0  0
 61138  1  0  0  0
 62139  1  0  0  0
 62140  1  0  0  0
 62141  1  0  0  0
 63 65  1  0  0  0
 63142  1  0  0  0
 63143  1  0  0  0
 63144  1  0  0  0
 64145  1  0  0  0
 65146  1  0  0  0
 68 82  1  0  0  0
 71 72  2  0  0  0
 71 73  1  0  0  0
 71147  1  0  0  0
 72 74  1  0  0  0
 72148  1  0  0  0
 73 76  2  0  0  0
 73149  1  0  0  0
 74 75  2  0  0  0
 74 78  1  0  0  0
 75 76  1  0  0  0
 75 83  1  0  0  0
 76 84  1  0  0  0
 77 79  1  0  0  0
 77 84  1  0  0  0
 77 86  2  0  0  0
 78 85  1  0  0  0
 78 87  2  0  0  0
 79 80  1  0  0  0
 79150  1  0  0  0
 79151  1  0  0  0
 80 82  1  0  0  0
 80152  1  0  0  0
 80153  1  0  0  0
 81 82  1  0  0  0
 81 84  1  0  0  0
 81154  1  0  0  0
 81155  1  0  0  0
 82156  1  0  0  0
 83157  1  0  0  0
 83158  1  0  0  0
 83159  1  0  0  0
 85160  1  0  0  0
M  ISO  4   1 100  68 101  82 101  85 100
M  END
> <chiral flag>
0

> <version>
0

> <s_m_source_file>
/data/baiqing/PycharmProjects/Reinvent-master-3.2/result/LINK_invent/BTK/process_docking_weight1_custom_product_contain_oxygen_bond_distance_aromatic_linkinvent_7_9_3/rearranged_h_0063.sdf

> <i_m_source_file_index>
71

> <r_mmod_Potential_Energy-OPLS-2005>
309.81103515625

> <r_mmod_Stretch_Energy-OPLS-2005>
146.684127807617

> <r_mmod_Bend_Energy-OPLS-2005>
174.006683349609

> <r_mmod_Torsional_Energy-OPLS-2005>
355.258605957031

> <r_mmod_Improper_Torsional_Energy-OPLS-2005>
8.67149543762207

> <r_mmod_Van_der_Waal_Energy-OPLS-2005>
173.1767578125

> <r_mmod_Electrostatic_Energy-OPLS-2005>
-372.646362304688

> <r_mmod_Solvation_Energy-OPLS-2005>
-256.433807373047

> <b_mmod_Minimization_Converged-OPLS-2005>
0

> <r_mmod_RMS_Derivative-OPLS-2005>
3.43522119522095

$$$$
72
                    3D
 Structure written by MMmdl.
149157  0  0  1  0            999 V2000
  -30.5860  -14.8176   20.4625 C   0  0  0  0  0  0
  -30.4347  -12.5085   19.4732 C   0  0  0  0  0  0
  -29.5115  -12.5171   18.2349 C   0  0  0  0  0  0
  -28.0420  -12.3193   18.6537 C   0  0  0  0  0  0
  -27.6336  -13.2330   19.8398 C   0  0  2  0  0  0
  -28.6777  -13.2076   20.9755 C   0  0  0  0  0  0
  -25.2476  -13.8182   20.5667 C   0  0  0  0  0  0
  -24.1782  -13.0429   20.9208 C   0  0  0  0  0  0
  -24.6389  -11.6911   20.8751 C   0  0  0  0  0  0
  -23.9065  -10.4287   21.0406 C   0  0  0  0  0  0
  -24.3614   -9.4202   21.9182 C   0  0  0  0  0  0
  -23.6291   -8.2241   22.0760 C   0  0  0  0  0  0
  -22.4278   -8.0272   21.3548 C   0  0  0  0  0  0
  -21.9905   -9.0243   20.4652 C   0  0  0  0  0  0
  -22.7233  -10.2123   20.3052 C   0  0  0  0  0  0
  -21.6851   -6.0728   22.5278 C   0  0  0  0  0  0
  -21.4016   -6.5638   23.8211 C   0  0  0  0  0  0
  -21.3660   -5.6795   24.9178 C   0  0  0  0  0  0
  -21.6039   -4.3059   24.7230 C   0  0  0  0  0  0
  -21.8820   -3.8146   23.4357 C   0  0  0  0  0  0
  -21.9195   -4.6957   22.3409 C   0  0  0  0  0  0
  -22.7808  -13.5207   21.1873 C   0  0  0  0  0  0
  -22.1662   -4.2143   21.0986 F   0  0  0  0  0  0
  -21.5628   -3.4541   25.7744 F   0  0  0  0  0  0
  -29.9672  -13.5839   20.3835 N   0  0  0  0  0  0
  -26.2896  -12.9393   20.3223 N   0  0  0  0  0  0
  -25.9305  -11.6537   20.5727 N   0  0  0  0  0  0
  -22.0463  -12.8194   22.0435 N   0  0  0  0  0  0
  -25.4138  -15.1907   20.4062 N   0  0  0  0  0  0
  -31.7899  -14.8910   20.1936 O   0  0  0  0  0  0
  -21.6647   -6.8870   21.4242 O   0  0  0  0  0  0
  -22.3494  -14.5516   20.6722 O   0  0  0  0  0  0
  -24.6356  -31.8515   23.1963 C   0  0  0  0  0  0
  -25.9171  -32.4737   23.8316 C   0  0  1  0  0  0
  -27.2229  -27.2251   20.1484 C   0  0  0  0  0  0
  -25.5946  -33.8536   24.2235 N   0  0  0  0  0  0
  -23.4342  -30.4705   21.5406 C   0  0  2  0  0  0
  -24.8815  -28.9043   20.1198 C   0  0  0  0  0  0
  -22.7513  -29.4569   22.4917 C   0  0  0  0  0  0
  -18.0279  -28.1395   22.8494 C   0  0  0  0  0  0
  -24.1481  -36.7265   23.2643 C   0  0  0  0  0  0
  -25.9817  -30.7530   21.3793 C   0  0  0  0  0  0
  -26.0542  -29.3679   20.7303 C   0  0  0  0  0  0
  -27.2303  -28.5434   20.7296 C   0  0  0  0  0  0
  -26.0264  -26.8289   19.5182 C   0  0  0  0  0  0
  -24.8727  -27.6423   19.5029 C   0  0  0  0  0  0
  -23.6566  -29.7997   20.1587 C   0  0  0  0  0  0
  -25.4117  -36.3055   24.0325 C   0  0  1  0  0  0
  -20.5889  -28.3694   23.1279 C   0  0  2  0  0  0
  -20.6770  -26.9410   22.5414 C   0  0  0  0  0  0
  -19.5737  -26.6386   21.5219 C   0  0  0  0  0  0
  -18.1920  -26.7933   22.1646 C   0  0  0  0  0  0
  -19.1535  -28.8867   23.2877 C   0  0  0  0  0  0
  -18.9455  -30.1473   23.8885 C   0  0  0  0  0  0
  -17.6454  -30.6595   24.0563 C   0  0  0  0  0  0
  -25.9062  -34.9426   23.5079 C   0  0  0  0  0  0
  -16.5348  -29.9091   23.6339 C   0  0  0  0  0  0
  -16.7267  -28.6511   23.0361 C   0  0  0  0  0  0
  -26.4521  -31.6581   25.0719 C   0  0  0  0  0  0
  -25.3733  -31.3779   26.1437 C   0  0  0  0  0  0
  -27.0344  -30.2986   24.6223 C   0  0  0  0  0  0
  -27.6078  -32.4311   25.7482 C   0  0  0  0  0  0
  -27.5566  -37.1802   24.8479 C   0  0  0  0  0  0
  -21.4210  -29.3038   22.3670 N   0  0  0  0  0  0
  -26.4291  -37.3760   23.9401 N   0  0  0  0  0  0
  -24.7037  -31.0440   22.0956 N   0  0  0  0  0  0
  -23.4185  -28.8109   23.3037 O   0  0  0  0  0  0
  -28.3162  -26.3219   20.1017 O   0  0  0  0  0  0
  -26.5622  -34.8915   22.4638 O   0  0  0  0  0  0
  -23.5496  -32.1345   23.7244 O   0  0  0  0  0  0
  -31.7030  -19.0292   21.8449 C   0  0  0  0  0  0
  -30.9318  -20.1413   21.4512 C   0  0  0  0  0  0
  -31.3254  -17.7078   21.5318 C   0  0  0  0  0  0
  -29.3627  -18.6037   20.4066 C   0  0  0  0  0  0
  -29.7354  -19.9956   20.7138 C   0  0  0  0  0  0
  -30.1492  -17.4214   20.8034 C   0  0  0  0  0  0
  -28.7862  -23.7975   20.1511 C   0  0  0  0  0  0
  -28.2439  -24.9918   20.6445 C   0  0  0  0  0  0
  -28.8696  -22.4779   20.9098 C   0  0  0  0  0  0
  -29.0912  -21.2710   20.2326 N   0  0  0  0  0  0
  -29.7977  -15.9746   20.5795 N   0  0  0  0  0  0
  -28.7588  -22.4493   22.1375 O   0  0  0  0  0  0
  -31.4722  -12.6501   19.1659 H   0  0  0  0  0  0
  -30.3994  -11.5412   19.9760 H   0  0  0  0  0  0
  -29.8110  -11.7368   17.5332 H   0  0  0  0  0  0
  -29.6176  -13.4645   17.7038 H   0  0  0  0  0  0
  -27.9200  -11.2722   18.9354 H   0  0  0  0  0  0
  -27.3795  -12.4823   17.8032 H   0  0  0  0  0  0
  -27.6140  -14.2452   19.4365 H   0  0  0  0  0  0
  -28.7354  -12.2207   21.4358 H   0  0  0  0  0  0
  -28.3977  -13.9027   21.7689 H   0  0  0  0  0  0
  -25.2760   -9.5688   22.4759 H   0  0  0  0  0  0
  -24.0007   -7.4631   22.7474 H   0  0  0  0  0  0
  -21.0840   -8.8747   19.8955 H   0  0  0  0  0  0
  -22.3678  -10.9656   19.6162 H   0  0  0  0  0  0
  -21.2006   -7.6146   23.9709 H   0  0  0  0  0  0
  -21.1478   -6.0531   25.9078 H   0  0  0  0  0  0
  -22.0597   -2.7606   23.2858 H   0  0  0  0  0  0
  -22.4094  -11.9861   22.4821 H   0  0  0  0  0  0
  -21.1076  -13.1219   22.2646 H   0  0  0  0  0  0
  -24.6359  -15.8350   20.4994 H   0  0  0  0  0  0
  -26.2484  -15.6321   20.0440 H   0  0  0  0  0  0
  -26.7216  -32.5373   23.1034 H   0  0  0  0  0  0
  -25.0123  -33.9661   25.0404 H   0  0  0  0  0  0
  -22.7334  -31.2956   21.3926 H   0  0  0  0  0  0
  -23.3735  -35.9609   23.3351 H   0  0  0  0  0  0
  -24.3559  -36.8834   22.2045 H   0  0  0  0  0  0
  -23.7251  -37.6493   23.6633 H   0  0  0  0  0  0
  -26.1181  -31.5082   20.6040 H   0  0  0  0  0  0
  -26.8595  -30.8105   22.0112 H   0  0  0  0  0  0
  -28.1344  -28.9006   21.2006 H   0  0  0  0  0  0
  -25.9829  -25.8620   19.0361 H   0  0  0  0  0  0
  -23.9750  -27.2803   19.0198 H   0  0  0  0  0  0
  -23.7892  -30.5749   19.4034 H   0  0  0  0  0  0
  -22.7730  -29.2389   19.8511 H   0  0  0  0  0  0
  -25.1304  -36.1896   25.0821 H   0  0  0  0  0  0
  -20.9981  -28.3248   24.1406 H   0  0  0  0  0  0
  -20.5667  -26.2292   23.3613 H   0  0  0  0  0  0
  -21.6633  -26.7425   22.1214 H   0  0  0  0  0  0
  -19.6886  -25.6290   21.1257 H   0  0  0  0  0  0
  -19.6675  -27.3191   20.6742 H   0  0  0  0  0  0
  -17.4192  -26.6677   21.4052 H   0  0  0  0  0  0
  -18.0326  -26.0077   22.9048 H   0  0  0  0  0  0
  -19.7927  -30.7299   24.2244 H   0  0  0  0  0  0
  -17.5005  -31.6273   24.5165 H   0  0  0  0  0  0
  -15.5346  -30.2990   23.7674 H   0  0  0  0  0  0
  -15.8670  -28.0828   22.7079 H   0  0  0  0  0  0
  -24.5859  -30.7174   25.7778 H   0  0  0  0  0  0
  -24.8981  -32.2976   26.4857 H   0  0  0  0  0  0
  -25.8029  -30.8941   27.0215 H   0  0  0  0  0  0
  -26.2916  -29.6747   24.1235 H   0  0  0  0  0  0
  -27.3991  -29.7246   25.4751 H   0  0  0  0  0  0
  -27.8821  -30.4247   23.9483 H   0  0  0  0  0  0
  -27.2713  -33.3659   26.1977 H   0  0  0  0  0  0
  -28.3940  -32.6781   25.0333 H   0  0  0  0  0  0
  -28.0679  -31.8467   26.5459 H   0  0  0  0  0  0
  -28.2634  -38.0051   24.7461 H   0  0  0  0  0  0
  -28.1002  -36.2577   24.6385 H   0  0  0  0  0  0
  -27.2268  -37.1553   25.8882 H   0  0  0  0  0  0
  -20.9393  -29.8792   21.6904 H   0  0  0  0  0  0
  -26.0158  -38.2834   24.1386 H   0  0  0  0  0  0
  -32.6173  -19.1948   22.3979 H   0  0  0  0  0  0
  -31.2984  -21.1280   21.6981 H   0  0  0  0  0  0
  -31.9603  -16.9056   21.8815 H   0  0  0  0  0  0
  -28.4523  -18.4407   19.8477 H   0  0  0  0  0  0
  -29.2531  -23.8297   19.1774 H   0  0  0  0  0  0
  -27.7325  -25.0023   21.5975 H   0  0  0  0  0  0
  -28.9127  -21.3104   19.2387 H   0  0  0  0  0  0
  -28.8083  -15.7850   20.5410 H   0  0  0  0  0  0
  1 25  1  0  0  0
  1 30  2  0  0  0
  1 81  1  0  0  0
  2  3  1  0  0  0
  2 25  1  0  0  0
  2 83  1  0  0  0
  2 84  1  0  0  0
  3  4  1  0  0  0
  3 85  1  0  0  0
  3 86  1  0  0  0
  4  5  1  0  0  0
  4 87  1  0  0  0
  4 88  1  0  0  0
  5  6  1  0  0  0
  5 26  1  0  0  0
  5 89  1  0  0  0
  6 25  1  0  0  0
  6 90  1  0  0  0
  6 91  1  0  0  0
  7  8  2  0  0  0
  7 26  1  0  0  0
  7 29  1  0  0  0
  8  9  1  0  0  0
  8 22  1  0  0  0
  9 10  1  0  0  0
  9 27  2  0  0  0
 10 11  2  0  0  0
 10 15  1  0  0  0
 11 12  1  0  0  0
 11 92  1  0  0  0
 12 13  2  0  0  0
 12 93  1  0  0  0
 13 14  1  0  0  0
 13 31  1  0  0  0
 14 15  2  0  0  0
 14 94  1  0  0  0
 15 95  1  0  0  0
 16 17  2  0  0  0
 16 21  1  0  0  0
 16 31  1  0  0  0
 17 18  1  0  0  0
 17 96  1  0  0  0
 18 19  2  0  0  0
 18 97  1  0  0  0
 19 20  1  0  0  0
 19 24  1  0  0  0
 20 21  2  0  0  0
 20 98  1  0  0  0
 21 23  1  0  0  0
 22 28  1  0  0  0
 22 32  2  0  0  0
 26 27  1  0  0  0
 28 99  1  0  0  0
 28100  1  0  0  0
 29101  1  0  0  0
 29102  1  0  0  0
 33 34  1  0  0  0
 33 66  1  0  0  0
 33 70  2  0  0  0
 34 36  1  0  0  0
 34 59  1  0  0  0
 34103  1  0  0  0
 35 44  2  0  0  0
 35 45  1  0  0  0
 35 68  1  0  0  0
 36 56  1  0  0  0
 36104  1  0  0  0
 37 39  1  0  0  0
 37 47  1  0  0  0
 37 66  1  0  0  0
 37105  1  0  0  0
 38 43  2  0  0  0
 38 46  1  0  0  0
 38 47  1  0  0  0
 39 64  1  0  0  0
 39 67  2  0  0  0
 40 52  1  0  0  0
 40 53  2  0  0  0
 40 58  1  0  0  0
 41106  1  0  0  0
 41107  1  0  0  0
 41108  1  0  0  0
 41 48  1  0  0  0
 42 43  1  0  0  0
 42 66  1  0  0  0
 42109  1  0  0  0
 42110  1  0  0  0
 43 44  1  0  0  0
 44111  1  0  0  0
 45 46  2  0  0  0
 45112  1  0  0  0
 46113  1  0  0  0
 47114  1  0  0  0
 47115  1  0  0  0
 48 56  1  0  0  0
 48 65  1  0  0  0
 48116  1  0  0  0
 49 50  1  0  0  0
 49 53  1  0  0  0
 49 64  1  0  0  0
 49117  1  0  0  0
 50 51  1  0  0  0
 50118  1  0  0  0
 50119  1  0  0  0
 51 52  1  0  0  0
 51120  1  0  0  0
 51121  1  0  0  0
 52122  1  0  0  0
 52123  1  0  0  0
 53 54  1  0  0  0
 54 55  2  0  0  0
 54124  1  0  0  0
 55 57  1  0  0  0
 55125  1  0  0  0
 56 69  2  0  0  0
 57 58  2  0  0  0
 57126  1  0  0  0
 58127  1  0  0  0
 59 60  1  0  0  0
 59 61  1  0  0  0
 59 62  1  0  0  0
 60128  1  0  0  0
 60129  1  0  0  0
 60130  1  0  0  0
 61131  1  0  0  0
 61132  1  0  0  0
 61133  1  0  0  0
 62134  1  0  0  0
 62135  1  0  0  0
 62136  1  0  0  0
 63 65  1  0  0  0
 63137  1  0  0  0
 63138  1  0  0  0
 63139  1  0  0  0
 64140  1  0  0  0
 65141  1  0  0  0
 68 78  1  0  0  0
 71 72  2  0  0  0
 71 73  1  0  0  0
 71142  1  0  0  0
 72 75  1  0  0  0
 72143  1  0  0  0
 73 76  2  0  0  0
 73144  1  0  0  0
 74 75  2  0  0  0
 74 76  1  0  0  0
 74145  1  0  0  0
 75 80  1  0  0  0
 76 81  1  0  0  0
 77 78  2  0  0  0
 77 79  1  0  0  0
 77146  1  0  0  0
 78147  1  0  0  0
 79 80  1  0  0  0
 79 82  2  0  0  0
 80148  1  0  0  0
 81149  1  0  0  0
M  ISO  4   1 100  68 101  78 101  81 100
M  END
> <chiral flag>
0

> <version>
0

> <s_m_source_file>
/data/baiqing/PycharmProjects/Reinvent-master-3.2/result/LINK_invent/BTK/process_docking_weight1_custom_product_contain_oxygen_bond_distance_aromatic_linkinvent_7_9_3/rearranged_h_0063.sdf

> <i_m_source_file_index>
72

> <r_mmod_Potential_Energy-OPLS-2005>
225.721710205078

> <r_mmod_Stretch_Energy-OPLS-2005>
150.955795288086

> <r_mmod_Bend_Energy-OPLS-2005>
168.483627319336

> <r_mmod_Torsional_Energy-OPLS-2005>
266.281341552734

> <r_mmod_Improper_Torsional_Energy-OPLS-2005>
8.213942527771

> <r_mmod_Van_der_Waal_Energy-OPLS-2005>
133.450607299805

> <r_mmod_Electrostatic_Energy-OPLS-2005>
-381.644805908203

> <r_mmod_Solvation_Energy-OPLS-2005>
-232.530303955078

> <b_mmod_Minimization_Converged-OPLS-2005>
0

> <r_mmod_RMS_Derivative-OPLS-2005>
2.62025117874146

$$$$
73
                    3D
 Structure written by MMmdl.
164173  0  0  1  0            999 V2000
  -30.5855  -14.6224   20.5334 C   0  0  0  0  0  0
  -30.4568  -12.3888   19.4438 C   0  0  0  0  0  0
  -29.5157  -12.4993   18.2230 C   0  0  0  0  0  0
  -28.0371  -12.3291   18.6323 C   0  0  0  0  0  0
  -27.6587  -13.1981   19.8603 C   0  0  2  0  0  0
  -28.7006  -13.0197   20.9873 C   0  0  0  0  0  0
  -25.2618  -13.8146   20.5675 C   0  0  0  0  0  0
  -24.1844  -13.0465   20.9167 C   0  0  0  0  0  0
  -24.6376  -11.6917   20.8708 C   0  0  0  0  0  0
  -23.9016  -10.4320   21.0402 C   0  0  0  0  0  0
  -24.3590   -9.4236   21.9183 C   0  0  0  0  0  0
  -23.6286   -8.2266   22.0749 C   0  0  0  0  0  0
  -22.4257   -8.0296   21.3541 C   0  0  0  0  0  0
  -21.9877   -9.0258   20.4645 C   0  0  0  0  0  0
  -22.7188  -10.2156   20.3054 C   0  0  0  0  0  0
  -21.6860   -6.0751   22.5271 C   0  0  0  0  0  0
  -21.4023   -6.5636   23.8205 C   0  0  0  0  0  0
  -21.3657   -5.6772   24.9160 C   0  0  0  0  0  0
  -21.6053   -4.3040   24.7210 C   0  0  0  0  0  0
  -21.8831   -3.8152   23.4324 C   0  0  0  0  0  0
  -21.9194   -4.6975   22.3393 C   0  0  0  0  0  0
  -22.7866  -13.5306   21.1816 C   0  0  0  0  0  0
  -22.1666   -4.2171   21.0965 F   0  0  0  0  0  0
  -21.5617   -3.4513   25.7725 F   0  0  0  0  0  0
  -30.0149  -13.3847   20.4347 N   0  0  0  0  0  0
  -26.3008  -12.9279   20.3269 N   0  0  0  0  0  0
  -25.9290  -11.6465   20.5713 N   0  0  0  0  0  0
  -22.0437  -12.8362   22.0364 N   0  0  0  0  0  0
  -25.4376  -15.1861   20.4160 N   0  0  0  0  0  0
  -31.7480  -14.8417   20.1722 O   0  0  0  0  0  0
  -21.6629   -6.8891   21.4239 O   0  0  0  0  0  0
  -22.3562  -14.5619   20.6660 O   0  0  0  0  0  0
  -24.6207  -31.8635   23.2048 C   0  0  0  0  0  0
  -25.9075  -32.4790   23.8369 C   0  0  1  0  0  0
  -27.2024  -27.3418   20.1324 C   0  0  0  0  0  0
  -25.5913  -33.8583   24.2293 N   0  0  0  0  0  0
  -23.4096  -30.4919   21.5479 C   0  0  2  0  0  0
  -24.8504  -28.9532   20.1081 C   0  0  0  0  0  0
  -22.7433  -29.4652   22.4930 C   0  0  0  0  0  0
  -18.0289  -28.1383   22.8484 C   0  0  0  0  0  0
  -24.1491  -36.7310   23.2639 C   0  0  0  0  0  0
  -25.9457  -30.8090   21.3642 C   0  0  0  0  0  0
  -26.0149  -29.4374   20.7117 C   0  0  0  0  0  0
  -27.1913  -28.6398   20.7195 C   0  0  0  0  0  0
  -26.0087  -26.8930   19.5206 C   0  0  0  0  0  0
  -24.8478  -27.6867   19.5035 C   0  0  0  0  0  0
  -23.6187  -29.8317   20.1603 C   0  0  0  0  0  0
  -25.4103  -36.3076   24.0324 C   0  0  1  0  0  0
  -20.5877  -28.3670   23.1302 C   0  0  2  0  0  0
  -20.6753  -26.9403   22.5397 C   0  0  0  0  0  0
  -19.5740  -26.6383   21.5193 C   0  0  0  0  0  0
  -18.1927  -26.7930   22.1625 C   0  0  0  0  0  0
  -19.1530  -28.8838   23.2890 C   0  0  0  0  0  0
  -18.9460  -30.1442   23.8904 C   0  0  0  0  0  0
  -17.6456  -30.6583   24.0567 C   0  0  0  0  0  0
  -25.9042  -34.9459   23.5111 C   0  0  0  0  0  0
  -16.5350  -29.9091   23.6330 C   0  0  0  0  0  0
  -16.7269  -28.6517   23.0338 C   0  0  0  0  0  0
  -26.4487  -31.6587   25.0719 C   0  0  0  0  0  0
  -25.3747  -31.3728   26.1474 C   0  0  0  0  0  0
  -27.0303  -30.3017   24.6121 C   0  0  0  0  0  0
  -27.6059  -32.4318   25.7487 C   0  0  0  0  0  0
  -27.5575  -37.1804   24.8461 C   0  0  0  0  0  0
  -21.4152  -29.3049   22.3695 N   0  0  0  0  0  0
  -26.4280  -37.3767   23.9412 N   0  0  0  0  0  0
  -24.6780  -31.0713   22.0970 N   0  0  0  0  0  0
  -23.4200  -28.8179   23.2967 O   0  0  0  0  0  0
  -28.3395  -26.5366   20.2248 O   0  0  0  0  0  0
  -26.5599  -34.8923   22.4673 O   0  0  0  0  0  0
  -23.5386  -32.1412   23.7412 O   0  0  0  0  0  0
  -29.6123  -19.6903   22.1118 C   0  0  0  0  0  0
  -29.9992  -17.3058   22.5305 C   0  0  0  0  0  0
  -29.5071  -18.0959   20.2844 C   0  0  0  0  0  0
  -29.8815  -18.6295   23.0023 C   0  0  0  0  0  0
  -29.4026  -19.4660   20.7363 C   0  0  0  0  0  0
  -29.8221  -17.0074   21.1670 C   0  0  0  0  0  0
  -29.9050  -21.7036   19.7045 C   0  0  0  0  0  0
  -29.2135  -19.8979   17.5743 C   0  0  0  0  0  0
  -29.7515  -23.0657   19.8196 C   0  0  0  0  0  0
  -28.6345  -23.9539   20.2725 C   0  0  0  0  0  0
  -31.0506  -21.2162   18.8248 C   0  0  0  0  0  0
  -30.4961  -20.7367   17.4519 C   0  0  0  0  0  0
  -28.2778  -20.2530   18.7421 C   0  0  0  0  0  0
  -29.9767  -18.9204   24.4857 C   0  0  0  0  0  0
  -28.4595  -25.2916   19.4635 C   0  0  0  0  0  0
  -29.0347  -20.6146   19.9426 N   0  0  0  0  0  0
  -29.6864  -15.6132   20.7980 N   0  0  0  0  0  0
  -28.9561  -18.9814   16.7909 O   0  0  0  0  0  0
  -27.8577  -23.6674   21.1896 O   0  0  0  0  0  0
  -31.4929  -12.5486   19.1387 H   0  0  0  0  0  0
  -30.4275  -11.3907   19.8809 H   0  0  0  0  0  0
  -29.7902  -11.7523   17.4774 H   0  0  0  0  0  0
  -29.6517  -13.4695   17.7454 H   0  0  0  0  0  0
  -27.8801  -11.2746   18.8657 H   0  0  0  0  0  0
  -27.3832  -12.5575   17.7912 H   0  0  0  0  0  0
  -27.6870  -14.2355   19.5259 H   0  0  0  0  0  0
  -28.7176  -11.9847   21.3349 H   0  0  0  0  0  0
  -28.4414  -13.6226   21.8575 H   0  0  0  0  0  0
  -25.2740   -9.5747   22.4737 H   0  0  0  0  0  0
  -24.0001   -7.4677   22.7485 H   0  0  0  0  0  0
  -21.0800   -8.8805   19.8966 H   0  0  0  0  0  0
  -22.3646  -10.9701   19.6165 H   0  0  0  0  0  0
  -21.2022   -7.6144   23.9736 H   0  0  0  0  0  0
  -21.1442   -6.0475   25.9060 H   0  0  0  0  0  0
  -22.0611   -2.7625   23.2799 H   0  0  0  0  0  0
  -22.3991  -12.0038   22.4820 H   0  0  0  0  0  0
  -21.1073  -13.1470   22.2528 H   0  0  0  0  0  0
  -24.6752  -15.8415   20.5484 H   0  0  0  0  0  0
  -26.2898  -15.6308   20.1000 H   0  0  0  0  0  0
  -26.7138  -32.5483   23.1113 H   0  0  0  0  0  0
  -25.0045  -33.9741   25.0427 H   0  0  0  0  0  0
  -22.6995  -31.3102   21.4129 H   0  0  0  0  0  0
  -23.3722  -35.9671   23.3282 H   0  0  0  0  0  0
  -24.3588  -36.8945   22.2058 H   0  0  0  0  0  0
  -23.7278  -37.6524   23.6671 H   0  0  0  0  0  0
  -26.0597  -31.5703   20.5910 H   0  0  0  0  0  0
  -26.8308  -30.8643   21.9850 H   0  0  0  0  0  0
  -28.0844  -29.0022   21.2088 H   0  0  0  0  0  0
  -25.9124  -25.9105   19.0901 H   0  0  0  0  0  0
  -23.9445  -27.3053   19.0478 H   0  0  0  0  0  0
  -23.7281  -30.6097   19.4036 H   0  0  0  0  0  0
  -22.7378  -29.2608   19.8622 H   0  0  0  0  0  0
  -25.1285  -36.1907   25.0809 H   0  0  0  0  0  0
  -20.9980  -28.3220   24.1422 H   0  0  0  0  0  0
  -20.5629  -26.2279   23.3586 H   0  0  0  0  0  0
  -21.6631  -26.7416   22.1220 H   0  0  0  0  0  0
  -19.6888  -25.6293   21.1233 H   0  0  0  0  0  0
  -19.6671  -27.3179   20.6724 H   0  0  0  0  0  0
  -17.4178  -26.6643   21.4050 H   0  0  0  0  0  0
  -18.0355  -26.0081   22.9050 H   0  0  0  0  0  0
  -19.7930  -30.7253   24.2281 H   0  0  0  0  0  0
  -17.5021  -31.6268   24.5153 H   0  0  0  0  0  0
  -15.5353  -30.2996   23.7647 H   0  0  0  0  0  0
  -15.8672  -28.0840   22.7041 H   0  0  0  0  0  0
  -24.5895  -30.7092   25.7823 H   0  0  0  0  0  0
  -24.8970  -32.2910   26.4925 H   0  0  0  0  0  0
  -25.8106  -30.8901   27.0228 H   0  0  0  0  0  0
  -26.2845  -29.6784   24.1166 H   0  0  0  0  0  0
  -27.4040  -29.7256   25.4593 H   0  0  0  0  0  0
  -27.8704  -30.4308   23.9281 H   0  0  0  0  0  0
  -27.2664  -33.3610   26.2076 H   0  0  0  0  0  0
  -28.3870  -32.6885   25.0316 H   0  0  0  0  0  0
  -28.0716  -31.8430   26.5400 H   0  0  0  0  0  0
  -28.2583  -38.0118   24.7488 H   0  0  0  0  0  0
  -28.1082  -36.2634   24.6282 H   0  0  0  0  0  0
  -27.2304  -37.1460   25.8875 H   0  0  0  0  0  0
  -20.9267  -29.8839   21.6995 H   0  0  0  0  0  0
  -26.0149  -38.2832   24.1408 H   0  0  0  0  0  0
  -29.5038  -20.6894   22.5074 H   0  0  0  0  0  0
  -30.1519  -16.4995   23.2346 H   0  0  0  0  0  0
  -29.3191  -17.8346   19.2557 H   0  0  0  0  0  0
  -30.5666  -23.6502   19.4231 H   0  0  0  0  0  0
  -31.5900  -20.4113   19.3276 H   0  0  0  0  0  0
  -31.7864  -22.0069   18.6684 H   0  0  0  0  0  0
  -30.2402  -21.6046   16.8440 H   0  0  0  0  0  0
  -31.2495  -20.1772   16.8993 H   0  0  0  0  0  0
  -27.5891  -19.4328   18.9462 H   0  0  0  0  0  0
  -27.6725  -21.1080   18.4325 H   0  0  0  0  0  0
  -29.0211  -19.3017   24.8536 H   0  0  0  0  0  0
  -30.7421  -19.6723   24.6800 H   0  0  0  0  0  0
  -30.2239  -18.0236   25.0569 H   0  0  0  0  0  0
  -27.6732  -25.1329   18.7313 H   0  0  0  0  0  0
  -29.3581  -25.4172   18.8645 H   0  0  0  0  0  0
  -28.7732  -15.2270   20.9789 H   0  0  0  0  0  0
  1 25  1  0  0  0
  1 30  2  0  0  0
  1 87  1  0  0  0
  2  3  1  0  0  0
  2 25  1  0  0  0
  2 90  1  0  0  0
  2 91  1  0  0  0
  3  4  1  0  0  0
  3 92  1  0  0  0
  3 93  1  0  0  0
  4  5  1  0  0  0
  4 94  1  0  0  0
  4 95  1  0  0  0
  5  6  1  0  0  0
  5 26  1  0  0  0
  5 96  1  0  0  0
  6 25  1  0  0  0
  6 97  1  0  0  0
  6 98  1  0  0  0
  7  8  2  0  0  0
  7 26  1  0  0  0
  7 29  1  0  0  0
  8  9  1  0  0  0
  8 22  1  0  0  0
  9 10  1  0  0  0
  9 27  2  0  0  0
 10 11  2  0  0  0
 10 15  1  0  0  0
 11 12  1  0  0  0
 11 99  1  0  0  0
 12 13  2  0  0  0
 12100  1  0  0  0
 13 14  1  0  0  0
 13 31  1  0  0  0
 14 15  2  0  0  0
 14101  1  0  0  0
 15102  1  0  0  0
 16 17  2  0  0  0
 16 21  1  0  0  0
 16 31  1  0  0  0
 17 18  1  0  0  0
 17103  1  0  0  0
 18 19  2  0  0  0
 18104  1  0  0  0
 19 20  1  0  0  0
 19 24  1  0  0  0
 20 21  2  0  0  0
 20105  1  0  0  0
 21 23  1  0  0  0
 22 28  1  0  0  0
 22 32  2  0  0  0
 26 27  1  0  0  0
 28106  1  0  0  0
 28107  1  0  0  0
 29108  1  0  0  0
 29109  1  0  0  0
 33 34  1  0  0  0
 33 66  1  0  0  0
 33 70  2  0  0  0
 34 36  1  0  0  0
 34 59  1  0  0  0
 34110  1  0  0  0
 35 44  2  0  0  0
 35 45  1  0  0  0
 35 68  1  0  0  0
 36 56  1  0  0  0
 36111  1  0  0  0
 37 39  1  0  0  0
 37 47  1  0  0  0
 37 66  1  0  0  0
 37112  1  0  0  0
 38 43  2  0  0  0
 38 46  1  0  0  0
 38 47  1  0  0  0
 39 64  1  0  0  0
 39 67  2  0  0  0
 40 52  1  0  0  0
 40 53  2  0  0  0
 40 58  1  0  0  0
 41113  1  0  0  0
 41114  1  0  0  0
 41115  1  0  0  0
 41 48  1  0  0  0
 42 43  1  0  0  0
 42 66  1  0  0  0
 42116  1  0  0  0
 42117  1  0  0  0
 43 44  1  0  0  0
 44118  1  0  0  0
 45 46  2  0  0  0
 45119  1  0  0  0
 46120  1  0  0  0
 47121  1  0  0  0
 47122  1  0  0  0
 48 56  1  0  0  0
 48 65  1  0  0  0
 48123  1  0  0  0
 49 50  1  0  0  0
 49 53  1  0  0  0
 49 64  1  0  0  0
 49124  1  0  0  0
 50 51  1  0  0  0
 50125  1  0  0  0
 50126  1  0  0  0
 51 52  1  0  0  0
 51127  1  0  0  0
 51128  1  0  0  0
 52129  1  0  0  0
 52130  1  0  0  0
 53 54  1  0  0  0
 54 55  2  0  0  0
 54131  1  0  0  0
 55 57  1  0  0  0
 55132  1  0  0  0
 56 69  2  0  0  0
 57 58  2  0  0  0
 57133  1  0  0  0
 58134  1  0  0  0
 59 60  1  0  0  0
 59 61  1  0  0  0
 59 62  1  0  0  0
 60135  1  0  0  0
 60136  1  0  0  0
 60137  1  0  0  0
 61138  1  0  0  0
 61139  1  0  0  0
 61140  1  0  0  0
 62141  1  0  0  0
 62142  1  0  0  0
 62143  1  0  0  0
 63 65  1  0  0  0
 63144  1  0  0  0
 63145  1  0  0  0
 63146  1  0  0  0
 64147  1  0  0  0
 65148  1  0  0  0
 68 85  1  0  0  0
 71 74  2  0  0  0
 71 75  1  0  0  0
 71149  1  0  0  0
 72 74  1  0  0  0
 72 76  2  0  0  0
 72150  1  0  0  0
 73 75  2  0  0  0
 73 76  1  0  0  0
 73151  1  0  0  0
 74 84  1  0  0  0
 75 86  1  0  0  0
 76 87  1  0  0  0
 77 79  2  0  0  0
 77 81  1  0  0  0
 77 86  1  0  0  0
 78 82  1  0  0  0
 78 83  1  0  0  0
 78 88  2  0  0  0
 79 80  1  0  0  0
 79152  1  0  0  0
 80 85  1  0  0  0
 80 89  2  0  0  0
 81 82  1  0  0  0
 81153  1  0  0  0
 81154  1  0  0  0
 82155  1  0  0  0
 82156  1  0  0  0
 83 86  1  0  0  0
 83157  1  0  0  0
 83158  1  0  0  0
 84159  1  0  0  0
 84160  1  0  0  0
 84161  1  0  0  0
 85162  1  0  0  0
 85163  1  0  0  0
 87164  1  0  0  0
M  ISO  4   1 100  68 101  85 101  87 100
M  END
> <chiral flag>
0

> <version>
0

> <s_m_source_file>
/data/baiqing/PycharmProjects/Reinvent-master-3.2/result/LINK_invent/BTK/process_docking_weight1_custom_product_contain_oxygen_bond_distance_aromatic_linkinvent_7_9_3/rearranged_h_0063.sdf

> <i_m_source_file_index>
73

> <r_mmod_Potential_Energy-OPLS-2005>
229.183883666992

> <r_mmod_Stretch_Energy-OPLS-2005>
68.0216903686523

> <r_mmod_Bend_Energy-OPLS-2005>
176.424850463867

> <r_mmod_Torsional_Energy-OPLS-2005>
307.957092285156

> <r_mmod_Improper_Torsional_Energy-OPLS-2005>
14.0001974105835

> <r_mmod_Van_der_Waal_Energy-OPLS-2005>
160.205764770508

> <r_mmod_Electrostatic_Energy-OPLS-2005>
-297.220855712891

> <r_mmod_Solvation_Energy-OPLS-2005>
-245.642517089844

> <b_mmod_Minimization_Converged-OPLS-2005>
0

> <r_mmod_RMS_Derivative-OPLS-2005>
4.42462158203125

$$$$
74
                    3D
 Structure written by MMmdl.
166175  0  0  1  0            999 V2000
  -30.7140  -14.3992   20.5736 C   0  0  0  0  0  0
  -30.4143  -12.2667   19.3933 C   0  0  0  0  0  0
  -29.4767  -12.4910   18.1912 C   0  0  0  0  0  0
  -27.9994  -12.3693   18.6115 C   0  0  0  0  0  0
  -27.6663  -13.1952   19.8818 C   0  0  2  0  0  0
  -28.7099  -12.9359   20.9917 C   0  0  0  0  0  0
  -25.2617  -13.8138   20.5685 C   0  0  0  0  0  0
  -24.1838  -13.0428   20.9151 C   0  0  0  0  0  0
  -24.6398  -11.6887   20.8746 C   0  0  0  0  0  0
  -23.9050  -10.4296   21.0425 C   0  0  0  0  0  0
  -24.3601   -9.4213   21.9196 C   0  0  0  0  0  0
  -23.6282   -8.2242   22.0771 C   0  0  0  0  0  0
  -22.4268   -8.0276   21.3565 C   0  0  0  0  0  0
  -21.9909   -9.0252   20.4678 C   0  0  0  0  0  0
  -22.7223  -10.2143   20.3090 C   0  0  0  0  0  0
  -21.6876   -6.0728   22.5272 C   0  0  0  0  0  0
  -21.4006   -6.5622   23.8193 C   0  0  0  0  0  0
  -21.3653   -5.6782   24.9168 C   0  0  0  0  0  0
  -21.6055   -4.3047   24.7218 C   0  0  0  0  0  0
  -21.8818   -3.8137   23.4335 C   0  0  0  0  0  0
  -21.9204   -4.6963   22.3397 C   0  0  0  0  0  0
  -22.7875  -13.5244   21.1809 C   0  0  0  0  0  0
  -22.1670   -4.2128   21.0979 F   0  0  0  0  0  0
  -21.5635   -3.4539   25.7743 F   0  0  0  0  0  0
  -30.0400  -13.2307   20.4350 N   0  0  0  0  0  0
  -26.3067  -12.9277   20.3445 N   0  0  0  0  0  0
  -25.9302  -11.6451   20.5771 N   0  0  0  0  0  0
  -22.0546  -12.8223   22.0395 N   0  0  0  0  0  0
  -25.4402  -15.1855   20.4083 N   0  0  0  0  0  0
  -31.8398  -14.5967   20.1123 O   0  0  0  0  0  0
  -21.6632   -6.8881   21.4243 O   0  0  0  0  0  0
  -22.3553  -14.5568   20.6714 O   0  0  0  0  0  0
  -24.6155  -31.8657   23.2121 C   0  0  0  0  0  0
  -25.9051  -32.4817   23.8402 C   0  0  1  0  0  0
  -27.2437  -27.4575   20.0566 C   0  0  0  0  0  0
  -25.5932  -33.8617   24.2358 N   0  0  0  0  0  0
  -23.4032  -30.4901   21.5526 C   0  0  2  0  0  0
  -24.8472  -28.9494   20.1250 C   0  0  0  0  0  0
  -22.7395  -29.4670   22.5012 C   0  0  0  0  0  0
  -18.0268  -28.1392   22.8487 C   0  0  0  0  0  0
  -24.1503  -36.7300   23.2643 C   0  0  0  0  0  0
  -25.9309  -30.8270   21.3693 C   0  0  0  0  0  0
  -26.0056  -29.4603   20.7225 C   0  0  0  0  0  0
  -27.2044  -28.7123   20.7032 C   0  0  0  0  0  0
  -26.0624  -26.9454   19.4784 C   0  0  0  0  0  0
  -24.8653  -27.6839   19.5134 C   0  0  0  0  0  0
  -23.6135  -29.8181   20.1700 C   0  0  0  0  0  0
  -25.4115  -36.3105   24.0354 C   0  0  1  0  0  0
  -20.5866  -28.3659   23.1320 C   0  0  2  0  0  0
  -20.6767  -26.9396   22.5418 C   0  0  0  0  0  0
  -19.5762  -26.6387   21.5206 C   0  0  0  0  0  0
  -18.1927  -26.7948   22.1602 C   0  0  0  0  0  0
  -19.1531  -28.8837   23.2917 C   0  0  0  0  0  0
  -18.9449  -30.1451   23.8913 C   0  0  0  0  0  0
  -17.6455  -30.6587   24.0572 C   0  0  0  0  0  0
  -25.9031  -34.9471   23.5132 C   0  0  0  0  0  0
  -16.5349  -29.9082   23.6337 C   0  0  0  0  0  0
  -16.7265  -28.6520   23.0329 C   0  0  0  0  0  0
  -26.4492  -31.6584   25.0707 C   0  0  0  0  0  0
  -25.3777  -31.3674   26.1462 C   0  0  0  0  0  0
  -27.0307  -30.3033   24.6069 C   0  0  0  0  0  0
  -27.6077  -32.4280   25.7465 C   0  0  0  0  0  0
  -27.5596  -37.1795   24.8461 C   0  0  0  0  0  0
  -21.4126  -29.3040   22.3729 N   0  0  0  0  0  0
  -26.4298  -37.3784   23.9427 N   0  0  0  0  0  0
  -24.6679  -31.0755   22.1036 N   0  0  0  0  0  0
  -23.4141  -28.8200   23.3069 O   0  0  0  0  0  0
  -28.4277  -26.7561   19.9774 O   0  0  0  0  0  0
  -26.5572  -34.8916   22.4683 O   0  0  0  0  0  0
  -23.5344  -32.1425   23.7505 O   0  0  0  0  0  0
  -28.2132  -20.8818   16.8247 C   0  0  0  0  0  0
  -28.4642  -22.2442   17.0765 C   0  0  0  0  0  0
  -30.0419  -21.6212   18.8111 C   0  0  0  0  0  0
  -28.9014  -19.8694   17.5287 C   0  0  0  0  0  0
  -29.4224  -22.6372   18.0385 C   0  0  0  0  0  0
  -29.7827  -20.2446   18.5856 C   0  0  0  0  0  0
  -31.2824  -25.8885   18.2024 C   0  0  0  0  0  0
  -30.3290  -26.8443   18.4497 C   0  0  0  0  0  0
  -31.0395  -24.4570   18.1149 C   0  0  0  0  0  0
  -28.5950  -24.9561   18.2822 C   0  0  0  0  0  0
  -28.8677  -26.4385   18.6419 C   0  0  1  0  0  0
  -28.6683  -18.4334   17.0792 C   0  0  0  0  0  0
  -30.4252  -16.7906   21.1919 C   0  0  0  0  0  0
  -29.6404  -17.7238   20.2366 C   0  0  0  0  0  0
  -31.1856  -19.7733   20.9289 N   0  0  0  0  0  0
  -29.7472  -24.0314   18.2124 N   0  0  0  0  0  0
  -29.9972  -15.3934   21.1138 N   0  0  0  0  0  0
  -30.4727  -28.0869   18.5209 O   0  5  0  0  0  0
  -31.9933  -23.6905   17.9569 O   0  0  0  0  0  0
  -31.7634  -18.4428   18.7499 O   0  0  0  0  0  0
  -30.7388  -19.0692   19.6022 S   0  0  2  0  0  0
  -31.4554  -12.3607   19.0783 H   0  0  0  0  0  0
  -30.3043  -11.2526   19.7773 H   0  0  0  0  0  0
  -29.6967  -11.7660   17.4066 H   0  0  0  0  0  0
  -29.6564  -13.4735   17.7542 H   0  0  0  0  0  0
  -27.7872  -11.3163   18.7924 H   0  0  0  0  0  0
  -27.3516  -12.6752   17.7922 H   0  0  0  0  0  0
  -27.7232  -14.2481   19.6002 H   0  0  0  0  0  0
  -28.6748  -11.8872   21.2981 H   0  0  0  0  0  0
  -28.4839  -13.5052   21.8942 H   0  0  0  0  0  0
  -25.2765   -9.5646   22.4755 H   0  0  0  0  0  0
  -23.9994   -7.4618   22.7470 H   0  0  0  0  0  0
  -21.0862   -8.8753   19.8950 H   0  0  0  0  0  0
  -22.3692  -10.9671   19.6193 H   0  0  0  0  0  0
  -21.1953   -7.6126   23.9680 H   0  0  0  0  0  0
  -21.1497   -6.0526   25.9063 H   0  0  0  0  0  0
  -22.0610   -2.7595   23.2848 H   0  0  0  0  0  0
  -22.4184  -11.9848   22.4719 H   0  0  0  0  0  0
  -21.1180  -13.1248   22.2632 H   0  0  0  0  0  0
  -24.6879  -15.8511   20.5377 H   0  0  0  0  0  0
  -26.2963  -15.6247   20.0908 H   0  0  0  0  0  0
  -26.7100  -32.5527   23.1143 H   0  0  0  0  0  0
  -25.0173  -33.9784   25.0564 H   0  0  0  0  0  0
  -22.6970  -31.3091   21.4060 H   0  0  0  0  0  0
  -23.3776  -35.9609   23.3261 H   0  0  0  0  0  0
  -24.3617  -36.8947   22.2065 H   0  0  0  0  0  0
  -23.7208  -37.6481   23.6660 H   0  0  0  0  0  0
  -26.0406  -31.5873   20.5967 H   0  0  0  0  0  0
  -26.8203  -30.8838   21.9835 H   0  0  0  0  0  0
  -28.1083  -29.1084   21.1466 H   0  0  0  0  0  0
  -26.0630  -25.9821   18.9892 H   0  0  0  0  0  0
  -23.9730  -27.2737   19.0621 H   0  0  0  0  0  0
  -23.7338  -30.5883   19.4076 H   0  0  0  0  0  0
  -22.7379  -29.2401   19.8703 H   0  0  0  0  0  0
  -25.1288  -36.1972   25.0844 H   0  0  0  0  0  0
  -20.9975  -28.3213   24.1442 H   0  0  0  0  0  0
  -20.5660  -26.2266   23.3603 H   0  0  0  0  0  0
  -21.6639  -26.7430   22.1222 H   0  0  0  0  0  0
  -19.6919  -25.6285   21.1268 H   0  0  0  0  0  0
  -19.6749  -27.3181   20.6728 H   0  0  0  0  0  0
  -17.4225  -26.6733   21.3984 H   0  0  0  0  0  0
  -18.0312  -26.0066   22.8981 H   0  0  0  0  0  0
  -19.7916  -30.7285   24.2292 H   0  0  0  0  0  0
  -17.4988  -31.6273   24.5164 H   0  0  0  0  0  0
  -15.5354  -30.2987   23.7627 H   0  0  0  0  0  0
  -15.8676  -28.0848   22.6995 H   0  0  0  0  0  0
  -24.5992  -30.6966   25.7827 H   0  0  0  0  0  0
  -24.8916  -32.2810   26.4892 H   0  0  0  0  0  0
  -25.8157  -30.8887   27.0228 H   0  0  0  0  0  0
  -26.2827  -29.6781   24.1188 H   0  0  0  0  0  0
  -27.4158  -29.7294   25.4505 H   0  0  0  0  0  0
  -27.8637  -30.4365   23.9159 H   0  0  0  0  0  0
  -27.2735  -33.3582   26.2075 H   0  0  0  0  0  0
  -28.3886  -32.6825   25.0285 H   0  0  0  0  0  0
  -28.0746  -31.8367   26.5349 H   0  0  0  0  0  0
  -28.2592  -38.0115   24.7519 H   0  0  0  0  0  0
  -28.1119  -36.2641   24.6264 H   0  0  0  0  0  0
  -27.2324  -37.1430   25.8867 H   0  0  0  0  0  0
  -20.9270  -29.8737   21.6937 H   0  0  0  0  0  0
  -26.0197  -38.2862   24.1436 H   0  0  0  0  0  0
  -27.5047  -20.6181   16.0509 H   0  0  0  0  0  0
  -27.9403  -22.9752   16.4785 H   0  0  0  0  0  0
  -30.7608  -21.9025   19.5633 H   0  0  0  0  0  0
  -32.3022  -26.2138   18.0527 H   0  0  0  0  0  0
  -28.1397  -24.9639   17.2929 H   0  0  0  0  0  0
  -27.8522  -24.5314   18.9569 H   0  0  0  0  0  0
  -28.2818  -27.0266   17.9295 H   0  0  0  0  0  0
  -28.5256  -18.4030   15.9984 H   0  0  0  0  0  0
  -27.7691  -18.0151   17.5387 H   0  0  0  0  0  0
  -29.5204  -17.7833   17.2776 H   0  0  0  0  0  0
  -30.3004  -17.1282   22.2215 H   0  0  0  0  0  0
  -31.4958  -16.8728   20.9966 H   0  0  0  0  0  0
  -28.7835  -18.1757   20.7361 H   0  0  0  0  0  0
  -29.2706  -17.1676   19.3820 H   0  0  0  0  0  0
  -31.8651  -20.5225   20.7551 H   0  0  0  0  0  0
  -29.0780  -15.1525   21.4536 H   0  0  0  0  0  0
  1 25  1  0  0  0
  1 30  2  0  0  0
  1 87  1  0  0  0
  2  3  1  0  0  0
  2 25  1  0  0  0
  2 92  1  0  0  0
  2 93  1  0  0  0
  3  4  1  0  0  0
  3 94  1  0  0  0
  3 95  1  0  0  0
  4  5  1  0  0  0
  4 96  1  0  0  0
  4 97  1  0  0  0
  5  6  1  0  0  0
  5 26  1  0  0  0
  5 98  1  0  0  0
  6 25  1  0  0  0
  6 99  1  0  0  0
  6100  1  0  0  0
  7  8  2  0  0  0
  7 26  1  0  0  0
  7 29  1  0  0  0
  8  9  1  0  0  0
  8 22  1  0  0  0
  9 10  1  0  0  0
  9 27  2  0  0  0
 10 11  2  0  0  0
 10 15  1  0  0  0
 11 12  1  0  0  0
 11101  1  0  0  0
 12 13  2  0  0  0
 12102  1  0  0  0
 13 14  1  0  0  0
 13 31  1  0  0  0
 14 15  2  0  0  0
 14103  1  0  0  0
 15104  1  0  0  0
 16 17  2  0  0  0
 16 21  1  0  0  0
 16 31  1  0  0  0
 17 18  1  0  0  0
 17105  1  0  0  0
 18 19  2  0  0  0
 18106  1  0  0  0
 19 20  1  0  0  0
 19 24  1  0  0  0
 20 21  2  0  0  0
 20107  1  0  0  0
 21 23  1  0  0  0
 22 28  1  0  0  0
 22 32  2  0  0  0
 26 27  1  0  0  0
 28108  1  0  0  0
 28109  1  0  0  0
 29110  1  0  0  0
 29111  1  0  0  0
 33 34  1  0  0  0
 33 66  1  0  0  0
 33 70  2  0  0  0
 34 36  1  0  0  0
 34 59  1  0  0  0
 34112  1  0  0  0
 35 44  2  0  0  0
 35 45  1  0  0  0
 35 68  1  0  0  0
 36 56  1  0  0  0
 36113  1  0  0  0
 37 39  1  0  0  0
 37 47  1  0  0  0
 37 66  1  0  0  0
 37114  1  0  0  0
 38 43  2  0  0  0
 38 46  1  0  0  0
 38 47  1  0  0  0
 39 64  1  0  0  0
 39 67  2  0  0  0
 40 52  1  0  0  0
 40 53  2  0  0  0
 40 58  1  0  0  0
 41115  1  0  0  0
 41116  1  0  0  0
 41117  1  0  0  0
 41 48  1  0  0  0
 42 43  1  0  0  0
 42 66  1  0  0  0
 42118  1  0  0  0
 42119  1  0  0  0
 43 44  1  0  0  0
 44120  1  0  0  0
 45 46  2  0  0  0
 45121  1  0  0  0
 46122  1  0  0  0
 47123  1  0  0  0
 47124  1  0  0  0
 48 56  1  0  0  0
 48 65  1  0  0  0
 48125  1  0  0  0
 49 50  1  0  0  0
 49 53  1  0  0  0
 49 64  1  0  0  0
 49126  1  0  0  0
 50 51  1  0  0  0
 50127  1  0  0  0
 50128  1  0  0  0
 51 52  1  0  0  0
 51129  1  0  0  0
 51130  1  0  0  0
 52131  1  0  0  0
 52132  1  0  0  0
 53 54  1  0  0  0
 54 55  2  0  0  0
 54133  1  0  0  0
 55 57  1  0  0  0
 55134  1  0  0  0
 56 69  2  0  0  0
 57 58  2  0  0  0
 57135  1  0  0  0
 58136  1  0  0  0
 59 60  1  0  0  0
 59 61  1  0  0  0
 59 62  1  0  0  0
 60137  1  0  0  0
 60138  1  0  0  0
 60139  1  0  0  0
 61140  1  0  0  0
 61141  1  0  0  0
 61142  1  0  0  0
 62143  1  0  0  0
 62144  1  0  0  0
 62145  1  0  0  0
 63 65  1  0  0  0
 63146  1  0  0  0
 63147  1  0  0  0
 63148  1  0  0  0
 64149  1  0  0  0
 65150  1  0  0  0
 68 81  1  0  0  0
 71 72  2  0  0  0
 71 74  1  0  0  0
 71151  1  0  0  0
 72 75  1  0  0  0
 72152  1  0  0  0
 73 75  2  0  0  0
 73 76  1  0  0  0
 73153  1  0  0  0
 74 76  2  0  0  0
 74 82  1  0  0  0
 75 86  1  0  0  0
 76 91  1  0  0  0
 77 78  2  0  0  0
 77 79  1  0  0  0
 77154  1  0  0  0
 78 81  1  0  0  0
 78 88  1  0  0  0
 79 86  1  0  0  0
 79 89  2  0  0  0
 80 81  1  0  0  0
 80 86  1  0  0  0
 80155  1  0  0  0
 80156  1  0  0  0
 81157  1  0  0  0
 82158  1  0  0  0
 82159  1  0  0  0
 82160  1  0  0  0
 83 84  1  0  0  0
 83 87  1  0  0  0
 83161  1  0  0  0
 83162  1  0  0  0
 84163  1  0  0  0
 84164  1  0  0  0
 84 91  1  0  0  0
 85 91  2  0  0  0
 85165  1  0  0  0
 87166  1  0  0  0
 90 91  2  0  0  0
M  CHG  1  88  -1
M  ISO  4   1 100  68 101  81 101  87 100
M  END
> <chiral flag>
0

> <version>
0

> <s_m_source_file>
/data/baiqing/PycharmProjects/Reinvent-master-3.2/result/LINK_invent/BTK/process_docking_weight1_custom_product_contain_oxygen_bond_distance_aromatic_linkinvent_7_9_3/rearranged_h_0063.sdf

> <i_m_source_file_index>
74

> <r_mmod_Potential_Energy-OPLS-2005>
-349.300231933594

> <r_mmod_Stretch_Energy-OPLS-2005>
41.9899635314941

> <r_mmod_Bend_Energy-OPLS-2005>
125.586921691895

> <r_mmod_Torsional_Energy-OPLS-2005>
278.033935546875

> <r_mmod_Improper_Torsional_Energy-OPLS-2005>
4.20922374725342

> <r_mmod_Van_der_Waal_Energy-OPLS-2005>
168.915710449219

> <r_mmod_Electrostatic_Energy-OPLS-2005>
-428.703826904297

> <r_mmod_Solvation_Energy-OPLS-2005>
-549.513427734375

> <b_mmod_Minimization_Converged-OPLS-2005>
0

> <r_mmod_RMS_Derivative-OPLS-2005>
5.05413007736206

$$$$
75
                    3D
 Structure written by MMmdl.
154162  0  0  1  0            999 V2000
  -30.5682  -14.7453   20.4406 C   0  0  0  0  0  0
  -30.4474  -12.4491   19.4594 C   0  0  0  0  0  0
  -29.5149  -12.5148   18.2288 C   0  0  0  0  0  0
  -28.0365  -12.3466   18.6379 C   0  0  0  0  0  0
  -27.6466  -13.2231   19.8579 C   0  0  2  0  0  0
  -28.6976  -13.1194   20.9849 C   0  0  0  0  0  0
  -25.2545  -13.8174   20.5702 C   0  0  0  0  0  0
  -24.1832  -13.0428   20.9220 C   0  0  0  0  0  0
  -24.6411  -11.6907   20.8753 C   0  0  0  0  0  0
  -23.9080  -10.4294   21.0410 C   0  0  0  0  0  0
  -24.3624   -9.4209   21.9187 C   0  0  0  0  0  0
  -23.6290   -8.2252   22.0758 C   0  0  0  0  0  0
  -22.4272   -8.0289   21.3557 C   0  0  0  0  0  0
  -21.9921   -9.0255   20.4655 C   0  0  0  0  0  0
  -22.7255  -10.2132   20.3061 C   0  0  0  0  0  0
  -21.6859   -6.0736   22.5282 C   0  0  0  0  0  0
  -21.4014   -6.5638   23.8218 C   0  0  0  0  0  0
  -21.3668   -5.6787   24.9176 C   0  0  0  0  0  0
  -21.6049   -4.3050   24.7219 C   0  0  0  0  0  0
  -21.8820   -3.8153   23.4338 C   0  0  0  0  0  0
  -21.9195   -4.6967   22.3399 C   0  0  0  0  0  0
  -22.7859  -13.5229   21.1864 C   0  0  0  0  0  0
  -22.1657   -4.2171   21.0971 F   0  0  0  0  0  0
  -21.5634   -3.4527   25.7733 F   0  0  0  0  0  0
  -29.9991  -13.4905   20.4071 N   0  0  0  0  0  0
  -26.2967  -12.9360   20.3317 N   0  0  0  0  0  0
  -25.9340  -11.6509   20.5772 N   0  0  0  0  0  0
  -22.0486  -12.8223   22.0406 N   0  0  0  0  0  0
  -25.4229  -15.1901   20.4092 N   0  0  0  0  0  0
  -31.7526  -14.9074   20.1274 O   0  0  0  0  0  0
  -21.6644   -6.8881   21.4243 O   0  0  0  0  0  0
  -22.3552  -14.5538   20.6714 O   0  0  0  0  0  0
  -24.6363  -31.8545   23.1982 C   0  0  0  0  0  0
  -25.9169  -32.4750   23.8342 C   0  0  1  0  0  0
  -27.2189  -27.2390   20.1123 C   0  0  0  0  0  0
  -25.5958  -33.8559   24.2266 N   0  0  0  0  0  0
  -23.4341  -30.4787   21.5441 C   0  0  2  0  0  0
  -24.8792  -28.9268   20.1120 C   0  0  0  0  0  0
  -22.7521  -29.4614   22.4917 C   0  0  0  0  0  0
  -18.0290  -28.1395   22.8488 C   0  0  0  0  0  0
  -24.1498  -36.7268   23.2640 C   0  0  0  0  0  0
  -25.9858  -30.7555   21.3862 C   0  0  0  0  0  0
  -26.0556  -29.3798   20.7215 C   0  0  0  0  0  0
  -27.2295  -28.5512   20.7075 C   0  0  0  0  0  0
  -26.0086  -26.8639   19.4808 C   0  0  0  0  0  0
  -24.8624  -27.6764   19.4829 C   0  0  0  0  0  0
  -23.6518  -29.8160   20.1611 C   0  0  0  0  0  0
  -25.4127  -36.3071   24.0332 C   0  0  1  0  0  0
  -20.5897  -28.3722   23.1257 C   0  0  2  0  0  0
  -20.6795  -26.9443   22.5398 C   0  0  0  0  0  0
  -19.5761  -26.6396   21.5216 C   0  0  0  0  0  0
  -18.1938  -26.7936   22.1626 C   0  0  0  0  0  0
  -19.1543  -28.8871   23.2872 C   0  0  0  0  0  0
  -18.9463  -30.1469   23.8900 C   0  0  0  0  0  0
  -17.6461  -30.6599   24.0560 C   0  0  0  0  0  0
  -25.9076  -34.9445   23.5103 C   0  0  0  0  0  0
  -16.5353  -29.9092   23.6337 C   0  0  0  0  0  0
  -16.7275  -28.6502   23.0374 C   0  0  0  0  0  0
  -26.4508  -31.6572   25.0744 C   0  0  0  0  0  0
  -25.3714  -31.3718   26.1444 C   0  0  0  0  0  0
  -27.0365  -30.2979   24.6280 C   0  0  0  0  0  0
  -27.6072  -32.4315   25.7512 C   0  0  0  0  0  0
  -27.5595  -37.1797   24.8464 C   0  0  0  0  0  0
  -21.4227  -29.3067   22.3645 N   0  0  0  0  0  0
  -26.4300  -37.3773   23.9419 N   0  0  0  0  0  0
  -24.7050  -31.0483   22.0977 N   0  0  0  0  0  0
  -23.4193  -28.8163   23.3044 O   0  0  0  0  0  0
  -28.3043  -26.3184   20.1460 O   0  0  0  0  0  0
  -26.5656  -34.8911   22.4679 O   0  0  0  0  0  0
  -23.5499  -32.1390   23.7245 O   0  0  0  0  0  0
  -28.7352  -17.7927   19.4669 C   0  0  0  0  0  0
  -28.4240  -19.1878   19.3943 C   0  0  0  0  0  0
  -30.3504  -18.2517   21.1699 C   0  0  0  0  0  0
  -29.6806  -17.2596   20.3835 C   0  0  0  0  0  0
  -30.0322  -19.6742   21.1167 C   0  0  0  0  0  0
  -29.0128  -20.1714   20.2408 C   0  0  0  0  0  0
  -31.7316  -20.1966   22.7435 C   0  0  0  0  0  0
  -27.9877  -24.8376   20.0501 C   0  0  0  0  0  0
  -29.0098  -23.5724   20.1583 C   0  0  0  0  0  0
  -29.6886  -15.7953   20.6426 N   0  0  0  0  0  0
  -27.0572  -21.8498   19.3803 O   0  0  0  0  0  0
  -27.6319  -21.9019   21.8023 O   0  0  0  0  0  0
  -30.6314  -20.6051   21.9419 O   0  0  0  0  0  0
  -28.1135  -21.8634   20.4082 S   0  0  0  0  0  0
  -31.4847  -12.5939   19.1566 H   0  0  0  0  0  0
  -30.4050  -11.4645   19.9256 H   0  0  0  0  0  0
  -29.7918  -11.7450   17.5064 H   0  0  0  0  0  0
  -29.6497  -13.4717   17.7208 H   0  0  0  0  0  0
  -27.8793  -11.2923   18.8688 H   0  0  0  0  0  0
  -27.3848  -12.5719   17.7919 H   0  0  0  0  0  0
  -27.6446  -14.2527   19.4996 H   0  0  0  0  0  0
  -28.7343  -12.1072   21.3879 H   0  0  0  0  0  0
  -28.4365  -13.7686   21.8228 H   0  0  0  0  0  0
  -25.2765   -9.5675   22.4765 H   0  0  0  0  0  0
  -24.0007   -7.4635   22.7466 H   0  0  0  0  0  0
  -21.0866   -8.8762   19.8938 H   0  0  0  0  0  0
  -22.3722  -10.9667   19.6163 H   0  0  0  0  0  0
  -21.1998   -7.6150   23.9726 H   0  0  0  0  0  0
  -21.1492   -6.0521   25.9081 H   0  0  0  0  0  0
  -22.0593   -2.7629   23.2837 H   0  0  0  0  0  0
  -22.4078  -11.9867   22.4789 H   0  0  0  0  0  0
  -21.1095  -13.1253   22.2579 H   0  0  0  0  0  0
  -24.6499  -15.8383   20.5147 H   0  0  0  0  0  0
  -26.2569  -15.6326   20.0475 H   0  0  0  0  0  0
  -26.7246  -32.5377   23.1086 H   0  0  0  0  0  0
  -25.0077  -33.9706   25.0391 H   0  0  0  0  0  0
  -22.7333  -31.3038   21.3995 H   0  0  0  0  0  0
  -23.3782  -35.9579   23.3281 H   0  0  0  0  0  0
  -24.3593  -36.8912   22.2061 H   0  0  0  0  0  0
  -23.7227  -37.6453   23.6672 H   0  0  0  0  0  0
  -26.1419  -31.5165   20.6204 H   0  0  0  0  0  0
  -26.8574  -30.7933   22.0281 H   0  0  0  0  0  0
  -28.1309  -28.8957   21.1950 H   0  0  0  0  0  0
  -25.8952  -25.9155   18.9817 H   0  0  0  0  0  0
  -23.9622  -27.3196   19.0005 H   0  0  0  0  0  0
  -23.7793  -30.5949   19.4080 H   0  0  0  0  0  0
  -22.7700  -29.2506   19.8531 H   0  0  0  0  0  0
  -25.1309  -36.1927   25.0826 H   0  0  0  0  0  0
  -20.9980  -28.3310   24.1382 H   0  0  0  0  0  0
  -20.5728  -26.2339   23.3609 H   0  0  0  0  0  0
  -21.6666  -26.7499   22.1175 H   0  0  0  0  0  0
  -19.6942  -25.6305   21.1254 H   0  0  0  0  0  0
  -19.6698  -27.3209   20.6746 H   0  0  0  0  0  0
  -17.4223  -26.6691   21.4016 H   0  0  0  0  0  0
  -18.0340  -26.0072   22.9009 H   0  0  0  0  0  0
  -19.7935  -30.7287   24.2280 H   0  0  0  0  0  0
  -17.5011  -31.6283   24.5161 H   0  0  0  0  0  0
  -15.5352  -30.3002   23.7664 H   0  0  0  0  0  0
  -15.8673  -28.0813   22.7120 H   0  0  0  0  0  0
  -24.5889  -30.7084   25.7725 H   0  0  0  0  0  0
  -24.8892  -32.2877   26.4875 H   0  0  0  0  0  0
  -25.7989  -30.8858   27.0220 H   0  0  0  0  0  0
  -26.2961  -29.6718   24.1274 H   0  0  0  0  0  0
  -27.3984  -29.7257   25.4831 H   0  0  0  0  0  0
  -27.8868  -30.4236   23.9576 H   0  0  0  0  0  0
  -27.2690  -33.3621   26.2076 H   0  0  0  0  0  0
  -28.3865  -32.6865   25.0322 H   0  0  0  0  0  0
  -28.0748  -31.8446   26.5425 H   0  0  0  0  0  0
  -28.2589  -38.0114   24.7549 H   0  0  0  0  0  0
  -28.1117  -36.2656   24.6241 H   0  0  0  0  0  0
  -27.2317  -37.1378   25.8862 H   0  0  0  0  0  0
  -20.9442  -29.8741   21.6793 H   0  0  0  0  0  0
  -26.0175  -38.2852   24.1403 H   0  0  0  0  0  0
  -28.1670  -17.1148   18.8441 H   0  0  0  0  0  0
  -27.6244  -19.4896   18.7333 H   0  0  0  0  0  0
  -31.0629  -17.8865   21.8923 H   0  0  0  0  0  0
  -32.1371  -21.0680   23.2575 H   0  0  0  0  0  0
  -32.5334  -19.7715   22.1372 H   0  0  0  0  0  0
  -31.4297  -19.4793   23.5083 H   0  0  0  0  0  0
  -27.2077  -24.6584   20.7908 H   0  0  0  0  0  0
  -27.5199  -24.6774   19.0810 H   0  0  0  0  0  0
  -29.7040  -23.6843   20.9878 H   0  0  0  0  0  0
  -29.6073  -23.4880   19.2515 H   0  0  0  0  0  0
  -28.7653  -15.4250   20.8042 H   0  0  0  0  0  0
  1 25  1  0  0  0
  1 30  2  0  0  0
  1 80  1  0  0  0
  2  3  1  0  0  0
  2 25  1  0  0  0
  2 85  1  0  0  0
  2 86  1  0  0  0
  3  4  1  0  0  0
  3 87  1  0  0  0
  3 88  1  0  0  0
  4  5  1  0  0  0
  4 89  1  0  0  0
  4 90  1  0  0  0
  5  6  1  0  0  0
  5 26  1  0  0  0
  5 91  1  0  0  0
  6 25  1  0  0  0
  6 92  1  0  0  0
  6 93  1  0  0  0
  7  8  2  0  0  0
  7 26  1  0  0  0
  7 29  1  0  0  0
  8  9  1  0  0  0
  8 22  1  0  0  0
  9 10  1  0  0  0
  9 27  2  0  0  0
 10 11  2  0  0  0
 10 15  1  0  0  0
 11 12  1  0  0  0
 11 94  1  0  0  0
 12 13  2  0  0  0
 12 95  1  0  0  0
 13 14  1  0  0  0
 13 31  1  0  0  0
 14 15  2  0  0  0
 14 96  1  0  0  0
 15 97  1  0  0  0
 16 17  2  0  0  0
 16 21  1  0  0  0
 16 31  1  0  0  0
 17 18  1  0  0  0
 17 98  1  0  0  0
 18 19  2  0  0  0
 18 99  1  0  0  0
 19 20  1  0  0  0
 19 24  1  0  0  0
 20 21  2  0  0  0
 20100  1  0  0  0
 21 23  1  0  0  0
 22 28  1  0  0  0
 22 32  2  0  0  0
 26 27  1  0  0  0
 28101  1  0  0  0
 28102  1  0  0  0
 29103  1  0  0  0
 29104  1  0  0  0
 33 34  1  0  0  0
 33 66  1  0  0  0
 33 70  2  0  0  0
 34 36  1  0  0  0
 34 59  1  0  0  0
 34105  1  0  0  0
 35 44  2  0  0  0
 35 45  1  0  0  0
 35 68  1  0  0  0
 36 56  1  0  0  0
 36106  1  0  0  0
 37 39  1  0  0  0
 37 47  1  0  0  0
 37 66  1  0  0  0
 37107  1  0  0  0
 38 43  2  0  0  0
 38 46  1  0  0  0
 38 47  1  0  0  0
 39 64  1  0  0  0
 39 67  2  0  0  0
 40 52  1  0  0  0
 40 53  2  0  0  0
 40 58  1  0  0  0
 41108  1  0  0  0
 41109  1  0  0  0
 41110  1  0  0  0
 41 48  1  0  0  0
 42 43  1  0  0  0
 42 66  1  0  0  0
 42111  1  0  0  0
 42112  1  0  0  0
 43 44  1  0  0  0
 44113  1  0  0  0
 45 46  2  0  0  0
 45114  1  0  0  0
 46115  1  0  0  0
 47116  1  0  0  0
 47117  1  0  0  0
 48 56  1  0  0  0
 48 65  1  0  0  0
 48118  1  0  0  0
 49 50  1  0  0  0
 49 53  1  0  0  0
 49 64  1  0  0  0
 49119  1  0  0  0
 50 51  1  0  0  0
 50120  1  0  0  0
 50121  1  0  0  0
 51 52  1  0  0  0
 51122  1  0  0  0
 51123  1  0  0  0
 52124  1  0  0  0
 52125  1  0  0  0
 53 54  1  0  0  0
 54 55  2  0  0  0
 54126  1  0  0  0
 55 57  1  0  0  0
 55127  1  0  0  0
 56 69  2  0  0  0
 57 58  2  0  0  0
 57128  1  0  0  0
 58129  1  0  0  0
 59 60  1  0  0  0
 59 61  1  0  0  0
 59 62  1  0  0  0
 60130  1  0  0  0
 60131  1  0  0  0
 60132  1  0  0  0
 61133  1  0  0  0
 61134  1  0  0  0
 61135  1  0  0  0
 62136  1  0  0  0
 62137  1  0  0  0
 62138  1  0  0  0
 63 65  1  0  0  0
 63139  1  0  0  0
 63140  1  0  0  0
 63141  1  0  0  0
 64142  1  0  0  0
 65143  1  0  0  0
 68 78  1  0  0  0
 71 72  2  0  0  0
 71 74  1  0  0  0
 71144  1  0  0  0
 72 76  1  0  0  0
 72145  1  0  0  0
 73 74  2  0  0  0
 73 75  1  0  0  0
 73146  1  0  0  0
 74 80  1  0  0  0
 75 76  2  0  0  0
 75 83  1  0  0  0
 76 84  1  0  0  0
 77 83  1  0  0  0
 77147  1  0  0  0
 77148  1  0  0  0
 77149  1  0  0  0
 78 79  1  0  0  0
 78150  1  0  0  0
 78151  1  0  0  0
 79152  1  0  0  0
 79153  1  0  0  0
 79 84  1  0  0  0
 80154  1  0  0  0
 81 84  2  0  0  0
 82 84  2  0  0  0
M  ISO  4   1 100  68 101  78 101  80 100
M  END
> <chiral flag>
0

> <version>
0

> <s_m_source_file>
/data/baiqing/PycharmProjects/Reinvent-master-3.2/result/LINK_invent/BTK/process_docking_weight1_custom_product_contain_oxygen_bond_distance_aromatic_linkinvent_7_9_3/rearranged_h_0063.sdf

> <i_m_source_file_index>
75

> <r_mmod_Potential_Energy-OPLS-2005>
220.625030517578

> <r_mmod_Stretch_Energy-OPLS-2005>
133.557708740234

> <r_mmod_Bend_Energy-OPLS-2005>
218.37565612793

> <r_mmod_Torsional_Energy-OPLS-2005>
258.013702392578

> <r_mmod_Improper_Torsional_Energy-OPLS-2005>
10.2230834960938

> <r_mmod_Van_der_Waal_Energy-OPLS-2005>
139.0634765625

> <r_mmod_Electrostatic_Energy-OPLS-2005>
-365.207702636719

> <r_mmod_Solvation_Energy-OPLS-2005>
-265.701995849609

> <b_mmod_Minimization_Converged-OPLS-2005>
0

> <r_mmod_RMS_Derivative-OPLS-2005>
2.66780471801758

$$$$
76
                    3D
 Structure written by MMmdl.
161169  0  0  1  0            999 V2000
  -30.5369  -14.6968   20.5362 C   0  0  0  0  0  0
  -30.4716  -12.4368   19.4552 C   0  0  0  0  0  0
  -29.5236  -12.5241   18.2301 C   0  0  0  0  0  0
  -28.0352  -12.3688   18.6264 C   0  0  0  0  0  0
  -27.6647  -13.1906   19.8896 C   0  0  2  0  0  0
  -28.7193  -12.9326   20.9869 C   0  0  0  0  0  0
  -25.2664  -13.8144   20.5718 C   0  0  0  0  0  0
  -24.1876  -13.0437   20.9240 C   0  0  0  0  0  0
  -24.6408  -11.6903   20.8764 C   0  0  0  0  0  0
  -23.9058  -10.4290   21.0483 C   0  0  0  0  0  0
  -24.3603   -9.4175   21.9223 C   0  0  0  0  0  0
  -23.6257   -8.2218   22.0766 C   0  0  0  0  0  0
  -22.4216   -8.0294   21.3593 C   0  0  0  0  0  0
  -21.9908   -9.0271   20.4663 C   0  0  0  0  0  0
  -22.7261  -10.2148   20.3101 C   0  0  0  0  0  0
  -21.6813   -6.0752   22.5303 C   0  0  0  0  0  0
  -21.3998   -6.5671   23.8250 C   0  0  0  0  0  0
  -21.3655   -5.6821   24.9204 C   0  0  0  0  0  0
  -21.6021   -4.3088   24.7242 C   0  0  0  0  0  0
  -21.8828   -3.8170   23.4360 C   0  0  0  0  0  0
  -21.9208   -4.6983   22.3414 C   0  0  0  0  0  0
  -22.7892  -13.5242   21.1879 C   0  0  0  0  0  0
  -22.1681   -4.2170   21.0987 F   0  0  0  0  0  0
  -21.5617   -3.4574   25.7762 F   0  0  0  0  0  0
  -30.0010  -13.4223   20.4602 N   0  0  0  0  0  0
  -26.3038  -12.9236   20.3424 N   0  0  0  0  0  0
  -25.9330  -11.6413   20.5766 N   0  0  0  0  0  0
  -22.0514  -12.8202   22.0408 N   0  0  0  0  0  0
  -25.4432  -15.1830   20.4058 N   0  0  0  0  0  0
  -31.6917  -14.8408   20.1174 O   0  0  0  0  0  0
  -21.6606   -6.8890   21.4259 O   0  0  0  0  0  0
  -22.3597  -14.5543   20.6726 O   0  0  0  0  0  0
  -24.6320  -31.8598   23.2014 C   0  0  0  0  0  0
  -25.9171  -32.4780   23.8334 C   0  0  1  0  0  0
  -27.2094  -27.2908   20.0996 C   0  0  0  0  0  0
  -25.5997  -33.8583   24.2286 N   0  0  0  0  0  0
  -23.4237  -30.4799   21.5514 C   0  0  2  0  0  0
  -24.8601  -28.9300   20.1056 C   0  0  0  0  0  0
  -22.7516  -29.4628   22.5039 C   0  0  0  0  0  0
  -18.0304  -28.1336   22.8524 C   0  0  0  0  0  0
  -24.1491  -36.7269   23.2639 C   0  0  0  0  0  0
  -25.9656  -30.7698   21.3800 C   0  0  0  0  0  0
  -26.0307  -29.3973   20.7173 C   0  0  0  0  0  0
  -27.2087  -28.5871   20.7043 C   0  0  0  0  0  0
  -26.0248  -26.8920   19.4453 C   0  0  0  0  0  0
  -24.8617  -27.6868   19.4524 C   0  0  0  0  0  0
  -23.6283  -29.8111   20.1646 C   0  0  0  0  0  0
  -25.4133  -36.3100   24.0342 C   0  0  1  0  0  0
  -20.5911  -28.3662   23.1315 C   0  0  2  0  0  0
  -20.6791  -26.9399   22.5398 C   0  0  0  0  0  0
  -19.5756  -26.6366   21.5220 C   0  0  0  0  0  0
  -18.1940  -26.7880   22.1642 C   0  0  0  0  0  0
  -19.1546  -28.8825   23.2889 C   0  0  0  0  0  0
  -18.9470  -30.1443   23.8857 C   0  0  0  0  0  0
  -17.6458  -30.6551   24.0554 C   0  0  0  0  0  0
  -25.9086  -34.9482   23.5124 C   0  0  0  0  0  0
  -16.5362  -29.9021   23.6341 C   0  0  0  0  0  0
  -16.7286  -28.6433   23.0390 C   0  0  0  0  0  0
  -26.4526  -31.6590   25.0715 C   0  0  0  0  0  0
  -25.3745  -31.3675   26.1426 C   0  0  0  0  0  0
  -27.0364  -30.3026   24.6143 C   0  0  0  0  0  0
  -27.6073  -32.4323   25.7482 C   0  0  0  0  0  0
  -27.5598  -37.1816   24.8488 C   0  0  0  0  0  0
  -21.4236  -29.3018   22.3727 N   0  0  0  0  0  0
  -26.4304  -37.3814   23.9421 N   0  0  0  0  0  0
  -24.6931  -31.0548   22.0990 N   0  0  0  0  0  0
  -23.4242  -28.8220   23.3179 O   0  0  0  0  0  0
  -28.3157  -26.4208   20.1024 O   0  0  0  0  0  0
  -26.5645  -34.8955   22.4682 O   0  0  0  0  0  0
  -23.5483  -32.1446   23.7335 O   0  0  0  0  0  0
  -31.9565  -19.1006   21.8574 C   0  0  0  0  0  0
  -31.2102  -20.2004   21.4043 C   0  0  0  0  0  0
  -29.5549  -18.6714   20.5394 C   0  0  0  0  0  0
  -31.5264  -17.7729   21.6739 C   0  0  0  0  0  0
  -30.3064  -17.5025   20.9839 C   0  0  0  0  0  0
  -29.9698  -20.0438   20.7539 C   0  0  0  0  0  0
  -29.3652  -22.5679   20.6819 C   0  0  0  0  0  0
  -32.4264  -16.6985   22.2706 C   0  0  0  0  0  0
  -28.9194  -23.8011   19.7810 C   0  0  0  0  0  0
  -28.6568  -15.9762   22.0790 C   0  0  0  0  0  0
  -28.0953  -24.9929   20.4806 C   0  0  0  0  0  0
  -29.6684  -16.0400   20.8952 C   0  0  2  0  0  0
  -29.2456  -21.2480   20.2746 N   0  0  0  0  0  0
  -29.2711  -15.9943   23.4221 N   0  3  0  0  0  0
  -29.8323  -22.8424   21.7906 O   0  0  0  0  0  0
  -31.5023  -12.6195   19.1425 H   0  0  0  0  0  0
  -30.4815  -11.4289   19.8708 H   0  0  0  0  0  0
  -29.7852  -11.7672   17.4898 H   0  0  0  0  0  0
  -29.6651  -13.4887   17.7444 H   0  0  0  0  0  0
  -27.8518  -11.3120   18.8152 H   0  0  0  0  0  0
  -27.3883  -12.6461   17.7933 H   0  0  0  0  0  0
  -27.7073  -14.2382   19.6055 H   0  0  0  0  0  0
  -28.7742  -11.8550   21.1620 H   0  0  0  0  0  0
  -28.4795  -13.2904   21.9833 H   0  0  0  0  0  0
  -25.2787   -9.5595   22.4765 H   0  0  0  0  0  0
  -23.9985   -7.4588   22.7445 H   0  0  0  0  0  0
  -21.0866   -8.8801   19.8933 H   0  0  0  0  0  0
  -22.3761  -10.9684   19.6194 H   0  0  0  0  0  0
  -21.1961   -7.6174   23.9760 H   0  0  0  0  0  0
  -21.1471   -6.0547   25.9126 H   0  0  0  0  0  0
  -22.0593   -2.7621   23.2859 H   0  0  0  0  0  0
  -22.4092  -11.9817   22.4775 H   0  0  0  0  0  0
  -21.1142  -13.1278   22.2611 H   0  0  0  0  0  0
  -24.6611  -15.8212   20.4858 H   0  0  0  0  0  0
  -26.2172  -15.5859   19.8929 H   0  0  0  0  0  0
  -26.7232  -32.5410   23.1058 H   0  0  0  0  0  0
  -25.0212  -33.9709   25.0481 H   0  0  0  0  0  0
  -22.7218  -31.3046   21.4131 H   0  0  0  0  0  0
  -23.3808  -35.9547   23.3306 H   0  0  0  0  0  0
  -24.3552  -36.8878   22.2044 H   0  0  0  0  0  0
  -23.7178  -37.6455   23.6635 H   0  0  0  0  0  0
  -26.1121  -31.5375   20.6204 H   0  0  0  0  0  0
  -26.8438  -30.8035   22.0114 H   0  0  0  0  0  0
  -28.1091  -28.9423   21.1841 H   0  0  0  0  0  0
  -25.9934  -25.9578   18.9037 H   0  0  0  0  0  0
  -23.9727  -27.3460   18.9347 H   0  0  0  0  0  0
  -23.7292  -30.5861   19.4020 H   0  0  0  0  0  0
  -22.7457  -29.2333   19.8817 H   0  0  0  0  0  0
  -25.1292  -36.1956   25.0836 H   0  0  0  0  0  0
  -20.9968  -28.3164   24.1462 H   0  0  0  0  0  0
  -20.5716  -26.2283   23.3586 H   0  0  0  0  0  0
  -21.6662  -26.7425   22.1204 H   0  0  0  0  0  0
  -19.6931  -25.6286   21.1239 H   0  0  0  0  0  0
  -19.6639  -27.3184   20.6755 H   0  0  0  0  0  0
  -17.4232  -26.6704   21.4008 H   0  0  0  0  0  0
  -18.0283  -25.9948   22.8954 H   0  0  0  0  0  0
  -19.7940  -30.7284   24.2190 H   0  0  0  0  0  0
  -17.5004  -31.6229   24.5146 H   0  0  0  0  0  0
  -15.5362  -30.2911   23.7634 H   0  0  0  0  0  0
  -15.8707  -28.0696   22.7155 H   0  0  0  0  0  0
  -24.5900  -30.7060   25.7726 H   0  0  0  0  0  0
  -24.8956  -32.2817   26.4938 H   0  0  0  0  0  0
  -25.8076  -30.8763   27.0148 H   0  0  0  0  0  0
  -26.2908  -29.6792   24.1184 H   0  0  0  0  0  0
  -27.4125  -29.7246   25.4599 H   0  0  0  0  0  0
  -27.8772  -30.4365   23.9325 H   0  0  0  0  0  0
  -27.2662  -33.3594   26.2098 H   0  0  0  0  0  0
  -28.3844  -32.6944   25.0286 H   0  0  0  0  0  0
  -28.0789  -31.8432   26.5357 H   0  0  0  0  0  0
  -28.2659  -38.0085   24.7585 H   0  0  0  0  0  0
  -28.1074  -36.2649   24.6275 H   0  0  0  0  0  0
  -27.2329  -37.1413   25.8895 H   0  0  0  0  0  0
  -20.9464  -29.8686   21.6842 H   0  0  0  0  0  0
  -26.0213  -38.2911   24.1372 H   0  0  0  0  0  0
  -32.8945  -19.2958   22.3620 H   0  0  0  0  0  0
  -31.6207  -21.1834   21.5661 H   0  0  0  0  0  0
  -28.6035  -18.5053   20.0513 H   0  0  0  0  0  0
  -33.0291  -17.1092   23.0813 H   0  0  0  0  0  0
  -33.1235  -16.3312   21.5170 H   0  0  0  0  0  0
  -31.8883  -15.8502   22.6858 H   0  0  0  0  0  0
  -28.4066  -23.4437   18.8816 H   0  0  0  0  0  0
  -29.8552  -24.2304   19.4095 H   0  0  0  0  0  0
  -27.9172  -15.1935   21.9884 H   0  0  0  0  0  0
  -28.0312  -16.8672   22.0283 H   0  0  0  0  0  0
  -28.2786  -24.9506   21.5547 H   0  0  0  0  0  0
  -27.0417  -24.7163   20.4003 H   0  0  0  0  0  0
  -29.0487  -16.1134   20.0013 H   0  0  0  0  0  0
  -28.6215  -21.1029   19.4932 H   0  0  0  0  0  0
  -29.8319  -15.1812   23.6044 H   0  0  0  0  0  0
  -28.5509  -16.0384   24.1204 H   0  0  0  0  0  0
  -29.8367  -16.8199   23.5318 H   0  0  0  0  0  0
  1 25  1  0  0  0
  1 30  2  0  0  0
  1 82  1  0  0  0
  2  3  1  0  0  0
  2 25  1  0  0  0
  2 86  1  0  0  0
  2 87  1  0  0  0
  3  4  1  0  0  0
  3 88  1  0  0  0
  3 89  1  0  0  0
  4  5  1  0  0  0
  4 90  1  0  0  0
  4 91  1  0  0  0
  5  6  1  0  0  0
  5 26  1  0  0  0
  5 92  1  0  0  0
  6 25  1  0  0  0
  6 93  1  0  0  0
  6 94  1  0  0  0
  7  8  2  0  0  0
  7 26  1  0  0  0
  7 29  1  0  0  0
  8  9  1  0  0  0
  8 22  1  0  0  0
  9 10  1  0  0  0
  9 27  2  0  0  0
 10 11  2  0  0  0
 10 15  1  0  0  0
 11 12  1  0  0  0
 11 95  1  0  0  0
 12 13  2  0  0  0
 12 96  1  0  0  0
 13 14  1  0  0  0
 13 31  1  0  0  0
 14 15  2  0  0  0
 14 97  1  0  0  0
 15 98  1  0  0  0
 16 17  2  0  0  0
 16 21  1  0  0  0
 16 31  1  0  0  0
 17 18  1  0  0  0
 17 99  1  0  0  0
 18 19  2  0  0  0
 18100  1  0  0  0
 19 20  1  0  0  0
 19 24  1  0  0  0
 20 21  2  0  0  0
 20101  1  0  0  0
 21 23  1  0  0  0
 22 28  1  0  0  0
 22 32  2  0  0  0
 26 27  1  0  0  0
 28102  1  0  0  0
 28103  1  0  0  0
 29104  1  0  0  0
 29105  1  0  0  0
 33 34  1  0  0  0
 33 66  1  0  0  0
 33 70  2  0  0  0
 34 36  1  0  0  0
 34 59  1  0  0  0
 34106  1  0  0  0
 35 44  2  0  0  0
 35 45  1  0  0  0
 35 68  1  0  0  0
 36 56  1  0  0  0
 36107  1  0  0  0
 37 39  1  0  0  0
 37 47  1  0  0  0
 37 66  1  0  0  0
 37108  1  0  0  0
 38 43  2  0  0  0
 38 46  1  0  0  0
 38 47  1  0  0  0
 39 64  1  0  0  0
 39 67  2  0  0  0
 40 52  1  0  0  0
 40 53  2  0  0  0
 40 58  1  0  0  0
 41109  1  0  0  0
 41110  1  0  0  0
 41111  1  0  0  0
 41 48  1  0  0  0
 42 43  1  0  0  0
 42 66  1  0  0  0
 42112  1  0  0  0
 42113  1  0  0  0
 43 44  1  0  0  0
 44114  1  0  0  0
 45 46  2  0  0  0
 45115  1  0  0  0
 46116  1  0  0  0
 47117  1  0  0  0
 47118  1  0  0  0
 48 56  1  0  0  0
 48 65  1  0  0  0
 48119  1  0  0  0
 49 50  1  0  0  0
 49 53  1  0  0  0
 49 64  1  0  0  0
 49120  1  0  0  0
 50 51  1  0  0  0
 50121  1  0  0  0
 50122  1  0  0  0
 51 52  1  0  0  0
 51123  1  0  0  0
 51124  1  0  0  0
 52125  1  0  0  0
 52126  1  0  0  0
 53 54  1  0  0  0
 54 55  2  0  0  0
 54127  1  0  0  0
 55 57  1  0  0  0
 55128  1  0  0  0
 56 69  2  0  0  0
 57 58  2  0  0  0
 57129  1  0  0  0
 58130  1  0  0  0
 59 60  1  0  0  0
 59 61  1  0  0  0
 59 62  1  0  0  0
 60131  1  0  0  0
 60132  1  0  0  0
 60133  1  0  0  0
 61134  1  0  0  0
 61135  1  0  0  0
 61136  1  0  0  0
 62137  1  0  0  0
 62138  1  0  0  0
 62139  1  0  0  0
 63 65  1  0  0  0
 63140  1  0  0  0
 63141  1  0  0  0
 63142  1  0  0  0
 64143  1  0  0  0
 65144  1  0  0  0
 68 81  1  0  0  0
 71 72  2  0  0  0
 71 74  1  0  0  0
 71145  1  0  0  0
 72 76  1  0  0  0
 72146  1  0  0  0
 73 75  1  0  0  0
 73 76  2  0  0  0
 73147  1  0  0  0
 74 75  2  0  0  0
 74 78  1  0  0  0
 75 82  1  0  0  0
 76 83  1  0  0  0
 77 79  1  0  0  0
 77 83  1  0  0  0
 77 85  2  0  0  0
 78148  1  0  0  0
 78149  1  0  0  0
 78150  1  0  0  0
 79 81  1  0  0  0
 79151  1  0  0  0
 79152  1  0  0  0
 80 84  1  0  0  0
 80153  1  0  0  0
 80154  1  0  0  0
 80 82  1  0  0  0
 81155  1  0  0  0
 81156  1  0  0  0
 82157  1  0  0  0
 83158  1  0  0  0
 84159  1  0  0  0
 84160  1  0  0  0
 84161  1  0  0  0
M  CHG  1  84   1
M  ISO  4   1 100  68 101  81 101  82 100
M  END
> <chiral flag>
0

> <version>
0

> <s_m_source_file>
/data/baiqing/PycharmProjects/Reinvent-master-3.2/result/LINK_invent/BTK/process_docking_weight1_custom_product_contain_oxygen_bond_distance_aromatic_linkinvent_7_9_3/rearranged_h_0063.sdf

> <i_m_source_file_index>
76

> <r_mmod_Potential_Energy-OPLS-2005>
-26.8166637420654

> <r_mmod_Stretch_Energy-OPLS-2005>
123.904266357422

> <r_mmod_Bend_Energy-OPLS-2005>
189.581146240234

> <r_mmod_Torsional_Energy-OPLS-2005>
229.164138793945

> <r_mmod_Improper_Torsional_Energy-OPLS-2005>
7.75293064117432

> <r_mmod_Van_der_Waal_Energy-OPLS-2005>
157.214248657227

> <r_mmod_Electrostatic_Energy-OPLS-2005>
-281.434600830078

> <r_mmod_Solvation_Energy-OPLS-2005>
-516.18408203125

> <b_mmod_Minimization_Converged-OPLS-2005>
0

> <r_mmod_RMS_Derivative-OPLS-2005>
6.6849217414856

$$$$
77
                    3D
 Structure written by MMmdl.
154162  0  0  1  0            999 V2000
  -30.5146  -15.0557   20.4075 C   0  0  0  0  0  0
  -30.4382  -12.6643   19.4999 C   0  0  0  0  0  0
  -29.5219  -12.5424   18.2597 C   0  0  0  0  0  0
  -28.0615  -12.3050   18.6849 C   0  0  0  0  0  0
  -27.6202  -13.2561   19.8276 C   0  0  2  0  0  0
  -28.6627  -13.3445   20.9621 C   0  0  0  0  0  0
  -25.2419  -13.8220   20.5715 C   0  0  0  0  0  0
  -24.1762  -13.0434   20.9247 C   0  0  0  0  0  0
  -24.6391  -11.6924   20.8756 C   0  0  0  0  0  0
  -23.9076  -10.4296   21.0403 C   0  0  0  0  0  0
  -24.3623   -9.4210   21.9183 C   0  0  0  0  0  0
  -23.6296   -8.2246   22.0753 C   0  0  0  0  0  0
  -22.4280   -8.0281   21.3543 C   0  0  0  0  0  0
  -21.9917   -9.0253   20.4643 C   0  0  0  0  0  0
  -22.7244  -10.2134   20.3053 C   0  0  0  0  0  0
  -21.6857   -6.0736   22.5279 C   0  0  0  0  0  0
  -21.4016   -6.5639   23.8209 C   0  0  0  0  0  0
  -21.3656   -5.6793   24.9173 C   0  0  0  0  0  0
  -21.6046   -4.3054   24.7226 C   0  0  0  0  0  0
  -21.8816   -3.8145   23.4343 C   0  0  0  0  0  0
  -21.9194   -4.6965   22.3401 C   0  0  0  0  0  0
  -22.7782  -13.5199   21.1899 C   0  0  0  0  0  0
  -22.1663   -4.2150   21.0979 F   0  0  0  0  0  0
  -21.5625   -3.4535   25.7737 F   0  0  0  0  0  0
  -29.9204  -13.7856   20.3451 N   0  0  0  0  0  0
  -26.2843  -12.9463   20.3212 N   0  0  0  0  0  0
  -25.9318  -11.6585   20.5718 N   0  0  0  0  0  0
  -22.0435  -12.8187   22.0454 N   0  0  0  0  0  0
  -25.4046  -15.1954   20.4128 N   0  0  0  0  0  0
  -31.7337  -15.0769   20.1973 O   0  0  0  0  0  0
  -21.6643   -6.8877   21.4241 O   0  0  0  0  0  0
  -22.3470  -14.5510   20.6745 O   0  0  0  0  0  0
  -24.6504  -31.8375   23.1840 C   0  0  0  0  0  0
  -25.9250  -32.4661   23.8247 C   0  0  1  0  0  0
  -27.2104  -27.0663   20.1547 C   0  0  0  0  0  0
  -25.5973  -33.8472   24.2161 N   0  0  0  0  0  0
  -23.4576  -30.4569   21.5304 C   0  0  2  0  0  0
  -24.9071  -28.8745   20.1091 C   0  0  0  0  0  0
  -22.7601  -29.4516   22.4822 C   0  0  0  0  0  0
  -18.0308  -28.1395   22.8456 C   0  0  0  0  0  0
  -24.1498  -36.7250   23.2641 C   0  0  0  0  0  0
  -26.0190  -30.6886   21.3937 C   0  0  0  0  0  0
  -26.0884  -29.2937   20.7343 C   0  0  0  0  0  0
  -27.2418  -28.4075   20.7374 C   0  0  0  0  0  0
  -26.0012  -26.7711   19.4858 C   0  0  0  0  0  0
  -24.8808  -27.6301   19.4664 C   0  0  0  0  0  0
  -23.6883  -29.7866   20.1505 C   0  0  0  0  0  0
  -25.4128  -36.3014   24.0306 C   0  0  1  0  0  0
  -20.5922  -28.3738   23.1205 C   0  0  2  0  0  0
  -20.6799  -26.9433   22.5393 C   0  0  0  0  0  0
  -19.5780  -26.6380   21.5200 C   0  0  0  0  0  0
  -18.1957  -26.7929   22.1607 C   0  0  0  0  0  0
  -19.1564  -28.8883   23.2820 C   0  0  0  0  0  0
  -18.9482  -30.1472   23.8857 C   0  0  0  0  0  0
  -17.6480  -30.6592   24.0556 C   0  0  0  0  0  0
  -25.9085  -34.9390   23.5043 C   0  0  0  0  0  0
  -16.5370  -29.9086   23.6334 C   0  0  0  0  0  0
  -16.7292  -28.6504   23.0351 C   0  0  0  0  0  0
  -26.4544  -31.6552   25.0714 C   0  0  0  0  0  0
  -25.3706  -31.3755   26.1390 C   0  0  0  0  0  0
  -27.0417  -30.2936   24.6346 C   0  0  0  0  0  0
  -27.6060  -32.4328   25.7503 C   0  0  0  0  0  0
  -27.5578  -37.1780   24.8457 C   0  0  0  0  0  0
  -21.4282  -29.3060   22.3573 N   0  0  0  0  0  0
  -26.4290  -37.3736   23.9398 N   0  0  0  0  0  0
  -24.7293  -31.0171   22.0910 N   0  0  0  0  0  0
  -23.4202  -28.8056   23.2993 O   0  0  0  0  0  0
  -28.2342  -26.0266   20.2082 O   0  0  0  0  0  0
  -26.5677  -34.8900   22.4628 O   0  0  0  0  0  0
  -23.5607  -32.1275   23.7025 O   0  0  0  0  0  0
  -31.6841  -19.4338   21.4799 C   0  0  0  0  0  0
  -31.3067  -18.1140   21.1603 C   0  0  0  0  0  0
  -29.2320  -19.0498   20.3453 C   0  0  0  0  0  0
  -30.8832  -20.5891   21.2673 C   0  0  0  0  0  0
  -30.0541  -17.8034   20.6064 C   0  0  0  0  0  0
  -29.6041  -20.4972   20.6150 C   0  0  0  0  0  0
  -31.4727  -21.8279   21.8496 C   0  0  0  0  0  0
  -28.9903  -23.2145   20.1675 C   0  0  0  0  0  0
  -30.6927  -22.5332   22.9429 C   0  0  0  0  0  0
  -27.8741  -24.4760   20.1827 C   0  0  0  0  0  0
  -32.6170  -22.2647   21.5239 N   0  0  0  0  0  0
  -28.7393  -21.7983   20.3786 N   0  0  0  0  0  0
  -29.7367  -16.2785   20.4446 N   0  0  0  0  0  0
  -30.1297  -23.5649   19.8584 O   0  0  0  0  0  0
  -31.4658  -12.8391   19.1788 H   0  0  0  0  0  0
  -30.4578  -11.7294   20.0621 H   0  0  0  0  0  0
  -29.8618  -11.7337   17.6111 H   0  0  0  0  0  0
  -29.5870  -13.4572   17.6680 H   0  0  0  0  0  0
  -27.9824  -11.2699   19.0188 H   0  0  0  0  0  0
  -27.3946  -12.3999   17.8272 H   0  0  0  0  0  0
  -27.5636  -14.2442   19.3696 H   0  0  0  0  0  0
  -28.7786  -12.3875   21.4724 H   0  0  0  0  0  0
  -28.3424  -14.0647   21.7167 H   0  0  0  0  0  0
  -25.2759   -9.5698   22.4766 H   0  0  0  0  0  0
  -24.0003   -7.4645   22.7483 H   0  0  0  0  0  0
  -21.0840   -8.8774   19.8955 H   0  0  0  0  0  0
  -22.3690  -10.9675   19.6169 H   0  0  0  0  0  0
  -21.2011   -7.6146   23.9717 H   0  0  0  0  0  0
  -21.1477   -6.0519   25.9078 H   0  0  0  0  0  0
  -22.0597   -2.7606   23.2845 H   0  0  0  0  0  0
  -22.4054  -11.9840   22.4829 H   0  0  0  0  0  0
  -21.1049  -13.1205   22.2662 H   0  0  0  0  0  0
  -24.6274  -15.8379   20.5212 H   0  0  0  0  0  0
  -26.2339  -15.6399   20.0429 H   0  0  0  0  0  0
  -26.7305  -32.5243   23.0958 H   0  0  0  0  0  0
  -25.0103  -33.9574   25.0293 H   0  0  0  0  0  0
  -22.7638  -31.2847   21.3728 H   0  0  0  0  0  0
  -23.3769  -35.9576   23.3275 H   0  0  0  0  0  0
  -24.3582  -36.8924   22.2061 H   0  0  0  0  0  0
  -23.7249  -37.6431   23.6709 H   0  0  0  0  0  0
  -26.1825  -31.4400   20.6197 H   0  0  0  0  0  0
  -26.8868  -30.7407   22.0398 H   0  0  0  0  0  0
  -28.1394  -28.7241   21.2506 H   0  0  0  0  0  0
  -25.8787  -25.8281   18.9771 H   0  0  0  0  0  0
  -23.9841  -27.3076   18.9550 H   0  0  0  0  0  0
  -23.8317  -30.5621   19.3970 H   0  0  0  0  0  0
  -22.8017  -29.2337   19.8360 H   0  0  0  0  0  0
  -25.1318  -36.1846   25.0800 H   0  0  0  0  0  0
  -20.9997  -28.3354   24.1335 H   0  0  0  0  0  0
  -20.5703  -26.2351   23.3621 H   0  0  0  0  0  0
  -21.6669  -26.7450   22.1189 H   0  0  0  0  0  0
  -19.6960  -25.6280   21.1262 H   0  0  0  0  0  0
  -19.6734  -27.3164   20.6707 H   0  0  0  0  0  0
  -17.4224  -26.6650   21.4014 H   0  0  0  0  0  0
  -18.0369  -26.0080   22.9014 H   0  0  0  0  0  0
  -19.7966  -30.7276   24.2231 H   0  0  0  0  0  0
  -17.5048  -31.6273   24.5159 H   0  0  0  0  0  0
  -15.5373  -30.2983   23.7690 H   0  0  0  0  0  0
  -15.8684  -28.0821   22.7093 H   0  0  0  0  0  0
  -24.5918  -30.7071   25.7694 H   0  0  0  0  0  0
  -24.8857  -32.2936   26.4721 H   0  0  0  0  0  0
  -25.7964  -30.8991   27.0231 H   0  0  0  0  0  0
  -26.3051  -29.6632   24.1349 H   0  0  0  0  0  0
  -27.3986  -29.7273   25.4957 H   0  0  0  0  0  0
  -27.8977  -30.4133   23.9702 H   0  0  0  0  0  0
  -27.2666  -33.3679   26.1972 H   0  0  0  0  0  0
  -28.3932  -32.6806   25.0368 H   0  0  0  0  0  0
  -28.0659  -31.8524   26.5514 H   0  0  0  0  0  0
  -28.2560  -38.0109   24.7519 H   0  0  0  0  0  0
  -28.1111  -36.2633   24.6267 H   0  0  0  0  0  0
  -27.2289  -37.1394   25.8858 H   0  0  0  0  0  0
  -20.9508  -29.8768   21.6739 H   0  0  0  0  0  0
  -26.0154  -38.2801   24.1426 H   0  0  0  0  0  0
  -32.6417  -19.5494   21.9681 H   0  0  0  0  0  0
  -31.9987  -17.3229   21.4095 H   0  0  0  0  0  0
  -28.2536  -18.8853   19.9180 H   0  0  0  0  0  0
  -29.6920  -22.1144   23.0481 H   0  0  0  0  0  0
  -30.5947  -23.5950   22.7135 H   0  0  0  0  0  0
  -31.2043  -22.4360   23.9002 H   0  0  0  0  0  0
  -27.2012  -24.2921   21.0211 H   0  0  0  0  0  0
  -27.2826  -24.2933   19.2874 H   0  0  0  0  0  0
  -33.0344  -21.6972   20.7932 H   0  0  0  0  0  0
  -27.7450  -21.6148   20.4035 H   0  0  0  0  0  0
  -28.7484  -16.0825   20.3902 H   0  0  0  0  0  0
  1 25  1  0  0  0
  1 30  2  0  0  0
  1 83  1  0  0  0
  2  3  1  0  0  0
  2 25  1  0  0  0
  2 85  1  0  0  0
  2 86  1  0  0  0
  3  4  1  0  0  0
  3 87  1  0  0  0
  3 88  1  0  0  0
  4  5  1  0  0  0
  4 89  1  0  0  0
  4 90  1  0  0  0
  5  6  1  0  0  0
  5 26  1  0  0  0
  5 91  1  0  0  0
  6 25  1  0  0  0
  6 92  1  0  0  0
  6 93  1  0  0  0
  7  8  2  0  0  0
  7 26  1  0  0  0
  7 29  1  0  0  0
  8  9  1  0  0  0
  8 22  1  0  0  0
  9 10  1  0  0  0
  9 27  2  0  0  0
 10 11  2  0  0  0
 10 15  1  0  0  0
 11 12  1  0  0  0
 11 94  1  0  0  0
 12 13  2  0  0  0
 12 95  1  0  0  0
 13 14  1  0  0  0
 13 31  1  0  0  0
 14 15  2  0  0  0
 14 96  1  0  0  0
 15 97  1  0  0  0
 16 17  2  0  0  0
 16 21  1  0  0  0
 16 31  1  0  0  0
 17 18  1  0  0  0
 17 98  1  0  0  0
 18 19  2  0  0  0
 18 99  1  0  0  0
 19 20  1  0  0  0
 19 24  1  0  0  0
 20 21  2  0  0  0
 20100  1  0  0  0
 21 23  1  0  0  0
 22 28  1  0  0  0
 22 32  2  0  0  0
 26 27  1  0  0  0
 28101  1  0  0  0
 28102  1  0  0  0
 29103  1  0  0  0
 29104  1  0  0  0
 33 34  1  0  0  0
 33 66  1  0  0  0
 33 70  2  0  0  0
 34 36  1  0  0  0
 34 59  1  0  0  0
 34105  1  0  0  0
 35 44  2  0  0  0
 35 45  1  0  0  0
 35 68  1  0  0  0
 36 56  1  0  0  0
 36106  1  0  0  0
 37 39  1  0  0  0
 37 47  1  0  0  0
 37 66  1  0  0  0
 37107  1  0  0  0
 38 43  2  0  0  0
 38 46  1  0  0  0
 38 47  1  0  0  0
 39 64  1  0  0  0
 39 67  2  0  0  0
 40 52  1  0  0  0
 40 53  2  0  0  0
 40 58  1  0  0  0
 41108  1  0  0  0
 41109  1  0  0  0
 41110  1  0  0  0
 41 48  1  0  0  0
 42 43  1  0  0  0
 42 66  1  0  0  0
 42111  1  0  0  0
 42112  1  0  0  0
 43 44  1  0  0  0
 44113  1  0  0  0
 45 46  2  0  0  0
 45114  1  0  0  0
 46115  1  0  0  0
 47116  1  0  0  0
 47117  1  0  0  0
 48 56  1  0  0  0
 48 65  1  0  0  0
 48118  1  0  0  0
 49 50  1  0  0  0
 49 53  1  0  0  0
 49 64  1  0  0  0
 49119  1  0  0  0
 50 51  1  0  0  0
 50120  1  0  0  0
 50121  1  0  0  0
 51 52  1  0  0  0
 51122  1  0  0  0
 51123  1  0  0  0
 52124  1  0  0  0
 52125  1  0  0  0
 53 54  1  0  0  0
 54 55  2  0  0  0
 54126  1  0  0  0
 55 57  1  0  0  0
 55127  1  0  0  0
 56 69  2  0  0  0
 57 58  2  0  0  0
 57128  1  0  0  0
 58129  1  0  0  0
 59 60  1  0  0  0
 59 61  1  0  0  0
 59 62  1  0  0  0
 60130  1  0  0  0
 60131  1  0  0  0
 60132  1  0  0  0
 61133  1  0  0  0
 61134  1  0  0  0
 61135  1  0  0  0
 62136  1  0  0  0
 62137  1  0  0  0
 62138  1  0  0  0
 63 65  1  0  0  0
 63139  1  0  0  0
 63140  1  0  0  0
 63141  1  0  0  0
 64142  1  0  0  0
 65143  1  0  0  0
 68 80  1  0  0  0
 71 72  2  0  0  0
 71 74  1  0  0  0
 71144  1  0  0  0
 72 75  1  0  0  0
 72145  1  0  0  0
 73 75  2  0  0  0
 73 76  1  0  0  0
 73146  1  0  0  0
 74 76  2  0  0  0
 74 77  1  0  0  0
 75 83  1  0  0  0
 76 82  1  0  0  0
 77 79  1  0  0  0
 77 81  2  0  0  0
 78 80  1  0  0  0
 78 82  1  0  0  0
 78 84  2  0  0  0
 79147  1  0  0  0
 79148  1  0  0  0
 79149  1  0  0  0
 80150  1  0  0  0
 80151  1  0  0  0
 81152  1  0  0  0
 82153  1  0  0  0
 83154  1  0  0  0
M  ISO  4   1 100  68 101  80 101  83 100
M  END
> <chiral flag>
0

> <version>
0

> <s_m_source_file>
/data/baiqing/PycharmProjects/Reinvent-master-3.2/result/LINK_invent/BTK/process_docking_weight1_custom_product_contain_oxygen_bond_distance_aromatic_linkinvent_7_9_3/rearranged_h_0063.sdf

> <i_m_source_file_index>
77

> <r_mmod_Potential_Energy-OPLS-2005>
707.976196289062

> <r_mmod_Stretch_Energy-OPLS-2005>
356.079315185547

> <r_mmod_Bend_Energy-OPLS-2005>
281.811798095703

> <r_mmod_Torsional_Energy-OPLS-2005>
254.601089477539

> <r_mmod_Improper_Torsional_Energy-OPLS-2005>
7.49287843704224

> <r_mmod_Van_der_Waal_Energy-OPLS-2005>
141.948699951172

> <r_mmod_Electrostatic_Energy-OPLS-2005>
-334.882690429688

> <r_mmod_Solvation_Energy-OPLS-2005>
-269.253692626953

> <b_mmod_Minimization_Converged-OPLS-2005>
0

> <r_mmod_RMS_Derivative-OPLS-2005>
1.56333255767822

$$$$
78
                    3D
 Structure written by MMmdl.
167175  0  0  1  0            999 V2000
  -30.7354  -14.4414   20.6158 C   0  0  0  0  0  0
  -30.4116  -12.3096   19.4101 C   0  0  0  0  0  0
  -29.4841  -12.5146   18.1972 C   0  0  0  0  0  0
  -28.0076  -12.3729   18.6140 C   0  0  0  0  0  0
  -27.6584  -13.2099   19.8739 C   0  0  2  0  0  0
  -28.7006  -12.9934   20.9932 C   0  0  0  0  0  0
  -25.2572  -13.8173   20.5684 C   0  0  0  0  0  0
  -24.1829  -13.0439   20.9178 C   0  0  0  0  0  0
  -24.6389  -11.6909   20.8736 C   0  0  0  0  0  0
  -23.9061  -10.4294   21.0406 C   0  0  0  0  0  0
  -24.3616   -9.4211   21.9182 C   0  0  0  0  0  0
  -23.6293   -8.2245   22.0752 C   0  0  0  0  0  0
  -22.4275   -8.0282   21.3544 C   0  0  0  0  0  0
  -21.9912   -9.0254   20.4645 C   0  0  0  0  0  0
  -22.7237  -10.2136   20.3053 C   0  0  0  0  0  0
  -21.6852   -6.0738   22.5278 C   0  0  0  0  0  0
  -21.4015   -6.5643   23.8212 C   0  0  0  0  0  0
  -21.3659   -5.6795   24.9174 C   0  0  0  0  0  0
  -21.6043   -4.3058   24.7227 C   0  0  0  0  0  0
  -21.8819   -3.8149   23.4347 C   0  0  0  0  0  0
  -21.9193   -4.6964   22.3403 C   0  0  0  0  0  0
  -22.7853  -13.5234   21.1842 C   0  0  0  0  0  0
  -22.1662   -4.2150   21.0980 F   0  0  0  0  0  0
  -21.5628   -3.4540   25.7739 F   0  0  0  0  0  0
  -30.0292  -13.2931   20.4353 N   0  0  0  0  0  0
  -26.3006  -12.9349   20.3371 N   0  0  0  0  0  0
  -25.9315  -11.6503   20.5768 N   0  0  0  0  0  0
  -22.0501  -12.8221   22.0401 N   0  0  0  0  0  0
  -25.4307  -15.1889   20.4091 N   0  0  0  0  0  0
  -31.8447  -14.6248   20.1051 O   0  0  0  0  0  0
  -21.6639   -6.8881   21.4240 O   0  0  0  0  0  0
  -22.3542  -14.5545   20.6700 O   0  0  0  0  0  0
  -24.6145  -31.8679   23.2124 C   0  0  0  0  0  0
  -25.9040  -32.4817   23.8408 C   0  0  1  0  0  0
  -27.2258  -27.4232   20.0943 C   0  0  0  0  0  0
  -25.5903  -33.8616   24.2340 N   0  0  0  0  0  0
  -23.4031  -30.4926   21.5541 C   0  0  2  0  0  0
  -24.8451  -28.9605   20.1168 C   0  0  0  0  0  0
  -22.7413  -29.4647   22.5000 C   0  0  0  0  0  0
  -18.0269  -28.1373   22.8489 C   0  0  0  0  0  0
  -24.1489  -36.7315   23.2643 C   0  0  0  0  0  0
  -25.9330  -30.8291   21.3686 C   0  0  0  0  0  0
  -26.0070  -29.4639   20.7137 C   0  0  0  0  0  0
  -27.1986  -28.7028   20.6989 C   0  0  0  0  0  0
  -26.0451  -26.9456   19.4783 C   0  0  0  0  0  0
  -24.8589  -27.7001   19.4992 C   0  0  0  0  0  0
  -23.6101  -29.8297   20.1678 C   0  0  0  0  0  0
  -25.4108  -36.3112   24.0345 C   0  0  1  0  0  0
  -20.5860  -28.3654   23.1320 C   0  0  2  0  0  0
  -20.6762  -26.9391   22.5414 C   0  0  0  0  0  0
  -19.5740  -26.6375   21.5209 C   0  0  0  0  0  0
  -18.1916  -26.7922   22.1618 C   0  0  0  0  0  0
  -19.1521  -28.8831   23.2901 C   0  0  0  0  0  0
  -18.9452  -30.1438   23.8907 C   0  0  0  0  0  0
  -17.6458  -30.6579   24.0564 C   0  0  0  0  0  0
  -25.9026  -34.9471   23.5141 C   0  0  0  0  0  0
  -16.5346  -29.9080   23.6329 C   0  0  0  0  0  0
  -16.7259  -28.6500   23.0344 C   0  0  0  0  0  0
  -26.4470  -31.6599   25.0739 C   0  0  0  0  0  0
  -25.3740  -31.3704   26.1494 C   0  0  0  0  0  0
  -27.0317  -30.3045   24.6122 C   0  0  0  0  0  0
  -27.6049  -32.4319   25.7496 C   0  0  0  0  0  0
  -27.5589  -37.1812   24.8468 C   0  0  0  0  0  0
  -21.4137  -29.3030   22.3736 N   0  0  0  0  0  0
  -26.4305  -37.3789   23.9404 N   0  0  0  0  0  0
  -24.6687  -31.0769   22.1038 N   0  0  0  0  0  0
  -23.4186  -28.8166   23.3021 O   0  0  0  0  0  0
  -28.4103  -26.7093   20.1016 O   0  0  0  0  0  0
  -26.5586  -34.8927   22.4699 O   0  0  0  0  0  0
  -23.5333  -32.1448   23.7501 O   0  0  0  0  0  0
  -32.4701  -17.4472   23.3518 C   0  0  0  0  0  0
  -31.7709  -16.3579   22.8106 C   0  0  0  0  0  0
  -30.4370  -17.8922   21.4531 C   0  0  0  0  0  0
  -31.1753  -18.9956   21.9592 C   0  0  0  0  0  0
  -32.1907  -18.7592   22.9220 C   0  0  0  0  0  0
  -30.7674  -16.5657   21.8415 C   0  0  0  0  0  0
  -30.9614  -20.3891   21.5064 C   0  0  0  0  0  0
  -29.8047  -21.0800   21.4192 C   0  0  0  0  0  0
  -29.8440  -22.4789   20.9996 C   0  0  0  0  0  0
  -32.9979  -19.9054   23.5139 C   0  0  0  0  0  0
  -28.1947  -24.7205   23.9858 C   0  0  0  0  0  0
  -26.2657  -24.4853   22.3706 C   0  0  0  0  0  0
  -28.3879  -25.2672   20.0829 C   0  0  0  0  0  0
  -27.6765  -25.0714   22.5789 C   0  0  0  0  0  0
  -28.6901  -24.6562   21.4788 C   0  0  1  0  0  0
  -30.1102  -15.4316   21.2838 N   0  0  0  0  0  0
  -28.7980  -23.1871   21.4481 N   0  0  0  0  0  0
  -30.7577  -23.0023   20.3582 O   0  0  0  0  0  0
  -31.4563  -12.4006   19.1066 H   0  0  0  0  0  0
  -30.3059  -11.2983   19.8054 H   0  0  0  0  0  0
  -29.7211  -11.7951   17.4124 H   0  0  0  0  0  0
  -29.6511  -13.5038   17.7669 H   0  0  0  0  0  0
  -27.8167  -11.3166   18.8055 H   0  0  0  0  0  0
  -27.3555  -12.6535   17.7861 H   0  0  0  0  0  0
  -27.7025  -14.2583   19.5776 H   0  0  0  0  0  0
  -28.6767  -11.9601   21.3412 H   0  0  0  0  0  0
  -28.4613  -13.5995   21.8681 H   0  0  0  0  0  0
  -25.2763   -9.5685   22.4758 H   0  0  0  0  0  0
  -24.0002   -7.4637   22.7470 H   0  0  0  0  0  0
  -21.0846   -8.8772   19.8948 H   0  0  0  0  0  0
  -22.3695  -10.9675   19.6162 H   0  0  0  0  0  0
  -21.2009   -7.6151   23.9716 H   0  0  0  0  0  0
  -21.1481   -6.0526   25.9079 H   0  0  0  0  0  0
  -22.0599   -2.7609   23.2846 H   0  0  0  0  0  0
  -22.4118  -11.9876   22.4772 H   0  0  0  0  0  0
  -21.1115  -13.1243   22.2613 H   0  0  0  0  0  0
  -24.6666  -15.8475   20.5153 H   0  0  0  0  0  0
  -26.2871  -15.6257   20.0903 H   0  0  0  0  0  0
  -26.7110  -32.5517   23.1171 H   0  0  0  0  0  0
  -25.0077  -33.9772   25.0505 H   0  0  0  0  0  0
  -22.6926  -31.3105   21.4182 H   0  0  0  0  0  0
  -23.3745  -35.9657   23.3310 H   0  0  0  0  0  0
  -24.3586  -36.8912   22.2057 H   0  0  0  0  0  0
  -23.7242  -37.6526   23.6644 H   0  0  0  0  0  0
  -26.0502  -31.5968   20.6026 H   0  0  0  0  0  0
  -26.8206  -30.8791   21.9884 H   0  0  0  0  0  0
  -28.0973  -29.0886   21.1602 H   0  0  0  0  0  0
  -26.0094  -26.0055   18.9514 H   0  0  0  0  0  0
  -23.9686  -27.3098   19.0260 H   0  0  0  0  0  0
  -23.7178  -30.6077   19.4108 H   0  0  0  0  0  0
  -22.7335  -29.2510   19.8721 H   0  0  0  0  0  0
  -25.1282  -36.2001   25.0840 H   0  0  0  0  0  0
  -20.9951  -28.3216   24.1442 H   0  0  0  0  0  0
  -20.5677  -26.2255   23.3596 H   0  0  0  0  0  0
  -21.6632  -26.7440   22.1204 H   0  0  0  0  0  0
  -19.6910  -25.6289   21.1232 H   0  0  0  0  0  0
  -19.6690  -27.3198   20.6751 H   0  0  0  0  0  0
  -17.4190  -26.6669   21.4014 H   0  0  0  0  0  0
  -18.0306  -26.0069   22.9016 H   0  0  0  0  0  0
  -19.7932  -30.7236   24.2290 H   0  0  0  0  0  0
  -17.5015  -31.6267   24.5154 H   0  0  0  0  0  0
  -15.5345  -30.2983   23.7645 H   0  0  0  0  0  0
  -15.8656  -28.0817   22.7053 H   0  0  0  0  0  0
  -24.5905  -30.7068   25.7823 H   0  0  0  0  0  0
  -24.8945  -32.2861   26.4967 H   0  0  0  0  0  0
  -25.8093  -30.8852   27.0239 H   0  0  0  0  0  0
  -26.2883  -29.6783   24.1180 H   0  0  0  0  0  0
  -27.4102  -29.7296   25.4582 H   0  0  0  0  0  0
  -27.8698  -30.4365   23.9276 H   0  0  0  0  0  0
  -27.2682  -33.3610   26.2107 H   0  0  0  0  0  0
  -28.3840  -32.6891   25.0311 H   0  0  0  0  0  0
  -28.0746  -31.8432   26.5386 H   0  0  0  0  0  0
  -28.2605  -38.0112   24.7512 H   0  0  0  0  0  0
  -28.1086  -36.2640   24.6296 H   0  0  0  0  0  0
  -27.2308  -37.1465   25.8873 H   0  0  0  0  0  0
  -20.9291  -29.8772   21.6979 H   0  0  0  0  0  0
  -26.0201  -38.2874   24.1387 H   0  0  0  0  0  0
  -33.2396  -17.2642   24.0890 H   0  0  0  0  0  0
  -32.0218  -15.3580   23.1379 H   0  0  0  0  0  0
  -29.6640  -18.0616   20.7167 H   0  0  0  0  0  0
  -31.8713  -20.8977   21.2159 H   0  0  0  0  0  0
  -28.8680  -20.6086   21.6817 H   0  0  0  0  0  0
  -33.6698  -19.5616   24.3007 H   0  0  0  0  0  0
  -32.3396  -20.6591   23.9475 H   0  0  0  0  0  0
  -33.6073  -20.3816   22.7455 H   0  0  0  0  0  0
  -27.5241  -25.1001   24.7569 H   0  0  0  0  0  0
  -29.1751  -25.1620   24.1660 H   0  0  0  0  0  0
  -28.2866  -23.6436   24.1305 H   0  0  0  0  0  0
  -25.5746  -24.8558   23.1283 H   0  0  0  0  0  0
  -26.2602  -23.3972   22.4353 H   0  0  0  0  0  0
  -25.8502  -24.7640   21.4029 H   0  0  0  0  0  0
  -27.4849  -24.8164   19.6831 H   0  0  0  0  0  0
  -29.1727  -24.9697   19.3878 H   0  0  0  0  0  0
  -27.5865  -26.1581   22.5515 H   0  0  0  0  0  0
  -29.6643  -25.0474   21.7790 H   0  0  0  0  0  0
  -29.1332  -15.3015   21.5003 H   0  0  0  0  0  0
  -28.0926  -22.6829   21.9655 H   0  0  0  0  0  0
  1 25  1  0  0  0
  1 30  2  0  0  0
  1 86  1  0  0  0
  2  3  1  0  0  0
  2 25  1  0  0  0
  2 89  1  0  0  0
  2 90  1  0  0  0
  3  4  1  0  0  0
  3 91  1  0  0  0
  3 92  1  0  0  0
  4  5  1  0  0  0
  4 93  1  0  0  0
  4 94  1  0  0  0
  5  6  1  0  0  0
  5 26  1  0  0  0
  5 95  1  0  0  0
  6 25  1  0  0  0
  6 96  1  0  0  0
  6 97  1  0  0  0
  7  8  2  0  0  0
  7 26  1  0  0  0
  7 29  1  0  0  0
  8  9  1  0  0  0
  8 22  1  0  0  0
  9 10  1  0  0  0
  9 27  2  0  0  0
 10 11  2  0  0  0
 10 15  1  0  0  0
 11 12  1  0  0  0
 11 98  1  0  0  0
 12 13  2  0  0  0
 12 99  1  0  0  0
 13 14  1  0  0  0
 13 31  1  0  0  0
 14 15  2  0  0  0
 14100  1  0  0  0
 15101  1  0  0  0
 16 17  2  0  0  0
 16 21  1  0  0  0
 16 31  1  0  0  0
 17 18  1  0  0  0
 17102  1  0  0  0
 18 19  2  0  0  0
 18103  1  0  0  0
 19 20  1  0  0  0
 19 24  1  0  0  0
 20 21  2  0  0  0
 20104  1  0  0  0
 21 23  1  0  0  0
 22 28  1  0  0  0
 22 32  2  0  0  0
 26 27  1  0  0  0
 28105  1  0  0  0
 28106  1  0  0  0
 29107  1  0  0  0
 29108  1  0  0  0
 33 34  1  0  0  0
 33 66  1  0  0  0
 33 70  2  0  0  0
 34 36  1  0  0  0
 34 59  1  0  0  0
 34109  1  0  0  0
 35 44  2  0  0  0
 35 45  1  0  0  0
 35 68  1  0  0  0
 36 56  1  0  0  0
 36110  1  0  0  0
 37 39  1  0  0  0
 37 47  1  0  0  0
 37 66  1  0  0  0
 37111  1  0  0  0
 38 43  2  0  0  0
 38 46  1  0  0  0
 38 47  1  0  0  0
 39 64  1  0  0  0
 39 67  2  0  0  0
 40 52  1  0  0  0
 40 53  2  0  0  0
 40 58  1  0  0  0
 41112  1  0  0  0
 41113  1  0  0  0
 41114  1  0  0  0
 41 48  1  0  0  0
 42 43  1  0  0  0
 42 66  1  0  0  0
 42115  1  0  0  0
 42116  1  0  0  0
 43 44  1  0  0  0
 44117  1  0  0  0
 45 46  2  0  0  0
 45118  1  0  0  0
 46119  1  0  0  0
 47120  1  0  0  0
 47121  1  0  0  0
 48 56  1  0  0  0
 48 65  1  0  0  0
 48122  1  0  0  0
 49 50  1  0  0  0
 49 53  1  0  0  0
 49 64  1  0  0  0
 49123  1  0  0  0
 50 51  1  0  0  0
 50124  1  0  0  0
 50125  1  0  0  0
 51 52  1  0  0  0
 51126  1  0  0  0
 51127  1  0  0  0
 52128  1  0  0  0
 52129  1  0  0  0
 53 54  1  0  0  0
 54 55  2  0  0  0
 54130  1  0  0  0
 55 57  1  0  0  0
 55131  1  0  0  0
 56 69  2  0  0  0
 57 58  2  0  0  0
 57132  1  0  0  0
 58133  1  0  0  0
 59 60  1  0  0  0
 59 61  1  0  0  0
 59 62  1  0  0  0
 60134  1  0  0  0
 60135  1  0  0  0
 60136  1  0  0  0
 61137  1  0  0  0
 61138  1  0  0  0
 61139  1  0  0  0
 62140  1  0  0  0
 62141  1  0  0  0
 62142  1  0  0  0
 63 65  1  0  0  0
 63143  1  0  0  0
 63144  1  0  0  0
 63145  1  0  0  0
 64146  1  0  0  0
 65147  1  0  0  0
 68 83  1  0  0  0
 71 72  2  0  0  0
 71 75  1  0  0  0
 71148  1  0  0  0
 72 76  1  0  0  0
 72149  1  0  0  0
 73 74  1  0  0  0
 73 76  2  0  0  0
 73150  1  0  0  0
 74 75  2  0  0  0
 74 77  1  0  0  0
 75 80  1  0  0  0
 76 86  1  0  0  0
 77 78  2  0  0  0
 77151  1  0  0  0
 78 79  1  0  0  0
 78152  1  0  0  0
 79 87  1  0  0  0
 79 88  2  0  0  0
 80153  1  0  0  0
 80154  1  0  0  0
 80155  1  0  0  0
 81156  1  0  0  0
 81157  1  0  0  0
 81158  1  0  0  0
 81 84  1  0  0  0
 82 84  1  0  0  0
 82159  1  0  0  0
 82160  1  0  0  0
 82161  1  0  0  0
 83162  1  0  0  0
 83163  1  0  0  0
 83 85  1  0  0  0
 84 85  1  0  0  0
 84164  1  0  0  0
 85 87  1  0  0  0
 85165  1  0  0  0
 86166  1  0  0  0
 87167  1  0  0  0
M  ISO  4   1 100  68 101  83 101  86 100
M  END
> <chiral flag>
0

> <version>
0

> <s_m_source_file>
/data/baiqing/PycharmProjects/Reinvent-master-3.2/result/LINK_invent/BTK/process_docking_weight1_custom_product_contain_oxygen_bond_distance_aromatic_linkinvent_7_9_3/rearranged_h_0063.sdf

> <i_m_source_file_index>
78

> <r_mmod_Potential_Energy-OPLS-2005>
-113.597724914551

> <r_mmod_Stretch_Energy-OPLS-2005>
38.7983016967773

> <r_mmod_Bend_Energy-OPLS-2005>
104.819549560547

> <r_mmod_Torsional_Energy-OPLS-2005>
267.878692626953

> <r_mmod_Improper_Torsional_Energy-OPLS-2005>
3.55918908119202

> <r_mmod_Van_der_Waal_Energy-OPLS-2005>
156.346786499023

> <r_mmod_Electrostatic_Energy-OPLS-2005>
-471.528442382812

> <r_mmod_Solvation_Energy-OPLS-2005>
-225.32177734375

> <b_mmod_Minimization_Converged-OPLS-2005>
0

> <r_mmod_RMS_Derivative-OPLS-2005>
1.18453919887543

$$$$
79
                    3D
 Structure written by MMmdl.
151159  0  0  1  0            999 V2000
  -30.6154  -14.7290   20.4305 C   0  0  0  0  0  0
  -30.4260  -12.4369   19.4787 C   0  0  0  0  0  0
  -29.5097  -12.5027   18.2374 C   0  0  0  0  0  0
  -28.0335  -12.3371   18.6453 C   0  0  0  0  0  0
  -27.6402  -13.2348   19.8492 C   0  0  2  0  0  0
  -28.6824  -13.1664   20.9864 C   0  0  0  0  0  0
  -25.2496  -13.8212   20.5690 C   0  0  0  0  0  0
  -24.1792  -13.0447   20.9204 C   0  0  0  0  0  0
  -24.6384  -11.6927   20.8739 C   0  0  0  0  0  0
  -23.9065  -10.4300   21.0403 C   0  0  0  0  0  0
  -24.3620   -9.4216   21.9179 C   0  0  0  0  0  0
  -23.6298   -8.2248   22.0752 C   0  0  0  0  0  0
  -22.4279   -8.0280   21.3545 C   0  0  0  0  0  0
  -21.9906   -9.0252   20.4649 C   0  0  0  0  0  0
  -22.7232  -10.2136   20.3058 C   0  0  0  0  0  0
  -21.6857   -6.0734   22.5278 C   0  0  0  0  0  0
  -21.4017   -6.5637   23.8210 C   0  0  0  0  0  0
  -21.3662   -5.6791   24.9172 C   0  0  0  0  0  0
  -21.6045   -4.3052   24.7222 C   0  0  0  0  0  0
  -21.8821   -3.8144   23.4343 C   0  0  0  0  0  0
  -21.9195   -4.6961   22.3400 C   0  0  0  0  0  0
  -22.7813  -13.5224   21.1862 C   0  0  0  0  0  0
  -22.1665   -4.2147   21.0976 F   0  0  0  0  0  0
  -21.5628   -3.4536   25.7735 F   0  0  0  0  0  0
  -29.9876  -13.5041   20.4079 N   0  0  0  0  0  0
  -26.2921  -12.9421   20.3265 N   0  0  0  0  0  0
  -25.9314  -11.6560   20.5738 N   0  0  0  0  0  0
  -22.0458  -12.8221   22.0424 N   0  0  0  0  0  0
  -25.4192  -15.1938   20.4118 N   0  0  0  0  0  0
  -31.8123  -14.7952   20.1361 O   0  0  0  0  0  0
  -21.6645   -6.8877   21.4240 O   0  0  0  0  0  0
  -22.3489  -14.5518   20.6694 O   0  0  0  0  0  0
  -24.6307  -31.8547   23.1978 C   0  0  0  0  0  0
  -25.9141  -32.4742   23.8316 C   0  0  1  0  0  0
  -27.2195  -27.2670   20.1182 C   0  0  0  0  0  0
  -25.5943  -33.8548   24.2231 N   0  0  0  0  0  0
  -23.4249  -30.4784   21.5405 C   0  0  2  0  0  0
  -24.8697  -28.9245   20.1080 C   0  0  0  0  0  0
  -22.7486  -29.4603   22.4904 C   0  0  0  0  0  0
  -18.0287  -28.1381   22.8478 C   0  0  0  0  0  0
  -24.1490  -36.7287   23.2632 C   0  0  0  0  0  0
  -25.9708  -30.7685   21.3765 C   0  0  0  0  0  0
  -26.0402  -29.3927   20.7153 C   0  0  0  0  0  0
  -27.2137  -28.5751   20.7102 C   0  0  0  0  0  0
  -26.0177  -26.8579   19.4968 C   0  0  0  0  0  0
  -24.8630  -27.6651   19.4903 C   0  0  0  0  0  0
  -23.6409  -29.8114   20.1559 C   0  0  0  0  0  0
  -25.4117  -36.3061   24.0312 C   0  0  1  0  0  0
  -20.5888  -28.3687   23.1272 C   0  0  2  0  0  0
  -20.6769  -26.9407   22.5404 C   0  0  0  0  0  0
  -19.5746  -26.6376   21.5206 C   0  0  0  0  0  0
  -18.1930  -26.7920   22.1625 C   0  0  0  0  0  0
  -19.1540  -28.8854   23.2867 C   0  0  0  0  0  0
  -18.9466  -30.1460   23.8874 C   0  0  0  0  0  0
  -17.6465  -30.6582   24.0561 C   0  0  0  0  0  0
  -25.9069  -34.9435   23.5074 C   0  0  0  0  0  0
  -16.5356  -29.9078   23.6332 C   0  0  0  0  0  0
  -16.7276  -28.6502   23.0342 C   0  0  0  0  0  0
  -26.4500  -31.6577   25.0715 C   0  0  0  0  0  0
  -25.3728  -31.3743   26.1441 C   0  0  0  0  0  0
  -27.0342  -30.2978   24.6234 C   0  0  0  0  0  0
  -27.6033  -32.4336   25.7503 C   0  0  0  0  0  0
  -27.5584  -37.1789   24.8450 C   0  0  0  0  0  0
  -21.4195  -29.3034   22.3656 N   0  0  0  0  0  0
  -26.4277  -37.3774   23.9420 N   0  0  0  0  0  0
  -24.6944  -31.0524   22.0943 N   0  0  0  0  0  0
  -23.4192  -28.8148   23.3003 O   0  0  0  0  0  0
  -28.3459  -26.4166   20.1951 O   0  0  0  0  0  0
  -26.5650  -34.8919   22.4648 O   0  0  0  0  0  0
  -23.5466  -32.1367   23.7292 O   0  0  0  0  0  0
  -31.1160  -18.6623   18.3377 C   0  0  0  0  0  0
  -30.5111  -19.8283   18.8366 C   0  0  0  0  0  0
  -30.8936  -17.4078   18.9313 C   0  0  0  0  0  0
  -29.4311  -18.4826   20.5515 C   0  0  0  0  0  0
  -29.6340  -19.7993   19.9461 C   0  0  0  0  0  0
  -30.0627  -17.2551   20.0656 C   0  0  0  0  0  0
  -28.8867  -22.3038   19.7739 C   0  0  0  0  0  0
  -28.5431  -23.6821   20.5165 C   0  0  0  0  0  0
  -28.4173  -25.0294   19.6202 C   0  0  0  0  0  0
  -29.0679  -21.0906   20.4375 N   0  0  0  0  0  0
  -29.8531  -15.8805   20.6082 N   0  0  0  0  0  0
  -28.9458  -22.3524   18.5432 O   0  0  0  0  0  0
  -31.4692  -12.5484   19.1781 H   0  0  0  0  0  0
  -30.3587  -11.4602   19.9609 H   0  0  0  0  0  0
  -29.7883  -11.7297   17.5198 H   0  0  0  0  0  0
  -29.6469  -13.4586   17.7298 H   0  0  0  0  0  0
  -27.8806  -11.2882   18.9012 H   0  0  0  0  0  0
  -27.3824  -12.5412   17.7943 H   0  0  0  0  0  0
  -27.6357  -14.2575   19.4711 H   0  0  0  0  0  0
  -28.7077  -12.1705   21.4309 H   0  0  0  0  0  0
  -28.4212  -13.8553   21.7906 H   0  0  0  0  0  0
  -25.2769   -9.5692   22.4748 H   0  0  0  0  0  0
  -24.0012   -7.4638   22.7468 H   0  0  0  0  0  0
  -21.0838   -8.8767   19.8954 H   0  0  0  0  0  0
  -22.3688  -10.9672   19.6165 H   0  0  0  0  0  0
  -21.2014   -7.6147   23.9713 H   0  0  0  0  0  0
  -21.1481   -6.0522   25.9076 H   0  0  0  0  0  0
  -22.0600   -2.7607   23.2843 H   0  0  0  0  0  0
  -22.4081  -11.9904   22.4848 H   0  0  0  0  0  0
  -21.1070  -13.1241   22.2606 H   0  0  0  0  0  0
  -24.6515  -15.8481   20.5201 H   0  0  0  0  0  0
  -26.2652  -15.6324   20.0706 H   0  0  0  0  0  0
  -26.7207  -32.5383   23.1058 H   0  0  0  0  0  0
  -25.0057  -33.9676   25.0352 H   0  0  0  0  0  0
  -22.7220  -31.3013   21.3948 H   0  0  0  0  0  0
  -23.3754  -35.9614   23.3254 H   0  0  0  0  0  0
  -24.3583  -36.8959   22.2054 H   0  0  0  0  0  0
  -23.7239  -37.6470   23.6695 H   0  0  0  0  0  0
  -26.1161  -31.5331   20.6118 H   0  0  0  0  0  0
  -26.8463  -30.8109   22.0126 H   0  0  0  0  0  0
  -28.1115  -28.9286   21.1966 H   0  0  0  0  0  0
  -25.9175  -25.8911   19.0328 H   0  0  0  0  0  0
  -23.9625  -27.2969   19.0193 H   0  0  0  0  0  0
  -23.7671  -30.5870   19.3990 H   0  0  0  0  0  0
  -22.7585  -29.2454   19.8512 H   0  0  0  0  0  0
  -25.1300  -36.1875   25.0800 H   0  0  0  0  0  0
  -20.9986  -28.3258   24.1393 H   0  0  0  0  0  0
  -20.5655  -26.2299   23.3605 H   0  0  0  0  0  0
  -21.6642  -26.7423   22.1216 H   0  0  0  0  0  0
  -19.6903  -25.6284   21.1245 H   0  0  0  0  0  0
  -19.6685  -27.3179   20.6731 H   0  0  0  0  0  0
  -17.4198  -26.6664   21.4028 H   0  0  0  0  0  0
  -18.0337  -26.0062   22.9027 H   0  0  0  0  0  0
  -19.7945  -30.7288   24.2218 H   0  0  0  0  0  0
  -17.5021  -31.6259   24.5172 H   0  0  0  0  0  0
  -15.5357  -30.2977   23.7668 H   0  0  0  0  0  0
  -15.8676  -28.0828   22.7046 H   0  0  0  0  0  0
  -24.5896  -30.7092   25.7780 H   0  0  0  0  0  0
  -24.8941  -32.2928   26.4853 H   0  0  0  0  0  0
  -25.8060  -30.8934   27.0221 H   0  0  0  0  0  0
  -26.2930  -29.6722   24.1245 H   0  0  0  0  0  0
  -27.3964  -29.7253   25.4782 H   0  0  0  0  0  0
  -27.8840  -30.4206   23.9515 H   0  0  0  0  0  0
  -27.2598  -33.3623   26.2074 H   0  0  0  0  0  0
  -28.3860  -32.6919   25.0358 H   0  0  0  0  0  0
  -28.0685  -31.8474   26.5437 H   0  0  0  0  0  0
  -28.2559  -38.0129   24.7562 H   0  0  0  0  0  0
  -28.1131  -36.2667   24.6192 H   0  0  0  0  0  0
  -27.2324  -37.1333   25.8856 H   0  0  0  0  0  0
  -20.9367  -29.8768   21.6880 H   0  0  0  0  0  0
  -26.0140  -38.2833   24.1459 H   0  0  0  0  0  0
  -31.7690  -18.7316   17.4788 H   0  0  0  0  0  0
  -30.7544  -20.7569   18.3420 H   0  0  0  0  0  0
  -31.3800  -16.5582   18.4753 H   0  0  0  0  0  0
  -28.7772  -18.4145   21.4089 H   0  0  0  0  0  0
  -29.3215  -23.8395   21.2628 H   0  0  0  0  0  0
  -27.6184  -23.5413   21.0761 H   0  0  0  0  0  0
  -27.6605  -24.8633   18.8596 H   0  0  0  0  0  0
  -29.3319  -25.0626   19.0287 H   0  0  0  0  0  0
  -28.8205  -21.1081   21.4181 H   0  0  0  0  0  0
  -28.9523  -15.7181   21.0328 H   0  0  0  0  0  0
  1 25  1  0  0  0
  1 30  2  0  0  0
  1 81  1  0  0  0
  2  3  1  0  0  0
  2 25  1  0  0  0
  2 83  1  0  0  0
  2 84  1  0  0  0
  3  4  1  0  0  0
  3 85  1  0  0  0
  3 86  1  0  0  0
  4  5  1  0  0  0
  4 87  1  0  0  0
  4 88  1  0  0  0
  5  6  1  0  0  0
  5 26  1  0  0  0
  5 89  1  0  0  0
  6 25  1  0  0  0
  6 90  1  0  0  0
  6 91  1  0  0  0
  7  8  2  0  0  0
  7 26  1  0  0  0
  7 29  1  0  0  0
  8  9  1  0  0  0
  8 22  1  0  0  0
  9 10  1  0  0  0
  9 27  2  0  0  0
 10 11  2  0  0  0
 10 15  1  0  0  0
 11 12  1  0  0  0
 11 92  1  0  0  0
 12 13  2  0  0  0
 12 93  1  0  0  0
 13 14  1  0  0  0
 13 31  1  0  0  0
 14 15  2  0  0  0
 14 94  1  0  0  0
 15 95  1  0  0  0
 16 17  2  0  0  0
 16 21  1  0  0  0
 16 31  1  0  0  0
 17 18  1  0  0  0
 17 96  1  0  0  0
 18 19  2  0  0  0
 18 97  1  0  0  0
 19 20  1  0  0  0
 19 24  1  0  0  0
 20 21  2  0  0  0
 20 98  1  0  0  0
 21 23  1  0  0  0
 22 28  1  0  0  0
 22 32  2  0  0  0
 26 27  1  0  0  0
 28 99  1  0  0  0
 28100  1  0  0  0
 29101  1  0  0  0
 29102  1  0  0  0
 33 34  1  0  0  0
 33 66  1  0  0  0
 33 70  2  0  0  0
 34 36  1  0  0  0
 34 59  1  0  0  0
 34103  1  0  0  0
 35 44  2  0  0  0
 35 45  1  0  0  0
 35 68  1  0  0  0
 36 56  1  0  0  0
 36104  1  0  0  0
 37 39  1  0  0  0
 37 47  1  0  0  0
 37 66  1  0  0  0
 37105  1  0  0  0
 38 43  2  0  0  0
 38 46  1  0  0  0
 38 47  1  0  0  0
 39 64  1  0  0  0
 39 67  2  0  0  0
 40 52  1  0  0  0
 40 53  2  0  0  0
 40 58  1  0  0  0
 41106  1  0  0  0
 41107  1  0  0  0
 41108  1  0  0  0
 41 48  1  0  0  0
 42 43  1  0  0  0
 42 66  1  0  0  0
 42109  1  0  0  0
 42110  1  0  0  0
 43 44  1  0  0  0
 44111  1  0  0  0
 45 46  2  0  0  0
 45112  1  0  0  0
 46113  1  0  0  0
 47114  1  0  0  0
 47115  1  0  0  0
 48 56  1  0  0  0
 48 65  1  0  0  0
 48116  1  0  0  0
 49 50  1  0  0  0
 49 53  1  0  0  0
 49 64  1  0  0  0
 49117  1  0  0  0
 50 51  1  0  0  0
 50118  1  0  0  0
 50119  1  0  0  0
 51 52  1  0  0  0
 51120  1  0  0  0
 51121  1  0  0  0
 52122  1  0  0  0
 52123  1  0  0  0
 53 54  1  0  0  0
 54 55  2  0  0  0
 54124  1  0  0  0
 55 57  1  0  0  0
 55125  1  0  0  0
 56 69  2  0  0  0
 57 58  2  0  0  0
 57126  1  0  0  0
 58127  1  0  0  0
 59 60  1  0  0  0
 59 61  1  0  0  0
 59 62  1  0  0  0
 60128  1  0  0  0
 60129  1  0  0  0
 60130  1  0  0  0
 61131  1  0  0  0
 61132  1  0  0  0
 61133  1  0  0  0
 62134  1  0  0  0
 62135  1  0  0  0
 62136  1  0  0  0
 63 65  1  0  0  0
 63137  1  0  0  0
 63138  1  0  0  0
 63139  1  0  0  0
 64140  1  0  0  0
 65141  1  0  0  0
 68 79  1  0  0  0
 71 72  2  0  0  0
 71 73  1  0  0  0
 71142  1  0  0  0
 72 75  1  0  0  0
 72143  1  0  0  0
 73 76  2  0  0  0
 73144  1  0  0  0
 74 75  2  0  0  0
 74 76  1  0  0  0
 74145  1  0  0  0
 75 80  1  0  0  0
 76 81  1  0  0  0
 77 78  1  0  0  0
 77 80  1  0  0  0
 77 82  2  0  0  0
 78 79  1  0  0  0
 78146  1  0  0  0
 78147  1  0  0  0
 79148  1  0  0  0
 79149  1  0  0  0
 80150  1  0  0  0
 81151  1  0  0  0
M  ISO  4   1 100  68 101  79 101  81 100
M  END
> <chiral flag>
0

> <version>
0

> <s_m_source_file>
/data/baiqing/PycharmProjects/Reinvent-master-3.2/result/LINK_invent/BTK/process_docking_weight1_custom_product_contain_oxygen_bond_distance_aromatic_linkinvent_7_9_3/rearranged_h_0063.sdf

> <i_m_source_file_index>
79

> <r_mmod_Potential_Energy-OPLS-2005>
140.410675048828

> <r_mmod_Stretch_Energy-OPLS-2005>
126.903961181641

> <r_mmod_Bend_Energy-OPLS-2005>
167.898818969727

> <r_mmod_Torsional_Energy-OPLS-2005>
232.681365966797

> <r_mmod_Improper_Torsional_Energy-OPLS-2005>
4.74691677093506

> <r_mmod_Van_der_Waal_Energy-OPLS-2005>
149.580291748047

> <r_mmod_Electrostatic_Energy-OPLS-2005>
-385.980712890625

> <r_mmod_Solvation_Energy-OPLS-2005>
-234.019821166992

> <b_mmod_Minimization_Converged-OPLS-2005>
0

> <r_mmod_RMS_Derivative-OPLS-2005>
1.03019344806671

$$$$
80
                    3D
 Structure written by MMmdl.
157165  0  0  1  0            999 V2000
  -30.6107  -14.7488   20.4498 C   0  0  0  0  0  0
  -30.4324  -12.4498   19.4945 C   0  0  0  0  0  0
  -29.5203  -12.5081   18.2478 C   0  0  0  0  0  0
  -28.0435  -12.3337   18.6533 C   0  0  0  0  0  0
  -27.6446  -13.2350   19.8532 C   0  0  2  0  0  0
  -28.6840  -13.1716   20.9964 C   0  0  0  0  0  0
  -25.2518  -13.8206   20.5685 C   0  0  0  0  0  0
  -24.1803  -13.0451   20.9195 C   0  0  0  0  0  0
  -24.6387  -11.6925   20.8728 C   0  0  0  0  0  0
  -23.9064  -10.4291   21.0381 C   0  0  0  0  0  0
  -24.3620   -9.4212   21.9166 C   0  0  0  0  0  0
  -23.6292   -8.2245   22.0746 C   0  0  0  0  0  0
  -22.4272   -8.0278   21.3544 C   0  0  0  0  0  0
  -21.9900   -9.0253   20.4648 C   0  0  0  0  0  0
  -22.7230  -10.2124   20.3044 C   0  0  0  0  0  0
  -21.6855   -6.0730   22.5264 C   0  0  0  0  0  0
  -21.4024   -6.5631   23.8202 C   0  0  0  0  0  0
  -21.3661   -5.6784   24.9159 C   0  0  0  0  0  0
  -21.6039   -4.3047   24.7216 C   0  0  0  0  0  0
  -21.8821   -3.8137   23.4337 C   0  0  0  0  0  0
  -21.9194   -4.6955   22.3392 C   0  0  0  0  0  0
  -22.7823  -13.5233   21.1859 C   0  0  0  0  0  0
  -22.1667   -4.2142   21.0968 F   0  0  0  0  0  0
  -21.5627   -3.4534   25.7733 F   0  0  0  0  0  0
  -29.9924  -13.5169   20.4263 N   0  0  0  0  0  0
  -26.2945  -12.9418   20.3264 N   0  0  0  0  0  0
  -25.9319  -11.6558   20.5733 N   0  0  0  0  0  0
  -22.0464  -12.8228   22.0413 N   0  0  0  0  0  0
  -25.4233  -15.1929   20.4126 N   0  0  0  0  0  0
  -31.7852  -14.8439   20.0813 O   0  0  0  0  0  0
  -21.6643   -6.8872   21.4226 O   0  0  0  0  0  0
  -22.3493  -14.5543   20.6723 O   0  0  0  0  0  0
  -24.6306  -31.8565   23.1977 C   0  0  0  0  0  0
  -25.9127  -32.4773   23.8323 C   0  0  1  0  0  0
  -27.2218  -27.2658   20.1291 C   0  0  0  0  0  0
  -25.5925  -33.8574   24.2251 N   0  0  0  0  0  0
  -23.4279  -30.4788   21.5414 C   0  0  2  0  0  0
  -24.8751  -28.9270   20.1071 C   0  0  0  0  0  0
  -22.7504  -29.4605   22.4905 C   0  0  0  0  0  0
  -18.0294  -28.1390   22.8488 C   0  0  0  0  0  0
  -24.1493  -36.7291   23.2641 C   0  0  0  0  0  0
  -25.9733  -30.7699   21.3772 C   0  0  0  0  0  0
  -26.0454  -29.3933   20.7189 C   0  0  0  0  0  0
  -27.2197  -28.5751   20.7179 C   0  0  0  0  0  0
  -26.0318  -26.8728   19.4755 C   0  0  0  0  0  0
  -24.8740  -27.6752   19.4730 C   0  0  0  0  0  0
  -23.6454  -29.8135   20.1566 C   0  0  0  0  0  0
  -25.4119  -36.3084   24.0327 C   0  0  1  0  0  0
  -20.5901  -28.3704   23.1273 C   0  0  2  0  0  0
  -20.6787  -26.9422   22.5419 C   0  0  0  0  0  0
  -19.5756  -26.6385   21.5225 C   0  0  0  0  0  0
  -18.1933  -26.7931   22.1631 C   0  0  0  0  0  0
  -19.1549  -28.8861   23.2875 C   0  0  0  0  0  0
  -18.9470  -30.1462   23.8898 C   0  0  0  0  0  0
  -17.6467  -30.6589   24.0567 C   0  0  0  0  0  0
  -25.9056  -34.9455   23.5093 C   0  0  0  0  0  0
  -16.5358  -29.9090   23.6327 C   0  0  0  0  0  0
  -16.7280  -28.6507   23.0349 C   0  0  0  0  0  0
  -26.4471  -31.6604   25.0720 C   0  0  0  0  0  0
  -25.3675  -31.3778   26.1432 C   0  0  0  0  0  0
  -27.0318  -30.3021   24.6213 C   0  0  0  0  0  0
  -27.6021  -32.4353   25.7486 C   0  0  0  0  0  0
  -27.5577  -37.1805   24.8457 C   0  0  0  0  0  0
  -21.4212  -29.3039   22.3648 N   0  0  0  0  0  0
  -26.4296  -37.3782   23.9400 N   0  0  0  0  0  0
  -24.6965  -31.0536   22.0949 N   0  0  0  0  0  0
  -23.4199  -28.8146   23.3008 O   0  0  0  0  0  0
  -28.3253  -26.3838   20.2098 O   0  0  0  0  0  0
  -26.5642  -34.8931   22.4669 O   0  0  0  0  0  0
  -23.5450  -32.1380   23.7267 O   0  0  0  0  0  0
  -30.3587  -17.4050   18.8364 C   0  0  0  0  0  0
  -30.3682  -18.6621   18.2000 C   0  0  0  0  0  0
  -29.5538  -18.4950   20.8484 C   0  0  0  0  0  0
  -29.5761  -19.8173   20.2197 C   0  0  0  0  0  0
  -29.9492  -17.2595   20.1794 C   0  0  0  0  0  0
  -29.9886  -19.8455   18.8658 C   0  0  0  0  0  0
  -29.2847  -21.1550   20.9767 C   0  0  0  0  0  0
  -28.7396  -23.9980   22.2585 C   0  0  0  0  0  0
  -30.5603  -24.3014   20.5612 C   0  0  0  0  0  0
  -28.1642  -24.9023   19.9745 C   0  0  0  0  0  0
  -29.1038  -23.8437   20.7656 C   0  0  0  0  0  0
  -29.8626  -15.8851   20.7479 N   0  0  0  0  0  0
  -29.0536  -22.3637   20.3154 N   0  0  0  0  0  0
  -29.2883  -21.1008   22.2076 O   0  0  0  0  0  0
  -30.0369  -21.0116   18.1767 F   0  0  0  0  0  0
  -31.4789  -12.5561   19.2037 H   0  0  0  0  0  0
  -30.3620  -11.4751   19.9802 H   0  0  0  0  0  0
  -29.8089  -11.7384   17.5313 H   0  0  0  0  0  0
  -29.6530  -13.4628   17.7350 H   0  0  0  0  0  0
  -27.8930  -11.2857   18.9183 H   0  0  0  0  0  0
  -27.3926  -12.5281   17.7998 H   0  0  0  0  0  0
  -27.6418  -14.2566   19.4710 H   0  0  0  0  0  0
  -28.7110  -12.1759   21.4413 H   0  0  0  0  0  0
  -28.4139  -13.8558   21.8024 H   0  0  0  0  0  0
  -25.2770   -9.5706   22.4733 H   0  0  0  0  0  0
  -24.0013   -7.4643   22.7475 H   0  0  0  0  0  0
  -21.0829   -8.8779   19.8960 H   0  0  0  0  0  0
  -22.3696  -10.9663   19.6157 H   0  0  0  0  0  0
  -21.2032   -7.6140   23.9711 H   0  0  0  0  0  0
  -21.1478   -6.0506   25.9067 H   0  0  0  0  0  0
  -22.0604   -2.7601   23.2832 H   0  0  0  0  0  0
  -22.4081  -11.9907   22.4830 H   0  0  0  0  0  0
  -21.1081  -13.1251   22.2623 H   0  0  0  0  0  0
  -24.6613  -15.8531   20.5249 H   0  0  0  0  0  0
  -26.2753  -15.6249   20.0779 H   0  0  0  0  0  0
  -26.7197  -32.5412   23.1067 H   0  0  0  0  0  0
  -25.0043  -33.9715   25.0373 H   0  0  0  0  0  0
  -22.7240  -31.3013   21.3970 H   0  0  0  0  0  0
  -23.3764  -35.9613   23.3302 H   0  0  0  0  0  0
  -24.3580  -36.8914   22.2054 H   0  0  0  0  0  0
  -23.7239  -37.6490   23.6666 H   0  0  0  0  0  0
  -26.1150  -31.5298   20.6074 H   0  0  0  0  0  0
  -26.8508  -30.8175   22.0107 H   0  0  0  0  0  0
  -28.1150  -28.9262   21.2112 H   0  0  0  0  0  0
  -25.9654  -25.9218   18.9695 H   0  0  0  0  0  0
  -23.9807  -27.3165   18.9814 H   0  0  0  0  0  0
  -23.7678  -30.5916   19.4017 H   0  0  0  0  0  0
  -22.7622  -29.2482   19.8527 H   0  0  0  0  0  0
  -25.1305  -36.1933   25.0821 H   0  0  0  0  0  0
  -21.0000  -28.3294   24.1390 H   0  0  0  0  0  0
  -20.5710  -26.2311   23.3624 H   0  0  0  0  0  0
  -21.6654  -26.7453   22.1206 H   0  0  0  0  0  0
  -19.6925  -25.6294   21.1261 H   0  0  0  0  0  0
  -19.6696  -27.3196   20.6755 H   0  0  0  0  0  0
  -17.4211  -26.6689   21.4025 H   0  0  0  0  0  0
  -18.0318  -26.0075   22.9026 H   0  0  0  0  0  0
  -19.7943  -30.7286   24.2262 H   0  0  0  0  0  0
  -17.5018  -31.6269   24.5176 H   0  0  0  0  0  0
  -15.5359  -30.2997   23.7645 H   0  0  0  0  0  0
  -15.8679  -28.0834   22.7055 H   0  0  0  0  0  0
  -24.5826  -30.7164   25.7745 H   0  0  0  0  0  0
  -24.8894  -32.2966   26.4841 H   0  0  0  0  0  0
  -25.7959  -30.8943   27.0221 H   0  0  0  0  0  0
  -26.2908  -29.6782   24.1208 H   0  0  0  0  0  0
  -27.3964  -29.7277   25.4737 H   0  0  0  0  0  0
  -27.8796  -30.4303   23.9483 H   0  0  0  0  0  0
  -27.2620  -33.3650   26.2062 H   0  0  0  0  0  0
  -28.3816  -32.6930   25.0306 H   0  0  0  0  0  0
  -28.0707  -31.8492   26.5401 H   0  0  0  0  0  0
  -28.2607  -38.0094   24.7513 H   0  0  0  0  0  0
  -28.1075  -36.2632   24.6285 H   0  0  0  0  0  0
  -27.2303  -37.1453   25.8864 H   0  0  0  0  0  0
  -20.9393  -29.8738   21.6838 H   0  0  0  0  0  0
  -26.0180  -38.2861   24.1396 H   0  0  0  0  0  0
  -30.6504  -16.5408   18.2571 H   0  0  0  0  0  0
  -30.6785  -18.7217   17.1673 H   0  0  0  0  0  0
  -29.2424  -18.4375   21.8815 H   0  0  0  0  0  0
  -28.6828  -25.0492   22.5456 H   0  0  0  0  0  0
  -29.4776  -23.5386   22.9157 H   0  0  0  0  0  0
  -27.7685  -23.5545   22.4767 H   0  0  0  0  0  0
  -30.7039  -25.3364   20.8751 H   0  0  0  0  0  0
  -30.8494  -24.2379   19.5115 H   0  0  0  0  0  0
  -31.2590  -23.6929   21.1353 H   0  0  0  0  0  0
  -27.1405  -24.6077   20.2044 H   0  0  0  0  0  0
  -28.2846  -24.7383   18.9032 H   0  0  0  0  0  0
  -29.0138  -15.6941   21.2580 H   0  0  0  0  0  0
  -29.0426  -22.2445   19.3091 H   0  0  0  0  0  0
  1 25  1  0  0  0
  1 30  2  0  0  0
  1 82  1  0  0  0
  2  3  1  0  0  0
  2 25  1  0  0  0
  2 86  1  0  0  0
  2 87  1  0  0  0
  3  4  1  0  0  0
  3 88  1  0  0  0
  3 89  1  0  0  0
  4  5  1  0  0  0
  4 90  1  0  0  0
  4 91  1  0  0  0
  5  6  1  0  0  0
  5 26  1  0  0  0
  5 92  1  0  0  0
  6 25  1  0  0  0
  6 93  1  0  0  0
  6 94  1  0  0  0
  7  8  2  0  0  0
  7 26  1  0  0  0
  7 29  1  0  0  0
  8  9  1  0  0  0
  8 22  1  0  0  0
  9 10  1  0  0  0
  9 27  2  0  0  0
 10 11  2  0  0  0
 10 15  1  0  0  0
 11 12  1  0  0  0
 11 95  1  0  0  0
 12 13  2  0  0  0
 12 96  1  0  0  0
 13 14  1  0  0  0
 13 31  1  0  0  0
 14 15  2  0  0  0
 14 97  1  0  0  0
 15 98  1  0  0  0
 16 17  2  0  0  0
 16 21  1  0  0  0
 16 31  1  0  0  0
 17 18  1  0  0  0
 17 99  1  0  0  0
 18 19  2  0  0  0
 18100  1  0  0  0
 19 20  1  0  0  0
 19 24  1  0  0  0
 20 21  2  0  0  0
 20101  1  0  0  0
 21 23  1  0  0  0
 22 28  1  0  0  0
 22 32  2  0  0  0
 26 27  1  0  0  0
 28102  1  0  0  0
 28103  1  0  0  0
 29104  1  0  0  0
 29105  1  0  0  0
 33 34  1  0  0  0
 33 66  1  0  0  0
 33 70  2  0  0  0
 34 36  1  0  0  0
 34 59  1  0  0  0
 34106  1  0  0  0
 35 44  2  0  0  0
 35 45  1  0  0  0
 35 68  1  0  0  0
 36 56  1  0  0  0
 36107  1  0  0  0
 37 39  1  0  0  0
 37 47  1  0  0  0
 37 66  1  0  0  0
 37108  1  0  0  0
 38 43  2  0  0  0
 38 46  1  0  0  0
 38 47  1  0  0  0
 39 64  1  0  0  0
 39 67  2  0  0  0
 40 52  1  0  0  0
 40 53  2  0  0  0
 40 58  1  0  0  0
 41109  1  0  0  0
 41110  1  0  0  0
 41111  1  0  0  0
 41 48  1  0  0  0
 42 43  1  0  0  0
 42 66  1  0  0  0
 42112  1  0  0  0
 42113  1  0  0  0
 43 44  1  0  0  0
 44114  1  0  0  0
 45 46  2  0  0  0
 45115  1  0  0  0
 46116  1  0  0  0
 47117  1  0  0  0
 47118  1  0  0  0
 48 56  1  0  0  0
 48 65  1  0  0  0
 48119  1  0  0  0
 49 50  1  0  0  0
 49 53  1  0  0  0
 49 64  1  0  0  0
 49120  1  0  0  0
 50 51  1  0  0  0
 50121  1  0  0  0
 50122  1  0  0  0
 51 52  1  0  0  0
 51123  1  0  0  0
 51124  1  0  0  0
 52125  1  0  0  0
 52126  1  0  0  0
 53 54  1  0  0  0
 54 55  2  0  0  0
 54127  1  0  0  0
 55 57  1  0  0  0
 55128  1  0  0  0
 56 69  2  0  0  0
 57 58  2  0  0  0
 57129  1  0  0  0
 58130  1  0  0  0
 59 60  1  0  0  0
 59 61  1  0  0  0
 59 62  1  0  0  0
 60131  1  0  0  0
 60132  1  0  0  0
 60133  1  0  0  0
 61134  1  0  0  0
 61135  1  0  0  0
 61136  1  0  0  0
 62137  1  0  0  0
 62138  1  0  0  0
 62139  1  0  0  0
 63 65  1  0  0  0
 63140  1  0  0  0
 63141  1  0  0  0
 63142  1  0  0  0
 64143  1  0  0  0
 65144  1  0  0  0
 68 80  1  0  0  0
 71 72  2  0  0  0
 71 75  1  0  0  0
 71145  1  0  0  0
 72 76  1  0  0  0
 72146  1  0  0  0
 73 74  1  0  0  0
 73 75  2  0  0  0
 73147  1  0  0  0
 74 76  2  0  0  0
 74 77  1  0  0  0
 75 82  1  0  0  0
 76 85  1  0  0  0
 77 83  1  0  0  0
 77 84  2  0  0  0
 78148  1  0  0  0
 78149  1  0  0  0
 78150  1  0  0  0
 78 81  1  0  0  0
 79 81  1  0  0  0
 79151  1  0  0  0
 79152  1  0  0  0
 79153  1  0  0  0
 80 81  1  0  0  0
 80154  1  0  0  0
 80155  1  0  0  0
 81 83  1  0  0  0
 82156  1  0  0  0
 83157  1  0  0  0
M  ISO  4   1 100  68 101  80 101  82 100
M  END
> <chiral flag>
0

> <version>
0

> <s_m_source_file>
/data/baiqing/PycharmProjects/Reinvent-master-3.2/result/LINK_invent/BTK/process_docking_weight1_custom_product_contain_oxygen_bond_distance_aromatic_linkinvent_7_9_3/rearranged_h_0063.sdf

> <i_m_source_file_index>
80

> <r_mmod_Potential_Energy-OPLS-2005>
114.602310180664

> <r_mmod_Stretch_Energy-OPLS-2005>
131.258377075195

> <r_mmod_Bend_Energy-OPLS-2005>
163.767547607422

> <r_mmod_Torsional_Energy-OPLS-2005>
239.482360839844

> <r_mmod_Improper_Torsional_Energy-OPLS-2005>
4.97580337524414

> <r_mmod_Van_der_Waal_Energy-OPLS-2005>
145.512680053711

> <r_mmod_Electrostatic_Energy-OPLS-2005>
-438.215087890625

> <r_mmod_Solvation_Energy-OPLS-2005>
-217.12255859375

> <b_mmod_Minimization_Converged-OPLS-2005>
0

> <r_mmod_RMS_Derivative-OPLS-2005>
2.22999787330627

$$$$
81
                    3D
 Structure written by MMmdl.
162171  0  0  1  0            999 V2000
  -30.6107  -14.7160   20.4599 C   0  0  0  0  0  0
  -30.4324  -12.4274   19.5064 C   0  0  0  0  0  0
  -29.5244  -12.5041   18.2601 C   0  0  0  0  0  0
  -28.0470  -12.3365   18.6633 C   0  0  0  0  0  0
  -27.6472  -13.2301   19.8669 C   0  0  2  0  0  0
  -28.6815  -13.1523   21.0107 C   0  0  0  0  0  0
  -25.2511  -13.8198   20.5725 C   0  0  0  0  0  0
  -24.1791  -13.0441   20.9203 C   0  0  0  0  0  0
  -24.6381  -11.6923   20.8749 C   0  0  0  0  0  0
  -23.9053  -10.4292   21.0409 C   0  0  0  0  0  0
  -24.3608   -9.4198   21.9182 C   0  0  0  0  0  0
  -23.6279   -8.2236   22.0744 C   0  0  0  0  0  0
  -22.4255   -8.0283   21.3550 C   0  0  0  0  0  0
  -21.9889   -9.0257   20.4658 C   0  0  0  0  0  0
  -22.7221  -10.2131   20.3061 C   0  0  0  0  0  0
  -21.6865   -6.0727   22.5289 C   0  0  0  0  0  0
  -21.4028   -6.5628   23.8224 C   0  0  0  0  0  0
  -21.3659   -5.6786   24.9187 C   0  0  0  0  0  0
  -21.6037   -4.3053   24.7236 C   0  0  0  0  0  0
  -21.8816   -3.8136   23.4365 C   0  0  0  0  0  0
  -21.9192   -4.6951   22.3416 C   0  0  0  0  0  0
  -22.7814  -13.5231   21.1872 C   0  0  0  0  0  0
  -22.1658   -4.2132   21.0992 F   0  0  0  0  0  0
  -21.5613   -3.4546   25.7748 F   0  0  0  0  0  0
  -29.9943  -13.4871   20.4443 N   0  0  0  0  0  0
  -26.2949  -12.9401   20.3329 N   0  0  0  0  0  0
  -25.9314  -11.6546   20.5773 N   0  0  0  0  0  0
  -22.0445  -12.8232   22.0432 N   0  0  0  0  0  0
  -25.4201  -15.1934   20.4216 N   0  0  0  0  0  0
  -31.7827  -14.8183   20.0840 O   0  0  0  0  0  0
  -21.6625   -6.8875   21.4251 O   0  0  0  0  0  0
  -22.3509  -14.5544   20.6715 O   0  0  0  0  0  0
  -24.6288  -31.8569   23.2025 C   0  0  0  0  0  0
  -25.9126  -32.4766   23.8349 C   0  0  1  0  0  0
  -27.2153  -27.2740   20.1172 C   0  0  0  0  0  0
  -25.5936  -33.8567   24.2268 N   0  0  0  0  0  0
  -23.4241  -30.4819   21.5455 C   0  0  2  0  0  0
  -24.8704  -28.9352   20.1071 C   0  0  0  0  0  0
  -22.7481  -29.4608   22.4916 C   0  0  0  0  0  0
  -18.0293  -28.1377   22.8484 C   0  0  0  0  0  0
  -24.1492  -36.7288   23.2638 C   0  0  0  0  0  0
  -25.9712  -30.7705   21.3845 C   0  0  0  0  0  0
  -26.0426  -29.3968   20.7201 C   0  0  0  0  0  0
  -27.2166  -28.5772   20.7187 C   0  0  0  0  0  0
  -26.0196  -26.8849   19.4685 C   0  0  0  0  0  0
  -24.8629  -27.6851   19.4731 C   0  0  0  0  0  0
  -23.6412  -29.8217   20.1593 C   0  0  0  0  0  0
  -25.4119  -36.3073   24.0323 C   0  0  1  0  0  0
  -20.5896  -28.3682   23.1277 C   0  0  2  0  0  0
  -20.6783  -26.9400   22.5404 C   0  0  0  0  0  0
  -19.5758  -26.6376   21.5207 C   0  0  0  0  0  0
  -18.1943  -26.7920   22.1625 C   0  0  0  0  0  0
  -19.1546  -28.8845   23.2882 C   0  0  0  0  0  0
  -18.9469  -30.1451   23.8897 C   0  0  0  0  0  0
  -17.6464  -30.6581   24.0561 C   0  0  0  0  0  0
  -25.9055  -34.9440   23.5093 C   0  0  0  0  0  0
  -16.5354  -29.9073   23.6334 C   0  0  0  0  0  0
  -16.7277  -28.6492   23.0352 C   0  0  0  0  0  0
  -26.4484  -31.6599   25.0740 C   0  0  0  0  0  0
  -25.3712  -31.3791   26.1482 C   0  0  0  0  0  0
  -27.0312  -30.3005   24.6250 C   0  0  0  0  0  0
  -27.6034  -32.4340   25.7502 C   0  0  0  0  0  0
  -27.5576  -37.1811   24.8460 C   0  0  0  0  0  0
  -21.4191  -29.3035   22.3658 N   0  0  0  0  0  0
  -26.4296  -37.3767   23.9390 N   0  0  0  0  0  0
  -24.6933  -31.0536   22.1005 N   0  0  0  0  0  0
  -23.4189  -28.8145   23.3005 O   0  0  0  0  0  0
  -28.3087  -26.3780   20.1793 O   0  0  0  0  0  0
  -26.5616  -34.8900   22.4656 O   0  0  0  0  0  0
  -23.5444  -32.1391   23.7326 O   0  0  0  0  0  0
  -30.1689  -18.3721   17.9478 C   0  0  0  0  0  0
  -30.1231  -17.1736   18.6781 C   0  0  0  0  0  0
  -29.6794  -18.4694   20.6810 C   0  0  0  0  0  0
  -30.0348  -19.6365   18.5618 C   0  0  0  0  0  0
  -29.7395  -19.7408   19.9518 C   0  0  0  0  0  0
  -29.9138  -17.1671   20.0700 C   0  0  0  0  0  0
  -30.4260  -21.3956   21.6380 C   0  0  0  0  0  0
  -29.7523  -20.9566   16.4695 C   0  0  0  0  0  0
  -30.2587  -20.8095   17.7043 C   0  0  0  0  0  0
  -30.4412  -22.8005   22.2789 C   0  0  0  0  0  0
  -29.2981  -23.7539   21.8931 C   0  0  0  0  0  0
  -28.7329  -22.2293   20.0237 C   0  0  0  0  0  0
  -29.0865  -23.7600   20.3842 C   0  0  1  0  0  0
  -28.0590  -24.9180   19.9349 C   0  0  0  0  0  0
  -29.6203  -21.1020   20.5781 N   0  0  0  0  0  0
  -29.8620  -15.8478   20.7450 N   0  0  0  0  0  0
  -31.2161  -20.5764   22.1225 O   0  0  0  0  0  0
  -31.4806  -12.5308   19.2241 H   0  0  0  0  0  0
  -30.3523  -11.4481   19.9827 H   0  0  0  0  0  0
  -29.8033  -11.7301   17.5438 H   0  0  0  0  0  0
  -29.6687  -13.4611   17.7565 H   0  0  0  0  0  0
  -27.9050  -11.2875   18.9261 H   0  0  0  0  0  0
  -27.3946  -12.5287   17.8124 H   0  0  0  0  0  0
  -27.6486  -14.2549   19.4969 H   0  0  0  0  0  0
  -28.6986  -12.1514   21.4458 H   0  0  0  0  0  0
  -28.4148  -13.8326   21.8217 H   0  0  0  0  0  0
  -25.2753   -9.5652   22.4757 H   0  0  0  0  0  0
  -23.9983   -7.4614   22.7452 H   0  0  0  0  0  0
  -21.0810   -8.8787   19.8970 H   0  0  0  0  0  0
  -22.3683  -10.9675   19.6179 H   0  0  0  0  0  0
  -21.2032   -7.6145   23.9726 H   0  0  0  0  0  0
  -21.1484   -6.0521   25.9089 H   0  0  0  0  0  0
  -22.0593   -2.7599   23.2879 H   0  0  0  0  0  0
  -22.4050  -11.9907   22.4852 H   0  0  0  0  0  0
  -21.1076  -13.1289   22.2647 H   0  0  0  0  0  0
  -24.6529  -15.8454   20.5418 H   0  0  0  0  0  0
  -26.2728  -15.6421   20.1107 H   0  0  0  0  0  0
  -26.7189  -32.5410   23.1084 H   0  0  0  0  0  0
  -25.0085  -33.9713   25.0407 H   0  0  0  0  0  0
  -22.7211  -31.3054   21.4043 H   0  0  0  0  0  0
  -23.3739  -35.9644   23.3328 H   0  0  0  0  0  0
  -24.3568  -36.8868   22.2045 H   0  0  0  0  0  0
  -23.7271  -37.6510   23.6634 H   0  0  0  0  0  0
  -26.1149  -31.5385   20.6226 H   0  0  0  0  0  0
  -26.8463  -30.8124   22.0210 H   0  0  0  0  0  0
  -28.1086  -28.9194   21.2246 H   0  0  0  0  0  0
  -25.9410  -25.9368   18.9589 H   0  0  0  0  0  0
  -23.9655  -27.3251   18.9881 H   0  0  0  0  0  0
  -23.7650  -30.6034   19.4092 H   0  0  0  0  0  0
  -22.7582  -29.2586   19.8514 H   0  0  0  0  0  0
  -25.1305  -36.1924   25.0820 H   0  0  0  0  0  0
  -20.9992  -28.3248   24.1395 H   0  0  0  0  0  0
  -20.5684  -26.2277   23.3593 H   0  0  0  0  0  0
  -21.6650  -26.7421   22.1200 H   0  0  0  0  0  0
  -19.6919  -25.6289   21.1231 H   0  0  0  0  0  0
  -19.6701  -27.3183   20.6739 H   0  0  0  0  0  0
  -17.4205  -26.6654   21.4039 H   0  0  0  0  0  0
  -18.0352  -26.0063   22.9019 H   0  0  0  0  0  0
  -19.7945  -30.7273   24.2258 H   0  0  0  0  0  0
  -17.5019  -31.6263   24.5149 H   0  0  0  0  0  0
  -15.5358  -30.2976   23.7662 H   0  0  0  0  0  0
  -15.8676  -28.0810   22.7070 H   0  0  0  0  0  0
  -24.5859  -30.7158   25.7835 H   0  0  0  0  0  0
  -24.8956  -32.2992   26.4895 H   0  0  0  0  0  0
  -25.8048  -30.8983   27.0264 H   0  0  0  0  0  0
  -26.2908  -29.6773   24.1233 H   0  0  0  0  0  0
  -27.3912  -29.7254   25.4791 H   0  0  0  0  0  0
  -27.8819  -30.4244   23.9543 H   0  0  0  0  0  0
  -27.2637  -33.3639   26.2071 H   0  0  0  0  0  0
  -28.3855  -32.6908   25.0341 H   0  0  0  0  0  0
  -28.0692  -31.8481   26.5435 H   0  0  0  0  0  0
  -28.2620  -38.0079   24.7460 H   0  0  0  0  0  0
  -28.1044  -36.2611   24.6346 H   0  0  0  0  0  0
  -27.2283  -37.1526   25.8861 H   0  0  0  0  0  0
  -20.9348  -29.8767   21.6889 H   0  0  0  0  0  0
  -26.0174  -38.2844   24.1374 H   0  0  0  0  0  0
  -30.3720  -18.3115   16.8883 H   0  0  0  0  0  0
  -30.2595  -16.2459   18.1387 H   0  0  0  0  0  0
  -29.4798  -18.4987   21.7415 H   0  0  0  0  0  0
  -29.9646  -21.8391   15.8823 H   0  0  0  0  0  0
  -29.1120  -20.2045   16.0323 H   0  0  0  0  0  0
  -30.8999  -21.5829   18.1036 H   0  0  0  0  0  0
  -31.3909  -23.2581   22.0000 H   0  0  0  0  0  0
  -30.4690  -22.6911   23.3634 H   0  0  0  0  0  0
  -29.5252  -24.7614   22.2462 H   0  0  0  0  0  0
  -28.3775  -23.4495   22.3951 H   0  0  0  0  0  0
  -28.6201  -22.1644   18.9462 H   0  0  0  0  0  0
  -27.7287  -22.0301   20.4003 H   0  0  0  0  0  0
  -30.0378  -23.9998   19.9052 H   0  0  0  0  0  0
  -27.1053  -24.6548   20.3939 H   0  0  0  0  0  0
  -27.9129  -24.8036   18.8594 H   0  0  0  0  0  0
  -29.0250  -15.6732   21.2807 H   0  0  0  0  0  0
  1 25  1  0  0  0
  1 30  2  0  0  0
  1 86  1  0  0  0
  2  3  1  0  0  0
  2 25  1  0  0  0
  2 88  1  0  0  0
  2 89  1  0  0  0
  3  4  1  0  0  0
  3 90  1  0  0  0
  3 91  1  0  0  0
  4  5  1  0  0  0
  4 92  1  0  0  0
  4 93  1  0  0  0
  5  6  1  0  0  0
  5 26  1  0  0  0
  5 94  1  0  0  0
  6 25  1  0  0  0
  6 95  1  0  0  0
  6 96  1  0  0  0
  7  8  2  0  0  0
  7 26  1  0  0  0
  7 29  1  0  0  0
  8  9  1  0  0  0
  8 22  1  0  0  0
  9 10  1  0  0  0
  9 27  2  0  0  0
 10 11  2  0  0  0
 10 15  1  0  0  0
 11 12  1  0  0  0
 11 97  1  0  0  0
 12 13  2  0  0  0
 12 98  1  0  0  0
 13 14  1  0  0  0
 13 31  1  0  0  0
 14 15  2  0  0  0
 14 99  1  0  0  0
 15100  1  0  0  0
 16 17  2  0  0  0
 16 21  1  0  0  0
 16 31  1  0  0  0
 17 18  1  0  0  0
 17101  1  0  0  0
 18 19  2  0  0  0
 18102  1  0  0  0
 19 20  1  0  0  0
 19 24  1  0  0  0
 20 21  2  0  0  0
 20103  1  0  0  0
 21 23  1  0  0  0
 22 28  1  0  0  0
 22 32  2  0  0  0
 26 27  1  0  0  0
 28104  1  0  0  0
 28105  1  0  0  0
 29106  1  0  0  0
 29107  1  0  0  0
 33 34  1  0  0  0
 33 66  1  0  0  0
 33 70  2  0  0  0
 34 36  1  0  0  0
 34 59  1  0  0  0
 34108  1  0  0  0
 35 44  2  0  0  0
 35 45  1  0  0  0
 35 68  1  0  0  0
 36 56  1  0  0  0
 36109  1  0  0  0
 37 39  1  0  0  0
 37 47  1  0  0  0
 37 66  1  0  0  0
 37110  1  0  0  0
 38 43  2  0  0  0
 38 46  1  0  0  0
 38 47  1  0  0  0
 39 64  1  0  0  0
 39 67  2  0  0  0
 40 52  1  0  0  0
 40 53  2  0  0  0
 40 58  1  0  0  0
 41111  1  0  0  0
 41112  1  0  0  0
 41113  1  0  0  0
 41 48  1  0  0  0
 42 43  1  0  0  0
 42 66  1  0  0  0
 42114  1  0  0  0
 42115  1  0  0  0
 43 44  1  0  0  0
 44116  1  0  0  0
 45 46  2  0  0  0
 45117  1  0  0  0
 46118  1  0  0  0
 47119  1  0  0  0
 47120  1  0  0  0
 48 56  1  0  0  0
 48 65  1  0  0  0
 48121  1  0  0  0
 49 50  1  0  0  0
 49 53  1  0  0  0
 49 64  1  0  0  0
 49122  1  0  0  0
 50 51  1  0  0  0
 50123  1  0  0  0
 50124  1  0  0  0
 51 52  1  0  0  0
 51125  1  0  0  0
 51126  1  0  0  0
 52127  1  0  0  0
 52128  1  0  0  0
 53 54  1  0  0  0
 54 55  2  0  0  0
 54129  1  0  0  0
 55 57  1  0  0  0
 55130  1  0  0  0
 56 69  2  0  0  0
 57 58  2  0  0  0
 57131  1  0  0  0
 58132  1  0  0  0
 59 60  1  0  0  0
 59 61  1  0  0  0
 59 62  1  0  0  0
 60133  1  0  0  0
 60134  1  0  0  0
 60135  1  0  0  0
 61136  1  0  0  0
 61137  1  0  0  0
 61138  1  0  0  0
 62139  1  0  0  0
 62140  1  0  0  0
 62141  1  0  0  0
 63 65  1  0  0  0
 63142  1  0  0  0
 63143  1  0  0  0
 63144  1  0  0  0
 64145  1  0  0  0
 65146  1  0  0  0
 68 84  1  0  0  0
 71 72  2  0  0  0
 71 74  1  0  0  0
 71147  1  0  0  0
 72 76  1  0  0  0
 72148  1  0  0  0
 73 75  1  0  0  0
 73 76  2  0  0  0
 73149  1  0  0  0
 74 75  2  0  0  0
 74 79  1  0  0  0
 75 85  1  0  0  0
 76 86  1  0  0  0
 77 80  1  0  0  0
 77 85  1  0  0  0
 77 87  2  0  0  0
 78 79  2  0  0  0
 78150  1  0  0  0
 78151  1  0  0  0
 79152  1  0  0  0
 80 81  1  0  0  0
 80153  1  0  0  0
 80154  1  0  0  0
 81 83  1  0  0  0
 81155  1  0  0  0
 81156  1  0  0  0
 82 83  1  0  0  0
 82 85  1  0  0  0
 82157  1  0  0  0
 82158  1  0  0  0
 83 84  1  0  0  0
 83159  1  0  0  0
 84160  1  0  0  0
 84161  1  0  0  0
 86162  1  0  0  0
M  ISO  4   1 100  68 101  84 101  86 100
M  END
> <chiral flag>
0

> <version>
0

> <s_m_source_file>
/data/baiqing/PycharmProjects/Reinvent-master-3.2/result/LINK_invent/BTK/process_docking_weight1_custom_product_contain_oxygen_bond_distance_aromatic_linkinvent_7_9_3/rearranged_h_0063.sdf

> <i_m_source_file_index>
81

> <r_mmod_Potential_Energy-OPLS-2005>
269.056518554688

> <r_mmod_Stretch_Energy-OPLS-2005>
128.843109130859

> <r_mmod_Bend_Energy-OPLS-2005>
160.247329711914

> <r_mmod_Torsional_Energy-OPLS-2005>
313.748596191406

> <r_mmod_Improper_Torsional_Energy-OPLS-2005>
5.28277206420898

> <r_mmod_Van_der_Waal_Energy-OPLS-2005>
161.263076782227

> <r_mmod_Electrostatic_Energy-OPLS-2005>
-350.929412841797

> <r_mmod_Solvation_Energy-OPLS-2005>
-226.397689819336

> <b_mmod_Minimization_Converged-OPLS-2005>
0

> <r_mmod_RMS_Derivative-OPLS-2005>
3.21131253242493

$$$$
82
                    3D
 Structure written by MMmdl.
153161  0  0  1  0            999 V2000
  -30.5994  -14.7877   20.4586 C   0  0  0  0  0  0
  -30.4379  -12.4850   19.4728 C   0  0  0  0  0  0
  -29.5134  -12.5051   18.2355 C   0  0  0  0  0  0
  -28.0417  -12.3181   18.6535 C   0  0  0  0  0  0
  -27.6390  -13.2311   19.8424 C   0  0  2  0  0  0
  -28.6848  -13.1917   20.9771 C   0  0  0  0  0  0
  -25.2506  -13.8190   20.5683 C   0  0  0  0  0  0
  -24.1801  -13.0440   20.9210 C   0  0  0  0  0  0
  -24.6389  -11.6919   20.8749 C   0  0  0  0  0  0
  -23.9063  -10.4297   21.0407 C   0  0  0  0  0  0
  -24.3615   -9.4208   21.9179 C   0  0  0  0  0  0
  -23.6288   -8.2247   22.0754 C   0  0  0  0  0  0
  -22.4267   -8.0284   21.3549 C   0  0  0  0  0  0
  -21.9902   -9.0256   20.4650 C   0  0  0  0  0  0
  -22.7234  -10.2133   20.3054 C   0  0  0  0  0  0
  -21.6854   -6.0732   22.5275 C   0  0  0  0  0  0
  -21.4023   -6.5637   23.8206 C   0  0  0  0  0  0
  -21.3657   -5.6788   24.9169 C   0  0  0  0  0  0
  -21.6039   -4.3051   24.7221 C   0  0  0  0  0  0
  -21.8821   -3.8143   23.4343 C   0  0  0  0  0  0
  -21.9196   -4.6960   22.3400 C   0  0  0  0  0  0
  -22.7822  -13.5224   21.1865 C   0  0  0  0  0  0
  -22.1662   -4.2149   21.0979 F   0  0  0  0  0  0
  -21.5622   -3.4535   25.7733 F   0  0  0  0  0  0
  -29.9767  -13.5587   20.3850 N   0  0  0  0  0  0
  -26.2927  -12.9393   20.3246 N   0  0  0  0  0  0
  -25.9314  -11.6540   20.5732 N   0  0  0  0  0  0
  -22.0465  -12.8222   22.0420 N   0  0  0  0  0  0
  -25.4193  -15.1911   20.4092 N   0  0  0  0  0  0
  -31.8026  -14.8626   20.1914 O   0  0  0  0  0  0
  -21.6637   -6.8875   21.4238 O   0  0  0  0  0  0
  -22.3504  -14.5526   20.6699 O   0  0  0  0  0  0
  -24.6325  -31.8517   23.1948 C   0  0  0  0  0  0
  -25.9136  -32.4734   23.8310 C   0  0  1  0  0  0
  -27.2256  -27.2417   20.1463 C   0  0  0  0  0  0
  -25.5918  -33.8535   24.2238 N   0  0  0  0  0  0
  -23.4317  -30.4706   21.5386 C   0  0  2  0  0  0
  -24.8810  -28.9058   20.1181 C   0  0  0  0  0  0
  -22.7512  -29.4577   22.4912 C   0  0  0  0  0  0
  -18.0294  -28.1387   22.8480 C   0  0  0  0  0  0
  -24.1493  -36.7278   23.2643 C   0  0  0  0  0  0
  -25.9782  -30.7598   21.3765 C   0  0  0  0  0  0
  -26.0535  -29.3779   20.7230 C   0  0  0  0  0  0
  -27.2321  -28.5614   20.7173 C   0  0  0  0  0  0
  -26.0306  -26.8317   19.5229 C   0  0  0  0  0  0
  -24.8753  -27.6411   19.5060 C   0  0  0  0  0  0
  -23.6523  -29.7961   20.1584 C   0  0  0  0  0  0
  -25.4117  -36.3057   24.0328 C   0  0  1  0  0  0
  -20.5897  -28.3694   23.1267 C   0  0  2  0  0  0
  -20.6781  -26.9410   22.5409 C   0  0  0  0  0  0
  -19.5759  -26.6380   21.5211 C   0  0  0  0  0  0
  -18.1938  -26.7929   22.1622 C   0  0  0  0  0  0
  -19.1548  -28.8860   23.2866 C   0  0  0  0  0  0
  -18.9465  -30.1461   23.8885 C   0  0  0  0  0  0
  -17.6462  -30.6583   24.0559 C   0  0  0  0  0  0
  -25.9052  -34.9426   23.5091 C   0  0  0  0  0  0
  -16.5355  -29.9075   23.6331 C   0  0  0  0  0  0
  -16.7280  -28.6497   23.0348 C   0  0  0  0  0  0
  -26.4498  -31.6570   25.0711 C   0  0  0  0  0  0
  -25.3717  -31.3727   26.1431 C   0  0  0  0  0  0
  -27.0358  -30.2984   24.6223 C   0  0  0  0  0  0
  -27.6054  -32.4316   25.7476 C   0  0  0  0  0  0
  -27.5581  -37.1793   24.8465 C   0  0  0  0  0  0
  -21.4218  -29.3034   22.3655 N   0  0  0  0  0  0
  -26.4296  -37.3753   23.9402 N   0  0  0  0  0  0
  -24.6998  -31.0466   22.0928 N   0  0  0  0  0  0
  -23.4202  -28.8129   23.3029 O   0  0  0  0  0  0
  -28.3239  -26.3503   20.1342 O   0  0  0  0  0  0
  -26.5636  -34.8908   22.4669 O   0  0  0  0  0  0
  -23.5469  -32.1346   23.7231 O   0  0  0  0  0  0
  -31.7281  -19.0479   21.6559 C   0  0  0  0  0  0
  -31.3505  -17.7098   21.4293 C   0  0  0  0  0  0
  -29.3656  -18.5352   20.3147 C   0  0  0  0  0  0
  -29.7261  -19.9449   20.5245 C   0  0  0  0  0  0
  -30.9633  -20.1509   21.2066 C   0  0  0  0  0  0
  -30.1657  -17.3844   20.7395 C   0  0  0  0  0  0
  -28.9210  -21.1469   19.8930 C   0  0  0  0  0  0
  -28.4410  -23.6492   19.8868 C   0  0  0  0  0  0
  -31.5591  -21.5331   21.4470 C   0  0  0  0  0  0
  -28.2001  -24.9796   20.7677 C   0  0  0  0  0  0
  -29.8108  -15.9389   20.5662 N   0  0  0  0  0  0
  -28.8732  -22.4343   20.4413 N   0  0  0  0  0  0
  -28.2998  -20.8762   18.8596 O   0  0  0  0  0  0
  -28.1995  -23.7559   18.6791 O   0  0  0  0  0  0
  -31.4762  -12.6232   19.1662 H   0  0  0  0  0  0
  -30.3994  -11.5160   19.9732 H   0  0  0  0  0  0
  -29.8047  -11.7233   17.5327 H   0  0  0  0  0  0
  -29.6287  -13.4511   17.7040 H   0  0  0  0  0  0
  -27.9121  -11.2719   18.9333 H   0  0  0  0  0  0
  -27.3825  -12.4892   17.8020 H   0  0  0  0  0  0
  -27.6241  -14.2455   19.4437 H   0  0  0  0  0  0
  -28.7348  -12.1993   21.4274 H   0  0  0  0  0  0
  -28.4135  -13.8818   21.7778 H   0  0  0  0  0  0
  -25.2761   -9.5680   22.4749 H   0  0  0  0  0  0
  -23.9999   -7.4631   22.7463 H   0  0  0  0  0  0
  -21.0836   -8.8772   19.8949 H   0  0  0  0  0  0
  -22.3693  -10.9670   19.6160 H   0  0  0  0  0  0
  -21.2023   -7.6148   23.9712 H   0  0  0  0  0  0
  -21.1474   -6.0520   25.9071 H   0  0  0  0  0  0
  -22.0603   -2.7608   23.2844 H   0  0  0  0  0  0
  -22.4088  -11.9900   22.4837 H   0  0  0  0  0  0
  -21.1075  -13.1238   22.2605 H   0  0  0  0  0  0
  -24.6492  -15.8424   20.5143 H   0  0  0  0  0  0
  -26.2562  -15.6298   20.0490 H   0  0  0  0  0  0
  -26.7202  -32.5378   23.1051 H   0  0  0  0  0  0
  -25.0045  -33.9664   25.0370 H   0  0  0  0  0  0
  -22.7290  -31.2924   21.3868 H   0  0  0  0  0  0
  -23.3750  -35.9617   23.3309 H   0  0  0  0  0  0
  -24.3584  -36.8897   22.2058 H   0  0  0  0  0  0
  -23.7260  -37.6484   23.6668 H   0  0  0  0  0  0
  -26.1192  -31.5182   20.6051 H   0  0  0  0  0  0
  -26.8538  -30.8107   22.0124 H   0  0  0  0  0  0
  -28.1348  -28.9240   21.1887 H   0  0  0  0  0  0
  -25.9873  -25.8592   19.0530 H   0  0  0  0  0  0
  -23.9778  -27.2721   19.0291 H   0  0  0  0  0  0
  -23.7792  -30.5672   19.3976 H   0  0  0  0  0  0
  -22.7712  -29.2278   19.8550 H   0  0  0  0  0  0
  -25.1305  -36.1903   25.0823 H   0  0  0  0  0  0
  -20.9985  -28.3271   24.1389 H   0  0  0  0  0  0
  -20.5675  -26.2303   23.3611 H   0  0  0  0  0  0
  -21.6649  -26.7426   22.1207 H   0  0  0  0  0  0
  -19.6917  -25.6288   21.1246 H   0  0  0  0  0  0
  -19.6695  -27.3185   20.6736 H   0  0  0  0  0  0
  -17.4206  -26.6668   21.4027 H   0  0  0  0  0  0
  -18.0339  -26.0074   22.9021 H   0  0  0  0  0  0
  -19.7939  -30.7286   24.2243 H   0  0  0  0  0  0
  -17.5011  -31.6263   24.5160 H   0  0  0  0  0  0
  -15.5353  -30.2968   23.7663 H   0  0  0  0  0  0
  -15.8684  -28.0809   22.7066 H   0  0  0  0  0  0
  -24.5875  -30.7100   25.7752 H   0  0  0  0  0  0
  -24.8928  -32.2901   26.4864 H   0  0  0  0  0  0
  -25.8020  -30.8884   27.0206 H   0  0  0  0  0  0
  -26.2954  -29.6709   24.1249 H   0  0  0  0  0  0
  -27.4033  -29.7272   25.4758 H   0  0  0  0  0  0
  -27.8830  -30.4253   23.9481 H   0  0  0  0  0  0
  -27.2666  -33.3620   26.2044 H   0  0  0  0  0  0
  -28.3858  -32.6867   25.0294 H   0  0  0  0  0  0
  -28.0730  -31.8448   26.5393 H   0  0  0  0  0  0
  -28.2602  -38.0085   24.7499 H   0  0  0  0  0  0
  -28.1075  -36.2617   24.6309 H   0  0  0  0  0  0
  -27.2300  -37.1463   25.8870 H   0  0  0  0  0  0
  -20.9415  -29.8738   21.6835 H   0  0  0  0  0  0
  -26.0175  -38.2832   24.1382 H   0  0  0  0  0  0
  -32.6588  -19.2229   22.1787 H   0  0  0  0  0  0
  -31.9977  -16.9302   21.8059 H   0  0  0  0  0  0
  -28.4486  -18.3383   19.7764 H   0  0  0  0  0  0
  -32.5773  -21.4665   21.8318 H   0  0  0  0  0  0
  -30.9779  -22.0907   22.1813 H   0  0  0  0  0  0
  -31.6150  -22.1069   20.5212 H   0  0  0  0  0  0
  -28.9081  -24.9511   21.5955 H   0  0  0  0  0  0
  -27.2170  -24.8831   21.2296 H   0  0  0  0  0  0
  -28.8211  -15.7477   20.5368 H   0  0  0  0  0  0
  -29.2119  -22.4927   21.3876 H   0  0  0  0  0  0
  1 25  1  0  0  0
  1 30  2  0  0  0
  1 81  1  0  0  0
  2  3  1  0  0  0
  2 25  1  0  0  0
  2 85  1  0  0  0
  2 86  1  0  0  0
  3  4  1  0  0  0
  3 87  1  0  0  0
  3 88  1  0  0  0
  4  5  1  0  0  0
  4 89  1  0  0  0
  4 90  1  0  0  0
  5  6  1  0  0  0
  5 26  1  0  0  0
  5 91  1  0  0  0
  6 25  1  0  0  0
  6 92  1  0  0  0
  6 93  1  0  0  0
  7  8  2  0  0  0
  7 26  1  0  0  0
  7 29  1  0  0  0
  8  9  1  0  0  0
  8 22  1  0  0  0
  9 10  1  0  0  0
  9 27  2  0  0  0
 10 11  2  0  0  0
 10 15  1  0  0  0
 11 12  1  0  0  0
 11 94  1  0  0  0
 12 13  2  0  0  0
 12 95  1  0  0  0
 13 14  1  0  0  0
 13 31  1  0  0  0
 14 15  2  0  0  0
 14 96  1  0  0  0
 15 97  1  0  0  0
 16 17  2  0  0  0
 16 21  1  0  0  0
 16 31  1  0  0  0
 17 18  1  0  0  0
 17 98  1  0  0  0
 18 19  2  0  0  0
 18 99  1  0  0  0
 19 20  1  0  0  0
 19 24  1  0  0  0
 20 21  2  0  0  0
 20100  1  0  0  0
 21 23  1  0  0  0
 22 28  1  0  0  0
 22 32  2  0  0  0
 26 27  1  0  0  0
 28101  1  0  0  0
 28102  1  0  0  0
 29103  1  0  0  0
 29104  1  0  0  0
 33 34  1  0  0  0
 33 66  1  0  0  0
 33 70  2  0  0  0
 34 36  1  0  0  0
 34 59  1  0  0  0
 34105  1  0  0  0
 35 44  2  0  0  0
 35 45  1  0  0  0
 35 68  1  0  0  0
 36 56  1  0  0  0
 36106  1  0  0  0
 37 39  1  0  0  0
 37 47  1  0  0  0
 37 66  1  0  0  0
 37107  1  0  0  0
 38 43  2  0  0  0
 38 46  1  0  0  0
 38 47  1  0  0  0
 39 64  1  0  0  0
 39 67  2  0  0  0
 40 52  1  0  0  0
 40 53  2  0  0  0
 40 58  1  0  0  0
 41108  1  0  0  0
 41109  1  0  0  0
 41110  1  0  0  0
 41 48  1  0  0  0
 42 43  1  0  0  0
 42 66  1  0  0  0
 42111  1  0  0  0
 42112  1  0  0  0
 43 44  1  0  0  0
 44113  1  0  0  0
 45 46  2  0  0  0
 45114  1  0  0  0
 46115  1  0  0  0
 47116  1  0  0  0
 47117  1  0  0  0
 48 56  1  0  0  0
 48 65  1  0  0  0
 48118  1  0  0  0
 49 50  1  0  0  0
 49 53  1  0  0  0
 49 64  1  0  0  0
 49119  1  0  0  0
 50 51  1  0  0  0
 50120  1  0  0  0
 50121  1  0  0  0
 51 52  1  0  0  0
 51122  1  0  0  0
 51123  1  0  0  0
 52124  1  0  0  0
 52125  1  0  0  0
 53 54  1  0  0  0
 54 55  2  0  0  0
 54126  1  0  0  0
 55 57  1  0  0  0
 55127  1  0  0  0
 56 69  2  0  0  0
 57 58  2  0  0  0
 57128  1  0  0  0
 58129  1  0  0  0
 59 60  1  0  0  0
 59 61  1  0  0  0
 59 62  1  0  0  0
 60130  1  0  0  0
 60131  1  0  0  0
 60132  1  0  0  0
 61133  1  0  0  0
 61134  1  0  0  0
 61135  1  0  0  0
 62136  1  0  0  0
 62137  1  0  0  0
 62138  1  0  0  0
 63 65  1  0  0  0
 63139  1  0  0  0
 63140  1  0  0  0
 63141  1  0  0  0
 64142  1  0  0  0
 65143  1  0  0  0
 68 80  1  0  0  0
 71 72  2  0  0  0
 71 75  1  0  0  0
 71144  1  0  0  0
 72 76  1  0  0  0
 72145  1  0  0  0
 73 74  1  0  0  0
 73 76  2  0  0  0
 73146  1  0  0  0
 74 75  2  0  0  0
 74 77  1  0  0  0
 75 79  1  0  0  0
 76 81  1  0  0  0
 77 82  1  0  0  0
 77 83  2  0  0  0
 78 80  1  0  0  0
 78 82  1  0  0  0
 78 84  2  0  0  0
 79147  1  0  0  0
 79148  1  0  0  0
 79149  1  0  0  0
 80150  1  0  0  0
 80151  1  0  0  0
 81152  1  0  0  0
 82153  1  0  0  0
M  ISO  4   1 100  68 101  80 101  81 100
M  END
> <chiral flag>
0

> <version>
0

> <s_m_source_file>
/data/baiqing/PycharmProjects/Reinvent-master-3.2/result/LINK_invent/BTK/process_docking_weight1_custom_product_contain_oxygen_bond_distance_aromatic_linkinvent_7_9_3/rearranged_h_0063.sdf

> <i_m_source_file_index>
82

> <r_mmod_Potential_Energy-OPLS-2005>
82.7259521484375

> <r_mmod_Stretch_Energy-OPLS-2005>
144.046539306641

> <r_mmod_Bend_Energy-OPLS-2005>
172.321929931641

> <r_mmod_Torsional_Energy-OPLS-2005>
255.67414855957

> <r_mmod_Improper_Torsional_Energy-OPLS-2005>
7.04050254821777

> <r_mmod_Van_der_Waal_Energy-OPLS-2005>
140.767883300781

> <r_mmod_Electrostatic_Energy-OPLS-2005>
-458.013092041016

> <r_mmod_Solvation_Energy-OPLS-2005>
-279.294708251953

> <b_mmod_Minimization_Converged-OPLS-2005>
0

> <r_mmod_RMS_Derivative-OPLS-2005>
1.04143714904785

$$$$
83
                    3D
 Structure written by MMmdl.
153161  0  0  1  0            999 V2000
  -30.5933  -14.8089   20.4611 C   0  0  0  0  0  0
  -30.4374  -12.5015   19.4701 C   0  0  0  0  0  0
  -29.5101  -12.5037   18.2352 C   0  0  0  0  0  0
  -28.0401  -12.3131   18.6579 C   0  0  0  0  0  0
  -27.6353  -13.2325   19.8407 C   0  0  2  0  0  0
  -28.6828  -13.2061   20.9732 C   0  0  0  0  0  0
  -25.2492  -13.8189   20.5698 C   0  0  0  0  0  0
  -24.1791  -13.0431   20.9219 C   0  0  0  0  0  0
  -24.6387  -11.6914   20.8756 C   0  0  0  0  0  0
  -23.9067  -10.4288   21.0412 C   0  0  0  0  0  0
  -24.3618   -9.4202   21.9189 C   0  0  0  0  0  0
  -23.6292   -8.2238   22.0754 C   0  0  0  0  0  0
  -22.4275   -8.0277   21.3544 C   0  0  0  0  0  0
  -21.9916   -9.0249   20.4644 C   0  0  0  0  0  0
  -22.7244  -10.2129   20.3055 C   0  0  0  0  0  0
  -21.6856   -6.0734   22.5276 C   0  0  0  0  0  0
  -21.4015   -6.5641   23.8209 C   0  0  0  0  0  0
  -21.3659   -5.6794   24.9173 C   0  0  0  0  0  0
  -21.6045   -4.3057   24.7224 C   0  0  0  0  0  0
  -21.8820   -3.8147   23.4346 C   0  0  0  0  0  0
  -21.9191   -4.6961   22.3401 C   0  0  0  0  0  0
  -22.7813  -13.5209   21.1876 C   0  0  0  0  0  0
  -22.1662   -4.2148   21.0979 F   0  0  0  0  0  0
  -21.5627   -3.4539   25.7738 F   0  0  0  0  0  0
  -29.9694  -13.5794   20.3741 N   0  0  0  0  0  0
  -26.2910  -12.9397   20.3262 N   0  0  0  0  0  0
  -25.9316  -11.6541   20.5755 N   0  0  0  0  0  0
  -22.0463  -12.8192   22.0426 N   0  0  0  0  0  0
  -25.4166  -15.1917   20.4106 N   0  0  0  0  0  0
  -31.8020  -14.8808   20.2192 O   0  0  0  0  0  0
  -21.6641   -6.8876   21.4238 O   0  0  0  0  0  0
  -22.3495  -14.5514   20.6722 O   0  0  0  0  0  0
  -24.6352  -31.8513   23.1952 C   0  0  0  0  0  0
  -25.9157  -32.4733   23.8313 C   0  0  1  0  0  0
  -27.2213  -27.2240   20.1470 C   0  0  0  0  0  0
  -25.5934  -33.8540   24.2229 N   0  0  0  0  0  0
  -23.4353  -30.4712   21.5382 C   0  0  2  0  0  0
  -24.8853  -28.9074   20.1155 C   0  0  0  0  0  0
  -22.7524  -29.4580   22.4894 C   0  0  0  0  0  0
  -18.0293  -28.1401   22.8492 C   0  0  0  0  0  0
  -24.1482  -36.7266   23.2645 C   0  0  0  0  0  0
  -25.9840  -30.7517   21.3813 C   0  0  0  0  0  0
  -26.0585  -29.3687   20.7284 C   0  0  0  0  0  0
  -27.2328  -28.5406   20.7313 C   0  0  0  0  0  0
  -26.0268  -26.8347   19.5088 C   0  0  0  0  0  0
  -24.8755  -27.6481   19.4942 C   0  0  0  0  0  0
  -23.6588  -29.8005   20.1566 C   0  0  0  0  0  0
  -25.4114  -36.3051   24.0324 C   0  0  1  0  0  0
  -20.5902  -28.3711   23.1267 C   0  0  2  0  0  0
  -20.6783  -26.9423   22.5415 C   0  0  0  0  0  0
  -19.5752  -26.6394   21.5221 C   0  0  0  0  0  0
  -18.1931  -26.7947   22.1629 C   0  0  0  0  0  0
  -19.1550  -28.8875   23.2873 C   0  0  0  0  0  0
  -18.9471  -30.1479   23.8885 C   0  0  0  0  0  0
  -17.6469  -30.6599   24.0569 C   0  0  0  0  0  0
  -25.9061  -34.9425   23.5081 C   0  0  0  0  0  0
  -16.5360  -29.9099   23.6338 C   0  0  0  0  0  0
  -16.7280  -28.6519   23.0356 C   0  0  0  0  0  0
  -26.4509  -31.6583   25.0724 C   0  0  0  0  0  0
  -25.3720  -31.3764   26.1438 C   0  0  0  0  0  0
  -27.0373  -30.2995   24.6256 C   0  0  0  0  0  0
  -27.6046  -32.4341   25.7504 C   0  0  0  0  0  0
  -27.5569  -37.1795   24.8467 C   0  0  0  0  0  0
  -21.4224  -29.3051   22.3648 N   0  0  0  0  0  0
  -26.4279  -37.3759   23.9411 N   0  0  0  0  0  0
  -24.7036  -31.0446   22.0938 N   0  0  0  0  0  0
  -23.4200  -28.8122   23.3011 O   0  0  0  0  0  0
  -28.2870  -26.2846   20.1417 O   0  0  0  0  0  0
  -26.5632  -34.8903   22.4650 O   0  0  0  0  0  0
  -23.5489  -32.1351   23.7225 O   0  0  0  0  0  0
  -31.4784  -18.8499   22.3440 C   0  0  0  0  0  0
  -31.1345  -17.5725   21.8703 C   0  0  0  0  0  0
  -29.5151  -18.6280   20.4006 C   0  0  0  0  0  0
  -30.8808  -20.0445   21.8695 C   0  0  0  0  0  0
  -30.1475  -17.3885   20.8850 C   0  0  0  0  0  0
  -29.8628  -19.9828   20.8673 C   0  0  0  0  0  0
  -32.4201  -21.5409   23.2270 C   0  0  0  0  0  0
  -31.3706  -21.3412   22.4084 C   0  0  0  0  0  0
  -28.6252  -23.7228   20.4676 C   0  0  0  0  0  0
  -28.1168  -25.0060   20.7761 C   0  0  0  0  0  0
  -28.4898  -22.2263   20.8140 C   0  0  0  0  0  0
  -29.3939  -21.2999   20.3012 N   0  0  0  0  0  0
  -29.8078  -15.9698   20.5281 N   0  0  0  0  0  0
  -27.5533  -21.7729   21.4887 O   0  0  0  0  0  0
  -31.4734  -12.6459   19.1603 H   0  0  0  0  0  0
  -30.4070  -11.5359   19.9782 H   0  0  0  0  0  0
  -29.8041  -11.7159   17.5402 H   0  0  0  0  0  0
  -29.6186  -13.4456   17.6957 H   0  0  0  0  0  0
  -27.9176  -11.2689   18.9478 H   0  0  0  0  0  0
  -27.3757  -12.4720   17.8079 H   0  0  0  0  0  0
  -27.6156  -14.2440   19.4345 H   0  0  0  0  0  0
  -28.7409  -12.2183   21.4329 H   0  0  0  0  0  0
  -28.4091  -13.9019   21.7682 H   0  0  0  0  0  0
  -25.2761   -9.5681   22.4766 H   0  0  0  0  0  0
  -24.0002   -7.4631   22.7475 H   0  0  0  0  0  0
  -21.0851   -8.8764   19.8945 H   0  0  0  0  0  0
  -22.3702  -10.9666   19.6160 H   0  0  0  0  0  0
  -21.2010   -7.6149   23.9712 H   0  0  0  0  0  0
  -21.1481   -6.0526   25.9077 H   0  0  0  0  0  0
  -22.0599   -2.7608   23.2846 H   0  0  0  0  0  0
  -22.4089  -11.9847   22.4797 H   0  0  0  0  0  0
  -21.1074  -13.1202   22.2635 H   0  0  0  0  0  0
  -24.6457  -15.8417   20.5181 H   0  0  0  0  0  0
  -26.2585  -15.6346   20.0676 H   0  0  0  0  0  0
  -26.7228  -32.5360   23.1054 H   0  0  0  0  0  0
  -25.0094  -33.9678   25.0385 H   0  0  0  0  0  0
  -22.7339  -31.2944   21.3871 H   0  0  0  0  0  0
  -23.3746  -35.9595   23.3303 H   0  0  0  0  0  0
  -24.3573  -36.8887   22.2058 H   0  0  0  0  0  0
  -23.7227  -37.6463   23.6672 H   0  0  0  0  0  0
  -26.1298  -31.5074   20.6080 H   0  0  0  0  0  0
  -26.8599  -30.8032   22.0173 H   0  0  0  0  0  0
  -28.1333  -28.8883   21.2187 H   0  0  0  0  0  0
  -25.9788  -25.8644   19.0337 H   0  0  0  0  0  0
  -23.9778  -27.2883   19.0100 H   0  0  0  0  0  0
  -23.7921  -30.5746   19.4000 H   0  0  0  0  0  0
  -22.7761  -29.2379   19.8472 H   0  0  0  0  0  0
  -25.1302  -36.1892   25.0817 H   0  0  0  0  0  0
  -21.0000  -28.3283   24.1385 H   0  0  0  0  0  0
  -20.5691  -26.2316   23.3620 H   0  0  0  0  0  0
  -21.6647  -26.7444   22.1203 H   0  0  0  0  0  0
  -19.6907  -25.6305   21.1249 H   0  0  0  0  0  0
  -19.6690  -27.3207   20.6753 H   0  0  0  0  0  0
  -17.4210  -26.6709   21.4022 H   0  0  0  0  0  0
  -18.0317  -26.0089   22.9024 H   0  0  0  0  0  0
  -19.7945  -30.7309   24.2237 H   0  0  0  0  0  0
  -17.5022  -31.6270   24.5183 H   0  0  0  0  0  0
  -15.5362  -30.2998   23.7676 H   0  0  0  0  0  0
  -15.8679  -28.0839   22.7075 H   0  0  0  0  0  0
  -24.5901  -30.7098   25.7788 H   0  0  0  0  0  0
  -24.8910  -32.2948   26.4814 H   0  0  0  0  0  0
  -25.8035  -30.8987   27.0245 H   0  0  0  0  0  0
  -26.2983  -29.6726   24.1257 H   0  0  0  0  0  0
  -27.4016  -29.7282   25.4803 H   0  0  0  0  0  0
  -27.8865  -30.4268   23.9540 H   0  0  0  0  0  0
  -27.2648  -33.3670   26.2020 H   0  0  0  0  0  0
  -28.3891  -32.6860   25.0355 H   0  0  0  0  0  0
  -28.0673  -31.8507   26.5475 H   0  0  0  0  0  0
  -28.2596  -38.0085   24.7502 H   0  0  0  0  0  0
  -28.1052  -36.2615   24.6299 H   0  0  0  0  0  0
  -27.2289  -37.1447   25.8871 H   0  0  0  0  0  0
  -20.9422  -29.8764   21.6832 H   0  0  0  0  0  0
  -26.0141  -38.2824   24.1425 H   0  0  0  0  0  0
  -32.2403  -18.8833   23.1064 H   0  0  0  0  0  0
  -31.6385  -16.7202   22.3040 H   0  0  0  0  0  0
  -28.7595  -18.5416   19.6334 H   0  0  0  0  0  0
  -32.6675  -22.5405   23.5551 H   0  0  0  0  0  0
  -33.0546  -20.7473   23.5898 H   0  0  0  0  0  0
  -30.8322  -22.2328   22.1326 H   0  0  0  0  0  0
  -28.4667  -23.6653   21.5309 H   0  0  0  0  0  0
  -27.4901  -25.1808   21.6515 H   0  0  0  0  0  0
  -30.0439  -21.7159   19.6476 H   0  0  0  0  0  0
  -28.8239  -15.7948   20.3965 H   0  0  0  0  0  0
  1 25  1  0  0  0
  1 30  2  0  0  0
  1 83  1  0  0  0
  2  3  1  0  0  0
  2 25  1  0  0  0
  2 85  1  0  0  0
  2 86  1  0  0  0
  3  4  1  0  0  0
  3 87  1  0  0  0
  3 88  1  0  0  0
  4  5  1  0  0  0
  4 89  1  0  0  0
  4 90  1  0  0  0
  5  6  1  0  0  0
  5 26  1  0  0  0
  5 91  1  0  0  0
  6 25  1  0  0  0
  6 92  1  0  0  0
  6 93  1  0  0  0
  7  8  2  0  0  0
  7 26  1  0  0  0
  7 29  1  0  0  0
  8  9  1  0  0  0
  8 22  1  0  0  0
  9 10  1  0  0  0
  9 27  2  0  0  0
 10 11  2  0  0  0
 10 15  1  0  0  0
 11 12  1  0  0  0
 11 94  1  0  0  0
 12 13  2  0  0  0
 12 95  1  0  0  0
 13 14  1  0  0  0
 13 31  1  0  0  0
 14 15  2  0  0  0
 14 96  1  0  0  0
 15 97  1  0  0  0
 16 17  2  0  0  0
 16 21  1  0  0  0
 16 31  1  0  0  0
 17 18  1  0  0  0
 17 98  1  0  0  0
 18 19  2  0  0  0
 18 99  1  0  0  0
 19 20  1  0  0  0
 19 24  1  0  0  0
 20 21  2  0  0  0
 20100  1  0  0  0
 21 23  1  0  0  0
 22 28  1  0  0  0
 22 32  2  0  0  0
 26 27  1  0  0  0
 28101  1  0  0  0
 28102  1  0  0  0
 29103  1  0  0  0
 29104  1  0  0  0
 33 34  1  0  0  0
 33 66  1  0  0  0
 33 70  2  0  0  0
 34 36  1  0  0  0
 34 59  1  0  0  0
 34105  1  0  0  0
 35 44  2  0  0  0
 35 45  1  0  0  0
 35 68  1  0  0  0
 36 56  1  0  0  0
 36106  1  0  0  0
 37 39  1  0  0  0
 37 47  1  0  0  0
 37 66  1  0  0  0
 37107  1  0  0  0
 38 43  2  0  0  0
 38 46  1  0  0  0
 38 47  1  0  0  0
 39 64  1  0  0  0
 39 67  2  0  0  0
 40 52  1  0  0  0
 40 53  2  0  0  0
 40 58  1  0  0  0
 41108  1  0  0  0
 41109  1  0  0  0
 41110  1  0  0  0
 41 48  1  0  0  0
 42 43  1  0  0  0
 42 66  1  0  0  0
 42111  1  0  0  0
 42112  1  0  0  0
 43 44  1  0  0  0
 44113  1  0  0  0
 45 46  2  0  0  0
 45114  1  0  0  0
 46115  1  0  0  0
 47116  1  0  0  0
 47117  1  0  0  0
 48 56  1  0  0  0
 48 65  1  0  0  0
 48118  1  0  0  0
 49 50  1  0  0  0
 49 53  1  0  0  0
 49 64  1  0  0  0
 49119  1  0  0  0
 50 51  1  0  0  0
 50120  1  0  0  0
 50121  1  0  0  0
 51 52  1  0  0  0
 51122  1  0  0  0
 51123  1  0  0  0
 52124  1  0  0  0
 52125  1  0  0  0
 53 54  1  0  0  0
 54 55  2  0  0  0
 54126  1  0  0  0
 55 57  1  0  0  0
 55127  1  0  0  0
 56 69  2  0  0  0
 57 58  2  0  0  0
 57128  1  0  0  0
 58129  1  0  0  0
 59 60  1  0  0  0
 59 61  1  0  0  0
 59 62  1  0  0  0
 60130  1  0  0  0
 60131  1  0  0  0
 60132  1  0  0  0
 61133  1  0  0  0
 61134  1  0  0  0
 61135  1  0  0  0
 62136  1  0  0  0
 62137  1  0  0  0
 62138  1  0  0  0
 63 65  1  0  0  0
 63139  1  0  0  0
 63140  1  0  0  0
 63141  1  0  0  0
 64142  1  0  0  0
 65143  1  0  0  0
 68 80  1  0  0  0
 71 72  2  0  0  0
 71 74  1  0  0  0
 71144  1  0  0  0
 72 75  1  0  0  0
 72145  1  0  0  0
 73 75  2  0  0  0
 73 76  1  0  0  0
 73146  1  0  0  0
 74 76  2  0  0  0
 74 78  1  0  0  0
 75 83  1  0  0  0
 76 82  1  0  0  0
 77 78  2  0  0  0
 77147  1  0  0  0
 77148  1  0  0  0
 78149  1  0  0  0
 79 80  2  0  0  0
 79 81  1  0  0  0
 79150  1  0  0  0
 80151  1  0  0  0
 81 82  1  0  0  0
 81 84  2  0  0  0
 82152  1  0  0  0
 83153  1  0  0  0
M  ISO  4   1 100  68 101  80 101  83 100
M  END
> <chiral flag>
0

> <version>
0

> <s_m_source_file>
/data/baiqing/PycharmProjects/Reinvent-master-3.2/result/LINK_invent/BTK/process_docking_weight1_custom_product_contain_oxygen_bond_distance_aromatic_linkinvent_7_9_3/rearranged_h_0063.sdf

> <i_m_source_file_index>
83

> <r_mmod_Potential_Energy-OPLS-2005>
532.997802734375

> <r_mmod_Stretch_Energy-OPLS-2005>
159.289321899414

> <r_mmod_Bend_Energy-OPLS-2005>
401.106689453125

> <r_mmod_Torsional_Energy-OPLS-2005>
310.202423095703

> <r_mmod_Improper_Torsional_Energy-OPLS-2005>
28.068567276001

> <r_mmod_Van_der_Waal_Energy-OPLS-2005>
157.462921142578

> <r_mmod_Electrostatic_Energy-OPLS-2005>
-411.505828857422

> <r_mmod_Solvation_Energy-OPLS-2005>
-227.85710144043

> <b_mmod_Minimization_Converged-OPLS-2005>
0

> <r_mmod_RMS_Derivative-OPLS-2005>
1.03054440021515

$$$$
84
                    3D
 Structure written by MMmdl.
161170  0  0  1  0            999 V2000
  -30.6173  -14.7783   20.4449 C   0  0  0  0  0  0
  -30.4272  -12.4758   19.4755 C   0  0  0  0  0  0
  -29.5081  -12.5017   18.2363 C   0  0  0  0  0  0
  -28.0373  -12.3189   18.6554 C   0  0  0  0  0  0
  -27.6363  -13.2347   19.8429 C   0  0  2  0  0  0
  -28.6812  -13.2053   20.9783 C   0  0  0  0  0  0
  -25.2495  -13.8207   20.5687 C   0  0  0  0  0  0
  -24.1794  -13.0444   20.9208 C   0  0  0  0  0  0
  -24.6395  -11.6922   20.8762 C   0  0  0  0  0  0
  -23.9082  -10.4291   21.0420 C   0  0  0  0  0  0
  -24.3628   -9.4202   21.9193 C   0  0  0  0  0  0
  -23.6294   -8.2243   22.0764 C   0  0  0  0  0  0
  -22.4279   -8.0287   21.3549 C   0  0  0  0  0  0
  -21.9919   -9.0263   20.4650 C   0  0  0  0  0  0
  -22.7256  -10.2137   20.3061 C   0  0  0  0  0  0
  -21.6853   -6.0739   22.5279 C   0  0  0  0  0  0
  -21.4016   -6.5642   23.8213 C   0  0  0  0  0  0
  -21.3655   -5.6794   24.9174 C   0  0  0  0  0  0
  -21.6043   -4.3059   24.7224 C   0  0  0  0  0  0
  -21.8819   -3.8150   23.4346 C   0  0  0  0  0  0
  -21.9191   -4.6967   22.3402 C   0  0  0  0  0  0
  -22.7816  -13.5229   21.1868 C   0  0  0  0  0  0
  -22.1658   -4.2153   21.0981 F   0  0  0  0  0  0
  -21.5627   -3.4544   25.7736 F   0  0  0  0  0  0
  -29.9746  -13.5584   20.3831 N   0  0  0  0  0  0
  -26.2917  -12.9414   20.3258 N   0  0  0  0  0  0
  -25.9326  -11.6558   20.5759 N   0  0  0  0  0  0
  -22.0460  -12.8211   22.0413 N   0  0  0  0  0  0
  -25.4173  -15.1934   20.4090 N   0  0  0  0  0  0
  -31.8147  -14.8216   20.1506 O   0  0  0  0  0  0
  -21.6642   -6.8885   21.4243 O   0  0  0  0  0  0
  -22.3492  -14.5526   20.6707 O   0  0  0  0  0  0
  -24.6328  -31.8524   23.1947 C   0  0  0  0  0  0
  -25.9149  -32.4739   23.8302 C   0  0  1  0  0  0
  -27.2225  -27.2513   20.1407 C   0  0  0  0  0  0
  -25.5941  -33.8539   24.2230 N   0  0  0  0  0  0
  -23.4300  -30.4735   21.5381 C   0  0  2  0  0  0
  -24.8786  -28.9092   20.1156 C   0  0  0  0  0  0
  -22.7506  -29.4596   22.4906 C   0  0  0  0  0  0
  -18.0293  -28.1401   22.8469 C   0  0  0  0  0  0
  -24.1496  -36.7282   23.2643 C   0  0  0  0  0  0
  -25.9753  -30.7654   21.3719 C   0  0  0  0  0  0
  -26.0505  -29.3840   20.7194 C   0  0  0  0  0  0
  -27.2296  -28.5694   20.7142 C   0  0  0  0  0  0
  -26.0286  -26.8347   19.5218 C   0  0  0  0  0  0
  -24.8719  -27.6434   19.5063 C   0  0  0  0  0  0
  -23.6498  -29.7996   20.1567 C   0  0  0  0  0  0
  -25.4118  -36.3056   24.0327 C   0  0  1  0  0  0
  -20.5894  -28.3707   23.1271 C   0  0  2  0  0  0
  -20.6782  -26.9423   22.5417 C   0  0  0  0  0  0
  -19.5760  -26.6385   21.5224 C   0  0  0  0  0  0
  -18.1935  -26.7939   22.1623 C   0  0  0  0  0  0
  -19.1544  -28.8869   23.2863 C   0  0  0  0  0  0
  -18.9468  -30.1464   23.8891 C   0  0  0  0  0  0
  -17.6471  -30.6594   24.0561 C   0  0  0  0  0  0
  -25.9068  -34.9431   23.5085 C   0  0  0  0  0  0
  -16.5361  -29.9089   23.6339 C   0  0  0  0  0  0
  -16.7280  -28.6517   23.0348 C   0  0  0  0  0  0
  -26.4503  -31.6576   25.0709 C   0  0  0  0  0  0
  -25.3713  -31.3736   26.1421 C   0  0  0  0  0  0
  -27.0361  -30.3000   24.6199 C   0  0  0  0  0  0
  -27.6047  -32.4324   25.7479 C   0  0  0  0  0  0
  -27.5572  -37.1785   24.8459 C   0  0  0  0  0  0
  -21.4215  -29.3043   22.3650 N   0  0  0  0  0  0
  -26.4283  -37.3760   23.9411 N   0  0  0  0  0  0
  -24.6987  -31.0487   22.0917 N   0  0  0  0  0  0
  -23.4198  -28.8147   23.3023 O   0  0  0  0  0  0
  -28.3246  -26.3673   20.1199 O   0  0  0  0  0  0
  -26.5630  -34.8910   22.4648 O   0  0  0  0  0  0
  -23.5474  -32.1342   23.7244 O   0  0  0  0  0  0
  -31.5921  -17.6562   21.1754 C   0  0  0  0  0  0
  -29.4586  -18.5835   20.5165 C   0  0  0  0  0  0
  -32.0606  -18.9519   21.4786 C   0  0  0  0  0  0
  -31.1940  -20.0835   21.3678 C   0  0  0  0  0  0
  -29.8952  -19.9645   20.7683 C   0  0  0  0  0  0
  -30.2821  -17.3906   20.7350 C   0  0  0  0  0  0
  -29.3680  -22.5016   20.1525 C   0  0  0  0  0  0
  -33.4778  -19.0586   21.9379 C   0  0  0  0  0  0
  -27.0898  -22.6180   20.7123 C   0  0  0  0  0  0
  -27.5892  -21.1494   20.6035 C   0  0  0  0  0  0
  -28.1681  -23.5392   20.1028 C   0  0  1  0  0  0
  -31.6509  -21.3957   22.0171 C   0  0  0  0  0  0
  -28.2326  -25.0241   20.7990 C   0  0  0  0  0  0
  -34.0811  -18.1850   22.6241 N   0  0  0  0  0  0
  -29.0441  -21.1947   20.5228 N   0  0  0  0  0  0
  -29.8653  -15.9537   20.5838 N   0  0  0  0  0  0
  -30.4894  -22.8673   19.7918 O   0  0  0  0  0  0
  -34.1999  -20.1325   21.5737 F   0  0  0  0  0  0
  -31.4682  -12.5942   19.1697 H   0  0  0  0  0  0
  -30.3742  -11.5083   19.9775 H   0  0  0  0  0  0
  -29.7971  -11.7200   17.5332 H   0  0  0  0  0  0
  -29.6263  -13.4486   17.7074 H   0  0  0  0  0  0
  -27.9077  -11.2740   18.9380 H   0  0  0  0  0  0
  -27.3750  -12.4861   17.8055 H   0  0  0  0  0  0
  -27.6197  -14.2478   19.4416 H   0  0  0  0  0  0
  -28.7250  -12.2214   21.4469 H   0  0  0  0  0  0
  -28.4123  -13.9105   21.7669 H   0  0  0  0  0  0
  -25.2775   -9.5675   22.4768 H   0  0  0  0  0  0
  -23.9999   -7.4637   22.7489 H   0  0  0  0  0  0
  -21.0851   -8.8786   19.8954 H   0  0  0  0  0  0
  -22.3723  -10.9679   19.6168 H   0  0  0  0  0  0
  -21.2011   -7.6150   23.9716 H   0  0  0  0  0  0
  -21.1476   -6.0526   25.9075 H   0  0  0  0  0  0
  -22.0600   -2.7614   23.2846 H   0  0  0  0  0  0
  -22.4073  -11.9871   22.4800 H   0  0  0  0  0  0
  -21.1081  -13.1240   22.2631 H   0  0  0  0  0  0
  -24.6471  -15.8448   20.5148 H   0  0  0  0  0  0
  -26.2590  -15.6328   20.0606 H   0  0  0  0  0  0
  -26.7213  -32.5386   23.1036 H   0  0  0  0  0  0
  -25.0080  -33.9666   25.0367 H   0  0  0  0  0  0
  -22.7274  -31.2960   21.3853 H   0  0  0  0  0  0
  -23.3762  -35.9611   23.3298 H   0  0  0  0  0  0
  -24.3589  -36.8922   22.2060 H   0  0  0  0  0  0
  -23.7253  -37.6480   23.6679 H   0  0  0  0  0  0
  -26.1099  -31.5240   20.5989 H   0  0  0  0  0  0
  -26.8543  -30.8188   22.0028 H   0  0  0  0  0  0
  -28.1329  -28.9306   21.1857 H   0  0  0  0  0  0
  -25.9876  -25.8613   19.0534 H   0  0  0  0  0  0
  -23.9733  -27.2746   19.0315 H   0  0  0  0  0  0
  -23.7764  -30.5715   19.3963 H   0  0  0  0  0  0
  -22.7673  -29.2334   19.8522 H   0  0  0  0  0  0
  -25.1305  -36.1886   25.0821 H   0  0  0  0  0  0
  -20.9976  -28.3286   24.1394 H   0  0  0  0  0  0
  -20.5714  -26.2307   23.3617 H   0  0  0  0  0  0
  -21.6644  -26.7452   22.1193 H   0  0  0  0  0  0
  -19.6932  -25.6294   21.1256 H   0  0  0  0  0  0
  -19.6721  -27.3189   20.6749 H   0  0  0  0  0  0
  -17.4211  -26.6695   21.4019 H   0  0  0  0  0  0
  -18.0320  -26.0087   22.9024 H   0  0  0  0  0  0
  -19.7947  -30.7272   24.2261 H   0  0  0  0  0  0
  -17.5030  -31.6276   24.5156 H   0  0  0  0  0  0
  -15.5363  -30.2991   23.7676 H   0  0  0  0  0  0
  -15.8681  -28.0842   22.7061 H   0  0  0  0  0  0
  -24.5908  -30.7071   25.7745 H   0  0  0  0  0  0
  -24.8885  -32.2915   26.4795 H   0  0  0  0  0  0
  -25.8022  -30.8950   27.0224 H   0  0  0  0  0  0
  -26.2948  -29.6736   24.1229 H   0  0  0  0  0  0
  -27.4063  -29.7283   25.4716 H   0  0  0  0  0  0
  -27.8813  -30.4307   23.9435 H   0  0  0  0  0  0
  -27.2665  -33.3643   26.2012 H   0  0  0  0  0  0
  -28.3873  -32.6847   25.0320 H   0  0  0  0  0  0
  -28.0693  -31.8483   26.5427 H   0  0  0  0  0  0
  -28.2565  -38.0097   24.7499 H   0  0  0  0  0  0
  -28.1084  -36.2624   24.6283 H   0  0  0  0  0  0
  -27.2286  -37.1425   25.8857 H   0  0  0  0  0  0
  -20.9405  -29.8755   21.6844 H   0  0  0  0  0  0
  -26.0163  -38.2834   24.1420 H   0  0  0  0  0  0
  -32.2756  -16.8362   21.3276 H   0  0  0  0  0  0
  -28.4548  -18.4372   20.1437 H   0  0  0  0  0  0
  -26.9494  -22.8585   21.7670 H   0  0  0  0  0  0
  -26.1218  -22.7508   20.2277 H   0  0  0  0  0  0
  -27.2037  -20.6810   19.6966 H   0  0  0  0  0  0
  -27.2581  -20.5503   21.4530 H   0  0  0  0  0  0
  -27.9364  -23.6784   19.0465 H   0  0  0  0  0  0
  -32.2413  -21.2194   22.9160 H   0  0  0  0  0  0
  -30.8147  -21.9989   22.3660 H   0  0  0  0  0  0
  -32.2656  -21.9844   21.3353 H   0  0  0  0  0  0
  -29.0893  -25.0036   21.4737 H   0  0  0  0  0  0
  -27.3832  -25.0983   21.4799 H   0  0  0  0  0  0
  -33.4572  -17.4160   22.8331 H   0  0  0  0  0  0
  -28.8701  -15.7930   20.6103 H   0  0  0  0  0  0
  1 25  1  0  0  0
  1 30  2  0  0  0
  1 86  1  0  0  0
  2  3  1  0  0  0
  2 25  1  0  0  0
  2 89  1  0  0  0
  2 90  1  0  0  0
  3  4  1  0  0  0
  3 91  1  0  0  0
  3 92  1  0  0  0
  4  5  1  0  0  0
  4 93  1  0  0  0
  4 94  1  0  0  0
  5  6  1  0  0  0
  5 26  1  0  0  0
  5 95  1  0  0  0
  6 25  1  0  0  0
  6 96  1  0  0  0
  6 97  1  0  0  0
  7  8  2  0  0  0
  7 26  1  0  0  0
  7 29  1  0  0  0
  8  9  1  0  0  0
  8 22  1  0  0  0
  9 10  1  0  0  0
  9 27  2  0  0  0
 10 11  2  0  0  0
 10 15  1  0  0  0
 11 12  1  0  0  0
 11 98  1  0  0  0
 12 13  2  0  0  0
 12 99  1  0  0  0
 13 14  1  0  0  0
 13 31  1  0  0  0
 14 15  2  0  0  0
 14100  1  0  0  0
 15101  1  0  0  0
 16 17  2  0  0  0
 16 21  1  0  0  0
 16 31  1  0  0  0
 17 18  1  0  0  0
 17102  1  0  0  0
 18 19  2  0  0  0
 18103  1  0  0  0
 19 20  1  0  0  0
 19 24  1  0  0  0
 20 21  2  0  0  0
 20104  1  0  0  0
 21 23  1  0  0  0
 22 28  1  0  0  0
 22 32  2  0  0  0
 26 27  1  0  0  0
 28105  1  0  0  0
 28106  1  0  0  0
 29107  1  0  0  0
 29108  1  0  0  0
 33 34  1  0  0  0
 33 66  1  0  0  0
 33 70  2  0  0  0
 34 36  1  0  0  0
 34 59  1  0  0  0
 34109  1  0  0  0
 35 44  2  0  0  0
 35 45  1  0  0  0
 35 68  1  0  0  0
 36 56  1  0  0  0
 36110  1  0  0  0
 37 39  1  0  0  0
 37 47  1  0  0  0
 37 66  1  0  0  0
 37111  1  0  0  0
 38 43  2  0  0  0
 38 46  1  0  0  0
 38 47  1  0  0  0
 39 64  1  0  0  0
 39 67  2  0  0  0
 40 52  1  0  0  0
 40 53  2  0  0  0
 40 58  1  0  0  0
 41112  1  0  0  0
 41113  1  0  0  0
 41114  1  0  0  0
 41 48  1  0  0  0
 42 43  1  0  0  0
 42 66  1  0  0  0
 42115  1  0  0  0
 42116  1  0  0  0
 43 44  1  0  0  0
 44117  1  0  0  0
 45 46  2  0  0  0
 45118  1  0  0  0
 46119  1  0  0  0
 47120  1  0  0  0
 47121  1  0  0  0
 48 56  1  0  0  0
 48 65  1  0  0  0
 48122  1  0  0  0
 49 50  1  0  0  0
 49 53  1  0  0  0
 49 64  1  0  0  0
 49123  1  0  0  0
 50 51  1  0  0  0
 50124  1  0  0  0
 50125  1  0  0  0
 51 52  1  0  0  0
 51126  1  0  0  0
 51127  1  0  0  0
 52128  1  0  0  0
 52129  1  0  0  0
 53 54  1  0  0  0
 54 55  2  0  0  0
 54130  1  0  0  0
 55 57  1  0  0  0
 55131  1  0  0  0
 56 69  2  0  0  0
 57 58  2  0  0  0
 57132  1  0  0  0
 58133  1  0  0  0
 59 60  1  0  0  0
 59 61  1  0  0  0
 59 62  1  0  0  0
 60134  1  0  0  0
 60135  1  0  0  0
 60136  1  0  0  0
 61137  1  0  0  0
 61138  1  0  0  0
 61139  1  0  0  0
 62140  1  0  0  0
 62141  1  0  0  0
 62142  1  0  0  0
 63 65  1  0  0  0
 63143  1  0  0  0
 63144  1  0  0  0
 63145  1  0  0  0
 64146  1  0  0  0
 65147  1  0  0  0
 68 83  1  0  0  0
 71 73  2  0  0  0
 71 76  1  0  0  0
 71148  1  0  0  0
 72 75  1  0  0  0
 72 76  2  0  0  0
 72149  1  0  0  0
 73 74  1  0  0  0
 73 78  1  0  0  0
 74 75  2  0  0  0
 74 82  1  0  0  0
 75 85  1  0  0  0
 76 86  1  0  0  0
 77 81  1  0  0  0
 77 85  1  0  0  0
 77 87  2  0  0  0
 78 84  2  0  0  0
 78 88  1  0  0  0
 79 80  1  0  0  0
 79 81  1  0  0  0
 79150  1  0  0  0
 79151  1  0  0  0
 80 85  1  0  0  0
 80152  1  0  0  0
 80153  1  0  0  0
 81 83  1  0  0  0
 81154  1  0  0  0
 82155  1  0  0  0
 82156  1  0  0  0
 82157  1  0  0  0
 83158  1  0  0  0
 83159  1  0  0  0
 84160  1  0  0  0
 86161  1  0  0  0
M  ISO  4   1 100  68 101  83 101  86 100
M  END
> <chiral flag>
0

> <version>
0

> <s_m_source_file>
/data/baiqing/PycharmProjects/Reinvent-master-3.2/result/LINK_invent/BTK/process_docking_weight1_custom_product_contain_oxygen_bond_distance_aromatic_linkinvent_7_9_3/rearranged_h_0063.sdf

> <i_m_source_file_index>
84

> <r_mmod_Potential_Energy-OPLS-2005>
345.062133789062

> <r_mmod_Stretch_Energy-OPLS-2005>
152.46875

> <r_mmod_Bend_Energy-OPLS-2005>
216.270706176758

> <r_mmod_Torsional_Energy-OPLS-2005>
307.394561767578

> <r_mmod_Improper_Torsional_Energy-OPLS-2005>
6.89807558059692

> <r_mmod_Van_der_Waal_Energy-OPLS-2005>
154.355926513672

> <r_mmod_Electrostatic_Energy-OPLS-2005>
-343.288848876953

> <r_mmod_Solvation_Energy-OPLS-2005>
-243.444915771484

> <b_mmod_Minimization_Converged-OPLS-2005>
0

> <r_mmod_RMS_Derivative-OPLS-2005>
1.42707633972168

$$$$
85
                    3D
 Structure written by MMmdl.
168176  0  0  1  0            999 V2000
  -30.6134  -14.6597   20.4934 C   0  0  0  0  0  0
  -30.4392  -12.4040   19.4555 C   0  0  0  0  0  0
  -29.5105  -12.5196   18.2257 C   0  0  0  0  0  0
  -28.0311  -12.3586   18.6311 C   0  0  0  0  0  0
  -27.6529  -13.2209   19.8652 C   0  0  2  0  0  0
  -28.6991  -13.0762   20.9942 C   0  0  0  0  0  0
  -25.2545  -13.8177   20.5690 C   0  0  0  0  0  0
  -24.1822  -13.0431   20.9198 C   0  0  0  0  0  0
  -24.6399  -11.6907   20.8735 C   0  0  0  0  0  0
  -23.9063  -10.4290   21.0389 C   0  0  0  0  0  0
  -24.3615   -9.4209   21.9170 C   0  0  0  0  0  0
  -23.6297   -8.2242   22.0746 C   0  0  0  0  0  0
  -22.4276   -8.0273   21.3542 C   0  0  0  0  0  0
  -21.9908   -9.0242   20.4640 C   0  0  0  0  0  0
  -22.7231  -10.2124   20.3045 C   0  0  0  0  0  0
  -21.6853   -6.0730   22.5275 C   0  0  0  0  0  0
  -21.4017   -6.5635   23.8210 C   0  0  0  0  0  0
  -21.3664   -5.6785   24.9172 C   0  0  0  0  0  0
  -21.6045   -4.3050   24.7223 C   0  0  0  0  0  0
  -21.8821   -3.8142   23.4346 C   0  0  0  0  0  0
  -21.9196   -4.6958   22.3400 C   0  0  0  0  0  0
  -22.7840  -13.5216   21.1856 C   0  0  0  0  0  0
  -22.1659   -4.2147   21.0976 F   0  0  0  0  0  0
  -21.5636   -3.4537   25.7737 F   0  0  0  0  0  0
  -30.0121  -13.4270   20.4313 N   0  0  0  0  0  0
  -26.2984  -12.9369   20.3329 N   0  0  0  0  0  0
  -25.9329  -11.6515   20.5752 N   0  0  0  0  0  0
  -22.0480  -12.8211   22.0414 N   0  0  0  0  0  0
  -25.4232  -15.1903   20.4089 N   0  0  0  0  0  0
  -31.7763  -14.8182   20.1125 O   0  0  0  0  0  0
  -21.6640   -6.8869   21.4240 O   0  0  0  0  0  0
  -22.3516  -14.5517   20.6698 O   0  0  0  0  0  0
  -24.6259  -31.8611   23.2031 C   0  0  0  0  0  0
  -25.9113  -32.4783   23.8362 C   0  0  1  0  0  0
  -27.2190  -27.3124   20.1177 C   0  0  0  0  0  0
  -25.5935  -33.8586   24.2287 N   0  0  0  0  0  0
  -23.4195  -30.4854   21.5467 C   0  0  2  0  0  0
  -24.8667  -28.9417   20.1115 C   0  0  0  0  0  0
  -22.7469  -29.4638   22.4942 C   0  0  0  0  0  0
  -18.0292  -28.1385   22.8496 C   0  0  0  0  0  0
  -24.1485  -36.7286   23.2630 C   0  0  0  0  0  0
  -25.9626  -30.7868   21.3790 C   0  0  0  0  0  0
  -26.0354  -29.4130   20.7237 C   0  0  0  0  0  0
  -27.2145  -28.6069   20.7260 C   0  0  0  0  0  0
  -26.0326  -26.9068   19.4647 C   0  0  0  0  0  0
  -24.8668  -27.6927   19.4728 C   0  0  0  0  0  0
  -23.6345  -29.8225   20.1615 C   0  0  0  0  0  0
  -25.4108  -36.3082   24.0332 C   0  0  1  0  0  0
  -20.5890  -28.3694   23.1285 C   0  0  2  0  0  0
  -20.6779  -26.9413   22.5413 C   0  0  0  0  0  0
  -19.5749  -26.6383   21.5222 C   0  0  0  0  0  0
  -18.1932  -26.7929   22.1629 C   0  0  0  0  0  0
  -19.1545  -28.8857   23.2883 C   0  0  0  0  0  0
  -18.9466  -30.1462   23.8892 C   0  0  0  0  0  0
  -17.6466  -30.6589   24.0565 C   0  0  0  0  0  0
  -25.9061  -34.9459   23.5111 C   0  0  0  0  0  0
  -16.5355  -29.9090   23.6335 C   0  0  0  0  0  0
  -16.7278  -28.6507   23.0354 C   0  0  0  0  0  0
  -26.4495  -31.6581   25.0727 C   0  0  0  0  0  0
  -25.3723  -31.3726   26.1448 C   0  0  0  0  0  0
  -27.0336  -30.3002   24.6185 C   0  0  0  0  0  0
  -27.6059  -32.4312   25.7496 C   0  0  0  0  0  0
  -27.5601  -37.1766   24.8440 C   0  0  0  0  0  0
  -21.4186  -29.3049   22.3679 N   0  0  0  0  0  0
  -26.4268  -37.3799   23.9454 N   0  0  0  0  0  0
  -24.6881  -31.0616   22.0993 N   0  0  0  0  0  0
  -23.4192  -28.8172   23.3014 O   0  0  0  0  0  0
  -28.3151  -26.4322   20.1356 O   0  0  0  0  0  0
  -26.5622  -34.8926   22.4675 O   0  0  0  0  0  0
  -23.5420  -32.1422   23.7355 O   0  0  0  0  0  0
  -31.0265  -19.3175   20.1870 C   0  0  0  0  0  0
  -31.0270  -17.8909   20.2592 C   0  0  0  0  0  0
  -28.7507  -17.9727   21.0026 C   0  0  0  0  0  0
  -29.9045  -20.1321   20.5258 C   0  0  0  0  0  0
  -28.7414  -19.4067   20.9334 C   0  0  0  0  0  0
  -29.8848  -17.1693   20.6887 C   0  0  0  0  0  0
  -30.0876  -21.6764   20.5768 C   0  0  0  0  0  0
  -28.1437  -25.0192   20.4136 C   0  0  0  0  0  0
  -27.4672  -20.1262   21.3474 C   0  0  0  0  0  0
  -32.2809  -24.8362   19.0318 C   0  0  0  0  0  0
  -28.9028  -24.4123   16.0568 C   0  0  0  0  0  0
  -31.2781  -24.0101   18.2094 C   0  0  0  0  0  0
  -28.8444  -23.7409   17.4382 C   0  0  0  0  0  0
  -29.3381  -24.0701   19.9523 C   0  0  2  0  0  0
  -29.7982  -24.3664   18.4872 C   0  0  0  0  0  0
  -29.7949  -15.7087   20.8387 N   0  0  0  0  0  0
  -29.1418  -22.5741   20.1651 N   0  0  0  0  0  0
  -31.1802  -22.0927   20.9637 O   0  0  0  0  0  0
  -27.1339  -24.5485   20.9470 O   0  0  0  0  0  0
  -31.4814  -12.5296   19.1570 H   0  0  0  0  0  0
  -30.3737  -11.4085   19.8970 H   0  0  0  0  0  0
  -29.7783  -11.7716   17.4783 H   0  0  0  0  0  0
  -29.6546  -13.4907   17.7498 H   0  0  0  0  0  0
  -27.8600  -11.3042   18.8487 H   0  0  0  0  0  0
  -27.3820  -12.6030   17.7894 H   0  0  0  0  0  0
  -27.6682  -14.2579   19.5306 H   0  0  0  0  0  0
  -28.7141  -12.0531   21.3729 H   0  0  0  0  0  0
  -28.4444  -13.7051   21.8489 H   0  0  0  0  0  0
  -25.2760   -9.5695   22.4747 H   0  0  0  0  0  0
  -24.0013   -7.4631   22.7465 H   0  0  0  0  0  0
  -21.0841   -8.8749   19.8944 H   0  0  0  0  0  0
  -22.3680  -10.9657   19.6155 H   0  0  0  0  0  0
  -21.2001   -7.6141   23.9717 H   0  0  0  0  0  0
  -21.1490   -6.0514   25.9078 H   0  0  0  0  0  0
  -22.0599   -2.7608   23.2844 H   0  0  0  0  0  0
  -22.4104  -11.9884   22.4827 H   0  0  0  0  0  0
  -21.1091  -13.1223   22.2598 H   0  0  0  0  0  0
  -24.6502  -15.8390   20.5088 H   0  0  0  0  0  0
  -26.2596  -15.6277   20.0455 H   0  0  0  0  0  0
  -26.7182  -32.5454   23.1111 H   0  0  0  0  0  0
  -25.0096  -33.9739   25.0438 H   0  0  0  0  0  0
  -22.7136  -31.3063   21.4047 H   0  0  0  0  0  0
  -23.3783  -35.9574   23.3212 H   0  0  0  0  0  0
  -24.3603  -36.8984   22.2060 H   0  0  0  0  0  0
  -23.7172  -37.6439   23.6700 H   0  0  0  0  0  0
  -26.0961  -31.5487   20.6103 H   0  0  0  0  0  0
  -26.8418  -30.8365   22.0091 H   0  0  0  0  0  0
  -28.1099  -28.9626   21.2161 H   0  0  0  0  0  0
  -25.9925  -25.9534   18.9572 H   0  0  0  0  0  0
  -23.9755  -27.3282   18.9805 H   0  0  0  0  0  0
  -23.7537  -30.6011   19.4073 H   0  0  0  0  0  0
  -22.7540  -29.2536   19.8571 H   0  0  0  0  0  0
  -25.1269  -36.1921   25.0817 H   0  0  0  0  0  0
  -20.9990  -28.3272   24.1404 H   0  0  0  0  0  0
  -20.5698  -26.2305   23.3616 H   0  0  0  0  0  0
  -21.6646  -26.7454   22.1189 H   0  0  0  0  0  0
  -19.6909  -25.6296   21.1255 H   0  0  0  0  0  0
  -19.6680  -27.3200   20.6752 H   0  0  0  0  0  0
  -17.4200  -26.6693   21.4027 H   0  0  0  0  0  0
  -18.0317  -26.0072   22.9019 H   0  0  0  0  0  0
  -19.7940  -30.7289   24.2237 H   0  0  0  0  0  0
  -17.5017  -31.6265   24.5170 H   0  0  0  0  0  0
  -15.5356  -30.2984   23.7659 H   0  0  0  0  0  0
  -15.8679  -28.0825   22.7055 H   0  0  0  0  0  0
  -24.5897  -30.7081   25.7773 H   0  0  0  0  0  0
  -24.8918  -32.2894   26.4875 H   0  0  0  0  0  0
  -25.8037  -30.8898   27.0222 H   0  0  0  0  0  0
  -26.2914  -29.6753   24.1208 H   0  0  0  0  0  0
  -27.4024  -29.7256   25.4690 H   0  0  0  0  0  0
  -27.8785  -30.4282   23.9417 H   0  0  0  0  0  0
  -27.2684  -33.3624   26.2059 H   0  0  0  0  0  0
  -28.3880  -32.6847   25.0327 H   0  0  0  0  0  0
  -28.0715  -31.8439   26.5421 H   0  0  0  0  0  0
  -28.2501  -38.0179   24.7676 H   0  0  0  0  0  0
  -28.1212  -36.2731   24.6017 H   0  0  0  0  0  0
  -27.2358  -37.1102   25.8838 H   0  0  0  0  0  0
  -20.9359  -29.8773   21.6896 H   0  0  0  0  0  0
  -26.0138  -38.2843   24.1570 H   0  0  0  0  0  0
  -31.9423  -19.8061   19.8845 H   0  0  0  0  0  0
  -31.9344  -17.3648   19.9991 H   0  0  0  0  0  0
  -27.8501  -17.4722   21.3311 H   0  0  0  0  0  0
  -26.7931  -19.4592   21.8851 H   0  0  0  0  0  0
  -26.9365  -20.4947   20.4691 H   0  0  0  0  0  0
  -27.6795  -20.9681   22.0068 H   0  0  0  0  0  0
  -33.3040  -24.6278   18.7169 H   0  0  0  0  0  0
  -32.2242  -24.6102   20.0964 H   0  0  0  0  0  0
  -32.1098  -25.9062   18.9067 H   0  0  0  0  0  0
  -28.1877  -23.9520   15.3735 H   0  0  0  0  0  0
  -29.8865  -24.3244   15.5965 H   0  0  0  0  0  0
  -28.6562  -25.4726   16.1208 H   0  0  0  0  0  0
  -31.4556  -22.9449   18.3593 H   0  0  0  0  0  0
  -31.5011  -24.1939   17.1589 H   0  0  0  0  0  0
  -29.0544  -22.6753   17.3331 H   0  0  0  0  0  0
  -27.8139  -23.8053   17.7896 H   0  0  0  0  0  0
  -30.1566  -24.3552   20.6101 H   0  0  0  0  0  0
  -29.7373  -25.4460   18.3423 H   0  0  0  0  0  0
  -28.8994  -15.3864   21.1705 H   0  0  0  0  0  0
  -28.2468  -22.2032   19.8829 H   0  0  0  0  0  0
  1 25  1  0  0  0
  1 30  2  0  0  0
  1 86  1  0  0  0
  2  3  1  0  0  0
  2 25  1  0  0  0
  2 90  1  0  0  0
  2 91  1  0  0  0
  3  4  1  0  0  0
  3 92  1  0  0  0
  3 93  1  0  0  0
  4  5  1  0  0  0
  4 94  1  0  0  0
  4 95  1  0  0  0
  5  6  1  0  0  0
  5 26  1  0  0  0
  5 96  1  0  0  0
  6 25  1  0  0  0
  6 97  1  0  0  0
  6 98  1  0  0  0
  7  8  2  0  0  0
  7 26  1  0  0  0
  7 29  1  0  0  0
  8  9  1  0  0  0
  8 22  1  0  0  0
  9 10  1  0  0  0
  9 27  2  0  0  0
 10 11  2  0  0  0
 10 15  1  0  0  0
 11 12  1  0  0  0
 11 99  1  0  0  0
 12 13  2  0  0  0
 12100  1  0  0  0
 13 14  1  0  0  0
 13 31  1  0  0  0
 14 15  2  0  0  0
 14101  1  0  0  0
 15102  1  0  0  0
 16 17  2  0  0  0
 16 21  1  0  0  0
 16 31  1  0  0  0
 17 18  1  0  0  0
 17103  1  0  0  0
 18 19  2  0  0  0
 18104  1  0  0  0
 19 20  1  0  0  0
 19 24  1  0  0  0
 20 21  2  0  0  0
 20105  1  0  0  0
 21 23  1  0  0  0
 22 28  1  0  0  0
 22 32  2  0  0  0
 26 27  1  0  0  0
 28106  1  0  0  0
 28107  1  0  0  0
 29108  1  0  0  0
 29109  1  0  0  0
 33 34  1  0  0  0
 33 66  1  0  0  0
 33 70  2  0  0  0
 34 36  1  0  0  0
 34 59  1  0  0  0
 34110  1  0  0  0
 35 44  2  0  0  0
 35 45  1  0  0  0
 35 68  1  0  0  0
 36 56  1  0  0  0
 36111  1  0  0  0
 37 39  1  0  0  0
 37 47  1  0  0  0
 37 66  1  0  0  0
 37112  1  0  0  0
 38 43  2  0  0  0
 38 46  1  0  0  0
 38 47  1  0  0  0
 39 64  1  0  0  0
 39 67  2  0  0  0
 40 52  1  0  0  0
 40 53  2  0  0  0
 40 58  1  0  0  0
 41113  1  0  0  0
 41114  1  0  0  0
 41115  1  0  0  0
 41 48  1  0  0  0
 42 43  1  0  0  0
 42 66  1  0  0  0
 42116  1  0  0  0
 42117  1  0  0  0
 43 44  1  0  0  0
 44118  1  0  0  0
 45 46  2  0  0  0
 45119  1  0  0  0
 46120  1  0  0  0
 47121  1  0  0  0
 47122  1  0  0  0
 48 56  1  0  0  0
 48 65  1  0  0  0
 48123  1  0  0  0
 49 50  1  0  0  0
 49 53  1  0  0  0
 49 64  1  0  0  0
 49124  1  0  0  0
 50 51  1  0  0  0
 50125  1  0  0  0
 50126  1  0  0  0
 51 52  1  0  0  0
 51127  1  0  0  0
 51128  1  0  0  0
 52129  1  0  0  0
 52130  1  0  0  0
 53 54  1  0  0  0
 54 55  2  0  0  0
 54131  1  0  0  0
 55 57  1  0  0  0
 55132  1  0  0  0
 56 69  2  0  0  0
 57 58  2  0  0  0
 57133  1  0  0  0
 58134  1  0  0  0
 59 60  1  0  0  0
 59 61  1  0  0  0
 59 62  1  0  0  0
 60135  1  0  0  0
 60136  1  0  0  0
 60137  1  0  0  0
 61138  1  0  0  0
 61139  1  0  0  0
 61140  1  0  0  0
 62141  1  0  0  0
 62142  1  0  0  0
 62143  1  0  0  0
 63 65  1  0  0  0
 63144  1  0  0  0
 63145  1  0  0  0
 63146  1  0  0  0
 64147  1  0  0  0
 65148  1  0  0  0
 68 78  1  0  0  0
 71 72  2  0  0  0
 71 74  1  0  0  0
 71149  1  0  0  0
 72 76  1  0  0  0
 72150  1  0  0  0
 73 75  1  0  0  0
 73 76  2  0  0  0
 73151  1  0  0  0
 74 75  2  0  0  0
 74 77  1  0  0  0
 75 79  1  0  0  0
 76 86  1  0  0  0
 77 87  1  0  0  0
 77 88  2  0  0  0
 78 84  1  0  0  0
 78 89  2  0  0  0
 79152  1  0  0  0
 79153  1  0  0  0
 79154  1  0  0  0
 80 82  1  0  0  0
 80155  1  0  0  0
 80156  1  0  0  0
 80157  1  0  0  0
 81 83  1  0  0  0
 81158  1  0  0  0
 81159  1  0  0  0
 81160  1  0  0  0
 82161  1  0  0  0
 82162  1  0  0  0
 82 85  1  0  0  0
 83 85  1  0  0  0
 83163  1  0  0  0
 83164  1  0  0  0
 84 85  1  0  0  0
 84 87  1  0  0  0
 84165  1  0  0  0
 85166  1  0  0  0
 86167  1  0  0  0
 87168  1  0  0  0
M  ISO  4   1 100  68 101  78 101  86 100
M  END
> <chiral flag>
0

> <version>
0

> <s_m_source_file>
/data/baiqing/PycharmProjects/Reinvent-master-3.2/result/LINK_invent/BTK/process_docking_weight1_custom_product_contain_oxygen_bond_distance_aromatic_linkinvent_7_9_3/rearranged_h_0063.sdf

> <i_m_source_file_index>
85

> <r_mmod_Potential_Energy-OPLS-2005>
47.1451301574707

> <r_mmod_Stretch_Energy-OPLS-2005>
96.4947280883789

> <r_mmod_Bend_Energy-OPLS-2005>
150.915451049805

> <r_mmod_Torsional_Energy-OPLS-2005>
228.103591918945

> <r_mmod_Improper_Torsional_Energy-OPLS-2005>
5.10083103179932

> <r_mmod_Van_der_Waal_Energy-OPLS-2005>
142.819839477539

> <r_mmod_Electrostatic_Energy-OPLS-2005>
-410.751617431641

> <r_mmod_Solvation_Energy-OPLS-2005>
-219.81396484375

> <b_mmod_Minimization_Converged-OPLS-2005>
0

> <r_mmod_RMS_Derivative-OPLS-2005>
1.45147049427032

$$$$
86
                    3D
 Structure written by MMmdl.
166174  0  0  1  0            999 V2000
  -30.6890  -14.5629   20.5289 C   0  0  0  0  0  0
  -30.4160  -12.3578   19.4371 C   0  0  0  0  0  0
  -29.4917  -12.5029   18.2120 C   0  0  0  0  0  0
  -28.0157  -12.3550   18.6272 C   0  0  0  0  0  0
  -27.6490  -13.2204   19.8631 C   0  0  2  0  0  0
  -28.6953  -13.0757   20.9907 C   0  0  0  0  0  0
  -25.2531  -13.8187   20.5690 C   0  0  0  0  0  0
  -24.1813  -13.0439   20.9196 C   0  0  0  0  0  0
  -24.6392  -11.6913   20.8750 C   0  0  0  0  0  0
  -23.9070  -10.4301   21.0409 C   0  0  0  0  0  0
  -24.3620   -9.4217   21.9184 C   0  0  0  0  0  0
  -23.6296   -8.2247   22.0756 C   0  0  0  0  0  0
  -22.4273   -8.0288   21.3544 C   0  0  0  0  0  0
  -21.9914   -9.0262   20.4644 C   0  0  0  0  0  0
  -22.7242  -10.2144   20.3057 C   0  0  0  0  0  0
  -21.6858   -6.0741   22.5277 C   0  0  0  0  0  0
  -21.4015   -6.5645   23.8211 C   0  0  0  0  0  0
  -21.3661   -5.6795   24.9171 C   0  0  0  0  0  0
  -21.6043   -4.3058   24.7220 C   0  0  0  0  0  0
  -21.8821   -3.8151   23.4340 C   0  0  0  0  0  0
  -21.9194   -4.6969   22.3396 C   0  0  0  0  0  0
  -22.7837  -13.5229   21.1858 C   0  0  0  0  0  0
  -22.1661   -4.2157   21.0975 F   0  0  0  0  0  0
  -21.5631   -3.4539   25.7734 F   0  0  0  0  0  0
  -30.0096  -13.3851   20.4131 N   0  0  0  0  0  0
  -26.2969  -12.9379   20.3336 N   0  0  0  0  0  0
  -25.9320  -11.6533   20.5770 N   0  0  0  0  0  0
  -22.0481  -12.8216   22.0413 N   0  0  0  0  0  0
  -25.4218  -15.1910   20.4089 N   0  0  0  0  0  0
  -31.8505  -14.6708   20.1263 O   0  0  0  0  0  0
  -21.6642   -6.8879   21.4237 O   0  0  0  0  0  0
  -22.3519  -14.5543   20.6718 O   0  0  0  0  0  0
  -24.6223  -31.8634   23.2085 C   0  0  0  0  0  0
  -25.9098  -32.4787   23.8391 C   0  0  1  0  0  0
  -27.2115  -27.3544   20.1117 C   0  0  0  0  0  0
  -25.5947  -33.8590   24.2318 N   0  0  0  0  0  0
  -23.4142  -30.4884   21.5492 C   0  0  2  0  0  0
  -24.8609  -28.9530   20.1126 C   0  0  0  0  0  0
  -22.7461  -29.4632   22.4948 C   0  0  0  0  0  0
  -18.0274  -28.1384   22.8473 C   0  0  0  0  0  0
  -24.1492  -36.7308   23.2634 C   0  0  0  0  0  0
  -25.9524  -30.8014   21.3794 C   0  0  0  0  0  0
  -26.0260  -29.4306   20.7267 C   0  0  0  0  0  0
  -27.2075  -28.6356   20.7318 C   0  0  0  0  0  0
  -26.0429  -26.9394   19.4478 C   0  0  0  0  0  0
  -24.8664  -27.7069   19.4685 C   0  0  0  0  0  0
  -23.6283  -29.8289   20.1627 C   0  0  0  0  0  0
  -25.4113  -36.3091   24.0336 C   0  0  1  0  0  0
  -20.5875  -28.3683   23.1292 C   0  0  2  0  0  0
  -20.6772  -26.9408   22.5410 C   0  0  0  0  0  0
  -19.5742  -26.6382   21.5211 C   0  0  0  0  0  0
  -18.1920  -26.7921   22.1624 C   0  0  0  0  0  0
  -19.1530  -28.8849   23.2871 C   0  0  0  0  0  0
  -18.9458  -30.1454   23.8888 C   0  0  0  0  0  0
  -17.6459  -30.6587   24.0561 C   0  0  0  0  0  0
  -25.9058  -34.9461   23.5119 C   0  0  0  0  0  0
  -16.5347  -29.9090   23.6332 C   0  0  0  0  0  0
  -16.7263  -28.6513   23.0338 C   0  0  0  0  0  0
  -26.4505  -31.6583   25.0746 C   0  0  0  0  0  0
  -25.3757  -31.3708   26.1481 C   0  0  0  0  0  0
  -27.0346  -30.3014   24.6178 C   0  0  0  0  0  0
  -27.6062  -32.4323   25.7516 C   0  0  0  0  0  0
  -27.5574  -37.1806   24.8459 C   0  0  0  0  0  0
  -21.4179  -29.3042   22.3698 N   0  0  0  0  0  0
  -26.4289  -37.3779   23.9409 N   0  0  0  0  0  0
  -24.6813  -31.0667   22.1027 N   0  0  0  0  0  0
  -23.4198  -28.8153   23.3011 O   0  0  0  0  0  0
  -28.3063  -26.4945   20.1082 O   0  0  0  0  0  0
  -26.5599  -34.8910   22.4667 O   0  0  0  0  0  0
  -23.5394  -32.1432   23.7437 O   0  0  0  0  0  0
  -31.6947  -16.9179   22.1262 C   0  0  0  0  0  0
  -29.9632  -18.2252   20.9942 C   0  0  0  0  0  0
  -32.3135  -18.0964   22.5775 C   0  0  0  0  0  0
  -30.5378  -16.9451   21.3171 C   0  0  0  0  0  0
  -30.5846  -19.4386   21.4503 C   0  0  0  0  0  0
  -31.7502  -19.3442   22.2398 C   0  0  0  0  0  0
  -29.1912  -21.4466   20.5922 C   0  0  0  0  0  0
  -33.2340  -17.7225   24.9089 C   0  0  0  0  0  0
  -26.9064  -23.7478   19.8308 C   0  0  0  0  0  0
  -27.4070  -23.3933   22.2357 C   0  0  0  0  0  0
  -29.2627  -23.0257   20.5405 C   0  0  0  0  0  0
  -28.3242  -25.4718   21.1558 C   0  0  0  0  0  0
  -33.5698  -17.9831   23.4358 C   0  0  0  0  0  0
  -27.9967  -23.9182   20.9029 C   0  0  0  0  0  0
  -30.2174  -20.8166   21.2051 N   0  0  0  0  0  0
  -29.9826  -15.6703   20.9062 N   0  0  0  0  0  0
  -28.2600  -20.8296   20.0740 O   0  0  0  0  0  0
  -32.3238  -20.4931   22.6781 F   0  0  0  0  0  0
  -34.3206  -19.0818   23.3533 F   0  0  0  0  0  0
  -34.3120  -16.9658   22.9934 F   0  0  0  0  0  0
  -31.4599  -12.4553   19.1338 H   0  0  0  0  0  0
  -30.3257  -11.3632   19.8758 H   0  0  0  0  0  0
  -29.7442  -11.7580   17.4570 H   0  0  0  0  0  0
  -29.6470  -13.4770   17.7459 H   0  0  0  0  0  0
  -27.8391  -11.3017   18.8448 H   0  0  0  0  0  0
  -27.3634  -12.6041   17.7896 H   0  0  0  0  0  0
  -27.6682  -14.2566   19.5274 H   0  0  0  0  0  0
  -28.6939  -12.0621   21.3938 H   0  0  0  0  0  0
  -28.4587  -13.7320   21.8294 H   0  0  0  0  0  0
  -25.2760   -9.5702   22.4765 H   0  0  0  0  0  0
  -24.0009   -7.4645   22.7482 H   0  0  0  0  0  0
  -21.0845   -8.8780   19.8952 H   0  0  0  0  0  0
  -22.3690  -10.9686   19.6176 H   0  0  0  0  0  0
  -21.2008   -7.6150   23.9716 H   0  0  0  0  0  0
  -21.1482   -6.0523   25.9074 H   0  0  0  0  0  0
  -22.0598   -2.7612   23.2835 H   0  0  0  0  0  0
  -22.4094  -11.9860   22.4778 H   0  0  0  0  0  0
  -21.1108  -13.1251   22.2642 H   0  0  0  0  0  0
  -24.6501  -15.8409   20.5144 H   0  0  0  0  0  0
  -26.2659  -15.6346   20.0700 H   0  0  0  0  0  0
  -26.7164  -32.5488   23.1142 H   0  0  0  0  0  0
  -25.0118  -33.9740   25.0474 H   0  0  0  0  0  0
  -22.7066  -31.3074   21.4089 H   0  0  0  0  0  0
  -23.3749  -35.9649   23.3307 H   0  0  0  0  0  0
  -24.3585  -36.8928   22.2045 H   0  0  0  0  0  0
  -23.7258  -37.6521   23.6653 H   0  0  0  0  0  0
  -26.0774  -31.5636   20.6094 H   0  0  0  0  0  0
  -26.8353  -30.8521   22.0041 H   0  0  0  0  0  0
  -28.1021  -28.9906   21.2237 H   0  0  0  0  0  0
  -26.0323  -26.0173   18.8937 H   0  0  0  0  0  0
  -23.9800  -27.3429   18.9677 H   0  0  0  0  0  0
  -23.7435  -30.6075   19.4072 H   0  0  0  0  0  0
  -22.7507  -29.2556   19.8598 H   0  0  0  0  0  0
  -25.1285  -36.1945   25.0832 H   0  0  0  0  0  0
  -20.9943  -28.3240   24.1424 H   0  0  0  0  0  0
  -20.5697  -26.2284   23.3607 H   0  0  0  0  0  0
  -21.6641  -26.7455   22.1188 H   0  0  0  0  0  0
  -19.6922  -25.6295   21.1248 H   0  0  0  0  0  0
  -19.6694  -27.3196   20.6738 H   0  0  0  0  0  0
  -17.4194  -26.6668   21.4015 H   0  0  0  0  0  0
  -18.0307  -26.0067   22.9024 H   0  0  0  0  0  0
  -19.7937  -30.7259   24.2267 H   0  0  0  0  0  0
  -17.5017  -31.6270   24.5160 H   0  0  0  0  0  0
  -15.5351  -30.2987   23.7671 H   0  0  0  0  0  0
  -15.8660  -28.0847   22.7039 H   0  0  0  0  0  0
  -24.5941  -30.7045   25.7813 H   0  0  0  0  0  0
  -24.8936  -32.2861   26.4917 H   0  0  0  0  0  0
  -25.8095  -30.8881   27.0245 H   0  0  0  0  0  0
  -26.2900  -29.6769   24.1224 H   0  0  0  0  0  0
  -27.4064  -29.7270   25.4671 H   0  0  0  0  0  0
  -27.8769  -30.4308   23.9384 H   0  0  0  0  0  0
  -27.2675  -33.3629   26.2083 H   0  0  0  0  0  0
  -28.3879  -32.6879   25.0353 H   0  0  0  0  0  0
  -28.0726  -31.8465   26.5445 H   0  0  0  0  0  0
  -28.2579  -38.0105   24.7506 H   0  0  0  0  0  0
  -28.1083  -36.2642   24.6291 H   0  0  0  0  0  0
  -27.2298  -37.1462   25.8861 H   0  0  0  0  0  0
  -20.9350  -29.8797   21.6944 H   0  0  0  0  0  0
  -26.0183  -38.2863   24.1398 H   0  0  0  0  0  0
  -32.1309  -15.9714   22.4153 H   0  0  0  0  0  0
  -29.0727  -18.2773   20.3856 H   0  0  0  0  0  0
  -32.6476  -18.5391   25.3299 H   0  0  0  0  0  0
  -34.1411  -17.6201   25.5042 H   0  0  0  0  0  0
  -32.6579  -16.8044   25.0257 H   0  0  0  0  0  0
  -26.6286  -22.7059   19.6787 H   0  0  0  0  0  0
  -27.2401  -24.1324   18.8670 H   0  0  0  0  0  0
  -25.9878  -24.2564   20.1199 H   0  0  0  0  0  0
  -27.0723  -22.3583   22.1615 H   0  0  0  0  0  0
  -26.5385  -23.9742   22.5505 H   0  0  0  0  0  0
  -28.1389  -23.4432   23.0420 H   0  0  0  0  0  0
  -29.6011  -23.2972   19.5400 H   0  0  0  0  0  0
  -30.0781  -23.3262   21.1996 H   0  0  0  0  0  0
  -29.3134  -25.5330   21.6103 H   0  0  0  0  0  0
  -27.6667  -25.8358   21.9486 H   0  0  0  0  0  0
  -30.8971  -21.4538   21.6011 H   0  0  0  0  0  0
  -28.9811  -15.5670   20.9629 H   0  0  0  0  0  0
  1 25  1  0  0  0
  1 30  2  0  0  0
  1 86  1  0  0  0
  2  3  1  0  0  0
  2 25  1  0  0  0
  2 91  1  0  0  0
  2 92  1  0  0  0
  3  4  1  0  0  0
  3 93  1  0  0  0
  3 94  1  0  0  0
  4  5  1  0  0  0
  4 95  1  0  0  0
  4 96  1  0  0  0
  5  6  1  0  0  0
  5 26  1  0  0  0
  5 97  1  0  0  0
  6 25  1  0  0  0
  6 98  1  0  0  0
  6 99  1  0  0  0
  7  8  2  0  0  0
  7 26  1  0  0  0
  7 29  1  0  0  0
  8  9  1  0  0  0
  8 22  1  0  0  0
  9 10  1  0  0  0
  9 27  2  0  0  0
 10 11  2  0  0  0
 10 15  1  0  0  0
 11 12  1  0  0  0
 11100  1  0  0  0
 12 13  2  0  0  0
 12101  1  0  0  0
 13 14  1  0  0  0
 13 31  1  0  0  0
 14 15  2  0  0  0
 14102  1  0  0  0
 15103  1  0  0  0
 16 17  2  0  0  0
 16 21  1  0  0  0
 16 31  1  0  0  0
 17 18  1  0  0  0
 17104  1  0  0  0
 18 19  2  0  0  0
 18105  1  0  0  0
 19 20  1  0  0  0
 19 24  1  0  0  0
 20 21  2  0  0  0
 20106  1  0  0  0
 21 23  1  0  0  0
 22 28  1  0  0  0
 22 32  2  0  0  0
 26 27  1  0  0  0
 28107  1  0  0  0
 28108  1  0  0  0
 29109  1  0  0  0
 29110  1  0  0  0
 33 34  1  0  0  0
 33 66  1  0  0  0
 33 70  2  0  0  0
 34 36  1  0  0  0
 34 59  1  0  0  0
 34111  1  0  0  0
 35 44  2  0  0  0
 35 45  1  0  0  0
 35 68  1  0  0  0
 36 56  1  0  0  0
 36112  1  0  0  0
 37 39  1  0  0  0
 37 47  1  0  0  0
 37 66  1  0  0  0
 37113  1  0  0  0
 38 43  2  0  0  0
 38 46  1  0  0  0
 38 47  1  0  0  0
 39 64  1  0  0  0
 39 67  2  0  0  0
 40 52  1  0  0  0
 40 53  2  0  0  0
 40 58  1  0  0  0
 41114  1  0  0  0
 41115  1  0  0  0
 41116  1  0  0  0
 41 48  1  0  0  0
 42 43  1  0  0  0
 42 66  1  0  0  0
 42117  1  0  0  0
 42118  1  0  0  0
 43 44  1  0  0  0
 44119  1  0  0  0
 45 46  2  0  0  0
 45120  1  0  0  0
 46121  1  0  0  0
 47122  1  0  0  0
 47123  1  0  0  0
 48 56  1  0  0  0
 48 65  1  0  0  0
 48124  1  0  0  0
 49 50  1  0  0  0
 49 53  1  0  0  0
 49 64  1  0  0  0
 49125  1  0  0  0
 50 51  1  0  0  0
 50126  1  0  0  0
 50127  1  0  0  0
 51 52  1  0  0  0
 51128  1  0  0  0
 51129  1  0  0  0
 52130  1  0  0  0
 52131  1  0  0  0
 53 54  1  0  0  0
 54 55  2  0  0  0
 54132  1  0  0  0
 55 57  1  0  0  0
 55133  1  0  0  0
 56 69  2  0  0  0
 57 58  2  0  0  0
 57134  1  0  0  0
 58135  1  0  0  0
 59 60  1  0  0  0
 59 61  1  0  0  0
 59 62  1  0  0  0
 60136  1  0  0  0
 60137  1  0  0  0
 60138  1  0  0  0
 61139  1  0  0  0
 61140  1  0  0  0
 61141  1  0  0  0
 62142  1  0  0  0
 62143  1  0  0  0
 62144  1  0  0  0
 63 65  1  0  0  0
 63145  1  0  0  0
 63146  1  0  0  0
 63147  1  0  0  0
 64148  1  0  0  0
 65149  1  0  0  0
 68 82  1  0  0  0
 71 73  2  0  0  0
 71 74  1  0  0  0
 71150  1  0  0  0
 72 74  2  0  0  0
 72 75  1  0  0  0
 72151  1  0  0  0
 73 76  1  0  0  0
 73 83  1  0  0  0
 74 86  1  0  0  0
 75 76  2  0  0  0
 75 85  1  0  0  0
 76 88  1  0  0  0
 77 81  1  0  0  0
 77 85  1  0  0  0
 77 87  2  0  0  0
 78152  1  0  0  0
 78153  1  0  0  0
 78154  1  0  0  0
 78 83  1  0  0  0
 79155  1  0  0  0
 79156  1  0  0  0
 79157  1  0  0  0
 79 84  1  0  0  0
 80 84  1  0  0  0
 80158  1  0  0  0
 80159  1  0  0  0
 80160  1  0  0  0
 81 84  1  0  0  0
 81161  1  0  0  0
 81162  1  0  0  0
 82 84  1  0  0  0
 82163  1  0  0  0
 82164  1  0  0  0
 83 89  1  0  0  0
 83 90  1  0  0  0
 85165  1  0  0  0
 86166  1  0  0  0
M  ISO  4   1 100  68 101  82 101  86 100
M  END
> <chiral flag>
0

> <version>
0

> <s_m_source_file>
/data/baiqing/PycharmProjects/Reinvent-master-3.2/result/LINK_invent/BTK/process_docking_weight1_custom_product_contain_oxygen_bond_distance_aromatic_linkinvent_7_9_3/rearranged_h_0063.sdf

> <i_m_source_file_index>
86

> <r_mmod_Potential_Energy-OPLS-2005>
27.9017162322998

> <r_mmod_Stretch_Energy-OPLS-2005>
68.6751174926758

> <r_mmod_Bend_Energy-OPLS-2005>
163.375503540039

> <r_mmod_Torsional_Energy-OPLS-2005>
252.649658203125

> <r_mmod_Improper_Torsional_Energy-OPLS-2005>
4.56174373626709

> <r_mmod_Van_der_Waal_Energy-OPLS-2005>
157.428985595703

> <r_mmod_Electrostatic_Energy-OPLS-2005>
-438.658050537109

> <r_mmod_Solvation_Energy-OPLS-2005>
-214.558471679688

> <b_mmod_Minimization_Converged-OPLS-2005>
0

> <r_mmod_RMS_Derivative-OPLS-2005>
1.88102567195892

$$$$
87
                    3D
 Structure written by MMmdl.
162170  0  0  1  0            999 V2000
  -30.5185  -14.8168   20.4233 C   0  0  0  0  0  0
  -30.4396  -12.4910   19.4882 C   0  0  0  0  0  0
  -29.5133  -12.5157   18.2478 C   0  0  0  0  0  0
  -28.0326  -12.3431   18.6493 C   0  0  0  0  0  0
  -27.6348  -13.2258   19.8610 C   0  0  2  0  0  0
  -28.6806  -13.1493   20.9932 C   0  0  0  0  0  0
  -25.2388  -13.8126   20.5511 C   0  0  0  0  0  0
  -24.1710  -13.0374   20.9123 C   0  0  0  0  0  0
  -24.6342  -11.6852   20.8706 C   0  0  0  0  0  0
  -23.9017  -10.4230   21.0345 C   0  0  0  0  0  0
  -24.3584   -9.4175   21.9140 C   0  0  0  0  0  0
  -23.6271   -8.2217   22.0731 C   0  0  0  0  0  0
  -22.4233   -8.0233   21.3535 C   0  0  0  0  0  0
  -21.9856   -9.0205   20.4627 C   0  0  0  0  0  0
  -22.7179  -10.2094   20.2997 C   0  0  0  0  0  0
  -21.6841   -6.0719   22.5271 C   0  0  0  0  0  0
  -21.4009   -6.5622   23.8207 C   0  0  0  0  0  0
  -21.3670   -5.6762   24.9147 C   0  0  0  0  0  0
  -21.6023   -4.3029   24.7193 C   0  0  0  0  0  0
  -21.8824   -3.8149   23.4310 C   0  0  0  0  0  0
  -21.9206   -4.6961   22.3378 C   0  0  0  0  0  0
  -22.7750  -13.5165   21.1829 C   0  0  0  0  0  0
  -22.1663   -4.2168   21.0954 F   0  0  0  0  0  0
  -21.5637   -3.4508   25.7711 F   0  0  0  0  0  0
  -29.9730  -13.5477   20.4196 N   0  0  0  0  0  0
  -26.2895  -12.9360   20.3351 N   0  0  0  0  0  0
  -25.9298  -11.6496   20.5819 N   0  0  0  0  0  0
  -22.0397  -12.8140   22.0381 N   0  0  0  0  0  0
  -25.3832  -15.1868   20.3647 N   0  0  0  0  0  0
  -31.6893  -14.9706   20.0563 O   0  0  0  0  0  0
  -21.6585   -6.8837   21.4233 O   0  0  0  0  0  0
  -22.3460  -14.5543   20.6771 O   0  0  0  0  0  0
  -24.6306  -31.8567   23.1989 C   0  0  0  0  0  0
  -25.9140  -32.4772   23.8341 C   0  0  1  0  0  0
  -27.2375  -27.2794   20.1467 C   0  0  0  0  0  0
  -25.5994  -33.8559   24.2340 N   0  0  0  0  0  0
  -23.4279  -30.4835   21.5340 C   0  0  2  0  0  0
  -24.8835  -28.9347   20.1023 C   0  0  0  0  0  0
  -22.7513  -29.4647   22.4815 C   0  0  0  0  0  0
  -18.0343  -28.1423   22.8458 C   0  0  0  0  0  0
  -24.1489  -36.7231   23.2638 C   0  0  0  0  0  0
  -25.9702  -30.7833   21.3703 C   0  0  0  0  0  0
  -26.0496  -29.4063   20.7145 C   0  0  0  0  0  0
  -27.2306  -28.5950   20.7184 C   0  0  0  0  0  0
  -26.0449  -26.8726   19.5003 C   0  0  0  0  0  0
  -24.8871  -27.6782   19.4773 C   0  0  0  0  0  0
  -23.6505  -29.8170   20.1489 C   0  0  0  0  0  0
  -25.4115  -36.3079   24.0349 C   0  0  1  0  0  0
  -20.5950  -28.3717   23.1245 C   0  0  2  0  0  0
  -20.6800  -26.9417   22.5408 C   0  0  0  0  0  0
  -19.5786  -26.6408   21.5175 C   0  0  0  0  0  0
  -18.1972  -26.7971   22.1591 C   0  0  0  0  0  0
  -19.1606  -28.8883   23.2848 C   0  0  0  0  0  0
  -18.9488  -30.1483   23.8880 C   0  0  0  0  0  0
  -17.6500  -30.6597   24.0570 C   0  0  0  0  0  0
  -25.9048  -34.9442   23.5136 C   0  0  0  0  0  0
  -16.5401  -29.9095   23.6359 C   0  0  0  0  0  0
  -16.7334  -28.6530   23.0340 C   0  0  0  0  0  0
  -26.4530  -31.6576   25.0687 C   0  0  0  0  0  0
  -25.3745  -31.3741   26.1428 C   0  0  0  0  0  0
  -27.0337  -30.3020   24.6067 C   0  0  0  0  0  0
  -27.6177  -32.4244   25.7385 C   0  0  0  0  0  0
  -27.5598  -37.1762   24.8465 C   0  0  0  0  0  0
  -21.4213  -29.3080   22.3593 N   0  0  0  0  0  0
  -26.4300  -37.3779   23.9446 N   0  0  0  0  0  0
  -24.6945  -31.0596   22.0935 N   0  0  0  0  0  0
  -23.4215  -28.8152   23.2882 O   0  0  0  0  0  0
  -28.3432  -26.4003   20.2303 O   0  0  0  0  0  0
  -26.5544  -34.8911   22.4665 O   0  0  0  0  0  0
  -23.5452  -32.1371   23.7299 O   0  0  0  0  0  0
  -29.7159  -18.5394   20.6227 C   0  0  0  0  0  0
  -28.3809  -17.2052   19.1110 C   0  0  0  0  0  0
  -29.1996  -19.7948   20.0658 C   0  0  0  0  0  0
  -28.2993  -19.6663   18.9583 C   0  0  0  0  0  0
  -29.3646  -17.2097   20.1338 C   0  0  0  0  0  0
  -27.8270  -18.3904   18.5614 C   0  0  0  0  0  0
  -29.6476  -21.2103   20.5809 C   0  0  0  0  0  0
  -27.8412  -20.8624   18.1148 C   0  0  0  0  0  0
  -24.3843  -19.7774   17.0021 C   0  0  0  0  0  0
  -29.2215  -23.8234   20.5713 C   0  0  0  0  0  0
  -28.1083  -24.9203   20.1570 C   0  0  0  0  0  0
  -29.6834  -15.8863   20.7660 N   0  0  0  0  0  0
  -26.7817  -18.2933   17.6132 N   0  0  0  0  0  0
  -28.8847  -22.3480   20.3731 N   0  0  0  0  0  0
  -30.7180  -21.2917   21.1889 O   0  0  0  0  0  0
  -24.5253  -17.1163   17.3610 O   0  0  0  0  0  0
  -24.9366  -18.6263   19.3779 O   0  0  0  0  0  0
  -25.0709  -18.3559   17.9408 S   0  0  0  0  0  0
  -31.4783  -12.6404   19.1874 H   0  0  0  0  0  0
  -30.4092  -11.5144   19.9755 H   0  0  0  0  0  0
  -29.8043  -11.7307   17.5477 H   0  0  0  0  0  0
  -29.6373  -13.4614   17.7153 H   0  0  0  0  0  0
  -27.8677  -11.2931   18.8950 H   0  0  0  0  0  0
  -27.3860  -12.5629   17.7987 H   0  0  0  0  0  0
  -27.6194  -14.2452   19.4894 H   0  0  0  0  0  0
  -28.7402  -12.1393   21.4044 H   0  0  0  0  0  0
  -28.4030  -13.7940   21.8273 H   0  0  0  0  0  0
  -25.2743   -9.5716   22.4684 H   0  0  0  0  0  0
  -24.0011   -7.4623   22.7446 H   0  0  0  0  0  0
  -21.0791   -8.8728   19.8949 H   0  0  0  0  0  0
  -22.3616  -10.9628   19.6098 H   0  0  0  0  0  0
  -21.1991   -7.6125   23.9694 H   0  0  0  0  0  0
  -21.1485   -6.0481   25.9040 H   0  0  0  0  0  0
  -22.0615   -2.7626   23.2769 H   0  0  0  0  0  0
  -22.4005  -11.9853   22.4880 H   0  0  0  0  0  0
  -21.1035  -13.1233   22.2647 H   0  0  0  0  0  0
  -24.5413  -15.7429   20.2513 H   0  0  0  0  0  0
  -26.2111  -15.6691   20.0392 H   0  0  0  0  0  0
  -26.7154  -32.5442   23.1027 H   0  0  0  0  0  0
  -25.0256  -33.9673   25.0572 H   0  0  0  0  0  0
  -22.7265  -31.3060   21.3879 H   0  0  0  0  0  0
  -23.3785  -35.9525   23.3280 H   0  0  0  0  0  0
  -24.3612  -36.8851   22.2065 H   0  0  0  0  0  0
  -23.7151  -37.6404   23.6611 H   0  0  0  0  0  0
  -26.0987  -31.5446   20.5992 H   0  0  0  0  0  0
  -26.8536  -30.8428   21.9928 H   0  0  0  0  0  0
  -28.1226  -28.9594   21.2067 H   0  0  0  0  0  0
  -25.9841  -25.9104   19.0139 H   0  0  0  0  0  0
  -23.9921  -27.3152   18.9904 H   0  0  0  0  0  0
  -23.7778  -30.5897   19.3907 H   0  0  0  0  0  0
  -22.7693  -29.2485   19.8449 H   0  0  0  0  0  0
  -25.1279  -36.1928   25.0830 H   0  0  0  0  0  0
  -21.0106  -28.3292   24.1337 H   0  0  0  0  0  0
  -20.5652  -26.2305   23.3610 H   0  0  0  0  0  0
  -21.6665  -26.7402   22.1221 H   0  0  0  0  0  0
  -19.6906  -25.6293   21.1228 H   0  0  0  0  0  0
  -19.6738  -27.3187   20.6666 H   0  0  0  0  0  0
  -17.4239  -26.6738   21.3991 H   0  0  0  0  0  0
  -18.0374  -26.0146   22.9028 H   0  0  0  0  0  0
  -19.7948  -30.7314   24.2245 H   0  0  0  0  0  0
  -17.5043  -31.6268   24.5191 H   0  0  0  0  0  0
  -15.5390  -30.3002   23.7652 H   0  0  0  0  0  0
  -15.8737  -28.0864   22.7016 H   0  0  0  0  0  0
  -24.5956  -30.7030   25.7785 H   0  0  0  0  0  0
  -24.8842  -32.2892   26.4775 H   0  0  0  0  0  0
  -25.8114  -30.9007   27.0233 H   0  0  0  0  0  0
  -26.2861  -29.6769   24.1167 H   0  0  0  0  0  0
  -27.4181  -29.7318   25.4530 H   0  0  0  0  0  0
  -27.8696  -30.4373   23.9191 H   0  0  0  0  0  0
  -27.2964  -33.3628   26.1920 H   0  0  0  0  0  0
  -28.4007  -32.6649   25.0167 H   0  0  0  0  0  0
  -28.0795  -31.8309   26.5290 H   0  0  0  0  0  0
  -28.2609  -38.0071   24.7596 H   0  0  0  0  0  0
  -28.1117  -36.2621   24.6204 H   0  0  0  0  0  0
  -27.2341  -37.1335   25.8873 H   0  0  0  0  0  0
  -20.9358  -29.8856   21.6867 H   0  0  0  0  0  0
  -26.0183  -38.2847   24.1506 H   0  0  0  0  0  0
  -30.3932  -18.6102   21.4642 H   0  0  0  0  0  0
  -28.0040  -16.2596   18.7543 H   0  0  0  0  0  0
  -26.9569  -21.3311   18.5426 H   0  0  0  0  0  0
  -27.6045  -20.5746   17.0898 H   0  0  0  0  0  0
  -28.6233  -21.6071   17.9862 H   0  0  0  0  0  0
  -24.6601  -19.7254   15.9505 H   0  0  0  0  0  0
  -24.7088  -20.7200   17.4372 H   0  0  0  0  0  0
  -23.2959  -19.7365   17.0682 H   0  0  0  0  0  0
  -29.4989  -23.9698   21.6168 H   0  0  0  0  0  0
  -30.1247  -24.0201   19.9924 H   0  0  0  0  0  0
  -27.2252  -24.7059   20.7619 H   0  0  0  0  0  0
  -27.8289  -24.6975   19.1272 H   0  0  0  0  0  0
  -28.8602  -15.4947   21.1959 H   0  0  0  0  0  0
  -26.9554  -17.5916   16.9066 H   0  0  0  0  0  0
  -28.0050  -22.1787   19.9057 H   0  0  0  0  0  0
  1 25  1  0  0  0
  1 30  2  0  0  0
  1 82  1  0  0  0
  2  3  1  0  0  0
  2 25  1  0  0  0
  2 89  1  0  0  0
  2 90  1  0  0  0
  3  4  1  0  0  0
  3 91  1  0  0  0
  3 92  1  0  0  0
  4  5  1  0  0  0
  4 93  1  0  0  0
  4 94  1  0  0  0
  5  6  1  0  0  0
  5 26  1  0  0  0
  5 95  1  0  0  0
  6 25  1  0  0  0
  6 96  1  0  0  0
  6 97  1  0  0  0
  7  8  2  0  0  0
  7 26  1  0  0  0
  7 29  1  0  0  0
  8  9  1  0  0  0
  8 22  1  0  0  0
  9 10  1  0  0  0
  9 27  2  0  0  0
 10 11  2  0  0  0
 10 15  1  0  0  0
 11 12  1  0  0  0
 11 98  1  0  0  0
 12 13  2  0  0  0
 12 99  1  0  0  0
 13 14  1  0  0  0
 13 31  1  0  0  0
 14 15  2  0  0  0
 14100  1  0  0  0
 15101  1  0  0  0
 16 17  2  0  0  0
 16 21  1  0  0  0
 16 31  1  0  0  0
 17 18  1  0  0  0
 17102  1  0  0  0
 18 19  2  0  0  0
 18103  1  0  0  0
 19 20  1  0  0  0
 19 24  1  0  0  0
 20 21  2  0  0  0
 20104  1  0  0  0
 21 23  1  0  0  0
 22 28  1  0  0  0
 22 32  2  0  0  0
 26 27  1  0  0  0
 28105  1  0  0  0
 28106  1  0  0  0
 29107  1  0  0  0
 29108  1  0  0  0
 33 34  1  0  0  0
 33 66  1  0  0  0
 33 70  2  0  0  0
 34 36  1  0  0  0
 34 59  1  0  0  0
 34109  1  0  0  0
 35 44  2  0  0  0
 35 45  1  0  0  0
 35 68  1  0  0  0
 36 56  1  0  0  0
 36110  1  0  0  0
 37 39  1  0  0  0
 37 47  1  0  0  0
 37 66  1  0  0  0
 37111  1  0  0  0
 38 43  2  0  0  0
 38 46  1  0  0  0
 38 47  1  0  0  0
 39 64  1  0  0  0
 39 67  2  0  0  0
 40 52  1  0  0  0
 40 53  2  0  0  0
 40 58  1  0  0  0
 41112  1  0  0  0
 41113  1  0  0  0
 41114  1  0  0  0
 41 48  1  0  0  0
 42 43  1  0  0  0
 42 66  1  0  0  0
 42115  1  0  0  0
 42116  1  0  0  0
 43 44  1  0  0  0
 44117  1  0  0  0
 45 46  2  0  0  0
 45118  1  0  0  0
 46119  1  0  0  0
 47120  1  0  0  0
 47121  1  0  0  0
 48 56  1  0  0  0
 48 65  1  0  0  0
 48122  1  0  0  0
 49 50  1  0  0  0
 49 53  1  0  0  0
 49 64  1  0  0  0
 49123  1  0  0  0
 50 51  1  0  0  0
 50124  1  0  0  0
 50125  1  0  0  0
 51 52  1  0  0  0
 51126  1  0  0  0
 51127  1  0  0  0
 52128  1  0  0  0
 52129  1  0  0  0
 53 54  1  0  0  0
 54 55  2  0  0  0
 54130  1  0  0  0
 55 57  1  0  0  0
 55131  1  0  0  0
 56 69  2  0  0  0
 57 58  2  0  0  0
 57132  1  0  0  0
 58133  1  0  0  0
 59 60  1  0  0  0
 59 61  1  0  0  0
 59 62  1  0  0  0
 60134  1  0  0  0
 60135  1  0  0  0
 60136  1  0  0  0
 61137  1  0  0  0
 61138  1  0  0  0
 61139  1  0  0  0
 62140  1  0  0  0
 62141  1  0  0  0
 62142  1  0  0  0
 63 65  1  0  0  0
 63143  1  0  0  0
 63144  1  0  0  0
 63145  1  0  0  0
 64146  1  0  0  0
 65147  1  0  0  0
 68 81  1  0  0  0
 71 73  2  0  0  0
 71 75  1  0  0  0
 71148  1  0  0  0
 72 75  2  0  0  0
 72 76  1  0  0  0
 72149  1  0  0  0
 73 74  1  0  0  0
 73 77  1  0  0  0
 74 76  2  0  0  0
 74 78  1  0  0  0
 75 82  1  0  0  0
 76 83  1  0  0  0
 77 84  1  0  0  0
 77 85  2  0  0  0
 78150  1  0  0  0
 78151  1  0  0  0
 78152  1  0  0  0
 79153  1  0  0  0
 79154  1  0  0  0
 79155  1  0  0  0
 79 88  1  0  0  0
 80 81  1  0  0  0
 80 84  1  0  0  0
 80156  1  0  0  0
 80157  1  0  0  0
 81158  1  0  0  0
 81159  1  0  0  0
 82160  1  0  0  0
 83 88  1  0  0  0
 83161  1  0  0  0
 84162  1  0  0  0
 86 88  2  0  0  0
 87 88  2  0  0  0
M  ISO  4   1 100  68 101  81 101  82 100
M  END
> <chiral flag>
0

> <version>
0

> <s_m_source_file>
/data/baiqing/PycharmProjects/Reinvent-master-3.2/result/LINK_invent/BTK/process_docking_weight1_custom_product_contain_oxygen_bond_distance_aromatic_linkinvent_7_9_3/rearranged_h_0063.sdf

> <i_m_source_file_index>
87

> <r_mmod_Potential_Energy-OPLS-2005>
-105.633338928223

> <r_mmod_Stretch_Energy-OPLS-2005>
132.974960327148

> <r_mmod_Bend_Energy-OPLS-2005>
176.706390380859

> <r_mmod_Torsional_Energy-OPLS-2005>
289.91943359375

> <r_mmod_Improper_Torsional_Energy-OPLS-2005>
12.4338130950928

> <r_mmod_Van_der_Waal_Energy-OPLS-2005>
133.753967285156

> <r_mmod_Electrostatic_Energy-OPLS-2005>
-673.6044921875

> <r_mmod_Solvation_Energy-OPLS-2005>
-281.025543212891

> <b_mmod_Minimization_Converged-OPLS-2005>
0

> <r_mmod_RMS_Derivative-OPLS-2005>
7.1894965171814

$$$$
88
                    3D
 Structure written by MMmdl.
170179  0  0  1  0            999 V2000
  -30.7347  -14.3966   20.6103 C   0  0  0  0  0  0
  -30.4161  -12.2698   19.4117 C   0  0  0  0  0  0
  -29.4917  -12.5188   18.2033 C   0  0  0  0  0  0
  -28.0104  -12.3925   18.6110 C   0  0  0  0  0  0
  -27.6688  -13.2076   19.8875 C   0  0  2  0  0  0
  -28.7078  -12.9402   20.9999 C   0  0  0  0  0  0
  -25.2581  -13.8176   20.5597 C   0  0  0  0  0  0
  -24.1859  -13.0448   20.9147 C   0  0  0  0  0  0
  -24.6427  -11.6917   20.8753 C   0  0  0  0  0  0
  -23.9096  -10.4304   21.0419 C   0  0  0  0  0  0
  -24.3639   -9.4207   21.9188 C   0  0  0  0  0  0
  -23.6304   -8.2241   22.0751 C   0  0  0  0  0  0
  -22.4286   -8.0293   21.3543 C   0  0  0  0  0  0
  -21.9937   -9.0276   20.4646 C   0  0  0  0  0  0
  -22.7274  -10.2141   20.3053 C   0  0  0  0  0  0
  -21.6856   -6.0751   22.5283 C   0  0  0  0  0  0
  -21.3999   -6.5640   23.8213 C   0  0  0  0  0  0
  -21.3641   -5.6796   24.9174 C   0  0  0  0  0  0
  -21.6043   -4.3061   24.7224 C   0  0  0  0  0  0
  -21.8827   -3.8153   23.4346 C   0  0  0  0  0  0
  -21.9192   -4.6976   22.3402 C   0  0  0  0  0  0
  -22.7888  -13.5237   21.1845 C   0  0  0  0  0  0
  -22.1666   -4.2157   21.0983 F   0  0  0  0  0  0
  -21.5616   -3.4537   25.7725 F   0  0  0  0  0  0
  -30.0483  -13.2340   20.4600 N   0  0  0  0  0  0
  -26.3059  -12.9360   20.3413 N   0  0  0  0  0  0
  -25.9358  -11.6523   20.5829 N   0  0  0  0  0  0
  -22.0529  -12.8210   22.0391 N   0  0  0  0  0  0
  -25.4301  -15.1874   20.3928 N   0  0  0  0  0  0
  -31.8360  -14.5854   20.0848 O   0  0  0  0  0  0
  -21.6647   -6.8894   21.4247 O   0  0  0  0  0  0
  -22.3557  -14.5546   20.6708 O   0  0  0  0  0  0
  -24.6132  -31.8711   23.2150 C   0  0  0  0  0  0
  -25.9042  -32.4832   23.8423 C   0  0  1  0  0  0
  -27.2331  -27.4578   20.0654 C   0  0  0  0  0  0
  -25.5922  -33.8637   24.2354 N   0  0  0  0  0  0
  -23.3985  -30.4985   21.5559 C   0  0  2  0  0  0
  -24.8403  -28.9664   20.1196 C   0  0  0  0  0  0
  -22.7386  -29.4674   22.5006 C   0  0  0  0  0  0
  -18.0266  -28.1384   22.8489 C   0  0  0  0  0  0
  -24.1466  -36.7274   23.2643 C   0  0  0  0  0  0
  -25.9294  -30.8360   21.3684 C   0  0  0  0  0  0
  -26.0007  -29.4722   20.7163 C   0  0  0  0  0  0
  -27.1946  -28.7185   20.6993 C   0  0  0  0  0  0
  -26.0453  -26.9580   19.4774 C   0  0  0  0  0  0
  -24.8546  -27.7045   19.5057 C   0  0  0  0  0  0
  -23.6050  -29.8356   20.1686 C   0  0  0  0  0  0
  -25.4084  -36.3112   24.0364 C   0  0  1  0  0  0
  -20.5855  -28.3647   23.1340 C   0  0  2  0  0  0
  -20.6734  -26.9384   22.5460 C   0  0  0  0  0  0
  -19.5747  -26.6380   21.5228 C   0  0  0  0  0  0
  -18.1902  -26.7952   22.1578 C   0  0  0  0  0  0
  -19.1513  -28.8830   23.2912 C   0  0  0  0  0  0
  -18.9442  -30.1431   23.8917 C   0  0  0  0  0  0
  -17.6447  -30.6583   24.0575 C   0  0  0  0  0  0
  -25.9035  -34.9489   23.5148 C   0  0  0  0  0  0
  -16.5336  -29.9082   23.6337 C   0  0  0  0  0  0
  -16.7256  -28.6506   23.0345 C   0  0  0  0  0  0
  -26.4465  -31.6609   25.0752 C   0  0  0  0  0  0
  -25.3738  -31.3761   26.1528 C   0  0  0  0  0  0
  -27.0232  -30.3027   24.6123 C   0  0  0  0  0  0
  -27.6107  -32.4280   25.7453 C   0  0  0  0  0  0
  -27.5595  -37.1744   24.8446 C   0  0  0  0  0  0
  -21.4120  -29.3008   22.3733 N   0  0  0  0  0  0
  -26.4253  -37.3818   23.9483 N   0  0  0  0  0  0
  -24.6656  -31.0833   22.1038 N   0  0  0  0  0  0
  -23.4175  -28.8227   23.3042 O   0  0  0  0  0  0
  -28.4244  -26.7634   20.0485 O   0  0  0  0  0  0
  -26.5584  -34.8951   22.4698 O   0  0  0  0  0  0
  -23.5329  -32.1443   23.7562 O   0  0  0  0  0  0
  -31.2720  -18.7864   20.3619 C   0  0  0  0  0  0
  -31.0758  -17.4003   20.3402 C   0  0  0  0  0  0
  -29.6381  -17.5505   22.3165 C   0  0  0  0  0  0
  -29.8122  -18.9665   22.3128 C   0  0  0  0  0  0
  -30.6627  -19.5786   21.3504 C   0  0  0  0  0  0
  -30.2871  -16.7578   21.3259 C   0  0  0  0  0  0
  -31.5567  -21.7074   22.2185 C   0  0  0  0  0  0
  -26.2020  -14.4483   24.1713 C   0  0  0  0  0  0
  -28.7841  -16.9399   23.3627 C   0  0  0  0  0  0
  -27.0838  -15.4508   24.3045 C   0  0  0  0  0  0
  -27.8300  -16.0049   23.1932 C   0  0  0  0  0  0
  -29.9455  -25.0824   19.1825 C   0  0  0  0  0  0
  -31.6160  -23.1754   21.8257 C   0  0  0  0  0  0
  -30.5087  -21.7800   20.1429 C   0  0  0  0  0  0
  -31.0577  -23.1981   20.3948 C   0  0  1  0  0  0
  -29.0528  -19.8318   23.3194 C   0  0  0  0  0  0
  -28.6115  -25.8103   18.9996 C   0  0  0  0  0  0
  -30.8903  -20.9848   21.3025 N   0  0  0  0  0  0
  -30.1125  -15.3381   21.3377 N   0  0  0  0  0  0
  -30.0097  -24.2057   20.1947 N   0  0  0  0  0  0
  -32.0683  -21.2802   23.2592 O   0  0  0  0  0  0
  -30.8761  -25.2694   18.3947 O   0  0  0  0  0  0
  -31.4629  -12.3495   19.1117 H   0  0  0  0  0  0
  -30.2923  -11.2514   19.7835 H   0  0  0  0  0  0
  -29.7202  -11.8157   17.4008 H   0  0  0  0  0  0
  -29.6780  -13.5161   17.8010 H   0  0  0  0  0  0
  -27.8022  -11.3353   18.7807 H   0  0  0  0  0  0
  -27.3670  -12.7017   17.7867 H   0  0  0  0  0  0
  -27.7305  -14.2638   19.6222 H   0  0  0  0  0  0
  -28.6673  -11.8925   21.3011 H   0  0  0  0  0  0
  -28.4756  -13.5024   21.9033 H   0  0  0  0  0  0
  -25.2788   -9.5666   22.4754 H   0  0  0  0  0  0
  -24.0007   -7.4626   22.7467 H   0  0  0  0  0  0
  -21.0857   -8.8819   19.8950 H   0  0  0  0  0  0
  -22.3766  -10.9678   19.6139 H   0  0  0  0  0  0
  -21.1983   -7.6141   23.9715 H   0  0  0  0  0  0
  -21.1434   -6.0517   25.9077 H   0  0  0  0  0  0
  -22.0604   -2.7617   23.2841 H   0  0  0  0  0  0
  -22.4127  -11.9829   22.4725 H   0  0  0  0  0  0
  -21.1148  -13.1232   22.2626 H   0  0  0  0  0  0
  -24.6645  -15.8457   20.4907 H   0  0  0  0  0  0
  -26.2861  -15.6220   20.0729 H   0  0  0  0  0  0
  -26.7114  -32.5554   23.1199 H   0  0  0  0  0  0
  -25.0114  -33.9806   25.0533 H   0  0  0  0  0  0
  -22.6870  -31.3166   21.4249 H   0  0  0  0  0  0
  -23.3813  -35.9509   23.3189 H   0  0  0  0  0  0
  -24.3604  -36.9003   22.2086 H   0  0  0  0  0  0
  -23.7092  -37.6401   23.6706 H   0  0  0  0  0  0
  -26.0493  -31.6011   20.5999 H   0  0  0  0  0  0
  -26.8159  -30.8837   21.9887 H   0  0  0  0  0  0
  -28.0938  -29.1085   21.1554 H   0  0  0  0  0  0
  -26.0017  -25.9954   18.9937 H   0  0  0  0  0  0
  -23.9591  -27.3058   19.0473 H   0  0  0  0  0  0
  -23.7183  -30.6144   19.4138 H   0  0  0  0  0  0
  -22.7279  -29.2586   19.8702 H   0  0  0  0  0  0
  -25.1244  -36.1948   25.0846 H   0  0  0  0  0  0
  -20.9969  -28.3216   24.1453 H   0  0  0  0  0  0
  -20.5599  -26.2264   23.3643 H   0  0  0  0  0  0
  -21.6614  -26.7387   22.1292 H   0  0  0  0  0  0
  -19.6900  -25.6285   21.1247 H   0  0  0  0  0  0
  -19.6759  -27.3187   20.6763 H   0  0  0  0  0  0
  -17.4231  -26.6794   21.3909 H   0  0  0  0  0  0
  -18.0220  -26.0054   22.8916 H   0  0  0  0  0  0
  -19.7919  -30.7231   24.2302 H   0  0  0  0  0  0
  -17.5017  -31.6262   24.5174 H   0  0  0  0  0  0
  -15.5335  -30.2984   23.7676 H   0  0  0  0  0  0
  -15.8653  -28.0840   22.7030 H   0  0  0  0  0  0
  -24.5935  -30.7054   25.7927 H   0  0  0  0  0  0
  -24.8892  -32.2925   26.4906 H   0  0  0  0  0  0
  -25.8109  -30.9024   27.0332 H   0  0  0  0  0  0
  -26.2717  -29.6820   24.1236 H   0  0  0  0  0  0
  -27.4038  -29.7259   25.4564 H   0  0  0  0  0  0
  -27.8571  -30.4312   23.9220 H   0  0  0  0  0  0
  -27.2839  -33.3665   26.1938 H   0  0  0  0  0  0
  -28.3939  -32.6661   25.0249 H   0  0  0  0  0  0
  -28.0731  -31.8432   26.5421 H   0  0  0  0  0  0
  -28.2533  -38.0115   24.7632 H   0  0  0  0  0  0
  -28.1152  -36.2673   24.6023 H   0  0  0  0  0  0
  -27.2393  -37.1131   25.8863 H   0  0  0  0  0  0
  -20.9265  -29.8723   21.6958 H   0  0  0  0  0  0
  -26.0138  -38.2873   24.1606 H   0  0  0  0  0  0
  -31.9034  -19.2382   19.6096 H   0  0  0  0  0  0
  -31.5581  -16.8570   19.5435 H   0  0  0  0  0  0
  -25.6628  -14.0674   25.0276 H   0  0  0  0  0  0
  -26.0023  -13.9899   23.2143 H   0  0  0  0  0  0
  -28.9846  -17.2799   24.3690 H   0  0  0  0  0  0
  -27.2365  -15.8628   25.2937 H   0  0  0  0  0  0
  -27.5996  -15.6590   22.1951 H   0  0  0  0  0  0
  -32.6418  -23.5444   21.8635 H   0  0  0  0  0  0
  -31.0131  -23.7596   22.5202 H   0  0  0  0  0  0
  -30.9251  -21.3629   19.2256 H   0  0  0  0  0  0
  -29.4224  -21.7619   20.0452 H   0  0  0  0  0  0
  -31.8928  -23.3698   19.7117 H   0  0  0  0  0  0
  -28.0644  -19.4290   23.5391 H   0  0  0  0  0  0
  -28.8776  -20.8391   22.9431 H   0  0  0  0  0  0
  -29.6084  -19.9057   24.2546 H   0  0  0  0  0  0
  -27.8422  -25.0383   18.9949 H   0  0  0  0  0  0
  -28.5889  -26.3115   18.0300 H   0  0  0  0  0  0
  -29.3279  -15.0090   21.8796 H   0  0  0  0  0  0
  -29.1946  -24.1606   20.7946 H   0  0  0  0  0  0
  1 25  1  0  0  0
  1 30  2  0  0  0
  1 89  1  0  0  0
  2  3  1  0  0  0
  2 25  1  0  0  0
  2 93  1  0  0  0
  2 94  1  0  0  0
  3  4  1  0  0  0
  3 95  1  0  0  0
  3 96  1  0  0  0
  4  5  1  0  0  0
  4 97  1  0  0  0
  4 98  1  0  0  0
  5  6  1  0  0  0
  5 26  1  0  0  0
  5 99  1  0  0  0
  6 25  1  0  0  0
  6100  1  0  0  0
  6101  1  0  0  0
  7  8  2  0  0  0
  7 26  1  0  0  0
  7 29  1  0  0  0
  8  9  1  0  0  0
  8 22  1  0  0  0
  9 10  1  0  0  0
  9 27  2  0  0  0
 10 11  2  0  0  0
 10 15  1  0  0  0
 11 12  1  0  0  0
 11102  1  0  0  0
 12 13  2  0  0  0
 12103  1  0  0  0
 13 14  1  0  0  0
 13 31  1  0  0  0
 14 15  2  0  0  0
 14104  1  0  0  0
 15105  1  0  0  0
 16 17  2  0  0  0
 16 21  1  0  0  0
 16 31  1  0  0  0
 17 18  1  0  0  0
 17106  1  0  0  0
 18 19  2  0  0  0
 18107  1  0  0  0
 19 20  1  0  0  0
 19 24  1  0  0  0
 20 21  2  0  0  0
 20108  1  0  0  0
 21 23  1  0  0  0
 22 28  1  0  0  0
 22 32  2  0  0  0
 26 27  1  0  0  0
 28109  1  0  0  0
 28110  1  0  0  0
 29111  1  0  0  0
 29112  1  0  0  0
 33 34  1  0  0  0
 33 66  1  0  0  0
 33 70  2  0  0  0
 34 36  1  0  0  0
 34 59  1  0  0  0
 34113  1  0  0  0
 35 44  2  0  0  0
 35 45  1  0  0  0
 35 68  1  0  0  0
 36 56  1  0  0  0
 36114  1  0  0  0
 37 39  1  0  0  0
 37 47  1  0  0  0
 37 66  1  0  0  0
 37115  1  0  0  0
 38 43  2  0  0  0
 38 46  1  0  0  0
 38 47  1  0  0  0
 39 64  1  0  0  0
 39 67  2  0  0  0
 40 52  1  0  0  0
 40 53  2  0  0  0
 40 58  1  0  0  0
 41116  1  0  0  0
 41117  1  0  0  0
 41118  1  0  0  0
 41 48  1  0  0  0
 42 43  1  0  0  0
 42 66  1  0  0  0
 42119  1  0  0  0
 42120  1  0  0  0
 43 44  1  0  0  0
 44121  1  0  0  0
 45 46  2  0  0  0
 45122  1  0  0  0
 46123  1  0  0  0
 47124  1  0  0  0
 47125  1  0  0  0
 48 56  1  0  0  0
 48 65  1  0  0  0
 48126  1  0  0  0
 49 50  1  0  0  0
 49 53  1  0  0  0
 49 64  1  0  0  0
 49127  1  0  0  0
 50 51  1  0  0  0
 50128  1  0  0  0
 50129  1  0  0  0
 51 52  1  0  0  0
 51130  1  0  0  0
 51131  1  0  0  0
 52132  1  0  0  0
 52133  1  0  0  0
 53 54  1  0  0  0
 54 55  2  0  0  0
 54134  1  0  0  0
 55 57  1  0  0  0
 55135  1  0  0  0
 56 69  2  0  0  0
 57 58  2  0  0  0
 57136  1  0  0  0
 58137  1  0  0  0
 59 60  1  0  0  0
 59 61  1  0  0  0
 59 62  1  0  0  0
 60138  1  0  0  0
 60139  1  0  0  0
 60140  1  0  0  0
 61141  1  0  0  0
 61142  1  0  0  0
 61143  1  0  0  0
 62144  1  0  0  0
 62145  1  0  0  0
 62146  1  0  0  0
 63 65  1  0  0  0
 63147  1  0  0  0
 63148  1  0  0  0
 63149  1  0  0  0
 64150  1  0  0  0
 65151  1  0  0  0
 68 87  1  0  0  0
 71 72  2  0  0  0
 71 75  1  0  0  0
 71152  1  0  0  0
 72 76  1  0  0  0
 72153  1  0  0  0
 73 74  1  0  0  0
 73 76  2  0  0  0
 73 79  1  0  0  0
 74 75  2  0  0  0
 74 86  1  0  0  0
 75 88  1  0  0  0
 76 89  1  0  0  0
 77 83  1  0  0  0
 77 88  1  0  0  0
 77 91  2  0  0  0
 78 80  2  0  0  0
 78154  1  0  0  0
 78155  1  0  0  0
 79 81  2  0  0  0
 79156  1  0  0  0
 80 81  1  0  0  0
 80157  1  0  0  0
 81158  1  0  0  0
 82 87  1  0  0  0
 82 90  1  0  0  0
 82 92  2  0  0  0
 83 85  1  0  0  0
 83159  1  0  0  0
 83160  1  0  0  0
 84 85  1  0  0  0
 84 88  1  0  0  0
 84161  1  0  0  0
 84162  1  0  0  0
 85 90  1  0  0  0
 85163  1  0  0  0
 86164  1  0  0  0
 86165  1  0  0  0
 86166  1  0  0  0
 87167  1  0  0  0
 87168  1  0  0  0
 89169  1  0  0  0
 90170  1  0  0  0
M  ISO  4   1 100  68 101  87 101  89 100
M  END
> <chiral flag>
0

> <version>
0

> <s_m_source_file>
/data/baiqing/PycharmProjects/Reinvent-master-3.2/result/LINK_invent/BTK/process_docking_weight1_custom_product_contain_oxygen_bond_distance_aromatic_linkinvent_7_9_3/rearranged_h_0063.sdf

> <i_m_source_file_index>
88

> <r_mmod_Potential_Energy-OPLS-2005>
-8.62013149261475

> <r_mmod_Stretch_Energy-OPLS-2005>
38.4699592590332

> <r_mmod_Bend_Energy-OPLS-2005>
120.227561950684

> <r_mmod_Torsional_Energy-OPLS-2005>
298.535095214844

> <r_mmod_Improper_Torsional_Energy-OPLS-2005>
2.93436980247498

> <r_mmod_Van_der_Waal_Energy-OPLS-2005>
160.974227905273

> <r_mmod_Electrostatic_Energy-OPLS-2005>
-392.609924316406

> <r_mmod_Solvation_Energy-OPLS-2005>
-246.636459350586

> <b_mmod_Minimization_Converged-OPLS-2005>
0

> <r_mmod_RMS_Derivative-OPLS-2005>
2.39537048339844

$$$$
89
                    3D
 Structure written by MMmdl.
156164  0  0  1  0            999 V2000
  -30.5803  -14.8559   20.4094 C   0  0  0  0  0  0
  -30.4335  -12.5180   19.5036 C   0  0  0  0  0  0
  -29.5228  -12.5207   18.2552 C   0  0  0  0  0  0
  -28.0516  -12.3299   18.6646 C   0  0  0  0  0  0
  -27.6386  -13.2440   19.8496 C   0  0  2  0  0  0
  -28.6791  -13.2341   20.9910 C   0  0  0  0  0  0
  -25.2504  -13.8227   20.5727 C   0  0  0  0  0  0
  -24.1801  -13.0458   20.9238 C   0  0  0  0  0  0
  -24.6413  -11.6932   20.8772 C   0  0  0  0  0  0
  -23.9090  -10.4307   21.0432 C   0  0  0  0  0  0
  -24.3632   -9.4213   21.9202 C   0  0  0  0  0  0
  -23.6300   -8.2254   22.0752 C   0  0  0  0  0  0
  -22.4275   -8.0312   21.3557 C   0  0  0  0  0  0
  -21.9923   -9.0296   20.4661 C   0  0  0  0  0  0
  -22.7262  -10.2172   20.3076 C   0  0  0  0  0  0
  -21.6871   -6.0754   22.5302 C   0  0  0  0  0  0
  -21.4016   -6.5651   23.8238 C   0  0  0  0  0  0
  -21.3647   -5.6796   24.9197 C   0  0  0  0  0  0
  -21.6032   -4.3059   24.7228 C   0  0  0  0  0  0
  -21.8811   -3.8154   23.4349 C   0  0  0  0  0  0
  -21.9190   -4.6974   22.3411 C   0  0  0  0  0  0
  -22.7816  -13.5245   21.1884 C   0  0  0  0  0  0
  -22.1657   -4.2159   21.0985 F   0  0  0  0  0  0
  -21.5615   -3.4541   25.7736 F   0  0  0  0  0  0
  -29.9734  -13.6076   20.4085 N   0  0  0  0  0  0
  -26.2927  -12.9448   20.3267 N   0  0  0  0  0  0
  -25.9350  -11.6576   20.5750 N   0  0  0  0  0  0
  -22.0441  -12.8261   22.0438 N   0  0  0  0  0  0
  -25.4184  -15.1964   20.4175 N   0  0  0  0  0  0
  -31.7667  -14.9186   20.0751 O   0  0  0  0  0  0
  -21.6637   -6.8914   21.4271 O   0  0  0  0  0  0
  -22.3519  -14.5542   20.6695 O   0  0  0  0  0  0
  -24.6377  -31.8498   23.1938 C   0  0  0  0  0  0
  -25.9171  -32.4723   23.8313 C   0  0  1  0  0  0
  -27.2193  -27.1980   20.1328 C   0  0  0  0  0  0
  -25.5942  -33.8530   24.2222 N   0  0  0  0  0  0
  -23.4402  -30.4701   21.5367 C   0  0  2  0  0  0
  -24.8900  -28.9119   20.1038 C   0  0  0  0  0  0
  -22.7553  -29.4564   22.4856 C   0  0  0  0  0  0
  -18.0309  -28.1389   22.8468 C   0  0  0  0  0  0
  -24.1490  -36.7275   23.2638 C   0  0  0  0  0  0
  -25.9918  -30.7411   21.3869 C   0  0  0  0  0  0
  -26.0645  -29.3609   20.7217 C   0  0  0  0  0  0
  -27.2298  -28.5154   20.7292 C   0  0  0  0  0  0
  -26.0158  -26.8351   19.4870 C   0  0  0  0  0  0
  -24.8742  -27.6591   19.4752 C   0  0  0  0  0  0
  -23.6647  -29.8061   20.1526 C   0  0  0  0  0  0
  -25.4118  -36.3044   24.0314 C   0  0  1  0  0  0
  -20.5915  -28.3717   23.1237 C   0  0  2  0  0  0
  -20.6787  -26.9414   22.5410 C   0  0  0  0  0  0
  -19.5767  -26.6367   21.5213 C   0  0  0  0  0  0
  -18.1947  -26.7929   22.1616 C   0  0  0  0  0  0
  -19.1560  -28.8875   23.2844 C   0  0  0  0  0  0
  -18.9478  -30.1467   23.8876 C   0  0  0  0  0  0
  -17.6474  -30.6581   24.0556 C   0  0  0  0  0  0
  -25.9068  -34.9420   23.5066 C   0  0  0  0  0  0
  -16.5369  -29.9074   23.6323 C   0  0  0  0  0  0
  -16.7289  -28.6491   23.0345 C   0  0  0  0  0  0
  -26.4505  -31.6587   25.0750 C   0  0  0  0  0  0
  -25.3694  -31.3799   26.1457 C   0  0  0  0  0  0
  -27.0367  -30.2984   24.6317 C   0  0  0  0  0  0
  -27.6043  -32.4351   25.7528 C   0  0  0  0  0  0
  -27.5574  -37.1786   24.8448 C   0  0  0  0  0  0
  -21.4247  -29.3047   22.3620 N   0  0  0  0  0  0
  -26.4281  -37.3750   23.9397 N   0  0  0  0  0  0
  -24.7090  -31.0400   22.0944 N   0  0  0  0  0  0
  -23.4225  -28.8099   23.2975 O   0  0  0  0  0  0
  -28.2494  -26.2132   20.2581 O   0  0  0  0  0  0
  -26.5636  -34.8889   22.4635 O   0  0  0  0  0  0
  -23.5516  -32.1346   23.7196 O   0  0  0  0  0  0
  -29.9016  -18.2276   17.5560 C   0  0  0  0  0  0
  -30.0541  -17.1756   18.4675 C   0  0  0  0  0  0
  -29.4808  -18.7307   20.2697 C   0  0  0  0  0  0
  -29.5524  -19.5309   17.9534 C   0  0  0  0  0  0
  -29.8187  -17.3387   19.8467 C   0  0  0  0  0  0
  -29.3723  -19.8770   19.3297 C   0  0  0  0  0  0
  -28.5608  -23.7181   19.3147 C   0  0  0  0  0  0
  -28.3431  -25.1139   19.3434 C   0  0  0  0  0  0
  -28.7787  -22.4859   20.1953 C   0  0  0  0  0  0
  -29.7515  -22.6204   15.8290 C   0  0  0  0  0  0
  -29.2857  -20.5228   16.8089 C   0  0  0  0  0  0
  -29.1083  -21.3704   19.4205 N   0  0  0  0  0  0
  -29.8395  -16.0400   20.6308 N   0  0  0  0  0  0
  -28.6577  -22.4421   21.4217 O   0  0  0  0  0  0
  -30.0268  -21.7341   16.9084 O   0  0  0  0  0  0
  -31.4742  -12.6406   19.2010 H   0  0  0  0  0  0
  -30.3885  -11.5526   20.0099 H   0  0  0  0  0  0
  -29.8193  -11.7321   17.5637 H   0  0  0  0  0  0
  -29.6407  -13.4593   17.7106 H   0  0  0  0  0  0
  -27.9271  -11.2826   18.9453 H   0  0  0  0  0  0
  -27.3957  -12.4946   17.8098 H   0  0  0  0  0  0
  -27.6142  -14.2551   19.4425 H   0  0  0  0  0  0
  -28.7349  -12.2511   21.4612 H   0  0  0  0  0  0
  -28.3940  -13.9359   21.7774 H   0  0  0  0  0  0
  -25.2793   -9.5648   22.4768 H   0  0  0  0  0  0
  -24.0007   -7.4618   22.7440 H   0  0  0  0  0  0
  -21.0859   -8.8831   19.8959 H   0  0  0  0  0  0
  -22.3750  -10.9712   19.6171 H   0  0  0  0  0  0
  -21.2019   -7.6157   23.9742 H   0  0  0  0  0  0
  -21.1469   -6.0531   25.9104 H   0  0  0  0  0  0
  -22.0589   -2.7612   23.2856 H   0  0  0  0  0  0
  -22.4058  -11.9982   22.4920 H   0  0  0  0  0  0
  -21.1033  -13.1282   22.2557 H   0  0  0  0  0  0
  -24.6484  -15.8477   20.5326 H   0  0  0  0  0  0
  -26.2619  -15.6396   20.0762 H   0  0  0  0  0  0
  -26.7239  -32.5331   23.1055 H   0  0  0  0  0  0
  -25.0081  -33.9649   25.0359 H   0  0  0  0  0  0
  -22.7380  -31.2929   21.3887 H   0  0  0  0  0  0
  -23.3751  -35.9610   23.3294 H   0  0  0  0  0  0
  -24.3578  -36.8919   22.2053 H   0  0  0  0  0  0
  -23.7248  -37.6467   23.6687 H   0  0  0  0  0  0
  -26.1441  -31.5030   20.6216 H   0  0  0  0  0  0
  -26.8619  -30.7854   22.0299 H   0  0  0  0  0  0
  -28.1195  -28.8440   21.2467 H   0  0  0  0  0  0
  -25.9164  -25.8623   19.0264 H   0  0  0  0  0  0
  -23.9710  -27.3069   18.9949 H   0  0  0  0  0  0
  -23.7976  -30.5855   19.4013 H   0  0  0  0  0  0
  -22.7817  -29.2460   19.8394 H   0  0  0  0  0  0
  -25.1304  -36.1888   25.0810 H   0  0  0  0  0  0
  -20.9994  -28.3303   24.1360 H   0  0  0  0  0  0
  -20.5679  -26.2315   23.3623 H   0  0  0  0  0  0
  -21.6652  -26.7405   22.1215 H   0  0  0  0  0  0
  -19.6921  -25.6272   21.1254 H   0  0  0  0  0  0
  -19.6713  -27.3159   20.6731 H   0  0  0  0  0  0
  -17.4210  -26.6675   21.4022 H   0  0  0  0  0  0
  -18.0343  -26.0081   22.9019 H   0  0  0  0  0  0
  -19.7958  -30.7286   24.2238 H   0  0  0  0  0  0
  -17.5027  -31.6258   24.5168 H   0  0  0  0  0  0
  -15.5369  -30.2968   23.7659 H   0  0  0  0  0  0
  -15.8694  -28.0803   22.7069 H   0  0  0  0  0  0
  -24.5854  -30.7169   25.7781 H   0  0  0  0  0  0
  -24.8918  -32.3006   26.4822 H   0  0  0  0  0  0
  -25.7981  -30.9004   27.0264 H   0  0  0  0  0  0
  -26.2990  -29.6722   24.1290 H   0  0  0  0  0  0
  -27.3942  -29.7274   25.4892 H   0  0  0  0  0  0
  -27.8909  -30.4232   23.9662 H   0  0  0  0  0  0
  -27.2635  -33.3651   26.2092 H   0  0  0  0  0  0
  -28.3868  -32.6918   25.0375 H   0  0  0  0  0  0
  -28.0700  -31.8496   26.5462 H   0  0  0  0  0  0
  -28.2574  -38.0095   24.7488 H   0  0  0  0  0  0
  -28.1084  -36.2622   24.6283 H   0  0  0  0  0  0
  -27.2289  -37.1441   25.8846 H   0  0  0  0  0  0
  -20.9451  -29.8775   21.6814 H   0  0  0  0  0  0
  -26.0160  -38.2818   24.1408 H   0  0  0  0  0  0
  -30.0306  -18.0042   16.5051 H   0  0  0  0  0  0
  -30.2989  -16.2062   18.0557 H   0  0  0  0  0  0
  -29.3017  -18.9199   21.3180 H   0  0  0  0  0  0
  -28.5499  -23.4235   18.2753 H   0  0  0  0  0  0
  -28.2252  -25.5473   18.3596 H   0  0  0  0  0  0
  -30.3666  -23.5172   15.9145 H   0  0  0  0  0  0
  -28.7048  -22.9325   15.8242 H   0  0  0  0  0  0
  -29.9776  -22.1547   14.8684 H   0  0  0  0  0  0
  -28.2158  -20.7426   16.7911 H   0  0  0  0  0  0
  -29.5174  -20.0564   15.8503 H   0  0  0  0  0  0
  -29.2497  -21.7386   18.4844 H   0  0  0  0  0  0
  -29.0188  -15.8962   21.2002 H   0  0  0  0  0  0
  1 25  1  0  0  0
  1 30  2  0  0  0
  1 83  1  0  0  0
  2  3  1  0  0  0
  2 25  1  0  0  0
  2 86  1  0  0  0
  2 87  1  0  0  0
  3  4  1  0  0  0
  3 88  1  0  0  0
  3 89  1  0  0  0
  4  5  1  0  0  0
  4 90  1  0  0  0
  4 91  1  0  0  0
  5  6  1  0  0  0
  5 26  1  0  0  0
  5 92  1  0  0  0
  6 25  1  0  0  0
  6 93  1  0  0  0
  6 94  1  0  0  0
  7  8  2  0  0  0
  7 26  1  0  0  0
  7 29  1  0  0  0
  8  9  1  0  0  0
  8 22  1  0  0  0
  9 10  1  0  0  0
  9 27  2  0  0  0
 10 11  2  0  0  0
 10 15  1  0  0  0
 11 12  1  0  0  0
 11 95  1  0  0  0
 12 13  2  0  0  0
 12 96  1  0  0  0
 13 14  1  0  0  0
 13 31  1  0  0  0
 14 15  2  0  0  0
 14 97  1  0  0  0
 15 98  1  0  0  0
 16 17  2  0  0  0
 16 21  1  0  0  0
 16 31  1  0  0  0
 17 18  1  0  0  0
 17 99  1  0  0  0
 18 19  2  0  0  0
 18100  1  0  0  0
 19 20  1  0  0  0
 19 24  1  0  0  0
 20 21  2  0  0  0
 20101  1  0  0  0
 21 23  1  0  0  0
 22 28  1  0  0  0
 22 32  2  0  0  0
 26 27  1  0  0  0
 28102  1  0  0  0
 28103  1  0  0  0
 29104  1  0  0  0
 29105  1  0  0  0
 33 34  1  0  0  0
 33 66  1  0  0  0
 33 70  2  0  0  0
 34 36  1  0  0  0
 34 59  1  0  0  0
 34106  1  0  0  0
 35 44  2  0  0  0
 35 45  1  0  0  0
 35 68  1  0  0  0
 36 56  1  0  0  0
 36107  1  0  0  0
 37 39  1  0  0  0
 37 47  1  0  0  0
 37 66  1  0  0  0
 37108  1  0  0  0
 38 43  2  0  0  0
 38 46  1  0  0  0
 38 47  1  0  0  0
 39 64  1  0  0  0
 39 67  2  0  0  0
 40 52  1  0  0  0
 40 53  2  0  0  0
 40 58  1  0  0  0
 41109  1  0  0  0
 41110  1  0  0  0
 41111  1  0  0  0
 41 48  1  0  0  0
 42 43  1  0  0  0
 42 66  1  0  0  0
 42112  1  0  0  0
 42113  1  0  0  0
 43 44  1  0  0  0
 44114  1  0  0  0
 45 46  2  0  0  0
 45115  1  0  0  0
 46116  1  0  0  0
 47117  1  0  0  0
 47118  1  0  0  0
 48 56  1  0  0  0
 48 65  1  0  0  0
 48119  1  0  0  0
 49 50  1  0  0  0
 49 53  1  0  0  0
 49 64  1  0  0  0
 49120  1  0  0  0
 50 51  1  0  0  0
 50121  1  0  0  0
 50122  1  0  0  0
 51 52  1  0  0  0
 51123  1  0  0  0
 51124  1  0  0  0
 52125  1  0  0  0
 52126  1  0  0  0
 53 54  1  0  0  0
 54 55  2  0  0  0
 54127  1  0  0  0
 55 57  1  0  0  0
 55128  1  0  0  0
 56 69  2  0  0  0
 57 58  2  0  0  0
 57129  1  0  0  0
 58130  1  0  0  0
 59 60  1  0  0  0
 59 61  1  0  0  0
 59 62  1  0  0  0
 60131  1  0  0  0
 60132  1  0  0  0
 60133  1  0  0  0
 61134  1  0  0  0
 61135  1  0  0  0
 61136  1  0  0  0
 62137  1  0  0  0
 62138  1  0  0  0
 62139  1  0  0  0
 63 65  1  0  0  0
 63140  1  0  0  0
 63141  1  0  0  0
 63142  1  0  0  0
 64143  1  0  0  0
 65144  1  0  0  0
 68 78  1  0  0  0
 71 72  2  0  0  0
 71 74  1  0  0  0
 71145  1  0  0  0
 72 75  1  0  0  0
 72146  1  0  0  0
 73 75  2  0  0  0
 73 76  1  0  0  0
 73147  1  0  0  0
 74 76  2  0  0  0
 74 81  1  0  0  0
 75 83  1  0  0  0
 76 82  1  0  0  0
 77 78  2  0  0  0
 77 79  1  0  0  0
 77148  1  0  0  0
 78149  1  0  0  0
 79 82  1  0  0  0
 79 84  2  0  0  0
 80 85  1  0  0  0
 80150  1  0  0  0
 80151  1  0  0  0
 80152  1  0  0  0
 81 85  1  0  0  0
 81153  1  0  0  0
 81154  1  0  0  0
 82155  1  0  0  0
 83156  1  0  0  0
M  ISO  4   1 100  68 101  78 101  83 100
M  END
> <chiral flag>
0

> <version>
0

> <s_m_source_file>
/data/baiqing/PycharmProjects/Reinvent-master-3.2/result/LINK_invent/BTK/process_docking_weight1_custom_product_contain_oxygen_bond_distance_aromatic_linkinvent_7_9_3/rearranged_h_0063.sdf

> <i_m_source_file_index>
89

> <r_mmod_Potential_Energy-OPLS-2005>
502.557708740234

> <r_mmod_Stretch_Energy-OPLS-2005>
183.4658203125

> <r_mmod_Bend_Energy-OPLS-2005>
377.609741210938

> <r_mmod_Torsional_Energy-OPLS-2005>
261.856536865234

> <r_mmod_Improper_Torsional_Energy-OPLS-2005>
5.67687749862671

> <r_mmod_Van_der_Waal_Energy-OPLS-2005>
145.46923828125

> <r_mmod_Electrostatic_Energy-OPLS-2005>
-372.424743652344

> <r_mmod_Solvation_Energy-OPLS-2005>
-243.055725097656

> <b_mmod_Minimization_Converged-OPLS-2005>
0

> <r_mmod_RMS_Derivative-OPLS-2005>
2.65528678894043

$$$$
90
                    3D
 Structure written by MMmdl.
167176  0  0  1  0            999 V2000
  -30.6138  -14.7590   20.4407 C   0  0  0  0  0  0
  -30.4132  -12.4683   19.4772 C   0  0  0  0  0  0
  -29.4928  -12.4877   18.2387 C   0  0  0  0  0  0
  -28.0262  -12.3004   18.6627 C   0  0  0  0  0  0
  -27.6240  -13.2300   19.8366 C   0  0  2  0  0  0
  -28.6615  -13.2066   20.9767 C   0  0  0  0  0  0
  -25.2426  -13.8206   20.5669 C   0  0  0  0  0  0
  -24.1723  -13.0437   20.9215 C   0  0  0  0  0  0
  -24.6320  -11.6923   20.8765 C   0  0  0  0  0  0
  -23.9009  -10.4292   21.0418 C   0  0  0  0  0  0
  -24.3576   -9.4221   21.9195 C   0  0  0  0  0  0
  -23.6272   -8.2243   22.0762 C   0  0  0  0  0  0
  -22.4267   -8.0264   21.3540 C   0  0  0  0  0  0
  -21.9881   -9.0225   20.4635 C   0  0  0  0  0  0
  -22.7195  -10.2121   20.3053 C   0  0  0  0  0  0
  -21.6845   -6.0717   22.5271 C   0  0  0  0  0  0
  -21.4011   -6.5632   23.8200 C   0  0  0  0  0  0
  -21.3662   -5.6796   24.9170 C   0  0  0  0  0  0
  -21.6043   -4.3047   24.7230 C   0  0  0  0  0  0
  -21.8823   -3.8138   23.4344 C   0  0  0  0  0  0
  -21.9198   -4.6947   22.3403 C   0  0  0  0  0  0
  -22.7760  -13.5231   21.1899 C   0  0  0  0  0  0
  -22.1666   -4.2127   21.0973 F   0  0  0  0  0  0
  -21.5633   -3.4537   25.7744 F   0  0  0  0  0  0
  -29.9605  -13.5484   20.3876 N   0  0  0  0  0  0
  -26.2809  -12.9396   20.3221 N   0  0  0  0  0  0
  -25.9232  -11.6544   20.5723 N   0  0  0  0  0  0
  -22.0417  -12.8195   22.0453 N   0  0  0  0  0  0
  -25.4118  -15.1920   20.4084 N   0  0  0  0  0  0
  -31.8204  -14.7680   20.1941 O   0  0  0  0  0  0
  -21.6643   -6.8856   21.4230 O   0  0  0  0  0  0
  -22.3436  -14.5537   20.6766 O   0  0  0  0  0  0
  -24.6282  -31.8569   23.1996 C   0  0  0  0  0  0
  -25.9113  -32.4747   23.8383 C   0  0  1  0  0  0
  -27.2144  -27.2464   20.1251 C   0  0  0  0  0  0
  -25.5922  -33.8563   24.2279 N   0  0  0  0  0  0
  -23.4300  -30.4749   21.5392 C   0  0  2  0  0  0
  -24.8754  -28.9090   20.1154 C   0  0  0  0  0  0
  -22.7509  -29.4622   22.4924 C   0  0  0  0  0  0
  -18.0300  -28.1436   22.8436 C   0  0  0  0  0  0
  -24.1500  -36.7242   23.2652 C   0  0  0  0  0  0
  -25.9790  -30.7481   21.4009 C   0  0  0  0  0  0
  -26.0447  -29.3755   20.7277 C   0  0  0  0  0  0
  -27.2133  -28.5517   20.7239 C   0  0  0  0  0  0
  -26.0170  -26.8334   19.5043 C   0  0  0  0  0  0
  -24.8610  -27.6439   19.5037 C   0  0  0  0  0  0
  -23.6529  -29.8026   20.1587 C   0  0  0  0  0  0
  -25.4139  -36.3060   24.0326 C   0  0  1  0  0  0
  -20.5898  -28.3751   23.1234 C   0  0  2  0  0  0
  -20.6827  -26.9477   22.5379 C   0  0  0  0  0  0
  -19.5815  -26.6423   21.5186 C   0  0  0  0  0  0
  -18.1969  -26.7976   22.1572 C   0  0  0  0  0  0
  -19.1555  -28.8914   23.2815 C   0  0  0  0  0  0
  -18.9494  -30.1504   23.8860 C   0  0  0  0  0  0
  -17.6503  -30.6632   24.0570 C   0  0  0  0  0  0
  -25.9081  -34.9424   23.5116 C   0  0  0  0  0  0
  -16.5380  -29.9132   23.6361 C   0  0  0  0  0  0
  -16.7288  -28.6551   23.0363 C   0  0  0  0  0  0
  -26.4488  -31.6610   25.0806 C   0  0  0  0  0  0
  -25.3693  -31.3699   26.1496 C   0  0  0  0  0  0
  -27.0424  -30.3034   24.6403 C   0  0  0  0  0  0
  -27.6030  -32.4417   25.7555 C   0  0  0  0  0  0
  -27.5588  -37.1765   24.8475 C   0  0  0  0  0  0
  -21.4233  -29.3065   22.3618 N   0  0  0  0  0  0
  -26.4321  -37.3749   23.9396 N   0  0  0  0  0  0
  -24.6954  -31.0504   22.0985 N   0  0  0  0  0  0
  -23.4191  -28.8223   23.3091 O   0  0  0  0  0  0
  -28.3314  -26.3890   20.2168 O   0  0  0  0  0  0
  -26.5666  -34.8868   22.4690 O   0  0  0  0  0  0
  -23.5424  -32.1466   23.7241 O   0  0  0  0  0  0
  -29.3976  -18.5597   20.5100 C   0  0  0  0  0  0
  -31.5433  -17.6760   19.8201 C   0  0  0  0  0  0
  -31.1793  -20.1066   19.8444 C   0  0  0  0  0  0
  -29.8248  -19.9426   20.2614 C   0  0  0  0  0  0
  -30.2513  -17.3804   20.3150 C   0  0  0  0  0  0
  -31.9934  -18.9839   19.5977 C   0  0  0  0  0  0
  -28.9298  -21.7638   21.7038 C   0  0  0  0  0  0
  -28.6964  -22.2634   19.4875 C   0  0  0  0  0  0
  -28.7094  -23.3060   21.6388 C   0  0  1  0  0  0
  -28.1750  -23.5882   20.2220 C   0  0  1  0  0  0
  -31.8562  -21.4669   19.7120 C   0  0  0  0  0  0
  -26.4854  -23.3089   23.0060 C   0  0  0  0  0  0
  -28.6636  -24.0529   24.1003 C   0  0  0  0  0  0
  -28.4656  -25.0487   19.5575 C   0  0  0  0  0  0
  -27.8717  -23.9517   22.7814 C   0  0  0  0  0  0
  -29.0138  -21.1796   20.4911 N   0  0  0  0  0  0
  -29.8738  -15.9446   20.5670 N   0  0  0  0  0  0
  -29.0187  -21.1524   22.7722 O   0  0  0  0  0  0
  -33.2619  -19.1592   19.1511 F   0  0  0  0  0  0
  -31.4510  -12.5911   19.1623 H   0  0  0  0  0  0
  -30.3653  -11.5030   19.9831 H   0  0  0  0  0  0
  -29.7802  -11.6994   17.5419 H   0  0  0  0  0  0
  -29.5993  -13.4307   17.7004 H   0  0  0  0  0  0
  -27.9113  -11.2583   18.9674 H   0  0  0  0  0  0
  -27.3575  -12.4414   17.8126 H   0  0  0  0  0  0
  -27.6076  -14.2388   19.4239 H   0  0  0  0  0  0
  -28.6941  -12.2256   21.4541 H   0  0  0  0  0  0
  -28.3852  -13.9190   21.7558 H   0  0  0  0  0  0
  -25.2697   -9.5727   22.4786 H   0  0  0  0  0  0
  -23.9982   -7.4646   22.7492 H   0  0  0  0  0  0
  -21.0818   -8.8721   19.8932 H   0  0  0  0  0  0
  -22.3626  -10.9652   19.6166 H   0  0  0  0  0  0
  -21.1999   -7.6140   23.9695 H   0  0  0  0  0  0
  -21.1480   -6.0526   25.9072 H   0  0  0  0  0  0
  -22.0601   -2.7591   23.2858 H   0  0  0  0  0  0
  -22.4034  -11.9839   22.4805 H   0  0  0  0  0  0
  -21.1032  -13.1203   22.2699 H   0  0  0  0  0  0
  -24.6392  -15.8427   20.4986 H   0  0  0  0  0  0
  -26.2562  -15.6268   20.0588 H   0  0  0  0  0  0
  -26.7165  -32.5339   23.1114 H   0  0  0  0  0  0
  -24.9999  -33.9755   25.0370 H   0  0  0  0  0  0
  -22.7252  -31.2944   21.3854 H   0  0  0  0  0  0
  -23.3801  -35.9535   23.3337 H   0  0  0  0  0  0
  -24.3578  -36.8857   22.2062 H   0  0  0  0  0  0
  -23.7198  -37.6410   23.6692 H   0  0  0  0  0  0
  -26.1574  -31.5215   20.6540 H   0  0  0  0  0  0
  -26.8397  -30.7677   22.0574 H   0  0  0  0  0  0
  -28.1082  -28.8853   21.2313 H   0  0  0  0  0  0
  -25.9355  -25.8524   19.0585 H   0  0  0  0  0  0
  -23.9510  -27.2716   19.0529 H   0  0  0  0  0  0
  -23.7893  -30.5779   19.4040 H   0  0  0  0  0  0
  -22.7707  -29.2413   19.8460 H   0  0  0  0  0  0
  -25.1313  -36.1937   25.0818 H   0  0  0  0  0  0
  -20.9917  -28.3371   24.1394 H   0  0  0  0  0  0
  -20.5813  -26.2364   23.3597 H   0  0  0  0  0  0
  -21.6692  -26.7595   22.1133 H   0  0  0  0  0  0
  -19.7034  -25.6329   21.1261 H   0  0  0  0  0  0
  -19.6798  -27.3202   20.6693 H   0  0  0  0  0  0
  -17.4255  -26.6694   21.3968 H   0  0  0  0  0  0
  -18.0381  -26.0142   22.8994 H   0  0  0  0  0  0
  -19.7988  -30.7283   24.2244 H   0  0  0  0  0  0
  -17.5098  -31.6310   24.5190 H   0  0  0  0  0  0
  -15.5396  -30.3042   23.7780 H   0  0  0  0  0  0
  -15.8659  -28.0883   22.7136 H   0  0  0  0  0  0
  -24.5948  -30.6988   25.7775 H   0  0  0  0  0  0
  -24.8781  -32.2808   26.4923 H   0  0  0  0  0  0
  -25.8007  -30.8883   27.0285 H   0  0  0  0  0  0
  -26.3082  -29.6708   24.1402 H   0  0  0  0  0  0
  -27.4034  -29.7379   25.5007 H   0  0  0  0  0  0
  -27.8982  -30.4329   23.9773 H   0  0  0  0  0  0
  -27.2648  -33.3743   26.2101 H   0  0  0  0  0  0
  -28.3818  -32.6962   25.0351 H   0  0  0  0  0  0
  -28.0752  -31.8594   26.5482 H   0  0  0  0  0  0
  -28.2574  -38.0089   24.7538 H   0  0  0  0  0  0
  -28.1110  -36.2601   24.6320 H   0  0  0  0  0  0
  -27.2283  -37.1405   25.8871 H   0  0  0  0  0  0
  -20.9532  -29.8638   21.6628 H   0  0  0  0  0  0
  -26.0213  -38.2823   24.1419 H   0  0  0  0  0  0
  -28.3905  -18.4098   20.8729 H   0  0  0  0  0  0
  -32.2686  -16.9137   19.6027 H   0  0  0  0  0  0
  -29.5546  -22.4840   18.8555 H   0  0  0  0  0  0
  -27.9205  -21.8876   18.8196 H   0  0  0  0  0  0
  -29.7142  -23.7277   21.6778 H   0  0  0  0  0  0
  -27.0902  -23.4974   20.2519 H   0  0  0  0  0  0
  -31.8285  -21.8227   18.6818 H   0  0  0  0  0  0
  -32.9053  -21.3896   19.9992 H   0  0  0  0  0  0
  -31.4303  -22.2288   20.3608 H   0  0  0  0  0  0
  -25.8896  -23.2860   22.0933 H   0  0  0  0  0  0
  -25.9057  -23.8690   23.7419 H   0  0  0  0  0  0
  -26.5581  -22.2830   23.3663 H   0  0  0  0  0  0
  -29.6157  -24.5629   23.9440 H   0  0  0  0  0  0
  -28.8867  -23.0731   24.5239 H   0  0  0  0  0  0
  -28.1153  -24.6158   24.8579 H   0  0  0  0  0  0
  -27.9560  -25.0900   18.5953 H   0  0  0  0  0  0
  -29.5202  -25.0303   19.2863 H   0  0  0  0  0  0
  -27.6823  -24.9811   22.4737 H   0  0  0  0  0  0
  -28.9050  -15.7933   20.8054 H   0  0  0  0  0  0
  1 25  1  0  0  0
  1 30  2  0  0  0
  1 87  1  0  0  0
  2  3  1  0  0  0
  2 25  1  0  0  0
  2 90  1  0  0  0
  2 91  1  0  0  0
  3  4  1  0  0  0
  3 92  1  0  0  0
  3 93  1  0  0  0
  4  5  1  0  0  0
  4 94  1  0  0  0
  4 95  1  0  0  0
  5  6  1  0  0  0
  5 26  1  0  0  0
  5 96  1  0  0  0
  6 25  1  0  0  0
  6 97  1  0  0  0
  6 98  1  0  0  0
  7  8  2  0  0  0
  7 26  1  0  0  0
  7 29  1  0  0  0
  8  9  1  0  0  0
  8 22  1  0  0  0
  9 10  1  0  0  0
  9 27  2  0  0  0
 10 11  2  0  0  0
 10 15  1  0  0  0
 11 12  1  0  0  0
 11 99  1  0  0  0
 12 13  2  0  0  0
 12100  1  0  0  0
 13 14  1  0  0  0
 13 31  1  0  0  0
 14 15  2  0  0  0
 14101  1  0  0  0
 15102  1  0  0  0
 16 17  2  0  0  0
 16 21  1  0  0  0
 16 31  1  0  0  0
 17 18  1  0  0  0
 17103  1  0  0  0
 18 19  2  0  0  0
 18104  1  0  0  0
 19 20  1  0  0  0
 19 24  1  0  0  0
 20 21  2  0  0  0
 20105  1  0  0  0
 21 23  1  0  0  0
 22 28  1  0  0  0
 22 32  2  0  0  0
 26 27  1  0  0  0
 28106  1  0  0  0
 28107  1  0  0  0
 29108  1  0  0  0
 29109  1  0  0  0
 33 34  1  0  0  0
 33 66  1  0  0  0
 33 70  2  0  0  0
 34 36  1  0  0  0
 34 59  1  0  0  0
 34110  1  0  0  0
 35 44  2  0  0  0
 35 45  1  0  0  0
 35 68  1  0  0  0
 36 56  1  0  0  0
 36111  1  0  0  0
 37 39  1  0  0  0
 37 47  1  0  0  0
 37 66  1  0  0  0
 37112  1  0  0  0
 38 43  2  0  0  0
 38 46  1  0  0  0
 38 47  1  0  0  0
 39 64  1  0  0  0
 39 67  2  0  0  0
 40 52  1  0  0  0
 40 53  2  0  0  0
 40 58  1  0  0  0
 41113  1  0  0  0
 41114  1  0  0  0
 41115  1  0  0  0
 41 48  1  0  0  0
 42 43  1  0  0  0
 42 66  1  0  0  0
 42116  1  0  0  0
 42117  1  0  0  0
 43 44  1  0  0  0
 44118  1  0  0  0
 45 46  2  0  0  0
 45119  1  0  0  0
 46120  1  0  0  0
 47121  1  0  0  0
 47122  1  0  0  0
 48 56  1  0  0  0
 48 65  1  0  0  0
 48123  1  0  0  0
 49 50  1  0  0  0
 49 53  1  0  0  0
 49 64  1  0  0  0
 49124  1  0  0  0
 50 51  1  0  0  0
 50125  1  0  0  0
 50126  1  0  0  0
 51 52  1  0  0  0
 51127  1  0  0  0
 51128  1  0  0  0
 52129  1  0  0  0
 52130  1  0  0  0
 53 54  1  0  0  0
 54 55  2  0  0  0
 54131  1  0  0  0
 55 57  1  0  0  0
 55132  1  0  0  0
 56 69  2  0  0  0
 57 58  2  0  0  0
 57133  1  0  0  0
 58134  1  0  0  0
 59 60  1  0  0  0
 59 61  1  0  0  0
 59 62  1  0  0  0
 60135  1  0  0  0
 60136  1  0  0  0
 60137  1  0  0  0
 61138  1  0  0  0
 61139  1  0  0  0
 61140  1  0  0  0
 62141  1  0  0  0
 62142  1  0  0  0
 62143  1  0  0  0
 63 65  1  0  0  0
 63144  1  0  0  0
 63145  1  0  0  0
 63146  1  0  0  0
 64147  1  0  0  0
 65148  1  0  0  0
 68 84  1  0  0  0
 71 74  2  0  0  0
 71 75  1  0  0  0
 71149  1  0  0  0
 72 75  2  0  0  0
 72 76  1  0  0  0
 72150  1  0  0  0
 73 74  1  0  0  0
 73 76  2  0  0  0
 73 81  1  0  0  0
 74 86  1  0  0  0
 75 87  1  0  0  0
 76 89  1  0  0  0
 77 86  1  0  0  0
 77 88  2  0  0  0
 77 79  1  0  0  0
 78 80  1  0  0  0
 78 86  1  0  0  0
 78151  1  0  0  0
 78152  1  0  0  0
 79 80  1  0  0  0
 79 85  1  0  0  0
 79153  1  0  0  0
 80 84  1  0  0  0
 80154  1  0  0  0
 81155  1  0  0  0
 81156  1  0  0  0
 81157  1  0  0  0
 82158  1  0  0  0
 82159  1  0  0  0
 82160  1  0  0  0
 82 85  1  0  0  0
 83 85  1  0  0  0
 83161  1  0  0  0
 83162  1  0  0  0
 83163  1  0  0  0
 84164  1  0  0  0
 84165  1  0  0  0
 85166  1  0  0  0
 87167  1  0  0  0
M  ISO  4   1 100  68 101  84 101  87 100
M  END
> <chiral flag>
0

> <version>
0

> <s_m_source_file>
/data/baiqing/PycharmProjects/Reinvent-master-3.2/result/LINK_invent/BTK/process_docking_weight1_custom_product_contain_oxygen_bond_distance_aromatic_linkinvent_7_9_3/rearranged_h_0063.sdf

> <i_m_source_file_index>
90

> <r_mmod_Potential_Energy-OPLS-2005>
373.440765380859

> <r_mmod_Stretch_Energy-OPLS-2005>
138.013214111328

> <r_mmod_Bend_Energy-OPLS-2005>
224.787734985352

> <r_mmod_Torsional_Energy-OPLS-2005>
291.245666503906

> <r_mmod_Improper_Torsional_Energy-OPLS-2005>
6.2407112121582

> <r_mmod_Van_der_Waal_Energy-OPLS-2005>
139.732727050781

> <r_mmod_Electrostatic_Energy-OPLS-2005>
-309.992858886719

> <r_mmod_Solvation_Energy-OPLS-2005>
-213.212692260742

> <b_mmod_Minimization_Converged-OPLS-2005>
0

> <r_mmod_RMS_Derivative-OPLS-2005>
3.74703550338745

$$$$
91
                    3D
 Structure written by MMmdl.
160168  0  0  1  0            999 V2000
  -30.6988  -14.4430   20.5333 C   0  0  0  0  0  0
  -30.4153  -12.2750   19.4264 C   0  0  0  0  0  0
  -29.4932  -12.4945   18.2089 C   0  0  0  0  0  0
  -28.0126  -12.3662   18.6180 C   0  0  0  0  0  0
  -27.6616  -13.2047   19.8765 C   0  0  2  0  0  0
  -28.7006  -12.9821   20.9996 C   0  0  0  0  0  0
  -25.2592  -13.8168   20.5686 C   0  0  0  0  0  0
  -24.1839  -13.0446   20.9179 C   0  0  0  0  0  0
  -24.6385  -11.6910   20.8736 C   0  0  0  0  0  0
  -23.9053  -10.4297   21.0408 C   0  0  0  0  0  0
  -24.3607   -9.4214   21.9186 C   0  0  0  0  0  0
  -23.6288   -8.2246   22.0756 C   0  0  0  0  0  0
  -22.4272   -8.0282   21.3544 C   0  0  0  0  0  0
  -21.9906   -9.0254   20.4644 C   0  0  0  0  0  0
  -22.7228  -10.2138   20.3055 C   0  0  0  0  0  0
  -21.6852   -6.0738   22.5278 C   0  0  0  0  0  0
  -21.4013   -6.5640   23.8212 C   0  0  0  0  0  0
  -21.3660   -5.6792   24.9173 C   0  0  0  0  0  0
  -21.6045   -4.3055   24.7223 C   0  0  0  0  0  0
  -21.8819   -3.8148   23.4342 C   0  0  0  0  0  0
  -21.9193   -4.6966   22.3399 C   0  0  0  0  0  0
  -22.7864  -13.5249   21.1845 C   0  0  0  0  0  0
  -22.1662   -4.2151   21.0977 F   0  0  0  0  0  0
  -21.5630   -3.4538   25.7737 F   0  0  0  0  0  0
  -30.0368  -13.2610   20.4485 N   0  0  0  0  0  0
  -26.3021  -12.9329   20.3368 N   0  0  0  0  0  0
  -25.9310  -11.6491   20.5767 N   0  0  0  0  0  0
  -22.0500  -12.8239   22.0396 N   0  0  0  0  0  0
  -25.4335  -15.1884   20.4106 N   0  0  0  0  0  0
  -31.8572  -14.5933   20.1331 O   0  0  0  0  0  0
  -21.6637   -6.8880   21.4241 O   0  0  0  0  0  0
  -22.3554  -14.5559   20.6698 O   0  0  0  0  0  0
  -24.6099  -31.8703   23.2132 C   0  0  0  0  0  0
  -25.9006  -32.4834   23.8419 C   0  0  1  0  0  0
  -27.2414  -27.4686   20.1039 C   0  0  0  0  0  0
  -25.5880  -33.8633   24.2349 N   0  0  0  0  0  0
  -23.3967  -30.4920   21.5518 C   0  0  2  0  0  0
  -24.8465  -28.9587   20.1188 C   0  0  0  0  0  0
  -22.7385  -29.4660   22.5010 C   0  0  0  0  0  0
  -18.0261  -28.1369   22.8494 C   0  0  0  0  0  0
  -24.1482  -36.7327   23.2639 C   0  0  0  0  0  0
  -25.9197  -30.8470   21.3608 C   0  0  0  0  0  0
  -26.0000  -29.4802   20.7181 C   0  0  0  0  0  0
  -27.2004  -28.7414   20.7140 C   0  0  0  0  0  0
  -26.0799  -26.9574   19.4926 C   0  0  0  0  0  0
  -24.8783  -27.6928   19.5055 C   0  0  0  0  0  0
  -23.6050  -29.8202   20.1670 C   0  0  0  0  0  0
  -25.4099  -36.3122   24.0344 C   0  0  1  0  0  0
  -20.5847  -28.3645   23.1332 C   0  0  2  0  0  0
  -20.6745  -26.9386   22.5419 C   0  0  0  0  0  0
  -19.5725  -26.6379   21.5209 C   0  0  0  0  0  0
  -18.1904  -26.7917   22.1623 C   0  0  0  0  0  0
  -19.1510  -28.8827   23.2909 C   0  0  0  0  0  0
  -18.9441  -30.1438   23.8913 C   0  0  0  0  0  0
  -17.6444  -30.6579   24.0567 C   0  0  0  0  0  0
  -25.9026  -34.9483   23.5144 C   0  0  0  0  0  0
  -16.5335  -29.9082   23.6328 C   0  0  0  0  0  0
  -16.7253  -28.6500   23.0347 C   0  0  0  0  0  0
  -26.4459  -31.6597   25.0726 C   0  0  0  0  0  0
  -25.3749  -31.3671   26.1487 C   0  0  0  0  0  0
  -27.0287  -30.3049   24.6063 C   0  0  0  0  0  0
  -27.6037  -32.4310   25.7494 C   0  0  0  0  0  0
  -27.5581  -37.1813   24.8464 C   0  0  0  0  0  0
  -21.4118  -29.3021   22.3749 N   0  0  0  0  0  0
  -26.4288  -37.3803   23.9418 N   0  0  0  0  0  0
  -24.6598  -31.0838   22.1011 N   0  0  0  0  0  0
  -23.4171  -28.8205   23.3040 O   0  0  0  0  0  0
  -28.3913  -26.7205   20.0458 O   0  0  0  0  0  0
  -26.5591  -34.8928   22.4708 O   0  0  0  0  0  0
  -23.5302  -32.1435   23.7552 O   0  0  0  0  0  0
  -30.6222  -18.3899   18.6221 C   0  0  0  0  0  0
  -30.0431  -19.4441   19.3404 C   0  0  0  0  0  0
  -30.5936  -17.0897   19.1456 C   0  0  0  0  0  0
  -29.3969  -17.8920   21.1259 C   0  0  0  0  0  0
  -29.4105  -19.2106   20.5834 C   0  0  0  0  0  0
  -30.0023  -16.8230   20.4062 C   0  0  0  0  0  0
  -28.2156  -21.3728   20.7806 C   0  0  0  0  0  0
  -28.7324  -17.5991   22.4674 C   0  0  0  0  0  0
  -27.9851  -22.5858   21.6894 C   0  0  0  0  0  0
  -28.5285  -23.8813   21.0460 C   0  0  0  0  0  0
  -28.3341  -25.1409   21.9104 C   0  0  0  0  0  0
  -28.9896  -26.3953   21.2998 C   0  0  0  0  0  0
  -28.8649  -20.3152   21.3020 N   0  0  0  0  0  0
  -29.9477  -15.4888   20.9254 N   0  0  0  0  0  0
  -27.7838  -21.3990   19.6246 O   0  0  0  0  0  0
  -31.4620  -12.3573   19.1285 H   0  0  0  0  0  0
  -30.2969  -11.2645   19.8204 H   0  0  0  0  0  0
  -29.7258  -11.7730   17.4246 H   0  0  0  0  0  0
  -29.6719  -13.4818   17.7799 H   0  0  0  0  0  0
  -27.8138  -11.3108   18.8092 H   0  0  0  0  0  0
  -27.3662  -12.6496   17.7864 H   0  0  0  0  0  0
  -27.7075  -14.2524   19.5798 H   0  0  0  0  0  0
  -28.6620  -11.9512   21.3547 H   0  0  0  0  0  0
  -28.4743  -13.5995   21.8700 H   0  0  0  0  0  0
  -25.2754   -9.5692   22.4760 H   0  0  0  0  0  0
  -24.0001   -7.4640   22.7475 H   0  0  0  0  0  0
  -21.0842   -8.8770   19.8946 H   0  0  0  0  0  0
  -22.3689  -10.9677   19.6163 H   0  0  0  0  0  0
  -21.2003   -7.6148   23.9715 H   0  0  0  0  0  0
  -21.1483   -6.0522   25.9076 H   0  0  0  0  0  0
  -22.0599   -2.7610   23.2842 H   0  0  0  0  0  0
  -22.4110  -11.9893   22.4772 H   0  0  0  0  0  0
  -21.1123  -13.1276   22.2606 H   0  0  0  0  0  0
  -24.6687  -15.8455   20.5181 H   0  0  0  0  0  0
  -26.2862  -15.6250   20.0833 H   0  0  0  0  0  0
  -26.7084  -32.5574   23.1198 H   0  0  0  0  0  0
  -25.0030  -33.9801   25.0494 H   0  0  0  0  0  0
  -22.6829  -31.3065   21.4122 H   0  0  0  0  0  0
  -23.3740  -35.9664   23.3299 H   0  0  0  0  0  0
  -24.3579  -36.8944   22.2055 H   0  0  0  0  0  0
  -23.7236  -37.6533   23.6654 H   0  0  0  0  0  0
  -26.0214  -31.6090   20.5867 H   0  0  0  0  0  0
  -26.8119  -30.9094   21.9721 H   0  0  0  0  0  0
  -28.0921  -29.1567   21.1621 H   0  0  0  0  0  0
  -26.1082  -25.9878   19.0153 H   0  0  0  0  0  0
  -23.9925  -27.2847   19.0384 H   0  0  0  0  0  0
  -23.7090  -30.5930   19.4045 H   0  0  0  0  0  0
  -22.7314  -29.2345   19.8748 H   0  0  0  0  0  0
  -25.1269  -36.1994   25.0835 H   0  0  0  0  0  0
  -20.9935  -28.3202   24.1453 H   0  0  0  0  0  0
  -20.5633  -26.2253   23.3598 H   0  0  0  0  0  0
  -21.6620  -26.7418   22.1224 H   0  0  0  0  0  0
  -19.6882  -25.6295   21.1224 H   0  0  0  0  0  0
  -19.6665  -27.3204   20.6749 H   0  0  0  0  0  0
  -17.4171  -26.6671   21.4027 H   0  0  0  0  0  0
  -18.0303  -26.0054   22.9015 H   0  0  0  0  0  0
  -19.7915  -30.7251   24.2288 H   0  0  0  0  0  0
  -17.4997  -31.6260   24.5166 H   0  0  0  0  0  0
  -15.5337  -30.2990   23.7641 H   0  0  0  0  0  0
  -15.8650  -28.0830   22.7047 H   0  0  0  0  0  0
  -24.5921  -30.7014   25.7831 H   0  0  0  0  0  0
  -24.8939  -32.2813   26.4978 H   0  0  0  0  0  0
  -25.8131  -30.8820   27.0219 H   0  0  0  0  0  0
  -26.2818  -29.6818   24.1127 H   0  0  0  0  0  0
  -27.4088  -29.7268   25.4497 H   0  0  0  0  0  0
  -27.8639  -30.4384   23.9179 H   0  0  0  0  0  0
  -27.2649  -33.3590   26.2114 H   0  0  0  0  0  0
  -28.3832  -32.6901   25.0318 H   0  0  0  0  0  0
  -28.0720  -31.8409   26.5382 H   0  0  0  0  0  0
  -28.2590  -38.0121   24.7531 H   0  0  0  0  0  0
  -28.1087  -36.2653   24.6262 H   0  0  0  0  0  0
  -27.2306  -37.1436   25.8869 H   0  0  0  0  0  0
  -20.9268  -29.8761   21.6994 H   0  0  0  0  0  0
  -26.0180  -38.2879   24.1431 H   0  0  0  0  0  0
  -31.0894  -18.5788   17.6660 H   0  0  0  0  0  0
  -30.0945  -20.4394   18.9215 H   0  0  0  0  0  0
  -31.0323  -16.3051   18.5463 H   0  0  0  0  0  0
  -28.2806  -18.4736   22.9320 H   0  0  0  0  0  0
  -29.4646  -17.1978   23.1685 H   0  0  0  0  0  0
  -27.9406  -16.8603   22.3417 H   0  0  0  0  0  0
  -28.4581  -22.4223   22.6587 H   0  0  0  0  0  0
  -26.9142  -22.6784   21.8748 H   0  0  0  0  0  0
  -28.0472  -24.0401   20.0796 H   0  0  0  0  0  0
  -29.5913  -23.7533   20.8343 H   0  0  0  0  0  0
  -28.7676  -24.9692   22.8965 H   0  0  0  0  0  0
  -27.2710  -25.3215   22.0738 H   0  0  0  0  0  0
  -30.0507  -26.2096   21.1312 H   0  0  0  0  0  0
  -28.9424  -27.2228   22.0085 H   0  0  0  0  0  0
  -29.0147  -20.3230   22.3015 H   0  0  0  0  0  0
  -29.1116  -15.2494   21.4347 H   0  0  0  0  0  0
  1 25  1  0  0  0
  1 30  2  0  0  0
  1 84  1  0  0  0
  2  3  1  0  0  0
  2 25  1  0  0  0
  2 86  1  0  0  0
  2 87  1  0  0  0
  3  4  1  0  0  0
  3 88  1  0  0  0
  3 89  1  0  0  0
  4  5  1  0  0  0
  4 90  1  0  0  0
  4 91  1  0  0  0
  5  6  1  0  0  0
  5 26  1  0  0  0
  5 92  1  0  0  0
  6 25  1  0  0  0
  6 93  1  0  0  0
  6 94  1  0  0  0
  7  8  2  0  0  0
  7 26  1  0  0  0
  7 29  1  0  0  0
  8  9  1  0  0  0
  8 22  1  0  0  0
  9 10  1  0  0  0
  9 27  2  0  0  0
 10 11  2  0  0  0
 10 15  1  0  0  0
 11 12  1  0  0  0
 11 95  1  0  0  0
 12 13  2  0  0  0
 12 96  1  0  0  0
 13 14  1  0  0  0
 13 31  1  0  0  0
 14 15  2  0  0  0
 14 97  1  0  0  0
 15 98  1  0  0  0
 16 17  2  0  0  0
 16 21  1  0  0  0
 16 31  1  0  0  0
 17 18  1  0  0  0
 17 99  1  0  0  0
 18 19  2  0  0  0
 18100  1  0  0  0
 19 20  1  0  0  0
 19 24  1  0  0  0
 20 21  2  0  0  0
 20101  1  0  0  0
 21 23  1  0  0  0
 22 28  1  0  0  0
 22 32  2  0  0  0
 26 27  1  0  0  0
 28102  1  0  0  0
 28103  1  0  0  0
 29104  1  0  0  0
 29105  1  0  0  0
 33 34  1  0  0  0
 33 66  1  0  0  0
 33 70  2  0  0  0
 34 36  1  0  0  0
 34 59  1  0  0  0
 34106  1  0  0  0
 35 44  2  0  0  0
 35 45  1  0  0  0
 35 68  1  0  0  0
 36 56  1  0  0  0
 36107  1  0  0  0
 37 39  1  0  0  0
 37 47  1  0  0  0
 37 66  1  0  0  0
 37108  1  0  0  0
 38 43  2  0  0  0
 38 46  1  0  0  0
 38 47  1  0  0  0
 39 64  1  0  0  0
 39 67  2  0  0  0
 40 52  1  0  0  0
 40 53  2  0  0  0
 40 58  1  0  0  0
 41109  1  0  0  0
 41110  1  0  0  0
 41111  1  0  0  0
 41 48  1  0  0  0
 42 43  1  0  0  0
 42 66  1  0  0  0
 42112  1  0  0  0
 42113  1  0  0  0
 43 44  1  0  0  0
 44114  1  0  0  0
 45 46  2  0  0  0
 45115  1  0  0  0
 46116  1  0  0  0
 47117  1  0  0  0
 47118  1  0  0  0
 48 56  1  0  0  0
 48 65  1  0  0  0
 48119  1  0  0  0
 49 50  1  0  0  0
 49 53  1  0  0  0
 49 64  1  0  0  0
 49120  1  0  0  0
 50 51  1  0  0  0
 50121  1  0  0  0
 50122  1  0  0  0
 51 52  1  0  0  0
 51123  1  0  0  0
 51124  1  0  0  0
 52125  1  0  0  0
 52126  1  0  0  0
 53 54  1  0  0  0
 54 55  2  0  0  0
 54127  1  0  0  0
 55 57  1  0  0  0
 55128  1  0  0  0
 56 69  2  0  0  0
 57 58  2  0  0  0
 57129  1  0  0  0
 58130  1  0  0  0
 59 60  1  0  0  0
 59 61  1  0  0  0
 59 62  1  0  0  0
 60131  1  0  0  0
 60132  1  0  0  0
 60133  1  0  0  0
 61134  1  0  0  0
 61135  1  0  0  0
 61136  1  0  0  0
 62137  1  0  0  0
 62138  1  0  0  0
 62139  1  0  0  0
 63 65  1  0  0  0
 63140  1  0  0  0
 63141  1  0  0  0
 63142  1  0  0  0
 64143  1  0  0  0
 65144  1  0  0  0
 68 82  1  0  0  0
 71 72  2  0  0  0
 71 73  1  0  0  0
 71145  1  0  0  0
 72 75  1  0  0  0
 72146  1  0  0  0
 73 76  2  0  0  0
 73147  1  0  0  0
 74 75  2  0  0  0
 74 76  1  0  0  0
 74 78  1  0  0  0
 75 83  1  0  0  0
 76 84  1  0  0  0
 77 79  1  0  0  0
 77 83  1  0  0  0
 77 85  2  0  0  0
 78148  1  0  0  0
 78149  1  0  0  0
 78150  1  0  0  0
 79 80  1  0  0  0
 79151  1  0  0  0
 79152  1  0  0  0
 80 81  1  0  0  0
 80153  1  0  0  0
 80154  1  0  0  0
 81 82  1  0  0  0
 81155  1  0  0  0
 81156  1  0  0  0
 82157  1  0  0  0
 82158  1  0  0  0
 83159  1  0  0  0
 84160  1  0  0  0
M  ISO  4   1 100  68 101  82 101  84 100
M  END
> <chiral flag>
0

> <version>
0

> <s_m_source_file>
/data/baiqing/PycharmProjects/Reinvent-master-3.2/result/LINK_invent/BTK/process_docking_weight1_custom_product_contain_oxygen_bond_distance_aromatic_linkinvent_7_9_3/rearranged_h_0063.sdf

> <i_m_source_file_index>
91

> <r_mmod_Potential_Energy-OPLS-2005>
-75.2187957763672

> <r_mmod_Stretch_Energy-OPLS-2005>
35.6188507080078

> <r_mmod_Bend_Energy-OPLS-2005>
89.3514709472656

> <r_mmod_Torsional_Energy-OPLS-2005>
263.262420654297

> <r_mmod_Improper_Torsional_Energy-OPLS-2005>
5.07934141159058

> <r_mmod_Van_der_Waal_Energy-OPLS-2005>
161.542129516602

> <r_mmod_Electrostatic_Energy-OPLS-2005>
-412.75341796875

> <r_mmod_Solvation_Energy-OPLS-2005>
-228.344055175781

> <b_mmod_Minimization_Converged-OPLS-2005>
0

> <r_mmod_RMS_Derivative-OPLS-2005>
0.543301522731781

$$$$
