0
                    3D
 Structure written by MMmdl.
166175  0  0  1  0            999 V2000
  -30.6006  -14.7148   20.4869 C   0  0  0  0  0  0
  -30.4481  -12.4407   19.4616 C   0  0  0  0  0  0
  -29.5181  -12.5197   18.2296 C   0  0  0  0  0  0
  -28.0400  -12.3465   18.6376 C   0  0  0  0  0  0
  -27.6513  -13.2241   19.8570 C   0  0  2  0  0  0
  -28.6973  -13.1134   20.9895 C   0  0  0  0  0  0
  -25.2548  -13.8171   20.5685 C   0  0  0  0  0  0
  -24.1826  -13.0425   20.9197 C   0  0  0  0  0  0
  -24.6401  -11.6901   20.8720 C   0  0  0  0  0  0
  -23.9065  -10.4287   21.0388 C   0  0  0  0  0  0
  -24.3613   -9.4208   21.9172 C   0  0  0  0  0  0
  -23.6288   -8.2244   22.0745 C   0  0  0  0  0  0
  -22.4271   -8.0280   21.3542 C   0  0  0  0  0  0
  -21.9907   -9.0253   20.4642 C   0  0  0  0  0  0
  -22.7231  -10.2130   20.3041 C   0  0  0  0  0  0
  -21.6859   -6.0725   22.5273 C   0  0  0  0  0  0
  -21.4019   -6.5627   23.8207 C   0  0  0  0  0  0
  -21.3661   -5.6779   24.9165 C   0  0  0  0  0  0
  -21.6044   -4.3044   24.7220 C   0  0  0  0  0  0
  -21.8819   -3.8139   23.4340 C   0  0  0  0  0  0
  -21.9201   -4.6951   22.3396 C   0  0  0  0  0  0
  -22.7846  -13.5221   21.1847 C   0  0  0  0  0  0
  -22.1665   -4.2137   21.0976 F   0  0  0  0  0  0
  -21.5628   -3.4529   25.7732 F   0  0  0  0  0  0
  -30.0072  -13.4750   20.4230 N   0  0  0  0  0  0
  -26.2984  -12.9368   20.3278 N   0  0  0  0  0  0
  -25.9335  -11.6512   20.5713 N   0  0  0  0  0  0
  -22.0490  -12.8224   22.0409 N   0  0  0  0  0  0
  -25.4228  -15.1892   20.4087 N   0  0  0  0  0  0
  -31.7747  -14.8684   20.1347 O   0  0  0  0  0  0
  -21.6640   -6.8876   21.4236 O   0  0  0  0  0  0
  -22.3534  -14.5534   20.6695 O   0  0  0  0  0  0
  -24.6286  -31.8579   23.1995 C   0  0  0  0  0  0
  -25.9123  -32.4763   23.8336 C   0  0  1  0  0  0
  -27.2240  -27.2899   20.1395 C   0  0  0  0  0  0
  -25.5930  -33.8562   24.2273 N   0  0  0  0  0  0
  -23.4256  -30.4798   21.5422 C   0  0  2  0  0  0
  -24.8759  -28.9299   20.1109 C   0  0  0  0  0  0
  -22.7496  -29.4618   22.4921 C   0  0  0  0  0  0
  -18.0297  -28.1401   22.8492 C   0  0  0  0  0  0
  -24.1487  -36.7283   23.2635 C   0  0  0  0  0  0
  -25.9683  -30.7805   21.3754 C   0  0  0  0  0  0
  -26.0443  -29.4031   20.7229 C   0  0  0  0  0  0
  -27.2242  -28.5953   20.7281 C   0  0  0  0  0  0
  -26.0426  -26.8853   19.4823 C   0  0  0  0  0  0
  -24.8790  -27.6780   19.4770 C   0  0  0  0  0  0
  -23.6446  -29.8136   20.1580 C   0  0  0  0  0  0
  -25.4105  -36.3074   24.0334 C   0  0  1  0  0  0
  -20.5897  -28.3713   23.1279 C   0  0  2  0  0  0
  -20.6789  -26.9434   22.5416 C   0  0  0  0  0  0
  -19.5759  -26.6409   21.5225 C   0  0  0  0  0  0
  -18.1940  -26.7942   22.1633 C   0  0  0  0  0  0
  -19.1548  -28.8870   23.2882 C   0  0  0  0  0  0
  -18.9463  -30.1474   23.8900 C   0  0  0  0  0  0
  -17.6462  -30.6594   24.0574 C   0  0  0  0  0  0
  -25.9048  -34.9445   23.5100 C   0  0  0  0  0  0
  -16.5358  -29.9094   23.6335 C   0  0  0  0  0  0
  -16.7285  -28.6514   23.0351 C   0  0  0  0  0  0
  -26.4502  -31.6559   25.0700 C   0  0  0  0  0  0
  -25.3726  -31.3710   26.1425 C   0  0  0  0  0  0
  -27.0342  -30.2977   24.6155 C   0  0  0  0  0  0
  -27.6071  -32.4283   25.7471 C   0  0  0  0  0  0
  -27.5589  -37.1780   24.8450 C   0  0  0  0  0  0
  -21.4202  -29.3053   22.3659 N   0  0  0  0  0  0
  -26.4275  -37.3782   23.9433 N   0  0  0  0  0  0
  -24.6928  -31.0569   22.0962 N   0  0  0  0  0  0
  -23.4204  -28.8168   23.3018 O   0  0  0  0  0  0
  -28.3010  -26.3836   20.1907 O   0  0  0  0  0  0
  -26.5629  -34.8922   22.4677 O   0  0  0  0  0  0
  -23.5437  -32.1398   23.7300 O   0  0  0  0  0  0
  -28.6104  -19.4383   20.5437 C   0  0  0  0  0  0
  -28.6397  -18.0119   20.6612 C   0  0  0  0  0  0
  -31.0249  -18.0298   20.5818 C   0  0  0  0  0  0
  -29.7887  -20.2255   20.4351 C   0  0  0  0  0  0
  -31.0135  -19.4704   20.5056 C   0  0  0  0  0  0
  -29.8411  -17.2471   20.6581 C   0  0  0  0  0  0
  -28.5399  -22.6288   19.7290 C   0  0  0  0  0  0
  -28.8049  -23.7410   20.4482 C   0  0  0  0  0  0
  -27.5618  -22.3703   18.6603 C   0  0  0  0  0  0
  -29.8080  -22.9387   21.3159 C   0  0  0  0  0  0
  -29.7737  -21.8128   20.1970 C   0  0  1  0  0  0
  -27.8586  -21.2783   17.6399 C   0  0  0  0  0  0
  -33.0135  -20.1389   19.1032 C   0  0  0  0  0  0
  -33.3218  -19.7016   21.5915 C   0  0  0  0  0  0
  -27.9886  -25.0533   20.7952 C   0  0  0  0  0  0
  -32.3648  -20.1959   20.4932 C   0  0  0  0  0  0
  -29.7624  -15.7729   20.7801 N   0  0  0  0  0  0
  -26.5268  -23.0293   18.5331 O   0  0  0  0  0  0
  -31.4871  -12.5812   19.1570 H   0  0  0  0  0  0
  -30.3996  -11.4510   19.9185 H   0  0  0  0  0  0
  -29.7959  -11.7602   17.4972 H   0  0  0  0  0  0
  -29.6509  -13.4832   17.7345 H   0  0  0  0  0  0
  -27.8851  -11.2941   18.8764 H   0  0  0  0  0  0
  -27.3886  -12.5677   17.7915 H   0  0  0  0  0  0
  -27.6575  -14.2539   19.4992 H   0  0  0  0  0  0
  -28.7261  -12.0991   21.3910 H   0  0  0  0  0  0
  -28.4324  -13.7591   21.8284 H   0  0  0  0  0  0
  -25.2762   -9.5685   22.4733 H   0  0  0  0  0  0
  -24.0001   -7.4639   22.7462 H   0  0  0  0  0  0
  -21.0840   -8.8766   19.8957 H   0  0  0  0  0  0
  -22.3689  -10.9657   19.6140 H   0  0  0  0  0  0
  -21.2015   -7.6132   23.9701 H   0  0  0  0  0  0
  -21.1482   -6.0510   25.9068 H   0  0  0  0  0  0
  -22.0605   -2.7599   23.2837 H   0  0  0  0  0  0
  -22.4096  -11.9881   22.4803 H   0  0  0  0  0  0
  -21.1101  -13.1243   22.2594 H   0  0  0  0  0  0
  -24.6462  -15.8346   20.5056 H   0  0  0  0  0  0
  -26.2526  -15.6262   20.0311 H   0  0  0  0  0  0
  -26.7193  -32.5445   23.1087 H   0  0  0  0  0  0
  -25.0070  -33.9699   25.0412 H   0  0  0  0  0  0
  -22.7203  -31.3005   21.3962 H   0  0  0  0  0  0
  -23.3764  -35.9596   23.3248 H   0  0  0  0  0  0
  -24.3599  -36.8954   22.2062 H   0  0  0  0  0  0
  -23.7212  -37.6459   23.6681 H   0  0  0  0  0  0
  -26.1004  -31.5375   20.6012 H   0  0  0  0  0  0
  -26.8483  -30.8353   22.0037 H   0  0  0  0  0  0
  -28.1160  -28.9489   21.2259 H   0  0  0  0  0  0
  -26.0097  -25.9266   18.9834 H   0  0  0  0  0  0
  -23.9897  -27.3137   18.9820 H   0  0  0  0  0  0
  -23.7686  -30.5896   19.4015 H   0  0  0  0  0  0
  -22.7641  -29.2446   19.8536 H   0  0  0  0  0  0
  -25.1275  -36.1916   25.0823 H   0  0  0  0  0  0
  -21.0003  -28.3302   24.1394 H   0  0  0  0  0  0
  -20.5724  -26.2320   23.3620 H   0  0  0  0  0  0
  -21.6656  -26.7487   22.1193 H   0  0  0  0  0  0
  -19.6920  -25.6324   21.1251 H   0  0  0  0  0  0
  -19.6681  -27.3220   20.6752 H   0  0  0  0  0  0
  -17.4217  -26.6714   21.4027 H   0  0  0  0  0  0
  -18.0316  -26.0082   22.9022 H   0  0  0  0  0  0
  -19.7940  -30.7301   24.2263 H   0  0  0  0  0  0
  -17.5016  -31.6268   24.5191 H   0  0  0  0  0  0
  -15.5354  -30.3000   23.7645 H   0  0  0  0  0  0
  -15.8692  -28.0841   22.7048 H   0  0  0  0  0  0
  -24.5891  -30.7070   25.7754 H   0  0  0  0  0  0
  -24.8918  -32.2878   26.4845 H   0  0  0  0  0  0
  -25.8034  -30.8889   27.0208 H   0  0  0  0  0  0
  -26.2913  -29.6723   24.1191 H   0  0  0  0  0  0
  -27.4054  -29.7233   25.4653 H   0  0  0  0  0  0
  -27.8778  -30.4263   23.9371 H   0  0  0  0  0  0
  -27.2705  -33.3605   26.2026 H   0  0  0  0  0  0
  -28.3890  -32.6805   25.0293 H   0  0  0  0  0  0
  -28.0723  -31.8408   26.5401 H   0  0  0  0  0  0
  -28.2545  -38.0140   24.7594 H   0  0  0  0  0  0
  -28.1146  -36.2675   24.6136 H   0  0  0  0  0  0
  -27.2335  -37.1275   25.8858 H   0  0  0  0  0  0
  -20.9380  -29.8750   21.6846 H   0  0  0  0  0  0
  -26.0145  -38.2846   24.1471 H   0  0  0  0  0  0
  -27.6475  -19.9283   20.5257 H   0  0  0  0  0  0
  -27.6930  -17.4966   20.7394 H   0  0  0  0  0  0
  -31.9739  -17.5133   20.5947 H   0  0  0  0  0  0
  -29.4227  -22.5748   22.2702 H   0  0  0  0  0  0
  -30.8052  -23.3540   21.4671 H   0  0  0  0  0  0
  -30.5872  -21.9940   19.4943 H   0  0  0  0  0  0
  -28.5185  -20.5167   18.0508 H   0  0  0  0  0  0
  -28.3420  -21.7107   16.7646 H   0  0  0  0  0  0
  -26.9360  -20.7958   17.3189 H   0  0  0  0  0  0
  -32.3603  -20.5731   18.3458 H   0  0  0  0  0  0
  -33.2301  -19.1128   18.8045 H   0  0  0  0  0  0
  -33.9510  -20.6957   19.0841 H   0  0  0  0  0  0
  -32.8550  -19.7695   22.5752 H   0  0  0  0  0  0
  -34.2244  -20.3127   21.6201 H   0  0  0  0  0  0
  -33.6404  -18.6703   21.4419 H   0  0  0  0  0  0
  -28.0802  -25.1849   21.8739 H   0  0  0  0  0  0
  -26.9409  -24.7926   20.6565 H   0  0  0  0  0  0
  -32.2078  -21.2453   20.7356 H   0  0  0  0  0  0
  -28.8405  -15.4402   21.0172 H   0  0  0  0  0  0
  1 25  1  0  0  0
  1 30  2  0  0  0
  1 87  1  0  0  0
  2  3  1  0  0  0
  2 25  1  0  0  0
  2 89  1  0  0  0
  2 90  1  0  0  0
  3  4  1  0  0  0
  3 91  1  0  0  0
  3 92  1  0  0  0
  4  5  1  0  0  0
  4 93  1  0  0  0
  4 94  1  0  0  0
  5  6  1  0  0  0
  5 26  1  0  0  0
  5 95  1  0  0  0
  6 25  1  0  0  0
  6 96  1  0  0  0
  6 97  1  0  0  0
  7  8  2  0  0  0
  7 26  1  0  0  0
  7 29  1  0  0  0
  8  9  1  0  0  0
  8 22  1  0  0  0
  9 10  1  0  0  0
  9 27  2  0  0  0
 10 11  2  0  0  0
 10 15  1  0  0  0
 11 12  1  0  0  0
 11 98  1  0  0  0
 12 13  2  0  0  0
 12 99  1  0  0  0
 13 14  1  0  0  0
 13 31  1  0  0  0
 14 15  2  0  0  0
 14100  1  0  0  0
 15101  1  0  0  0
 16 17  2  0  0  0
 16 21  1  0  0  0
 16 31  1  0  0  0
 17 18  1  0  0  0
 17102  1  0  0  0
 18 19  2  0  0  0
 18103  1  0  0  0
 19 20  1  0  0  0
 19 24  1  0  0  0
 20 21  2  0  0  0
 20104  1  0  0  0
 21 23  1  0  0  0
 22 28  1  0  0  0
 22 32  2  0  0  0
 26 27  1  0  0  0
 28105  1  0  0  0
 28106  1  0  0  0
 29107  1  0  0  0
 29108  1  0  0  0
 33 34  1  0  0  0
 33 66  1  0  0  0
 33 70  2  0  0  0
 34 36  1  0  0  0
 34 59  1  0  0  0
 34109  1  0  0  0
 35 44  2  0  0  0
 35 45  1  0  0  0
 35 68  1  0  0  0
 36 56  1  0  0  0
 36110  1  0  0  0
 37 39  1  0  0  0
 37 47  1  0  0  0
 37 66  1  0  0  0
 37111  1  0  0  0
 38 43  2  0  0  0
 38 46  1  0  0  0
 38 47  1  0  0  0
 39 64  1  0  0  0
 39 67  2  0  0  0
 40 52  1  0  0  0
 40 53  2  0  0  0
 40 58  1  0  0  0
 41112  1  0  0  0
 41113  1  0  0  0
 41114  1  0  0  0
 41 48  1  0  0  0
 42 43  1  0  0  0
 42 66  1  0  0  0
 42115  1  0  0  0
 42116  1  0  0  0
 43 44  1  0  0  0
 44117  1  0  0  0
 45 46  2  0  0  0
 45118  1  0  0  0
 46119  1  0  0  0
 47120  1  0  0  0
 47121  1  0  0  0
 48 56  1  0  0  0
 48 65  1  0  0  0
 48122  1  0  0  0
 49 50  1  0  0  0
 49 53  1  0  0  0
 49 64  1  0  0  0
 49123  1  0  0  0
 50 51  1  0  0  0
 50124  1  0  0  0
 50125  1  0  0  0
 51 52  1  0  0  0
 51126  1  0  0  0
 51127  1  0  0  0
 52128  1  0  0  0
 52129  1  0  0  0
 53 54  1  0  0  0
 54 55  2  0  0  0
 54130  1  0  0  0
 55 57  1  0  0  0
 55131  1  0  0  0
 56 69  2  0  0  0
 57 58  2  0  0  0
 57132  1  0  0  0
 58133  1  0  0  0
 59 60  1  0  0  0
 59 61  1  0  0  0
 59 62  1  0  0  0
 60134  1  0  0  0
 60135  1  0  0  0
 60136  1  0  0  0
 61137  1  0  0  0
 61138  1  0  0  0
 61139  1  0  0  0
 62140  1  0  0  0
 62141  1  0  0  0
 62142  1  0  0  0
 63 65  1  0  0  0
 63143  1  0  0  0
 63144  1  0  0  0
 63145  1  0  0  0
 64146  1  0  0  0
 65147  1  0  0  0
 68 85  1  0  0  0
 71 72  2  0  0  0
 71 74  1  0  0  0
 71148  1  0  0  0
 72 76  1  0  0  0
 72149  1  0  0  0
 73 75  1  0  0  0
 73 76  2  0  0  0
 73150  1  0  0  0
 74 75  2  0  0  0
 74 81  1  0  0  0
 75 86  1  0  0  0
 76 87  1  0  0  0
 77 78  2  0  0  0
 77 79  1  0  0  0
 77 81  1  0  0  0
 78 80  1  0  0  0
 78 85  1  0  0  0
 79 82  1  0  0  0
 79 88  2  0  0  0
 80 81  1  0  0  0
 80151  1  0  0  0
 80152  1  0  0  0
 81153  1  0  0  0
 82154  1  0  0  0
 82155  1  0  0  0
 82156  1  0  0  0
 83157  1  0  0  0
 83158  1  0  0  0
 83159  1  0  0  0
 83 86  1  0  0  0
 84 86  1  0  0  0
 84160  1  0  0  0
 84161  1  0  0  0
 84162  1  0  0  0
 85163  1  0  0  0
 85164  1  0  0  0
 86165  1  0  0  0
 87166  1  0  0  0
M  ISO  4   1 100  68 101  85 101  87 100
M  END
> <chiral flag>
0

> <version>
0

> <s_m_source_file>
/data/baiqing/PycharmProjects/Reinvent-master-3.2/result/LINK_invent/BTK/process_docking_weight1_custom_product_contain_oxygen_bond_distance_aromatic_linkinvent_7_9_3/rearranged_h_0146.sdf

> <i_m_source_file_index>
1

> <r_mmod_Potential_Energy-OPLS-2005>
158.668167114258

> <r_mmod_Stretch_Energy-OPLS-2005>
101.850708007812

> <r_mmod_Bend_Energy-OPLS-2005>
219.382797241211

> <r_mmod_Torsional_Energy-OPLS-2005>
253.477966308594

> <r_mmod_Improper_Torsional_Energy-OPLS-2005>
8.29868793487549

> <r_mmod_Van_der_Waal_Energy-OPLS-2005>
132.496704101562

> <r_mmod_Electrostatic_Energy-OPLS-2005>
-417.783721923828

> <r_mmod_Solvation_Energy-OPLS-2005>
-212.094100952148

> <b_mmod_Minimization_Converged-OPLS-2005>
0

> <r_mmod_RMS_Derivative-OPLS-2005>
1.75157308578491

$$$$
1
                    3D
 Structure written by MMmdl.
161169  0  0  1  0            999 V2000
  -30.5934  -14.7455   20.4609 C   0  0  0  0  0  0
  -30.4394  -12.4532   19.4715 C   0  0  0  0  0  0
  -29.5124  -12.5075   18.2359 C   0  0  0  0  0  0
  -28.0381  -12.3298   18.6495 C   0  0  0  0  0  0
  -27.6443  -13.2265   19.8531 C   0  0  2  0  0  0
  -28.6896  -13.1467   20.9880 C   0  0  0  0  0  0
  -25.2521  -13.8185   20.5690 C   0  0  0  0  0  0
  -24.1810  -13.0437   20.9212 C   0  0  0  0  0  0
  -24.6394  -11.6912   20.8752 C   0  0  0  0  0  0
  -23.9068  -10.4291   21.0411 C   0  0  0  0  0  0
  -24.3619   -9.4205   21.9186 C   0  0  0  0  0  0
  -23.6292   -8.2241   22.0755 C   0  0  0  0  0  0
  -22.4275   -8.0280   21.3543 C   0  0  0  0  0  0
  -21.9909   -9.0255   20.4647 C   0  0  0  0  0  0
  -22.7240  -10.2134   20.3059 C   0  0  0  0  0  0
  -21.6854   -6.0735   22.5279 C   0  0  0  0  0  0
  -21.4014   -6.5640   23.8212 C   0  0  0  0  0  0
  -21.3659   -5.6791   24.9174 C   0  0  0  0  0  0
  -21.6044   -4.3055   24.7224 C   0  0  0  0  0  0
  -21.8820   -3.8146   23.4346 C   0  0  0  0  0  0
  -21.9192   -4.6963   22.3402 C   0  0  0  0  0  0
  -22.7830  -13.5222   21.1867 C   0  0  0  0  0  0
  -22.1662   -4.2148   21.0980 F   0  0  0  0  0  0
  -21.5627   -3.4538   25.7738 F   0  0  0  0  0  0
  -29.9922  -13.5066   20.4112 N   0  0  0  0  0  0
  -26.2947  -12.9382   20.3284 N   0  0  0  0  0  0
  -25.9324  -11.6531   20.5756 N   0  0  0  0  0  0
  -22.0474  -12.8216   22.0423 N   0  0  0  0  0  0
  -25.4200  -15.1912   20.4095 N   0  0  0  0  0  0
  -31.7809  -14.8622   20.1398 O   0  0  0  0  0  0
  -21.6639   -6.8877   21.4240 O   0  0  0  0  0  0
  -22.3518  -14.5526   20.6709 O   0  0  0  0  0  0
  -24.6311  -31.8550   23.1979 C   0  0  0  0  0  0
  -25.9136  -32.4751   23.8327 C   0  0  1  0  0  0
  -27.2220  -27.2626   20.1349 C   0  0  0  0  0  0
  -25.5930  -33.8553   24.2251 N   0  0  0  0  0  0
  -23.4283  -30.4765   21.5415 C   0  0  2  0  0  0
  -24.8766  -28.9208   20.1141 C   0  0  0  0  0  0
  -22.7504  -29.4598   22.4916 C   0  0  0  0  0  0
  -18.0293  -28.1389   22.8482 C   0  0  0  0  0  0
  -24.1487  -36.7279   23.2639 C   0  0  0  0  0  0
  -25.9740  -30.7684   21.3776 C   0  0  0  0  0  0
  -26.0485  -29.3900   20.7218 C   0  0  0  0  0  0
  -27.2265  -28.5750   20.7175 C   0  0  0  0  0  0
  -26.0298  -26.8622   19.4939 C   0  0  0  0  0  0
  -24.8721  -27.6647   19.4884 C   0  0  0  0  0  0
  -23.6473  -29.8082   20.1590 C   0  0  0  0  0  0
  -25.4115  -36.3066   24.0325 C   0  0  1  0  0  0
  -20.5896  -28.3698   23.1271 C   0  0  2  0  0  0
  -20.6779  -26.9415   22.5410 C   0  0  0  0  0  0
  -19.5756  -26.6385   21.5212 C   0  0  0  0  0  0
  -18.1937  -26.7931   22.1626 C   0  0  0  0  0  0
  -19.1546  -28.8861   23.2871 C   0  0  0  0  0  0
  -18.9465  -30.1461   23.8892 C   0  0  0  0  0  0
  -17.6465  -30.6588   24.0564 C   0  0  0  0  0  0
  -25.9055  -34.9436   23.5091 C   0  0  0  0  0  0
  -16.5356  -29.9086   23.6333 C   0  0  0  0  0  0
  -16.7280  -28.6504   23.0351 C   0  0  0  0  0  0
  -26.4504  -31.6577   25.0716 C   0  0  0  0  0  0
  -25.3725  -31.3735   26.1437 C   0  0  0  0  0  0
  -27.0347  -30.2989   24.6207 C   0  0  0  0  0  0
  -27.6057  -32.4319   25.7490 C   0  0  0  0  0  0
  -27.5578  -37.1793   24.8464 C   0  0  0  0  0  0
  -21.4212  -29.3040   22.3657 N   0  0  0  0  0  0
  -26.4288  -37.3767   23.9411 N   0  0  0  0  0  0
  -24.6969  -31.0512   22.0955 N   0  0  0  0  0  0
  -23.4202  -28.8145   23.3021 O   0  0  0  0  0  0
  -28.3159  -26.3689   20.1571 O   0  0  0  0  0  0
  -26.5634  -34.8915   22.4664 O   0  0  0  0  0  0
  -23.5460  -32.1375   23.7270 O   0  0  0  0  0  0
  -29.0003  -18.2318   20.5189 C   0  0  0  0  0  0
  -30.9418  -19.1787   20.1802 C   0  0  0  0  0  0
  -29.6110  -19.5365   20.2600 C   0  0  0  0  0  0
  -29.9689  -17.2262   20.5249 C   0  0  0  0  0  0
  -29.0612  -23.8079   20.0004 C   0  0  0  0  0  0
  -29.3665  -23.1718   23.2389 C   0  0  0  0  0  0
  -28.9065  -21.1119   18.4261 C   0  0  0  0  0  0
  -30.9054  -22.3117   20.8859 C   0  0  0  0  0  0
  -28.0585  -24.9344   20.5506 C   0  0  0  0  0  0
  -28.7112  -22.3209   22.1284 C   0  0  0  0  0  0
  -28.9223  -20.9654   19.9583 C   0  0  2  0  0  0
  -29.3665  -22.3652   20.7138 C   0  0  1  0  0  0
  -29.7713  -15.8436   20.6763 N   0  0  0  0  0  0
  -29.6767  -24.0799   18.9638 O   0  0  0  0  0  0
  -31.1759  -17.8211   20.3308 O   0  0  0  0  0  0
  -31.4787  -12.5870   19.1669 H   0  0  0  0  0  0
  -30.3916  -11.4731   19.9488 H   0  0  0  0  0  0
  -29.7944  -11.7359   17.5182 H   0  0  0  0  0  0
  -29.6368  -13.4627   17.7232 H   0  0  0  0  0  0
  -27.8953  -11.2806   18.9108 H   0  0  0  0  0  0
  -27.3802  -12.5232   17.8014 H   0  0  0  0  0  0
  -27.6410  -14.2494   19.4764 H   0  0  0  0  0  0
  -28.7253  -12.1423   21.4128 H   0  0  0  0  0  0
  -28.4234  -13.8135   21.8098 H   0  0  0  0  0  0
  -25.2765   -9.5678   22.4760 H   0  0  0  0  0  0
  -24.0000   -7.4633   22.7474 H   0  0  0  0  0  0
  -21.0839   -8.8778   19.8954 H   0  0  0  0  0  0
  -22.3701  -10.9675   19.6170 H   0  0  0  0  0  0
  -21.2009   -7.6149   23.9716 H   0  0  0  0  0  0
  -21.1479   -6.0522   25.9076 H   0  0  0  0  0  0
  -22.0599   -2.7608   23.2849 H   0  0  0  0  0  0
  -22.4095  -11.9883   22.4820 H   0  0  0  0  0  0
  -21.1090  -13.1239   22.2625 H   0  0  0  0  0  0
  -24.6444  -15.8368   20.5110 H   0  0  0  0  0  0
  -26.2513  -15.6304   20.0368 H   0  0  0  0  0  0
  -26.7201  -32.5405   23.1068 H   0  0  0  0  0  0
  -25.0059  -33.9684   25.0385 H   0  0  0  0  0  0
  -22.7246  -31.2984   21.3942 H   0  0  0  0  0  0
  -23.3752  -35.9609   23.3296 H   0  0  0  0  0  0
  -24.3576  -36.8907   22.2054 H   0  0  0  0  0  0
  -23.7237  -37.6476   23.6670 H   0  0  0  0  0  0
  -26.1113  -31.5283   20.6071 H   0  0  0  0  0  0
  -26.8518  -30.8189   22.0103 H   0  0  0  0  0  0
  -28.1256  -28.9314   21.2006 H   0  0  0  0  0  0
  -25.9766  -25.9084   18.9899 H   0  0  0  0  0  0
  -23.9771  -27.3028   19.0015 H   0  0  0  0  0  0
  -23.7732  -30.5835   19.4025 H   0  0  0  0  0  0
  -22.7656  -29.2420   19.8534 H   0  0  0  0  0  0
  -25.1294  -36.1910   25.0818 H   0  0  0  0  0  0
  -20.9984  -28.3277   24.1395 H   0  0  0  0  0  0
  -20.5677  -26.2306   23.3613 H   0  0  0  0  0  0
  -21.6647  -26.7439   22.1206 H   0  0  0  0  0  0
  -19.6917  -25.6296   21.1241 H   0  0  0  0  0  0
  -19.6692  -27.3197   20.6744 H   0  0  0  0  0  0
  -17.4201  -26.6670   21.4033 H   0  0  0  0  0  0
  -18.0346  -26.0079   22.9031 H   0  0  0  0  0  0
  -19.7940  -30.7279   24.2261 H   0  0  0  0  0  0
  -17.5017  -31.6266   24.5170 H   0  0  0  0  0  0
  -15.5355  -30.2983   23.7663 H   0  0  0  0  0  0
  -15.8681  -28.0823   22.7067 H   0  0  0  0  0  0
  -24.5894  -30.7091   25.7766 H   0  0  0  0  0  0
  -24.8926  -32.2909   26.4857 H   0  0  0  0  0  0
  -25.8037  -30.8911   27.0218 H   0  0  0  0  0  0
  -26.2930  -29.6732   24.1226 H   0  0  0  0  0  0
  -27.4017  -29.7256   25.4731 H   0  0  0  0  0  0
  -27.8816  -30.4253   23.9457 H   0  0  0  0  0  0
  -27.2665  -33.3628   26.2051 H   0  0  0  0  0  0
  -28.3879  -32.6866   25.0325 H   0  0  0  0  0  0
  -28.0714  -31.8454   26.5421 H   0  0  0  0  0  0
  -28.2592  -38.0095   24.7514 H   0  0  0  0  0  0
  -28.1078  -36.2625   24.6286 H   0  0  0  0  0  0
  -27.2297  -37.1432   25.8867 H   0  0  0  0  0  0
  -20.9403  -29.8746   21.6843 H   0  0  0  0  0  0
  -26.0163  -38.2837   24.1423 H   0  0  0  0  0  0
  -27.9401  -18.0509   20.6294 H   0  0  0  0  0  0
  -31.8384  -19.7450   19.9695 H   0  0  0  0  0  0
  -28.7357  -23.1900   24.1283 H   0  0  0  0  0  0
  -29.5458  -24.2043   22.9438 H   0  0  0  0  0  0
  -30.3265  -22.7537   23.5437 H   0  0  0  0  0  0
  -28.5069  -20.2143   17.9526 H   0  0  0  0  0  0
  -29.9106  -21.2714   18.0319 H   0  0  0  0  0  0
  -28.2780  -21.9386   18.0971 H   0  0  0  0  0  0
  -31.3114  -23.2527   21.2601 H   0  0  0  0  0  0
  -31.4023  -22.1136   19.9359 H   0  0  0  0  0  0
  -31.2078  -21.5362   21.5892 H   0  0  0  0  0  0
  -28.0365  -24.9043   21.6367 H   0  0  0  0  0  0
  -27.0625  -24.6252   20.2405 H   0  0  0  0  0  0
  -27.6570  -22.5898   22.0459 H   0  0  0  0  0  0
  -28.7031  -21.2898   22.4853 H   0  0  0  0  0  0
  -27.8763  -20.8104   20.2285 H   0  0  0  0  0  0
  -28.8246  -15.5812   20.8993 H   0  0  0  0  0  0
  1 25  1  0  0  0
  1 30  2  0  0  0
  1 83  1  0  0  0
  2  3  1  0  0  0
  2 25  1  0  0  0
  2 86  1  0  0  0
  2 87  1  0  0  0
  3  4  1  0  0  0
  3 88  1  0  0  0
  3 89  1  0  0  0
  4  5  1  0  0  0
  4 90  1  0  0  0
  4 91  1  0  0  0
  5  6  1  0  0  0
  5 26  1  0  0  0
  5 92  1  0  0  0
  6 25  1  0  0  0
  6 93  1  0  0  0
  6 94  1  0  0  0
  7  8  2  0  0  0
  7 26  1  0  0  0
  7 29  1  0  0  0
  8  9  1  0  0  0
  8 22  1  0  0  0
  9 10  1  0  0  0
  9 27  2  0  0  0
 10 11  2  0  0  0
 10 15  1  0  0  0
 11 12  1  0  0  0
 11 95  1  0  0  0
 12 13  2  0  0  0
 12 96  1  0  0  0
 13 14  1  0  0  0
 13 31  1  0  0  0
 14 15  2  0  0  0
 14 97  1  0  0  0
 15 98  1  0  0  0
 16 17  2  0  0  0
 16 21  1  0  0  0
 16 31  1  0  0  0
 17 18  1  0  0  0
 17 99  1  0  0  0
 18 19  2  0  0  0
 18100  1  0  0  0
 19 20  1  0  0  0
 19 24  1  0  0  0
 20 21  2  0  0  0
 20101  1  0  0  0
 21 23  1  0  0  0
 22 28  1  0  0  0
 22 32  2  0  0  0
 26 27  1  0  0  0
 28102  1  0  0  0
 28103  1  0  0  0
 29104  1  0  0  0
 29105  1  0  0  0
 33 34  1  0  0  0
 33 66  1  0  0  0
 33 70  2  0  0  0
 34 36  1  0  0  0
 34 59  1  0  0  0
 34106  1  0  0  0
 35 44  2  0  0  0
 35 45  1  0  0  0
 35 68  1  0  0  0
 36 56  1  0  0  0
 36107  1  0  0  0
 37 39  1  0  0  0
 37 47  1  0  0  0
 37 66  1  0  0  0
 37108  1  0  0  0
 38 43  2  0  0  0
 38 46  1  0  0  0
 38 47  1  0  0  0
 39 64  1  0  0  0
 39 67  2  0  0  0
 40 52  1  0  0  0
 40 53  2  0  0  0
 40 58  1  0  0  0
 41109  1  0  0  0
 41110  1  0  0  0
 41111  1  0  0  0
 41 48  1  0  0  0
 42 43  1  0  0  0
 42 66  1  0  0  0
 42112  1  0  0  0
 42113  1  0  0  0
 43 44  1  0  0  0
 44114  1  0  0  0
 45 46  2  0  0  0
 45115  1  0  0  0
 46116  1  0  0  0
 47117  1  0  0  0
 47118  1  0  0  0
 48 56  1  0  0  0
 48 65  1  0  0  0
 48119  1  0  0  0
 49 50  1  0  0  0
 49 53  1  0  0  0
 49 64  1  0  0  0
 49120  1  0  0  0
 50 51  1  0  0  0
 50121  1  0  0  0
 50122  1  0  0  0
 51 52  1  0  0  0
 51123  1  0  0  0
 51124  1  0  0  0
 52125  1  0  0  0
 52126  1  0  0  0
 53 54  1  0  0  0
 54 55  2  0  0  0
 54127  1  0  0  0
 55 57  1  0  0  0
 55128  1  0  0  0
 56 69  2  0  0  0
 57 58  2  0  0  0
 57129  1  0  0  0
 58130  1  0  0  0
 59 60  1  0  0  0
 59 61  1  0  0  0
 59 62  1  0  0  0
 60131  1  0  0  0
 60132  1  0  0  0
 60133  1  0  0  0
 61134  1  0  0  0
 61135  1  0  0  0
 61136  1  0  0  0
 62137  1  0  0  0
 62138  1  0  0  0
 62139  1  0  0  0
 63 65  1  0  0  0
 63140  1  0  0  0
 63141  1  0  0  0
 63142  1  0  0  0
 64143  1  0  0  0
 65144  1  0  0  0
 68 79  1  0  0  0
 71 73  1  0  0  0
 71 74  2  0  0  0
 71145  1  0  0  0
 72 73  2  0  0  0
 72 85  1  0  0  0
 72146  1  0  0  0
 73 81  1  0  0  0
 74 83  1  0  0  0
 74 85  1  0  0  0
 75 79  1  0  0  0
 75 84  2  0  0  0
 75 82  1  0  0  0
 76 80  1  0  0  0
 76147  1  0  0  0
 76148  1  0  0  0
 76149  1  0  0  0
 77150  1  0  0  0
 77151  1  0  0  0
 77152  1  0  0  0
 77 81  1  0  0  0
 78153  1  0  0  0
 78154  1  0  0  0
 78155  1  0  0  0
 78 82  1  0  0  0
 79156  1  0  0  0
 79157  1  0  0  0
 80 82  1  0  0  0
 80158  1  0  0  0
 80159  1  0  0  0
 81 82  1  0  0  0
 81160  1  0  0  0
 83161  1  0  0  0
M  ISO  4   1 100  68 101  79 101  83 100
M  END
> <chiral flag>
0

> <version>
0

> <s_m_source_file>
/data/baiqing/PycharmProjects/Reinvent-master-3.2/result/LINK_invent/BTK/process_docking_weight1_custom_product_contain_oxygen_bond_distance_aromatic_linkinvent_7_9_3/rearranged_h_0146.sdf

> <i_m_source_file_index>
2

> <r_mmod_Potential_Energy-OPLS-2005>
226.404235839844

> <r_mmod_Stretch_Energy-OPLS-2005>
136.229644775391

> <r_mmod_Bend_Energy-OPLS-2005>
183.175140380859

> <r_mmod_Torsional_Energy-OPLS-2005>
237.216323852539

> <r_mmod_Improper_Torsional_Energy-OPLS-2005>
5.77766036987305

> <r_mmod_Van_der_Waal_Energy-OPLS-2005>
125.899528503418

> <r_mmod_Electrostatic_Energy-OPLS-2005>
-317.315368652344

> <r_mmod_Solvation_Energy-OPLS-2005>
-228.366638183594

> <b_mmod_Minimization_Converged-OPLS-2005>
0

> <r_mmod_RMS_Derivative-OPLS-2005>
0.368274360895157

$$$$
2
                    3D
 Structure written by MMmdl.
158167  0  0  1  0            999 V2000
  -30.6967  -14.6214   20.5032 C   0  0  0  0  0  0
  -30.4253  -12.3884   19.4458 C   0  0  0  0  0  0
  -29.4910  -12.4660   18.2203 C   0  0  0  0  0  0
  -28.0251  -12.2584   18.6478 C   0  0  0  0  0  0
  -27.6307  -13.1653   19.8357 C   0  0  2  0  0  0
  -28.6879  -13.1217   20.9704 C   0  0  0  0  0  0
  -25.2495  -13.7985   20.5663 C   0  0  0  0  0  0
  -24.1764  -13.0323   20.9230 C   0  0  0  0  0  0
  -24.6304  -11.6793   20.8801 C   0  0  0  0  0  0
  -23.8984  -10.4216   21.0450 C   0  0  0  0  0  0
  -24.3560   -9.4142   21.9213 C   0  0  0  0  0  0
  -23.6242   -8.2181   22.0770 C   0  0  0  0  0  0
  -22.4227   -8.0237   21.3548 C   0  0  0  0  0  0
  -21.9853   -9.0211   20.4655 C   0  0  0  0  0  0
  -22.7176  -10.2084   20.3076 C   0  0  0  0  0  0
  -21.6828   -6.0700   22.5274 C   0  0  0  0  0  0
  -21.4001   -6.5615   23.8204 C   0  0  0  0  0  0
  -21.3655   -5.6781   24.9176 C   0  0  0  0  0  0
  -21.6047   -4.3045   24.7233 C   0  0  0  0  0  0
  -21.8821   -3.8123   23.4359 C   0  0  0  0  0  0
  -21.9189   -4.6931   22.3406 C   0  0  0  0  0  0
  -22.7807  -13.5184   21.1891 C   0  0  0  0  0  0
  -22.1658   -4.2115   21.0987 F   0  0  0  0  0  0
  -21.5642   -3.4538   25.7752 F   0  0  0  0  0  0
  -30.0028  -13.4408   20.3913 N   0  0  0  0  0  0
  -26.2859  -12.9073   20.3246 N   0  0  0  0  0  0
  -25.9202  -11.6300   20.5798 N   0  0  0  0  0  0
  -22.0435  -12.8199   22.0454 N   0  0  0  0  0  0
  -25.4118  -15.1698   20.4051 N   0  0  0  0  0  0
  -31.8932  -14.6784   20.2068 O   0  0  0  0  0  0
  -21.6605   -6.8833   21.4229 O   0  0  0  0  0  0
  -22.3528  -14.5506   20.6739 O   0  0  0  0  0  0
  -24.6173  -31.8641   23.2065 C   0  0  0  0  0  0
  -25.9050  -32.4799   23.8379 C   0  0  1  0  0  0
  -27.2436  -27.4005   20.1209 C   0  0  0  0  0  0
  -25.5892  -33.8599   24.2311 N   0  0  0  0  0  0
  -23.4084  -30.4845   21.5466 C   0  0  2  0  0  0
  -24.8594  -28.9376   20.1232 C   0  0  0  0  0  0
  -22.7433  -29.4631   22.4976 C   0  0  0  0  0  0
  -18.0288  -28.1368   22.8501 C   0  0  0  0  0  0
  -24.1491  -36.7311   23.2641 C   0  0  0  0  0  0
  -25.9392  -30.8212   21.3646 C   0  0  0  0  0  0
  -26.0194  -29.4499   20.7178 C   0  0  0  0  0  0
  -27.2160  -28.6916   20.7062 C   0  0  0  0  0  0
  -26.0654  -26.9044   19.5254 C   0  0  0  0  0  0
  -24.8788  -27.6656   19.5222 C   0  0  0  0  0  0
  -23.6225  -29.8091   20.1649 C   0  0  0  0  0  0
  -25.4111  -36.3104   24.0340 C   0  0  1  0  0  0
  -20.5874  -28.3663   23.1332 C   0  0  2  0  0  0
  -20.6771  -26.9398   22.5446 C   0  0  0  0  0  0
  -19.5766  -26.6412   21.5218 C   0  0  0  0  0  0
  -18.1948  -26.7917   22.1638 C   0  0  0  0  0  0
  -19.1531  -28.8836   23.2912 C   0  0  0  0  0  0
  -18.9460  -30.1439   23.8913 C   0  0  0  0  0  0
  -17.6461  -30.6582   24.0558 C   0  0  0  0  0  0
  -25.9030  -34.9462   23.5124 C   0  0  0  0  0  0
  -16.5356  -29.9079   23.6319 C   0  0  0  0  0  0
  -16.7273  -28.6492   23.0358 C   0  0  0  0  0  0
  -26.4475  -31.6587   25.0714 C   0  0  0  0  0  0
  -25.3740  -31.3690   26.1463 C   0  0  0  0  0  0
  -27.0306  -30.3028   24.6097 C   0  0  0  0  0  0
  -27.6053  -32.4309   25.7474 C   0  0  0  0  0  0
  -27.5583  -37.1813   24.8464 C   0  0  0  0  0  0
  -21.4154  -29.3020   22.3729 N   0  0  0  0  0  0
  -26.4295  -37.3789   23.9406 N   0  0  0  0  0  0
  -24.6732  -31.0718   22.0977 N   0  0  0  0  0  0
  -23.4198  -28.8184   23.3038 O   0  0  0  0  0  0
  -28.4183  -26.6711   20.0668 O   0  0  0  0  0  0
  -26.5599  -34.8912   22.4687 O   0  0  0  0  0  0
  -23.5356  -32.1395   23.7442 O   0  0  0  0  0  0
  -29.8228  -19.6004   21.1293 C   0  0  0  0  0  0
  -27.8214  -19.8896   19.7357 C   0  0  0  0  0  0
  -29.7591  -18.2001   20.8628 C   0  0  0  0  0  0
  -28.7438  -17.6814   20.0880 C   0  0  0  0  0  0
  -27.7690  -18.5013   19.4876 C   0  0  0  0  0  0
  -28.8246  -20.4568   20.5603 C   0  0  0  0  0  0
  -29.0000  -22.8931   20.1035 C   0  0  0  0  0  0
  -30.6401  -17.0383   21.3365 C   0  0  0  0  0  0
  -28.8227  -16.1819   20.0691 C   0  0  0  0  0  0
  -26.6578  -17.9326   18.6249 C   0  0  0  0  0  0
  -28.0532  -24.1307   20.0551 C   0  0  0  0  0  0
  -28.4959  -25.4262   20.8062 C   0  0  0  0  0  0
  -30.0154  -15.7703   20.8312 N   0  0  0  0  0  0
  -28.6631  -21.8454   20.8909 N   0  0  0  0  0  0
  -30.0259  -22.8879   19.4187 O   0  0  0  0  0  0
  -31.4637  -12.5010   19.1294 H   0  0  0  0  0  0
  -30.3634  -11.4071   19.9198 H   0  0  0  0  0  0
  -29.7727  -11.7108   17.4855 H   0  0  0  0  0  0
  -29.6014  -13.4323   17.7254 H   0  0  0  0  0  0
  -27.9048  -11.2113   18.9283 H   0  0  0  0  0  0
  -27.3556  -12.4264   17.8039 H   0  0  0  0  0  0
  -27.5824  -14.1393   19.3760 H   0  0  0  0  0  0
  -28.7133  -12.1311   21.4285 H   0  0  0  0  0  0
  -28.4287  -13.8140   21.7728 H   0  0  0  0  0  0
  -25.2710   -9.5620   22.4779 H   0  0  0  0  0  0
  -23.9954   -7.4566   22.7480 H   0  0  0  0  0  0
  -21.0794   -8.8725   19.8949 H   0  0  0  0  0  0
  -22.3658  -10.9628   19.6184 H   0  0  0  0  0  0
  -21.1983   -7.6126   23.9692 H   0  0  0  0  0  0
  -21.1482   -6.0523   25.9078 H   0  0  0  0  0  0
  -22.0607   -2.7583   23.2874 H   0  0  0  0  0  0
  -22.4025  -11.9841   22.4827 H   0  0  0  0  0  0
  -21.1069  -13.1255   22.2696 H   0  0  0  0  0  0
  -24.6403  -15.8138   20.5397 H   0  0  0  0  0  0
  -26.2560  -15.6227   20.0876 H   0  0  0  0  0  0
  -26.7122  -32.5507   23.1144 H   0  0  0  0  0  0
  -25.0044  -33.9759   25.0461 H   0  0  0  0  0  0
  -22.6982  -31.3011   21.4007 H   0  0  0  0  0  0
  -23.3741  -35.9655   23.3310 H   0  0  0  0  0  0
  -24.3588  -36.8920   22.2053 H   0  0  0  0  0  0
  -23.7246  -37.6522   23.6646 H   0  0  0  0  0  0
  -26.0516  -31.5830   20.5920 H   0  0  0  0  0  0
  -26.8266  -30.8793   21.9834 H   0  0  0  0  0  0
  -28.1165  -29.0890   21.1546 H   0  0  0  0  0  0
  -26.0662  -25.9339   19.0505 H   0  0  0  0  0  0
  -23.9881  -27.2666   19.0570 H   0  0  0  0  0  0
  -23.7354  -30.5790   19.4013 H   0  0  0  0  0  0
  -22.7469  -29.2299   19.8678 H   0  0  0  0  0  0
  -25.1289  -36.1972   25.0834 H   0  0  0  0  0  0
  -20.9967  -28.3239   24.1453 H   0  0  0  0  0  0
  -20.5637  -26.2272   23.3629 H   0  0  0  0  0  0
  -21.6657  -26.7421   22.1283 H   0  0  0  0  0  0
  -19.6934  -25.6350   21.1188 H   0  0  0  0  0  0
  -19.6706  -27.3293   20.6799 H   0  0  0  0  0  0
  -17.4206  -26.6630   21.4062 H   0  0  0  0  0  0
  -18.0379  -26.0062   22.9042 H   0  0  0  0  0  0
  -19.7932  -30.7255   24.2290 H   0  0  0  0  0  0
  -17.5016  -31.6273   24.5129 H   0  0  0  0  0  0
  -15.5356  -30.2993   23.7613 H   0  0  0  0  0  0
  -15.8673  -28.0811   22.7072 H   0  0  0  0  0  0
  -24.5912  -30.7039   25.7799 H   0  0  0  0  0  0
  -24.8930  -32.2840   26.4929 H   0  0  0  0  0  0
  -25.8099  -30.8846   27.0209 H   0  0  0  0  0  0
  -26.2846  -29.6784   24.1163 H   0  0  0  0  0  0
  -27.4086  -29.7271   25.4558 H   0  0  0  0  0  0
  -27.8679  -30.4348   23.9238 H   0  0  0  0  0  0
  -27.2674  -33.3598   26.2082 H   0  0  0  0  0  0
  -28.3842  -32.6890   25.0285 H   0  0  0  0  0  0
  -28.0738  -31.8408   26.5363 H   0  0  0  0  0  0
  -28.2613  -38.0103   24.7504 H   0  0  0  0  0  0
  -28.1071  -36.2631   24.6301 H   0  0  0  0  0  0
  -27.2297  -37.1477   25.8869 H   0  0  0  0  0  0
  -20.9303  -29.8745   21.6966 H   0  0  0  0  0  0
  -26.0184  -38.2870   24.1398 H   0  0  0  0  0  0
  -30.5884  -20.0009   21.7798 H   0  0  0  0  0  0
  -27.0547  -20.5255   19.3143 H   0  0  0  0  0  0
  -30.6924  -17.0206   22.4254 H   0  0  0  0  0  0
  -31.6526  -17.1672   20.9505 H   0  0  0  0  0  0
  -28.8563  -15.8327   19.0354 H   0  0  0  0  0  0
  -27.9387  -15.8228   20.5860 H   0  0  0  0  0  0
  -25.7514  -17.7958   19.2148 H   0  0  0  0  0  0
  -26.9310  -16.9746   18.1843 H   0  0  0  0  0  0
  -26.4218  -18.6139   17.8073 H   0  0  0  0  0  0
  -27.0544  -23.8417   20.3822 H   0  0  0  0  0  0
  -27.9445  -24.3728   18.9981 H   0  0  0  0  0  0
  -29.5361  -25.3199   21.1154 H   0  0  0  0  0  0
  -27.9307  -25.5199   21.7354 H   0  0  0  0  0  0
  -27.8769  -22.0343   21.4988 H   0  0  0  0  0  0
  1 25  1  0  0  0
  1 30  2  0  0  0
  1 83  1  0  0  0
  2  3  1  0  0  0
  2 25  1  0  0  0
  2 86  1  0  0  0
  2 87  1  0  0  0
  3  4  1  0  0  0
  3 88  1  0  0  0
  3 89  1  0  0  0
  4  5  1  0  0  0
  4 90  1  0  0  0
  4 91  1  0  0  0
  5  6  1  0  0  0
  5 26  1  0  0  0
  5 92  1  0  0  0
  6 25  1  0  0  0
  6 93  1  0  0  0
  6 94  1  0  0  0
  7  8  2  0  0  0
  7 26  1  0  0  0
  7 29  1  0  0  0
  8  9  1  0  0  0
  8 22  1  0  0  0
  9 10  1  0  0  0
  9 27  2  0  0  0
 10 11  2  0  0  0
 10 15  1  0  0  0
 11 12  1  0  0  0
 11 95  1  0  0  0
 12 13  2  0  0  0
 12 96  1  0  0  0
 13 14  1  0  0  0
 13 31  1  0  0  0
 14 15  2  0  0  0
 14 97  1  0  0  0
 15 98  1  0  0  0
 16 17  2  0  0  0
 16 21  1  0  0  0
 16 31  1  0  0  0
 17 18  1  0  0  0
 17 99  1  0  0  0
 18 19  2  0  0  0
 18100  1  0  0  0
 19 20  1  0  0  0
 19 24  1  0  0  0
 20 21  2  0  0  0
 20101  1  0  0  0
 21 23  1  0  0  0
 22 28  1  0  0  0
 22 32  2  0  0  0
 26 27  1  0  0  0
 28102  1  0  0  0
 28103  1  0  0  0
 29104  1  0  0  0
 29105  1  0  0  0
 33 34  1  0  0  0
 33 66  1  0  0  0
 33 70  2  0  0  0
 34 36  1  0  0  0
 34 59  1  0  0  0
 34106  1  0  0  0
 35 44  2  0  0  0
 35 45  1  0  0  0
 35 68  1  0  0  0
 36 56  1  0  0  0
 36107  1  0  0  0
 37 39  1  0  0  0
 37 47  1  0  0  0
 37 66  1  0  0  0
 37108  1  0  0  0
 38 43  2  0  0  0
 38 46  1  0  0  0
 38 47  1  0  0  0
 39 64  1  0  0  0
 39 67  2  0  0  0
 40 52  1  0  0  0
 40 53  2  0  0  0
 40 58  1  0  0  0
 41109  1  0  0  0
 41110  1  0  0  0
 41111  1  0  0  0
 41 48  1  0  0  0
 42 43  1  0  0  0
 42 66  1  0  0  0
 42112  1  0  0  0
 42113  1  0  0  0
 43 44  1  0  0  0
 44114  1  0  0  0
 45 46  2  0  0  0
 45115  1  0  0  0
 46116  1  0  0  0
 47117  1  0  0  0
 47118  1  0  0  0
 48 56  1  0  0  0
 48 65  1  0  0  0
 48119  1  0  0  0
 49 50  1  0  0  0
 49 53  1  0  0  0
 49 64  1  0  0  0
 49120  1  0  0  0
 50 51  1  0  0  0
 50121  1  0  0  0
 50122  1  0  0  0
 51 52  1  0  0  0
 51123  1  0  0  0
 51124  1  0  0  0
 52125  1  0  0  0
 52126  1  0  0  0
 53 54  1  0  0  0
 54 55  2  0  0  0
 54127  1  0  0  0
 55 57  1  0  0  0
 55128  1  0  0  0
 56 69  2  0  0  0
 57 58  2  0  0  0
 57129  1  0  0  0
 58130  1  0  0  0
 59 60  1  0  0  0
 59 61  1  0  0  0
 59 62  1  0  0  0
 60131  1  0  0  0
 60132  1  0  0  0
 60133  1  0  0  0
 61134  1  0  0  0
 61135  1  0  0  0
 61136  1  0  0  0
 62137  1  0  0  0
 62138  1  0  0  0
 62139  1  0  0  0
 63 65  1  0  0  0
 63140  1  0  0  0
 63141  1  0  0  0
 63142  1  0  0  0
 64143  1  0  0  0
 65144  1  0  0  0
 68 82  1  0  0  0
 71 73  2  0  0  0
 71 76  1  0  0  0
 71145  1  0  0  0
 72 75  1  0  0  0
 72 76  2  0  0  0
 72146  1  0  0  0
 73 74  1  0  0  0
 73 78  1  0  0  0
 74 75  2  0  0  0
 74 79  1  0  0  0
 75 80  1  0  0  0
 76 84  1  0  0  0
 77 81  1  0  0  0
 77 84  1  0  0  0
 77 85  2  0  0  0
 78 83  1  0  0  0
 78147  1  0  0  0
 78148  1  0  0  0
 79 83  1  0  0  0
 79149  1  0  0  0
 79150  1  0  0  0
 80151  1  0  0  0
 80152  1  0  0  0
 80153  1  0  0  0
 81 82  1  0  0  0
 81154  1  0  0  0
 81155  1  0  0  0
 82156  1  0  0  0
 82157  1  0  0  0
 84158  1  0  0  0
M  ISO  4   1 100  68 101  82 101  83 100
M  END
> <chiral flag>
0

> <version>
0

> <s_m_source_file>
/data/baiqing/PycharmProjects/Reinvent-master-3.2/result/LINK_invent/BTK/process_docking_weight1_custom_product_contain_oxygen_bond_distance_aromatic_linkinvent_7_9_3/rearranged_h_0146.sdf

> <i_m_source_file_index>
3

> <r_mmod_Potential_Energy-OPLS-2005>
134.620803833008

> <r_mmod_Stretch_Energy-OPLS-2005>
54.0704193115234

> <r_mmod_Bend_Energy-OPLS-2005>
164.297576904297

> <r_mmod_Torsional_Energy-OPLS-2005>
330.709259033203

> <r_mmod_Improper_Torsional_Energy-OPLS-2005>
8.31550312042236

> <r_mmod_Van_der_Waal_Energy-OPLS-2005>
138.865036010742

> <r_mmod_Electrostatic_Energy-OPLS-2005>
-362.838806152344

> <r_mmod_Solvation_Energy-OPLS-2005>
-236.618347167969

> <b_mmod_Minimization_Converged-OPLS-2005>
0

> <r_mmod_RMS_Derivative-OPLS-2005>
1.26647818088531

$$$$
3
                    3D
 Structure written by MMmdl.
154163  0  0  1  0            999 V2000
  -30.5418  -14.9267   20.4564 C   0  0  0  0  0  0
  -30.4306  -12.5793   19.5122 C   0  0  0  0  0  0
  -29.5221  -12.5518   18.2619 C   0  0  0  0  0  0
  -28.0534  -12.3284   18.6671 C   0  0  0  0  0  0
  -27.6267  -13.2488   19.8423 C   0  0  2  0  0  0
  -28.6604  -13.2554   20.9891 C   0  0  0  0  0  0
  -25.2443  -13.8209   20.5653 C   0  0  0  0  0  0
  -24.1782  -13.0440   20.9169 C   0  0  0  0  0  0
  -24.6388  -11.6909   20.8696 C   0  0  0  0  0  0
  -23.9089  -10.4272   21.0371 C   0  0  0  0  0  0
  -24.3630   -9.4206   21.9166 C   0  0  0  0  0  0
  -23.6288   -8.2254   22.0747 C   0  0  0  0  0  0
  -22.4264   -8.0280   21.3555 C   0  0  0  0  0  0
  -21.9916   -9.0247   20.4651 C   0  0  0  0  0  0
  -22.7246  -10.2122   20.3049 C   0  0  0  0  0  0
  -21.6876   -6.0727   22.5272 C   0  0  0  0  0  0
  -21.4027   -6.5627   23.8206 C   0  0  0  0  0  0
  -21.3662   -5.6780   24.9170 C   0  0  0  0  0  0
  -21.6073   -4.3045   24.7230 C   0  0  0  0  0  0
  -21.8824   -3.8133   23.4345 C   0  0  0  0  0  0
  -21.9200   -4.6951   22.3397 C   0  0  0  0  0  0
  -22.7803  -13.5197   21.1856 C   0  0  0  0  0  0
  -22.1662   -4.2142   21.0977 F   0  0  0  0  0  0
  -21.5634   -3.4524   25.7742 F   0  0  0  0  0  0
  -29.9423  -13.6683   20.4092 N   0  0  0  0  0  0
  -26.2857  -12.9438   20.3196 N   0  0  0  0  0  0
  -25.9315  -11.6565   20.5666 N   0  0  0  0  0  0
  -22.0464  -12.8193   22.0419 N   0  0  0  0  0  0
  -25.4103  -15.1947   20.4059 N   0  0  0  0  0  0
  -31.7404  -14.9686   20.1600 O   0  0  0  0  0  0
  -21.6660   -6.8866   21.4234 O   0  0  0  0  0  0
  -22.3480  -14.5510   20.6700 O   0  0  0  0  0  0
  -24.6454  -31.8484   23.1888 C   0  0  0  0  0  0
  -25.9217  -32.4738   23.8290 C   0  0  1  0  0  0
  -27.1999  -27.1257   20.1577 C   0  0  0  0  0  0
  -25.5955  -33.8542   24.2207 N   0  0  0  0  0  0
  -23.4463  -30.4647   21.5423 C   0  0  2  0  0  0
  -24.8877  -28.8892   20.1144 C   0  0  0  0  0  0
  -22.7573  -29.4572   22.4961 C   0  0  0  0  0  0
  -18.0286  -28.1387   22.8500 C   0  0  0  0  0  0
  -24.1486  -36.7258   23.2639 C   0  0  0  0  0  0
  -26.0030  -30.7142   21.3868 C   0  0  0  0  0  0
  -26.0688  -29.3250   20.7283 C   0  0  0  0  0  0
  -27.2287  -28.4601   20.7300 C   0  0  0  0  0  0
  -25.9989  -26.7991   19.4889 C   0  0  0  0  0  0
  -24.8654  -27.6389   19.4785 C   0  0  0  0  0  0
  -23.6675  -29.7963   20.1609 C   0  0  0  0  0  0
  -25.4125  -36.3067   24.0320 C   0  0  1  0  0  0
  -20.5910  -28.3716   23.1264 C   0  0  2  0  0  0
  -20.6788  -26.9428   22.5419 C   0  0  0  0  0  0
  -19.5757  -26.6376   21.5237 C   0  0  0  0  0  0
  -18.1931  -26.7925   22.1638 C   0  0  0  0  0  0
  -19.1545  -28.8872   23.2864 C   0  0  0  0  0  0
  -18.9468  -30.1464   23.8894 C   0  0  0  0  0  0
  -17.6469  -30.6605   24.0556 C   0  0  0  0  0  0
  -25.9075  -34.9438   23.5074 C   0  0  0  0  0  0
  -16.5352  -29.9096   23.6341 C   0  0  0  0  0  0
  -16.7274  -28.6497   23.0391 C   0  0  0  0  0  0
  -26.4496  -31.6591   25.0730 C   0  0  0  0  0  0
  -25.3647  -31.3824   26.1401 C   0  0  0  0  0  0
  -27.0335  -30.2980   24.6298 C   0  0  0  0  0  0
  -27.6026  -32.4348   25.7527 C   0  0  0  0  0  0
  -27.5583  -37.1785   24.8470 C   0  0  0  0  0  0
  -21.4277  -29.3040   22.3666 N   0  0  0  0  0  0
  -26.4292  -37.3775   23.9415 N   0  0  0  0  0  0
  -24.7190  -31.0292   22.0958 N   0  0  0  0  0  0
  -23.4203  -28.8135   23.3127 O   0  0  0  0  0  0
  -28.2454  -26.1307   20.1984 O   0  0  0  0  0  0
  -26.5691  -34.8941   22.4666 O   0  0  0  0  0  0
  -23.5563  -32.1383   23.7087 O   0  0  0  0  0  0
  -30.6654  -20.3888   19.6950 C   0  0  0  0  0  0
  -29.2038  -18.7970   20.7889 C   0  0  0  0  0  0
  -31.1661  -17.9612   19.6540 C   0  0  0  0  0  0
  -29.4810  -20.2260   20.4385 C   0  0  0  0  0  0
  -31.4794  -19.2976   19.3168 C   0  0  0  0  0  0
  -30.0252  -17.6096   20.4077 C   0  0  0  0  0  0
  -27.6411  -22.1002   19.8175 C   0  0  0  0  0  0
  -28.6687  -21.6232   20.7898 C   0  0  2  0  0  0
  -28.6537  -23.1911   20.1497 C   0  0  2  0  0  0
  -32.7367  -19.5565   18.5191 C   0  0  0  0  0  0
  -27.9403  -24.6465   20.5843 C   0  0  0  0  0  0
  -29.7762  -16.1126   20.6787 N   0  0  0  0  0  0
  -31.4676  -12.7252   19.2090 H   0  0  0  0  0  0
  -30.4080  -11.6188   20.0305 H   0  0  0  0  0  0
  -29.8482  -11.7749   17.5710 H   0  0  0  0  0  0
  -29.6168  -13.4997   17.7286 H   0  0  0  0  0  0
  -27.9514  -11.2792   18.9494 H   0  0  0  0  0  0
  -27.4001  -12.4767   17.8066 H   0  0  0  0  0  0
  -27.5948  -14.2560   19.4267 H   0  0  0  0  0  0
  -28.7383  -12.2691   21.4481 H   0  0  0  0  0  0
  -28.3469  -13.9415   21.7757 H   0  0  0  0  0  0
  -25.2785   -9.5692   22.4730 H   0  0  0  0  0  0
  -24.0009   -7.4667   22.7481 H   0  0  0  0  0  0
  -21.0849   -8.8771   19.8952 H   0  0  0  0  0  0
  -22.3706  -10.9653   19.6156 H   0  0  0  0  0  0
  -21.2013   -7.6134   23.9706 H   0  0  0  0  0  0
  -21.1486   -6.0510   25.9078 H   0  0  0  0  0  0
  -22.0597   -2.7589   23.2854 H   0  0  0  0  0  0
  -22.4071  -11.9856   22.4839 H   0  0  0  0  0  0
  -21.1086  -13.1234   22.2627 H   0  0  0  0  0  0
  -24.6383  -15.8428   20.5118 H   0  0  0  0  0  0
  -26.2548  -15.6381   20.0674 H   0  0  0  0  0  0
  -26.7298  -32.5313   23.1029 H   0  0  0  0  0  0
  -25.0048  -33.9693   25.0315 H   0  0  0  0  0  0
  -22.7484  -31.2915   21.3936 H   0  0  0  0  0  0
  -23.3786  -35.9544   23.3290 H   0  0  0  0  0  0
  -24.3565  -36.8908   22.2053 H   0  0  0  0  0  0
  -23.7189  -37.6430   23.6680 H   0  0  0  0  0  0
  -26.1504  -31.4652   20.6093 H   0  0  0  0  0  0
  -26.8792  -30.7700   22.0224 H   0  0  0  0  0  0
  -28.1323  -28.7887   21.2246 H   0  0  0  0  0  0
  -25.9093  -25.8526   18.9754 H   0  0  0  0  0  0
  -23.9639  -27.3041   18.9822 H   0  0  0  0  0  0
  -23.8027  -30.5760   19.4111 H   0  0  0  0  0  0
  -22.7782  -29.2452   19.8528 H   0  0  0  0  0  0
  -25.1304  -36.1911   25.0811 H   0  0  0  0  0  0
  -20.9959  -28.3278   24.1398 H   0  0  0  0  0  0
  -20.5705  -26.2330   23.3640 H   0  0  0  0  0  0
  -21.6653  -26.7458   22.1195 H   0  0  0  0  0  0
  -19.6926  -25.6277   21.1292 H   0  0  0  0  0  0
  -19.6692  -27.3178   20.6758 H   0  0  0  0  0  0
  -17.4214  -26.6689   21.4033 H   0  0  0  0  0  0
  -18.0310  -26.0064   22.9020 H   0  0  0  0  0  0
  -19.7941  -30.7279   24.2272 H   0  0  0  0  0  0
  -17.5021  -31.6285   24.5139 H   0  0  0  0  0  0
  -15.5360  -30.2999   23.7665 H   0  0  0  0  0  0
  -15.8666  -28.0797   22.7156 H   0  0  0  0  0  0
  -24.5825  -30.7183   25.7718 H   0  0  0  0  0  0
  -24.8830  -32.3031   26.4709 H   0  0  0  0  0  0
  -25.7866  -30.9066   27.0261 H   0  0  0  0  0  0
  -26.2943  -29.6750   24.1257 H   0  0  0  0  0  0
  -27.3898  -29.7241   25.4862 H   0  0  0  0  0  0
  -27.8874  -30.4238   23.9643 H   0  0  0  0  0  0
  -27.2615  -33.3673   26.2046 H   0  0  0  0  0  0
  -28.3860  -32.6880   25.0371 H   0  0  0  0  0  0
  -28.0658  -31.8513   26.5496 H   0  0  0  0  0  0
  -28.2596  -38.0093   24.7540 H   0  0  0  0  0  0
  -28.1099  -36.2624   24.6267 H   0  0  0  0  0  0
  -27.2314  -37.1390   25.8882 H   0  0  0  0  0  0
  -20.9507  -29.8715   21.6805 H   0  0  0  0  0  0
  -26.0179  -38.2848   24.1424 H   0  0  0  0  0  0
  -30.9603  -21.3883   19.4066 H   0  0  0  0  0  0
  -28.3223  -18.5996   21.3834 H   0  0  0  0  0  0
  -31.8395  -17.2005   19.2955 H   0  0  0  0  0  0
  -26.6312  -22.1981   20.2121 H   0  0  0  0  0  0
  -27.6848  -21.6740   18.8172 H   0  0  0  0  0  0
  -28.3910  -21.5842   21.8427 H   0  0  0  0  0  0
  -29.4460  -23.3532   19.4240 H   0  0  0  0  0  0
  -32.6673  -20.4960   17.9740 H   0  0  0  0  0  0
  -32.9002  -18.7550   17.7981 H   0  0  0  0  0  0
  -33.5992  -19.6068   19.1851 H   0  0  0  0  0  0
  -27.9670  -24.6508   21.6723 H   0  0  0  0  0  0
  -26.8849  -24.5014   20.3690 H   0  0  0  0  0  0
  -28.8435  -15.9022   21.0017 H   0  0  0  0  0  0
  1 25  1  0  0  0
  1 30  2  0  0  0
  1 82  1  0  0  0
  2  3  1  0  0  0
  2 25  1  0  0  0
  2 83  1  0  0  0
  2 84  1  0  0  0
  3  4  1  0  0  0
  3 85  1  0  0  0
  3 86  1  0  0  0
  4  5  1  0  0  0
  4 87  1  0  0  0
  4 88  1  0  0  0
  5  6  1  0  0  0
  5 26  1  0  0  0
  5 89  1  0  0  0
  6 25  1  0  0  0
  6 90  1  0  0  0
  6 91  1  0  0  0
  7  8  2  0  0  0
  7 26  1  0  0  0
  7 29  1  0  0  0
  8  9  1  0  0  0
  8 22  1  0  0  0
  9 10  1  0  0  0
  9 27  2  0  0  0
 10 11  2  0  0  0
 10 15  1  0  0  0
 11 12  1  0  0  0
 11 92  1  0  0  0
 12 13  2  0  0  0
 12 93  1  0  0  0
 13 14  1  0  0  0
 13 31  1  0  0  0
 14 15  2  0  0  0
 14 94  1  0  0  0
 15 95  1  0  0  0
 16 17  2  0  0  0
 16 21  1  0  0  0
 16 31  1  0  0  0
 17 18  1  0  0  0
 17 96  1  0  0  0
 18 19  2  0  0  0
 18 97  1  0  0  0
 19 20  1  0  0  0
 19 24  1  0  0  0
 20 21  2  0  0  0
 20 98  1  0  0  0
 21 23  1  0  0  0
 22 28  1  0  0  0
 22 32  2  0  0  0
 26 27  1  0  0  0
 28 99  1  0  0  0
 28100  1  0  0  0
 29101  1  0  0  0
 29102  1  0  0  0
 33 34  1  0  0  0
 33 66  1  0  0  0
 33 70  2  0  0  0
 34 36  1  0  0  0
 34 59  1  0  0  0
 34103  1  0  0  0
 35 44  2  0  0  0
 35 45  1  0  0  0
 35 68  1  0  0  0
 36 56  1  0  0  0
 36104  1  0  0  0
 37 39  1  0  0  0
 37 47  1  0  0  0
 37 66  1  0  0  0
 37105  1  0  0  0
 38 43  2  0  0  0
 38 46  1  0  0  0
 38 47  1  0  0  0
 39 64  1  0  0  0
 39 67  2  0  0  0
 40 52  1  0  0  0
 40 53  2  0  0  0
 40 58  1  0  0  0
 41106  1  0  0  0
 41107  1  0  0  0
 41108  1  0  0  0
 41 48  1  0  0  0
 42 43  1  0  0  0
 42 66  1  0  0  0
 42109  1  0  0  0
 42110  1  0  0  0
 43 44  1  0  0  0
 44111  1  0  0  0
 45 46  2  0  0  0
 45112  1  0  0  0
 46113  1  0  0  0
 47114  1  0  0  0
 47115  1  0  0  0
 48 56  1  0  0  0
 48 65  1  0  0  0
 48116  1  0  0  0
 49 50  1  0  0  0
 49 53  1  0  0  0
 49 64  1  0  0  0
 49117  1  0  0  0
 50 51  1  0  0  0
 50118  1  0  0  0
 50119  1  0  0  0
 51 52  1  0  0  0
 51120  1  0  0  0
 51121  1  0  0  0
 52122  1  0  0  0
 52123  1  0  0  0
 53 54  1  0  0  0
 54 55  2  0  0  0
 54124  1  0  0  0
 55 57  1  0  0  0
 55125  1  0  0  0
 56 69  2  0  0  0
 57 58  2  0  0  0
 57126  1  0  0  0
 58127  1  0  0  0
 59 60  1  0  0  0
 59 61  1  0  0  0
 59 62  1  0  0  0
 60128  1  0  0  0
 60129  1  0  0  0
 60130  1  0  0  0
 61131  1  0  0  0
 61132  1  0  0  0
 61133  1  0  0  0
 62134  1  0  0  0
 62135  1  0  0  0
 62136  1  0  0  0
 63 65  1  0  0  0
 63137  1  0  0  0
 63138  1  0  0  0
 63139  1  0  0  0
 64140  1  0  0  0
 65141  1  0  0  0
 68 81  1  0  0  0
 71 74  2  0  0  0
 71 75  1  0  0  0
 71142  1  0  0  0
 72 74  1  0  0  0
 72 76  2  0  0  0
 72143  1  0  0  0
 73 75  2  0  0  0
 73 76  1  0  0  0
 73144  1  0  0  0
 74 78  1  0  0  0
 75 80  1  0  0  0
 76 82  1  0  0  0
 77 78  1  0  0  0
 77 79  1  0  0  0
 77145  1  0  0  0
 77146  1  0  0  0
 78 79  1  0  0  0
 78147  1  0  0  0
 79 81  1  0  0  0
 79148  1  0  0  0
 80149  1  0  0  0
 80150  1  0  0  0
 80151  1  0  0  0
 81152  1  0  0  0
 81153  1  0  0  0
 82154  1  0  0  0
M  ISO  4   1 100  68 101  81 101  82 100
M  END
> <chiral flag>
0

> <version>
0

> <s_m_source_file>
/data/baiqing/PycharmProjects/Reinvent-master-3.2/result/LINK_invent/BTK/process_docking_weight1_custom_product_contain_oxygen_bond_distance_aromatic_linkinvent_7_9_3/rearranged_h_0146.sdf

> <i_m_source_file_index>
4

> <r_mmod_Potential_Energy-OPLS-2005>
551.451110839844

> <r_mmod_Stretch_Energy-OPLS-2005>
278.603179931641

> <r_mmod_Bend_Energy-OPLS-2005>
252.268966674805

> <r_mmod_Torsional_Energy-OPLS-2005>
262.509216308594

> <r_mmod_Improper_Torsional_Energy-OPLS-2005>
3.4031777381897

> <r_mmod_Van_der_Waal_Energy-OPLS-2005>
135.653503417969

> <r_mmod_Electrostatic_Energy-OPLS-2005>
-364.944854736328

> <r_mmod_Solvation_Energy-OPLS-2005>
-202.07048034668

> <b_mmod_Minimization_Converged-OPLS-2005>
0

> <r_mmod_RMS_Derivative-OPLS-2005>
4.20797252655029

$$$$
4
                    3D
 Structure written by MMmdl.
166175  0  0  1  0            999 V2000
  -30.7345  -14.4982   20.4939 C   0  0  0  0  0  0
  -30.4046  -12.3035   19.4432 C   0  0  0  0  0  0
  -29.4915  -12.4807   18.2139 C   0  0  0  0  0  0
  -28.0115  -12.3580   18.6229 C   0  0  0  0  0  0
  -27.6523  -13.2222   19.8624 C   0  0  2  0  0  0
  -28.6977  -13.0714   20.9914 C   0  0  0  0  0  0
  -25.2549  -13.8203   20.5693 C   0  0  0  0  0  0
  -24.1819  -13.0453   20.9198 C   0  0  0  0  0  0
  -24.6396  -11.6925   20.8750 C   0  0  0  0  0  0
  -23.9076  -10.4298   21.0413 C   0  0  0  0  0  0
  -24.3624   -9.4210   21.9188 C   0  0  0  0  0  0
  -23.6298   -8.2247   22.0757 C   0  0  0  0  0  0
  -22.4284   -8.0282   21.3544 C   0  0  0  0  0  0
  -21.9920   -9.0259   20.4645 C   0  0  0  0  0  0
  -22.7254  -10.2139   20.3052 C   0  0  0  0  0  0
  -21.6855   -6.0738   22.5281 C   0  0  0  0  0  0
  -21.4014   -6.5641   23.8215 C   0  0  0  0  0  0
  -21.3656   -5.6793   24.9176 C   0  0  0  0  0  0
  -21.6045   -4.3056   24.7229 C   0  0  0  0  0  0
  -21.8819   -3.8148   23.4349 C   0  0  0  0  0  0
  -21.9194   -4.6965   22.3404 C   0  0  0  0  0  0
  -22.7834  -13.5231   21.1851 C   0  0  0  0  0  0
  -22.1662   -4.2149   21.0985 F   0  0  0  0  0  0
  -21.5627   -3.4540   25.7740 F   0  0  0  0  0  0
  -30.0240  -13.3390   20.4190 N   0  0  0  0  0  0
  -26.2986  -12.9398   20.3332 N   0  0  0  0  0  0
  -25.9326  -11.6544   20.5778 N   0  0  0  0  0  0
  -22.0482  -12.8210   22.0402 N   0  0  0  0  0  0
  -25.4250  -15.1923   20.4099 N   0  0  0  0  0  0
  -31.9241  -14.5288   20.1845 O   0  0  0  0  0  0
  -21.6644   -6.8883   21.4244 O   0  0  0  0  0  0
  -22.3519  -14.5540   20.6709 O   0  0  0  0  0  0
  -24.6182  -31.8676   23.2133 C   0  0  0  0  0  0
  -25.9076  -32.4822   23.8407 C   0  0  1  0  0  0
  -27.2104  -27.3943   20.0931 C   0  0  0  0  0  0
  -25.5929  -33.8624   24.2325 N   0  0  0  0  0  0
  -23.4057  -30.4959   21.5550 C   0  0  2  0  0  0
  -24.8467  -28.9733   20.1080 C   0  0  0  0  0  0
  -22.7432  -29.4650   22.4982 C   0  0  0  0  0  0
  -18.0274  -28.1375   22.8488 C   0  0  0  0  0  0
  -24.1486  -36.7299   23.2633 C   0  0  0  0  0  0
  -25.9414  -30.8180   21.3778 C   0  0  0  0  0  0
  -26.0120  -29.4544   20.7170 C   0  0  0  0  0  0
  -27.1951  -28.6710   20.7125 C   0  0  0  0  0  0
  -26.0280  -26.9665   19.4382 C   0  0  0  0  0  0
  -24.8513  -27.7292   19.4656 C   0  0  0  0  0  0
  -23.6140  -29.8455   20.1638 C   0  0  0  0  0  0
  -25.4109  -36.3105   24.0329 C   0  0  1  0  0  0
  -20.5870  -28.3666   23.1309 C   0  0  2  0  0  0
  -20.6772  -26.9400   22.5415 C   0  0  0  0  0  0
  -19.5750  -26.6386   21.5210 C   0  0  0  0  0  0
  -18.1922  -26.7927   22.1615 C   0  0  0  0  0  0
  -19.1525  -28.8837   23.2893 C   0  0  0  0  0  0
  -18.9461  -30.1447   23.8905 C   0  0  0  0  0  0
  -17.6467  -30.6591   24.0561 C   0  0  0  0  0  0
  -25.9043  -34.9476   23.5121 C   0  0  0  0  0  0
  -16.5354  -29.9088   23.6334 C   0  0  0  0  0  0
  -16.7263  -28.6503   23.0352 C   0  0  0  0  0  0
  -26.4489  -31.6607   25.0742 C   0  0  0  0  0  0
  -25.3742  -31.3732   26.1484 C   0  0  0  0  0  0
  -27.0320  -30.3040   24.6139 C   0  0  0  0  0  0
  -27.6047  -32.4344   25.7519 C   0  0  0  0  0  0
  -27.5585  -37.1796   24.8458 C   0  0  0  0  0  0
  -21.4162  -29.3038   22.3729 N   0  0  0  0  0  0
  -26.4291  -37.3794   23.9418 N   0  0  0  0  0  0
  -24.6735  -31.0748   22.1056 N   0  0  0  0  0  0
  -23.4200  -28.8179   23.3019 O   0  0  0  0  0  0
  -28.3464  -26.5929   20.1581 O   0  0  0  0  0  0
  -26.5600  -34.8931   22.4678 O   0  0  0  0  0  0
  -23.5369  -32.1470   23.7498 O   0  0  0  0  0  0
  -31.8215  -18.6230   19.1803 C   0  0  0  0  0  0
  -31.5264  -17.3067   19.5619 C   0  0  0  0  0  0
  -29.5742  -18.0961   20.7588 C   0  0  0  0  0  0
  -30.9939  -19.6941   19.5566 C   0  0  0  0  0  0
  -29.8572  -19.4427   20.3757 C   0  0  0  0  0  0
  -30.3957  -17.0005   20.3625 C   0  0  0  0  0  0
  -28.7101  -22.8573   20.6305 C   0  0  0  0  0  0
  -29.0412  -24.1802   20.5924 C   0  0  0  0  0  0
  -27.5713  -22.2255   19.8610 C   0  0  0  0  0  0
  -27.9439  -20.7462   19.7267 C   0  0  0  0  0  0
  -29.4181  -21.7187   21.3620 C   0  0  1  0  0  0
  -31.3579  -21.0660   19.0015 C   0  0  0  0  0  0
  -30.2243  -24.7710   21.3394 C   0  0  0  0  0  0
  -29.0615  -21.7222   22.8537 C   0  0  0  0  0  0
  -28.1847  -25.1901   19.8152 C   0  0  0  0  0  0
  -28.9497  -20.4648   20.7472 N   0  0  0  0  0  0
  -30.0365  -15.6398   20.7268 N   0  0  0  0  0  0
  -31.4523  -12.3615   19.1430 H   0  0  0  0  0  0
  -30.2772  -11.3113   19.8790 H   0  0  0  0  0  0
  -29.7308  -11.7342   17.4550 H   0  0  0  0  0  0
  -29.6693  -13.4545   17.7533 H   0  0  0  0  0  0
  -27.8159  -11.3064   18.8344 H   0  0  0  0  0  0
  -27.3676  -12.6225   17.7832 H   0  0  0  0  0  0
  -27.6765  -14.2604   19.5308 H   0  0  0  0  0  0
  -28.6704  -12.0625   21.4061 H   0  0  0  0  0  0
  -28.4762  -13.7453   21.8199 H   0  0  0  0  0  0
  -25.2766   -9.5687   22.4765 H   0  0  0  0  0  0
  -24.0007   -7.4637   22.7473 H   0  0  0  0  0  0
  -21.0856   -8.8778   19.8941 H   0  0  0  0  0  0
  -22.3717  -10.9677   19.6157 H   0  0  0  0  0  0
  -21.2009   -7.6149   23.9720 H   0  0  0  0  0  0
  -21.1476   -6.0524   25.9083 H   0  0  0  0  0  0
  -22.0602   -2.7608   23.2854 H   0  0  0  0  0  0
  -22.4100  -11.9872   22.4780 H   0  0  0  0  0  0
  -21.1088  -13.1218   22.2597 H   0  0  0  0  0  0
  -24.6600  -15.8486   20.5223 H   0  0  0  0  0  0
  -26.2741  -15.6290   20.0744 H   0  0  0  0  0  0
  -26.7144  -32.5504   23.1157 H   0  0  0  0  0  0
  -25.0123  -33.9785   25.0500 H   0  0  0  0  0  0
  -22.6963  -31.3156   21.4235 H   0  0  0  0  0  0
  -23.3764  -35.9616   23.3290 H   0  0  0  0  0  0
  -24.3597  -36.8918   22.2055 H   0  0  0  0  0  0
  -23.7222  -37.6487   23.6662 H   0  0  0  0  0  0
  -26.0689  -31.5884   20.6159 H   0  0  0  0  0  0
  -26.8235  -30.8594   22.0036 H   0  0  0  0  0  0
  -28.0873  -29.0300   21.2080 H   0  0  0  0  0  0
  -25.9692  -26.0406   18.8870 H   0  0  0  0  0  0
  -23.9609  -27.3627   18.9736 H   0  0  0  0  0  0
  -23.7307  -30.6306   19.4153 H   0  0  0  0  0  0
  -22.7344  -29.2748   19.8592 H   0  0  0  0  0  0
  -25.1277  -36.1966   25.0820 H   0  0  0  0  0  0
  -20.9947  -28.3231   24.1433 H   0  0  0  0  0  0
  -20.5697  -26.2258   23.3598 H   0  0  0  0  0  0
  -21.6636  -26.7459   22.1187 H   0  0  0  0  0  0
  -19.6917  -25.6298   21.1229 H   0  0  0  0  0  0
  -19.6698  -27.3210   20.6754 H   0  0  0  0  0  0
  -17.4194  -26.6687   21.4012 H   0  0  0  0  0  0
  -18.0305  -26.0060   22.9001 H   0  0  0  0  0  0
  -19.7944  -30.7245   24.2277 H   0  0  0  0  0  0
  -17.5033  -31.6278   24.5160 H   0  0  0  0  0  0
  -15.5356  -30.2997   23.7671 H   0  0  0  0  0  0
  -15.8658  -28.0841   22.7059 H   0  0  0  0  0  0
  -24.5925  -30.7057   25.7840 H   0  0  0  0  0  0
  -24.8920  -32.2893   26.4908 H   0  0  0  0  0  0
  -25.8087  -30.8941   27.0261 H   0  0  0  0  0  0
  -26.2868  -29.6812   24.1172 H   0  0  0  0  0  0
  -27.4051  -29.7273   25.4611 H   0  0  0  0  0  0
  -27.8729  -30.4343   23.9324 H   0  0  0  0  0  0
  -27.2642  -33.3644   26.2089 H   0  0  0  0  0  0
  -28.3867  -32.6906   25.0358 H   0  0  0  0  0  0
  -28.0698  -31.8473   26.5445 H   0  0  0  0  0  0
  -28.2563  -38.0137   24.7562 H   0  0  0  0  0  0
  -28.1121  -36.2663   24.6207 H   0  0  0  0  0  0
  -27.2314  -37.1348   25.8863 H   0  0  0  0  0  0
  -20.9320  -29.8781   21.6971 H   0  0  0  0  0  0
  -26.0174  -38.2850   24.1482 H   0  0  0  0  0  0
  -32.6886  -18.8019   18.5605 H   0  0  0  0  0  0
  -32.1990  -16.5573   19.1794 H   0  0  0  0  0  0
  -28.6952  -17.9032   21.3574 H   0  0  0  0  0  0
  -27.4003  -22.6902   18.8892 H   0  0  0  0  0  0
  -26.6609  -22.3250   20.4523 H   0  0  0  0  0  0
  -28.3439  -20.5502   18.7295 H   0  0  0  0  0  0
  -27.0682  -20.1068   19.8535 H   0  0  0  0  0  0
  -30.4961  -21.8324   21.2742 H   0  0  0  0  0  0
  -31.9068  -20.9696   18.0647 H   0  0  0  0  0  0
  -31.9973  -21.6060   19.6994 H   0  0  0  0  0  0
  -30.4791  -21.6714   18.7857 H   0  0  0  0  0  0
  -30.8439  -24.0088   21.8085 H   0  0  0  0  0  0
  -29.8744  -25.4465   22.1204 H   0  0  0  0  0  0
  -30.8526  -25.3399   20.6538 H   0  0  0  0  0  0
  -27.9859  -21.6297   23.0064 H   0  0  0  0  0  0
  -29.3816  -22.6475   23.3330 H   0  0  0  0  0  0
  -29.5456  -20.8984   23.3780 H   0  0  0  0  0  0
  -27.1752  -24.8451   20.0278 H   0  0  0  0  0  0
  -28.3637  -25.0643   18.7467 H   0  0  0  0  0  0
  -29.0956  -15.5015   21.0622 H   0  0  0  0  0  0
  1 25  1  0  0  0
  1 30  2  0  0  0
  1 87  1  0  0  0
  2  3  1  0  0  0
  2 25  1  0  0  0
  2 88  1  0  0  0
  2 89  1  0  0  0
  3  4  1  0  0  0
  3 90  1  0  0  0
  3 91  1  0  0  0
  4  5  1  0  0  0
  4 92  1  0  0  0
  4 93  1  0  0  0
  5  6  1  0  0  0
  5 26  1  0  0  0
  5 94  1  0  0  0
  6 25  1  0  0  0
  6 95  1  0  0  0
  6 96  1  0  0  0
  7  8  2  0  0  0
  7 26  1  0  0  0
  7 29  1  0  0  0
  8  9  1  0  0  0
  8 22  1  0  0  0
  9 10  1  0  0  0
  9 27  2  0  0  0
 10 11  2  0  0  0
 10 15  1  0  0  0
 11 12  1  0  0  0
 11 97  1  0  0  0
 12 13  2  0  0  0
 12 98  1  0  0  0
 13 14  1  0  0  0
 13 31  1  0  0  0
 14 15  2  0  0  0
 14 99  1  0  0  0
 15100  1  0  0  0
 16 17  2  0  0  0
 16 21  1  0  0  0
 16 31  1  0  0  0
 17 18  1  0  0  0
 17101  1  0  0  0
 18 19  2  0  0  0
 18102  1  0  0  0
 19 20  1  0  0  0
 19 24  1  0  0  0
 20 21  2  0  0  0
 20103  1  0  0  0
 21 23  1  0  0  0
 22 28  1  0  0  0
 22 32  2  0  0  0
 26 27  1  0  0  0
 28104  1  0  0  0
 28105  1  0  0  0
 29106  1  0  0  0
 29107  1  0  0  0
 33 34  1  0  0  0
 33 66  1  0  0  0
 33 70  2  0  0  0
 34 36  1  0  0  0
 34 59  1  0  0  0
 34108  1  0  0  0
 35 44  2  0  0  0
 35 45  1  0  0  0
 35 68  1  0  0  0
 36 56  1  0  0  0
 36109  1  0  0  0
 37 39  1  0  0  0
 37 47  1  0  0  0
 37 66  1  0  0  0
 37110  1  0  0  0
 38 43  2  0  0  0
 38 46  1  0  0  0
 38 47  1  0  0  0
 39 64  1  0  0  0
 39 67  2  0  0  0
 40 52  1  0  0  0
 40 53  2  0  0  0
 40 58  1  0  0  0
 41111  1  0  0  0
 41112  1  0  0  0
 41113  1  0  0  0
 41 48  1  0  0  0
 42 43  1  0  0  0
 42 66  1  0  0  0
 42114  1  0  0  0
 42115  1  0  0  0
 43 44  1  0  0  0
 44116  1  0  0  0
 45 46  2  0  0  0
 45117  1  0  0  0
 46118  1  0  0  0
 47119  1  0  0  0
 47120  1  0  0  0
 48 56  1  0  0  0
 48 65  1  0  0  0
 48121  1  0  0  0
 49 50  1  0  0  0
 49 53  1  0  0  0
 49 64  1  0  0  0
 49122  1  0  0  0
 50 51  1  0  0  0
 50123  1  0  0  0
 50124  1  0  0  0
 51 52  1  0  0  0
 51125  1  0  0  0
 51126  1  0  0  0
 52127  1  0  0  0
 52128  1  0  0  0
 53 54  1  0  0  0
 54 55  2  0  0  0
 54129  1  0  0  0
 55 57  1  0  0  0
 55130  1  0  0  0
 56 69  2  0  0  0
 57 58  2  0  0  0
 57131  1  0  0  0
 58132  1  0  0  0
 59 60  1  0  0  0
 59 61  1  0  0  0
 59 62  1  0  0  0
 60133  1  0  0  0
 60134  1  0  0  0
 60135  1  0  0  0
 61136  1  0  0  0
 61137  1  0  0  0
 61138  1  0  0  0
 62139  1  0  0  0
 62140  1  0  0  0
 62141  1  0  0  0
 63 65  1  0  0  0
 63142  1  0  0  0
 63143  1  0  0  0
 63144  1  0  0  0
 64145  1  0  0  0
 65146  1  0  0  0
 68 85  1  0  0  0
 71 72  2  0  0  0
 71 74  1  0  0  0
 71147  1  0  0  0
 72 76  1  0  0  0
 72148  1  0  0  0
 73 75  1  0  0  0
 73 76  2  0  0  0
 73149  1  0  0  0
 74 75  2  0  0  0
 74 82  1  0  0  0
 75 86  1  0  0  0
 76 87  1  0  0  0
 77 78  2  0  0  0
 77 79  1  0  0  0
 77 81  1  0  0  0
 78 83  1  0  0  0
 78 85  1  0  0  0
 79 80  1  0  0  0
 79150  1  0  0  0
 79151  1  0  0  0
 80 86  1  0  0  0
 80152  1  0  0  0
 80153  1  0  0  0
 81 84  1  0  0  0
 81 86  1  0  0  0
 81154  1  0  0  0
 82155  1  0  0  0
 82156  1  0  0  0
 82157  1  0  0  0
 83158  1  0  0  0
 83159  1  0  0  0
 83160  1  0  0  0
 84161  1  0  0  0
 84162  1  0  0  0
 84163  1  0  0  0
 85164  1  0  0  0
 85165  1  0  0  0
 87166  1  0  0  0
M  ISO  4   1 100  68 101  85 101  87 100
M  END
> <chiral flag>
0

> <version>
0

> <s_m_source_file>
/data/baiqing/PycharmProjects/Reinvent-master-3.2/result/LINK_invent/BTK/process_docking_weight1_custom_product_contain_oxygen_bond_distance_aromatic_linkinvent_7_9_3/rearranged_h_0146.sdf

> <i_m_source_file_index>
5

> <r_mmod_Potential_Energy-OPLS-2005>
72.4144439697266

> <r_mmod_Stretch_Energy-OPLS-2005>
48.6928062438965

> <r_mmod_Bend_Energy-OPLS-2005>
140.683227539062

> <r_mmod_Torsional_Energy-OPLS-2005>
270.327941894531

> <r_mmod_Improper_Torsional_Energy-OPLS-2005>
9.12804126739502

> <r_mmod_Van_der_Waal_Energy-OPLS-2005>
169.877075195312

> <r_mmod_Electrostatic_Energy-OPLS-2005>
-389.955841064453

> <r_mmod_Solvation_Energy-OPLS-2005>
-206.384414672852

> <b_mmod_Minimization_Converged-OPLS-2005>
0

> <r_mmod_RMS_Derivative-OPLS-2005>
1.49032878875732

$$$$
5
                    3D
 Structure written by MMmdl.
169178  0  0  1  0            999 V2000
  -30.6547  -14.5452   20.5499 C   0  0  0  0  0  0
  -30.4367  -12.3457   19.4274 C   0  0  0  0  0  0
  -29.4998  -12.5018   18.2094 C   0  0  0  0  0  0
  -28.0213  -12.3507   18.6237 C   0  0  0  0  0  0
  -27.6580  -13.2040   19.8678 C   0  0  2  0  0  0
  -28.7024  -13.0069   20.9897 C   0  0  0  0  0  0
  -25.2588  -13.8147   20.5670 C   0  0  0  0  0  0
  -24.1845  -13.0433   20.9200 C   0  0  0  0  0  0
  -24.6391  -11.6898   20.8747 C   0  0  0  0  0  0
  -23.9056  -10.4290   21.0413 C   0  0  0  0  0  0
  -24.3608   -9.4200   21.9186 C   0  0  0  0  0  0
  -23.6287   -8.2236   22.0753 C   0  0  0  0  0  0
  -22.4270   -8.0279   21.3545 C   0  0  0  0  0  0
  -21.9906   -9.0250   20.4646 C   0  0  0  0  0  0
  -22.7232  -10.2130   20.3058 C   0  0  0  0  0  0
  -21.6848   -6.0736   22.5282 C   0  0  0  0  0  0
  -21.4008   -6.5640   23.8215 C   0  0  0  0  0  0
  -21.3659   -5.6791   24.9179 C   0  0  0  0  0  0
  -21.6043   -4.3056   24.7225 C   0  0  0  0  0  0
  -21.8820   -3.8147   23.4349 C   0  0  0  0  0  0
  -21.9192   -4.6964   22.3406 C   0  0  0  0  0  0
  -22.7865  -13.5236   21.1861 C   0  0  0  0  0  0
  -22.1662   -4.2152   21.0979 F   0  0  0  0  0  0
  -21.5630   -3.4536   25.7737 F   0  0  0  0  0  0
  -30.0260  -13.3392   20.4341 N   0  0  0  0  0  0
  -26.3004  -12.9303   20.3327 N   0  0  0  0  0  0
  -25.9312  -11.6475   20.5759 N   0  0  0  0  0  0
  -22.0497  -12.8226   22.0409 N   0  0  0  0  0  0
  -25.4318  -15.1861   20.4038 N   0  0  0  0  0  0
  -31.8045  -14.7269   20.1382 O   0  0  0  0  0  0
  -21.6638   -6.8872   21.4242 O   0  0  0  0  0  0
  -22.3563  -14.5550   20.6715 O   0  0  0  0  0  0
  -24.6192  -31.8646   23.2064 C   0  0  0  0  0  0
  -25.9064  -32.4805   23.8366 C   0  0  1  0  0  0
  -27.2340  -27.3828   20.1131 C   0  0  0  0  0  0
  -25.5908  -33.8604   24.2304 N   0  0  0  0  0  0
  -23.4108  -30.4889   21.5440 C   0  0  2  0  0  0
  -24.8594  -28.9498   20.1103 C   0  0  0  0  0  0
  -22.7452  -29.4643   22.4928 C   0  0  0  0  0  0
  -18.0294  -28.1380   22.8483 C   0  0  0  0  0  0
  -24.1492  -36.7295   23.2645 C   0  0  0  0  0  0
  -25.9452  -30.8154   21.3686 C   0  0  0  0  0  0
  -26.0219  -29.4467   20.7131 C   0  0  0  0  0  0
  -27.2114  -28.6741   20.7057 C   0  0  0  0  0  0
  -26.0513  -26.9197   19.4908 C   0  0  0  0  0  0
  -24.8729  -27.6883   19.4931 C   0  0  0  0  0  0
  -23.6237  -29.8221   20.1587 C   0  0  0  0  0  0
  -25.4110  -36.3098   24.0341 C   0  0  1  0  0  0
  -20.5892  -28.3672   23.1298 C   0  0  2  0  0  0
  -20.6791  -26.9408   22.5400 C   0  0  0  0  0  0
  -19.5767  -26.6380   21.5212 C   0  0  0  0  0  0
  -18.1943  -26.7930   22.1618 C   0  0  0  0  0  0
  -19.1548  -28.8839   23.2892 C   0  0  0  0  0  0
  -18.9483  -30.1447   23.8903 C   0  0  0  0  0  0
  -17.6487  -30.6579   24.0558 C   0  0  0  0  0  0
  -25.9035  -34.9468   23.5116 C   0  0  0  0  0  0
  -16.5375  -29.9084   23.6328 C   0  0  0  0  0  0
  -16.7285  -28.6502   23.0340 C   0  0  0  0  0  0
  -26.4463  -31.6607   25.0719 C   0  0  0  0  0  0
  -25.3714  -31.3740   26.1460 C   0  0  0  0  0  0
  -27.0304  -30.3054   24.6108 C   0  0  0  0  0  0
  -27.6032  -32.4328   25.7486 C   0  0  0  0  0  0
  -27.5586  -37.1809   24.8471 C   0  0  0  0  0  0
  -21.4171  -29.3042   22.3695 N   0  0  0  0  0  0
  -26.4300  -37.3785   23.9410 N   0  0  0  0  0  0
  -24.6765  -31.0717   22.0977 N   0  0  0  0  0  0
  -23.4217  -28.8187   23.2977 O   0  0  0  0  0  0
  -28.3852  -26.6046   20.1675 O   0  0  0  0  0  0
  -26.5594  -34.8936   22.4681 O   0  0  0  0  0  0
  -23.5373  -32.1402   23.7431 O   0  0  0  0  0  0
  -29.0570  -19.1871   21.6173 C   0  0  0  0  0  0
  -28.9279  -17.8048   21.3258 C   0  0  0  0  0  0
  -31.3248  -17.6119   21.1012 C   0  0  0  0  0  0
  -30.3282  -19.7962   21.7170 C   0  0  0  0  0  0
  -31.4724  -18.9942   21.4039 C   0  0  0  0  0  0
  -30.0587  -16.9783   21.1092 C   0  0  0  0  0  0
  -30.4502  -21.1076   22.4186 C   0  0  0  0  0  0
  -29.3776  -24.6756   22.3100 C   0  0  0  0  0  0
  -30.1354  -23.5178   22.9616 C   0  0  0  0  0  0
  -29.2378  -22.7927   20.8503 C   0  0  0  0  0  0
  -29.3899  -24.3605   20.8104 C   0  0  2  0  0  0
  -30.7521  -24.7309   20.1841 C   0  0  0  0  0  0
  -33.7444  -19.0342   22.5767 C   0  0  0  0  0  0
  -32.8956  -19.5523   21.4066 C   0  0  0  0  0  0
  -28.2475  -25.1540   20.0819 C   0  0  0  0  0  0
  -29.9787  -22.3464   22.0650 N   0  0  0  0  0  0
  -29.8523  -15.5556   20.9735 N   0  0  0  0  0  0
  -31.0910  -21.0251   23.5839 N   0  3  0  0  0  0
  -31.4776  -12.4699   19.1226 H   0  0  0  0  0  0
  -30.3658  -11.3391   19.8417 H   0  0  0  0  0  0
  -29.7492  -11.7620   17.4476 H   0  0  0  0  0  0
  -29.6528  -13.4788   17.7478 H   0  0  0  0  0  0
  -27.8447  -11.2958   18.8347 H   0  0  0  0  0  0
  -27.3677  -12.6043   17.7885 H   0  0  0  0  0  0
  -27.6916  -14.2470   19.5523 H   0  0  0  0  0  0
  -28.6972  -11.9712   21.3321 H   0  0  0  0  0  0
  -28.4574  -13.6038   21.8696 H   0  0  0  0  0  0
  -25.2754   -9.5677   22.4763 H   0  0  0  0  0  0
  -24.0003   -7.4621   22.7460 H   0  0  0  0  0  0
  -21.0844   -8.8760   19.8941 H   0  0  0  0  0  0
  -22.3691  -10.9669   19.6169 H   0  0  0  0  0  0
  -21.1995   -7.6145   23.9721 H   0  0  0  0  0  0
  -21.1481   -6.0519   25.9079 H   0  0  0  0  0  0
  -22.0599   -2.7611   23.2847 H   0  0  0  0  0  0
  -22.4109  -11.9889   22.4800 H   0  0  0  0  0  0
  -21.1109  -13.1250   22.2596 H   0  0  0  0  0  0
  -24.6548  -15.8326   20.4894 H   0  0  0  0  0  0
  -26.2545  -15.6106   19.9951 H   0  0  0  0  0  0
  -26.7150  -32.5485   23.1137 H   0  0  0  0  0  0
  -25.0085  -33.9761   25.0469 H   0  0  0  0  0  0
  -22.7019  -31.3082   21.4011 H   0  0  0  0  0  0
  -23.3758  -35.9629   23.3311 H   0  0  0  0  0  0
  -24.3598  -36.8892   22.2063 H   0  0  0  0  0  0
  -23.7250  -37.6505   23.6644 H   0  0  0  0  0  0
  -26.0702  -31.5838   20.6037 H   0  0  0  0  0  0
  -26.8299  -30.8636   21.9921 H   0  0  0  0  0  0
  -28.1048  -29.0500   21.1844 H   0  0  0  0  0  0
  -26.0187  -25.9562   19.0031 H   0  0  0  0  0  0
  -23.9823  -27.2993   19.0191 H   0  0  0  0  0  0
  -23.7413  -30.5985   19.4026 H   0  0  0  0  0  0
  -22.7459  -29.2489   19.8540 H   0  0  0  0  0  0
  -25.1301  -36.1949   25.0836 H   0  0  0  0  0  0
  -20.9986  -28.3237   24.1418 H   0  0  0  0  0  0
  -20.5706  -26.2281   23.3582 H   0  0  0  0  0  0
  -21.6661  -26.7443   22.1193 H   0  0  0  0  0  0
  -19.6936  -25.6290   21.1245 H   0  0  0  0  0  0
  -19.6723  -27.3190   20.6749 H   0  0  0  0  0  0
  -17.4214  -26.6687   21.4013 H   0  0  0  0  0  0
  -18.0338  -26.0064   22.9005 H   0  0  0  0  0  0
  -19.7965  -30.7259   24.2268 H   0  0  0  0  0  0
  -17.5047  -31.6264   24.5154 H   0  0  0  0  0  0
  -15.5384  -30.2983   23.7658 H   0  0  0  0  0  0
  -15.8682  -28.0832   22.7038 H   0  0  0  0  0  0
  -24.5870  -30.7103   25.7802 H   0  0  0  0  0  0
  -24.8918  -32.2911   26.4895 H   0  0  0  0  0  0
  -25.8050  -30.8917   27.0230 H   0  0  0  0  0  0
  -26.2871  -29.6814   24.1127 H   0  0  0  0  0  0
  -27.4062  -29.7279   25.4565 H   0  0  0  0  0  0
  -27.8702  -30.4394   23.9286 H   0  0  0  0  0  0
  -27.2649  -33.3621   26.2078 H   0  0  0  0  0  0
  -28.3832  -32.6896   25.0306 H   0  0  0  0  0  0
  -28.0695  -31.8432   26.5389 H   0  0  0  0  0  0
  -28.2600  -38.0109   24.7496 H   0  0  0  0  0  0
  -28.1087  -36.2635   24.6312 H   0  0  0  0  0  0
  -27.2298  -37.1460   25.8875 H   0  0  0  0  0  0
  -20.9327  -29.8758   21.6916 H   0  0  0  0  0  0
  -26.0181  -38.2865   24.1399 H   0  0  0  0  0  0
  -28.1722  -19.7543   21.8719 H   0  0  0  0  0  0
  -27.9376  -17.3716   21.3269 H   0  0  0  0  0  0
  -32.2162  -17.0300   20.9160 H   0  0  0  0  0  0
  -29.8365  -25.6392   22.5320 H   0  0  0  0  0  0
  -28.3600  -24.7063   22.7016 H   0  0  0  0  0  0
  -29.7491  -23.3229   23.9648 H   0  0  0  0  0  0
  -31.1932  -23.7691   23.0567 H   0  0  0  0  0  0
  -29.6298  -22.3237   19.9460 H   0  0  0  0  0  0
  -28.1894  -22.5059   20.9447 H   0  0  0  0  0  0
  -31.5813  -24.2052   20.6590 H   0  0  0  0  0  0
  -30.9550  -25.7981   20.2710 H   0  0  0  0  0  0
  -30.7755  -24.4792   19.1237 H   0  0  0  0  0  0
  -34.7649  -19.4101   22.5036 H   0  0  0  0  0  0
  -33.7996  -17.9454   22.5822 H   0  0  0  0  0  0
  -33.3493  -19.3527   23.5409 H   0  0  0  0  0  0
  -32.8996  -20.6421   21.3997 H   0  0  0  0  0  0
  -33.3716  -19.2626   20.4687 H   0  0  0  0  0  0
  -27.3006  -24.8398   20.5258 H   0  0  0  0  0  0
  -28.2078  -24.8649   19.0307 H   0  0  0  0  0  0
  -28.9198  -15.2427   21.1896 H   0  0  0  0  0  0
  -31.3783  -20.1116   23.9012 H   0  0  0  0  0  0
  -31.2464  -21.8152   24.1833 H   0  0  0  0  0  0
  1 25  1  0  0  0
  1 30  2  0  0  0
  1 87  1  0  0  0
  2  3  1  0  0  0
  2 25  1  0  0  0
  2 89  1  0  0  0
  2 90  1  0  0  0
  3  4  1  0  0  0
  3 91  1  0  0  0
  3 92  1  0  0  0
  4  5  1  0  0  0
  4 93  1  0  0  0
  4 94  1  0  0  0
  5  6  1  0  0  0
  5 26  1  0  0  0
  5 95  1  0  0  0
  6 25  1  0  0  0
  6 96  1  0  0  0
  6 97  1  0  0  0
  7  8  2  0  0  0
  7 26  1  0  0  0
  7 29  1  0  0  0
  8  9  1  0  0  0
  8 22  1  0  0  0
  9 10  1  0  0  0
  9 27  2  0  0  0
 10 11  2  0  0  0
 10 15  1  0  0  0
 11 12  1  0  0  0
 11 98  1  0  0  0
 12 13  2  0  0  0
 12 99  1  0  0  0
 13 14  1  0  0  0
 13 31  1  0  0  0
 14 15  2  0  0  0
 14100  1  0  0  0
 15101  1  0  0  0
 16 17  2  0  0  0
 16 21  1  0  0  0
 16 31  1  0  0  0
 17 18  1  0  0  0
 17102  1  0  0  0
 18 19  2  0  0  0
 18103  1  0  0  0
 19 20  1  0  0  0
 19 24  1  0  0  0
 20 21  2  0  0  0
 20104  1  0  0  0
 21 23  1  0  0  0
 22 28  1  0  0  0
 22 32  2  0  0  0
 26 27  1  0  0  0
 28105  1  0  0  0
 28106  1  0  0  0
 29107  1  0  0  0
 29108  1  0  0  0
 33 34  1  0  0  0
 33 66  1  0  0  0
 33 70  2  0  0  0
 34 36  1  0  0  0
 34 59  1  0  0  0
 34109  1  0  0  0
 35 44  2  0  0  0
 35 45  1  0  0  0
 35 68  1  0  0  0
 36 56  1  0  0  0
 36110  1  0  0  0
 37 39  1  0  0  0
 37 47  1  0  0  0
 37 66  1  0  0  0
 37111  1  0  0  0
 38 43  2  0  0  0
 38 46  1  0  0  0
 38 47  1  0  0  0
 39 64  1  0  0  0
 39 67  2  0  0  0
 40 52  1  0  0  0
 40 53  2  0  0  0
 40 58  1  0  0  0
 41112  1  0  0  0
 41113  1  0  0  0
 41114  1  0  0  0
 41 48  1  0  0  0
 42 43  1  0  0  0
 42 66  1  0  0  0
 42115  1  0  0  0
 42116  1  0  0  0
 43 44  1  0  0  0
 44117  1  0  0  0
 45 46  2  0  0  0
 45118  1  0  0  0
 46119  1  0  0  0
 47120  1  0  0  0
 47121  1  0  0  0
 48 56  1  0  0  0
 48 65  1  0  0  0
 48122  1  0  0  0
 49 50  1  0  0  0
 49 53  1  0  0  0
 49 64  1  0  0  0
 49123  1  0  0  0
 50 51  1  0  0  0
 50124  1  0  0  0
 50125  1  0  0  0
 51 52  1  0  0  0
 51126  1  0  0  0
 51127  1  0  0  0
 52128  1  0  0  0
 52129  1  0  0  0
 53 54  1  0  0  0
 54 55  2  0  0  0
 54130  1  0  0  0
 55 57  1  0  0  0
 55131  1  0  0  0
 56 69  2  0  0  0
 57 58  2  0  0  0
 57132  1  0  0  0
 58133  1  0  0  0
 59 60  1  0  0  0
 59 61  1  0  0  0
 59 62  1  0  0  0
 60134  1  0  0  0
 60135  1  0  0  0
 60136  1  0  0  0
 61137  1  0  0  0
 61138  1  0  0  0
 61139  1  0  0  0
 62140  1  0  0  0
 62141  1  0  0  0
 62142  1  0  0  0
 63 65  1  0  0  0
 63143  1  0  0  0
 63144  1  0  0  0
 63145  1  0  0  0
 64146  1  0  0  0
 65147  1  0  0  0
 68 85  1  0  0  0
 71 72  2  0  0  0
 71 74  1  0  0  0
 71148  1  0  0  0
 72 76  1  0  0  0
 72149  1  0  0  0
 73 75  1  0  0  0
 73 76  2  0  0  0
 73150  1  0  0  0
 74 75  2  0  0  0
 74 77  1  0  0  0
 75 84  1  0  0  0
 76 87  1  0  0  0
 77 86  1  0  0  0
 77 88  2  0  0  0
 78 79  1  0  0  0
 78 81  1  0  0  0
 78151  1  0  0  0
 78152  1  0  0  0
 79 86  1  0  0  0
 79153  1  0  0  0
 79154  1  0  0  0
 80 81  1  0  0  0
 80 86  1  0  0  0
 80155  1  0  0  0
 80156  1  0  0  0
 81 82  1  0  0  0
 81 85  1  0  0  0
 82157  1  0  0  0
 82158  1  0  0  0
 82159  1  0  0  0
 83 84  1  0  0  0
 83160  1  0  0  0
 83161  1  0  0  0
 83162  1  0  0  0
 84163  1  0  0  0
 84164  1  0  0  0
 85165  1  0  0  0
 85166  1  0  0  0
 87167  1  0  0  0
 88168  1  0  0  0
 88169  1  0  0  0
M  CHG  1  88   1
M  ISO  4   1 100  68 101  85 101  87 100
M  END
> <chiral flag>
0

> <version>
0

> <s_m_source_file>
/data/baiqing/PycharmProjects/Reinvent-master-3.2/result/LINK_invent/BTK/process_docking_weight1_custom_product_contain_oxygen_bond_distance_aromatic_linkinvent_7_9_3/rearranged_h_0146.sdf

> <i_m_source_file_index>
6

> <r_mmod_Potential_Energy-OPLS-2005>
-36.2173194885254

> <r_mmod_Stretch_Energy-OPLS-2005>
55.7136344909668

> <r_mmod_Bend_Energy-OPLS-2005>
160.966705322266

> <r_mmod_Torsional_Energy-OPLS-2005>
305.548187255859

> <r_mmod_Improper_Torsional_Energy-OPLS-2005>
6.95033073425293

> <r_mmod_Van_der_Waal_Energy-OPLS-2005>
155.3466796875

> <r_mmod_Electrostatic_Energy-OPLS-2005>
-362.282287597656

> <r_mmod_Solvation_Energy-OPLS-2005>
-383.0361328125

> <b_mmod_Minimization_Converged-OPLS-2005>
0

> <r_mmod_RMS_Derivative-OPLS-2005>
1.80289030075073

$$$$
6
                    3D
 Structure written by MMmdl.
171180  0  0  1  0            999 V2000
  -30.5846  -14.7305   20.4659 C   0  0  0  0  0  0
  -30.4408  -12.4465   19.4644 C   0  0  0  0  0  0
  -29.5089  -12.5086   18.2320 C   0  0  0  0  0  0
  -28.0358  -12.3241   18.6495 C   0  0  0  0  0  0
  -27.6430  -13.2204   19.8528 C   0  0  2  0  0  0
  -28.6885  -13.1352   20.9870 C   0  0  0  0  0  0
  -25.2526  -13.8178   20.5688 C   0  0  0  0  0  0
  -24.1807  -13.0439   20.9209 C   0  0  0  0  0  0
  -24.6379  -11.6914   20.8751 C   0  0  0  0  0  0
  -23.9057  -10.4293   21.0410 C   0  0  0  0  0  0
  -24.3608   -9.4204   21.9185 C   0  0  0  0  0  0
  -23.6281   -8.2238   22.0748 C   0  0  0  0  0  0
  -22.4266   -8.0276   21.3529 C   0  0  0  0  0  0
  -21.9898   -9.0259   20.4641 C   0  0  0  0  0  0
  -22.7226  -10.2147   20.3057 C   0  0  0  0  0  0
  -21.6849   -6.0731   22.5268 C   0  0  0  0  0  0
  -21.4015   -6.5638   23.8204 C   0  0  0  0  0  0
  -21.3660   -5.6789   24.9167 C   0  0  0  0  0  0
  -21.6045   -4.3051   24.7213 C   0  0  0  0  0  0
  -21.8821   -3.8141   23.4338 C   0  0  0  0  0  0
  -21.9195   -4.6954   22.3394 C   0  0  0  0  0  0
  -22.7836  -13.5238   21.1868 C   0  0  0  0  0  0
  -22.1664   -4.2140   21.0972 F   0  0  0  0  0  0
  -21.5626   -3.4539   25.7731 F   0  0  0  0  0  0
  -29.9908  -13.4920   20.4077 N   0  0  0  0  0  0
  -26.2937  -12.9359   20.3284 N   0  0  0  0  0  0
  -25.9311  -11.6516   20.5777 N   0  0  0  0  0  0
  -22.0475  -12.8234   22.0423 N   0  0  0  0  0  0
  -25.4223  -15.1901   20.4093 N   0  0  0  0  0  0
  -31.7776  -14.8649   20.1768 O   0  0  0  0  0  0
  -21.6627   -6.8869   21.4230 O   0  0  0  0  0  0
  -22.3537  -14.5558   20.6726 O   0  0  0  0  0  0
  -24.6291  -31.8567   23.2006 C   0  0  0  0  0  0
  -25.9121  -32.4762   23.8344 C   0  0  1  0  0  0
  -27.2194  -27.2814   20.1300 C   0  0  0  0  0  0
  -25.5925  -33.8568   24.2273 N   0  0  0  0  0  0
  -23.4258  -30.4793   21.5441 C   0  0  2  0  0  0
  -24.8738  -28.9283   20.1138 C   0  0  0  0  0  0
  -22.7499  -29.4596   22.4922 C   0  0  0  0  0  0
  -18.0298  -28.1380   22.8478 C   0  0  0  0  0  0
  -24.1495  -36.7292   23.2636 C   0  0  0  0  0  0
  -25.9704  -30.7768   21.3772 C   0  0  0  0  0  0
  -26.0453  -29.4001   20.7213 C   0  0  0  0  0  0
  -27.2250  -28.5900   20.7160 C   0  0  0  0  0  0
  -26.0309  -26.8780   19.4879 C   0  0  0  0  0  0
  -24.8700  -27.6734   19.4863 C   0  0  0  0  0  0
  -23.6444  -29.8150   20.1600 C   0  0  0  0  0  0
  -25.4118  -36.3076   24.0328 C   0  0  1  0  0  0
  -20.5898  -28.3691   23.1274 C   0  0  2  0  0  0
  -20.6786  -26.9411   22.5410 C   0  0  0  0  0  0
  -19.5766  -26.6384   21.5208 C   0  0  0  0  0  0
  -18.1947  -26.7922   22.1624 C   0  0  0  0  0  0
  -19.1553  -28.8853   23.2872 C   0  0  0  0  0  0
  -18.9471  -30.1454   23.8892 C   0  0  0  0  0  0
  -17.6468  -30.6578   24.0564 C   0  0  0  0  0  0
  -25.9053  -34.9440   23.5099 C   0  0  0  0  0  0
  -16.5361  -29.9079   23.6320 C   0  0  0  0  0  0
  -16.7285  -28.6502   23.0336 C   0  0  0  0  0  0
  -26.4493  -31.6572   25.0716 C   0  0  0  0  0  0
  -25.3722  -31.3736   26.1444 C   0  0  0  0  0  0
  -27.0310  -30.2982   24.6178 C   0  0  0  0  0  0
  -27.6068  -32.4286   25.7469 C   0  0  0  0  0  0
  -27.5585  -37.1802   24.8459 C   0  0  0  0  0  0
  -21.4214  -29.3033   22.3658 N   0  0  0  0  0  0
  -26.4291  -37.3774   23.9402 N   0  0  0  0  0  0
  -24.6941  -31.0544   22.0974 N   0  0  0  0  0  0
  -23.4201  -28.8138   23.3020 O   0  0  0  0  0  0
  -28.3092  -26.3889   20.1456 O   0  0  0  0  0  0
  -26.5622  -34.8908   22.4668 O   0  0  0  0  0  0
  -23.5444  -32.1374   23.7311 O   0  0  0  0  0  0
  -31.0194  -17.9525   20.9856 C   0  0  0  0  0  0
  -30.9168  -19.4118   20.9109 C   0  0  0  0  0  0
  -29.6733  -19.8537   20.4402 C   0  0  0  0  0  0
  -29.9331  -17.2050   20.5910 C   0  0  0  0  0  0
  -28.9121  -22.3579   21.0026 C   0  0  0  0  0  0
  -29.0781  -21.6585   18.7390 C   0  0  0  0  0  0
  -28.8499  -23.6827   20.1109 C   0  0  1  0  0  0
  -28.3871  -23.0602   18.7625 C   0  0  0  0  0  0
  -26.8569  -22.8468   18.6997 C   0  0  0  0  0  0
  -28.8320  -23.9152   17.5622 C   0  0  0  0  0  0
  -33.4469  -19.5128   21.2708 C   0  0  0  0  0  0
  -31.9228  -20.7541   22.7797 C   0  0  0  0  0  0
  -32.3090  -21.5071   20.3970 C   0  0  0  0  0  0
  -28.0733  -24.9986   20.6613 C   0  0  0  0  0  0
  -32.1087  -20.2892   21.3232 C   0  0  0  0  0  0
  -29.1551  -21.1783   20.1151 N   0  0  0  0  0  0
  -29.7336  -15.8158   20.6066 N   0  0  0  0  0  0
  -28.6982  -18.3938   20.0977 S   0  0  0  0  0  0
  -31.4796  -12.5893   19.1606 H   0  0  0  0  0  0
  -30.3958  -11.4649   19.9397 H   0  0  0  0  0  0
  -29.7891  -11.7429   17.5071 H   0  0  0  0  0  0
  -29.6255  -13.4689   17.7274 H   0  0  0  0  0  0
  -27.9001  -11.2747   18.9132 H   0  0  0  0  0  0
  -27.3728  -12.5118   17.8044 H   0  0  0  0  0  0
  -27.6404  -14.2427   19.4758 H   0  0  0  0  0  0
  -28.7203  -12.1313   21.4146 H   0  0  0  0  0  0
  -28.4268  -13.8050   21.8083 H   0  0  0  0  0  0
  -25.2754   -9.5680   22.4762 H   0  0  0  0  0  0
  -23.9981   -7.4633   22.7476 H   0  0  0  0  0  0
  -21.0819   -8.8792   19.8959 H   0  0  0  0  0  0
  -22.3672  -10.9694   19.6178 H   0  0  0  0  0  0
  -21.2010   -7.6146   23.9716 H   0  0  0  0  0  0
  -21.1480   -6.0511   25.9070 H   0  0  0  0  0  0
  -22.0599   -2.7598   23.2846 H   0  0  0  0  0  0
  -22.4093  -11.9886   22.4797 H   0  0  0  0  0  0
  -21.1112  -13.1281   22.2667 H   0  0  0  0  0  0
  -24.6476  -15.8372   20.5116 H   0  0  0  0  0  0
  -26.2558  -15.6297   20.0430 H   0  0  0  0  0  0
  -26.7188  -32.5424   23.1093 H   0  0  0  0  0  0
  -25.0048  -33.9709   25.0396 H   0  0  0  0  0  0
  -22.7205  -31.3000   21.4000 H   0  0  0  0  0  0
  -23.3739  -35.9646   23.3318 H   0  0  0  0  0  0
  -24.3575  -36.8883   22.2045 H   0  0  0  0  0  0
  -23.7277  -37.6514   23.6639 H   0  0  0  0  0  0
  -26.1043  -31.5385   20.6075 H   0  0  0  0  0  0
  -26.8496  -30.8267   22.0076 H   0  0  0  0  0  0
  -28.1248  -28.9482   21.1965 H   0  0  0  0  0  0
  -25.9904  -25.9254   18.9840 H   0  0  0  0  0  0
  -23.9761  -27.3088   18.9991 H   0  0  0  0  0  0
  -23.7716  -30.5940   19.4078 H   0  0  0  0  0  0
  -22.7620  -29.2525   19.8501 H   0  0  0  0  0  0
  -25.1301  -36.1928   25.0822 H   0  0  0  0  0  0
  -20.9990  -28.3270   24.1394 H   0  0  0  0  0  0
  -20.5678  -26.2305   23.3612 H   0  0  0  0  0  0
  -21.6656  -26.7422   22.1213 H   0  0  0  0  0  0
  -19.6930  -25.6298   21.1234 H   0  0  0  0  0  0
  -19.6703  -27.3200   20.6742 H   0  0  0  0  0  0
  -17.4213  -26.6654   21.4033 H   0  0  0  0  0  0
  -18.0356  -26.0065   22.9025 H   0  0  0  0  0  0
  -19.7945  -30.7271   24.2262 H   0  0  0  0  0  0
  -17.5015  -31.6244   24.5190 H   0  0  0  0  0  0
  -15.5360  -30.2980   23.7632 H   0  0  0  0  0  0
  -15.8689  -28.0819   22.7036 H   0  0  0  0  0  0
  -24.5891  -30.7088   25.7783 H   0  0  0  0  0  0
  -24.8921  -32.2914   26.4851 H   0  0  0  0  0  0
  -25.8039  -30.8926   27.0230 H   0  0  0  0  0  0
  -26.2873  -29.6743   24.1206 H   0  0  0  0  0  0
  -27.3996  -29.7231   25.4683 H   0  0  0  0  0  0
  -27.8758  -30.4249   23.9402 H   0  0  0  0  0  0
  -27.2708  -33.3592   26.2054 H   0  0  0  0  0  0
  -28.3872  -32.6831   25.0283 H   0  0  0  0  0  0
  -28.0738  -31.8393   26.5371 H   0  0  0  0  0  0
  -28.2614  -38.0087   24.7475 H   0  0  0  0  0  0
  -28.1067  -36.2615   24.6316 H   0  0  0  0  0  0
  -27.2291  -37.1478   25.8857 H   0  0  0  0  0  0
  -20.9402  -29.8748   21.6855 H   0  0  0  0  0  0
  -26.0172  -38.2850   24.1391 H   0  0  0  0  0  0
  -31.9108  -17.4644   21.3467 H   0  0  0  0  0  0
  -27.9577  -22.2100   21.5097 H   0  0  0  0  0  0
  -29.6641  -22.4590   21.7808 H   0  0  0  0  0  0
  -30.0927  -21.7390   18.3454 H   0  0  0  0  0  0
  -28.5452  -20.9520   18.1006 H   0  0  0  0  0  0
  -29.8897  -23.9900   19.9883 H   0  0  0  0  0  0
  -26.4899  -22.2722   19.5503 H   0  0  0  0  0  0
  -26.5727  -22.3007   17.7994 H   0  0  0  0  0  0
  -26.3096  -23.7857   18.6793 H   0  0  0  0  0  0
  -29.9128  -24.0603   17.5525 H   0  0  0  0  0  0
  -28.3716  -24.9034   17.5853 H   0  0  0  0  0  0
  -28.5585  -23.4476   16.6157 H   0  0  0  0  0  0
  -33.5018  -18.7246   22.0216 H   0  0  0  0  0  0
  -34.2976  -20.1668   21.4665 H   0  0  0  0  0  0
  -33.6100  -19.0622   20.2912 H   0  0  0  0  0  0
  -31.8750  -19.9020   23.4592 H   0  0  0  0  0  0
  -31.0033  -21.3158   22.9208 H   0  0  0  0  0  0
  -32.7466  -21.3895   23.1078 H   0  0  0  0  0  0
  -32.3757  -21.2016   19.3521 H   0  0  0  0  0  0
  -33.2269  -22.0442   20.6355 H   0  0  0  0  0  0
  -31.5131  -22.2396   20.4812 H   0  0  0  0  0  0
  -28.3418  -25.0758   21.7151 H   0  0  0  0  0  0
  -27.0085  -24.7732   20.6933 H   0  0  0  0  0  0
  -28.7665  -15.5377   20.6709 H   0  0  0  0  0  0
  1 25  1  0  0  0
  1 30  2  0  0  0
  1 87  1  0  0  0
  2  3  1  0  0  0
  2 25  1  0  0  0
  2 89  1  0  0  0
  2 90  1  0  0  0
  3  4  1  0  0  0
  3 91  1  0  0  0
  3 92  1  0  0  0
  4  5  1  0  0  0
  4 93  1  0  0  0
  4 94  1  0  0  0
  5  6  1  0  0  0
  5 26  1  0  0  0
  5 95  1  0  0  0
  6 25  1  0  0  0
  6 96  1  0  0  0
  6 97  1  0  0  0
  7  8  2  0  0  0
  7 26  1  0  0  0
  7 29  1  0  0  0
  8  9  1  0  0  0
  8 22  1  0  0  0
  9 10  1  0  0  0
  9 27  2  0  0  0
 10 11  2  0  0  0
 10 15  1  0  0  0
 11 12  1  0  0  0
 11 98  1  0  0  0
 12 13  2  0  0  0
 12 99  1  0  0  0
 13 14  1  0  0  0
 13 31  1  0  0  0
 14 15  2  0  0  0
 14100  1  0  0  0
 15101  1  0  0  0
 16 17  2  0  0  0
 16 21  1  0  0  0
 16 31  1  0  0  0
 17 18  1  0  0  0
 17102  1  0  0  0
 18 19  2  0  0  0
 18103  1  0  0  0
 19 20  1  0  0  0
 19 24  1  0  0  0
 20 21  2  0  0  0
 20104  1  0  0  0
 21 23  1  0  0  0
 22 28  1  0  0  0
 22 32  2  0  0  0
 26 27  1  0  0  0
 28105  1  0  0  0
 28106  1  0  0  0
 29107  1  0  0  0
 29108  1  0  0  0
 33 34  1  0  0  0
 33 66  1  0  0  0
 33 70  2  0  0  0
 34 36  1  0  0  0
 34 59  1  0  0  0
 34109  1  0  0  0
 35 44  2  0  0  0
 35 45  1  0  0  0
 35 68  1  0  0  0
 36 56  1  0  0  0
 36110  1  0  0  0
 37 39  1  0  0  0
 37 47  1  0  0  0
 37 66  1  0  0  0
 37111  1  0  0  0
 38 43  2  0  0  0
 38 46  1  0  0  0
 38 47  1  0  0  0
 39 64  1  0  0  0
 39 67  2  0  0  0
 40 52  1  0  0  0
 40 53  2  0  0  0
 40 58  1  0  0  0
 41112  1  0  0  0
 41113  1  0  0  0
 41114  1  0  0  0
 41 48  1  0  0  0
 42 43  1  0  0  0
 42 66  1  0  0  0
 42115  1  0  0  0
 42116  1  0  0  0
 43 44  1  0  0  0
 44117  1  0  0  0
 45 46  2  0  0  0
 45118  1  0  0  0
 46119  1  0  0  0
 47120  1  0  0  0
 47121  1  0  0  0
 48 56  1  0  0  0
 48 65  1  0  0  0
 48122  1  0  0  0
 49 50  1  0  0  0
 49 53  1  0  0  0
 49 64  1  0  0  0
 49123  1  0  0  0
 50 51  1  0  0  0
 50124  1  0  0  0
 50125  1  0  0  0
 51 52  1  0  0  0
 51126  1  0  0  0
 51127  1  0  0  0
 52128  1  0  0  0
 52129  1  0  0  0
 53 54  1  0  0  0
 54 55  2  0  0  0
 54130  1  0  0  0
 55 57  1  0  0  0
 55131  1  0  0  0
 56 69  2  0  0  0
 57 58  2  0  0  0
 57132  1  0  0  0
 58133  1  0  0  0
 59 60  1  0  0  0
 59 61  1  0  0  0
 59 62  1  0  0  0
 60134  1  0  0  0
 60135  1  0  0  0
 60136  1  0  0  0
 61137  1  0  0  0
 61138  1  0  0  0
 61139  1  0  0  0
 62140  1  0  0  0
 62141  1  0  0  0
 62142  1  0  0  0
 63 65  1  0  0  0
 63143  1  0  0  0
 63144  1  0  0  0
 63145  1  0  0  0
 64146  1  0  0  0
 65147  1  0  0  0
 68 84  1  0  0  0
 71 72  1  0  0  0
 71 74  2  0  0  0
 71148  1  0  0  0
 72 73  2  0  0  0
 72 85  1  0  0  0
 73 86  1  0  0  0
 73 88  1  0  0  0
 74 87  1  0  0  0
 74 88  1  0  0  0
 75 77  1  0  0  0
 75 86  1  0  0  0
 75149  1  0  0  0
 75150  1  0  0  0
 76 78  1  0  0  0
 76 86  1  0  0  0
 76151  1  0  0  0
 76152  1  0  0  0
 77 78  1  0  0  0
 77 84  1  0  0  0
 77153  1  0  0  0
 78 79  1  0  0  0
 78 80  1  0  0  0
 79154  1  0  0  0
 79155  1  0  0  0
 79156  1  0  0  0
 80157  1  0  0  0
 80158  1  0  0  0
 80159  1  0  0  0
 81160  1  0  0  0
 81161  1  0  0  0
 81162  1  0  0  0
 81 85  1  0  0  0
 82 85  1  0  0  0
 82163  1  0  0  0
 82164  1  0  0  0
 82165  1  0  0  0
 83 85  1  0  0  0
 83166  1  0  0  0
 83167  1  0  0  0
 83168  1  0  0  0
 84169  1  0  0  0
 84170  1  0  0  0
 87171  1  0  0  0
M  ISO  4   1 100  68 101  84 101  87 100
M  END
> <chiral flag>
0

> <version>
0

> <s_m_source_file>
/data/baiqing/PycharmProjects/Reinvent-master-3.2/result/LINK_invent/BTK/process_docking_weight1_custom_product_contain_oxygen_bond_distance_aromatic_linkinvent_7_9_3/rearranged_h_0146.sdf

> <i_m_source_file_index>
7

> <r_mmod_Potential_Energy-OPLS-2005>
317.793273925781

> <r_mmod_Stretch_Energy-OPLS-2005>
106.33162689209

> <r_mmod_Bend_Energy-OPLS-2005>
214.264846801758

> <r_mmod_Torsional_Energy-OPLS-2005>
337.361267089844

> <r_mmod_Improper_Torsional_Energy-OPLS-2005>
6.81757307052612

> <r_mmod_Van_der_Waal_Energy-OPLS-2005>
116.645515441895

> <r_mmod_Electrostatic_Energy-OPLS-2005>
-344.119232177734

> <r_mmod_Solvation_Energy-OPLS-2005>
-197.402694702148

> <b_mmod_Minimization_Converged-OPLS-2005>
0

> <r_mmod_RMS_Derivative-OPLS-2005>
1.73877537250519

$$$$
7
                    3D
 Structure written by MMmdl.
160169  0  0  1  0            999 V2000
  -30.6226  -14.6667   20.5261 C   0  0  0  0  0  0
  -30.4424  -12.4141   19.4732 C   0  0  0  0  0  0
  -29.5184  -12.5244   18.2388 C   0  0  0  0  0  0
  -28.0404  -12.3496   18.6419 C   0  0  0  0  0  0
  -27.6552  -13.2205   19.8688 C   0  0  2  0  0  0
  -28.6955  -13.0856   21.0041 C   0  0  0  0  0  0
  -25.2563  -13.8163   20.5689 C   0  0  0  0  0  0
  -24.1825  -13.0434   20.9176 C   0  0  0  0  0  0
  -24.6400  -11.6910   20.8734 C   0  0  0  0  0  0
  -23.9071  -10.4294   21.0391 C   0  0  0  0  0  0
  -24.3625   -9.4213   21.9181 C   0  0  0  0  0  0
  -23.6296   -8.2252   22.0754 C   0  0  0  0  0  0
  -22.4283   -8.0287   21.3542 C   0  0  0  0  0  0
  -21.9918   -9.0250   20.4641 C   0  0  0  0  0  0
  -22.7239  -10.2130   20.3042 C   0  0  0  0  0  0
  -21.6855   -6.0743   22.5284 C   0  0  0  0  0  0
  -21.4012   -6.5643   23.8216 C   0  0  0  0  0  0
  -21.3655   -5.6793   24.9177 C   0  0  0  0  0  0
  -21.6040   -4.3054   24.7224 C   0  0  0  0  0  0
  -21.8815   -3.8149   23.4334 C   0  0  0  0  0  0
  -21.9195   -4.6973   22.3397 C   0  0  0  0  0  0
  -22.7852  -13.5237   21.1830 C   0  0  0  0  0  0
  -22.1660   -4.2159   21.0970 F   0  0  0  0  0  0
  -21.5632   -3.4530   25.7727 F   0  0  0  0  0  0
  -30.0140  -13.4373   20.4507 N   0  0  0  0  0  0
  -26.3000  -12.9362   20.3325 N   0  0  0  0  0  0
  -25.9336  -11.6514   20.5755 N   0  0  0  0  0  0
  -22.0484  -12.8232   22.0385 N   0  0  0  0  0  0
  -25.4265  -15.1892   20.4110 N   0  0  0  0  0  0
  -31.7702  -14.8306   20.0998 O   0  0  0  0  0  0
  -21.6645   -6.8879   21.4240 O   0  0  0  0  0  0
  -22.3562  -14.5559   20.6696 O   0  0  0  0  0  0
  -24.6240  -31.8574   23.1976 C   0  0  0  0  0  0
  -25.9091  -32.4778   23.8324 C   0  0  1  0  0  0
  -27.2452  -27.3202   20.1308 C   0  0  0  0  0  0
  -25.5908  -33.8570   24.2250 N   0  0  0  0  0  0
  -23.4219  -30.4781   21.5365 C   0  0  2  0  0  0
  -24.8744  -28.9259   20.1125 C   0  0  0  0  0  0
  -22.7475  -29.4630   22.4896 C   0  0  0  0  0  0
  -18.0290  -28.1395   22.8486 C   0  0  0  0  0  0
  -24.1477  -36.7280   23.2646 C   0  0  0  0  0  0
  -25.9599  -30.7930   21.3632 C   0  0  0  0  0  0
  -26.0410  -29.4178   20.7114 C   0  0  0  0  0  0
  -27.2292  -28.6303   20.7036 C   0  0  0  0  0  0
  -26.0527  -26.8726   19.5154 C   0  0  0  0  0  0
  -24.8832  -27.6592   19.5044 C   0  0  0  0  0  0
  -23.6381  -29.8012   20.1560 C   0  0  0  0  0  0
  -25.4101  -36.3080   24.0339 C   0  0  1  0  0  0
  -20.5897  -28.3699   23.1258 C   0  0  2  0  0  0
  -20.6772  -26.9423   22.5392 C   0  0  0  0  0  0
  -19.5752  -26.6392   21.5199 C   0  0  0  0  0  0
  -18.1930  -26.7938   22.1617 C   0  0  0  0  0  0
  -19.1543  -28.8862   23.2878 C   0  0  0  0  0  0
  -18.9478  -30.1460   23.8901 C   0  0  0  0  0  0
  -17.6489  -30.6600   24.0570 C   0  0  0  0  0  0
  -25.9045  -34.9453   23.5094 C   0  0  0  0  0  0
  -16.5369  -29.9109   23.6337 C   0  0  0  0  0  0
  -16.7276  -28.6521   23.0353 C   0  0  0  0  0  0
  -26.4468  -31.6603   25.0702 C   0  0  0  0  0  0
  -25.3696  -31.3743   26.1434 C   0  0  0  0  0  0
  -27.0317  -30.3036   24.6143 C   0  0  0  0  0  0
  -27.6032  -32.4345   25.7469 C   0  0  0  0  0  0
  -27.5576  -37.1780   24.8461 C   0  0  0  0  0  0
  -21.4194  -29.3069   22.3649 N   0  0  0  0  0  0
  -26.4268  -37.3789   23.9437 N   0  0  0  0  0  0
  -24.6879  -31.0598   22.0913 N   0  0  0  0  0  0
  -23.4200  -28.8185   23.2978 O   0  0  0  0  0  0
  -28.3831  -26.5009   20.1825 O   0  0  0  0  0  0
  -26.5631  -34.8947   22.4676 O   0  0  0  0  0  0
  -23.5404  -32.1370   23.7301 O   0  0  0  0  0  0
  -28.8087  -19.3956   21.2202 C   0  0  0  0  0  0
  -30.7433  -19.2940   19.8101 C   0  0  0  0  0  0
  -28.8994  -17.9811   21.4188 C   0  0  0  0  0  0
  -30.8313  -17.8775   20.0041 C   0  0  0  0  0  0
  -29.7195  -20.1031   20.3888 C   0  0  0  0  0  0
  -29.8941  -17.1666   20.8019 C   0  0  0  0  0  0
  -29.6026  -21.5877   20.0322 C   0  0  0  0  0  0
  -29.3761  -23.8119   22.9902 C   0  0  0  0  0  0
  -30.0679  -24.6819   21.9372 C   0  0  0  0  0  0
  -29.2611  -22.4323   22.3356 C   0  0  0  0  0  0
  -29.5172  -24.1631   20.5994 C   0  0  2  0  0  0
  -28.2279  -25.0240   20.2033 C   0  0  0  0  0  0
  -29.3736  -22.6587   20.8792 N   0  0  0  0  0  0
  -29.8476  -15.7056   20.9846 N   0  0  0  0  0  0
  -29.7661  -21.8943   18.7469 N   0  3  0  0  0  0
  -31.4871  -12.5392   19.1843 H   0  0  0  0  0  0
  -30.3776  -11.4203   19.9175 H   0  0  0  0  0  0
  -29.7966  -11.7785   17.4940 H   0  0  0  0  0  0
  -29.6520  -13.4973   17.7621 H   0  0  0  0  0  0
  -27.8837  -11.2949   18.8711 H   0  0  0  0  0  0
  -27.3875  -12.5718   17.7964 H   0  0  0  0  0  0
  -27.6689  -14.2560   19.5293 H   0  0  0  0  0  0
  -28.7105  -12.0659   21.3908 H   0  0  0  0  0  0
  -28.4279  -13.7144   21.8543 H   0  0  0  0  0  0
  -25.2771   -9.5703   22.4760 H   0  0  0  0  0  0
  -24.0003   -7.4646   22.7481 H   0  0  0  0  0  0
  -21.0850   -8.8760   19.8944 H   0  0  0  0  0  0
  -22.3696  -10.9668   19.6153 H   0  0  0  0  0  0
  -21.1997   -7.6154   23.9723 H   0  0  0  0  0  0
  -21.1484   -6.0520   25.9080 H   0  0  0  0  0  0
  -22.0598   -2.7614   23.2822 H   0  0  0  0  0  0
  -22.4087  -11.9885   22.4762 H   0  0  0  0  0  0
  -21.1104  -13.1269   22.2565 H   0  0  0  0  0  0
  -24.6503  -15.8353   20.5068 H   0  0  0  0  0  0
  -26.2687  -15.6314   20.0666 H   0  0  0  0  0  0
  -26.7162  -32.5441   23.1078 H   0  0  0  0  0  0
  -25.0037  -33.9701   25.0381 H   0  0  0  0  0  0
  -22.7177  -31.2982   21.3822 H   0  0  0  0  0  0
  -23.3766  -35.9588   23.3283 H   0  0  0  0  0  0
  -24.3571  -36.8911   22.2065 H   0  0  0  0  0  0
  -23.7188  -37.6463   23.6666 H   0  0  0  0  0  0
  -26.0802  -31.5523   20.5897 H   0  0  0  0  0  0
  -26.8443  -30.8502   21.9874 H   0  0  0  0  0  0
  -28.1270  -29.0101   21.1725 H   0  0  0  0  0  0
  -26.0082  -25.9014   19.0445 H   0  0  0  0  0  0
  -23.9877  -27.2735   19.0352 H   0  0  0  0  0  0
  -23.7498  -30.5706   19.3918 H   0  0  0  0  0  0
  -22.7622  -29.2195   19.8632 H   0  0  0  0  0  0
  -25.1274  -36.1911   25.0824 H   0  0  0  0  0  0
  -20.9983  -28.3265   24.1379 H   0  0  0  0  0  0
  -20.5643  -26.2324   23.3601 H   0  0  0  0  0  0
  -21.6632  -26.7423   22.1183 H   0  0  0  0  0  0
  -19.6921  -25.6300   21.1222 H   0  0  0  0  0  0
  -19.6697  -27.3202   20.6734 H   0  0  0  0  0  0
  -17.4196  -26.6699   21.4028 H   0  0  0  0  0  0
  -18.0345  -26.0068   22.9006 H   0  0  0  0  0  0
  -19.7961  -30.7265   24.2277 H   0  0  0  0  0  0
  -17.5054  -31.6284   24.5169 H   0  0  0  0  0  0
  -15.5379  -30.3029   23.7666 H   0  0  0  0  0  0
  -15.8675  -28.0856   22.7073 H   0  0  0  0  0  0
  -24.5866  -30.7104   25.7751 H   0  0  0  0  0  0
  -24.8900  -32.2913   26.4873 H   0  0  0  0  0  0
  -25.8013  -30.8905   27.0203 H   0  0  0  0  0  0
  -26.2895  -29.6783   24.1168 H   0  0  0  0  0  0
  -27.4039  -29.7288   25.4629 H   0  0  0  0  0  0
  -27.8735  -30.4351   23.9343 H   0  0  0  0  0  0
  -27.2660  -33.3664   26.2022 H   0  0  0  0  0  0
  -28.3863  -32.6873   25.0309 H   0  0  0  0  0  0
  -28.0681  -31.8479   26.5408 H   0  0  0  0  0  0
  -28.2537  -38.0134   24.7577 H   0  0  0  0  0  0
  -28.1120  -36.2662   24.6170 H   0  0  0  0  0  0
  -27.2312  -37.1262   25.8867 H   0  0  0  0  0  0
  -20.9374  -29.8798   21.6864 H   0  0  0  0  0  0
  -26.0138  -38.2844   24.1521 H   0  0  0  0  0  0
  -27.9932  -19.9283   21.6866 H   0  0  0  0  0  0
  -31.4797  -19.7649   19.1723 H   0  0  0  0  0  0
  -28.1562  -17.5117   22.0493 H   0  0  0  0  0  0
  -31.6238  -17.3391   19.5044 H   0  0  0  0  0  0
  -28.3824  -24.1966   23.2227 H   0  0  0  0  0  0
  -29.9399  -23.7781   23.9233 H   0  0  0  0  0  0
  -31.1505  -24.5495   21.9753 H   0  0  0  0  0  0
  -29.8654  -25.7397   22.1083 H   0  0  0  0  0  0
  -28.3255  -21.9466   22.6129 H   0  0  0  0  0  0
  -30.0834  -21.7994   22.6775 H   0  0  0  0  0  0
  -30.2824  -24.3214   19.8374 H   0  0  0  0  0  0
  -27.4132  -24.7651   20.8800 H   0  0  0  0  0  0
  -27.9159  -24.7042   19.2084 H   0  0  0  0  0  0
  -29.0027  -15.3762   21.4240 H   0  0  0  0  0  0
  -29.8640  -21.1459   18.0770 H   0  0  0  0  0  0
  -29.7090  -22.8365   18.4051 H   0  0  0  0  0  0
  1 25  1  0  0  0
  1 30  2  0  0  0
  1 84  1  0  0  0
  2  3  1  0  0  0
  2 25  1  0  0  0
  2 86  1  0  0  0
  2 87  1  0  0  0
  3  4  1  0  0  0
  3 88  1  0  0  0
  3 89  1  0  0  0
  4  5  1  0  0  0
  4 90  1  0  0  0
  4 91  1  0  0  0
  5  6  1  0  0  0
  5 26  1  0  0  0
  5 92  1  0  0  0
  6 25  1  0  0  0
  6 93  1  0  0  0
  6 94  1  0  0  0
  7  8  2  0  0  0
  7 26  1  0  0  0
  7 29  1  0  0  0
  8  9  1  0  0  0
  8 22  1  0  0  0
  9 10  1  0  0  0
  9 27  2  0  0  0
 10 11  2  0  0  0
 10 15  1  0  0  0
 11 12  1  0  0  0
 11 95  1  0  0  0
 12 13  2  0  0  0
 12 96  1  0  0  0
 13 14  1  0  0  0
 13 31  1  0  0  0
 14 15  2  0  0  0
 14 97  1  0  0  0
 15 98  1  0  0  0
 16 17  2  0  0  0
 16 21  1  0  0  0
 16 31  1  0  0  0
 17 18  1  0  0  0
 17 99  1  0  0  0
 18 19  2  0  0  0
 18100  1  0  0  0
 19 20  1  0  0  0
 19 24  1  0  0  0
 20 21  2  0  0  0
 20101  1  0  0  0
 21 23  1  0  0  0
 22 28  1  0  0  0
 22 32  2  0  0  0
 26 27  1  0  0  0
 28102  1  0  0  0
 28103  1  0  0  0
 29104  1  0  0  0
 29105  1  0  0  0
 33 34  1  0  0  0
 33 66  1  0  0  0
 33 70  2  0  0  0
 34 36  1  0  0  0
 34 59  1  0  0  0
 34106  1  0  0  0
 35 44  2  0  0  0
 35 45  1  0  0  0
 35 68  1  0  0  0
 36 56  1  0  0  0
 36107  1  0  0  0
 37 39  1  0  0  0
 37 47  1  0  0  0
 37 66  1  0  0  0
 37108  1  0  0  0
 38 43  2  0  0  0
 38 46  1  0  0  0
 38 47  1  0  0  0
 39 64  1  0  0  0
 39 67  2  0  0  0
 40 52  1  0  0  0
 40 53  2  0  0  0
 40 58  1  0  0  0
 41109  1  0  0  0
 41110  1  0  0  0
 41111  1  0  0  0
 41 48  1  0  0  0
 42 43  1  0  0  0
 42 66  1  0  0  0
 42112  1  0  0  0
 42113  1  0  0  0
 43 44  1  0  0  0
 44114  1  0  0  0
 45 46  2  0  0  0
 45115  1  0  0  0
 46116  1  0  0  0
 47117  1  0  0  0
 47118  1  0  0  0
 48 56  1  0  0  0
 48 65  1  0  0  0
 48119  1  0  0  0
 49 50  1  0  0  0
 49 53  1  0  0  0
 49 64  1  0  0  0
 49120  1  0  0  0
 50 51  1  0  0  0
 50121  1  0  0  0
 50122  1  0  0  0
 51 52  1  0  0  0
 51123  1  0  0  0
 51124  1  0  0  0
 52125  1  0  0  0
 52126  1  0  0  0
 53 54  1  0  0  0
 54 55  2  0  0  0
 54127  1  0  0  0
 55 57  1  0  0  0
 55128  1  0  0  0
 56 69  2  0  0  0
 57 58  2  0  0  0
 57129  1  0  0  0
 58130  1  0  0  0
 59 60  1  0  0  0
 59 61  1  0  0  0
 59 62  1  0  0  0
 60131  1  0  0  0
 60132  1  0  0  0
 60133  1  0  0  0
 61134  1  0  0  0
 61135  1  0  0  0
 61136  1  0  0  0
 62137  1  0  0  0
 62138  1  0  0  0
 62139  1  0  0  0
 63 65  1  0  0  0
 63140  1  0  0  0
 63141  1  0  0  0
 63142  1  0  0  0
 64143  1  0  0  0
 65144  1  0  0  0
 68 82  1  0  0  0
 71 73  2  0  0  0
 71 75  1  0  0  0
 71145  1  0  0  0
 72 74  1  0  0  0
 72 75  2  0  0  0
 72146  1  0  0  0
 73 76  1  0  0  0
 73147  1  0  0  0
 74 76  2  0  0  0
 74148  1  0  0  0
 75 77  1  0  0  0
 76 84  1  0  0  0
 77 83  1  0  0  0
 77 85  2  0  0  0
 78 79  1  0  0  0
 78 80  1  0  0  0
 78149  1  0  0  0
 78150  1  0  0  0
 79 81  1  0  0  0
 79151  1  0  0  0
 79152  1  0  0  0
 80 83  1  0  0  0
 80153  1  0  0  0
 80154  1  0  0  0
 81 82  1  0  0  0
 81 83  1  0  0  0
 81155  1  0  0  0
 82156  1  0  0  0
 82157  1  0  0  0
 84158  1  0  0  0
 85159  1  0  0  0
 85160  1  0  0  0
M  CHG  1  85   1
M  ISO  4   1 100  68 101  82 101  84 100
M  END
> <chiral flag>
0

> <version>
0

> <s_m_source_file>
/data/baiqing/PycharmProjects/Reinvent-master-3.2/result/LINK_invent/BTK/process_docking_weight1_custom_product_contain_oxygen_bond_distance_aromatic_linkinvent_7_9_3/rearranged_h_0146.sdf

> <i_m_source_file_index>
8

> <r_mmod_Potential_Energy-OPLS-2005>
-10.2129135131836

> <r_mmod_Stretch_Energy-OPLS-2005>
92.1198883056641

> <r_mmod_Bend_Energy-OPLS-2005>
176.494522094727

> <r_mmod_Torsional_Energy-OPLS-2005>
291.354370117188

> <r_mmod_Improper_Torsional_Energy-OPLS-2005>
4.27666187286377

> <r_mmod_Van_der_Waal_Energy-OPLS-2005>
139.83821105957

> <r_mmod_Electrostatic_Energy-OPLS-2005>
-365.607940673828

> <r_mmod_Solvation_Energy-OPLS-2005>
-399.900665283203

> <b_mmod_Minimization_Converged-OPLS-2005>
0

> <r_mmod_RMS_Derivative-OPLS-2005>
2.46118259429932

$$$$
8
                    3D
 Structure written by MMmdl.
183194  0  0  1  0            999 V2000
  -30.6050  -14.6248   20.5403 C   0  0  0  0  0  0
  -30.4548  -12.3962   19.4355 C   0  0  0  0  0  0
  -29.5097  -12.5230   18.2186 C   0  0  0  0  0  0
  -28.0337  -12.3506   18.6362 C   0  0  0  0  0  0
  -27.6619  -13.2053   19.8750 C   0  0  2  0  0  0
  -28.7096  -13.0172   20.9960 C   0  0  0  0  0  0
  -25.2612  -13.8142   20.5710 C   0  0  0  0  0  0
  -24.1858  -13.0427   20.9191 C   0  0  0  0  0  0
  -24.6414  -11.6895   20.8745 C   0  0  0  0  0  0
  -23.9076  -10.4289   21.0408 C   0  0  0  0  0  0
  -24.3625   -9.4208   21.9186 C   0  0  0  0  0  0
  -23.6298   -8.2245   22.0755 C   0  0  0  0  0  0
  -22.4281   -8.0287   21.3546 C   0  0  0  0  0  0
  -21.9920   -9.0258   20.4647 C   0  0  0  0  0  0
  -22.7250  -10.2136   20.3052 C   0  0  0  0  0  0
  -21.6846   -6.0745   22.5284 C   0  0  0  0  0  0
  -21.4008   -6.5642   23.8219 C   0  0  0  0  0  0
  -21.3657   -5.6788   24.9178 C   0  0  0  0  0  0
  -21.6046   -4.3052   24.7220 C   0  0  0  0  0  0
  -21.8822   -3.8150   23.4336 C   0  0  0  0  0  0
  -21.9199   -4.6973   22.3400 C   0  0  0  0  0  0
  -22.7887  -13.5234   21.1863 C   0  0  0  0  0  0
  -22.1668   -4.2165   21.0973 F   0  0  0  0  0  0
  -21.5631   -3.4529   25.7729 F   0  0  0  0  0  0
  -30.0278  -13.3851   20.4413 N   0  0  0  0  0  0
  -26.3041  -12.9304   20.3374 N   0  0  0  0  0  0
  -25.9338  -11.6469   20.5769 N   0  0  0  0  0  0
  -22.0519  -12.8217   22.0406 N   0  0  0  0  0  0
  -25.4340  -15.1867   20.4156 N   0  0  0  0  0  0
  -31.7404  -14.8601   20.1131 O   0  0  0  0  0  0
  -21.6638   -6.8889   21.4244 O   0  0  0  0  0  0
  -22.3588  -14.5564   20.6739 O   0  0  0  0  0  0
  -24.6253  -31.8630   23.2057 C   0  0  0  0  0  0
  -25.9092  -32.4809   23.8388 C   0  0  1  0  0  0
  -27.2240  -27.3308   20.0983 C   0  0  0  0  0  0
  -25.5915  -33.8613   24.2308 N   0  0  0  0  0  0
  -23.4207  -30.4917   21.5475 C   0  0  2  0  0  0
  -24.8644  -28.9541   20.1101 C   0  0  0  0  0  0
  -22.7482  -29.4647   22.4915 C   0  0  0  0  0  0
  -18.0297  -28.1409   22.8529 C   0  0  0  0  0  0
  -24.1454  -36.7231   23.2655 C   0  0  0  0  0  0
  -25.9630  -30.7953   21.3786 C   0  0  0  0  0  0
  -26.0348  -29.4268   20.7134 C   0  0  0  0  0  0
  -27.2186  -28.6285   20.6968 C   0  0  0  0  0  0
  -26.0181  -26.9070   19.4865 C   0  0  0  0  0  0
  -24.8553  -27.6970   19.4918 C   0  0  0  0  0  0
  -23.6359  -29.8383   20.1602 C   0  0  0  0  0  0
  -25.4094  -36.3087   24.0353 C   0  0  1  0  0  0
  -20.5904  -28.3684   23.1288 C   0  0  2  0  0  0
  -20.6776  -26.9409   22.5420 C   0  0  0  0  0  0
  -19.5733  -26.6382   21.5244 C   0  0  0  0  0  0
  -18.1913  -26.7958   22.1655 C   0  0  0  0  0  0
  -19.1558  -28.8860   23.2911 C   0  0  0  0  0  0
  -18.9489  -30.1469   23.8913 C   0  0  0  0  0  0
  -17.6489  -30.6612   24.0584 C   0  0  0  0  0  0
  -25.9047  -34.9474   23.5115 C   0  0  0  0  0  0
  -16.5376  -29.9134   23.6360 C   0  0  0  0  0  0
  -16.7282  -28.6549   23.0381 C   0  0  0  0  0  0
  -26.4501  -31.6630   25.0753 C   0  0  0  0  0  0
  -25.3751  -31.3757   26.1486 C   0  0  0  0  0  0
  -27.0375  -30.3081   24.6161 C   0  0  0  0  0  0
  -27.6048  -32.4391   25.7515 C   0  0  0  0  0  0
  -27.5552  -37.1772   24.8498 C   0  0  0  0  0  0
  -21.4192  -29.3040   22.3654 N   0  0  0  0  0  0
  -26.4265  -37.3786   23.9455 N   0  0  0  0  0  0
  -24.6890  -31.0664   22.1002 N   0  0  0  0  0  0
  -23.4212  -28.8163   23.2967 O   0  0  0  0  0  0
  -28.3529  -26.4908   20.1237 O   0  0  0  0  0  0
  -26.5611  -34.8937   22.4683 O   0  0  0  0  0  0
  -23.5411  -32.1414   23.7373 O   0  0  0  0  0  0
  -30.4390  -18.0450   20.6554 C   0  0  0  0  0  0
  -30.0837  -19.3609   21.2178 C   0  0  0  0  0  0
  -29.0177  -19.2101   22.0860 C   0  0  0  0  0  0
  -29.7344  -16.9536   21.1613 C   0  0  0  0  0  0
  -29.0522  -20.8864   24.1120 C   0  0  0  0  0  0
  -27.9437  -19.9047   24.3794 C   0  0  0  0  0  0
  -29.2749  -23.1744   17.8159 C   0  0  0  0  0  0
  -28.3696  -22.2750   18.6869 C   0  0  0  0  0  0
  -31.1918  -22.7444   19.3822 C   0  0  0  0  0  0
  -28.3342  -20.2279   22.9519 C   0  0  0  0  0  0
  -30.2005  -23.8199   18.8765 C   0  0  2  0  0  0
  -29.3177  -23.9804   20.1144 C   0  0  2  0  0  0
  -29.0138  -22.4239   20.0810 C   0  0  2  0  0  0
  -32.6129  -22.5140   23.0127 C   0  0  0  0  0  0
  -33.1154  -20.1643   19.8960 C   0  0  0  0  0  0
  -32.7486  -19.4348   22.2579 C   0  0  0  0  0  0
  -28.1224  -25.0355   19.9858 C   0  0  0  0  0  0
  -33.2135  -21.8004   21.7902 C   0  0  0  0  0  0
  -30.8365  -20.7398   21.0621 C   0  0  1  0  0  0
  -32.4295  -20.5648   21.2278 C   0  0  0  0  0  0
  -29.7547  -15.5789   21.0146 N   0  0  0  0  0  0
  -30.3246  -21.6739   19.9551 N   0  3  2  0  0  0
  -28.4717  -17.5565   22.1895 S   0  0  0  0  0  0
  -31.4907  -12.5508   19.1281 H   0  0  0  0  0  0
  -30.4118  -11.3898   19.8545 H   0  0  0  0  0  0
  -29.7720  -11.7841   17.4606 H   0  0  0  0  0  0
  -29.6437  -13.4994   17.7496 H   0  0  0  0  0  0
  -27.8756  -11.2944   18.8575 H   0  0  0  0  0  0
  -27.3741  -12.5871   17.8011 H   0  0  0  0  0  0
  -27.6909  -14.2474   19.5567 H   0  0  0  0  0  0
  -28.7248  -11.9801   21.3335 H   0  0  0  0  0  0
  -28.4480  -13.6005   21.8798 H   0  0  0  0  0  0
  -25.2774   -9.5684   22.4754 H   0  0  0  0  0  0
  -24.0015   -7.4630   22.7466 H   0  0  0  0  0  0
  -21.0856   -8.8781   19.8937 H   0  0  0  0  0  0
  -22.3724  -10.9679   19.6158 H   0  0  0  0  0  0
  -21.1982   -7.6151   23.9735 H   0  0  0  0  0  0
  -21.1474   -6.0508   25.9087 H   0  0  0  0  0  0
  -22.0599   -2.7614   23.2824 H   0  0  0  0  0  0
  -22.4112  -11.9847   22.4749 H   0  0  0  0  0  0
  -21.1149  -13.1259   22.2638 H   0  0  0  0  0  0
  -24.6650  -15.8390   20.5283 H   0  0  0  0  0  0
  -26.2863  -15.6323   20.0993 H   0  0  0  0  0  0
  -26.7152  -32.5478   23.1139 H   0  0  0  0  0  0
  -25.0117  -33.9791   25.0480 H   0  0  0  0  0  0
  -22.7142  -31.3129   21.4098 H   0  0  0  0  0  0
  -23.3760  -35.9516   23.3345 H   0  0  0  0  0  0
  -24.3529  -36.8804   22.2057 H   0  0  0  0  0  0
  -23.7136  -37.6412   23.6657 H   0  0  0  0  0  0
  -26.1027  -31.5635   20.6169 H   0  0  0  0  0  0
  -26.8412  -30.8341   22.0100 H   0  0  0  0  0  0
  -28.1188  -28.9923   21.1710 H   0  0  0  0  0  0
  -25.9249  -25.9553   18.9911 H   0  0  0  0  0  0
  -23.9571  -27.3293   19.0166 H   0  0  0  0  0  0
  -23.7606  -30.6250   19.4132 H   0  0  0  0  0  0
  -22.7544  -29.2752   19.8496 H   0  0  0  0  0  0
  -25.1259  -36.1934   25.0840 H   0  0  0  0  0  0
  -21.0035  -28.3255   24.1393 H   0  0  0  0  0  0
  -20.5680  -26.2298   23.3624 H   0  0  0  0  0  0
  -21.6636  -26.7436   22.1185 H   0  0  0  0  0  0
  -19.6891  -25.6295   21.1255 H   0  0  0  0  0  0
  -19.6676  -27.3210   20.6791 H   0  0  0  0  0  0
  -17.4195  -26.6753   21.4042 H   0  0  0  0  0  0
  -18.0277  -26.0103   22.9039 H   0  0  0  0  0  0
  -19.7966  -30.7292   24.2259 H   0  0  0  0  0  0
  -17.5062  -31.6309   24.5174 H   0  0  0  0  0  0
  -15.5375  -30.3048   23.7686 H   0  0  0  0  0  0
  -15.8680  -28.0877   22.7082 H   0  0  0  0  0  0
  -24.5938  -30.7086   25.7826 H   0  0  0  0  0  0
  -24.8931  -32.2918   26.4908 H   0  0  0  0  0  0
  -25.8082  -30.8960   27.0267 H   0  0  0  0  0  0
  -26.2959  -29.6823   24.1173 H   0  0  0  0  0  0
  -27.4130  -29.7332   25.4634 H   0  0  0  0  0  0
  -27.8803  -30.4444   23.9378 H   0  0  0  0  0  0
  -27.2652  -33.3716   26.2045 H   0  0  0  0  0  0
  -28.3879  -32.6910   25.0350 H   0  0  0  0  0  0
  -28.0701  -31.8554   26.5466 H   0  0  0  0  0  0
  -28.2598  -38.0047   24.7541 H   0  0  0  0  0  0
  -28.1004  -36.2571   24.6321 H   0  0  0  0  0  0
  -27.2276  -37.1414   25.8907 H   0  0  0  0  0  0
  -20.9335  -29.8804   21.6921 H   0  0  0  0  0  0
  -26.0132  -38.2837   24.1519 H   0  0  0  0  0  0
  -31.2567  -17.9250   19.9613 H   0  0  0  0  0  0
  -30.0624  -20.5572   24.3480 H   0  0  0  0  0  0
  -28.8516  -21.9396   24.2988 H   0  0  0  0  0  0
  -26.9967  -20.3043   24.7399 H   0  0  0  0  0  0
  -28.2236  -18.9351   24.7875 H   0  0  0  0  0  0
  -28.6953  -23.9127   17.2605 H   0  0  0  0  0  0
  -29.8403  -22.5983   17.0824 H   0  0  0  0  0  0
  -28.3492  -21.2418   18.3377 H   0  0  0  0  0  0
  -27.3388  -22.6311   18.6878 H   0  0  0  0  0  0
  -31.7905  -23.2372   20.1360 H   0  0  0  0  0  0
  -31.8408  -22.3884   18.5836 H   0  0  0  0  0  0
  -27.5795  -20.7836   22.4014 H   0  0  0  0  0  0
  -30.6879  -24.7368   18.5437 H   0  0  0  0  0  0
  -29.8958  -24.2327   21.0055 H   0  0  0  0  0  0
  -28.3667  -22.0761   20.8795 H   0  0  0  0  0  0
  -33.3209  -23.2438   23.4061 H   0  0  0  0  0  0
  -32.3857  -21.8175   23.8204 H   0  0  0  0  0  0
  -31.7036  -23.0610   22.7657 H   0  0  0  0  0  0
  -34.0505  -19.6322   20.0795 H   0  0  0  0  0  0
  -33.3872  -21.0228   19.2844 H   0  0  0  0  0  0
  -32.4982  -19.5208   19.2730 H   0  0  0  0  0  0
  -33.7876  -19.4470   22.5898 H   0  0  0  0  0  0
  -32.6140  -18.4329   21.8574 H   0  0  0  0  0  0
  -32.1330  -19.5167   23.1548 H   0  0  0  0  0  0
  -27.3718  -24.7616   20.7295 H   0  0  0  0  0  0
  -27.6605  -24.8774   19.0165 H   0  0  0  0  0  0
  -34.2196  -21.4826   22.0692 H   0  0  0  0  0  0
  -33.4481  -22.5321   21.0227 H   0  0  0  0  0  0
  -30.5634  -21.3098   21.9444 H   0  0  0  0  0  0
  -28.9166  -15.1429   21.3680 H   0  0  0  0  0  0
  -30.1688  -21.0386   19.1883 H   0  0  0  0  0  0
  1 25  1  0  0  0
  1 30  2  0  0  0
  1 91  1  0  0  0
  2  3  1  0  0  0
  2 25  1  0  0  0
  2 94  1  0  0  0
  2 95  1  0  0  0
  3  4  1  0  0  0
  3 96  1  0  0  0
  3 97  1  0  0  0
  4  5  1  0  0  0
  4 98  1  0  0  0
  4 99  1  0  0  0
  5  6  1  0  0  0
  5 26  1  0  0  0
  5100  1  0  0  0
  6 25  1  0  0  0
  6101  1  0  0  0
  6102  1  0  0  0
  7  8  2  0  0  0
  7 26  1  0  0  0
  7 29  1  0  0  0
  8  9  1  0  0  0
  8 22  1  0  0  0
  9 10  1  0  0  0
  9 27  2  0  0  0
 10 11  2  0  0  0
 10 15  1  0  0  0
 11 12  1  0  0  0
 11103  1  0  0  0
 12 13  2  0  0  0
 12104  1  0  0  0
 13 14  1  0  0  0
 13 31  1  0  0  0
 14 15  2  0  0  0
 14105  1  0  0  0
 15106  1  0  0  0
 16 17  2  0  0  0
 16 21  1  0  0  0
 16 31  1  0  0  0
 17 18  1  0  0  0
 17107  1  0  0  0
 18 19  2  0  0  0
 18108  1  0  0  0
 19 20  1  0  0  0
 19 24  1  0  0  0
 20 21  2  0  0  0
 20109  1  0  0  0
 21 23  1  0  0  0
 22 28  1  0  0  0
 22 32  2  0  0  0
 26 27  1  0  0  0
 28110  1  0  0  0
 28111  1  0  0  0
 29112  1  0  0  0
 29113  1  0  0  0
 33 34  1  0  0  0
 33 66  1  0  0  0
 33 70  2  0  0  0
 34 36  1  0  0  0
 34 59  1  0  0  0
 34114  1  0  0  0
 35 44  2  0  0  0
 35 45  1  0  0  0
 35 68  1  0  0  0
 36 56  1  0  0  0
 36115  1  0  0  0
 37 39  1  0  0  0
 37 47  1  0  0  0
 37 66  1  0  0  0
 37116  1  0  0  0
 38 43  2  0  0  0
 38 46  1  0  0  0
 38 47  1  0  0  0
 39 64  1  0  0  0
 39 67  2  0  0  0
 40 52  1  0  0  0
 40 53  2  0  0  0
 40 58  1  0  0  0
 41117  1  0  0  0
 41118  1  0  0  0
 41119  1  0  0  0
 41 48  1  0  0  0
 42 43  1  0  0  0
 42 66  1  0  0  0
 42120  1  0  0  0
 42121  1  0  0  0
 43 44  1  0  0  0
 44122  1  0  0  0
 45 46  2  0  0  0
 45123  1  0  0  0
 46124  1  0  0  0
 47125  1  0  0  0
 47126  1  0  0  0
 48 56  1  0  0  0
 48 65  1  0  0  0
 48127  1  0  0  0
 49 50  1  0  0  0
 49 53  1  0  0  0
 49 64  1  0  0  0
 49128  1  0  0  0
 50 51  1  0  0  0
 50129  1  0  0  0
 50130  1  0  0  0
 51 52  1  0  0  0
 51131  1  0  0  0
 51132  1  0  0  0
 52133  1  0  0  0
 52134  1  0  0  0
 53 54  1  0  0  0
 54 55  2  0  0  0
 54135  1  0  0  0
 55 57  1  0  0  0
 55136  1  0  0  0
 56 69  2  0  0  0
 57 58  2  0  0  0
 57137  1  0  0  0
 58138  1  0  0  0
 59 60  1  0  0  0
 59 61  1  0  0  0
 59 62  1  0  0  0
 60139  1  0  0  0
 60140  1  0  0  0
 60141  1  0  0  0
 61142  1  0  0  0
 61143  1  0  0  0
 61144  1  0  0  0
 62145  1  0  0  0
 62146  1  0  0  0
 62147  1  0  0  0
 63 65  1  0  0  0
 63148  1  0  0  0
 63149  1  0  0  0
 63150  1  0  0  0
 64151  1  0  0  0
 65152  1  0  0  0
 68 87  1  0  0  0
 71 72  1  0  0  0
 71 74  2  0  0  0
 71153  1  0  0  0
 72 73  2  0  0  0
 72 89  1  0  0  0
 73 93  1  0  0  0
 73 80  1  0  0  0
 74 91  1  0  0  0
 74 93  1  0  0  0
 75 76  1  0  0  0
 75 80  1  0  0  0
 75154  1  0  0  0
 75155  1  0  0  0
 76 80  1  0  0  0
 76156  1  0  0  0
 76157  1  0  0  0
 77 78  1  0  0  0
 77158  1  0  0  0
 77159  1  0  0  0
 77 81  1  0  0  0
 78160  1  0  0  0
 78161  1  0  0  0
 78 83  1  0  0  0
 79 81  1  0  0  0
 79162  1  0  0  0
 79163  1  0  0  0
 79 92  1  0  0  0
 80164  1  0  0  0
 81 82  1  0  0  0
 81165  1  0  0  0
 82 83  1  0  0  0
 82 87  1  0  0  0
 82166  1  0  0  0
 83 92  1  0  0  0
 83167  1  0  0  0
 84 88  1  0  0  0
 84168  1  0  0  0
 84169  1  0  0  0
 84170  1  0  0  0
 85171  1  0  0  0
 85172  1  0  0  0
 85173  1  0  0  0
 85 90  1  0  0  0
 86 90  1  0  0  0
 86174  1  0  0  0
 86175  1  0  0  0
 86176  1  0  0  0
 87177  1  0  0  0
 87178  1  0  0  0
 88 90  1  0  0  0
 88179  1  0  0  0
 88180  1  0  0  0
 89 90  1  0  0  0
 89 92  1  0  0  0
 89181  1  0  0  0
 91182  1  0  0  0
 92183  1  0  0  0
M  CHG  1  92   1
M  ISO  4   1 100  68 101  87 101  91 100
M  END
> <chiral flag>
0

> <version>
0

> <s_m_source_file>
/data/baiqing/PycharmProjects/Reinvent-master-3.2/result/LINK_invent/BTK/process_docking_weight1_custom_product_contain_oxygen_bond_distance_aromatic_linkinvent_7_9_3/rearranged_h_0146.sdf

> <i_m_source_file_index>
9

> <r_mmod_Potential_Energy-OPLS-2005>
274.272521972656

> <r_mmod_Stretch_Energy-OPLS-2005>
95.9941253662109

> <r_mmod_Bend_Energy-OPLS-2005>
327.361267089844

> <r_mmod_Torsional_Energy-OPLS-2005>
343.854705810547

> <r_mmod_Improper_Torsional_Energy-OPLS-2005>
4.15958833694458

> <r_mmod_Van_der_Waal_Energy-OPLS-2005>
144.750076293945

> <r_mmod_Electrostatic_Energy-OPLS-2005>
-276.727661132812

> <r_mmod_Solvation_Energy-OPLS-2005>
-409.142059326172

> <b_mmod_Minimization_Converged-OPLS-2005>
0

> <r_mmod_RMS_Derivative-OPLS-2005>
2.65345668792725

$$$$
9
                    3D
 Structure written by MMmdl.
156165  0  0  1  0            999 V2000
  -30.5856  -14.7115   20.4987 C   0  0  0  0  0  0
  -30.4434  -12.4342   19.4823 C   0  0  0  0  0  0
  -29.5222  -12.5231   18.2445 C   0  0  0  0  0  0
  -28.0437  -12.3483   18.6460 C   0  0  0  0  0  0
  -27.6524  -13.2248   19.8659 C   0  0  2  0  0  0
  -28.6895  -13.1046   21.0048 C   0  0  0  0  0  0
  -25.2553  -13.8189   20.5687 C   0  0  0  0  0  0
  -24.1824  -13.0447   20.9188 C   0  0  0  0  0  0
  -24.6408  -11.6918   20.8731 C   0  0  0  0  0  0
  -23.9078  -10.4300   21.0399 C   0  0  0  0  0  0
  -24.3630   -9.4212   21.9180 C   0  0  0  0  0  0
  -23.6306   -8.2247   22.0748 C   0  0  0  0  0  0
  -22.4288   -8.0286   21.3547 C   0  0  0  0  0  0
  -21.9917   -9.0257   20.4642 C   0  0  0  0  0  0
  -22.7249  -10.2136   20.3048 C   0  0  0  0  0  0
  -21.6854   -6.0745   22.5290 C   0  0  0  0  0  0
  -21.4016   -6.5646   23.8222 C   0  0  0  0  0  0
  -21.3661   -5.6796   24.9187 C   0  0  0  0  0  0
  -21.6044   -4.3058   24.7230 C   0  0  0  0  0  0
  -21.8818   -3.8153   23.4357 C   0  0  0  0  0  0
  -21.9195   -4.6970   22.3408 C   0  0  0  0  0  0
  -22.7851  -13.5227   21.1863 C   0  0  0  0  0  0
  -22.1662   -4.2156   21.0985 F   0  0  0  0  0  0
  -21.5629   -3.4539   25.7741 F   0  0  0  0  0  0
  -30.0032  -13.4646   20.4514 N   0  0  0  0  0  0
  -26.2981  -12.9380   20.3303 N   0  0  0  0  0  0
  -25.9336  -11.6530   20.5743 N   0  0  0  0  0  0
  -22.0488  -12.8213   22.0414 N   0  0  0  0  0  0
  -25.4262  -15.1913   20.4128 N   0  0  0  0  0  0
  -31.7284  -14.8815   20.0593 O   0  0  0  0  0  0
  -21.6651   -6.8885   21.4244 O   0  0  0  0  0  0
  -22.3524  -14.5536   20.6721 O   0  0  0  0  0  0
  -24.6294  -31.8575   23.2034 C   0  0  0  0  0  0
  -25.9139  -32.4759   23.8361 C   0  0  1  0  0  0
  -27.2183  -27.2831   20.1203 C   0  0  0  0  0  0
  -25.5960  -33.8568   24.2289 N   0  0  0  0  0  0
  -23.4238  -30.4825   21.5451 C   0  0  2  0  0  0
  -24.8705  -28.9394   20.1064 C   0  0  0  0  0  0
  -22.7485  -29.4621   22.4927 C   0  0  0  0  0  0
  -18.0283  -28.1382   22.8492 C   0  0  0  0  0  0
  -24.1485  -36.7270   23.2642 C   0  0  0  0  0  0
  -25.9694  -30.7730   21.3867 C   0  0  0  0  0  0
  -26.0382  -29.3987   20.7274 C   0  0  0  0  0  0
  -27.2102  -28.5800   20.7327 C   0  0  0  0  0  0
  -26.0335  -26.9045   19.4448 C   0  0  0  0  0  0
  -24.8726  -27.6972   19.4578 C   0  0  0  0  0  0
  -23.6410  -29.8232   20.1579 C   0  0  0  0  0  0
  -25.4112  -36.3071   24.0328 C   0  0  1  0  0  0
  -20.5886  -28.3688   23.1277 C   0  0  2  0  0  0
  -20.6774  -26.9406   22.5411 C   0  0  0  0  0  0
  -19.5751  -26.6380   21.5218 C   0  0  0  0  0  0
  -18.1927  -26.7933   22.1623 C   0  0  0  0  0  0
  -19.1535  -28.8850   23.2880 C   0  0  0  0  0  0
  -18.9464  -30.1454   23.8894 C   0  0  0  0  0  0
  -17.6465  -30.6590   24.0559 C   0  0  0  0  0  0
  -25.9051  -34.9444   23.5100 C   0  0  0  0  0  0
  -16.5351  -29.9084   23.6343 C   0  0  0  0  0  0
  -16.7269  -28.6496   23.0368 C   0  0  0  0  0  0
  -26.4516  -31.6580   25.0747 C   0  0  0  0  0  0
  -25.3752  -31.3751   26.1484 C   0  0  0  0  0  0
  -27.0354  -30.2995   24.6244 C   0  0  0  0  0  0
  -27.6091  -32.4315   25.7491 C   0  0  0  0  0  0
  -27.5573  -37.1792   24.8467 C   0  0  0  0  0  0
  -21.4195  -29.3044   22.3660 N   0  0  0  0  0  0
  -26.4289  -37.3768   23.9408 N   0  0  0  0  0  0
  -24.6925  -31.0551   22.1009 N   0  0  0  0  0  0
  -23.4192  -28.8163   23.3020 O   0  0  0  0  0  0
  -28.3266  -26.4097   20.2032 O   0  0  0  0  0  0
  -26.5599  -34.8909   22.4658 O   0  0  0  0  0  0
  -23.5450  -32.1394   23.7337 O   0  0  0  0  0  0
  -29.8951  -19.2671   19.5576 C   0  0  0  0  0  0
  -30.1150  -17.8282   19.5284 C   0  0  0  0  0  0
  -29.4232  -19.7839   20.7471 C   0  0  0  0  0  0
  -29.8123  -17.1376   20.6882 C   0  0  0  0  0  0
  -28.8698  -22.7791   23.0363 C   0  0  0  0  0  0
  -28.2745  -23.8642   22.1324 C   0  0  0  0  0  0
  -28.5936  -21.3684   22.4887 C   0  0  0  0  0  0
  -28.7958  -22.2765   20.1794 C   0  0  0  0  0  0
  -28.8846  -23.8027   20.7242 C   0  0  1  0  0  0
  -28.2154  -24.9608   19.8307 C   0  0  0  0  0  0
  -29.1448  -21.1622   21.1446 N   0  0  0  0  0  0
  -29.8143  -15.7607   20.9638 N   0  0  0  0  0  0
  -29.2195  -18.3706   21.8350 S   0  0  0  0  0  0
  -31.4847  -12.5695   19.1860 H   0  0  0  0  0  0
  -30.3927  -11.4421   19.9324 H   0  0  0  0  0  0
  -29.8040  -11.7684   17.5091 H   0  0  0  0  0  0
  -29.6582  -13.4907   17.7589 H   0  0  0  0  0  0
  -27.8888  -11.2948   18.8836 H   0  0  0  0  0  0
  -27.3929  -12.5678   17.7986 H   0  0  0  0  0  0
  -27.6648  -14.2576   19.5168 H   0  0  0  0  0  0
  -28.7108  -12.0900   21.4031 H   0  0  0  0  0  0
  -28.4160  -13.7455   21.8432 H   0  0  0  0  0  0
  -25.2776   -9.5698   22.4748 H   0  0  0  0  0  0
  -24.0027   -7.4637   22.7461 H   0  0  0  0  0  0
  -21.0850   -8.8777   19.8944 H   0  0  0  0  0  0
  -22.3711  -10.9677   19.6152 H   0  0  0  0  0  0
  -21.2002   -7.6155   23.9732 H   0  0  0  0  0  0
  -21.1482   -6.0523   25.9087 H   0  0  0  0  0  0
  -22.0591   -2.7614   23.2852 H   0  0  0  0  0  0
  -22.4097  -11.9867   22.4798 H   0  0  0  0  0  0
  -21.1105  -13.1235   22.2619 H   0  0  0  0  0  0
  -24.6577  -15.8450   20.5196 H   0  0  0  0  0  0
  -26.2806  -15.6318   20.0943 H   0  0  0  0  0  0
  -26.7204  -32.5413   23.1097 H   0  0  0  0  0  0
  -25.0167  -33.9714   25.0473 H   0  0  0  0  0  0
  -22.7203  -31.3052   21.4038 H   0  0  0  0  0  0
  -23.3760  -35.9592   23.3304 H   0  0  0  0  0  0
  -24.3594  -36.8880   22.2059 H   0  0  0  0  0  0
  -23.7210  -37.6462   23.6660 H   0  0  0  0  0  0
  -26.1161  -31.5370   20.6209 H   0  0  0  0  0  0
  -26.8447  -30.8153   22.0228 H   0  0  0  0  0  0
  -28.0976  -28.9241   21.2447 H   0  0  0  0  0  0
  -25.9610  -25.9848   18.8869 H   0  0  0  0  0  0
  -23.9854  -27.3471   18.9488 H   0  0  0  0  0  0
  -23.7605  -30.6036   19.4057 H   0  0  0  0  0  0
  -22.7606  -29.2547   19.8531 H   0  0  0  0  0  0
  -25.1290  -36.1926   25.0817 H   0  0  0  0  0  0
  -20.9977  -28.3251   24.1398 H   0  0  0  0  0  0
  -20.5689  -26.2283   23.3606 H   0  0  0  0  0  0
  -21.6637  -26.7443   22.1188 H   0  0  0  0  0  0
  -19.6907  -25.6292   21.1245 H   0  0  0  0  0  0
  -19.6696  -27.3185   20.6745 H   0  0  0  0  0  0
  -17.4200  -26.6689   21.4018 H   0  0  0  0  0  0
  -18.0315  -26.0071   22.9009 H   0  0  0  0  0  0
  -19.7937  -30.7268   24.2261 H   0  0  0  0  0  0
  -17.5018  -31.6280   24.5141 H   0  0  0  0  0  0
  -15.5349  -30.2983   23.7683 H   0  0  0  0  0  0
  -15.8663  -28.0810   22.7105 H   0  0  0  0  0  0
  -24.5882  -30.7152   25.7815 H   0  0  0  0  0  0
  -24.9009  -32.2939   26.4948 H   0  0  0  0  0  0
  -25.8072  -30.8882   27.0237 H   0  0  0  0  0  0
  -26.2935  -29.6740   24.1274 H   0  0  0  0  0  0
  -27.4027  -29.7269   25.4770 H   0  0  0  0  0  0
  -27.8826  -30.4254   23.9499 H   0  0  0  0  0  0
  -27.2729  -33.3640   26.2036 H   0  0  0  0  0  0
  -28.3909  -32.6827   25.0309 H   0  0  0  0  0  0
  -28.0755  -31.8458   26.5419 H   0  0  0  0  0  0
  -28.2594  -38.0084   24.7511 H   0  0  0  0  0  0
  -28.1058  -36.2619   24.6293 H   0  0  0  0  0  0
  -27.2304  -37.1429   25.8873 H   0  0  0  0  0  0
  -20.9360  -29.8763   21.6874 H   0  0  0  0  0  0
  -26.0167  -38.2837   24.1430 H   0  0  0  0  0  0
  -30.1037  -19.8704   18.6869 H   0  0  0  0  0  0
  -30.4667  -17.3506   18.6251 H   0  0  0  0  0  0
  -28.4370  -22.8689   24.0345 H   0  0  0  0  0  0
  -29.9425  -22.9387   23.1567 H   0  0  0  0  0  0
  -28.4423  -24.8489   22.5728 H   0  0  0  0  0  0
  -27.1933  -23.7342   22.0738 H   0  0  0  0  0  0
  -27.5179  -21.1842   22.4665 H   0  0  0  0  0  0
  -29.0199  -20.6578   23.1956 H   0  0  0  0  0  0
  -29.4236  -22.1857   19.2929 H   0  0  0  0  0  0
  -27.7753  -22.0958   19.8374 H   0  0  0  0  0  0
  -29.9438  -24.0451   20.8159 H   0  0  0  0  0  0
  -27.1773  -24.6490   19.7618 H   0  0  0  0  0  0
  -28.6131  -24.8773   18.8193 H   0  0  0  0  0  0
  -29.0310  -15.4521   21.5212 H   0  0  0  0  0  0
  1 25  1  0  0  0
  1 30  2  0  0  0
  1 82  1  0  0  0
  2  3  1  0  0  0
  2 25  1  0  0  0
  2 84  1  0  0  0
  2 85  1  0  0  0
  3  4  1  0  0  0
  3 86  1  0  0  0
  3 87  1  0  0  0
  4  5  1  0  0  0
  4 88  1  0  0  0
  4 89  1  0  0  0
  5  6  1  0  0  0
  5 26  1  0  0  0
  5 90  1  0  0  0
  6 25  1  0  0  0
  6 91  1  0  0  0
  6 92  1  0  0  0
  7  8  2  0  0  0
  7 26  1  0  0  0
  7 29  1  0  0  0
  8  9  1  0  0  0
  8 22  1  0  0  0
  9 10  1  0  0  0
  9 27  2  0  0  0
 10 11  2  0  0  0
 10 15  1  0  0  0
 11 12  1  0  0  0
 11 93  1  0  0  0
 12 13  2  0  0  0
 12 94  1  0  0  0
 13 14  1  0  0  0
 13 31  1  0  0  0
 14 15  2  0  0  0
 14 95  1  0  0  0
 15 96  1  0  0  0
 16 17  2  0  0  0
 16 21  1  0  0  0
 16 31  1  0  0  0
 17 18  1  0  0  0
 17 97  1  0  0  0
 18 19  2  0  0  0
 18 98  1  0  0  0
 19 20  1  0  0  0
 19 24  1  0  0  0
 20 21  2  0  0  0
 20 99  1  0  0  0
 21 23  1  0  0  0
 22 28  1  0  0  0
 22 32  2  0  0  0
 26 27  1  0  0  0
 28100  1  0  0  0
 28101  1  0  0  0
 29102  1  0  0  0
 29103  1  0  0  0
 33 34  1  0  0  0
 33 66  1  0  0  0
 33 70  2  0  0  0
 34 36  1  0  0  0
 34 59  1  0  0  0
 34104  1  0  0  0
 35 44  2  0  0  0
 35 45  1  0  0  0
 35 68  1  0  0  0
 36 56  1  0  0  0
 36105  1  0  0  0
 37 39  1  0  0  0
 37 47  1  0  0  0
 37 66  1  0  0  0
 37106  1  0  0  0
 38 43  2  0  0  0
 38 46  1  0  0  0
 38 47  1  0  0  0
 39 64  1  0  0  0
 39 67  2  0  0  0
 40 52  1  0  0  0
 40 53  2  0  0  0
 40 58  1  0  0  0
 41107  1  0  0  0
 41108  1  0  0  0
 41109  1  0  0  0
 41 48  1  0  0  0
 42 43  1  0  0  0
 42 66  1  0  0  0
 42110  1  0  0  0
 42111  1  0  0  0
 43 44  1  0  0  0
 44112  1  0  0  0
 45 46  2  0  0  0
 45113  1  0  0  0
 46114  1  0  0  0
 47115  1  0  0  0
 47116  1  0  0  0
 48 56  1  0  0  0
 48 65  1  0  0  0
 48117  1  0  0  0
 49 50  1  0  0  0
 49 53  1  0  0  0
 49 64  1  0  0  0
 49118  1  0  0  0
 50 51  1  0  0  0
 50119  1  0  0  0
 50120  1  0  0  0
 51 52  1  0  0  0
 51121  1  0  0  0
 51122  1  0  0  0
 52123  1  0  0  0
 52124  1  0  0  0
 53 54  1  0  0  0
 54 55  2  0  0  0
 54125  1  0  0  0
 55 57  1  0  0  0
 55126  1  0  0  0
 56 69  2  0  0  0
 57 58  2  0  0  0
 57127  1  0  0  0
 58128  1  0  0  0
 59 60  1  0  0  0
 59 61  1  0  0  0
 59 62  1  0  0  0
 60129  1  0  0  0
 60130  1  0  0  0
 60131  1  0  0  0
 61132  1  0  0  0
 61133  1  0  0  0
 61134  1  0  0  0
 62135  1  0  0  0
 62136  1  0  0  0
 62137  1  0  0  0
 63 65  1  0  0  0
 63138  1  0  0  0
 63139  1  0  0  0
 63140  1  0  0  0
 64141  1  0  0  0
 65142  1  0  0  0
 68 80  1  0  0  0
 71 72  1  0  0  0
 71 73  2  0  0  0
 71143  1  0  0  0
 72 74  2  0  0  0
 72144  1  0  0  0
 73 81  1  0  0  0
 73 83  1  0  0  0
 74 82  1  0  0  0
 74 83  1  0  0  0
 75 76  1  0  0  0
 75 77  1  0  0  0
 75145  1  0  0  0
 75146  1  0  0  0
 76 79  1  0  0  0
 76147  1  0  0  0
 76148  1  0  0  0
 77 81  1  0  0  0
 77149  1  0  0  0
 77150  1  0  0  0
 78 79  1  0  0  0
 78 81  1  0  0  0
 78151  1  0  0  0
 78152  1  0  0  0
 79 80  1  0  0  0
 79153  1  0  0  0
 80154  1  0  0  0
 80155  1  0  0  0
 82156  1  0  0  0
M  ISO  4   1 100  68 101  80 101  82 100
M  END
> <chiral flag>
0

> <version>
0

> <s_m_source_file>
/data/baiqing/PycharmProjects/Reinvent-master-3.2/result/LINK_invent/BTK/process_docking_weight1_custom_product_contain_oxygen_bond_distance_aromatic_linkinvent_7_9_3/rearranged_h_0146.sdf

> <i_m_source_file_index>
10

> <r_mmod_Potential_Energy-OPLS-2005>
165.750122070312

> <r_mmod_Stretch_Energy-OPLS-2005>
105.686668395996

> <r_mmod_Bend_Energy-OPLS-2005>
162.052520751953

> <r_mmod_Torsional_Energy-OPLS-2005>
252.297271728516

> <r_mmod_Improper_Torsional_Energy-OPLS-2005>
4.94387722015381

> <r_mmod_Van_der_Waal_Energy-OPLS-2005>
129.346725463867

> <r_mmod_Electrostatic_Energy-OPLS-2005>
-331.842346191406

> <r_mmod_Solvation_Energy-OPLS-2005>
-228.859252929688

> <b_mmod_Minimization_Converged-OPLS-2005>
0

> <r_mmod_RMS_Derivative-OPLS-2005>
2.03902554512024

$$$$
10
                    3D
 Structure written by MMmdl.
159168  0  0  1  0            999 V2000
  -30.7028  -14.4832   20.5207 C   0  0  0  0  0  0
  -30.4330  -12.2887   19.4470 C   0  0  0  0  0  0
  -29.5213  -12.4817   18.2157 C   0  0  0  0  0  0
  -28.0339  -12.3518   18.6150 C   0  0  0  0  0  0
  -27.6669  -13.2030   19.8637 C   0  0  2  0  0  0
  -28.7056  -13.0142   20.9923 C   0  0  0  0  0  0
  -25.2577  -13.8151   20.5633 C   0  0  0  0  0  0
  -24.1818  -13.0421   20.9121 C   0  0  0  0  0  0
  -24.6391  -11.6906   20.8653 C   0  0  0  0  0  0
  -23.9051  -10.4302   21.0382 C   0  0  0  0  0  0
  -24.3600   -9.4223   21.9179 C   0  0  0  0  0  0
  -23.6255   -8.2273   22.0753 C   0  0  0  0  0  0
  -22.4251   -8.0292   21.3563 C   0  0  0  0  0  0
  -21.9887   -9.0270   20.4682 C   0  0  0  0  0  0
  -22.7219  -10.2133   20.3067 C   0  0  0  0  0  0
  -21.6852   -6.0731   22.5299 C   0  0  0  0  0  0
  -21.4033   -6.5616   23.8231 C   0  0  0  0  0  0
  -21.3653   -5.6760   24.9179 C   0  0  0  0  0  0
  -21.6034   -4.3033   24.7227 C   0  0  0  0  0  0
  -21.8814   -3.8139   23.4357 C   0  0  0  0  0  0
  -21.9205   -4.6955   22.3415 C   0  0  0  0  0  0
  -22.7864  -13.5245   21.1811 C   0  0  0  0  0  0
  -22.1649   -4.2150   21.0990 F   0  0  0  0  0  0
  -21.5611   -3.4520   25.7742 F   0  0  0  0  0  0
  -30.0423  -13.2974   20.4381 N   0  0  0  0  0  0
  -26.3027  -12.9331   20.3277 N   0  0  0  0  0  0
  -25.9315  -11.6494   20.5691 N   0  0  0  0  0  0
  -22.0465  -12.8301   22.0377 N   0  0  0  0  0  0
  -25.4234  -15.1883   20.4058 N   0  0  0  0  0  0
  -31.8627  -14.6352   20.1192 O   0  0  0  0  0  0
  -21.6620   -6.8886   21.4262 O   0  0  0  0  0  0
  -22.3593  -14.5598   20.6673 O   0  0  0  0  0  0
  -24.6103  -31.8694   23.2119 C   0  0  0  0  0  0
  -25.8992  -32.4821   23.8414 C   0  0  1  0  0  0
  -27.2600  -27.4756   20.1033 C   0  0  0  0  0  0
  -25.5855  -33.8619   24.2367 N   0  0  0  0  0  0
  -23.3986  -30.4908   21.5530 C   0  0  2  0  0  0
  -24.8532  -28.9523   20.1234 C   0  0  0  0  0  0
  -22.7418  -29.4642   22.5010 C   0  0  0  0  0  0
  -18.0273  -28.1339   22.8502 C   0  0  0  0  0  0
  -24.1471  -36.7311   23.2636 C   0  0  0  0  0  0
  -25.9212  -30.8465   21.3570 C   0  0  0  0  0  0
  -26.0082  -29.4830   20.7117 C   0  0  0  0  0  0
  -27.2168  -28.7547   20.6935 C   0  0  0  0  0  0
  -26.0876  -26.9435   19.5202 C   0  0  0  0  0  0
  -24.8862  -27.6821   19.5218 C   0  0  0  0  0  0
  -23.6103  -29.8139   20.1710 C   0  0  0  0  0  0
  -25.4089  -36.3112   24.0343 C   0  0  1  0  0  0
  -20.5844  -28.3607   23.1343 C   0  0  2  0  0  0
  -20.6743  -26.9340   22.5437 C   0  0  0  0  0  0
  -19.5745  -26.6355   21.5206 C   0  0  0  0  0  0
  -18.1924  -26.7891   22.1615 C   0  0  0  0  0  0
  -19.1509  -28.8803   23.2918 C   0  0  0  0  0  0
  -18.9426  -30.1404   23.8934 C   0  0  0  0  0  0
  -17.6428  -30.6571   24.0556 C   0  0  0  0  0  0
  -25.8993  -34.9471   23.5150 C   0  0  0  0  0  0
  -16.5324  -29.9063   23.6315 C   0  0  0  0  0  0
  -16.7259  -28.6458   23.0375 C   0  0  0  0  0  0
  -26.4473  -31.6591   25.0724 C   0  0  0  0  0  0
  -25.3738  -31.3695   26.1485 C   0  0  0  0  0  0
  -27.0232  -30.3029   24.6012 C   0  0  0  0  0  0
  -27.6121  -32.4257   25.7437 C   0  0  0  0  0  0
  -27.5589  -37.1805   24.8458 C   0  0  0  0  0  0
  -21.4130  -29.2989   22.3776 N   0  0  0  0  0  0
  -26.4291  -37.3808   23.9402 N   0  0  0  0  0  0
  -24.6610  -31.0814   22.1006 N   0  0  0  0  0  0
  -23.4202  -28.8196   23.3061 O   0  0  0  0  0  0
  -28.4488  -26.7900   20.0597 O   0  0  0  0  0  0
  -26.5599  -34.8930   22.4724 O   0  0  0  0  0  0
  -23.5298  -32.1424   23.7549 O   0  0  0  0  0  0
  -29.1998  -17.8362   20.3572 C   0  0  0  0  0  0
  -31.4067  -17.5122   21.0816 C   0  0  0  0  0  0
  -30.2149  -16.9144   20.7556 C   0  0  0  0  0  0
  -29.6085  -19.1482   20.4408 C   0  0  0  0  0  0
  -28.6923  -24.3729   19.8324 C   0  0  0  0  0  0
  -28.9038  -21.1232   18.9338 C   0  0  0  0  0  0
  -28.8550  -21.3744   21.4309 C   0  0  0  0  0  0
  -27.7734  -22.1665   18.7964 C   0  0  0  0  0  0
  -27.7716  -22.4740   21.3378 C   0  0  0  0  0  0
  -28.7430  -20.3693   20.2667 C   0  0  2  0  0  0
  -27.7158  -23.1891   19.9618 C   0  0  1  0  0  0
  -28.4620  -25.5592   20.7788 C   0  0  0  0  0  0
  -29.9329  -15.5270   20.8857 N   0  0  0  0  0  0
  -29.5967  -24.3871   18.9915 O   0  0  0  0  0  0
  -31.3090  -19.2425   20.8628 S   0  0  0  0  0  0
  -31.4864  -12.3677   19.1711 H   0  0  0  0  0  0
  -30.3144  -11.2894   19.8680 H   0  0  0  0  0  0
  -29.7741  -11.7538   17.4440 H   0  0  0  0  0  0
  -29.7016  -13.4586   17.7659 H   0  0  0  0  0  0
  -27.8304  -11.2966   18.8055 H   0  0  0  0  0  0
  -27.4032  -12.6269   17.7737 H   0  0  0  0  0  0
  -27.7073  -14.2463   19.5491 H   0  0  0  0  0  0
  -28.6817  -11.9891   21.3583 H   0  0  0  0  0  0
  -28.4668  -13.6320   21.8591 H   0  0  0  0  0  0
  -25.2742   -9.5676   22.4759 H   0  0  0  0  0  0
  -23.9978   -7.4652   22.7458 H   0  0  0  0  0  0
  -21.0837   -8.8796   19.8995 H   0  0  0  0  0  0
  -22.3700  -10.9655   19.6171 H   0  0  0  0  0  0
  -21.2042   -7.6135   23.9750 H   0  0  0  0  0  0
  -21.1470   -6.0460   25.9077 H   0  0  0  0  0  0
  -22.0626   -2.7599   23.2832 H   0  0  0  0  0  0
  -22.4003  -11.9951   22.4816 H   0  0  0  0  0  0
  -21.1137  -13.1451   22.2641 H   0  0  0  0  0  0
  -24.6296  -15.8148   20.4915 H   0  0  0  0  0  0
  -26.2599  -15.6549   20.0743 H   0  0  0  0  0  0
  -26.7067  -32.5598   23.1203 H   0  0  0  0  0  0
  -25.0051  -33.9778   25.0541 H   0  0  0  0  0  0
  -22.6838  -31.3045   21.4148 H   0  0  0  0  0  0
  -23.3725  -35.9647   23.3297 H   0  0  0  0  0  0
  -24.3590  -36.8915   22.2047 H   0  0  0  0  0  0
  -23.7216  -37.6510   23.6649 H   0  0  0  0  0  0
  -26.0139  -31.6034   20.5757 H   0  0  0  0  0  0
  -26.8146  -30.9190   21.9639 H   0  0  0  0  0  0
  -28.1146  -29.1701   21.1311 H   0  0  0  0  0  0
  -26.1078  -25.9719   19.0485 H   0  0  0  0  0  0
  -23.9991  -27.2670   19.0609 H   0  0  0  0  0  0
  -23.7131  -30.5820   19.4045 H   0  0  0  0  0  0
  -22.7346  -29.2263   19.8847 H   0  0  0  0  0  0
  -25.1254  -36.2024   25.0843 H   0  0  0  0  0  0
  -20.9968  -28.3168   24.1443 H   0  0  0  0  0  0
  -20.5558  -26.2226   23.3611 H   0  0  0  0  0  0
  -21.6632  -26.7352   22.1276 H   0  0  0  0  0  0
  -19.6858  -25.6260   21.1230 H   0  0  0  0  0  0
  -19.6688  -27.3171   20.6730 H   0  0  0  0  0  0
  -17.4197  -26.6660   21.4004 H   0  0  0  0  0  0
  -18.0304  -26.0008   22.8988 H   0  0  0  0  0  0
  -19.7893  -30.7222   24.2326 H   0  0  0  0  0  0
  -17.4984  -31.6255   24.5124 H   0  0  0  0  0  0
  -15.5319  -30.2988   23.7587 H   0  0  0  0  0  0
  -15.8654  -28.0782   22.7080 H   0  0  0  0  0  0
  -24.6010  -30.6902   25.7876 H   0  0  0  0  0  0
  -24.8788  -32.2811   26.4826 H   0  0  0  0  0  0
  -25.8114  -30.9029   27.0314 H   0  0  0  0  0  0
  -26.2713  -29.6857   24.1082 H   0  0  0  0  0  0
  -27.4009  -29.7235   25.4440 H   0  0  0  0  0  0
  -27.8582  -30.4311   23.9119 H   0  0  0  0  0  0
  -27.2830  -33.3574   26.2050 H   0  0  0  0  0  0
  -28.3914  -32.6750   25.0221 H   0  0  0  0  0  0
  -28.0802  -31.8321   26.5288 H   0  0  0  0  0  0
  -28.2626  -38.0097   24.7537 H   0  0  0  0  0  0
  -28.1081  -36.2632   24.6253 H   0  0  0  0  0  0
  -27.2339  -37.1458   25.8881 H   0  0  0  0  0  0
  -20.9281  -29.8750   21.7030 H   0  0  0  0  0  0
  -26.0186  -38.2892   24.1422 H   0  0  0  0  0  0
  -28.2053  -17.5176   20.0759 H   0  0  0  0  0  0
  -32.3194  -17.0578   21.4501 H   0  0  0  0  0  0
  -29.8805  -21.6080   18.8706 H   0  0  0  0  0  0
  -28.8434  -20.4215   18.0991 H   0  0  0  0  0  0
  -28.7447  -20.8378   22.3752 H   0  0  0  0  0  0
  -29.8485  -21.8273   21.4509 H   0  0  0  0  0  0
  -26.8220  -21.6356   18.7723 H   0  0  0  0  0  0
  -27.8387  -22.6805   17.8368 H   0  0  0  0  0  0
  -27.9199  -23.1890   22.1485 H   0  0  0  0  0  0
  -26.7912  -22.0353   21.5296 H   0  0  0  0  0  0
  -27.7172  -20.0026   20.2840 H   0  0  0  0  0  0
  -26.7447  -23.6809   19.8974 H   0  0  0  0  0  0
  -29.2823  -25.5971   21.4951 H   0  0  0  0  0  0
  -27.5498  -25.4146   21.3601 H   0  0  0  0  0  0
  -28.9725  -15.2884   21.0831 H   0  0  0  0  0  0
  1 25  1  0  0  0
  1 30  2  0  0  0
  1 83  1  0  0  0
  2  3  1  0  0  0
  2 25  1  0  0  0
  2 86  1  0  0  0
  2 87  1  0  0  0
  3  4  1  0  0  0
  3 88  1  0  0  0
  3 89  1  0  0  0
  4  5  1  0  0  0
  4 90  1  0  0  0
  4 91  1  0  0  0
  5  6  1  0  0  0
  5 26  1  0  0  0
  5 92  1  0  0  0
  6 25  1  0  0  0
  6 93  1  0  0  0
  6 94  1  0  0  0
  7  8  2  0  0  0
  7 26  1  0  0  0
  7 29  1  0  0  0
  8  9  1  0  0  0
  8 22  1  0  0  0
  9 10  1  0  0  0
  9 27  2  0  0  0
 10 11  2  0  0  0
 10 15  1  0  0  0
 11 12  1  0  0  0
 11 95  1  0  0  0
 12 13  2  0  0  0
 12 96  1  0  0  0
 13 14  1  0  0  0
 13 31  1  0  0  0
 14 15  2  0  0  0
 14 97  1  0  0  0
 15 98  1  0  0  0
 16 17  2  0  0  0
 16 21  1  0  0  0
 16 31  1  0  0  0
 17 18  1  0  0  0
 17 99  1  0  0  0
 18 19  2  0  0  0
 18100  1  0  0  0
 19 20  1  0  0  0
 19 24  1  0  0  0
 20 21  2  0  0  0
 20101  1  0  0  0
 21 23  1  0  0  0
 22 28  1  0  0  0
 22 32  2  0  0  0
 26 27  1  0  0  0
 28102  1  0  0  0
 28103  1  0  0  0
 29104  1  0  0  0
 29105  1  0  0  0
 33 34  1  0  0  0
 33 66  1  0  0  0
 33 70  2  0  0  0
 34 36  1  0  0  0
 34 59  1  0  0  0
 34106  1  0  0  0
 35 44  2  0  0  0
 35 45  1  0  0  0
 35 68  1  0  0  0
 36 56  1  0  0  0
 36107  1  0  0  0
 37 39  1  0  0  0
 37 47  1  0  0  0
 37 66  1  0  0  0
 37108  1  0  0  0
 38 43  2  0  0  0
 38 46  1  0  0  0
 38 47  1  0  0  0
 39 64  1  0  0  0
 39 67  2  0  0  0
 40 52  1  0  0  0
 40 53  2  0  0  0
 40 58  1  0  0  0
 41109  1  0  0  0
 41110  1  0  0  0
 41111  1  0  0  0
 41 48  1  0  0  0
 42 43  1  0  0  0
 42 66  1  0  0  0
 42112  1  0  0  0
 42113  1  0  0  0
 43 44  1  0  0  0
 44114  1  0  0  0
 45 46  2  0  0  0
 45115  1  0  0  0
 46116  1  0  0  0
 47117  1  0  0  0
 47118  1  0  0  0
 48 56  1  0  0  0
 48 65  1  0  0  0
 48119  1  0  0  0
 49 50  1  0  0  0
 49 53  1  0  0  0
 49 64  1  0  0  0
 49120  1  0  0  0
 50 51  1  0  0  0
 50121  1  0  0  0
 50122  1  0  0  0
 51 52  1  0  0  0
 51123  1  0  0  0
 51124  1  0  0  0
 52125  1  0  0  0
 52126  1  0  0  0
 53 54  1  0  0  0
 54 55  2  0  0  0
 54127  1  0  0  0
 55 57  1  0  0  0
 55128  1  0  0  0
 56 69  2  0  0  0
 57 58  2  0  0  0
 57129  1  0  0  0
 58130  1  0  0  0
 59 60  1  0  0  0
 59 61  1  0  0  0
 59 62  1  0  0  0
 60131  1  0  0  0
 60132  1  0  0  0
 60133  1  0  0  0
 61134  1  0  0  0
 61135  1  0  0  0
 61136  1  0  0  0
 62137  1  0  0  0
 62138  1  0  0  0
 62139  1  0  0  0
 63 65  1  0  0  0
 63140  1  0  0  0
 63141  1  0  0  0
 63142  1  0  0  0
 64143  1  0  0  0
 65144  1  0  0  0
 68 82  1  0  0  0
 71 73  1  0  0  0
 71 74  2  0  0  0
 71145  1  0  0  0
 72 73  2  0  0  0
 72 85  1  0  0  0
 72146  1  0  0  0
 73 83  1  0  0  0
 74 85  1  0  0  0
 74 80  1  0  0  0
 75 82  1  0  0  0
 75 84  2  0  0  0
 75 81  1  0  0  0
 76 78  1  0  0  0
 76 80  1  0  0  0
 76147  1  0  0  0
 76148  1  0  0  0
 77 79  1  0  0  0
 77 80  1  0  0  0
 77149  1  0  0  0
 77150  1  0  0  0
 78 81  1  0  0  0
 78151  1  0  0  0
 78152  1  0  0  0
 79 81  1  0  0  0
 79153  1  0  0  0
 79154  1  0  0  0
 80155  1  0  0  0
 81156  1  0  0  0
 82157  1  0  0  0
 82158  1  0  0  0
 83159  1  0  0  0
M  ISO  4   1 100  68 101  82 101  83 100
M  END
> <chiral flag>
0

> <version>
0

> <s_m_source_file>
/data/baiqing/PycharmProjects/Reinvent-master-3.2/result/LINK_invent/BTK/process_docking_weight1_custom_product_contain_oxygen_bond_distance_aromatic_linkinvent_7_9_3/rearranged_h_0146.sdf

> <i_m_source_file_index>
11

> <r_mmod_Potential_Energy-OPLS-2005>
-3.10465574264526

> <r_mmod_Stretch_Energy-OPLS-2005>
34.0947380065918

> <r_mmod_Bend_Energy-OPLS-2005>
105.712501525879

> <r_mmod_Torsional_Energy-OPLS-2005>
240.567520141602

> <r_mmod_Improper_Torsional_Energy-OPLS-2005>
5.52854442596436

> <r_mmod_Van_der_Waal_Energy-OPLS-2005>
125.968284606934

> <r_mmod_Electrostatic_Energy-OPLS-2005>
-303.975311279297

> <r_mmod_Solvation_Energy-OPLS-2005>
-225.202713012695

> <b_mmod_Minimization_Converged-OPLS-2005>
0

> <r_mmod_RMS_Derivative-OPLS-2005>
6.3128023147583

$$$$
11
                    3D
 Structure written by MMmdl.
169177  0  0  1  0            999 V2000
  -30.6587  -14.5439   20.5647 C   0  0  0  0  0  0
  -30.4306  -12.3458   19.4296 C   0  0  0  0  0  0
  -29.5006  -12.5083   18.2095 C   0  0  0  0  0  0
  -28.0189  -12.3709   18.6178 C   0  0  0  0  0  0
  -27.6557  -13.2103   19.8724 C   0  0  2  0  0  0
  -28.7015  -13.0069   20.9914 C   0  0  0  0  0  0
  -25.2577  -13.8157   20.5706 C   0  0  0  0  0  0
  -24.1832  -13.0430   20.9187 C   0  0  0  0  0  0
  -24.6383  -11.6908   20.8746 C   0  0  0  0  0  0
  -23.9038  -10.4301   21.0418 C   0  0  0  0  0  0
  -24.3601   -9.4214   21.9191 C   0  0  0  0  0  0
  -23.6273   -8.2255   22.0769 C   0  0  0  0  0  0
  -22.4260   -8.0295   21.3557 C   0  0  0  0  0  0
  -21.9885   -9.0259   20.4653 C   0  0  0  0  0  0
  -22.7213  -10.2130   20.3058 C   0  0  0  0  0  0
  -21.6849   -6.0723   22.5283 C   0  0  0  0  0  0
  -21.4014   -6.5624   23.8210 C   0  0  0  0  0  0
  -21.3674   -5.6779   24.9170 C   0  0  0  0  0  0
  -21.6048   -4.3038   24.7215 C   0  0  0  0  0  0
  -21.8805   -3.8129   23.4331 C   0  0  0  0  0  0
  -21.9191   -4.6954   22.3392 C   0  0  0  0  0  0
  -22.7847  -13.5232   21.1834 C   0  0  0  0  0  0
  -22.1660   -4.2150   21.0964 F   0  0  0  0  0  0
  -21.5651   -3.4516   25.7715 F   0  0  0  0  0  0
  -30.0162  -13.3462   20.4294 N   0  0  0  0  0  0
  -26.3002  -12.9327   20.3338 N   0  0  0  0  0  0
  -25.9308  -11.6483   20.5737 N   0  0  0  0  0  0
  -22.0457  -12.8286   22.0396 N   0  0  0  0  0  0
  -25.4244  -15.1876   20.4166 N   0  0  0  0  0  0
  -31.8143  -14.7137   20.1651 O   0  0  0  0  0  0
  -21.6647   -6.8874   21.4246 O   0  0  0  0  0  0
  -22.3542  -14.5516   20.6634 O   0  0  0  0  0  0
  -24.6213  -31.8645   23.2081 C   0  0  0  0  0  0
  -25.9076  -32.4806   23.8391 C   0  0  1  0  0  0
  -27.2354  -27.3714   20.1200 C   0  0  0  0  0  0
  -25.5936  -33.8615   24.2328 N   0  0  0  0  0  0
  -23.4130  -30.4866   21.5475 C   0  0  2  0  0  0
  -24.8616  -28.9448   20.1120 C   0  0  0  0  0  0
  -22.7467  -29.4654   22.4972 C   0  0  0  0  0  0
  -18.0327  -28.1359   22.8495 C   0  0  0  0  0  0
  -24.1458  -36.7303   23.2635 C   0  0  0  0  0  0
  -25.9487  -30.8073   21.3743 C   0  0  0  0  0  0
  -26.0214  -29.4380   20.7211 C   0  0  0  0  0  0
  -27.2070  -28.6586   20.7212 C   0  0  0  0  0  0
  -26.0635  -26.9232   19.4703 C   0  0  0  0  0  0
  -24.8834  -27.6928   19.4765 C   0  0  0  0  0  0
  -23.6254  -29.8174   20.1632 C   0  0  0  0  0  0
  -25.4094  -36.3120   24.0329 C   0  0  1  0  0  0
  -20.5900  -28.3726   23.1317 C   0  0  2  0  0  0
  -20.6842  -26.9454   22.5456 C   0  0  0  0  0  0
  -19.5860  -26.6430   21.5216 C   0  0  0  0  0  0
  -18.2026  -26.7925   22.1625 C   0  0  0  0  0  0
  -19.1548  -28.8863   23.2916 C   0  0  0  0  0  0
  -18.9419  -30.1449   23.8940 C   0  0  0  0  0  0
  -17.6399  -30.6541   24.0597 C   0  0  0  0  0  0
  -25.9041  -34.9478   23.5130 C   0  0  0  0  0  0
  -16.5325  -29.9021   23.6312 C   0  0  0  0  0  0
  -16.7296  -28.6433   23.0344 C   0  0  0  0  0  0
  -26.4508  -31.6605   25.0740 C   0  0  0  0  0  0
  -25.3758  -31.3701   26.1458 C   0  0  0  0  0  0
  -27.0331  -30.3035   24.6144 C   0  0  0  0  0  0
  -27.6075  -32.4343   25.7498 C   0  0  0  0  0  0
  -27.5575  -37.1801   24.8469 C   0  0  0  0  0  0
  -21.4176  -29.3125   22.3769 N   0  0  0  0  0  0
  -26.4275  -37.3807   23.9421 N   0  0  0  0  0  0
  -24.6799  -31.0694   22.1018 N   0  0  0  0  0  0
  -23.4231  -28.8184   23.3005 O   0  0  0  0  0  0
  -28.3898  -26.5961   20.2140 O   0  0  0  0  0  0
  -26.5578  -34.8923   22.4658 O   0  0  0  0  0  0
  -23.5380  -32.1419   23.7422 O   0  0  0  0  0  0
  -31.7540  -18.3189   22.7332 C   0  0  0  0  0  0
  -31.4411  -17.0709   22.1703 C   0  0  0  0  0  0
  -29.4727  -18.0746   21.1500 C   0  0  0  0  0  0
  -30.9419  -19.4542   22.5191 C   0  0  0  0  0  0
  -30.2769  -16.9142   21.3897 C   0  0  0  0  0  0
  -29.7980  -19.3665   21.6762 C   0  0  0  0  0  0
  -28.9646  -23.1005   21.3731 C   0  0  0  0  0  0
  -32.5863  -21.3822   22.8801 C   0  0  0  0  0  0
  -25.9172  -22.2266   20.6972 C   0  0  0  0  0  0
  -27.0833  -24.6855   21.9258 C   0  0  0  0  0  0
  -31.2891  -20.6965   23.3271 C   0  0  0  0  0  0
  -29.4092  -21.7203   20.7623 C   0  0  0  0  0  0
  -26.8215  -23.1967   19.9114 C   0  0  0  0  0  0
  -28.4367  -25.1885   19.8101 C   0  0  0  0  0  0
  -27.8454  -24.0319   20.7426 C   0  0  2  0  0  0
  -29.8812  -15.5931   20.9546 N   0  0  0  0  0  0
  -28.9401  -20.4835   21.4505 N   0  0  0  0  0  0
  -29.5415  -23.4835   22.3942 O   0  0  0  0  0  0
  -31.4747  -12.4620   19.1351 H   0  0  0  0  0  0
  -30.3528  -11.3356   19.8355 H   0  0  0  0  0  0
  -29.7483  -11.7687   17.4456 H   0  0  0  0  0  0
  -29.6632  -13.4864   17.7568 H   0  0  0  0  0  0
  -27.8294  -11.3147   18.8083 H   0  0  0  0  0  0
  -27.3689  -12.6456   17.7852 H   0  0  0  0  0  0
  -27.6904  -14.2576   19.5723 H   0  0  0  0  0  0
  -28.7049  -11.9679   21.3237 H   0  0  0  0  0  0
  -28.4661  -13.5993   21.8776 H   0  0  0  0  0  0
  -25.2749   -9.5685   22.4750 H   0  0  0  0  0  0
  -23.9993   -7.4623   22.7470 H   0  0  0  0  0  0
  -21.0829   -8.8748   19.8931 H   0  0  0  0  0  0
  -22.3685  -10.9664   19.6153 H   0  0  0  0  0  0
  -21.2022   -7.6138   23.9708 H   0  0  0  0  0  0
  -21.1520   -6.0518   25.9074 H   0  0  0  0  0  0
  -22.0584   -2.7603   23.2816 H   0  0  0  0  0  0
  -22.4053  -11.9966   22.4833 H   0  0  0  0  0  0
  -21.1060  -13.1318   22.2517 H   0  0  0  0  0  0
  -24.6471  -15.8288   20.5332 H   0  0  0  0  0  0
  -26.2665  -15.6441   20.0916 H   0  0  0  0  0  0
  -26.7161  -32.5467   23.1155 H   0  0  0  0  0  0
  -25.0168  -33.9801   25.0528 H   0  0  0  0  0  0
  -22.7021  -31.3027   21.4037 H   0  0  0  0  0  0
  -23.3747  -35.9619   23.3306 H   0  0  0  0  0  0
  -24.3571  -36.8910   22.2063 H   0  0  0  0  0  0
  -23.7181  -37.6491   23.6643 H   0  0  0  0  0  0
  -26.0691  -31.5691   20.6044 H   0  0  0  0  0  0
  -26.8363  -30.8615   21.9922 H   0  0  0  0  0  0
  -28.0976  -29.0367   21.2030 H   0  0  0  0  0  0
  -26.0367  -25.9773   18.9585 H   0  0  0  0  0  0
  -23.9979  -27.3172   18.9813 H   0  0  0  0  0  0
  -23.7398  -30.5926   19.4044 H   0  0  0  0  0  0
  -22.7477  -29.2422   19.8658 H   0  0  0  0  0  0
  -25.1266  -36.1994   25.0833 H   0  0  0  0  0  0
  -20.9986  -28.3307   24.1441 H   0  0  0  0  0  0
  -20.5695  -26.2360   23.3655 H   0  0  0  0  0  0
  -21.6743  -26.7490   22.1290 H   0  0  0  0  0  0
  -19.7051  -25.6368   21.1188 H   0  0  0  0  0  0
  -19.6797  -27.3311   20.6805 H   0  0  0  0  0  0
  -17.4320  -26.6624   21.4018 H   0  0  0  0  0  0
  -18.0466  -26.0063   22.9023 H   0  0  0  0  0  0
  -19.7864  -30.7291   24.2318 H   0  0  0  0  0  0
  -17.4904  -31.6213   24.5202 H   0  0  0  0  0  0
  -15.5307  -30.2890   23.7593 H   0  0  0  0  0  0
  -15.8726  -28.0739   22.7011 H   0  0  0  0  0  0
  -24.5939  -30.7049   25.7774 H   0  0  0  0  0  0
  -24.8930  -32.2854   26.4909 H   0  0  0  0  0  0
  -25.8106  -30.8854   27.0207 H   0  0  0  0  0  0
  -26.2875  -29.6795   24.1206 H   0  0  0  0  0  0
  -27.4098  -29.7282   25.4615 H   0  0  0  0  0  0
  -27.8727  -30.4345   23.9306 H   0  0  0  0  0  0
  -27.2705  -33.3642   26.2090 H   0  0  0  0  0  0
  -28.3890  -32.6920   25.0336 H   0  0  0  0  0  0
  -28.0758  -31.8462   26.5401 H   0  0  0  0  0  0
  -28.2594  -38.0097   24.7534 H   0  0  0  0  0  0
  -28.1055  -36.2626   24.6266 H   0  0  0  0  0  0
  -27.2286  -37.1439   25.8868 H   0  0  0  0  0  0
  -20.9309  -29.9023   21.7155 H   0  0  0  0  0  0
  -26.0154  -38.2869   24.1476 H   0  0  0  0  0  0
  -32.6175  -18.3929   23.3796 H   0  0  0  0  0  0
  -32.0737  -16.2233   22.3971 H   0  0  0  0  0  0
  -28.5781  -17.9649   20.5548 H   0  0  0  0  0  0
  -32.8186  -22.2215   23.5365 H   0  0  0  0  0  0
  -32.5153  -21.7610   21.8624 H   0  0  0  0  0  0
  -33.4303  -20.6948   22.9208 H   0  0  0  0  0  0
  -25.3745  -21.5702   20.0156 H   0  0  0  0  0  0
  -25.1684  -22.7686   21.2772 H   0  0  0  0  0  0
  -26.4729  -21.5992   21.3912 H   0  0  0  0  0  0
  -26.7979  -23.9515   22.6796 H   0  0  0  0  0  0
  -26.1670  -25.1800   21.6076 H   0  0  0  0  0  0
  -27.6943  -25.4318   22.4325 H   0  0  0  0  0  0
  -31.3976  -20.3865   24.3664 H   0  0  0  0  0  0
  -30.4591  -21.3943   23.3436 H   0  0  0  0  0  0
  -30.4978  -21.7162   20.7377 H   0  0  0  0  0  0
  -29.1080  -21.6729   19.7182 H   0  0  0  0  0  0
  -26.1563  -23.8678   19.3735 H   0  0  0  0  0  0
  -27.3326  -22.6502   19.1187 H   0  0  0  0  0  0
  -28.0591  -25.1036   18.7915 H   0  0  0  0  0  0
  -29.5007  -24.9926   19.6770 H   0  0  0  0  0  0
  -28.8928  -15.3956   20.9986 H   0  0  0  0  0  0
  -27.9807  -20.2507   21.2153 H   0  0  0  0  0  0
  1 25  1  0  0  0
  1 30  2  0  0  0
  1 86  1  0  0  0
  2  3  1  0  0  0
  2 25  1  0  0  0
  2 89  1  0  0  0
  2 90  1  0  0  0
  3  4  1  0  0  0
  3 91  1  0  0  0
  3 92  1  0  0  0
  4  5  1  0  0  0
  4 93  1  0  0  0
  4 94  1  0  0  0
  5  6  1  0  0  0
  5 26  1  0  0  0
  5 95  1  0  0  0
  6 25  1  0  0  0
  6 96  1  0  0  0
  6 97  1  0  0  0
  7  8  2  0  0  0
  7 26  1  0  0  0
  7 29  1  0  0  0
  8  9  1  0  0  0
  8 22  1  0  0  0
  9 10  1  0  0  0
  9 27  2  0  0  0
 10 11  2  0  0  0
 10 15  1  0  0  0
 11 12  1  0  0  0
 11 98  1  0  0  0
 12 13  2  0  0  0
 12 99  1  0  0  0
 13 14  1  0  0  0
 13 31  1  0  0  0
 14 15  2  0  0  0
 14100  1  0  0  0
 15101  1  0  0  0
 16 17  2  0  0  0
 16 21  1  0  0  0
 16 31  1  0  0  0
 17 18  1  0  0  0
 17102  1  0  0  0
 18 19  2  0  0  0
 18103  1  0  0  0
 19 20  1  0  0  0
 19 24  1  0  0  0
 20 21  2  0  0  0
 20104  1  0  0  0
 21 23  1  0  0  0
 22 28  1  0  0  0
 22 32  2  0  0  0
 26 27  1  0  0  0
 28105  1  0  0  0
 28106  1  0  0  0
 29107  1  0  0  0
 29108  1  0  0  0
 33 34  1  0  0  0
 33 66  1  0  0  0
 33 70  2  0  0  0
 34 36  1  0  0  0
 34 59  1  0  0  0
 34109  1  0  0  0
 35 44  2  0  0  0
 35 45  1  0  0  0
 35 68  1  0  0  0
 36 56  1  0  0  0
 36110  1  0  0  0
 37 39  1  0  0  0
 37 47  1  0  0  0
 37 66  1  0  0  0
 37111  1  0  0  0
 38 43  2  0  0  0
 38 46  1  0  0  0
 38 47  1  0  0  0
 39 64  1  0  0  0
 39 67  2  0  0  0
 40 52  1  0  0  0
 40 53  2  0  0  0
 40 58  1  0  0  0
 41112  1  0  0  0
 41113  1  0  0  0
 41114  1  0  0  0
 41 48  1  0  0  0
 42 43  1  0  0  0
 42 66  1  0  0  0
 42115  1  0  0  0
 42116  1  0  0  0
 43 44  1  0  0  0
 44117  1  0  0  0
 45 46  2  0  0  0
 45118  1  0  0  0
 46119  1  0  0  0
 47120  1  0  0  0
 47121  1  0  0  0
 48 56  1  0  0  0
 48 65  1  0  0  0
 48122  1  0  0  0
 49 50  1  0  0  0
 49 53  1  0  0  0
 49 64  1  0  0  0
 49123  1  0  0  0
 50 51  1  0  0  0
 50124  1  0  0  0
 50125  1  0  0  0
 51 52  1  0  0  0
 51126  1  0  0  0
 51127  1  0  0  0
 52128  1  0  0  0
 52129  1  0  0  0
 53 54  1  0  0  0
 54 55  2  0  0  0
 54130  1  0  0  0
 55 57  1  0  0  0
 55131  1  0  0  0
 56 69  2  0  0  0
 57 58  2  0  0  0
 57132  1  0  0  0
 58133  1  0  0  0
 59 60  1  0  0  0
 59 61  1  0  0  0
 59 62  1  0  0  0
 60134  1  0  0  0
 60135  1  0  0  0
 60136  1  0  0  0
 61137  1  0  0  0
 61138  1  0  0  0
 61139  1  0  0  0
 62140  1  0  0  0
 62141  1  0  0  0
 62142  1  0  0  0
 63 65  1  0  0  0
 63143  1  0  0  0
 63144  1  0  0  0
 63145  1  0  0  0
 64146  1  0  0  0
 65147  1  0  0  0
 68 84  1  0  0  0
 71 72  2  0  0  0
 71 74  1  0  0  0
 71148  1  0  0  0
 72 75  1  0  0  0
 72149  1  0  0  0
 73 75  2  0  0  0
 73 76  1  0  0  0
 73150  1  0  0  0
 74 76  2  0  0  0
 74 81  1  0  0  0
 75 86  1  0  0  0
 76 87  1  0  0  0
 77 82  1  0  0  0
 77 88  2  0  0  0
 77 85  1  0  0  0
 78 81  1  0  0  0
 78151  1  0  0  0
 78152  1  0  0  0
 78153  1  0  0  0
 79 83  1  0  0  0
 79154  1  0  0  0
 79155  1  0  0  0
 79156  1  0  0  0
 80157  1  0  0  0
 80158  1  0  0  0
 80159  1  0  0  0
 80 85  1  0  0  0
 81160  1  0  0  0
 81161  1  0  0  0
 82 87  1  0  0  0
 82162  1  0  0  0
 82163  1  0  0  0
 83 85  1  0  0  0
 83164  1  0  0  0
 83165  1  0  0  0
 84 85  1  0  0  0
 84166  1  0  0  0
 84167  1  0  0  0
 86168  1  0  0  0
 87169  1  0  0  0
M  ISO  4   1 100  68 101  84 101  86 100
M  END
> <chiral flag>
0

> <version>
0

> <s_m_source_file>
/data/baiqing/PycharmProjects/Reinvent-master-3.2/result/LINK_invent/BTK/process_docking_weight1_custom_product_contain_oxygen_bond_distance_aromatic_linkinvent_7_9_3/rearranged_h_0146.sdf

> <i_m_source_file_index>
12

> <r_mmod_Potential_Energy-OPLS-2005>
136.155487060547

> <r_mmod_Stretch_Energy-OPLS-2005>
69.005744934082

> <r_mmod_Bend_Energy-OPLS-2005>
148.248092651367

> <r_mmod_Torsional_Energy-OPLS-2005>
250.65022277832

> <r_mmod_Improper_Torsional_Energy-OPLS-2005>
8.8388204574585

> <r_mmod_Van_der_Waal_Energy-OPLS-2005>
151.687194824219

> <r_mmod_Electrostatic_Energy-OPLS-2005>
-295.477264404297

> <r_mmod_Solvation_Energy-OPLS-2005>
-224.275527954102

> <b_mmod_Minimization_Converged-OPLS-2005>
0

> <r_mmod_RMS_Derivative-OPLS-2005>
3.49519538879395

$$$$
12
                    3D
 Structure written by MMmdl.
159168  0  0  1  0            999 V2000
  -30.6089  -14.8106   20.4360 C   0  0  0  0  0  0
  -30.4263  -12.4934   19.4887 C   0  0  0  0  0  0
  -29.5105  -12.5089   18.2453 C   0  0  0  0  0  0
  -28.0403  -12.3203   18.6626 C   0  0  0  0  0  0
  -27.6349  -13.2404   19.8450 C   0  0  2  0  0  0
  -28.6786  -13.2230   20.9831 C   0  0  0  0  0  0
  -25.2484  -13.8216   20.5710 C   0  0  0  0  0  0
  -24.1786  -13.0440   20.9221 C   0  0  0  0  0  0
  -24.6394  -11.6925   20.8760 C   0  0  0  0  0  0
  -23.9073  -10.4292   21.0415 C   0  0  0  0  0  0
  -24.3622   -9.4204   21.9191 C   0  0  0  0  0  0
  -23.6295   -8.2241   22.0758 C   0  0  0  0  0  0
  -22.4278   -8.0283   21.3546 C   0  0  0  0  0  0
  -21.9915   -9.0258   20.4647 C   0  0  0  0  0  0
  -22.7248  -10.2135   20.3060 C   0  0  0  0  0  0
  -21.6853   -6.0732   22.5278 C   0  0  0  0  0  0
  -21.4012   -6.5637   23.8211 C   0  0  0  0  0  0
  -21.3660   -5.6794   24.9176 C   0  0  0  0  0  0
  -21.6047   -4.3055   24.7227 C   0  0  0  0  0  0
  -21.8818   -3.8144   23.4350 C   0  0  0  0  0  0
  -21.9191   -4.6959   22.3403 C   0  0  0  0  0  0
  -22.7808  -13.5215   21.1878 C   0  0  0  0  0  0
  -22.1661   -4.2141   21.0981 F   0  0  0  0  0  0
  -21.5629   -3.4541   25.7741 F   0  0  0  0  0  0
  -29.9715  -13.5835   20.3906 N   0  0  0  0  0  0
  -26.2908  -12.9436   20.3277 N   0  0  0  0  0  0
  -25.9327  -11.6565   20.5761 N   0  0  0  0  0  0
  -22.0458  -12.8203   22.0435 N   0  0  0  0  0  0
  -25.4146  -15.1944   20.4122 N   0  0  0  0  0  0
  -31.8076  -14.8365   20.1483 O   0  0  0  0  0  0
  -21.6645   -6.8880   21.4241 O   0  0  0  0  0  0
  -22.3489  -14.5521   20.6730 O   0  0  0  0  0  0
  -24.6340  -31.8511   23.1951 C   0  0  0  0  0  0
  -25.9150  -32.4738   23.8305 C   0  0  1  0  0  0
  -27.2197  -27.2275   20.1320 C   0  0  0  0  0  0
  -25.5922  -33.8540   24.2224 N   0  0  0  0  0  0
  -23.4326  -30.4712   21.5391 C   0  0  2  0  0  0
  -24.8813  -28.9144   20.1035 C   0  0  0  0  0  0
  -22.7527  -29.4566   22.4910 C   0  0  0  0  0  0
  -18.0288  -28.1377   22.8479 C   0  0  0  0  0  0
  -24.1493  -36.7278   23.2642 C   0  0  0  0  0  0
  -25.9804  -30.7535   21.3798 C   0  0  0  0  0  0
  -26.0525  -29.3731   20.7196 C   0  0  0  0  0  0
  -27.2212  -28.5407   20.7245 C   0  0  0  0  0  0
  -26.0253  -26.8433   19.4839 C   0  0  0  0  0  0
  -24.8754  -27.6599   19.4733 C   0  0  0  0  0  0
  -23.6526  -29.8042   20.1547 C   0  0  0  0  0  0
  -25.4123  -36.3065   24.0320 C   0  0  1  0  0  0
  -20.5893  -28.3691   23.1266 C   0  0  2  0  0  0
  -20.6779  -26.9406   22.5408 C   0  0  0  0  0  0
  -19.5756  -26.6370   21.5213 C   0  0  0  0  0  0
  -18.1933  -26.7917   22.1620 C   0  0  0  0  0  0
  -19.1544  -28.8855   23.2858 C   0  0  0  0  0  0
  -18.9473  -30.1456   23.8874 C   0  0  0  0  0  0
  -17.6473  -30.6584   24.0555 C   0  0  0  0  0  0
  -25.9062  -34.9435   23.5086 C   0  0  0  0  0  0
  -16.5360  -29.9073   23.6333 C   0  0  0  0  0  0
  -16.7273  -28.6488   23.0349 C   0  0  0  0  0  0
  -26.4497  -31.6578   25.0713 C   0  0  0  0  0  0
  -25.3705  -31.3736   26.1422 C   0  0  0  0  0  0
  -27.0355  -30.2993   24.6227 C   0  0  0  0  0  0
  -27.6042  -32.4333   25.7486 C   0  0  0  0  0  0
  -27.5587  -37.1793   24.8463 C   0  0  0  0  0  0
  -21.4230  -29.3028   22.3657 N   0  0  0  0  0  0
  -26.4295  -37.3768   23.9415 N   0  0  0  0  0  0
  -24.7016  -31.0438   22.0945 N   0  0  0  0  0  0
  -23.4219  -28.8123   23.3031 O   0  0  0  0  0  0
  -28.2935  -26.3042   20.2521 O   0  0  0  0  0  0
  -26.5650  -34.8924   22.4667 O   0  0  0  0  0  0
  -23.5480  -32.1342   23.7227 O   0  0  0  0  0  0
  -29.2726  -18.5958   20.5583 C   0  0  0  0  0  0
  -30.9919  -20.2406   20.0526 C   0  0  0  0  0  0
  -31.5380  -17.8439   20.1398 C   0  0  0  0  0  0
  -29.6368  -20.0085   20.3639 C   0  0  0  0  0  0
  -30.2046  -17.4614   20.4375 C   0  0  0  0  0  0
  -31.9322  -19.1930   19.9572 C   0  0  0  0  0  0
  -28.5893  -23.7356   20.2525 C   0  0  0  0  0  0
  -28.2752  -24.9810   19.6947 C   0  0  0  0  0  0
  -28.9056  -23.4056   21.6915 C   0  0  0  0  0  0
  -28.6987  -22.3358   19.5456 C   0  0  0  0  0  0
  -28.8432  -21.8453   21.8431 C   0  0  0  0  0  0
  -34.3132  -18.7392   20.3163 C   0  0  0  0  0  0
  -28.7809  -21.1886   20.5257 N   0  0  0  0  0  0
  -29.8598  -15.9923   20.5999 N   0  0  0  0  0  0
  -33.2674  -19.5331   19.6818 N   0  0  0  0  0  0
  -31.4683  -12.6082   19.1859 H   0  0  0  0  0  0
  -30.3704  -11.5298   19.9979 H   0  0  0  0  0  0
  -29.8045  -11.7240   17.5476 H   0  0  0  0  0  0
  -29.6253  -13.4538   17.7114 H   0  0  0  0  0  0
  -27.9165  -11.2763   18.9516 H   0  0  0  0  0  0
  -27.3778  -12.4795   17.8109 H   0  0  0  0  0  0
  -27.6145  -14.2517   19.4383 H   0  0  0  0  0  0
  -28.7302  -12.2405   21.4546 H   0  0  0  0  0  0
  -28.4047  -13.9278   21.7696 H   0  0  0  0  0  0
  -25.2761   -9.5682   22.4773 H   0  0  0  0  0  0
  -23.9995   -7.4636   22.7486 H   0  0  0  0  0  0
  -21.0840   -8.8784   19.8960 H   0  0  0  0  0  0
  -22.3704  -10.9679   19.6174 H   0  0  0  0  0  0
  -21.2005   -7.6146   23.9710 H   0  0  0  0  0  0
  -21.1484   -6.0527   25.9079 H   0  0  0  0  0  0
  -22.0596   -2.7603   23.2856 H   0  0  0  0  0  0
  -22.4071  -11.9855   22.4806 H   0  0  0  0  0  0
  -21.1082  -13.1235   22.2659 H   0  0  0  0  0  0
  -24.6416  -15.8428   20.5170 H   0  0  0  0  0  0
  -26.2540  -15.6358   20.0598 H   0  0  0  0  0  0
  -26.7217  -32.5370   23.1039 H   0  0  0  0  0  0
  -25.0047  -33.9659   25.0355 H   0  0  0  0  0  0
  -22.7301  -31.2937   21.3912 H   0  0  0  0  0  0
  -23.3765  -35.9599   23.3291 H   0  0  0  0  0  0
  -24.3573  -36.8917   22.2060 H   0  0  0  0  0  0
  -23.7242  -37.6471   23.6677 H   0  0  0  0  0  0
  -26.1239  -31.5150   20.6110 H   0  0  0  0  0  0
  -26.8559  -30.8009   22.0158 H   0  0  0  0  0  0
  -28.1138  -28.8783   21.2325 H   0  0  0  0  0  0
  -25.9455  -25.8733   19.0157 H   0  0  0  0  0  0
  -23.9783  -27.3007   18.9881 H   0  0  0  0  0  0
  -23.7775  -30.5798   19.3982 H   0  0  0  0  0  0
  -22.7703  -29.2373   19.8513 H   0  0  0  0  0  0
  -25.1311  -36.1902   25.0811 H   0  0  0  0  0  0
  -20.9969  -28.3268   24.1393 H   0  0  0  0  0  0
  -20.5691  -26.2299   23.3610 H   0  0  0  0  0  0
  -21.6648  -26.7430   22.1205 H   0  0  0  0  0  0
  -19.6923  -25.6278   21.1240 H   0  0  0  0  0  0
  -19.6694  -27.3191   20.6749 H   0  0  0  0  0  0
  -17.4207  -26.6660   21.4014 H   0  0  0  0  0  0
  -18.0322  -26.0059   22.9013 H   0  0  0  0  0  0
  -19.7957  -30.7269   24.2228 H   0  0  0  0  0  0
  -17.5032  -31.6264   24.5168 H   0  0  0  0  0  0
  -15.5361  -30.2972   23.7680 H   0  0  0  0  0  0
  -15.8664  -28.0811   22.7068 H   0  0  0  0  0  0
  -24.5885  -30.7080   25.7748 H   0  0  0  0  0  0
  -24.8884  -32.2904   26.4827 H   0  0  0  0  0  0
  -25.8000  -30.8925   27.0216 H   0  0  0  0  0  0
  -26.2952  -29.6725   24.1244 H   0  0  0  0  0  0
  -27.4021  -29.7271   25.4761 H   0  0  0  0  0  0
  -27.8833  -30.4266   23.9493 H   0  0  0  0  0  0
  -27.2645  -33.3653   26.2015 H   0  0  0  0  0  0
  -28.3864  -32.6860   25.0316 H   0  0  0  0  0  0
  -28.0688  -31.8488   26.5434 H   0  0  0  0  0  0
  -28.2586  -38.0112   24.7531 H   0  0  0  0  0  0
  -28.1095  -36.2633   24.6254 H   0  0  0  0  0  0
  -27.2288  -37.1403   25.8861 H   0  0  0  0  0  0
  -20.9435  -29.8746   21.6848 H   0  0  0  0  0  0
  -26.0166  -38.2836   24.1427 H   0  0  0  0  0  0
  -28.2442  -18.3794   20.8079 H   0  0  0  0  0  0
  -31.3291  -21.2593   19.9231 H   0  0  0  0  0  0
  -32.3036  -17.0948   20.0399 H   0  0  0  0  0  0
  -28.0707  -25.0393   18.6345 H   0  0  0  0  0  0
  -28.2210  -23.9133   22.3720 H   0  0  0  0  0  0
  -29.9126  -23.7624   21.9118 H   0  0  0  0  0  0
  -29.5748  -22.3443   18.8963 H   0  0  0  0  0  0
  -27.8316  -22.2020   18.8970 H   0  0  0  0  0  0
  -27.9439  -21.5714   22.3980 H   0  0  0  0  0  0
  -29.6907  -21.4857   22.4296 H   0  0  0  0  0  0
  -35.2448  -19.3058   20.3562 H   0  0  0  0  0  0
  -34.5053  -17.8208   19.7595 H   0  0  0  0  0  0
  -34.0459  -18.4737   21.3412 H   0  0  0  0  0  0
  -28.8892  -15.8114   20.8053 H   0  0  0  0  0  0
  -33.4699  -20.5270   19.5840 H   0  0  0  0  0  0
  1 25  1  0  0  0
  1 30  2  0  0  0
  1 84  1  0  0  0
  2  3  1  0  0  0
  2 25  1  0  0  0
  2 86  1  0  0  0
  2 87  1  0  0  0
  3  4  1  0  0  0
  3 88  1  0  0  0
  3 89  1  0  0  0
  4  5  1  0  0  0
  4 90  1  0  0  0
  4 91  1  0  0  0
  5  6  1  0  0  0
  5 26  1  0  0  0
  5 92  1  0  0  0
  6 25  1  0  0  0
  6 93  1  0  0  0
  6 94  1  0  0  0
  7  8  2  0  0  0
  7 26  1  0  0  0
  7 29  1  0  0  0
  8  9  1  0  0  0
  8 22  1  0  0  0
  9 10  1  0  0  0
  9 27  2  0  0  0
 10 11  2  0  0  0
 10 15  1  0  0  0
 11 12  1  0  0  0
 11 95  1  0  0  0
 12 13  2  0  0  0
 12 96  1  0  0  0
 13 14  1  0  0  0
 13 31  1  0  0  0
 14 15  2  0  0  0
 14 97  1  0  0  0
 15 98  1  0  0  0
 16 17  2  0  0  0
 16 21  1  0  0  0
 16 31  1  0  0  0
 17 18  1  0  0  0
 17 99  1  0  0  0
 18 19  2  0  0  0
 18100  1  0  0  0
 19 20  1  0  0  0
 19 24  1  0  0  0
 20 21  2  0  0  0
 20101  1  0  0  0
 21 23  1  0  0  0
 22 28  1  0  0  0
 22 32  2  0  0  0
 26 27  1  0  0  0
 28102  1  0  0  0
 28103  1  0  0  0
 29104  1  0  0  0
 29105  1  0  0  0
 33 34  1  0  0  0
 33 66  1  0  0  0
 33 70  2  0  0  0
 34 36  1  0  0  0
 34 59  1  0  0  0
 34106  1  0  0  0
 35 44  2  0  0  0
 35 45  1  0  0  0
 35 68  1  0  0  0
 36 56  1  0  0  0
 36107  1  0  0  0
 37 39  1  0  0  0
 37 47  1  0  0  0
 37 66  1  0  0  0
 37108  1  0  0  0
 38 43  2  0  0  0
 38 46  1  0  0  0
 38 47  1  0  0  0
 39 64  1  0  0  0
 39 67  2  0  0  0
 40 52  1  0  0  0
 40 53  2  0  0  0
 40 58  1  0  0  0
 41109  1  0  0  0
 41110  1  0  0  0
 41111  1  0  0  0
 41 48  1  0  0  0
 42 43  1  0  0  0
 42 66  1  0  0  0
 42112  1  0  0  0
 42113  1  0  0  0
 43 44  1  0  0  0
 44114  1  0  0  0
 45 46  2  0  0  0
 45115  1  0  0  0
 46116  1  0  0  0
 47117  1  0  0  0
 47118  1  0  0  0
 48 56  1  0  0  0
 48 65  1  0  0  0
 48119  1  0  0  0
 49 50  1  0  0  0
 49 53  1  0  0  0
 49 64  1  0  0  0
 49120  1  0  0  0
 50 51  1  0  0  0
 50121  1  0  0  0
 50122  1  0  0  0
 51 52  1  0  0  0
 51123  1  0  0  0
 51124  1  0  0  0
 52125  1  0  0  0
 52126  1  0  0  0
 53 54  1  0  0  0
 54 55  2  0  0  0
 54127  1  0  0  0
 55 57  1  0  0  0
 55128  1  0  0  0
 56 69  2  0  0  0
 57 58  2  0  0  0
 57129  1  0  0  0
 58130  1  0  0  0
 59 60  1  0  0  0
 59 61  1  0  0  0
 59 62  1  0  0  0
 60131  1  0  0  0
 60132  1  0  0  0
 60133  1  0  0  0
 61134  1  0  0  0
 61135  1  0  0  0
 61136  1  0  0  0
 62137  1  0  0  0
 62138  1  0  0  0
 62139  1  0  0  0
 63 65  1  0  0  0
 63140  1  0  0  0
 63141  1  0  0  0
 63142  1  0  0  0
 64143  1  0  0  0
 65144  1  0  0  0
 68 78  1  0  0  0
 71 74  2  0  0  0
 71 75  1  0  0  0
 71145  1  0  0  0
 72 74  1  0  0  0
 72 76  2  0  0  0
 72146  1  0  0  0
 73 75  2  0  0  0
 73 76  1  0  0  0
 73147  1  0  0  0
 74 83  1  0  0  0
 75 84  1  0  0  0
 76 85  1  0  0  0
 77 78  2  0  0  0
 77 79  1  0  0  0
 77 80  1  0  0  0
 78148  1  0  0  0
 79 81  1  0  0  0
 79149  1  0  0  0
 79150  1  0  0  0
 80 83  1  0  0  0
 80151  1  0  0  0
 80152  1  0  0  0
 81 83  1  0  0  0
 81153  1  0  0  0
 81154  1  0  0  0
 82 85  1  0  0  0
 82155  1  0  0  0
 82156  1  0  0  0
 82157  1  0  0  0
 84158  1  0  0  0
 85159  1  0  0  0
M  ISO  4   1 100  68 101  78 101  84 100
M  END
> <chiral flag>
0

> <version>
0

> <s_m_source_file>
/data/baiqing/PycharmProjects/Reinvent-master-3.2/result/LINK_invent/BTK/process_docking_weight1_custom_product_contain_oxygen_bond_distance_aromatic_linkinvent_7_9_3/rearranged_h_0146.sdf

> <i_m_source_file_index>
13

> <r_mmod_Potential_Energy-OPLS-2005>
359.359069824219

> <r_mmod_Stretch_Energy-OPLS-2005>
144.947463989258

> <r_mmod_Bend_Energy-OPLS-2005>
204.903305053711

> <r_mmod_Torsional_Energy-OPLS-2005>
260.843017578125

> <r_mmod_Improper_Torsional_Energy-OPLS-2005>
12.5835161209106

> <r_mmod_Van_der_Waal_Energy-OPLS-2005>
141.970947265625

> <r_mmod_Electrostatic_Energy-OPLS-2005>
-275.306945800781

> <r_mmod_Solvation_Energy-OPLS-2005>
-246.260665893555

> <b_mmod_Minimization_Converged-OPLS-2005>
0

> <r_mmod_RMS_Derivative-OPLS-2005>
1.14619445800781

$$$$
13
                    3D
 Structure written by MMmdl.
156165  0  0  1  0            999 V2000
  -30.6260  -14.8233   20.4476 C   0  0  0  0  0  0
  -30.4227  -12.5102   19.4851 C   0  0  0  0  0  0
  -29.5061  -12.5079   18.2433 C   0  0  0  0  0  0
  -28.0371  -12.3217   18.6634 C   0  0  0  0  0  0
  -27.6325  -13.2440   19.8446 C   0  0  2  0  0  0
  -28.6784  -13.2341   20.9798 C   0  0  0  0  0  0
  -25.2470  -13.8225   20.5711 C   0  0  0  0  0  0
  -24.1782  -13.0452   20.9230 C   0  0  0  0  0  0
  -24.6395  -11.6936   20.8771 C   0  0  0  0  0  0
  -23.9083  -10.4301   21.0414 C   0  0  0  0  0  0
  -24.3630   -9.4211   21.9188 C   0  0  0  0  0  0
  -23.6301   -8.2248   22.0756 C   0  0  0  0  0  0
  -22.4280   -8.0290   21.3547 C   0  0  0  0  0  0
  -21.9924   -9.0266   20.4647 C   0  0  0  0  0  0
  -22.7259  -10.2143   20.3059 C   0  0  0  0  0  0
  -21.6855   -6.0744   22.5279 C   0  0  0  0  0  0
  -21.4016   -6.5644   23.8214 C   0  0  0  0  0  0
  -21.3659   -5.6793   24.9174 C   0  0  0  0  0  0
  -21.6042   -4.3056   24.7222 C   0  0  0  0  0  0
  -21.8820   -3.8152   23.4340 C   0  0  0  0  0  0
  -21.9194   -4.6971   22.3399 C   0  0  0  0  0  0
  -22.7800  -13.5221   21.1874 C   0  0  0  0  0  0
  -22.1662   -4.2159   21.0975 F   0  0  0  0  0  0
  -21.5628   -3.4536   25.7732 F   0  0  0  0  0  0
  -29.9616  -13.6087   20.3760 N   0  0  0  0  0  0
  -26.2898  -12.9455   20.3289 N   0  0  0  0  0  0
  -25.9329  -11.6585   20.5784 N   0  0  0  0  0  0
  -22.0455  -12.8204   22.0430 N   0  0  0  0  0  0
  -25.4133  -15.1946   20.4094 N   0  0  0  0  0  0
  -31.8265  -14.8248   20.1510 O   0  0  0  0  0  0
  -21.6642   -6.8887   21.4241 O   0  0  0  0  0  0
  -22.3482  -14.5523   20.6719 O   0  0  0  0  0  0
  -24.6359  -31.8515   23.1957 C   0  0  0  0  0  0
  -25.9168  -32.4732   23.8317 C   0  0  1  0  0  0
  -27.2063  -27.2044   20.1530 C   0  0  0  0  0  0
  -25.5945  -33.8534   24.2235 N   0  0  0  0  0  0
  -23.4361  -30.4725   21.5399 C   0  0  2  0  0  0
  -24.8847  -28.9131   20.1105 C   0  0  0  0  0  0
  -22.7536  -29.4572   22.4894 C   0  0  0  0  0  0
  -18.0299  -28.1385   22.8474 C   0  0  0  0  0  0
  -24.1490  -36.7271   23.2640 C   0  0  0  0  0  0
  -25.9865  -30.7462   21.3866 C   0  0  0  0  0  0
  -26.0578  -29.3624   20.7325 C   0  0  0  0  0  0
  -27.2241  -28.5208   20.7427 C   0  0  0  0  0  0
  -26.0272  -26.8563   19.4632 C   0  0  0  0  0  0
  -24.8773  -27.6696   19.4614 C   0  0  0  0  0  0
  -23.6589  -29.8074   20.1563 C   0  0  0  0  0  0
  -25.4118  -36.3054   24.0319 C   0  0  1  0  0  0
  -20.5907  -28.3703   23.1250 C   0  0  2  0  0  0
  -20.6785  -26.9414   22.5403 C   0  0  0  0  0  0
  -19.5759  -26.6378   21.5208 C   0  0  0  0  0  0
  -18.1941  -26.7925   22.1620 C   0  0  0  0  0  0
  -19.1553  -28.8862   23.2854 C   0  0  0  0  0  0
  -18.9476  -30.1459   23.8876 C   0  0  0  0  0  0
  -17.6473  -30.6587   24.0556 C   0  0  0  0  0  0
  -25.9065  -34.9424   23.5081 C   0  0  0  0  0  0
  -16.5364  -29.9083   23.6329 C   0  0  0  0  0  0
  -16.7286  -28.6501   23.0350 C   0  0  0  0  0  0
  -26.4518  -31.6572   25.0726 C   0  0  0  0  0  0
  -25.3718  -31.3737   26.1431 C   0  0  0  0  0  0
  -27.0380  -30.2978   24.6256 C   0  0  0  0  0  0
  -27.6063  -32.4324   25.7502 C   0  0  0  0  0  0
  -27.5577  -37.1788   24.8463 C   0  0  0  0  0  0
  -21.4237  -29.3043   22.3638 N   0  0  0  0  0  0
  -26.4288  -37.3759   23.9407 N   0  0  0  0  0  0
  -24.7055  -31.0428   22.0964 N   0  0  0  0  0  0
  -23.4209  -28.8115   23.3019 O   0  0  0  0  0  0
  -28.2633  -26.2468   20.1722 O   0  0  0  0  0  0
  -26.5645  -34.8909   22.4656 O   0  0  0  0  0  0
  -23.5496  -32.1364   23.7216 O   0  0  0  0  0  0
  -29.7005  -20.0146   19.8758 C   0  0  0  0  0  0
  -29.7480  -18.5551   20.1327 C   0  0  0  0  0  0
  -28.9851  -18.1682   21.1583 C   0  0  0  0  0  0
  -28.8876  -20.7550   20.7572 C   0  0  0  0  0  0
  -30.4128  -17.2658   19.6042 C   0  0  0  0  0  0
  -29.0163  -16.6618   21.4261 C   0  0  0  0  0  0
  -26.7056  -24.5900   21.3466 C   0  0  0  0  0  0
  -29.0111  -25.1284   22.1065 C   0  0  0  0  0  0
  -28.7013  -23.4615   20.1724 C   0  0  0  0  0  0
  -28.1484  -24.8735   20.8590 C   0  0  0  0  0  0
  -29.9310  -16.0530   20.4003 N   0  0  0  0  0  0
  -28.5434  -22.1693   20.9858 N   0  0  0  0  0  0
  -28.1766  -19.5598   21.8921 S   0  0  0  0  0  0
  -31.4620  -12.6259   19.1744 H   0  0  0  0  0  0
  -30.3770  -11.5513   20.0040 H   0  0  0  0  0  0
  -29.8020  -11.7149   17.5549 H   0  0  0  0  0  0
  -29.6180  -13.4466   17.6984 H   0  0  0  0  0  0
  -27.9118  -11.2775   18.9537 H   0  0  0  0  0  0
  -27.3747  -12.4811   17.8120 H   0  0  0  0  0  0
  -27.6101  -14.2551   19.4368 H   0  0  0  0  0  0
  -28.7397  -12.2508   21.4484 H   0  0  0  0  0  0
  -28.4017  -13.9326   21.7696 H   0  0  0  0  0  0
  -25.2773   -9.5686   22.4769 H   0  0  0  0  0  0
  -24.0010   -7.4636   22.7472 H   0  0  0  0  0  0
  -21.0860   -8.8789   19.8945 H   0  0  0  0  0  0
  -22.3720  -10.9687   19.6171 H   0  0  0  0  0  0
  -21.2009   -7.6152   23.9722 H   0  0  0  0  0  0
  -21.1477   -6.0520   25.9078 H   0  0  0  0  0  0
  -22.0599   -2.7616   23.2836 H   0  0  0  0  0  0
  -22.4086  -11.9871   22.4819 H   0  0  0  0  0  0
  -21.1070  -13.1217   22.2635 H   0  0  0  0  0  0
  -24.6411  -15.8442   20.5115 H   0  0  0  0  0  0
  -26.2535  -15.6329   20.0551 H   0  0  0  0  0  0
  -26.7233  -32.5366   23.1055 H   0  0  0  0  0  0
  -25.0069  -33.9659   25.0364 H   0  0  0  0  0  0
  -22.7343  -31.2957   21.3912 H   0  0  0  0  0  0
  -23.3756  -35.9599   23.3293 H   0  0  0  0  0  0
  -24.3580  -36.8915   22.2057 H   0  0  0  0  0  0
  -23.7242  -37.6461   23.6681 H   0  0  0  0  0  0
  -26.1327  -31.5022   20.6141 H   0  0  0  0  0  0
  -26.8605  -30.7968   22.0239 H   0  0  0  0  0  0
  -28.1210  -28.8557   21.2444 H   0  0  0  0  0  0
  -25.9807  -25.9107   18.9434 H   0  0  0  0  0  0
  -23.9861  -27.3263   18.9541 H   0  0  0  0  0  0
  -23.7905  -30.5843   19.4022 H   0  0  0  0  0  0
  -22.7750  -29.2465   19.8476 H   0  0  0  0  0  0
  -25.1301  -36.1893   25.0811 H   0  0  0  0  0  0
  -20.9992  -28.3289   24.1373 H   0  0  0  0  0  0
  -20.5682  -26.2317   23.3613 H   0  0  0  0  0  0
  -21.6654  -26.7430   22.1202 H   0  0  0  0  0  0
  -19.6921  -25.6286   21.1247 H   0  0  0  0  0  0
  -19.6695  -27.3175   20.6725 H   0  0  0  0  0  0
  -17.4209  -26.6665   21.4025 H   0  0  0  0  0  0
  -18.0342  -26.0072   22.9018 H   0  0  0  0  0  0
  -19.7953  -30.7274   24.2245 H   0  0  0  0  0  0
  -17.5031  -31.6264   24.5164 H   0  0  0  0  0  0
  -15.5362  -30.2979   23.7664 H   0  0  0  0  0  0
  -15.8687  -28.0815   22.7073 H   0  0  0  0  0  0
  -24.5901  -30.7083   25.7749 H   0  0  0  0  0  0
  -24.8896  -32.2908   26.4819 H   0  0  0  0  0  0
  -25.8010  -30.8933   27.0233 H   0  0  0  0  0  0
  -26.2984  -29.6704   24.1267 H   0  0  0  0  0  0
  -27.4027  -29.7266   25.4804 H   0  0  0  0  0  0
  -27.8877  -30.4235   23.9543 H   0  0  0  0  0  0
  -27.2674  -33.3646   26.2033 H   0  0  0  0  0  0
  -28.3893  -32.6852   25.0341 H   0  0  0  0  0  0
  -28.0708  -31.8478   26.5452 H   0  0  0  0  0  0
  -28.2585  -38.0096   24.7523 H   0  0  0  0  0  0
  -28.1088  -36.2624   24.6281 H   0  0  0  0  0  0
  -27.2296  -37.1428   25.8868 H   0  0  0  0  0  0
  -20.9436  -29.8774   21.6840 H   0  0  0  0  0  0
  -26.0162  -38.2828   24.1419 H   0  0  0  0  0  0
  -30.2765  -20.4562   19.0750 H   0  0  0  0  0  0
  -31.4987  -17.3503   19.6675 H   0  0  0  0  0  0
  -30.1706  -17.1130   18.5517 H   0  0  0  0  0  0
  -28.0164  -16.2381   21.3387 H   0  0  0  0  0  0
  -29.3836  -16.4544   22.4321 H   0  0  0  0  0  0
  -26.6716  -23.7547   22.0446 H   0  0  0  0  0  0
  -26.0468  -24.3251   20.5208 H   0  0  0  0  0  0
  -26.2708  -25.4361   21.8792 H   0  0  0  0  0  0
  -29.0017  -24.2790   22.7900 H   0  0  0  0  0  0
  -28.6600  -25.9983   22.6633 H   0  0  0  0  0  0
  -30.0497  -25.3126   21.8312 H   0  0  0  0  0  0
  -29.7566  -23.5789   19.9223 H   0  0  0  0  0  0
  -28.1878  -23.3161   19.2209 H   0  0  0  0  0  0
  -27.9817  -22.3176   21.8196 H   0  0  0  0  0  0
  1 25  1  0  0  0
  1 30  2  0  0  0
  1 81  1  0  0  0
  2  3  1  0  0  0
  2 25  1  0  0  0
  2 84  1  0  0  0
  2 85  1  0  0  0
  3  4  1  0  0  0
  3 86  1  0  0  0
  3 87  1  0  0  0
  4  5  1  0  0  0
  4 88  1  0  0  0
  4 89  1  0  0  0
  5  6  1  0  0  0
  5 26  1  0  0  0
  5 90  1  0  0  0
  6 25  1  0  0  0
  6 91  1  0  0  0
  6 92  1  0  0  0
  7  8  2  0  0  0
  7 26  1  0  0  0
  7 29  1  0  0  0
  8  9  1  0  0  0
  8 22  1  0  0  0
  9 10  1  0  0  0
  9 27  2  0  0  0
 10 11  2  0  0  0
 10 15  1  0  0  0
 11 12  1  0  0  0
 11 93  1  0  0  0
 12 13  2  0  0  0
 12 94  1  0  0  0
 13 14  1  0  0  0
 13 31  1  0  0  0
 14 15  2  0  0  0
 14 95  1  0  0  0
 15 96  1  0  0  0
 16 17  2  0  0  0
 16 21  1  0  0  0
 16 31  1  0  0  0
 17 18  1  0  0  0
 17 97  1  0  0  0
 18 19  2  0  0  0
 18 98  1  0  0  0
 19 20  1  0  0  0
 19 24  1  0  0  0
 20 21  2  0  0  0
 20 99  1  0  0  0
 21 23  1  0  0  0
 22 28  1  0  0  0
 22 32  2  0  0  0
 26 27  1  0  0  0
 28100  1  0  0  0
 28101  1  0  0  0
 29102  1  0  0  0
 29103  1  0  0  0
 33 34  1  0  0  0
 33 66  1  0  0  0
 33 70  2  0  0  0
 34 36  1  0  0  0
 34 59  1  0  0  0
 34104  1  0  0  0
 35 44  2  0  0  0
 35 45  1  0  0  0
 35 68  1  0  0  0
 36 56  1  0  0  0
 36105  1  0  0  0
 37 39  1  0  0  0
 37 47  1  0  0  0
 37 66  1  0  0  0
 37106  1  0  0  0
 38 43  2  0  0  0
 38 46  1  0  0  0
 38 47  1  0  0  0
 39 64  1  0  0  0
 39 67  2  0  0  0
 40 52  1  0  0  0
 40 53  2  0  0  0
 40 58  1  0  0  0
 41107  1  0  0  0
 41108  1  0  0  0
 41109  1  0  0  0
 41 48  1  0  0  0
 42 43  1  0  0  0
 42 66  1  0  0  0
 42110  1  0  0  0
 42111  1  0  0  0
 43 44  1  0  0  0
 44112  1  0  0  0
 45 46  2  0  0  0
 45113  1  0  0  0
 46114  1  0  0  0
 47115  1  0  0  0
 47116  1  0  0  0
 48 56  1  0  0  0
 48 65  1  0  0  0
 48117  1  0  0  0
 49 50  1  0  0  0
 49 53  1  0  0  0
 49 64  1  0  0  0
 49118  1  0  0  0
 50 51  1  0  0  0
 50119  1  0  0  0
 50120  1  0  0  0
 51 52  1  0  0  0
 51121  1  0  0  0
 51122  1  0  0  0
 52123  1  0  0  0
 52124  1  0  0  0
 53 54  1  0  0  0
 54 55  2  0  0  0
 54125  1  0  0  0
 55 57  1  0  0  0
 55126  1  0  0  0
 56 69  2  0  0  0
 57 58  2  0  0  0
 57127  1  0  0  0
 58128  1  0  0  0
 59 60  1  0  0  0
 59 61  1  0  0  0
 59 62  1  0  0  0
 60129  1  0  0  0
 60130  1  0  0  0
 60131  1  0  0  0
 61132  1  0  0  0
 61133  1  0  0  0
 61134  1  0  0  0
 62135  1  0  0  0
 62136  1  0  0  0
 62137  1  0  0  0
 63 65  1  0  0  0
 63138  1  0  0  0
 63139  1  0  0  0
 63140  1  0  0  0
 64141  1  0  0  0
 65142  1  0  0  0
 68 80  1  0  0  0
 71 72  1  0  0  0
 71 74  2  0  0  0
 71143  1  0  0  0
 72 73  2  0  0  0
 72 75  1  0  0  0
 73 76  1  0  0  0
 73 83  1  0  0  0
 74 82  1  0  0  0
 74 83  1  0  0  0
 75 81  1  0  0  0
 75144  1  0  0  0
 75145  1  0  0  0
 76 81  1  0  0  0
 76146  1  0  0  0
 76147  1  0  0  0
 77148  1  0  0  0
 77149  1  0  0  0
 77150  1  0  0  0
 77 80  1  0  0  0
 78 80  1  0  0  0
 78151  1  0  0  0
 78152  1  0  0  0
 78153  1  0  0  0
 79 80  1  0  0  0
 79 82  1  0  0  0
 79154  1  0  0  0
 79155  1  0  0  0
 82156  1  0  0  0
M  ISO  4   1 100  68 101  80 101  81 100
M  END
> <chiral flag>
0

> <version>
0

> <s_m_source_file>
/data/baiqing/PycharmProjects/Reinvent-master-3.2/result/LINK_invent/BTK/process_docking_weight1_custom_product_contain_oxygen_bond_distance_aromatic_linkinvent_7_9_3/rearranged_h_0146.sdf

> <i_m_source_file_index>
14

> <r_mmod_Potential_Energy-OPLS-2005>
434.578765869141

> <r_mmod_Stretch_Energy-OPLS-2005>
164.740585327148

> <r_mmod_Bend_Energy-OPLS-2005>
297.587677001953

> <r_mmod_Torsional_Energy-OPLS-2005>
285.210388183594

> <r_mmod_Improper_Torsional_Energy-OPLS-2005>
15.3713817596436

> <r_mmod_Van_der_Waal_Energy-OPLS-2005>
113.34593963623

> <r_mmod_Electrostatic_Energy-OPLS-2005>
-364.231964111328

> <r_mmod_Solvation_Energy-OPLS-2005>
-202.840667724609

> <b_mmod_Minimization_Converged-OPLS-2005>
0

> <r_mmod_RMS_Derivative-OPLS-2005>
0.703089892864227

$$$$
14
                    3D
 Structure written by MMmdl.
156165  0  0  1  0            999 V2000
  -30.7209  -14.5109   20.5665 C   0  0  0  0  0  0
  -30.4337  -12.3458   19.4055 C   0  0  0  0  0  0
  -29.4949  -12.5301   18.1940 C   0  0  0  0  0  0
  -28.0115  -12.4076   18.6040 C   0  0  0  0  0  0
  -27.6696  -13.2116   19.8874 C   0  0  2  0  0  0
  -28.7240  -12.9452   20.9854 C   0  0  0  0  0  0
  -25.2618  -13.8159   20.5704 C   0  0  0  0  0  0
  -24.1837  -13.0451   20.9158 C   0  0  0  0  0  0
  -24.6396  -11.6900   20.8707 C   0  0  0  0  0  0
  -23.9054  -10.4302   21.0410 C   0  0  0  0  0  0
  -24.3597   -9.4202   21.9180 C   0  0  0  0  0  0
  -23.6267   -8.2244   22.0765 C   0  0  0  0  0  0
  -22.4246   -8.0289   21.3548 C   0  0  0  0  0  0
  -21.9870   -9.0281   20.4669 C   0  0  0  0  0  0
  -22.7220  -10.2163   20.3076 C   0  0  0  0  0  0
  -21.6844   -6.0713   22.5246 C   0  0  0  0  0  0
  -21.4017   -6.5617   23.8175 C   0  0  0  0  0  0
  -21.3648   -5.6773   24.9148 C   0  0  0  0  0  0
  -21.6054   -4.3044   24.7210 C   0  0  0  0  0  0
  -21.8828   -3.8124   23.4329 C   0  0  0  0  0  0
  -21.9200   -4.6931   22.3383 C   0  0  0  0  0  0
  -22.7852  -13.5264   21.1802 C   0  0  0  0  0  0
  -22.1682   -4.2119   21.0962 F   0  0  0  0  0  0
  -21.5628   -3.4526   25.7727 F   0  0  0  0  0  0
  -30.0339  -13.3304   20.4316 N   0  0  0  0  0  0
  -26.3081  -12.9344   20.3453 N   0  0  0  0  0  0
  -25.9337  -11.6490   20.5764 N   0  0  0  0  0  0
  -22.0469  -12.8284   22.0362 N   0  0  0  0  0  0
  -25.4351  -15.1880   20.4157 N   0  0  0  0  0  0
  -31.8631  -14.6239   20.1090 O   0  0  0  0  0  0
  -21.6626   -6.8875   21.4216 O   0  0  0  0  0  0
  -22.3517  -14.5555   20.6671 O   0  0  0  0  0  0
  -24.6174  -31.8664   23.2111 C   0  0  0  0  0  0
  -25.9063  -32.4817   23.8397 C   0  0  1  0  0  0
  -27.2322  -27.4089   20.1022 C   0  0  0  0  0  0
  -25.5904  -33.8612   24.2316 N   0  0  0  0  0  0
  -23.4061  -30.4921   21.5523 C   0  0  2  0  0  0
  -24.8536  -28.9628   20.1130 C   0  0  0  0  0  0
  -22.7421  -29.4653   22.4991 C   0  0  0  0  0  0
  -18.0263  -28.1380   22.8486 C   0  0  0  0  0  0
  -24.1468  -36.7297   23.2645 C   0  0  0  0  0  0
  -25.9415  -30.8222   21.3750 C   0  0  0  0  0  0
  -26.0187  -29.4610   20.7109 C   0  0  0  0  0  0
  -27.2123  -28.6958   20.6977 C   0  0  0  0  0  0
  -26.0488  -26.9459   19.4770 C   0  0  0  0  0  0
  -24.8659  -27.7061   19.4891 C   0  0  0  0  0  0
  -23.6161  -29.8299   20.1656 C   0  0  0  0  0  0
  -25.4101  -36.3106   24.0335 C   0  0  1  0  0  0
  -20.5854  -28.3669   23.1305 C   0  0  2  0  0  0
  -20.6752  -26.9395   22.5429 C   0  0  0  0  0  0
  -19.5735  -26.6371   21.5223 C   0  0  0  0  0  0
  -18.1909  -26.7923   22.1626 C   0  0  0  0  0  0
  -19.1514  -28.8849   23.2885 C   0  0  0  0  0  0
  -18.9454  -30.1458   23.8898 C   0  0  0  0  0  0
  -17.6460  -30.6594   24.0562 C   0  0  0  0  0  0
  -25.9040  -34.9475   23.5129 C   0  0  0  0  0  0
  -16.5347  -29.9094   23.6336 C   0  0  0  0  0  0
  -16.7254  -28.6505   23.0363 C   0  0  0  0  0  0
  -26.4483  -31.6627   25.0756 C   0  0  0  0  0  0
  -25.3745  -31.3770   26.1516 C   0  0  0  0  0  0
  -27.0342  -30.3054   24.6216 C   0  0  0  0  0  0
  -27.6038  -32.4390   25.7508 C   0  0  0  0  0  0
  -27.5572  -37.1801   24.8464 C   0  0  0  0  0  0
  -21.4153  -29.3031   22.3713 N   0  0  0  0  0  0
  -26.4280  -37.3799   23.9421 N   0  0  0  0  0  0
  -24.6731  -31.0742   22.1035 N   0  0  0  0  0  0
  -23.4174  -28.8196   23.3048 O   0  0  0  0  0  0
  -28.3637  -26.6068   20.1585 O   0  0  0  0  0  0
  -26.5605  -34.8927   22.4692 O   0  0  0  0  0  0
  -23.5364  -32.1439   23.7485 O   0  0  0  0  0  0
  -29.1176  -20.6054   21.0259 C   0  0  0  0  0  0
  -31.0066  -21.6267   21.8924 C   0  0  0  0  0  0
  -29.7079  -21.8337   21.4923 C   0  0  0  0  0  0
  -29.9140  -19.4844   21.1642 C   0  0  0  0  0  0
  -29.2610  -24.3037   20.7462 C   0  0  0  0  0  0
  -29.0423  -17.3603   22.2838 C   0  0  0  0  0  0
  -29.0897  -15.8575   21.9816 C   0  0  0  0  0  0
  -30.5156  -16.9971   20.4604 C   0  0  0  0  0  0
  -29.4947  -18.0294   20.9936 C   0  0  2  0  0  0
  -28.9226  -23.1319   21.7045 C   0  0  0  0  0  0
  -28.0604  -25.2027   20.3563 C   0  0  0  0  0  0
  -30.0395  -15.6556   20.8813 N   0  0  0  0  0  0
  -30.4074  -24.5286   20.3397 O   0  0  0  0  0  0
  -31.4856  -19.9473   21.7671 S   0  0  0  0  0  0
  -31.4688  -12.4507   19.0834 H   0  0  0  0  0  0
  -30.3578  -11.3311   19.7974 H   0  0  0  0  0  0
  -29.7298  -11.7973   17.4210 H   0  0  0  0  0  0
  -29.6700  -13.5106   17.7472 H   0  0  0  0  0  0
  -27.7957  -11.3487   18.7557 H   0  0  0  0  0  0
  -27.3716  -12.7339   17.7848 H   0  0  0  0  0  0
  -27.7230  -14.2696   19.6240 H   0  0  0  0  0  0
  -28.7328  -11.8799   21.2294 H   0  0  0  0  0  0
  -28.4832  -13.4209   21.9307 H   0  0  0  0  0  0
  -25.2760   -9.5644   22.4732 H   0  0  0  0  0  0
  -23.9966   -7.4639   22.7488 H   0  0  0  0  0  0
  -21.0801   -8.8836   19.8975 H   0  0  0  0  0  0
  -22.3713  -10.9708   19.6180 H   0  0  0  0  0  0
  -21.2014   -7.6126   23.9671 H   0  0  0  0  0  0
  -21.1449   -6.0506   25.9051 H   0  0  0  0  0  0
  -22.0625   -2.7568   23.2851 H   0  0  0  0  0  0
  -22.4081  -11.9986   22.4819 H   0  0  0  0  0  0
  -21.1113  -13.1367   22.2601 H   0  0  0  0  0  0
  -24.6767  -15.8503   20.5440 H   0  0  0  0  0  0
  -26.2976  -15.6219   20.1144 H   0  0  0  0  0  0
  -26.7136  -32.5506   23.1153 H   0  0  0  0  0  0
  -25.0048  -33.9777   25.0457 H   0  0  0  0  0  0
  -22.6961  -31.3112   21.4148 H   0  0  0  0  0  0
  -23.3732  -35.9629   23.3343 H   0  0  0  0  0  0
  -24.3547  -36.8882   22.2052 H   0  0  0  0  0  0
  -23.7219  -37.6507   23.6646 H   0  0  0  0  0  0
  -26.0769  -31.5938   20.6165 H   0  0  0  0  0  0
  -26.8199  -30.8574   22.0075 H   0  0  0  0  0  0
  -28.1063  -29.0751   21.1740 H   0  0  0  0  0  0
  -26.0117  -25.9917   18.9726 H   0  0  0  0  0  0
  -23.9750  -27.3183   19.0156 H   0  0  0  0  0  0
  -23.7267  -30.6077   19.4087 H   0  0  0  0  0  0
  -22.7391  -29.2522   19.8688 H   0  0  0  0  0  0
  -25.1275  -36.1966   25.0824 H   0  0  0  0  0  0
  -20.9938  -28.3255   24.1429 H   0  0  0  0  0  0
  -20.5635  -26.2291   23.3633 H   0  0  0  0  0  0
  -21.6630  -26.7435   22.1246 H   0  0  0  0  0  0
  -19.6902  -25.6277   21.1269 H   0  0  0  0  0  0
  -19.6684  -27.3170   20.6742 H   0  0  0  0  0  0
  -17.4182  -26.6663   21.4025 H   0  0  0  0  0  0
  -18.0311  -26.0071   22.9029 H   0  0  0  0  0  0
  -19.7940  -30.7262   24.2262 H   0  0  0  0  0  0
  -17.5028  -31.6280   24.5158 H   0  0  0  0  0  0
  -15.5350  -30.3009   23.7679 H   0  0  0  0  0  0
  -15.8640  -28.0835   22.7096 H   0  0  0  0  0  0
  -24.5851  -30.7200   25.7860 H   0  0  0  0  0  0
  -24.9026  -32.2953   26.5017 H   0  0  0  0  0  0
  -25.8079  -30.8878   27.0249 H   0  0  0  0  0  0
  -26.2936  -29.6799   24.1227 H   0  0  0  0  0  0
  -27.4032  -29.7319   25.4730 H   0  0  0  0  0  0
  -27.8799  -30.4350   23.9461 H   0  0  0  0  0  0
  -27.2617  -33.3664   26.2115 H   0  0  0  0  0  0
  -28.3806  -32.7018   25.0316 H   0  0  0  0  0  0
  -28.0768  -31.8531   26.5401 H   0  0  0  0  0  0
  -28.2604  -38.0083   24.7513 H   0  0  0  0  0  0
  -28.1046  -36.2623   24.6279 H   0  0  0  0  0  0
  -27.2296  -37.1447   25.8865 H   0  0  0  0  0  0
  -20.9326  -29.8736   21.6920 H   0  0  0  0  0  0
  -26.0164  -38.2868   24.1446 H   0  0  0  0  0  0
  -28.0880  -20.5726   20.6968 H   0  0  0  0  0  0
  -31.6958  -22.3484   22.3185 H   0  0  0  0  0  0
  -29.7449  -17.5889   23.0885 H   0  0  0  0  0  0
  -28.0548  -17.6946   22.6018 H   0  0  0  0  0  0
  -28.0972  -15.5400   21.6629 H   0  0  0  0  0  0
  -29.3709  -15.2864   22.8692 H   0  0  0  0  0  0
  -31.4997  -17.1565   20.9075 H   0  0  0  0  0  0
  -30.6356  -17.0687   19.3775 H   0  0  0  0  0  0
  -28.6493  -18.0056   20.3048 H   0  0  0  0  0  0
  -29.0720  -23.4953   22.7215 H   0  0  0  0  0  0
  -27.8539  -22.9353   21.6318 H   0  0  0  0  0  0
  -27.3044  -25.1194   21.1399 H   0  0  0  0  0  0
  -27.6356  -24.7830   19.4463 H   0  0  0  0  0  0
  1 25  1  0  0  0
  1 30  2  0  0  0
  1 82  1  0  0  0
  2  3  1  0  0  0
  2 25  1  0  0  0
  2 85  1  0  0  0
  2 86  1  0  0  0
  3  4  1  0  0  0
  3 87  1  0  0  0
  3 88  1  0  0  0
  4  5  1  0  0  0
  4 89  1  0  0  0
  4 90  1  0  0  0
  5  6  1  0  0  0
  5 26  1  0  0  0
  5 91  1  0  0  0
  6 25  1  0  0  0
  6 92  1  0  0  0
  6 93  1  0  0  0
  7  8  2  0  0  0
  7 26  1  0  0  0
  7 29  1  0  0  0
  8  9  1  0  0  0
  8 22  1  0  0  0
  9 10  1  0  0  0
  9 27  2  0  0  0
 10 11  2  0  0  0
 10 15  1  0  0  0
 11 12  1  0  0  0
 11 94  1  0  0  0
 12 13  2  0  0  0
 12 95  1  0  0  0
 13 14  1  0  0  0
 13 31  1  0  0  0
 14 15  2  0  0  0
 14 96  1  0  0  0
 15 97  1  0  0  0
 16 17  2  0  0  0
 16 21  1  0  0  0
 16 31  1  0  0  0
 17 18  1  0  0  0
 17 98  1  0  0  0
 18 19  2  0  0  0
 18 99  1  0  0  0
 19 20  1  0  0  0
 19 24  1  0  0  0
 20 21  2  0  0  0
 20100  1  0  0  0
 21 23  1  0  0  0
 22 28  1  0  0  0
 22 32  2  0  0  0
 26 27  1  0  0  0
 28101  1  0  0  0
 28102  1  0  0  0
 29103  1  0  0  0
 29104  1  0  0  0
 33 34  1  0  0  0
 33 66  1  0  0  0
 33 70  2  0  0  0
 34 36  1  0  0  0
 34 59  1  0  0  0
 34105  1  0  0  0
 35 44  2  0  0  0
 35 45  1  0  0  0
 35 68  1  0  0  0
 36 56  1  0  0  0
 36106  1  0  0  0
 37 39  1  0  0  0
 37 47  1  0  0  0
 37 66  1  0  0  0
 37107  1  0  0  0
 38 43  2  0  0  0
 38 46  1  0  0  0
 38 47  1  0  0  0
 39 64  1  0  0  0
 39 67  2  0  0  0
 40 52  1  0  0  0
 40 53  2  0  0  0
 40 58  1  0  0  0
 41108  1  0  0  0
 41109  1  0  0  0
 41110  1  0  0  0
 41 48  1  0  0  0
 42 43  1  0  0  0
 42 66  1  0  0  0
 42111  1  0  0  0
 42112  1  0  0  0
 43 44  1  0  0  0
 44113  1  0  0  0
 45 46  2  0  0  0
 45114  1  0  0  0
 46115  1  0  0  0
 47116  1  0  0  0
 47117  1  0  0  0
 48 56  1  0  0  0
 48 65  1  0  0  0
 48118  1  0  0  0
 49 50  1  0  0  0
 49 53  1  0  0  0
 49 64  1  0  0  0
 49119  1  0  0  0
 50 51  1  0  0  0
 50120  1  0  0  0
 50121  1  0  0  0
 51 52  1  0  0  0
 51122  1  0  0  0
 51123  1  0  0  0
 52124  1  0  0  0
 52125  1  0  0  0
 53 54  1  0  0  0
 54 55  2  0  0  0
 54126  1  0  0  0
 55 57  1  0  0  0
 55127  1  0  0  0
 56 69  2  0  0  0
 57 58  2  0  0  0
 57128  1  0  0  0
 58129  1  0  0  0
 59 60  1  0  0  0
 59 61  1  0  0  0
 59 62  1  0  0  0
 60130  1  0  0  0
 60131  1  0  0  0
 60132  1  0  0  0
 61133  1  0  0  0
 61134  1  0  0  0
 61135  1  0  0  0
 62136  1  0  0  0
 62137  1  0  0  0
 62138  1  0  0  0
 63 65  1  0  0  0
 63139  1  0  0  0
 63140  1  0  0  0
 63141  1  0  0  0
 64142  1  0  0  0
 65143  1  0  0  0
 68 81  1  0  0  0
 71 73  1  0  0  0
 71 74  2  0  0  0
 71144  1  0  0  0
 72 73  2  0  0  0
 72 84  1  0  0  0
 72145  1  0  0  0
 73 80  1  0  0  0
 74 84  1  0  0  0
 74 79  1  0  0  0
 75 80  1  0  0  0
 75 81  1  0  0  0
 75 83  2  0  0  0
 76 77  1  0  0  0
 76 79  1  0  0  0
 76146  1  0  0  0
 76147  1  0  0  0
 77 82  1  0  0  0
 77148  1  0  0  0
 77149  1  0  0  0
 78 79  1  0  0  0
 78 82  1  0  0  0
 78150  1  0  0  0
 78151  1  0  0  0
 79152  1  0  0  0
 80153  1  0  0  0
 80154  1  0  0  0
 81155  1  0  0  0
 81156  1  0  0  0
M  ISO  4   1 100  68 101  81 101  82 100
M  END
> <chiral flag>
0

> <version>
0

> <s_m_source_file>
/data/baiqing/PycharmProjects/Reinvent-master-3.2/result/LINK_invent/BTK/process_docking_weight1_custom_product_contain_oxygen_bond_distance_aromatic_linkinvent_7_9_3/rearranged_h_0146.sdf

> <i_m_source_file_index>
15

> <r_mmod_Potential_Energy-OPLS-2005>
179.212768554688

> <r_mmod_Stretch_Energy-OPLS-2005>
47.1739616394043

> <r_mmod_Bend_Energy-OPLS-2005>
151.813827514648

> <r_mmod_Torsional_Energy-OPLS-2005>
297.361389160156

> <r_mmod_Improper_Torsional_Energy-OPLS-2005>
11.9770278930664

> <r_mmod_Van_der_Waal_Energy-OPLS-2005>
128.318008422852

> <r_mmod_Electrostatic_Energy-OPLS-2005>
-247.322723388672

> <r_mmod_Solvation_Energy-OPLS-2005>
-230.126937866211

> <b_mmod_Minimization_Converged-OPLS-2005>
0

> <r_mmod_RMS_Derivative-OPLS-2005>
4.30859231948853

$$$$
15
                    3D
 Structure written by MMmdl.
166175  0  0  1  0            999 V2000
  -30.5490  -14.7724   20.4809 C   0  0  0  0  0  0
  -30.4545  -12.4759   19.4674 C   0  0  0  0  0  0
  -29.5178  -12.5216   18.2367 C   0  0  0  0  0  0
  -28.0443  -12.3318   18.6508 C   0  0  0  0  0  0
  -27.6490  -13.2196   19.8593 C   0  0  2  0  0  0
  -28.6951  -13.1137   20.9912 C   0  0  0  0  0  0
  -25.2521  -13.8140   20.5603 C   0  0  0  0  0  0
  -24.1818  -13.0420   20.9199 C   0  0  0  0  0  0
  -24.6398  -11.6895   20.8772 C   0  0  0  0  0  0
  -23.9069  -10.4281   21.0427 C   0  0  0  0  0  0
  -24.3619   -9.4192   21.9199 C   0  0  0  0  0  0
  -23.6284   -8.2235   22.0762 C   0  0  0  0  0  0
  -22.4267   -8.0283   21.3549 C   0  0  0  0  0  0
  -21.9905   -9.0264   20.4656 C   0  0  0  0  0  0
  -22.7246  -10.2135   20.3071 C   0  0  0  0  0  0
  -21.6849   -6.0733   22.5278 C   0  0  0  0  0  0
  -21.4016   -6.5636   23.8212 C   0  0  0  0  0  0
  -21.3655   -5.6790   24.9174 C   0  0  0  0  0  0
  -21.6042   -4.3055   24.7225 C   0  0  0  0  0  0
  -21.8819   -3.8143   23.4347 C   0  0  0  0  0  0
  -21.9192   -4.6959   22.3402 C   0  0  0  0  0  0
  -22.7845  -13.5225   21.1859 C   0  0  0  0  0  0
  -22.1660   -4.2144   21.0977 F   0  0  0  0  0  0
  -21.5621   -3.4537   25.7738 F   0  0  0  0  0  0
  -29.9967  -13.5079   20.4260 N   0  0  0  0  0  0
  -26.2969  -12.9336   20.3298 N   0  0  0  0  0  0
  -25.9332  -11.6498   20.5794 N   0  0  0  0  0  0
  -22.0480  -12.8236   22.0423 N   0  0  0  0  0  0
  -25.4158  -15.1833   20.3806 N   0  0  0  0  0  0
  -31.7114  -14.9619   20.1066 O   0  0  0  0  0  0
  -21.6633   -6.8880   21.4242 O   0  0  0  0  0  0
  -22.3538  -14.5529   20.6696 O   0  0  0  0  0  0
  -24.6332  -31.8533   23.1969 C   0  0  0  0  0  0
  -25.9148  -32.4746   23.8319 C   0  0  1  0  0  0
  -27.2228  -27.2417   20.1352 C   0  0  0  0  0  0
  -25.5939  -33.8550   24.2244 N   0  0  0  0  0  0
  -23.4310  -30.4754   21.5410 C   0  0  2  0  0  0
  -24.8789  -28.9173   20.1146 C   0  0  0  0  0  0
  -22.7509  -29.4595   22.4908 C   0  0  0  0  0  0
  -18.0293  -28.1388   22.8481 C   0  0  0  0  0  0
  -24.1488  -36.7281   23.2639 C   0  0  0  0  0  0
  -25.9789  -30.7607   21.3793 C   0  0  0  0  0  0
  -26.0521  -29.3805   20.7234 C   0  0  0  0  0  0
  -27.2269  -28.5573   20.7186 C   0  0  0  0  0  0
  -26.0240  -26.8517   19.4968 C   0  0  0  0  0  0
  -24.8715  -27.6620   19.4894 C   0  0  0  0  0  0
  -23.6510  -29.8073   20.1583 C   0  0  0  0  0  0
  -25.4114  -36.3063   24.0323 C   0  0  1  0  0  0
  -20.5897  -28.3701   23.1264 C   0  0  2  0  0  0
  -20.6782  -26.9416   22.5409 C   0  0  0  0  0  0
  -19.5757  -26.6382   21.5213 C   0  0  0  0  0  0
  -18.1937  -26.7930   22.1621 C   0  0  0  0  0  0
  -19.1547  -28.8861   23.2868 C   0  0  0  0  0  0
  -18.9469  -30.1461   23.8892 C   0  0  0  0  0  0
  -17.6467  -30.6589   24.0564 C   0  0  0  0  0  0
  -25.9059  -34.9435   23.5085 C   0  0  0  0  0  0
  -16.5358  -29.9087   23.6333 C   0  0  0  0  0  0
  -16.7279  -28.6501   23.0356 C   0  0  0  0  0  0
  -26.4506  -31.6582   25.0721 C   0  0  0  0  0  0
  -25.3724  -31.3759   26.1445 C   0  0  0  0  0  0
  -27.0351  -30.2990   24.6230 C   0  0  0  0  0  0
  -27.6055  -32.4330   25.7495 C   0  0  0  0  0  0
  -27.5577  -37.1794   24.8460 C   0  0  0  0  0  0
  -21.4213  -29.3045   22.3651 N   0  0  0  0  0  0
  -26.4285  -37.3765   23.9408 N   0  0  0  0  0  0
  -24.7003  -31.0480   22.0953 N   0  0  0  0  0  0
  -23.4198  -28.8135   23.3017 O   0  0  0  0  0  0
  -28.3275  -26.3511   20.1638 O   0  0  0  0  0  0
  -26.5631  -34.8914   22.4655 O   0  0  0  0  0  0
  -23.5477  -32.1363   23.7254 O   0  0  0  0  0  0
  -30.3092  -18.3870   20.2443 C   0  0  0  0  0  0
  -29.5513  -17.2777   20.8098 C   0  0  0  0  0  0
  -29.6440  -19.6051   20.5096 C   0  0  0  0  0  0
  -28.4750  -17.9047   21.3923 C   0  0  0  0  0  0
  -29.0786  -22.2060   20.3934 C   0  0  0  0  0  0
  -29.9011  -21.0729   20.2660 C   0  0  0  0  0  0
  -30.4092  -24.2328   21.1892 C   0  0  0  0  0  0
  -27.1743  -17.6661   23.6452 C   0  0  0  0  0  0
  -27.3663  -16.2601   23.1223 C   0  0  0  0  0  0
  -27.2865  -17.4239   22.1612 C   0  0  0  0  0  0
  -31.3582  -21.2310   19.8534 C   0  0  0  0  0  0
  -31.3072  -25.4226   20.8628 C   0  0  0  0  0  0
  -29.8577  -23.9815   18.6914 C   0  0  0  0  0  0
  -28.1201  -24.8526   20.3096 C   0  0  0  0  0  0
  -29.3543  -23.7913   20.1466 C   0  0  1  0  0  0
  -29.6719  -15.7875   20.8393 N   0  0  0  0  0  0
  -30.5180  -23.6725   22.2838 O   0  0  0  0  0  0
  -28.5132  -19.2715   21.1999 O   0  0  0  0  0  0
  -31.4886  -12.6390   19.1605 H   0  0  0  0  0  0
  -30.4326  -11.4896   19.9335 H   0  0  0  0  0  0
  -29.8042  -11.7548   17.5157 H   0  0  0  0  0  0
  -29.6320  -13.4795   17.7260 H   0  0  0  0  0  0
  -27.9081  -11.2805   18.9095 H   0  0  0  0  0  0
  -27.3841  -12.5242   17.8046 H   0  0  0  0  0  0
  -27.6523  -14.2468   19.4944 H   0  0  0  0  0  0
  -28.7397  -12.0943   21.3776 H   0  0  0  0  0  0
  -28.4162  -13.7378   21.8408 H   0  0  0  0  0  0
  -25.2765   -9.5657   22.4775 H   0  0  0  0  0  0
  -23.9986   -7.4620   22.7479 H   0  0  0  0  0  0
  -21.0831   -8.8795   19.8962 H   0  0  0  0  0  0
  -22.3715  -10.9680   19.6181 H   0  0  0  0  0  0
  -21.2015   -7.6146   23.9714 H   0  0  0  0  0  0
  -21.1472   -6.0521   25.9076 H   0  0  0  0  0  0
  -22.0601   -2.7603   23.2853 H   0  0  0  0  0  0
  -22.4084  -11.9906   22.4837 H   0  0  0  0  0  0
  -21.1105  -13.1287   22.2626 H   0  0  0  0  0  0
  -24.6257  -15.8168   20.4329 H   0  0  0  0  0  0
  -26.2299  -15.6022   19.9517 H   0  0  0  0  0  0
  -26.7217  -32.5390   23.1061 H   0  0  0  0  0  0
  -25.0087  -33.9681   25.0390 H   0  0  0  0  0  0
  -22.7287  -31.2984   21.3923 H   0  0  0  0  0  0
  -23.3751  -35.9612   23.3289 H   0  0  0  0  0  0
  -24.3580  -36.8917   22.2056 H   0  0  0  0  0  0
  -23.7242  -37.6478   23.6674 H   0  0  0  0  0  0
  -26.1187  -31.5191   20.6077 H   0  0  0  0  0  0
  -26.8557  -30.8115   22.0130 H   0  0  0  0  0  0
  -28.1260  -28.9097   21.2047 H   0  0  0  0  0  0
  -25.9475  -25.9033   18.9897 H   0  0  0  0  0  0
  -23.9757  -27.3039   19.0002 H   0  0  0  0  0  0
  -23.7791  -30.5819   19.4014 H   0  0  0  0  0  0
  -22.7688  -29.2423   19.8522 H   0  0  0  0  0  0
  -25.1297  -36.1903   25.0814 H   0  0  0  0  0  0
  -20.9989  -28.3287   24.1385 H   0  0  0  0  0  0
  -20.5679  -26.2314   23.3616 H   0  0  0  0  0  0
  -21.6652  -26.7437   22.1207 H   0  0  0  0  0  0
  -19.6920  -25.6292   21.1249 H   0  0  0  0  0  0
  -19.6696  -27.3186   20.6738 H   0  0  0  0  0  0
  -17.4207  -26.6677   21.4024 H   0  0  0  0  0  0
  -18.0333  -26.0073   22.9015 H   0  0  0  0  0  0
  -19.7946  -30.7276   24.2260 H   0  0  0  0  0  0
  -17.5024  -31.6269   24.5164 H   0  0  0  0  0  0
  -15.5359  -30.2988   23.7662 H   0  0  0  0  0  0
  -15.8677  -28.0819   22.7081 H   0  0  0  0  0  0
  -24.5877  -30.7132   25.7781 H   0  0  0  0  0  0
  -24.8948  -32.2946   26.4862 H   0  0  0  0  0  0
  -25.8033  -30.8937   27.0228 H   0  0  0  0  0  0
  -26.2941  -29.6738   24.1237 H   0  0  0  0  0  0
  -27.3996  -29.7260   25.4766 H   0  0  0  0  0  0
  -27.8833  -30.4248   23.9498 H   0  0  0  0  0  0
  -27.2649  -33.3625   26.2069 H   0  0  0  0  0  0
  -28.3865  -32.6902   25.0329 H   0  0  0  0  0  0
  -28.0722  -31.8465   26.5418 H   0  0  0  0  0  0
  -28.2592  -38.0094   24.7508 H   0  0  0  0  0  0
  -28.1074  -36.2626   24.6277 H   0  0  0  0  0  0
  -27.2298  -37.1435   25.8864 H   0  0  0  0  0  0
  -20.9402  -29.8768   21.6852 H   0  0  0  0  0  0
  -26.0159  -38.2834   24.1421 H   0  0  0  0  0  0
  -31.2409  -18.3111   19.7024 H   0  0  0  0  0  0
  -28.0660  -22.0096   20.7145 H   0  0  0  0  0  0
  -28.0191  -18.1389   24.1430 H   0  0  0  0  0  0
  -26.1942  -17.9287   24.0376 H   0  0  0  0  0  0
  -26.5123  -15.5860   23.1605 H   0  0  0  0  0  0
  -28.3337  -15.7973   23.3055 H   0  0  0  0  0  0
  -26.3755  -17.5354   21.5771 H   0  0  0  0  0  0
  -32.0030  -20.7347   20.5800 H   0  0  0  0  0  0
  -31.7053  -22.2562   19.8078 H   0  0  0  0  0  0
  -31.5291  -20.7720   18.8794 H   0  0  0  0  0  0
  -30.8414  -26.0841   20.1342 H   0  0  0  0  0  0
  -32.2546  -25.0730   20.4543 H   0  0  0  0  0  0
  -31.5107  -26.0016   21.7630 H   0  0  0  0  0  0
  -30.9041  -23.7261   18.5438 H   0  0  0  0  0  0
  -29.7550  -25.0169   18.3643 H   0  0  0  0  0  0
  -29.2740  -23.3774   17.9966 H   0  0  0  0  0  0
  -27.6618  -24.6958   21.2873 H   0  0  0  0  0  0
  -27.3703  -24.5240   19.5940 H   0  0  0  0  0  0
  -28.8224  -15.3605   21.1743 H   0  0  0  0  0  0
  1 25  1  0  0  0
  1 30  2  0  0  0
  1 86  1  0  0  0
  2  3  1  0  0  0
  2 25  1  0  0  0
  2 89  1  0  0  0
  2 90  1  0  0  0
  3  4  1  0  0  0
  3 91  1  0  0  0
  3 92  1  0  0  0
  4  5  1  0  0  0
  4 93  1  0  0  0
  4 94  1  0  0  0
  5  6  1  0  0  0
  5 26  1  0  0  0
  5 95  1  0  0  0
  6 25  1  0  0  0
  6 96  1  0  0  0
  6 97  1  0  0  0
  7  8  2  0  0  0
  7 26  1  0  0  0
  7 29  1  0  0  0
  8  9  1  0  0  0
  8 22  1  0  0  0
  9 10  1  0  0  0
  9 27  2  0  0  0
 10 11  2  0  0  0
 10 15  1  0  0  0
 11 12  1  0  0  0
 11 98  1  0  0  0
 12 13  2  0  0  0
 12 99  1  0  0  0
 13 14  1  0  0  0
 13 31  1  0  0  0
 14 15  2  0  0  0
 14100  1  0  0  0
 15101  1  0  0  0
 16 17  2  0  0  0
 16 21  1  0  0  0
 16 31  1  0  0  0
 17 18  1  0  0  0
 17102  1  0  0  0
 18 19  2  0  0  0
 18103  1  0  0  0
 19 20  1  0  0  0
 19 24  1  0  0  0
 20 21  2  0  0  0
 20104  1  0  0  0
 21 23  1  0  0  0
 22 28  1  0  0  0
 22 32  2  0  0  0
 26 27  1  0  0  0
 28105  1  0  0  0
 28106  1  0  0  0
 29107  1  0  0  0
 29108  1  0  0  0
 33 34  1  0  0  0
 33 66  1  0  0  0
 33 70  2  0  0  0
 34 36  1  0  0  0
 34 59  1  0  0  0
 34109  1  0  0  0
 35 44  2  0  0  0
 35 45  1  0  0  0
 35 68  1  0  0  0
 36 56  1  0  0  0
 36110  1  0  0  0
 37 39  1  0  0  0
 37 47  1  0  0  0
 37 66  1  0  0  0
 37111  1  0  0  0
 38 43  2  0  0  0
 38 46  1  0  0  0
 38 47  1  0  0  0
 39 64  1  0  0  0
 39 67  2  0  0  0
 40 52  1  0  0  0
 40 53  2  0  0  0
 40 58  1  0  0  0
 41112  1  0  0  0
 41113  1  0  0  0
 41114  1  0  0  0
 41 48  1  0  0  0
 42 43  1  0  0  0
 42 66  1  0  0  0
 42115  1  0  0  0
 42116  1  0  0  0
 43 44  1  0  0  0
 44117  1  0  0  0
 45 46  2  0  0  0
 45118  1  0  0  0
 46119  1  0  0  0
 47120  1  0  0  0
 47121  1  0  0  0
 48 56  1  0  0  0
 48 65  1  0  0  0
 48122  1  0  0  0
 49 50  1  0  0  0
 49 53  1  0  0  0
 49 64  1  0  0  0
 49123  1  0  0  0
 50 51  1  0  0  0
 50124  1  0  0  0
 50125  1  0  0  0
 51 52  1  0  0  0
 51126  1  0  0  0
 51127  1  0  0  0
 52128  1  0  0  0
 52129  1  0  0  0
 53 54  1  0  0  0
 54 55  2  0  0  0
 54130  1  0  0  0
 55 57  1  0  0  0
 55131  1  0  0  0
 56 69  2  0  0  0
 57 58  2  0  0  0
 57132  1  0  0  0
 58133  1  0  0  0
 59 60  1  0  0  0
 59 61  1  0  0  0
 59 62  1  0  0  0
 60134  1  0  0  0
 60135  1  0  0  0
 60136  1  0  0  0
 61137  1  0  0  0
 61138  1  0  0  0
 61139  1  0  0  0
 62140  1  0  0  0
 62141  1  0  0  0
 62142  1  0  0  0
 63 65  1  0  0  0
 63143  1  0  0  0
 63144  1  0  0  0
 63145  1  0  0  0
 64146  1  0  0  0
 65147  1  0  0  0
 68 84  1  0  0  0
 71 72  1  0  0  0
 71 73  2  0  0  0
 71148  1  0  0  0
 72 74  2  0  0  0
 72 86  1  0  0  0
 73 76  1  0  0  0
 73 88  1  0  0  0
 74 88  1  0  0  0
 74 80  1  0  0  0
 75 76  2  0  0  0
 75149  1  0  0  0
 75 85  1  0  0  0
 76 81  1  0  0  0
 77 82  1  0  0  0
 77 85  1  0  0  0
 77 87  2  0  0  0
 78 79  1  0  0  0
 78 80  1  0  0  0
 78150  1  0  0  0
 78151  1  0  0  0
 79 80  1  0  0  0
 79152  1  0  0  0
 79153  1  0  0  0
 80154  1  0  0  0
 81155  1  0  0  0
 81156  1  0  0  0
 81157  1  0  0  0
 82158  1  0  0  0
 82159  1  0  0  0
 82160  1  0  0  0
 83161  1  0  0  0
 83162  1  0  0  0
 83163  1  0  0  0
 83 85  1  0  0  0
 84 85  1  0  0  0
 84164  1  0  0  0
 84165  1  0  0  0
 86166  1  0  0  0
M  ISO  4   1 100  68 101  84 101  86 100
M  END
> <chiral flag>
0

> <version>
0

> <s_m_source_file>
/data/baiqing/PycharmProjects/Reinvent-master-3.2/result/LINK_invent/BTK/process_docking_weight1_custom_product_contain_oxygen_bond_distance_aromatic_linkinvent_7_9_3/rearranged_h_0146.sdf

> <i_m_source_file_index>
16

> <r_mmod_Potential_Energy-OPLS-2005>
215.318130493164

> <r_mmod_Stretch_Energy-OPLS-2005>
143.112030029297

> <r_mmod_Bend_Energy-OPLS-2005>
213.694274902344

> <r_mmod_Torsional_Energy-OPLS-2005>
241.580215454102

> <r_mmod_Improper_Torsional_Energy-OPLS-2005>
4.30688905715942

> <r_mmod_Van_der_Waal_Energy-OPLS-2005>
114.617599487305

> <r_mmod_Electrostatic_Energy-OPLS-2005>
-385.412475585938

> <r_mmod_Solvation_Energy-OPLS-2005>
-212.381805419922

> <b_mmod_Minimization_Converged-OPLS-2005>
0

> <r_mmod_RMS_Derivative-OPLS-2005>
0.909438133239746

$$$$
16
                    3D
 Structure written by MMmdl.
183192  0  0  1  0            999 V2000
  -30.6159  -14.5959   20.5379 C   0  0  0  0  0  0
  -30.4469  -12.3838   19.4283 C   0  0  0  0  0  0
  -29.5054  -12.5292   18.2116 C   0  0  0  0  0  0
  -28.0265  -12.3660   18.6247 C   0  0  0  0  0  0
  -27.6596  -13.2093   19.8741 C   0  0  2  0  0  0
  -28.7055  -13.0169   20.9964 C   0  0  0  0  0  0
  -25.2603  -13.8177   20.5697 C   0  0  0  0  0  0
  -24.1840  -13.0439   20.9187 C   0  0  0  0  0  0
  -24.6408  -11.6919   20.8740 C   0  0  0  0  0  0
  -23.9062  -10.4313   21.0424 C   0  0  0  0  0  0
  -24.3627   -9.4224   21.9184 C   0  0  0  0  0  0
  -23.6317   -8.2255   22.0759 C   0  0  0  0  0  0
  -22.4286   -8.0291   21.3560 C   0  0  0  0  0  0
  -21.9915   -9.0262   20.4650 C   0  0  0  0  0  0
  -22.7242  -10.2147   20.3067 C   0  0  0  0  0  0
  -21.6852   -6.0745   22.5292 C   0  0  0  0  0  0
  -21.4012   -6.5653   23.8225 C   0  0  0  0  0  0
  -21.3658   -5.6798   24.9186 C   0  0  0  0  0  0
  -21.6048   -4.3064   24.7224 C   0  0  0  0  0  0
  -21.8824   -3.8161   23.4346 C   0  0  0  0  0  0
  -21.9208   -4.6981   22.3403 C   0  0  0  0  0  0
  -22.7870  -13.5235   21.1862 C   0  0  0  0  0  0
  -22.1670   -4.2167   21.0985 F   0  0  0  0  0  0
  -21.5631   -3.4541   25.7735 F   0  0  0  0  0  0
  -30.0220  -13.3701   20.4377 N   0  0  0  0  0  0
  -26.3023  -12.9334   20.3359 N   0  0  0  0  0  0
  -25.9339  -11.6501   20.5784 N   0  0  0  0  0  0
  -22.0507  -12.8198   22.0407 N   0  0  0  0  0  0
  -25.4365  -15.1884   20.4119 N   0  0  0  0  0  0
  -31.7624  -14.8052   20.1261 O   0  0  0  0  0  0
  -21.6658   -6.8881   21.4247 O   0  0  0  0  0  0
  -22.3556  -14.5546   20.6741 O   0  0  0  0  0  0
  -24.6267  -31.8632   23.2074 C   0  0  0  0  0  0
  -25.9123  -32.4777   23.8382 C   0  0  1  0  0  0
  -27.2133  -27.3450   20.1029 C   0  0  0  0  0  0
  -25.5952  -33.8574   24.2301 N   0  0  0  0  0  0
  -23.4160  -30.4900   21.5507 C   0  0  2  0  0  0
  -24.8587  -28.9425   20.1223 C   0  0  0  0  0  0
  -22.7477  -29.4648   22.4974 C   0  0  0  0  0  0
  -18.0287  -28.1390   22.8500 C   0  0  0  0  0  0
  -24.1501  -36.7284   23.2634 C   0  0  0  0  0  0
  -25.9550  -30.8012   21.3711 C   0  0  0  0  0  0
  -26.0308  -29.4307   20.7130 C   0  0  0  0  0  0
  -27.2193  -28.6458   20.6851 C   0  0  0  0  0  0
  -26.0198  -26.8957   19.5121 C   0  0  0  0  0  0
  -24.8499  -27.6749   19.5213 C   0  0  0  0  0  0
  -23.6278  -29.8237   20.1661 C   0  0  0  0  0  0
  -25.4126  -36.3077   24.0329 C   0  0  1  0  0  0
  -20.5887  -28.3682   23.1294 C   0  0  2  0  0  0
  -20.6768  -26.9402   22.5430 C   0  0  0  0  0  0
  -19.5742  -26.6388   21.5231 C   0  0  0  0  0  0
  -18.1928  -26.7938   22.1639 C   0  0  0  0  0  0
  -19.1544  -28.8864   23.2887 C   0  0  0  0  0  0
  -18.9463  -30.1472   23.8901 C   0  0  0  0  0  0
  -17.6458  -30.6595   24.0564 C   0  0  0  0  0  0
  -25.9062  -34.9446   23.5106 C   0  0  0  0  0  0
  -16.5345  -29.9095   23.6325 C   0  0  0  0  0  0
  -16.7275  -28.6514   23.0348 C   0  0  0  0  0  0
  -26.4504  -31.6568   25.0740 C   0  0  0  0  0  0
  -25.3726  -31.3682   26.1450 C   0  0  0  0  0  0
  -27.0338  -30.2989   24.6174 C   0  0  0  0  0  0
  -27.6073  -32.4306   25.7501 C   0  0  0  0  0  0
  -27.5578  -37.1798   24.8463 C   0  0  0  0  0  0
  -21.4200  -29.3043   22.3703 N   0  0  0  0  0  0
  -26.4302  -37.3778   23.9394 N   0  0  0  0  0  0
  -24.6849  -31.0684   22.0998 N   0  0  0  0  0  0
  -23.4237  -28.8180   23.3021 O   0  0  0  0  0  0
  -28.3333  -26.5180   20.0646 O   0  0  0  0  0  0
  -26.5617  -34.8918   22.4659 O   0  0  0  0  0  0
  -23.5441  -32.1400   23.7452 O   0  0  0  0  0  0
  -30.1584  -19.8339   21.5343 C   0  0  0  0  0  0
  -29.7862  -17.9568   20.0288 C   0  0  0  0  0  0
  -30.2267  -17.5409   22.3889 C   0  0  0  0  0  0
  -29.8641  -19.3823   20.2368 C   0  0  0  0  0  0
  -30.2960  -18.9364   22.6083 C   0  0  0  0  0  0
  -30.0016  -17.0214   21.0926 C   0  0  0  0  0  0
  -29.6985  -20.3756   19.1246 C   0  0  0  0  0  0
  -29.6126  -22.5504   24.8913 C   0  0  0  0  0  0
  -28.9029  -23.9897   18.4297 C   0  0  0  0  0  0
  -29.2143  -22.5562   17.9646 C   0  0  0  0  0  0
  -28.9907  -22.6032   20.3436 C   0  0  0  0  0  0
  -28.1868  -23.8365   19.7720 C   0  0  2  0  0  0
  -29.7977  -23.7830   25.7717 C   0  0  0  0  0  0
  -26.7250  -23.3532   19.5592 C   0  0  0  0  0  0
  -27.7048  -21.4518   26.0862 C   0  0  0  0  0  0
  -30.0743  -20.8690   26.7375 C   0  0  0  0  0  0
  -30.4505  -19.5233   24.0004 C   0  0  0  0  0  0
  -28.2348  -25.1709   20.6565 C   0  0  0  0  0  0
  -29.0969  -20.0469   24.5465 C   0  0  0  0  0  0
  -29.1417  -21.2304   25.5600 C   0  0  0  0  0  0
  -29.3078  -21.7059   19.1828 N   0  0  0  0  0  0
  -29.7897  -15.5960   20.9551 N   0  0  0  0  0  0
  -30.0000  -19.9123   17.9123 N   0  3  0  0  0  0
  -29.8064  -22.6387   23.6762 O   0  0  0  0  0  0
  -31.4820  -12.5326   19.1166 H   0  0  0  0  0  0
  -30.4026  -11.3737   19.8396 H   0  0  0  0  0  0
  -29.7638  -11.8011   17.4418 H   0  0  0  0  0  0
  -29.6463  -13.5125   17.7610 H   0  0  0  0  0  0
  -27.8445  -11.3090   18.8287 H   0  0  0  0  0  0
  -27.3758  -12.6327   17.7909 H   0  0  0  0  0  0
  -27.6911  -14.2521   19.5574 H   0  0  0  0  0  0
  -28.7126  -11.9840   21.3477 H   0  0  0  0  0  0
  -28.4562  -13.6157   21.8735 H   0  0  0  0  0  0
  -25.2775   -9.5690   22.4747 H   0  0  0  0  0  0
  -24.0049   -7.4633   22.7454 H   0  0  0  0  0  0
  -21.0853   -8.8756   19.8928 H   0  0  0  0  0  0
  -22.3701  -10.9684   19.6171 H   0  0  0  0  0  0
  -21.1985   -7.6159   23.9718 H   0  0  0  0  0  0
  -21.1471   -6.0539   25.9087 H   0  0  0  0  0  0
  -22.0606   -2.7628   23.2844 H   0  0  0  0  0  0
  -22.4143  -11.9854   22.4757 H   0  0  0  0  0  0
  -21.1129  -13.1211   22.2639 H   0  0  0  0  0  0
  -24.6709  -15.8459   20.5152 H   0  0  0  0  0  0
  -26.2858  -15.6215   20.0718 H   0  0  0  0  0  0
  -26.7174  -32.5481   23.1115 H   0  0  0  0  0  0
  -25.0116  -33.9721   25.0451 H   0  0  0  0  0  0
  -22.7115  -31.3120   21.4087 H   0  0  0  0  0  0
  -23.3782  -35.9602   23.3317 H   0  0  0  0  0  0
  -24.3563  -36.8901   22.2041 H   0  0  0  0  0  0
  -23.7259  -37.6491   23.6646 H   0  0  0  0  0  0
  -26.0792  -31.5662   20.6049 H   0  0  0  0  0  0
  -26.8381  -30.8513   21.9973 H   0  0  0  0  0  0
  -28.1297  -29.0208   21.1318 H   0  0  0  0  0  0
  -25.9851  -25.9348   19.0341 H   0  0  0  0  0  0
  -23.9439  -27.2936   19.0723 H   0  0  0  0  0  0
  -23.7469  -30.5969   19.4062 H   0  0  0  0  0  0
  -22.7476  -29.2543   19.8611 H   0  0  0  0  0  0
  -25.1301  -36.1919   25.0825 H   0  0  0  0  0  0
  -20.9979  -28.3226   24.1411 H   0  0  0  0  0  0
  -20.5681  -26.2281   23.3624 H   0  0  0  0  0  0
  -21.6633  -26.7428   22.1223 H   0  0  0  0  0  0
  -19.6896  -25.6305   21.1258 H   0  0  0  0  0  0
  -19.6687  -27.3195   20.6757 H   0  0  0  0  0  0
  -17.4198  -26.6703   21.4030 H   0  0  0  0  0  0
  -18.0312  -26.0064   22.9016 H   0  0  0  0  0  0
  -19.7920  -30.7302   24.2291 H   0  0  0  0  0  0
  -17.4987  -31.6278   24.5159 H   0  0  0  0  0  0
  -15.5348  -30.2987   23.7669 H   0  0  0  0  0  0
  -15.8664  -28.0849   22.7053 H   0  0  0  0  0  0
  -24.6004  -30.6922   25.7754 H   0  0  0  0  0  0
  -24.8807  -32.2828   26.4780 H   0  0  0  0  0  0
  -25.8040  -30.8938   27.0275 H   0  0  0  0  0  0
  -26.2897  -29.6728   24.1241 H   0  0  0  0  0  0
  -27.4076  -29.7262   25.4673 H   0  0  0  0  0  0
  -27.8734  -30.4270   23.9348 H   0  0  0  0  0  0
  -27.2707  -33.3664   26.1978 H   0  0  0  0  0  0
  -28.3917  -32.6766   25.0328 H   0  0  0  0  0  0
  -28.0678  -31.8478   26.5496 H   0  0  0  0  0  0
  -28.2596  -38.0093   24.7516 H   0  0  0  0  0  0
  -28.1082  -36.2625   24.6304 H   0  0  0  0  0  0
  -27.2277  -37.1468   25.8861 H   0  0  0  0  0  0
  -20.9412  -29.8786   21.6903 H   0  0  0  0  0  0
  -26.0192  -38.2852   24.1411 H   0  0  0  0  0  0
  -30.2506  -20.8877   21.7396 H   0  0  0  0  0  0
  -29.5444  -17.5663   19.0502 H   0  0  0  0  0  0
  -30.3083  -16.8691   23.2314 H   0  0  0  0  0  0
  -28.2892  -24.5273   17.7061 H   0  0  0  0  0  0
  -29.8293  -24.5528   18.5509 H   0  0  0  0  0  0
  -30.1341  -22.5510   17.3774 H   0  0  0  0  0  0
  -28.4101  -22.1833   17.3269 H   0  0  0  0  0  0
  -28.4188  -22.0850   21.1153 H   0  0  0  0  0  0
  -29.9300  -22.9381   20.7897 H   0  0  0  0  0  0
  -29.1725  -24.6027   25.4167 H   0  0  0  0  0  0
  -30.8388  -24.1046   25.7481 H   0  0  0  0  0  0
  -29.5278  -23.5774   26.8051 H   0  0  0  0  0  0
  -26.6813  -22.3017   19.2745 H   0  0  0  0  0  0
  -26.2046  -23.8863   18.7681 H   0  0  0  0  0  0
  -26.1367  -23.4406   20.4734 H   0  0  0  0  0  0
  -27.6592  -22.2055   26.8742 H   0  0  0  0  0  0
  -27.2868  -20.5361   26.5050 H   0  0  0  0  0  0
  -27.0330  -21.7794   25.2914 H   0  0  0  0  0  0
  -30.0262  -21.6010   27.5450 H   0  0  0  0  0  0
  -31.1178  -20.8041   26.4230 H   0  0  0  0  0  0
  -29.8047  -19.9058   27.1717 H   0  0  0  0  0  0
  -31.1885  -20.3231   23.9367 H   0  0  0  0  0  0
  -30.8718  -18.7849   24.6834 H   0  0  0  0  0  0
  -29.1184  -25.1013   21.2918 H   0  0  0  0  0  0
  -27.4052  -25.1543   21.3634 H   0  0  0  0  0  0
  -28.5686  -19.1990   24.9834 H   0  0  0  0  0  0
  -28.4688  -20.3593   23.7120 H   0  0  0  0  0  0
  -28.9058  -15.2607   21.3096 H   0  0  0  0  0  0
  -30.3656  -18.9761   17.8287 H   0  0  0  0  0  0
  -29.9417  -20.4777   17.0846 H   0  0  0  0  0  0
  1 25  1  0  0  0
  1 30  2  0  0  0
  1 92  1  0  0  0
  2  3  1  0  0  0
  2 25  1  0  0  0
  2 95  1  0  0  0
  2 96  1  0  0  0
  3  4  1  0  0  0
  3 97  1  0  0  0
  3 98  1  0  0  0
  4  5  1  0  0  0
  4 99  1  0  0  0
  4100  1  0  0  0
  5  6  1  0  0  0
  5 26  1  0  0  0
  5101  1  0  0  0
  6 25  1  0  0  0
  6102  1  0  0  0
  6103  1  0  0  0
  7  8  2  0  0  0
  7 26  1  0  0  0
  7 29  1  0  0  0
  8  9  1  0  0  0
  8 22  1  0  0  0
  9 10  1  0  0  0
  9 27  2  0  0  0
 10 11  2  0  0  0
 10 15  1  0  0  0
 11 12  1  0  0  0
 11104  1  0  0  0
 12 13  2  0  0  0
 12105  1  0  0  0
 13 14  1  0  0  0
 13 31  1  0  0  0
 14 15  2  0  0  0
 14106  1  0  0  0
 15107  1  0  0  0
 16 17  2  0  0  0
 16 21  1  0  0  0
 16 31  1  0  0  0
 17 18  1  0  0  0
 17108  1  0  0  0
 18 19  2  0  0  0
 18109  1  0  0  0
 19 20  1  0  0  0
 19 24  1  0  0  0
 20 21  2  0  0  0
 20110  1  0  0  0
 21 23  1  0  0  0
 22 28  1  0  0  0
 22 32  2  0  0  0
 26 27  1  0  0  0
 28111  1  0  0  0
 28112  1  0  0  0
 29113  1  0  0  0
 29114  1  0  0  0
 33 34  1  0  0  0
 33 66  1  0  0  0
 33 70  2  0  0  0
 34 36  1  0  0  0
 34 59  1  0  0  0
 34115  1  0  0  0
 35 44  2  0  0  0
 35 45  1  0  0  0
 35 68  1  0  0  0
 36 56  1  0  0  0
 36116  1  0  0  0
 37 39  1  0  0  0
 37 47  1  0  0  0
 37 66  1  0  0  0
 37117  1  0  0  0
 38 43  2  0  0  0
 38 46  1  0  0  0
 38 47  1  0  0  0
 39 64  1  0  0  0
 39 67  2  0  0  0
 40 52  1  0  0  0
 40 53  2  0  0  0
 40 58  1  0  0  0
 41118  1  0  0  0
 41119  1  0  0  0
 41120  1  0  0  0
 41 48  1  0  0  0
 42 43  1  0  0  0
 42 66  1  0  0  0
 42121  1  0  0  0
 42122  1  0  0  0
 43 44  1  0  0  0
 44123  1  0  0  0
 45 46  2  0  0  0
 45124  1  0  0  0
 46125  1  0  0  0
 47126  1  0  0  0
 47127  1  0  0  0
 48 56  1  0  0  0
 48 65  1  0  0  0
 48128  1  0  0  0
 49 50  1  0  0  0
 49 53  1  0  0  0
 49 64  1  0  0  0
 49129  1  0  0  0
 50 51  1  0  0  0
 50130  1  0  0  0
 50131  1  0  0  0
 51 52  1  0  0  0
 51132  1  0  0  0
 51133  1  0  0  0
 52134  1  0  0  0
 52135  1  0  0  0
 53 54  1  0  0  0
 54 55  2  0  0  0
 54136  1  0  0  0
 55 57  1  0  0  0
 55137  1  0  0  0
 56 69  2  0  0  0
 57 58  2  0  0  0
 57138  1  0  0  0
 58139  1  0  0  0
 59 60  1  0  0  0
 59 61  1  0  0  0
 59 62  1  0  0  0
 60140  1  0  0  0
 60141  1  0  0  0
 60142  1  0  0  0
 61143  1  0  0  0
 61144  1  0  0  0
 61145  1  0  0  0
 62146  1  0  0  0
 62147  1  0  0  0
 62148  1  0  0  0
 63 65  1  0  0  0
 63149  1  0  0  0
 63150  1  0  0  0
 63151  1  0  0  0
 64152  1  0  0  0
 65153  1  0  0  0
 68 88  1  0  0  0
 71 74  2  0  0  0
 71 75  1  0  0  0
 71154  1  0  0  0
 72 74  1  0  0  0
 72 76  2  0  0  0
 72155  1  0  0  0
 73 75  2  0  0  0
 73 76  1  0  0  0
 73156  1  0  0  0
 74 77  1  0  0  0
 75 87  1  0  0  0
 76 92  1  0  0  0
 77 91  1  0  0  0
 77 93  2  0  0  0
 78 83  1  0  0  0
 78 90  1  0  0  0
 78 94  2  0  0  0
 79 80  1  0  0  0
 79 82  1  0  0  0
 79157  1  0  0  0
 79158  1  0  0  0
 80 91  1  0  0  0
 80159  1  0  0  0
 80160  1  0  0  0
 81 82  1  0  0  0
 81 91  1  0  0  0
 81161  1  0  0  0
 81162  1  0  0  0
 82 84  1  0  0  0
 82 88  1  0  0  0
 83163  1  0  0  0
 83164  1  0  0  0
 83165  1  0  0  0
 84166  1  0  0  0
 84167  1  0  0  0
 84168  1  0  0  0
 85169  1  0  0  0
 85170  1  0  0  0
 85171  1  0  0  0
 85 90  1  0  0  0
 86 90  1  0  0  0
 86172  1  0  0  0
 86173  1  0  0  0
 86174  1  0  0  0
 87 89  1  0  0  0
 87175  1  0  0  0
 87176  1  0  0  0
 88177  1  0  0  0
 88178  1  0  0  0
 89 90  1  0  0  0
 89179  1  0  0  0
 89180  1  0  0  0
 92181  1  0  0  0
 93182  1  0  0  0
 93183  1  0  0  0
M  CHG  1  93   1
M  ISO  4   1 100  68 101  88 101  92 100
M  END
> <chiral flag>
0

> <version>
0

> <s_m_source_file>
/data/baiqing/PycharmProjects/Reinvent-master-3.2/result/LINK_invent/BTK/process_docking_weight1_custom_product_contain_oxygen_bond_distance_aromatic_linkinvent_7_9_3/rearranged_h_0146.sdf

> <i_m_source_file_index>
17

> <r_mmod_Potential_Energy-OPLS-2005>
-26.0722274780273

> <r_mmod_Stretch_Energy-OPLS-2005>
74.8565292358398

> <r_mmod_Bend_Energy-OPLS-2005>
183.858764648438

> <r_mmod_Torsional_Energy-OPLS-2005>
350.745941162109

> <r_mmod_Improper_Torsional_Energy-OPLS-2005>
5.60091495513916

> <r_mmod_Van_der_Waal_Energy-OPLS-2005>
150.595840454102

> <r_mmod_Electrostatic_Energy-OPLS-2005>
-443.754150390625

> <r_mmod_Solvation_Energy-OPLS-2005>
-383.684295654297

> <b_mmod_Minimization_Converged-OPLS-2005>
0

> <r_mmod_RMS_Derivative-OPLS-2005>
3.55719423294067

$$$$
17
                    3D
 Structure written by MMmdl.
166174  0  0  1  0            999 V2000
  -30.7260  -14.4577   20.5440 C   0  0  0  0  0  0
  -30.4124  -12.2869   19.4362 C   0  0  0  0  0  0
  -29.4949  -12.4916   18.2140 C   0  0  0  0  0  0
  -28.0157  -12.3613   18.6242 C   0  0  0  0  0  0
  -27.6599  -13.2117   19.8733 C   0  0  2  0  0  0
  -28.7006  -13.0161   20.9996 C   0  0  0  0  0  0
  -25.2581  -13.8183   20.5687 C   0  0  0  0  0  0
  -24.1839  -13.0443   20.9179 C   0  0  0  0  0  0
  -24.6403  -11.6918   20.8741 C   0  0  0  0  0  0
  -23.9073  -10.4298   21.0405 C   0  0  0  0  0  0
  -24.3620   -9.4214   21.9187 C   0  0  0  0  0  0
  -23.6295   -8.2251   22.0758 C   0  0  0  0  0  0
  -22.4279   -8.0287   21.3546 C   0  0  0  0  0  0
  -21.9917   -9.0256   20.4644 C   0  0  0  0  0  0
  -22.7245  -10.2136   20.3054 C   0  0  0  0  0  0
  -21.6853   -6.0742   22.5277 C   0  0  0  0  0  0
  -21.4010   -6.5644   23.8209 C   0  0  0  0  0  0
  -21.3658   -5.6796   24.9170 C   0  0  0  0  0  0
  -21.6048   -4.3059   24.7219 C   0  0  0  0  0  0
  -21.8823   -3.8152   23.4341 C   0  0  0  0  0  0
  -21.9192   -4.6970   22.3399 C   0  0  0  0  0  0
  -22.7862  -13.5233   21.1844 C   0  0  0  0  0  0
  -22.1661   -4.2158   21.0976 F   0  0  0  0  0  0
  -21.5632   -3.4545   25.7732 F   0  0  0  0  0  0
  -30.0351  -13.2912   20.4434 N   0  0  0  0  0  0
  -26.3023  -12.9360   20.3368 N   0  0  0  0  0  0
  -25.9329  -11.6512   20.5773 N   0  0  0  0  0  0
  -22.0509  -12.8220   22.0397 N   0  0  0  0  0  0
  -25.4309  -15.1902   20.4100 N   0  0  0  0  0  0
  -31.8805  -14.5684   20.1258 O   0  0  0  0  0  0
  -21.6644   -6.8882   21.4240 O   0  0  0  0  0  0
  -22.3536  -14.5538   20.6695 O   0  0  0  0  0  0
  -24.6113  -31.8673   23.2109 C   0  0  0  0  0  0
  -25.9025  -32.4817   23.8386 C   0  0  1  0  0  0
  -27.2385  -27.4615   20.0993 C   0  0  0  0  0  0
  -25.5900  -33.8610   24.2332 N   0  0  0  0  0  0
  -23.3979  -30.4890   21.5491 C   0  0  2  0  0  0
  -24.8481  -28.9546   20.1175 C   0  0  0  0  0  0
  -22.7382  -29.4650   22.5003 C   0  0  0  0  0  0
  -18.0259  -28.1364   22.8507 C   0  0  0  0  0  0
  -24.1483  -36.7308   23.2642 C   0  0  0  0  0  0
  -25.9202  -30.8450   21.3559 C   0  0  0  0  0  0
  -26.0031  -29.4764   20.7144 C   0  0  0  0  0  0
  -27.2030  -28.7332   20.7106 C   0  0  0  0  0  0
  -26.0752  -26.9463   19.4954 C   0  0  0  0  0  0
  -24.8763  -27.6863   19.5086 C   0  0  0  0  0  0
  -23.6058  -29.8160   20.1651 C   0  0  0  0  0  0
  -25.4108  -36.3106   24.0341 C   0  0  1  0  0  0
  -20.5847  -28.3641   23.1331 C   0  0  2  0  0  0
  -20.6751  -26.9381   22.5415 C   0  0  0  0  0  0
  -19.5729  -26.6372   21.5210 C   0  0  0  0  0  0
  -18.1903  -26.7912   22.1619 C   0  0  0  0  0  0
  -19.1510  -28.8819   23.2910 C   0  0  0  0  0  0
  -18.9451  -30.1428   23.8917 C   0  0  0  0  0  0
  -17.6461  -30.6582   24.0562 C   0  0  0  0  0  0
  -25.9037  -34.9471   23.5137 C   0  0  0  0  0  0
  -16.5349  -29.9087   23.6336 C   0  0  0  0  0  0
  -16.7255  -28.6496   23.0373 C   0  0  0  0  0  0
  -26.4469  -31.6581   25.0697 C   0  0  0  0  0  0
  -25.3749  -31.3651   26.1451 C   0  0  0  0  0  0
  -27.0297  -30.3049   24.6006 C   0  0  0  0  0  0
  -27.6042  -32.4280   25.7471 C   0  0  0  0  0  0
  -27.5576  -37.1800   24.8472 C   0  0  0  0  0  0
  -21.4116  -29.3015   22.3746 N   0  0  0  0  0  0
  -26.4293  -37.3792   23.9421 N   0  0  0  0  0  0
  -24.6614  -31.0807   22.0989 N   0  0  0  0  0  0
  -23.4157  -28.8200   23.3050 O   0  0  0  0  0  0
  -28.3934  -26.7238   20.0726 O   0  0  0  0  0  0
  -26.5587  -34.8919   22.4688 O   0  0  0  0  0  0
  -23.5320  -32.1396   23.7538 O   0  0  0  0  0  0
  -30.7296  -19.7044   20.4184 C   0  0  0  0  0  0
  -29.5703  -17.8724   21.5473 C   0  0  0  0  0  0
  -31.2272  -17.3965   19.8276 C   0  0  0  0  0  0
  -29.7822  -19.2616   21.3607 C   0  0  0  0  0  0
  -31.4472  -18.7761   19.6475 C   0  0  0  0  0  0
  -30.2993  -16.9183   20.7935 C   0  0  0  0  0  0
  -28.4617  -24.4500   20.9828 C   0  0  0  0  0  0
  -26.7898  -21.8462   23.4123 C   0  0  0  0  0  0
  -26.0011  -22.6452   21.2060 C   0  0  0  0  0  0
  -29.0146  -20.3035   22.1643 C   0  0  0  0  0  0
  -28.1820  -23.5443   22.2009 C   0  0  0  0  0  0
  -28.6050  -25.9564   21.2627 C   0  0  0  0  0  0
  -27.9961  -21.0969   21.3082 C   0  0  0  0  0  0
  -27.2707  -22.2866   22.0130 C   0  0  0  0  0  0
  -32.3715  -19.2265   18.7053 N   0  0  0  0  0  0
  -30.0319  -15.5201   21.0040 N   0  0  0  0  0  0
  -28.6016  -23.9945   19.8428 O   0  0  0  0  0  0
  -31.4606  -12.3557   19.1399 H   0  0  0  0  0  0
  -30.2885  -11.2839   19.8465 H   0  0  0  0  0  0
  -29.7306  -11.7612   17.4390 H   0  0  0  0  0  0
  -29.6707  -13.4750   17.7744 H   0  0  0  0  0  0
  -27.8249  -11.3072   18.8274 H   0  0  0  0  0  0
  -27.3676  -12.6310   17.7890 H   0  0  0  0  0  0
  -27.6985  -14.2558   19.5631 H   0  0  0  0  0  0
  -28.6673  -11.9935   21.3776 H   0  0  0  0  0  0
  -28.4731  -13.6528   21.8559 H   0  0  0  0  0  0
  -25.2752   -9.5697   22.4768 H   0  0  0  0  0  0
  -24.0000   -7.4647   22.7485 H   0  0  0  0  0  0
  -21.0847   -8.8774   19.8947 H   0  0  0  0  0  0
  -22.3702  -10.9678   19.6170 H   0  0  0  0  0  0
  -21.2002   -7.6147   23.9709 H   0  0  0  0  0  0
  -21.1479   -6.0528   25.9066 H   0  0  0  0  0  0
  -22.0607   -2.7619   23.2840 H   0  0  0  0  0  0
  -22.4121  -11.9869   22.4767 H   0  0  0  0  0  0
  -21.1129  -13.1247   22.2616 H   0  0  0  0  0  0
  -24.6666  -15.8484   20.5163 H   0  0  0  0  0  0
  -26.2869  -15.6276   20.0920 H   0  0  0  0  0  0
  -26.7111  -32.5566   23.1168 H   0  0  0  0  0  0
  -25.0092  -33.9760   25.0507 H   0  0  0  0  0  0
  -22.6857  -31.3047   21.4082 H   0  0  0  0  0  0
  -23.3748  -35.9635   23.3289 H   0  0  0  0  0  0
  -24.3600  -36.8936   22.2061 H   0  0  0  0  0  0
  -23.7207  -37.6499   23.6669 H   0  0  0  0  0  0
  -26.0140  -31.6065   20.5804 H   0  0  0  0  0  0
  -26.8135  -30.9128   21.9645 H   0  0  0  0  0  0
  -28.0974  -29.1334   21.1675 H   0  0  0  0  0  0
  -26.0983  -25.9750   19.0211 H   0  0  0  0  0  0
  -23.9880  -27.2778   19.0475 H   0  0  0  0  0  0
  -23.7062  -30.5857   19.3990 H   0  0  0  0  0  0
  -22.7344  -29.2263   19.8758 H   0  0  0  0  0  0
  -25.1275  -36.1971   25.0835 H   0  0  0  0  0  0
  -20.9926  -28.3200   24.1456 H   0  0  0  0  0  0
  -20.5665  -26.2246   23.3599 H   0  0  0  0  0  0
  -21.6621  -26.7428   22.1199 H   0  0  0  0  0  0
  -19.6887  -25.6283   21.1239 H   0  0  0  0  0  0
  -19.6678  -27.3190   20.6749 H   0  0  0  0  0  0
  -17.4171  -26.6686   21.4012 H   0  0  0  0  0  0
  -18.0288  -26.0029   22.8984 H   0  0  0  0  0  0
  -19.7936  -30.7231   24.2299 H   0  0  0  0  0  0
  -17.5026  -31.6274   24.5131 H   0  0  0  0  0  0
  -15.5360  -30.3004   23.7657 H   0  0  0  0  0  0
  -15.8645  -28.0826   22.7101 H   0  0  0  0  0  0
  -24.5956  -30.6963   25.7786 H   0  0  0  0  0  0
  -24.8912  -32.2790   26.4906 H   0  0  0  0  0  0
  -25.8118  -30.8825   27.0199 H   0  0  0  0  0  0
  -26.2796  -29.6804   24.1142 H   0  0  0  0  0  0
  -27.4200  -29.7292   25.4406 H   0  0  0  0  0  0
  -27.8568  -30.4418   23.9037 H   0  0  0  0  0  0
  -27.2667  -33.3580   26.2052 H   0  0  0  0  0  0
  -28.3864  -32.6811   25.0304 H   0  0  0  0  0  0
  -28.0683  -31.8384   26.5388 H   0  0  0  0  0  0
  -28.2582  -38.0108   24.7550 H   0  0  0  0  0  0
  -28.1074  -36.2637   24.6264 H   0  0  0  0  0  0
  -27.2296  -37.1416   25.8874 H   0  0  0  0  0  0
  -20.9269  -29.8743   21.6984 H   0  0  0  0  0  0
  -26.0178  -38.2864   24.1442 H   0  0  0  0  0  0
  -30.8931  -20.7655   20.2853 H   0  0  0  0  0  0
  -28.8453  -17.5413   22.2782 H   0  0  0  0  0  0
  -31.7819  -16.7204   19.1979 H   0  0  0  0  0  0
  -26.1472  -22.5990   23.8697 H   0  0  0  0  0  0
  -27.6219  -21.6869   24.0987 H   0  0  0  0  0  0
  -26.2186  -20.9186   23.3650 H   0  0  0  0  0  0
  -25.5009  -23.5253   21.6131 H   0  0  0  0  0  0
  -25.2780  -21.8292   21.2162 H   0  0  0  0  0  0
  -26.2252  -22.8506   20.1584 H   0  0  0  0  0  0
  -29.7378  -20.9851   22.6137 H   0  0  0  0  0  0
  -28.5112  -19.8045   22.9925 H   0  0  0  0  0  0
  -27.7285  -24.1864   22.9565 H   0  0  0  0  0  0
  -29.1429  -23.2443   22.6184 H   0  0  0  0  0  0
  -29.6124  -26.1512   21.6303 H   0  0  0  0  0  0
  -27.9155  -26.2498   22.0557 H   0  0  0  0  0  0
  -27.2526  -20.3854   20.9460 H   0  0  0  0  0  0
  -28.4917  -21.4649   20.4106 H   0  0  0  0  0  0
  -32.3483  -20.1981   18.4095 H   0  0  0  0  0  0
  -32.6995  -18.5945   17.9811 H   0  0  0  0  0  0
  -29.1506  -15.2971   21.4408 H   0  0  0  0  0  0
  1 25  1  0  0  0
  1 30  2  0  0  0
  1 86  1  0  0  0
  2  3  1  0  0  0
  2 25  1  0  0  0
  2 88  1  0  0  0
  2 89  1  0  0  0
  3  4  1  0  0  0
  3 90  1  0  0  0
  3 91  1  0  0  0
  4  5  1  0  0  0
  4 92  1  0  0  0
  4 93  1  0  0  0
  5  6  1  0  0  0
  5 26  1  0  0  0
  5 94  1  0  0  0
  6 25  1  0  0  0
  6 95  1  0  0  0
  6 96  1  0  0  0
  7  8  2  0  0  0
  7 26  1  0  0  0
  7 29  1  0  0  0
  8  9  1  0  0  0
  8 22  1  0  0  0
  9 10  1  0  0  0
  9 27  2  0  0  0
 10 11  2  0  0  0
 10 15  1  0  0  0
 11 12  1  0  0  0
 11 97  1  0  0  0
 12 13  2  0  0  0
 12 98  1  0  0  0
 13 14  1  0  0  0
 13 31  1  0  0  0
 14 15  2  0  0  0
 14 99  1  0  0  0
 15100  1  0  0  0
 16 17  2  0  0  0
 16 21  1  0  0  0
 16 31  1  0  0  0
 17 18  1  0  0  0
 17101  1  0  0  0
 18 19  2  0  0  0
 18102  1  0  0  0
 19 20  1  0  0  0
 19 24  1  0  0  0
 20 21  2  0  0  0
 20103  1  0  0  0
 21 23  1  0  0  0
 22 28  1  0  0  0
 22 32  2  0  0  0
 26 27  1  0  0  0
 28104  1  0  0  0
 28105  1  0  0  0
 29106  1  0  0  0
 29107  1  0  0  0
 33 34  1  0  0  0
 33 66  1  0  0  0
 33 70  2  0  0  0
 34 36  1  0  0  0
 34 59  1  0  0  0
 34108  1  0  0  0
 35 44  2  0  0  0
 35 45  1  0  0  0
 35 68  1  0  0  0
 36 56  1  0  0  0
 36109  1  0  0  0
 37 39  1  0  0  0
 37 47  1  0  0  0
 37 66  1  0  0  0
 37110  1  0  0  0
 38 43  2  0  0  0
 38 46  1  0  0  0
 38 47  1  0  0  0
 39 64  1  0  0  0
 39 67  2  0  0  0
 40 52  1  0  0  0
 40 53  2  0  0  0
 40 58  1  0  0  0
 41111  1  0  0  0
 41112  1  0  0  0
 41113  1  0  0  0
 41 48  1  0  0  0
 42 43  1  0  0  0
 42 66  1  0  0  0
 42114  1  0  0  0
 42115  1  0  0  0
 43 44  1  0  0  0
 44116  1  0  0  0
 45 46  2  0  0  0
 45117  1  0  0  0
 46118  1  0  0  0
 47119  1  0  0  0
 47120  1  0  0  0
 48 56  1  0  0  0
 48 65  1  0  0  0
 48121  1  0  0  0
 49 50  1  0  0  0
 49 53  1  0  0  0
 49 64  1  0  0  0
 49122  1  0  0  0
 50 51  1  0  0  0
 50123  1  0  0  0
 50124  1  0  0  0
 51 52  1  0  0  0
 51125  1  0  0  0
 51126  1  0  0  0
 52127  1  0  0  0
 52128  1  0  0  0
 53 54  1  0  0  0
 54 55  2  0  0  0
 54129  1  0  0  0
 55 57  1  0  0  0
 55130  1  0  0  0
 56 69  2  0  0  0
 57 58  2  0  0  0
 57131  1  0  0  0
 58132  1  0  0  0
 59 60  1  0  0  0
 59 61  1  0  0  0
 59 62  1  0  0  0
 60133  1  0  0  0
 60134  1  0  0  0
 60135  1  0  0  0
 61136  1  0  0  0
 61137  1  0  0  0
 61138  1  0  0  0
 62139  1  0  0  0
 62140  1  0  0  0
 62141  1  0  0  0
 63 65  1  0  0  0
 63142  1  0  0  0
 63143  1  0  0  0
 63144  1  0  0  0
 64145  1  0  0  0
 65146  1  0  0  0
 68 82  1  0  0  0
 71 74  2  0  0  0
 71 75  1  0  0  0
 71147  1  0  0  0
 72 74  1  0  0  0
 72 76  2  0  0  0
 72148  1  0  0  0
 73 75  2  0  0  0
 73 76  1  0  0  0
 73149  1  0  0  0
 74 80  1  0  0  0
 75 85  1  0  0  0
 76 86  1  0  0  0
 77 81  1  0  0  0
 77 82  1  0  0  0
 77 87  2  0  0  0
 78150  1  0  0  0
 78151  1  0  0  0
 78152  1  0  0  0
 78 84  1  0  0  0
 79 84  1  0  0  0
 79153  1  0  0  0
 79154  1  0  0  0
 79155  1  0  0  0
 80 83  1  0  0  0
 80156  1  0  0  0
 80157  1  0  0  0
 81 84  1  0  0  0
 81158  1  0  0  0
 81159  1  0  0  0
 82160  1  0  0  0
 82161  1  0  0  0
 83 84  1  0  0  0
 83162  1  0  0  0
 83163  1  0  0  0
 85164  1  0  0  0
 85165  1  0  0  0
 86166  1  0  0  0
M  ISO  4   1 100  68 101  82 101  86 100
M  END
> <chiral flag>
0

> <version>
0

> <s_m_source_file>
/data/baiqing/PycharmProjects/Reinvent-master-3.2/result/LINK_invent/BTK/process_docking_weight1_custom_product_contain_oxygen_bond_distance_aromatic_linkinvent_7_9_3/rearranged_h_0146.sdf

> <i_m_source_file_index>
18

> <r_mmod_Potential_Energy-OPLS-2005>
19.3126373291016

> <r_mmod_Stretch_Energy-OPLS-2005>
38.9085807800293

> <r_mmod_Bend_Energy-OPLS-2005>
106.219352722168

> <r_mmod_Torsional_Energy-OPLS-2005>
239.708541870117

> <r_mmod_Improper_Torsional_Energy-OPLS-2005>
5.78570127487183

> <r_mmod_Van_der_Waal_Energy-OPLS-2005>
155.052307128906

> <r_mmod_Electrostatic_Energy-OPLS-2005>
-314.203369140625

> <r_mmod_Solvation_Energy-OPLS-2005>
-225.121719360352

> <b_mmod_Minimization_Converged-OPLS-2005>
0

> <r_mmod_RMS_Derivative-OPLS-2005>
1.54100203514099

$$$$
18
                    3D
 Structure written by MMmdl.
163172  0  0  1  0            999 V2000
  -30.6175  -14.7652   20.4374 C   0  0  0  0  0  0
  -30.4260  -12.4661   19.4771 C   0  0  0  0  0  0
  -29.5069  -12.5029   18.2365 C   0  0  0  0  0  0
  -28.0341  -12.3293   18.6521 C   0  0  0  0  0  0
  -27.6378  -13.2370   19.8474 C   0  0  2  0  0  0
  -28.6825  -13.1899   20.9830 C   0  0  0  0  0  0
  -25.2495  -13.8208   20.5708 C   0  0  0  0  0  0
  -24.1798  -13.0447   20.9227 C   0  0  0  0  0  0
  -24.6399  -11.6929   20.8758 C   0  0  0  0  0  0
  -23.9085  -10.4300   21.0412 C   0  0  0  0  0  0
  -24.3631   -9.4206   21.9185 C   0  0  0  0  0  0
  -23.6298   -8.2246   22.0755 C   0  0  0  0  0  0
  -22.4280   -8.0291   21.3545 C   0  0  0  0  0  0
  -21.9925   -9.0266   20.4642 C   0  0  0  0  0  0
  -22.7263  -10.2139   20.3054 C   0  0  0  0  0  0
  -21.6851   -6.0740   22.5275 C   0  0  0  0  0  0
  -21.4016   -6.5640   23.8210 C   0  0  0  0  0  0
  -21.3660   -5.6788   24.9169 C   0  0  0  0  0  0
  -21.6045   -4.3054   24.7218 C   0  0  0  0  0  0
  -21.8820   -3.8148   23.4337 C   0  0  0  0  0  0
  -21.9196   -4.6966   22.3395 C   0  0  0  0  0  0
  -22.7814  -13.5217   21.1874 C   0  0  0  0  0  0
  -22.1661   -4.2153   21.0970 F   0  0  0  0  0  0
  -21.5630   -3.4538   25.7733 F   0  0  0  0  0  0
  -29.9803  -13.5429   20.3956 N   0  0  0  0  0  0
  -26.2919  -12.9423   20.3268 N   0  0  0  0  0  0
  -25.9330  -11.6559   20.5755 N   0  0  0  0  0  0
  -22.0465  -12.8201   22.0421 N   0  0  0  0  0  0
  -25.4172  -15.1939   20.4137 N   0  0  0  0  0  0
  -31.8190  -14.8055   20.1604 O   0  0  0  0  0  0
  -21.6640   -6.8889   21.4239 O   0  0  0  0  0  0
  -22.3501  -14.5523   20.6725 O   0  0  0  0  0  0
  -24.6314  -31.8563   23.2029 C   0  0  0  0  0  0
  -25.9147  -32.4760   23.8362 C   0  0  1  0  0  0
  -27.2019  -27.2365   20.1455 C   0  0  0  0  0  0
  -25.5964  -33.8565   24.2272 N   0  0  0  0  0  0
  -23.4290  -30.4775   21.5465 C   0  0  2  0  0  0
  -24.8749  -28.9206   20.1232 C   0  0  0  0  0  0
  -22.7497  -29.4593   22.4945 C   0  0  0  0  0  0
  -18.0278  -28.1375   22.8475 C   0  0  0  0  0  0
  -24.1486  -36.7282   23.2642 C   0  0  0  0  0  0
  -25.9772  -30.7540   21.3968 C   0  0  0  0  0  0
  -26.0450  -29.3708   20.7497 C   0  0  0  0  0  0
  -27.2116  -28.5357   20.7612 C   0  0  0  0  0  0
  -26.0351  -26.8947   19.4376 C   0  0  0  0  0  0
  -24.8735  -27.6877   19.4577 C   0  0  0  0  0  0
  -23.6503  -29.8131   20.1633 C   0  0  0  0  0  0
  -25.4116  -36.3074   24.0321 C   0  0  1  0  0  0
  -20.5885  -28.3688   23.1271 C   0  0  2  0  0  0
  -20.6767  -26.9407   22.5416 C   0  0  0  0  0  0
  -19.5755  -26.6373   21.5207 C   0  0  0  0  0  0
  -18.1918  -26.7923   22.1597 C   0  0  0  0  0  0
  -19.1536  -28.8848   23.2861 C   0  0  0  0  0  0
  -18.9466  -30.1446   23.8886 C   0  0  0  0  0  0
  -17.6470  -30.6586   24.0551 C   0  0  0  0  0  0
  -25.9057  -34.9440   23.5092 C   0  0  0  0  0  0
  -16.5354  -29.9083   23.6337 C   0  0  0  0  0  0
  -16.7269  -28.6495   23.0362 C   0  0  0  0  0  0
  -26.4506  -31.6613   25.0772 C   0  0  0  0  0  0
  -25.3710  -31.3789   26.1486 C   0  0  0  0  0  0
  -27.0386  -30.3023   24.6324 C   0  0  0  0  0  0
  -27.6043  -32.4388   25.7535 C   0  0  0  0  0  0
  -27.5576  -37.1789   24.8457 C   0  0  0  0  0  0
  -21.4206  -29.3045   22.3681 N   0  0  0  0  0  0
  -26.4285  -37.3776   23.9405 N   0  0  0  0  0  0
  -24.6970  -31.0492   22.1033 N   0  0  0  0  0  0
  -23.4183  -28.8118   23.3043 O   0  0  0  0  0  0
  -28.2980  -26.3515   20.0551 O   0  0  0  0  0  0
  -26.5613  -34.8913   22.4650 O   0  0  0  0  0  0
  -23.5466  -32.1418   23.7303 O   0  0  0  0  0  0
  -31.7091  -18.9734   19.1768 C   0  0  0  0  0  0
  -31.3164  -17.6562   19.4692 C   0  0  0  0  0  0
  -29.4312  -18.5490   20.6963 C   0  0  0  0  0  0
  -29.7960  -19.9384   20.3874 C   0  0  0  0  0  0
  -31.0104  -20.1019   19.6538 C   0  0  0  0  0  0
  -30.1952  -17.3687   20.2826 C   0  0  0  0  0  0
  -29.0327  -21.1798   20.9169 C   0  0  0  0  0  0
  -27.4665  -23.2111   18.3576 C   0  0  0  0  0  0
  -26.7102  -23.4406   19.6732 C   0  0  0  0  0  0
  -28.7538  -22.4625   18.7716 C   0  0  0  0  0  0
  -27.8306  -23.5695   20.6930 C   0  0  2  0  0  0
  -31.6762  -21.4499   19.3871 C   0  0  0  0  0  0
  -28.4592  -25.0840   20.8647 C   0  0  0  0  0  0
  -28.6954  -22.3711   20.2465 N   0  0  0  0  0  0
  -29.8688  -15.9368   20.6040 N   0  0  0  0  0  0
  -28.6650  -21.1158   22.1928 N   0  3  0  0  0  0
  -31.4672  -12.5824   19.1715 H   0  0  0  0  0  0
  -30.3686  -11.4961   19.9723 H   0  0  0  0  0  0
  -29.7899  -11.7176   17.5342 H   0  0  0  0  0  0
  -29.6310  -13.4478   17.7063 H   0  0  0  0  0  0
  -27.8945  -11.2825   18.9230 H   0  0  0  0  0  0
  -27.3755  -12.5133   17.8022 H   0  0  0  0  0  0
  -27.6272  -14.2546   19.4576 H   0  0  0  0  0  0
  -28.7219  -12.1982   21.4360 H   0  0  0  0  0  0
  -28.4167  -13.8828   21.7830 H   0  0  0  0  0  0
  -25.2776   -9.5675   22.4766 H   0  0  0  0  0  0
  -23.9999   -7.4636   22.7482 H   0  0  0  0  0  0
  -21.0858   -8.8799   19.8945 H   0  0  0  0  0  0
  -22.3733  -10.9685   19.6165 H   0  0  0  0  0  0
  -21.2009   -7.6151   23.9713 H   0  0  0  0  0  0
  -21.1479   -6.0520   25.9072 H   0  0  0  0  0  0
  -22.0602   -2.7612   23.2835 H   0  0  0  0  0  0
  -22.4090  -11.9856   22.4788 H   0  0  0  0  0  0
  -21.1076  -13.1200   22.2624 H   0  0  0  0  0  0
  -24.6481  -15.8449   20.5336 H   0  0  0  0  0  0
  -26.2542  -15.6346   20.0550 H   0  0  0  0  0  0
  -26.7205  -32.5391   23.1094 H   0  0  0  0  0  0
  -25.0137  -33.9715   25.0435 H   0  0  0  0  0  0
  -22.7275  -31.3005   21.3979 H   0  0  0  0  0  0
  -23.3755  -35.9606   23.3304 H   0  0  0  0  0  0
  -24.3572  -36.8922   22.2060 H   0  0  0  0  0  0
  -23.7231  -37.6472   23.6677 H   0  0  0  0  0  0
  -26.1236  -31.5112   20.6250 H   0  0  0  0  0  0
  -26.8511  -30.8022   22.0340 H   0  0  0  0  0  0
  -28.1123  -28.8758   21.2527 H   0  0  0  0  0  0
  -26.0239  -26.0234   18.8075 H   0  0  0  0  0  0
  -23.9934  -27.3602   18.9209 H   0  0  0  0  0  0
  -23.7853  -30.5898   19.4095 H   0  0  0  0  0  0
  -22.7675  -29.2507   19.8531 H   0  0  0  0  0  0
  -25.1295  -36.1922   25.0814 H   0  0  0  0  0  0
  -20.9937  -28.3266   24.1406 H   0  0  0  0  0  0
  -20.5659  -26.2301   23.3624 H   0  0  0  0  0  0
  -21.6639  -26.7430   22.1222 H   0  0  0  0  0  0
  -19.6928  -25.6277   21.1259 H   0  0  0  0  0  0
  -19.6710  -27.3165   20.6722 H   0  0  0  0  0  0
  -17.4205  -26.6689   21.3978 H   0  0  0  0  0  0
  -18.0282  -26.0050   22.8975 H   0  0  0  0  0  0
  -19.7946  -30.7239   24.2273 H   0  0  0  0  0  0
  -17.5037  -31.6271   24.5144 H   0  0  0  0  0  0
  -15.5358  -30.2982   23.7690 H   0  0  0  0  0  0
  -15.8657  -28.0815   22.7104 H   0  0  0  0  0  0
  -24.5928  -30.7080   25.7840 H   0  0  0  0  0  0
  -24.8837  -32.2960   26.4811 H   0  0  0  0  0  0
  -25.8018  -30.9074   27.0332 H   0  0  0  0  0  0
  -26.3018  -29.6740   24.1309 H   0  0  0  0  0  0
  -27.3997  -29.7333   25.4903 H   0  0  0  0  0  0
  -27.8919  -30.4285   23.9652 H   0  0  0  0  0  0
  -27.2641  -33.3716   26.2051 H   0  0  0  0  0  0
  -28.3865  -32.6926   25.0366 H   0  0  0  0  0  0
  -28.0699  -31.8571   26.5505 H   0  0  0  0  0  0
  -28.2583  -38.0095   24.7513 H   0  0  0  0  0  0
  -28.1078  -36.2625   24.6262 H   0  0  0  0  0  0
  -27.2297  -37.1422   25.8861 H   0  0  0  0  0  0
  -20.9407  -29.8798   21.6903 H   0  0  0  0  0  0
  -26.0167  -38.2846   24.1432 H   0  0  0  0  0  0
  -32.6052  -19.1129   18.5871 H   0  0  0  0  0  0
  -31.9258  -16.8736   19.0474 H   0  0  0  0  0  0
  -28.5422  -18.3910   21.2896 H   0  0  0  0  0  0
  -27.7193  -24.1618   17.8857 H   0  0  0  0  0  0
  -26.8699  -22.6389   17.6454 H   0  0  0  0  0  0
  -26.1261  -22.5504   19.9087 H   0  0  0  0  0  0
  -25.9931  -24.2480   19.6888 H   0  0  0  0  0  0
  -29.6279  -23.0309   18.4537 H   0  0  0  0  0  0
  -28.7951  -21.4789   18.3002 H   0  0  0  0  0  0
  -27.3988  -23.3273   21.6651 H   0  0  0  0  0  0
  -32.7596  -21.3521   19.4586 H   0  0  0  0  0  0
  -31.4005  -22.2257   20.1008 H   0  0  0  0  0  0
  -31.4601  -21.7984   18.3781 H   0  0  0  0  0  0
  -29.5389  -24.9364   20.8806 H   0  0  0  0  0  0
  -28.2299  -25.3849   21.8872 H   0  0  0  0  0  0
  -28.9241  -15.7725   20.9161 H   0  0  0  0  0  0
  -28.9340  -20.3108   22.7389 H   0  0  0  0  0  0
  -28.1802  -21.8660   22.6513 H   0  0  0  0  0  0
  1 25  1  0  0  0
  1 30  2  0  0  0
  1 85  1  0  0  0
  2  3  1  0  0  0
  2 25  1  0  0  0
  2 87  1  0  0  0
  2 88  1  0  0  0
  3  4  1  0  0  0
  3 89  1  0  0  0
  3 90  1  0  0  0
  4  5  1  0  0  0
  4 91  1  0  0  0
  4 92  1  0  0  0
  5  6  1  0  0  0
  5 26  1  0  0  0
  5 93  1  0  0  0
  6 25  1  0  0  0
  6 94  1  0  0  0
  6 95  1  0  0  0
  7  8  2  0  0  0
  7 26  1  0  0  0
  7 29  1  0  0  0
  8  9  1  0  0  0
  8 22  1  0  0  0
  9 10  1  0  0  0
  9 27  2  0  0  0
 10 11  2  0  0  0
 10 15  1  0  0  0
 11 12  1  0  0  0
 11 96  1  0  0  0
 12 13  2  0  0  0
 12 97  1  0  0  0
 13 14  1  0  0  0
 13 31  1  0  0  0
 14 15  2  0  0  0
 14 98  1  0  0  0
 15 99  1  0  0  0
 16 17  2  0  0  0
 16 21  1  0  0  0
 16 31  1  0  0  0
 17 18  1  0  0  0
 17100  1  0  0  0
 18 19  2  0  0  0
 18101  1  0  0  0
 19 20  1  0  0  0
 19 24  1  0  0  0
 20 21  2  0  0  0
 20102  1  0  0  0
 21 23  1  0  0  0
 22 28  1  0  0  0
 22 32  2  0  0  0
 26 27  1  0  0  0
 28103  1  0  0  0
 28104  1  0  0  0
 29105  1  0  0  0
 29106  1  0  0  0
 33 34  1  0  0  0
 33 66  1  0  0  0
 33 70  2  0  0  0
 34 36  1  0  0  0
 34 59  1  0  0  0
 34107  1  0  0  0
 35 44  2  0  0  0
 35 45  1  0  0  0
 35 68  1  0  0  0
 36 56  1  0  0  0
 36108  1  0  0  0
 37 39  1  0  0  0
 37 47  1  0  0  0
 37 66  1  0  0  0
 37109  1  0  0  0
 38 43  2  0  0  0
 38 46  1  0  0  0
 38 47  1  0  0  0
 39 64  1  0  0  0
 39 67  2  0  0  0
 40 52  1  0  0  0
 40 53  2  0  0  0
 40 58  1  0  0  0
 41110  1  0  0  0
 41111  1  0  0  0
 41112  1  0  0  0
 41 48  1  0  0  0
 42 43  1  0  0  0
 42 66  1  0  0  0
 42113  1  0  0  0
 42114  1  0  0  0
 43 44  1  0  0  0
 44115  1  0  0  0
 45 46  2  0  0  0
 45116  1  0  0  0
 46117  1  0  0  0
 47118  1  0  0  0
 47119  1  0  0  0
 48 56  1  0  0  0
 48 65  1  0  0  0
 48120  1  0  0  0
 49 50  1  0  0  0
 49 53  1  0  0  0
 49 64  1  0  0  0
 49121  1  0  0  0
 50 51  1  0  0  0
 50122  1  0  0  0
 50123  1  0  0  0
 51 52  1  0  0  0
 51124  1  0  0  0
 51125  1  0  0  0
 52126  1  0  0  0
 52127  1  0  0  0
 53 54  1  0  0  0
 54 55  2  0  0  0
 54128  1  0  0  0
 55 57  1  0  0  0
 55129  1  0  0  0
 56 69  2  0  0  0
 57 58  2  0  0  0
 57130  1  0  0  0
 58131  1  0  0  0
 59 60  1  0  0  0
 59 61  1  0  0  0
 59 62  1  0  0  0
 60132  1  0  0  0
 60133  1  0  0  0
 60134  1  0  0  0
 61135  1  0  0  0
 61136  1  0  0  0
 61137  1  0  0  0
 62138  1  0  0  0
 62139  1  0  0  0
 62140  1  0  0  0
 63 65  1  0  0  0
 63141  1  0  0  0
 63142  1  0  0  0
 63143  1  0  0  0
 64144  1  0  0  0
 65145  1  0  0  0
 68 83  1  0  0  0
 71 72  2  0  0  0
 71 75  1  0  0  0
 71146  1  0  0  0
 72 76  1  0  0  0
 72147  1  0  0  0
 73 74  1  0  0  0
 73 76  2  0  0  0
 73148  1  0  0  0
 74 75  2  0  0  0
 74 77  1  0  0  0
 75 82  1  0  0  0
 76 85  1  0  0  0
 77 84  1  0  0  0
 77 86  2  0  0  0
 78 79  1  0  0  0
 78 80  1  0  0  0
 78149  1  0  0  0
 78150  1  0  0  0
 79 81  1  0  0  0
 79151  1  0  0  0
 79152  1  0  0  0
 80 84  1  0  0  0
 80153  1  0  0  0
 80154  1  0  0  0
 81 83  1  0  0  0
 81 84  1  0  0  0
 81155  1  0  0  0
 82156  1  0  0  0
 82157  1  0  0  0
 82158  1  0  0  0
 83159  1  0  0  0
 83160  1  0  0  0
 85161  1  0  0  0
 86162  1  0  0  0
 86163  1  0  0  0
M  CHG  1  86   1
M  ISO  4   1 100  68 101  83 101  85 100
M  END
> <chiral flag>
0

> <version>
0

> <s_m_source_file>
/data/baiqing/PycharmProjects/Reinvent-master-3.2/result/LINK_invent/BTK/process_docking_weight1_custom_product_contain_oxygen_bond_distance_aromatic_linkinvent_7_9_3/rearranged_h_0146.sdf

> <i_m_source_file_index>
19

> <r_mmod_Potential_Energy-OPLS-2005>
238.644317626953

> <r_mmod_Stretch_Energy-OPLS-2005>
150.242782592773

> <r_mmod_Bend_Energy-OPLS-2005>
266.824127197266

> <r_mmod_Torsional_Energy-OPLS-2005>
328.798187255859

> <r_mmod_Improper_Torsional_Energy-OPLS-2005>
6.54809856414795

> <r_mmod_Van_der_Waal_Energy-OPLS-2005>
146.572052001953

> <r_mmod_Electrostatic_Energy-OPLS-2005>
-365.183502197266

> <r_mmod_Solvation_Energy-OPLS-2005>
-388.795745849609

> <b_mmod_Minimization_Converged-OPLS-2005>
0

> <r_mmod_RMS_Derivative-OPLS-2005>
1.65406358242035

$$$$
19
                    3D
 Structure written by MMmdl.
166175  0  0  1  0            999 V2000
  -30.7196  -14.5603   20.5629 C   0  0  0  0  0  0
  -30.4320  -12.3552   19.4631 C   0  0  0  0  0  0
  -29.5134  -12.5085   18.2336 C   0  0  0  0  0  0
  -28.0346  -12.3577   18.6434 C   0  0  0  0  0  0
  -27.6603  -13.2235   19.8785 C   0  0  2  0  0  0
  -28.7046  -13.0800   21.0123 C   0  0  0  0  0  0
  -25.2558  -13.8188   20.5766 C   0  0  0  0  0  0
  -24.1855  -13.0452   20.9217 C   0  0  0  0  0  0
  -24.6449  -11.6931   20.8774 C   0  0  0  0  0  0
  -23.9140  -10.4319   21.0407 C   0  0  0  0  0  0
  -24.3701   -9.4233   21.9164 C   0  0  0  0  0  0
  -23.6368   -8.2284   22.0751 C   0  0  0  0  0  0
  -22.4328   -8.0364   21.3576 C   0  0  0  0  0  0
  -21.9996   -9.0305   20.4643 C   0  0  0  0  0  0
  -22.7334  -10.2162   20.3035 C   0  0  0  0  0  0
  -21.6864   -6.0826   22.5317 C   0  0  0  0  0  0
  -21.4020   -6.5697   23.8275 C   0  0  0  0  0  0
  -21.3648   -5.6823   24.9209 C   0  0  0  0  0  0
  -21.6014   -4.3085   24.7238 C   0  0  0  0  0  0
  -21.8812   -3.8211   23.4355 C   0  0  0  0  0  0
  -21.9203   -4.7039   22.3425 C   0  0  0  0  0  0
  -22.7846  -13.5220   21.1899 C   0  0  0  0  0  0
  -22.1647   -4.2232   21.0993 F   0  0  0  0  0  0
  -21.5613   -3.4560   25.7750 F   0  0  0  0  0  0
  -30.0377  -13.3765   20.4533 N   0  0  0  0  0  0
  -26.3035  -12.9414   20.3419 N   0  0  0  0  0  0
  -25.9388  -11.6551   20.5801 N   0  0  0  0  0  0
  -22.0493  -12.8177   22.0415 N   0  0  0  0  0  0
  -25.4213  -15.1955   20.4356 N   0  0  0  0  0  0
  -31.8692  -14.6975   20.1415 O   0  0  0  0  0  0
  -21.6660   -6.8978   21.4302 O   0  0  0  0  0  0
  -22.3544  -14.5542   20.6759 O   0  0  0  0  0  0
  -24.6174  -31.8630   23.1995 C   0  0  0  0  0  0
  -25.9051  -32.4795   23.8323 C   0  0  1  0  0  0
  -27.2814  -27.3951   20.0922 C   0  0  0  0  0  0
  -25.5873  -33.8595   24.2246 N   0  0  0  0  0  0
  -23.4111  -30.4819   21.5325 C   0  0  2  0  0  0
  -24.8743  -28.9375   20.1086 C   0  0  0  0  0  0
  -22.7376  -29.4663   22.4856 C   0  0  0  0  0  0
  -18.0259  -28.1331   22.8547 C   0  0  0  0  0  0
  -24.1499  -36.7311   23.2630 C   0  0  0  0  0  0
  -25.9451  -30.8164   21.3619 C   0  0  0  0  0  0
  -26.0300  -29.4444   20.7125 C   0  0  0  0  0  0
  -27.2274  -28.6792   20.7035 C   0  0  0  0  0  0
  -26.0984  -26.9111   19.4869 C   0  0  0  0  0  0
  -24.9065  -27.6686   19.4966 C   0  0  0  0  0  0
  -23.6310  -29.8004   20.1535 C   0  0  0  0  0  0
  -25.4120  -36.3084   24.0316 C   0  0  1  0  0  0
  -20.5860  -28.3656   23.1283 C   0  0  2  0  0  0
  -20.6744  -26.9365   22.5414 C   0  0  0  0  0  0
  -19.5726  -26.6364   21.5205 C   0  0  0  0  0  0
  -18.1899  -26.7890   22.1630 C   0  0  0  0  0  0
  -19.1511  -28.8807   23.2938 C   0  0  0  0  0  0
  -18.9451  -30.1405   23.8974 C   0  0  0  0  0  0
  -17.6463  -30.6581   24.0564 C   0  0  0  0  0  0
  -25.9067  -34.9455   23.5086 C   0  0  0  0  0  0
  -16.5355  -29.9096   23.6304 C   0  0  0  0  0  0
  -16.7239  -28.6470   23.0392 C   0  0  0  0  0  0
  -26.4469  -31.6560   25.0667 C   0  0  0  0  0  0
  -25.3763  -31.3687   26.1419 C   0  0  0  0  0  0
  -27.0289  -30.2970   24.6121 C   0  0  0  0  0  0
  -27.6029  -32.4286   25.7470 C   0  0  0  0  0  0
  -27.5571  -37.1780   24.8446 C   0  0  0  0  0  0
  -21.4095  -29.3055   22.3654 N   0  0  0  0  0  0
  -26.4275  -37.3789   23.9417 N   0  0  0  0  0  0
  -24.6750  -31.0700   22.0904 N   0  0  0  0  0  0
  -23.4110  -28.8202   23.2933 O   0  0  0  0  0  0
  -28.4720  -26.6685   20.1526 O   0  0  0  0  0  0
  -26.5641  -34.8940   22.4666 O   0  0  0  0  0  0
  -23.5349  -32.1393   23.7370 O   0  0  0  0  0  0
  -30.6805  -18.1198   20.7044 C   0  0  0  0  0  0
  -28.8223  -17.1605   19.6350 C   0  0  0  0  0  0
  -29.8901  -16.9241   20.4554 C   0  0  0  0  0  0
  -30.1939  -19.2515   20.0323 C   0  0  0  0  0  0
  -30.6744  -20.6559   19.9132 C   0  0  0  0  0  0
  -27.9090  -23.2141   20.0679 C   0  0  0  0  0  0
  -28.4299  -21.7601   20.1292 C   0  0  0  0  0  0
  -29.1369  -24.1421   20.0039 C   0  0  2  0  0  0
  -30.1638  -23.1744   19.2581 C   0  0  0  0  0  0
  -29.6270  -24.4456   21.4436 C   0  0  0  0  0  0
  -31.6244  -23.6596   19.4515 C   0  0  0  0  0  0
  -29.8945  -23.1304   17.7289 C   0  0  0  0  0  0
  -28.7915  -25.5308   19.2978 C   0  0  0  0  0  0
  -29.8700  -21.7907   19.8192 N   0  0  0  0  0  0
  -30.0161  -15.6136   21.0506 N   0  0  0  0  0  0
  -32.0041  -20.8092   19.8504 N   0  3  0  0  0  0
  -28.8388  -18.7810   19.0238 S   0  0  0  0  0  0
  -31.4806  -12.4418   19.1737 H   0  0  0  0  0  0
  -30.3251  -11.3614   19.8977 H   0  0  0  0  0  0
  -29.7665  -11.7636   17.4801 H   0  0  0  0  0  0
  -29.6765  -13.4812   17.7671 H   0  0  0  0  0  0
  -27.8701  -11.3026   18.8684 H   0  0  0  0  0  0
  -27.3794  -12.5856   17.8017 H   0  0  0  0  0  0
  -27.6782  -14.2588   19.5443 H   0  0  0  0  0  0
  -28.6878  -12.0687   21.4196 H   0  0  0  0  0  0
  -28.4532  -13.7413   21.8428 H   0  0  0  0  0  0
  -25.2861   -9.5701   22.4701 H   0  0  0  0  0  0
  -24.0065   -7.4688   22.7468 H   0  0  0  0  0  0
  -21.0933   -8.8895   19.8936 H   0  0  0  0  0  0
  -22.3874  -10.9726   19.6142 H   0  0  0  0  0  0
  -21.2007   -7.6207   23.9805 H   0  0  0  0  0  0
  -21.1427   -6.0544   25.9109 H   0  0  0  0  0  0
  -22.0573   -2.7681   23.2844 H   0  0  0  0  0  0
  -22.4142  -11.9844   22.4798 H   0  0  0  0  0  0
  -21.1084  -13.1154   22.2616 H   0  0  0  0  0  0
  -24.6517  -15.8395   20.5827 H   0  0  0  0  0  0
  -26.2856  -15.6620   20.2081 H   0  0  0  0  0  0
  -26.7128  -32.5533   23.1091 H   0  0  0  0  0  0
  -24.9961  -33.9750   25.0330 H   0  0  0  0  0  0
  -22.7072  -31.3030   21.3755 H   0  0  0  0  0  0
  -23.3769  -35.9630   23.3280 H   0  0  0  0  0  0
  -24.3590  -36.8979   22.2049 H   0  0  0  0  0  0
  -23.7269  -37.6508   23.6692 H   0  0  0  0  0  0
  -26.0662  -31.5819   20.5929 H   0  0  0  0  0  0
  -26.8248  -30.8728   21.9886 H   0  0  0  0  0  0
  -28.1164  -29.0716   21.1823 H   0  0  0  0  0  0
  -26.0769  -25.9353   19.0269 H   0  0  0  0  0  0
  -24.0206  -27.2691   19.0235 H   0  0  0  0  0  0
  -23.7360  -30.5680   19.3850 H   0  0  0  0  0  0
  -22.7623  -29.2094   19.8602 H   0  0  0  0  0  0
  -25.1305  -36.1890   25.0806 H   0  0  0  0  0  0
  -20.9988  -28.3260   24.1386 H   0  0  0  0  0  0
  -20.5603  -26.2279   23.3624 H   0  0  0  0  0  0
  -21.6626  -26.7371   22.1262 H   0  0  0  0  0  0
  -19.6910  -25.6289   21.1228 H   0  0  0  0  0  0
  -19.6672  -27.3196   20.6758 H   0  0  0  0  0  0
  -17.4160  -26.6632   21.4033 H   0  0  0  0  0  0
  -18.0314  -25.9987   22.8990 H   0  0  0  0  0  0
  -19.7936  -30.7159   24.2400 H   0  0  0  0  0  0
  -17.5043  -31.6283   24.5098 H   0  0  0  0  0  0
  -15.5362  -30.3038   23.7595 H   0  0  0  0  0  0
  -15.8625  -28.0801   22.7120 H   0  0  0  0  0  0
  -24.5961  -30.7018   25.7753 H   0  0  0  0  0  0
  -24.8969  -32.2872   26.4818 H   0  0  0  0  0  0
  -25.8148  -30.8893   27.0189 H   0  0  0  0  0  0
  -26.2841  -29.6726   24.1185 H   0  0  0  0  0  0
  -27.4000  -29.7208   25.4602 H   0  0  0  0  0  0
  -27.8713  -30.4208   23.9316 H   0  0  0  0  0  0
  -27.2606  -33.3567   26.2059 H   0  0  0  0  0  0
  -28.3854  -32.6863   25.0327 H   0  0  0  0  0  0
  -28.0684  -31.8418   26.5400 H   0  0  0  0  0  0
  -28.2524  -38.0124   24.7527 H   0  0  0  0  0  0
  -28.1111  -36.2644   24.6203 H   0  0  0  0  0  0
  -27.2299  -37.1366   25.8848 H   0  0  0  0  0  0
  -20.9163  -29.8800   21.6961 H   0  0  0  0  0  0
  -26.0136  -38.2852   24.1469 H   0  0  0  0  0  0
  -31.5437  -18.1080   21.3619 H   0  0  0  0  0  0
  -28.0362  -16.5041   19.2964 H   0  0  0  0  0  0
  -27.2607  -23.4448   20.9111 H   0  0  0  0  0  0
  -27.2992  -23.3271   19.1709 H   0  0  0  0  0  0
  -27.8744  -21.1557   19.4161 H   0  0  0  0  0  0
  -28.2919  -21.3277   21.1205 H   0  0  0  0  0  0
  -29.9562  -23.5510   21.9717 H   0  0  0  0  0  0
  -28.8398  -24.9080   22.0417 H   0  0  0  0  0  0
  -30.4639  -25.1443   21.4315 H   0  0  0  0  0  0
  -31.6973  -24.7330   19.2678 H   0  0  0  0  0  0
  -32.3092  -23.1895   18.7437 H   0  0  0  0  0  0
  -31.9968  -23.4752   20.4611 H   0  0  0  0  0  0
  -29.7632  -24.1137   17.2802 H   0  0  0  0  0  0
  -29.0155  -22.5400   17.4740 H   0  0  0  0  0  0
  -30.7295  -22.6779   17.1971 H   0  0  0  0  0  0
  -28.0639  -25.3928   18.4988 H   0  0  0  0  0  0
  -29.6904  -25.8607   18.7780 H   0  0  0  0  0  0
  -29.1289  -15.2657   21.3769 H   0  0  0  0  0  0
  -32.6277  -20.0173   19.8622 H   0  0  0  0  0  0
  -32.4102  -21.7302   19.7986 H   0  0  0  0  0  0
  1 25  1  0  0  0
  1 30  2  0  0  0
  1 85  1  0  0  0
  2  3  1  0  0  0
  2 25  1  0  0  0
  2 88  1  0  0  0
  2 89  1  0  0  0
  3  4  1  0  0  0
  3 90  1  0  0  0
  3 91  1  0  0  0
  4  5  1  0  0  0
  4 92  1  0  0  0
  4 93  1  0  0  0
  5  6  1  0  0  0
  5 26  1  0  0  0
  5 94  1  0  0  0
  6 25  1  0  0  0
  6 95  1  0  0  0
  6 96  1  0  0  0
  7  8  2  0  0  0
  7 26  1  0  0  0
  7 29  1  0  0  0
  8  9  1  0  0  0
  8 22  1  0  0  0
  9 10  1  0  0  0
  9 27  2  0  0  0
 10 11  2  0  0  0
 10 15  1  0  0  0
 11 12  1  0  0  0
 11 97  1  0  0  0
 12 13  2  0  0  0
 12 98  1  0  0  0
 13 14  1  0  0  0
 13 31  1  0  0  0
 14 15  2  0  0  0
 14 99  1  0  0  0
 15100  1  0  0  0
 16 17  2  0  0  0
 16 21  1  0  0  0
 16 31  1  0  0  0
 17 18  1  0  0  0
 17101  1  0  0  0
 18 19  2  0  0  0
 18102  1  0  0  0
 19 20  1  0  0  0
 19 24  1  0  0  0
 20 21  2  0  0  0
 20103  1  0  0  0
 21 23  1  0  0  0
 22 28  1  0  0  0
 22 32  2  0  0  0
 26 27  1  0  0  0
 28104  1  0  0  0
 28105  1  0  0  0
 29106  1  0  0  0
 29107  1  0  0  0
 33 34  1  0  0  0
 33 66  1  0  0  0
 33 70  2  0  0  0
 34 36  1  0  0  0
 34 59  1  0  0  0
 34108  1  0  0  0
 35 44  2  0  0  0
 35 45  1  0  0  0
 35 68  1  0  0  0
 36 56  1  0  0  0
 36109  1  0  0  0
 37 39  1  0  0  0
 37 47  1  0  0  0
 37 66  1  0  0  0
 37110  1  0  0  0
 38 43  2  0  0  0
 38 46  1  0  0  0
 38 47  1  0  0  0
 39 64  1  0  0  0
 39 67  2  0  0  0
 40 52  1  0  0  0
 40 53  2  0  0  0
 40 58  1  0  0  0
 41111  1  0  0  0
 41112  1  0  0  0
 41113  1  0  0  0
 41 48  1  0  0  0
 42 43  1  0  0  0
 42 66  1  0  0  0
 42114  1  0  0  0
 42115  1  0  0  0
 43 44  1  0  0  0
 44116  1  0  0  0
 45 46  2  0  0  0
 45117  1  0  0  0
 46118  1  0  0  0
 47119  1  0  0  0
 47120  1  0  0  0
 48 56  1  0  0  0
 48 65  1  0  0  0
 48121  1  0  0  0
 49 50  1  0  0  0
 49 53  1  0  0  0
 49 64  1  0  0  0
 49122  1  0  0  0
 50 51  1  0  0  0
 50123  1  0  0  0
 50124  1  0  0  0
 51 52  1  0  0  0
 51125  1  0  0  0
 51126  1  0  0  0
 52127  1  0  0  0
 52128  1  0  0  0
 53 54  1  0  0  0
 54 55  2  0  0  0
 54129  1  0  0  0
 55 57  1  0  0  0
 55130  1  0  0  0
 56 69  2  0  0  0
 57 58  2  0  0  0
 57131  1  0  0  0
 58132  1  0  0  0
 59 60  1  0  0  0
 59 61  1  0  0  0
 59 62  1  0  0  0
 60133  1  0  0  0
 60134  1  0  0  0
 60135  1  0  0  0
 61136  1  0  0  0
 61137  1  0  0  0
 61138  1  0  0  0
 62139  1  0  0  0
 62140  1  0  0  0
 62141  1  0  0  0
 63 65  1  0  0  0
 63142  1  0  0  0
 63143  1  0  0  0
 63144  1  0  0  0
 64145  1  0  0  0
 65146  1  0  0  0
 68 83  1  0  0  0
 71 73  1  0  0  0
 71 74  2  0  0  0
 71147  1  0  0  0
 72 73  2  0  0  0
 72 87  1  0  0  0
 72148  1  0  0  0
 73 85  1  0  0  0
 74 75  1  0  0  0
 74 87  1  0  0  0
 75 84  1  0  0  0
 75 86  2  0  0  0
 76 77  1  0  0  0
 76 78  1  0  0  0
 76149  1  0  0  0
 76150  1  0  0  0
 77 84  1  0  0  0
 77151  1  0  0  0
 77152  1  0  0  0
 78 79  1  0  0  0
 78 80  1  0  0  0
 78 83  1  0  0  0
 79 81  1  0  0  0
 79 82  1  0  0  0
 79 84  1  0  0  0
 80153  1  0  0  0
 80154  1  0  0  0
 80155  1  0  0  0
 81156  1  0  0  0
 81157  1  0  0  0
 81158  1  0  0  0
 82159  1  0  0  0
 82160  1  0  0  0
 82161  1  0  0  0
 83162  1  0  0  0
 83163  1  0  0  0
 85164  1  0  0  0
 86165  1  0  0  0
 86166  1  0  0  0
M  CHG  1  86   1
M  ISO  4   1 100  68 101  83 101  85 100
M  END
> <chiral flag>
0

> <version>
0

> <s_m_source_file>
/data/baiqing/PycharmProjects/Reinvent-master-3.2/result/LINK_invent/BTK/process_docking_weight1_custom_product_contain_oxygen_bond_distance_aromatic_linkinvent_7_9_3/rearranged_h_0146.sdf

> <i_m_source_file_index>
20

> <r_mmod_Potential_Energy-OPLS-2005>
155.850601196289

> <r_mmod_Stretch_Energy-OPLS-2005>
74.9878158569336

> <r_mmod_Bend_Energy-OPLS-2005>
190.315979003906

> <r_mmod_Torsional_Energy-OPLS-2005>
356.227935791016

> <r_mmod_Improper_Torsional_Energy-OPLS-2005>
7.77508974075317

> <r_mmod_Van_der_Waal_Energy-OPLS-2005>
134.524353027344

> <r_mmod_Electrostatic_Energy-OPLS-2005>
-209.631774902344

> <r_mmod_Solvation_Energy-OPLS-2005>
-424.658325195312

> <b_mmod_Minimization_Converged-OPLS-2005>
0

> <r_mmod_RMS_Derivative-OPLS-2005>
6.60806655883789

$$$$
20
                    3D
 Structure written by MMmdl.
152161  0  0  1  0            999 V2000
  -30.6696  -14.5839   20.4985 C   0  0  0  0  0  0
  -30.4217  -12.3596   19.4419 C   0  0  0  0  0  0
  -29.4961  -12.4965   18.2146 C   0  0  0  0  0  0
  -28.0179  -12.3518   18.6288 C   0  0  0  0  0  0
  -27.6509  -13.2164   19.8660 C   0  0  2  0  0  0
  -28.6990  -13.0541   20.9893 C   0  0  0  0  0  0
  -25.2551  -13.8180   20.5702 C   0  0  0  0  0  0
  -24.1818  -13.0443   20.9198 C   0  0  0  0  0  0
  -24.6386  -11.6913   20.8750 C   0  0  0  0  0  0
  -23.9059  -10.4294   21.0410 C   0  0  0  0  0  0
  -24.3613   -9.4209   21.9185 C   0  0  0  0  0  0
  -23.6292   -8.2243   22.0753 C   0  0  0  0  0  0
  -22.4274   -8.0281   21.3543 C   0  0  0  0  0  0
  -21.9908   -9.0254   20.4646 C   0  0  0  0  0  0
  -22.7234  -10.2135   20.3058 C   0  0  0  0  0  0
  -21.6852   -6.0736   22.5279 C   0  0  0  0  0  0
  -21.4013   -6.5640   23.8212 C   0  0  0  0  0  0
  -21.3660   -5.6793   24.9175 C   0  0  0  0  0  0
  -21.6045   -4.3055   24.7225 C   0  0  0  0  0  0
  -21.8819   -3.8147   23.4346 C   0  0  0  0  0  0
  -21.9192   -4.6964   22.3402 C   0  0  0  0  0  0
  -22.7841  -13.5235   21.1856 C   0  0  0  0  0  0
  -22.1661   -4.2150   21.0980 F   0  0  0  0  0  0
  -21.5629   -3.4539   25.7737 F   0  0  0  0  0  0
  -30.0064  -13.3897   20.4134 N   0  0  0  0  0  0
  -26.2979  -12.9360   20.3357 N   0  0  0  0  0  0
  -25.9315  -11.6514   20.5782 N   0  0  0  0  0  0
  -22.0482  -12.8228   22.0411 N   0  0  0  0  0  0
  -25.4268  -15.1898   20.4109 N   0  0  0  0  0  0
  -31.8551  -14.6603   20.1574 O   0  0  0  0  0  0
  -21.6638   -6.8878   21.4241 O   0  0  0  0  0  0
  -22.3527  -14.5541   20.6704 O   0  0  0  0  0  0
  -24.6203  -31.8632   23.2051 C   0  0  0  0  0  0
  -25.9074  -32.4795   23.8364 C   0  0  1  0  0  0
  -27.2287  -27.3688   20.1010 C   0  0  0  0  0  0
  -25.5910  -33.8595   24.2296 N   0  0  0  0  0  0
  -23.4105  -30.4865   21.5472 C   0  0  2  0  0  0
  -24.8546  -28.9434   20.1126 C   0  0  0  0  0  0
  -22.7437  -29.4639   22.4964 C   0  0  0  0  0  0
  -18.0278  -28.1379   22.8490 C   0  0  0  0  0  0
  -24.1489  -36.7304   23.2639 C   0  0  0  0  0  0
  -25.9454  -30.8084   21.3672 C   0  0  0  0  0  0
  -26.0185  -29.4382   20.7120 C   0  0  0  0  0  0
  -27.2045  -28.6588   20.7009 C   0  0  0  0  0  0
  -26.0373  -26.9010   19.5002 C   0  0  0  0  0  0
  -24.8623  -27.6776   19.5038 C   0  0  0  0  0  0
  -23.6209  -29.8189   20.1621 C   0  0  0  0  0  0
  -25.4112  -36.3096   24.0332 C   0  0  1  0  0  0
  -20.5872  -28.3674   23.1304 C   0  0  2  0  0  0
  -20.6767  -26.9405   22.5416 C   0  0  0  0  0  0
  -19.5746  -26.6384   21.5213 C   0  0  0  0  0  0
  -18.1925  -26.7925   22.1624 C   0  0  0  0  0  0
  -19.1528  -28.8843   23.2894 C   0  0  0  0  0  0
  -18.9454  -30.1448   23.8906 C   0  0  0  0  0  0
  -17.6456  -30.6585   24.0565 C   0  0  0  0  0  0
  -25.9044  -34.9462   23.5115 C   0  0  0  0  0  0
  -16.5347  -29.9086   23.6327 C   0  0  0  0  0  0
  -16.7266  -28.6503   23.0348 C   0  0  0  0  0  0
  -26.4481  -31.6592   25.0716 C   0  0  0  0  0  0
  -25.3733  -31.3713   26.1456 C   0  0  0  0  0  0
  -27.0318  -30.3027   24.6130 C   0  0  0  0  0  0
  -27.6049  -32.4320   25.7481 C   0  0  0  0  0  0
  -27.5581  -37.1807   24.8465 C   0  0  0  0  0  0
  -21.4159  -29.3035   22.3705 N   0  0  0  0  0  0
  -26.4295  -37.3785   23.9407 N   0  0  0  0  0  0
  -24.6774  -31.0686   22.0976 N   0  0  0  0  0  0
  -23.4186  -28.8185   23.3028 O   0  0  0  0  0  0
  -28.3982  -26.6138   20.1405 O   0  0  0  0  0  0
  -26.5612  -34.8923   22.4680 O   0  0  0  0  0  0
  -23.5382  -32.1411   23.7414 O   0  0  0  0  0  0
  -29.5305  -19.5219   19.9294 C   0  0  0  0  0  0
  -29.6358  -18.1086   20.2098 C   0  0  0  0  0  0
  -29.0331  -17.7359   21.3448 C   0  0  0  0  0  0
  -28.8246  -20.2095   20.9082 C   0  0  0  0  0  0
  -28.3195  -24.0873   20.5135 C   0  0  0  0  0  0
  -30.2447  -16.8835   19.5849 C   0  0  0  0  0  0
  -29.1255  -16.2706   21.6258 C   0  0  0  0  0  0
  -28.7482  -22.6481   20.0557 C   0  0  0  0  0  0
  -28.4938  -25.2878   19.5271 C   0  0  0  0  0  0
  -29.9051  -15.7256   20.4804 N   0  0  0  0  0  0
  -28.4913  -21.5808   21.0549 N   0  0  0  0  0  0
  -27.8473  -24.2560   21.6445 O   0  0  0  0  0  0
  -28.2920  -19.0830   22.1696 S   0  0  0  0  0  0
  -31.4651  -12.4594   19.1378 H   0  0  0  0  0  0
  -30.3361  -11.3646   19.8815 H   0  0  0  0  0  0
  -29.7492  -11.7452   17.4653 H   0  0  0  0  0  0
  -29.6516  -13.4666   17.7396 H   0  0  0  0  0  0
  -27.8418  -11.2985   18.8504 H   0  0  0  0  0  0
  -27.3650  -12.5971   17.7904 H   0  0  0  0  0  0
  -27.6728  -14.2547   19.5351 H   0  0  0  0  0  0
  -28.7053  -12.0271   21.3576 H   0  0  0  0  0  0
  -28.4641  -13.6688   21.8562 H   0  0  0  0  0  0
  -25.2757   -9.5687   22.4760 H   0  0  0  0  0  0
  -24.0003   -7.4633   22.7471 H   0  0  0  0  0  0
  -21.0840   -8.8773   19.8951 H   0  0  0  0  0  0
  -22.3691  -10.9676   19.6169 H   0  0  0  0  0  0
  -21.2004   -7.6148   23.9716 H   0  0  0  0  0  0
  -21.1483   -6.0523   25.9078 H   0  0  0  0  0  0
  -22.0598   -2.7609   23.2845 H   0  0  0  0  0  0
  -22.4095  -11.9889   22.4802 H   0  0  0  0  0  0
  -21.1100  -13.1256   22.2616 H   0  0  0  0  0  0
  -24.6611  -15.8455   20.5212 H   0  0  0  0  0  0
  -26.2800  -15.6292   20.0891 H   0  0  0  0  0  0
  -26.7140  -32.5480   23.1115 H   0  0  0  0  0  0
  -25.0060  -33.9748   25.0441 H   0  0  0  0  0  0
  -22.7020  -31.3054   21.4062 H   0  0  0  0  0  0
  -23.3749  -35.9639   23.3309 H   0  0  0  0  0  0
  -24.3581  -36.8914   22.2052 H   0  0  0  0  0  0
  -23.7244  -37.6510   23.6652 H   0  0  0  0  0  0
  -26.0682  -31.5729   20.5987 H   0  0  0  0  0  0
  -26.8296  -30.8587   21.9912 H   0  0  0  0  0  0
  -28.1023  -29.0380   21.1691 H   0  0  0  0  0  0
  -25.9770  -25.9282   19.0377 H   0  0  0  0  0  0
  -23.9646  -27.2888   19.0430 H   0  0  0  0  0  0
  -23.7354  -30.5940   19.4035 H   0  0  0  0  0  0
  -22.7420  -29.2444   19.8637 H   0  0  0  0  0  0
  -25.1292  -36.1956   25.0826 H   0  0  0  0  0  0
  -20.9963  -28.3243   24.1425 H   0  0  0  0  0  0
  -20.5670  -26.2282   23.3607 H   0  0  0  0  0  0
  -21.6638  -26.7444   22.1209 H   0  0  0  0  0  0
  -19.6909  -25.6298   21.1237 H   0  0  0  0  0  0
  -19.6685  -27.3200   20.6748 H   0  0  0  0  0  0
  -17.4196  -26.6673   21.4025 H   0  0  0  0  0  0
  -18.0326  -26.0064   22.9018 H   0  0  0  0  0  0
  -19.7931  -30.7260   24.2279 H   0  0  0  0  0  0
  -17.5012  -31.6266   24.5164 H   0  0  0  0  0  0
  -15.5348  -30.2992   23.7645 H   0  0  0  0  0  0
  -15.8665  -28.0826   22.7057 H   0  0  0  0  0  0
  -24.5903  -30.7066   25.7788 H   0  0  0  0  0  0
  -24.8928  -32.2873   26.4903 H   0  0  0  0  0  0
  -25.8073  -30.8877   27.0216 H   0  0  0  0  0  0
  -26.2876  -29.6783   24.1173 H   0  0  0  0  0  0
  -27.4060  -29.7273   25.4607 H   0  0  0  0  0  0
  -27.8724  -30.4332   23.9309 H   0  0  0  0  0  0
  -27.2664  -33.3611   26.2079 H   0  0  0  0  0  0
  -28.3847  -32.6895   25.0301 H   0  0  0  0  0  0
  -28.0732  -31.8433   26.5380 H   0  0  0  0  0  0
  -28.2604  -38.0099   24.7509 H   0  0  0  0  0  0
  -28.1071  -36.2631   24.6297 H   0  0  0  0  0  0
  -27.2299  -37.1464   25.8868 H   0  0  0  0  0  0
  -20.9326  -29.8756   21.6922 H   0  0  0  0  0  0
  -26.0181  -38.2864   24.1402 H   0  0  0  0  0  0
  -29.9694  -19.9672   19.0478 H   0  0  0  0  0  0
  -31.3228  -17.0127   19.4761 H   0  0  0  0  0  0
  -29.8360  -16.7041   18.5899 H   0  0  0  0  0  0
  -28.1266  -15.8378   21.6662 H   0  0  0  0  0  0
  -29.6293  -16.0809   22.5749 H   0  0  0  0  0  0
  -29.8115  -22.6698   19.8142 H   0  0  0  0  0  0
  -28.2193  -22.4120   19.1315 H   0  0  0  0  0  0
  -27.8298  -25.1708   18.6731 H   0  0  0  0  0  0
  -29.4993  -25.2067   19.1145 H   0  0  0  0  0  0
  -27.9796  -21.9111   21.8724 H   0  0  0  0  0  0
  1 25  1  0  0  0
  1 30  2  0  0  0
  1 80  1  0  0  0
  2  3  1  0  0  0
  2 25  1  0  0  0
  2 84  1  0  0  0
  2 85  1  0  0  0
  3  4  1  0  0  0
  3 86  1  0  0  0
  3 87  1  0  0  0
  4  5  1  0  0  0
  4 88  1  0  0  0
  4 89  1  0  0  0
  5  6  1  0  0  0
  5 26  1  0  0  0
  5 90  1  0  0  0
  6 25  1  0  0  0
  6 91  1  0  0  0
  6 92  1  0  0  0
  7  8  2  0  0  0
  7 26  1  0  0  0
  7 29  1  0  0  0
  8  9  1  0  0  0
  8 22  1  0  0  0
  9 10  1  0  0  0
  9 27  2  0  0  0
 10 11  2  0  0  0
 10 15  1  0  0  0
 11 12  1  0  0  0
 11 93  1  0  0  0
 12 13  2  0  0  0
 12 94  1  0  0  0
 13 14  1  0  0  0
 13 31  1  0  0  0
 14 15  2  0  0  0
 14 95  1  0  0  0
 15 96  1  0  0  0
 16 17  2  0  0  0
 16 21  1  0  0  0
 16 31  1  0  0  0
 17 18  1  0  0  0
 17 97  1  0  0  0
 18 19  2  0  0  0
 18 98  1  0  0  0
 19 20  1  0  0  0
 19 24  1  0  0  0
 20 21  2  0  0  0
 20 99  1  0  0  0
 21 23  1  0  0  0
 22 28  1  0  0  0
 22 32  2  0  0  0
 26 27  1  0  0  0
 28100  1  0  0  0
 28101  1  0  0  0
 29102  1  0  0  0
 29103  1  0  0  0
 33 34  1  0  0  0
 33 66  1  0  0  0
 33 70  2  0  0  0
 34 36  1  0  0  0
 34 59  1  0  0  0
 34104  1  0  0  0
 35 44  2  0  0  0
 35 45  1  0  0  0
 35 68  1  0  0  0
 36 56  1  0  0  0
 36105  1  0  0  0
 37 39  1  0  0  0
 37 47  1  0  0  0
 37 66  1  0  0  0
 37106  1  0  0  0
 38 43  2  0  0  0
 38 46  1  0  0  0
 38 47  1  0  0  0
 39 64  1  0  0  0
 39 67  2  0  0  0
 40 52  1  0  0  0
 40 53  2  0  0  0
 40 58  1  0  0  0
 41107  1  0  0  0
 41108  1  0  0  0
 41109  1  0  0  0
 41 48  1  0  0  0
 42 43  1  0  0  0
 42 66  1  0  0  0
 42110  1  0  0  0
 42111  1  0  0  0
 43 44  1  0  0  0
 44112  1  0  0  0
 45 46  2  0  0  0
 45113  1  0  0  0
 46114  1  0  0  0
 47115  1  0  0  0
 47116  1  0  0  0
 48 56  1  0  0  0
 48 65  1  0  0  0
 48117  1  0  0  0
 49 50  1  0  0  0
 49 53  1  0  0  0
 49 64  1  0  0  0
 49118  1  0  0  0
 50 51  1  0  0  0
 50119  1  0  0  0
 50120  1  0  0  0
 51 52  1  0  0  0
 51121  1  0  0  0
 51122  1  0  0  0
 52123  1  0  0  0
 52124  1  0  0  0
 53 54  1  0  0  0
 54 55  2  0  0  0
 54125  1  0  0  0
 55 57  1  0  0  0
 55126  1  0  0  0
 56 69  2  0  0  0
 57 58  2  0  0  0
 57127  1  0  0  0
 58128  1  0  0  0
 59 60  1  0  0  0
 59 61  1  0  0  0
 59 62  1  0  0  0
 60129  1  0  0  0
 60130  1  0  0  0
 60131  1  0  0  0
 61132  1  0  0  0
 61133  1  0  0  0
 61134  1  0  0  0
 62135  1  0  0  0
 62136  1  0  0  0
 62137  1  0  0  0
 63 65  1  0  0  0
 63138  1  0  0  0
 63139  1  0  0  0
 63140  1  0  0  0
 64141  1  0  0  0
 65142  1  0  0  0
 68 79  1  0  0  0
 71 72  1  0  0  0
 71 74  2  0  0  0
 71143  1  0  0  0
 72 73  2  0  0  0
 72 76  1  0  0  0
 73 77  1  0  0  0
 73 83  1  0  0  0
 74 81  1  0  0  0
 74 83  1  0  0  0
 75 78  1  0  0  0
 75 79  1  0  0  0
 75 82  2  0  0  0
 76 80  1  0  0  0
 76144  1  0  0  0
 76145  1  0  0  0
 77 80  1  0  0  0
 77146  1  0  0  0
 77147  1  0  0  0
 78 81  1  0  0  0
 78148  1  0  0  0
 78149  1  0  0  0
 79150  1  0  0  0
 79151  1  0  0  0
 81152  1  0  0  0
M  ISO  4   1 100  68 101  79 101  80 100
M  END
> <chiral flag>
0

> <version>
0

> <s_m_source_file>
/data/baiqing/PycharmProjects/Reinvent-master-3.2/result/LINK_invent/BTK/process_docking_weight1_custom_product_contain_oxygen_bond_distance_aromatic_linkinvent_7_9_3/rearranged_h_0146.sdf

> <i_m_source_file_index>
21

> <r_mmod_Potential_Energy-OPLS-2005>
169.71272277832

> <r_mmod_Stretch_Energy-OPLS-2005>
61.1086883544922

> <r_mmod_Bend_Energy-OPLS-2005>
200.522705078125

> <r_mmod_Torsional_Energy-OPLS-2005>
242.612243652344

> <r_mmod_Improper_Torsional_Energy-OPLS-2005>
17.3812789916992

> <r_mmod_Van_der_Waal_Energy-OPLS-2005>
117.193435668945

> <r_mmod_Electrostatic_Energy-OPLS-2005>
-263.803436279297

> <r_mmod_Solvation_Energy-OPLS-2005>
-236.370956420898

> <b_mmod_Minimization_Converged-OPLS-2005>
0

> <r_mmod_RMS_Derivative-OPLS-2005>
0.130121141672134

$$$$
21
                    3D
 Structure written by MMmdl.
152161  0  0  1  0            999 V2000
  -30.6696  -14.5839   20.4985 C   0  0  0  0  0  0
  -30.4217  -12.3596   19.4419 C   0  0  0  0  0  0
  -29.4961  -12.4965   18.2146 C   0  0  0  0  0  0
  -28.0179  -12.3518   18.6288 C   0  0  0  0  0  0
  -27.6509  -13.2164   19.8660 C   0  0  2  0  0  0
  -28.6990  -13.0541   20.9893 C   0  0  0  0  0  0
  -25.2551  -13.8180   20.5702 C   0  0  0  0  0  0
  -24.1818  -13.0443   20.9198 C   0  0  0  0  0  0
  -24.6386  -11.6913   20.8750 C   0  0  0  0  0  0
  -23.9059  -10.4294   21.0410 C   0  0  0  0  0  0
  -24.3613   -9.4209   21.9185 C   0  0  0  0  0  0
  -23.6292   -8.2243   22.0753 C   0  0  0  0  0  0
  -22.4274   -8.0281   21.3543 C   0  0  0  0  0  0
  -21.9908   -9.0254   20.4646 C   0  0  0  0  0  0
  -22.7234  -10.2135   20.3058 C   0  0  0  0  0  0
  -21.6852   -6.0736   22.5279 C   0  0  0  0  0  0
  -21.4013   -6.5640   23.8212 C   0  0  0  0  0  0
  -21.3660   -5.6793   24.9175 C   0  0  0  0  0  0
  -21.6045   -4.3055   24.7225 C   0  0  0  0  0  0
  -21.8819   -3.8147   23.4346 C   0  0  0  0  0  0
  -21.9192   -4.6964   22.3402 C   0  0  0  0  0  0
  -22.7841  -13.5235   21.1856 C   0  0  0  0  0  0
  -22.1661   -4.2150   21.0980 F   0  0  0  0  0  0
  -21.5629   -3.4539   25.7737 F   0  0  0  0  0  0
  -30.0064  -13.3897   20.4134 N   0  0  0  0  0  0
  -26.2979  -12.9360   20.3357 N   0  0  0  0  0  0
  -25.9315  -11.6514   20.5782 N   0  0  0  0  0  0
  -22.0482  -12.8228   22.0411 N   0  0  0  0  0  0
  -25.4268  -15.1898   20.4109 N   0  0  0  0  0  0
  -31.8551  -14.6603   20.1574 O   0  0  0  0  0  0
  -21.6638   -6.8878   21.4241 O   0  0  0  0  0  0
  -22.3527  -14.5541   20.6704 O   0  0  0  0  0  0
  -24.6203  -31.8632   23.2051 C   0  0  0  0  0  0
  -25.9074  -32.4795   23.8364 C   0  0  1  0  0  0
  -27.2287  -27.3688   20.1010 C   0  0  0  0  0  0
  -25.5910  -33.8595   24.2296 N   0  0  0  0  0  0
  -23.4105  -30.4865   21.5472 C   0  0  2  0  0  0
  -24.8546  -28.9434   20.1126 C   0  0  0  0  0  0
  -22.7437  -29.4639   22.4964 C   0  0  0  0  0  0
  -18.0278  -28.1379   22.8490 C   0  0  0  0  0  0
  -24.1489  -36.7304   23.2639 C   0  0  0  0  0  0
  -25.9454  -30.8084   21.3672 C   0  0  0  0  0  0
  -26.0185  -29.4382   20.7120 C   0  0  0  0  0  0
  -27.2045  -28.6588   20.7009 C   0  0  0  0  0  0
  -26.0373  -26.9010   19.5002 C   0  0  0  0  0  0
  -24.8623  -27.6776   19.5038 C   0  0  0  0  0  0
  -23.6209  -29.8189   20.1621 C   0  0  0  0  0  0
  -25.4112  -36.3096   24.0332 C   0  0  1  0  0  0
  -20.5872  -28.3674   23.1304 C   0  0  2  0  0  0
  -20.6767  -26.9405   22.5416 C   0  0  0  0  0  0
  -19.5746  -26.6384   21.5213 C   0  0  0  0  0  0
  -18.1925  -26.7925   22.1624 C   0  0  0  0  0  0
  -19.1528  -28.8843   23.2894 C   0  0  0  0  0  0
  -18.9454  -30.1448   23.8906 C   0  0  0  0  0  0
  -17.6456  -30.6585   24.0565 C   0  0  0  0  0  0
  -25.9044  -34.9462   23.5115 C   0  0  0  0  0  0
  -16.5347  -29.9086   23.6327 C   0  0  0  0  0  0
  -16.7266  -28.6503   23.0348 C   0  0  0  0  0  0
  -26.4481  -31.6592   25.0716 C   0  0  0  0  0  0
  -25.3733  -31.3713   26.1456 C   0  0  0  0  0  0
  -27.0318  -30.3027   24.6130 C   0  0  0  0  0  0
  -27.6049  -32.4320   25.7481 C   0  0  0  0  0  0
  -27.5581  -37.1807   24.8465 C   0  0  0  0  0  0
  -21.4159  -29.3035   22.3705 N   0  0  0  0  0  0
  -26.4295  -37.3785   23.9407 N   0  0  0  0  0  0
  -24.6774  -31.0686   22.0976 N   0  0  0  0  0  0
  -23.4186  -28.8185   23.3028 O   0  0  0  0  0  0
  -28.3982  -26.6138   20.1405 O   0  0  0  0  0  0
  -26.5612  -34.8923   22.4680 O   0  0  0  0  0  0
  -23.5382  -32.1411   23.7414 O   0  0  0  0  0  0
  -29.5305  -19.5219   19.9294 C   0  0  0  0  0  0
  -29.6358  -18.1086   20.2098 C   0  0  0  0  0  0
  -29.0331  -17.7359   21.3448 C   0  0  0  0  0  0
  -28.8246  -20.2095   20.9082 C   0  0  0  0  0  0
  -28.3195  -24.0873   20.5135 C   0  0  0  0  0  0
  -30.2447  -16.8835   19.5849 C   0  0  0  0  0  0
  -29.1255  -16.2706   21.6258 C   0  0  0  0  0  0
  -28.7482  -22.6481   20.0557 C   0  0  0  0  0  0
  -28.4938  -25.2878   19.5271 C   0  0  0  0  0  0
  -29.9051  -15.7256   20.4804 N   0  0  0  0  0  0
  -28.4913  -21.5808   21.0549 N   0  0  0  0  0  0
  -27.8473  -24.2560   21.6445 O   0  0  0  0  0  0
  -28.2920  -19.0830   22.1696 S   0  0  0  0  0  0
  -31.4651  -12.4594   19.1378 H   0  0  0  0  0  0
  -30.3361  -11.3646   19.8815 H   0  0  0  0  0  0
  -29.7492  -11.7452   17.4653 H   0  0  0  0  0  0
  -29.6516  -13.4666   17.7396 H   0  0  0  0  0  0
  -27.8418  -11.2985   18.8504 H   0  0  0  0  0  0
  -27.3650  -12.5971   17.7904 H   0  0  0  0  0  0
  -27.6728  -14.2547   19.5351 H   0  0  0  0  0  0
  -28.7053  -12.0271   21.3576 H   0  0  0  0  0  0
  -28.4641  -13.6688   21.8562 H   0  0  0  0  0  0
  -25.2757   -9.5687   22.4760 H   0  0  0  0  0  0
  -24.0003   -7.4633   22.7471 H   0  0  0  0  0  0
  -21.0840   -8.8773   19.8951 H   0  0  0  0  0  0
  -22.3691  -10.9676   19.6169 H   0  0  0  0  0  0
  -21.2004   -7.6148   23.9716 H   0  0  0  0  0  0
  -21.1483   -6.0523   25.9078 H   0  0  0  0  0  0
  -22.0598   -2.7609   23.2845 H   0  0  0  0  0  0
  -22.4095  -11.9889   22.4802 H   0  0  0  0  0  0
  -21.1100  -13.1256   22.2616 H   0  0  0  0  0  0
  -24.6611  -15.8455   20.5212 H   0  0  0  0  0  0
  -26.2800  -15.6292   20.0891 H   0  0  0  0  0  0
  -26.7140  -32.5480   23.1115 H   0  0  0  0  0  0
  -25.0060  -33.9748   25.0441 H   0  0  0  0  0  0
  -22.7020  -31.3054   21.4062 H   0  0  0  0  0  0
  -23.3749  -35.9639   23.3309 H   0  0  0  0  0  0
  -24.3581  -36.8914   22.2052 H   0  0  0  0  0  0
  -23.7244  -37.6510   23.6652 H   0  0  0  0  0  0
  -26.0682  -31.5729   20.5987 H   0  0  0  0  0  0
  -26.8296  -30.8587   21.9912 H   0  0  0  0  0  0
  -28.1023  -29.0380   21.1691 H   0  0  0  0  0  0
  -25.9770  -25.9282   19.0377 H   0  0  0  0  0  0
  -23.9646  -27.2888   19.0430 H   0  0  0  0  0  0
  -23.7354  -30.5940   19.4035 H   0  0  0  0  0  0
  -22.7420  -29.2444   19.8637 H   0  0  0  0  0  0
  -25.1292  -36.1956   25.0826 H   0  0  0  0  0  0
  -20.9963  -28.3243   24.1425 H   0  0  0  0  0  0
  -20.5670  -26.2282   23.3607 H   0  0  0  0  0  0
  -21.6638  -26.7444   22.1209 H   0  0  0  0  0  0
  -19.6909  -25.6298   21.1237 H   0  0  0  0  0  0
  -19.6685  -27.3200   20.6748 H   0  0  0  0  0  0
  -17.4196  -26.6673   21.4025 H   0  0  0  0  0  0
  -18.0326  -26.0064   22.9018 H   0  0  0  0  0  0
  -19.7931  -30.7260   24.2279 H   0  0  0  0  0  0
  -17.5012  -31.6266   24.5164 H   0  0  0  0  0  0
  -15.5348  -30.2992   23.7645 H   0  0  0  0  0  0
  -15.8665  -28.0826   22.7057 H   0  0  0  0  0  0
  -24.5903  -30.7066   25.7788 H   0  0  0  0  0  0
  -24.8928  -32.2873   26.4903 H   0  0  0  0  0  0
  -25.8073  -30.8877   27.0216 H   0  0  0  0  0  0
  -26.2876  -29.6783   24.1173 H   0  0  0  0  0  0
  -27.4060  -29.7273   25.4607 H   0  0  0  0  0  0
  -27.8724  -30.4332   23.9309 H   0  0  0  0  0  0
  -27.2664  -33.3611   26.2079 H   0  0  0  0  0  0
  -28.3847  -32.6895   25.0301 H   0  0  0  0  0  0
  -28.0732  -31.8433   26.5380 H   0  0  0  0  0  0
  -28.2604  -38.0099   24.7509 H   0  0  0  0  0  0
  -28.1071  -36.2631   24.6297 H   0  0  0  0  0  0
  -27.2299  -37.1464   25.8868 H   0  0  0  0  0  0
  -20.9326  -29.8756   21.6922 H   0  0  0  0  0  0
  -26.0181  -38.2864   24.1402 H   0  0  0  0  0  0
  -29.9694  -19.9672   19.0478 H   0  0  0  0  0  0
  -31.3228  -17.0127   19.4761 H   0  0  0  0  0  0
  -29.8360  -16.7041   18.5899 H   0  0  0  0  0  0
  -28.1266  -15.8378   21.6662 H   0  0  0  0  0  0
  -29.6293  -16.0809   22.5749 H   0  0  0  0  0  0
  -29.8115  -22.6698   19.8142 H   0  0  0  0  0  0
  -28.2193  -22.4120   19.1315 H   0  0  0  0  0  0
  -27.8298  -25.1708   18.6731 H   0  0  0  0  0  0
  -29.4993  -25.2067   19.1145 H   0  0  0  0  0  0
  -27.9796  -21.9111   21.8724 H   0  0  0  0  0  0
  1 25  1  0  0  0
  1 30  2  0  0  0
  1 80  1  0  0  0
  2  3  1  0  0  0
  2 25  1  0  0  0
  2 84  1  0  0  0
  2 85  1  0  0  0
  3  4  1  0  0  0
  3 86  1  0  0  0
  3 87  1  0  0  0
  4  5  1  0  0  0
  4 88  1  0  0  0
  4 89  1  0  0  0
  5  6  1  0  0  0
  5 26  1  0  0  0
  5 90  1  0  0  0
  6 25  1  0  0  0
  6 91  1  0  0  0
  6 92  1  0  0  0
  7  8  2  0  0  0
  7 26  1  0  0  0
  7 29  1  0  0  0
  8  9  1  0  0  0
  8 22  1  0  0  0
  9 10  1  0  0  0
  9 27  2  0  0  0
 10 11  2  0  0  0
 10 15  1  0  0  0
 11 12  1  0  0  0
 11 93  1  0  0  0
 12 13  2  0  0  0
 12 94  1  0  0  0
 13 14  1  0  0  0
 13 31  1  0  0  0
 14 15  2  0  0  0
 14 95  1  0  0  0
 15 96  1  0  0  0
 16 17  2  0  0  0
 16 21  1  0  0  0
 16 31  1  0  0  0
 17 18  1  0  0  0
 17 97  1  0  0  0
 18 19  2  0  0  0
 18 98  1  0  0  0
 19 20  1  0  0  0
 19 24  1  0  0  0
 20 21  2  0  0  0
 20 99  1  0  0  0
 21 23  1  0  0  0
 22 28  1  0  0  0
 22 32  2  0  0  0
 26 27  1  0  0  0
 28100  1  0  0  0
 28101  1  0  0  0
 29102  1  0  0  0
 29103  1  0  0  0
 33 34  1  0  0  0
 33 66  1  0  0  0
 33 70  2  0  0  0
 34 36  1  0  0  0
 34 59  1  0  0  0
 34104  1  0  0  0
 35 44  2  0  0  0
 35 45  1  0  0  0
 35 68  1  0  0  0
 36 56  1  0  0  0
 36105  1  0  0  0
 37 39  1  0  0  0
 37 47  1  0  0  0
 37 66  1  0  0  0
 37106  1  0  0  0
 38 43  2  0  0  0
 38 46  1  0  0  0
 38 47  1  0  0  0
 39 64  1  0  0  0
 39 67  2  0  0  0
 40 52  1  0  0  0
 40 53  2  0  0  0
 40 58  1  0  0  0
 41107  1  0  0  0
 41108  1  0  0  0
 41109  1  0  0  0
 41 48  1  0  0  0
 42 43  1  0  0  0
 42 66  1  0  0  0
 42110  1  0  0  0
 42111  1  0  0  0
 43 44  1  0  0  0
 44112  1  0  0  0
 45 46  2  0  0  0
 45113  1  0  0  0
 46114  1  0  0  0
 47115  1  0  0  0
 47116  1  0  0  0
 48 56  1  0  0  0
 48 65  1  0  0  0
 48117  1  0  0  0
 49 50  1  0  0  0
 49 53  1  0  0  0
 49 64  1  0  0  0
 49118  1  0  0  0
 50 51  1  0  0  0
 50119  1  0  0  0
 50120  1  0  0  0
 51 52  1  0  0  0
 51121  1  0  0  0
 51122  1  0  0  0
 52123  1  0  0  0
 52124  1  0  0  0
 53 54  1  0  0  0
 54 55  2  0  0  0
 54125  1  0  0  0
 55 57  1  0  0  0
 55126  1  0  0  0
 56 69  2  0  0  0
 57 58  2  0  0  0
 57127  1  0  0  0
 58128  1  0  0  0
 59 60  1  0  0  0
 59 61  1  0  0  0
 59 62  1  0  0  0
 60129  1  0  0  0
 60130  1  0  0  0
 60131  1  0  0  0
 61132  1  0  0  0
 61133  1  0  0  0
 61134  1  0  0  0
 62135  1  0  0  0
 62136  1  0  0  0
 62137  1  0  0  0
 63 65  1  0  0  0
 63138  1  0  0  0
 63139  1  0  0  0
 63140  1  0  0  0
 64141  1  0  0  0
 65142  1  0  0  0
 68 79  1  0  0  0
 71 72  1  0  0  0
 71 74  2  0  0  0
 71143  1  0  0  0
 72 73  2  0  0  0
 72 76  1  0  0  0
 73 77  1  0  0  0
 73 83  1  0  0  0
 74 81  1  0  0  0
 74 83  1  0  0  0
 75 78  1  0  0  0
 75 79  1  0  0  0
 75 82  2  0  0  0
 76 80  1  0  0  0
 76144  1  0  0  0
 76145  1  0  0  0
 77 80  1  0  0  0
 77146  1  0  0  0
 77147  1  0  0  0
 78 81  1  0  0  0
 78148  1  0  0  0
 78149  1  0  0  0
 79150  1  0  0  0
 79151  1  0  0  0
 81152  1  0  0  0
M  ISO  4   1 100  68 101  79 101  80 100
M  END
> <chiral flag>
0

> <version>
0

> <s_m_source_file>
/data/baiqing/PycharmProjects/Reinvent-master-3.2/result/LINK_invent/BTK/process_docking_weight1_custom_product_contain_oxygen_bond_distance_aromatic_linkinvent_7_9_3/rearranged_h_0146.sdf

> <i_m_source_file_index>
22

> <r_mmod_Potential_Energy-OPLS-2005>
169.71272277832

> <r_mmod_Stretch_Energy-OPLS-2005>
61.1086883544922

> <r_mmod_Bend_Energy-OPLS-2005>
200.522705078125

> <r_mmod_Torsional_Energy-OPLS-2005>
242.612243652344

> <r_mmod_Improper_Torsional_Energy-OPLS-2005>
17.3812789916992

> <r_mmod_Van_der_Waal_Energy-OPLS-2005>
117.193435668945

> <r_mmod_Electrostatic_Energy-OPLS-2005>
-263.803436279297

> <r_mmod_Solvation_Energy-OPLS-2005>
-236.370956420898

> <b_mmod_Minimization_Converged-OPLS-2005>
0

> <r_mmod_RMS_Derivative-OPLS-2005>
0.130121141672134

$$$$
22
                    3D
 Structure written by MMmdl.
161170  0  0  1  0            999 V2000
  -30.7103  -14.4604   20.5764 C   0  0  0  0  0  0
  -30.4213  -12.3002   19.4306 C   0  0  0  0  0  0
  -29.4961  -12.5037   18.2137 C   0  0  0  0  0  0
  -28.0194  -12.3514   18.6289 C   0  0  0  0  0  0
  -27.6607  -13.1999   19.8782 C   0  0  2  0  0  0
  -28.7016  -12.9972   21.0036 C   0  0  0  0  0  0
  -25.2581  -13.8146   20.5683 C   0  0  0  0  0  0
  -24.1828  -13.0429   20.9158 C   0  0  0  0  0  0
  -24.6375  -11.6892   20.8738 C   0  0  0  0  0  0
  -23.9040  -10.4287   21.0412 C   0  0  0  0  0  0
  -24.3590   -9.4210   21.9194 C   0  0  0  0  0  0
  -23.6263   -8.2251   22.0775 C   0  0  0  0  0  0
  -22.4252   -8.0277   21.3549 C   0  0  0  0  0  0
  -21.9886   -9.0248   20.4651 C   0  0  0  0  0  0
  -22.7213  -10.2129   20.3055 C   0  0  0  0  0  0
  -21.6844   -6.0720   22.5270 C   0  0  0  0  0  0
  -21.4006   -6.5625   23.8204 C   0  0  0  0  0  0
  -21.3660   -5.6780   24.9167 C   0  0  0  0  0  0
  -21.6041   -4.3041   24.7222 C   0  0  0  0  0  0
  -21.8818   -3.8134   23.4344 C   0  0  0  0  0  0
  -21.9196   -4.6948   22.3396 C   0  0  0  0  0  0
  -22.7852  -13.5237   21.1812 C   0  0  0  0  0  0
  -22.1660   -4.2137   21.0973 F   0  0  0  0  0  0
  -21.5644   -3.4529   25.7738 F   0  0  0  0  0  0
  -30.0327  -13.2892   20.4453 N   0  0  0  0  0  0
  -26.3015  -12.9303   20.3388 N   0  0  0  0  0  0
  -25.9304  -11.6467   20.5793 N   0  0  0  0  0  0
  -22.0484  -12.8247   22.0368 N   0  0  0  0  0  0
  -25.4283  -15.1867   20.4100 N   0  0  0  0  0  0
  -31.8505  -14.6288   20.1288 O   0  0  0  0  0  0
  -21.6630   -6.8866   21.4232 O   0  0  0  0  0  0
  -22.3562  -14.5565   20.6679 O   0  0  0  0  0  0
  -24.6132  -31.8683   23.2078 C   0  0  0  0  0  0
  -25.9020  -32.4831   23.8380 C   0  0  1  0  0  0
  -27.2427  -27.4403   20.0807 C   0  0  0  0  0  0
  -25.5859  -33.8633   24.2297 N   0  0  0  0  0  0
  -23.3993  -30.4890   21.5535 C   0  0  2  0  0  0
  -24.8449  -28.9508   20.1210 C   0  0  0  0  0  0
  -22.7387  -29.4665   22.5043 C   0  0  0  0  0  0
  -18.0258  -28.1370   22.8512 C   0  0  0  0  0  0
  -24.1495  -36.7352   23.2625 C   0  0  0  0  0  0
  -25.9254  -30.8374   21.3536 C   0  0  0  0  0  0
  -26.0048  -29.4676   20.7084 C   0  0  0  0  0  0
  -27.2028  -28.7168   20.6880 C   0  0  0  0  0  0
  -26.0536  -26.9303   19.5055 C   0  0  0  0  0  0
  -24.8631  -27.6804   19.5219 C   0  0  0  0  0  0
  -23.6021  -29.8103   20.1726 C   0  0  0  0  0  0
  -25.4107  -36.3123   24.0315 C   0  0  1  0  0  0
  -20.5855  -28.3663   23.1364 C   0  0  2  0  0  0
  -20.6758  -26.9411   22.5442 C   0  0  0  0  0  0
  -19.5739  -26.6387   21.5233 C   0  0  0  0  0  0
  -18.1913  -26.7919   22.1634 C   0  0  0  0  0  0
  -19.1508  -28.8830   23.2938 C   0  0  0  0  0  0
  -18.9422  -30.1439   23.8943 C   0  0  0  0  0  0
  -17.6423  -30.6584   24.0572 C   0  0  0  0  0  0
  -25.9028  -34.9480   23.5110 C   0  0  0  0  0  0
  -16.5320  -29.9082   23.6333 C   0  0  0  0  0  0
  -16.7245  -28.6500   23.0356 C   0  0  0  0  0  0
  -26.4396  -31.6612   25.0731 C   0  0  0  0  0  0
  -25.3604  -31.3752   26.1437 C   0  0  0  0  0  0
  -27.0184  -30.3035   24.6109 C   0  0  0  0  0  0
  -27.5981  -32.4287   25.7518 C   0  0  0  0  0  0
  -27.5580  -37.1827   24.8442 C   0  0  0  0  0  0
  -21.4114  -29.3041   22.3783 N   0  0  0  0  0  0
  -26.4298  -37.3803   23.9386 N   0  0  0  0  0  0
  -24.6656  -31.0783   22.0983 N   0  0  0  0  0  0
  -23.4165  -28.8193   23.3069 O   0  0  0  0  0  0
  -28.4414  -26.7500   20.0780 O   0  0  0  0  0  0
  -26.5624  -34.8935   22.4694 O   0  0  0  0  0  0
  -23.5329  -32.1430   23.7496 O   0  0  0  0  0  0
  -29.8789  -19.2418   20.3384 C   0  0  0  0  0  0
  -29.9017  -17.8590   20.6935 C   0  0  0  0  0  0
  -30.3291  -17.6252   21.9391 C   0  0  0  0  0  0
  -30.3364  -20.0441   21.3675 C   0  0  0  0  0  0
  -29.2396  -23.5980   20.9046 C   0  0  0  0  0  0
  -29.5965  -16.5578   20.0359 C   0  0  0  0  0  0
  -30.3788  -16.1870   22.2849 C   0  0  0  0  0  0
  -33.1615  -21.1523   21.3265 C   0  0  0  0  0  0
  -28.1319  -24.2510   20.0572 C   0  0  0  0  0  0
  -31.9535  -21.8923   20.7295 C   0  0  0  0  0  0
  -28.5752  -25.5404   19.3146 C   0  0  0  0  0  0
  -30.5862  -21.5347   21.3612 C   0  0  1  0  0  0
  -29.9840  -15.5087   21.0248 N   0  0  0  0  0  0
  -29.5188  -22.2954   20.6971 N   0  0  0  0  0  0
  -29.8430  -24.2727   21.7414 O   0  0  0  0  0  0
  -30.7468  -19.0777   22.7915 S   0  0  0  0  0  0
  -31.4679  -12.3901   19.1349 H   0  0  0  0  0  0
  -30.3112  -11.2927   19.8348 H   0  0  0  0  0  0
  -29.7435  -11.7897   17.4269 H   0  0  0  0  0  0
  -29.6555  -13.4959   17.7884 H   0  0  0  0  0  0
  -27.8434  -11.2948   18.8385 H   0  0  0  0  0  0
  -27.3637  -12.6090   17.7970 H   0  0  0  0  0  0
  -27.6995  -14.2432   19.5681 H   0  0  0  0  0  0
  -28.6758  -11.9699   21.3704 H   0  0  0  0  0  0
  -28.4680  -13.6251   21.8651 H   0  0  0  0  0  0
  -25.2735   -9.5694   22.4773 H   0  0  0  0  0  0
  -23.9961   -7.4651   22.7513 H   0  0  0  0  0  0
  -21.0821   -8.8749   19.8960 H   0  0  0  0  0  0
  -22.3659  -10.9657   19.6165 H   0  0  0  0  0  0
  -21.1983   -7.6130   23.9700 H   0  0  0  0  0  0
  -21.1489   -6.0513   25.9068 H   0  0  0  0  0  0
  -22.0602   -2.7595   23.2850 H   0  0  0  0  0  0
  -22.4063  -11.9870   22.4714 H   0  0  0  0  0  0
  -21.1129  -13.1325   22.2613 H   0  0  0  0  0  0
  -24.6625  -15.8413   20.5272 H   0  0  0  0  0  0
  -26.2851  -15.6300   20.1067 H   0  0  0  0  0  0
  -26.7116  -32.5549   23.1174 H   0  0  0  0  0  0
  -24.9912  -33.9798   25.0374 H   0  0  0  0  0  0
  -22.6875  -31.3057   21.4133 H   0  0  0  0  0  0
  -23.3733  -35.9708   23.3278 H   0  0  0  0  0  0
  -24.3589  -36.8991   22.2044 H   0  0  0  0  0  0
  -23.7272  -37.6563   23.6656 H   0  0  0  0  0  0
  -26.0179  -31.5952   20.5744 H   0  0  0  0  0  0
  -26.8215  -30.9084   21.9583 H   0  0  0  0  0  0
  -28.1042  -29.1195   21.1304 H   0  0  0  0  0  0
  -26.0206  -25.9523   19.0499 H   0  0  0  0  0  0
  -23.9654  -27.2688   19.0818 H   0  0  0  0  0  0
  -23.6917  -30.5773   19.4023 H   0  0  0  0  0  0
  -22.7284  -29.2168   19.8957 H   0  0  0  0  0  0
  -25.1285  -36.1986   25.0808 H   0  0  0  0  0  0
  -20.9933  -28.3221   24.1493 H   0  0  0  0  0  0
  -20.5689  -26.2259   23.3609 H   0  0  0  0  0  0
  -21.6626  -26.7481   22.1228 H   0  0  0  0  0  0
  -19.6913  -25.6302   21.1252 H   0  0  0  0  0  0
  -19.6683  -27.3213   20.6771 H   0  0  0  0  0  0
  -17.4191  -26.6685   21.4031 H   0  0  0  0  0  0
  -18.0312  -26.0054   22.9017 H   0  0  0  0  0  0
  -19.7889  -30.7251   24.2347 H   0  0  0  0  0  0
  -17.4963  -31.6271   24.5149 H   0  0  0  0  0  0
  -15.5321  -30.2975   23.7636 H   0  0  0  0  0  0
  -15.8649  -28.0813   22.7056 H   0  0  0  0  0  0
  -24.5829  -30.7037   25.7758 H   0  0  0  0  0  0
  -24.8705  -32.2917   26.4750 H   0  0  0  0  0  0
  -25.7886  -30.9019   27.0283 H   0  0  0  0  0  0
  -26.2756  -29.6896   24.0996 H   0  0  0  0  0  0
  -27.3739  -29.7173   25.4595 H   0  0  0  0  0  0
  -27.8674  -30.4322   23.9388 H   0  0  0  0  0  0
  -27.2620  -33.3591   26.2110 H   0  0  0  0  0  0
  -28.3806  -32.6826   25.0353 H   0  0  0  0  0  0
  -28.0609  -31.8370   26.5431 H   0  0  0  0  0  0
  -28.2585  -38.0139   24.7504 H   0  0  0  0  0  0
  -28.1097  -36.2668   24.6251 H   0  0  0  0  0  0
  -27.2299  -37.1458   25.8847 H   0  0  0  0  0  0
  -20.9250  -29.8773   21.7031 H   0  0  0  0  0  0
  -26.0187  -38.2887   24.1368 H   0  0  0  0  0  0
  -29.5774  -19.5855   19.3595 H   0  0  0  0  0  0
  -30.1401  -16.4625   19.0934 H   0  0  0  0  0  0
  -28.5335  -16.4742   19.8096 H   0  0  0  0  0  0
  -29.6662  -15.9497   23.0763 H   0  0  0  0  0  0
  -31.3769  -15.8974   22.6226 H   0  0  0  0  0  0
  -34.0890  -21.4992   20.8715 H   0  0  0  0  0  0
  -33.1017  -20.0779   21.1564 H   0  0  0  0  0  0
  -33.2394  -21.3180   22.4005 H   0  0  0  0  0  0
  -27.2698  -24.4546   20.6919 H   0  0  0  0  0  0
  -27.7922  -23.5246   19.3183 H   0  0  0  0  0  0
  -31.9200  -21.6848   19.6590 H   0  0  0  0  0  0
  -32.1294  -22.9655   20.8205 H   0  0  0  0  0  0
  -28.0694  -25.6252   18.3528 H   0  0  0  0  0  0
  -29.6282  -25.4499   19.0440 H   0  0  0  0  0  0
  -30.6117  -21.8582   22.4041 H   0  0  0  0  0  0
  -28.9681  -21.7976   20.0117 H   0  0  0  0  0  0
  1 25  1  0  0  0
  1 30  2  0  0  0
  1 83  1  0  0  0
  2  3  1  0  0  0
  2 25  1  0  0  0
  2 87  1  0  0  0
  2 88  1  0  0  0
  3  4  1  0  0  0
  3 89  1  0  0  0
  3 90  1  0  0  0
  4  5  1  0  0  0
  4 91  1  0  0  0
  4 92  1  0  0  0
  5  6  1  0  0  0
  5 26  1  0  0  0
  5 93  1  0  0  0
  6 25  1  0  0  0
  6 94  1  0  0  0
  6 95  1  0  0  0
  7  8  2  0  0  0
  7 26  1  0  0  0
  7 29  1  0  0  0
  8  9  1  0  0  0
  8 22  1  0  0  0
  9 10  1  0  0  0
  9 27  2  0  0  0
 10 11  2  0  0  0
 10 15  1  0  0  0
 11 12  1  0  0  0
 11 96  1  0  0  0
 12 13  2  0  0  0
 12 97  1  0  0  0
 13 14  1  0  0  0
 13 31  1  0  0  0
 14 15  2  0  0  0
 14 98  1  0  0  0
 15 99  1  0  0  0
 16 17  2  0  0  0
 16 21  1  0  0  0
 16 31  1  0  0  0
 17 18  1  0  0  0
 17100  1  0  0  0
 18 19  2  0  0  0
 18101  1  0  0  0
 19 20  1  0  0  0
 19 24  1  0  0  0
 20 21  2  0  0  0
 20102  1  0  0  0
 21 23  1  0  0  0
 22 28  1  0  0  0
 22 32  2  0  0  0
 26 27  1  0  0  0
 28103  1  0  0  0
 28104  1  0  0  0
 29105  1  0  0  0
 29106  1  0  0  0
 33 34  1  0  0  0
 33 66  1  0  0  0
 33 70  2  0  0  0
 34 36  1  0  0  0
 34 59  1  0  0  0
 34107  1  0  0  0
 35 44  2  0  0  0
 35 45  1  0  0  0
 35 68  1  0  0  0
 36 56  1  0  0  0
 36108  1  0  0  0
 37 39  1  0  0  0
 37 47  1  0  0  0
 37 66  1  0  0  0
 37109  1  0  0  0
 38 43  2  0  0  0
 38 46  1  0  0  0
 38 47  1  0  0  0
 39 64  1  0  0  0
 39 67  2  0  0  0
 40 52  1  0  0  0
 40 53  2  0  0  0
 40 58  1  0  0  0
 41110  1  0  0  0
 41111  1  0  0  0
 41112  1  0  0  0
 41 48  1  0  0  0
 42 43  1  0  0  0
 42 66  1  0  0  0
 42113  1  0  0  0
 42114  1  0  0  0
 43 44  1  0  0  0
 44115  1  0  0  0
 45 46  2  0  0  0
 45116  1  0  0  0
 46117  1  0  0  0
 47118  1  0  0  0
 47119  1  0  0  0
 48 56  1  0  0  0
 48 65  1  0  0  0
 48120  1  0  0  0
 49 50  1  0  0  0
 49 53  1  0  0  0
 49 64  1  0  0  0
 49121  1  0  0  0
 50 51  1  0  0  0
 50122  1  0  0  0
 50123  1  0  0  0
 51 52  1  0  0  0
 51124  1  0  0  0
 51125  1  0  0  0
 52126  1  0  0  0
 52127  1  0  0  0
 53 54  1  0  0  0
 54 55  2  0  0  0
 54128  1  0  0  0
 55 57  1  0  0  0
 55129  1  0  0  0
 56 69  2  0  0  0
 57 58  2  0  0  0
 57130  1  0  0  0
 58131  1  0  0  0
 59 60  1  0  0  0
 59 61  1  0  0  0
 59 62  1  0  0  0
 60132  1  0  0  0
 60133  1  0  0  0
 60134  1  0  0  0
 61135  1  0  0  0
 61136  1  0  0  0
 61137  1  0  0  0
 62138  1  0  0  0
 62139  1  0  0  0
 62140  1  0  0  0
 63 65  1  0  0  0
 63141  1  0  0  0
 63142  1  0  0  0
 63143  1  0  0  0
 64144  1  0  0  0
 65145  1  0  0  0
 68 81  1  0  0  0
 71 72  1  0  0  0
 71 74  2  0  0  0
 71146  1  0  0  0
 72 73  2  0  0  0
 72 76  1  0  0  0
 73 77  1  0  0  0
 73 86  1  0  0  0
 74 82  1  0  0  0
 74 86  1  0  0  0
 75 79  1  0  0  0
 75 84  1  0  0  0
 75 85  2  0  0  0
 76 83  1  0  0  0
 76147  1  0  0  0
 76148  1  0  0  0
 77 83  1  0  0  0
 77149  1  0  0  0
 77150  1  0  0  0
 78 80  1  0  0  0
 78151  1  0  0  0
 78152  1  0  0  0
 78153  1  0  0  0
 79 81  1  0  0  0
 79154  1  0  0  0
 79155  1  0  0  0
 80156  1  0  0  0
 80157  1  0  0  0
 80 82  1  0  0  0
 81158  1  0  0  0
 81159  1  0  0  0
 82 84  1  0  0  0
 82160  1  0  0  0
 84161  1  0  0  0
M  ISO  4   1 100  68 101  81 101  83 100
M  END
> <chiral flag>
0

> <version>
0

> <s_m_source_file>
/data/baiqing/PycharmProjects/Reinvent-master-3.2/result/LINK_invent/BTK/process_docking_weight1_custom_product_contain_oxygen_bond_distance_aromatic_linkinvent_7_9_3/rearranged_h_0146.sdf

> <i_m_source_file_index>
23

> <r_mmod_Potential_Energy-OPLS-2005>
-2.48864793777466

> <r_mmod_Stretch_Energy-OPLS-2005>
42.5016403198242

> <r_mmod_Bend_Energy-OPLS-2005>
176.18603515625

> <r_mmod_Torsional_Energy-OPLS-2005>
234.795333862305

> <r_mmod_Improper_Torsional_Energy-OPLS-2005>
9.28621578216553

> <r_mmod_Van_der_Waal_Energy-OPLS-2005>
123.711357116699

> <r_mmod_Electrostatic_Energy-OPLS-2005>
-370.885009765625

> <r_mmod_Solvation_Energy-OPLS-2005>
-230.691284179688

> <b_mmod_Minimization_Converged-OPLS-2005>
0

> <r_mmod_RMS_Derivative-OPLS-2005>
2.03909468650818

$$$$
23
                    3D
 Structure written by MMmdl.
168177  0  0  1  0            999 V2000
  -30.5529  -14.8922   20.3970 C   0  0  0  0  0  0
  -30.4419  -12.5457   19.4796 C   0  0  0  0  0  0
  -29.5156  -12.5053   18.2418 C   0  0  0  0  0  0
  -28.0464  -12.3076   18.6641 C   0  0  0  0  0  0
  -27.6330  -13.2395   19.8354 C   0  0  2  0  0  0
  -28.6812  -13.2380   20.9686 C   0  0  0  0  0  0
  -25.2482  -13.8206   20.5688 C   0  0  0  0  0  0
  -24.1787  -13.0434   20.9200 C   0  0  0  0  0  0
  -24.6388  -11.6920   20.8744 C   0  0  0  0  0  0
  -23.9071  -10.4287   21.0405 C   0  0  0  0  0  0
  -24.3625   -9.4201   21.9189 C   0  0  0  0  0  0
  -23.6293   -8.2253   22.0764 C   0  0  0  0  0  0
  -22.4270   -8.0284   21.3557 C   0  0  0  0  0  0
  -21.9913   -9.0249   20.4647 C   0  0  0  0  0  0
  -22.7256  -10.2128   20.3049 C   0  0  0  0  0  0
  -21.6852   -6.0739   22.5266 C   0  0  0  0  0  0
  -21.4009   -6.5633   23.8204 C   0  0  0  0  0  0
  -21.3649   -5.6781   24.9163 C   0  0  0  0  0  0
  -21.6038   -4.3049   24.7216 C   0  0  0  0  0  0
  -21.8827   -3.8141   23.4337 C   0  0  0  0  0  0
  -21.9198   -4.6961   22.3393 C   0  0  0  0  0  0
  -22.7800  -13.5212   21.1847 C   0  0  0  0  0  0
  -22.1665   -4.2146   21.0971 F   0  0  0  0  0  0
  -21.5625   -3.4531   25.7728 F   0  0  0  0  0  0
  -29.9610  -13.6362   20.3689 N   0  0  0  0  0  0
  -26.2901  -12.9424   20.3237 N   0  0  0  0  0  0
  -25.9324  -11.6558   20.5747 N   0  0  0  0  0  0
  -22.0444  -12.8212   22.0404 N   0  0  0  0  0  0
  -25.4128  -15.1941   20.4074 N   0  0  0  0  0  0
  -31.7598  -14.9606   20.1361 O   0  0  0  0  0  0
  -21.6631   -6.8884   21.4229 O   0  0  0  0  0  0
  -22.3484  -14.5521   20.6688 O   0  0  0  0  0  0
  -24.6416  -31.8422   23.1896 C   0  0  0  0  0  0
  -25.9201  -32.4673   23.8270 C   0  0  1  0  0  0
  -27.2108  -27.1518   20.1538 C   0  0  0  0  0  0
  -25.5953  -33.8475   24.2170 N   0  0  0  0  0  0
  -23.4415  -30.4646   21.5337 C   0  0  2  0  0  0
  -24.8889  -28.8880   20.1178 C   0  0  0  0  0  0
  -22.7548  -29.4550   22.4859 C   0  0  0  0  0  0
  -18.0298  -28.1424   22.8465 C   0  0  0  0  0  0
  -24.1470  -36.7188   23.2652 C   0  0  0  0  0  0
  -25.9972  -30.7245   21.3822 C   0  0  0  0  0  0
  -26.0675  -29.3367   20.7272 C   0  0  0  0  0  0
  -27.2337  -28.4863   20.7212 C   0  0  0  0  0  0
  -26.0035  -26.7877   19.5272 C   0  0  0  0  0  0
  -24.8671  -27.6252   19.5067 C   0  0  0  0  0  0
  -23.6673  -29.7918   20.1545 C   0  0  0  0  0  0
  -25.4095  -36.2984   24.0323 C   0  0  1  0  0  0
  -20.5911  -28.3700   23.1249 C   0  0  2  0  0  0
  -20.6796  -26.9404   22.5418 C   0  0  0  0  0  0
  -19.5769  -26.6391   21.5234 C   0  0  0  0  0  0
  -18.1933  -26.7969   22.1610 C   0  0  0  0  0  0
  -19.1566  -28.8885   23.2851 C   0  0  0  0  0  0
  -18.9485  -30.1488   23.8862 C   0  0  0  0  0  0
  -17.6478  -30.6607   24.0573 C   0  0  0  0  0  0
  -25.9058  -34.9379   23.5041 C   0  0  0  0  0  0
  -16.5365  -29.9099   23.6379 C   0  0  0  0  0  0
  -16.7289  -28.6531   23.0366 C   0  0  0  0  0  0
  -26.4559  -31.6548   25.0692 C   0  0  0  0  0  0
  -25.3755  -31.3732   26.1381 C   0  0  0  0  0  0
  -27.0451  -30.2960   24.6245 C   0  0  0  0  0  0
  -27.6064  -32.4345   25.7487 C   0  0  0  0  0  0
  -27.5538  -37.1731   24.8472 C   0  0  0  0  0  0
  -21.4241  -29.3023   22.3615 N   0  0  0  0  0  0
  -26.4231  -37.3718   23.9451 N   0  0  0  0  0  0
  -24.7129  -31.0319   22.0919 N   0  0  0  0  0  0
  -23.4224  -28.8102   23.2997 O   0  0  0  0  0  0
  -28.2833  -26.2007   20.1313 O   0  0  0  0  0  0
  -26.5635  -34.8884   22.4619 O   0  0  0  0  0  0
  -23.5529  -32.1293   23.7138 O   0  0  0  0  0  0
  -30.9975  -19.5056   20.1838 C   0  0  0  0  0  0
  -31.2056  -18.0771   20.2934 C   0  0  0  0  0  0
  -29.6536  -19.8047   20.1935 C   0  0  0  0  0  0
  -29.9856  -17.4564   20.3699 C   0  0  0  0  0  0
  -29.6842  -22.4440   19.7761 C   0  0  0  0  0  0
  -28.0530  -21.8925   20.8630 C   0  0  2  0  0  0
  -28.3237  -23.2447   20.0008 C   0  0  2  0  0  0
  -27.4686  -23.3669   18.7340 C   0  0  0  0  0  0
  -26.3306  -21.6028   23.5817 C   0  0  0  0  0  0
  -28.4650  -20.8409   24.6537 C   0  0  0  0  0  0
  -27.4595  -19.5024   22.8093 C   0  0  0  0  0  0
  -28.5389  -21.7933   22.3363 C   0  0  0  0  0  0
  -28.1441  -24.7672   20.7011 C   0  0  0  0  0  0
  -27.6936  -20.9349   23.3208 C   0  0  0  0  0  0
  -28.9654  -21.1438   19.9511 N   0  0  0  0  0  0
  -29.7433  -16.0491   20.4959 N   0  0  0  0  0  0
  -29.0162  -18.5181   20.2942 O   0  0  0  0  0  0
  -31.4761  -12.6976   19.1652 H   0  0  0  0  0  0
  -30.4321  -11.5893   20.0056 H   0  0  0  0  0  0
  -29.8219  -11.7035   17.5689 H   0  0  0  0  0  0
  -29.6129  -13.4336   17.6773 H   0  0  0  0  0  0
  -27.9300  -11.2653   18.9674 H   0  0  0  0  0  0
  -27.3820  -12.4471   17.8105 H   0  0  0  0  0  0
  -27.6016  -14.2453   19.4153 H   0  0  0  0  0  0
  -28.7579  -12.2491   21.4237 H   0  0  0  0  0  0
  -28.3962  -13.9237   21.7670 H   0  0  0  0  0  0
  -25.2772   -9.5677   22.4757 H   0  0  0  0  0  0
  -23.9977   -7.4648   22.7501 H   0  0  0  0  0  0
  -21.0844   -8.8772   19.8953 H   0  0  0  0  0  0
  -22.3716  -10.9659   19.6140 H   0  0  0  0  0  0
  -21.1995   -7.6141   23.9707 H   0  0  0  0  0  0
  -21.1453   -6.0508   25.9065 H   0  0  0  0  0  0
  -22.0621   -2.7601   23.2829 H   0  0  0  0  0  0
  -22.4039  -11.9857   22.4784 H   0  0  0  0  0  0
  -21.1062  -13.1237   22.2604 H   0  0  0  0  0  0
  -24.6376  -15.8399   20.5129 H   0  0  0  0  0  0
  -26.2494  -15.6397   20.0548 H   0  0  0  0  0  0
  -26.7240  -32.5282   23.0970 H   0  0  0  0  0  0
  -25.0161  -33.9618   25.0357 H   0  0  0  0  0  0
  -22.7399  -31.2874   21.3782 H   0  0  0  0  0  0
  -23.3772  -35.9488   23.3295 H   0  0  0  0  0  0
  -24.3540  -36.8834   22.2071 H   0  0  0  0  0  0
  -23.7183  -37.6355   23.6700 H   0  0  0  0  0  0
  -26.1494  -31.4785   20.6084 H   0  0  0  0  0  0
  -26.8712  -30.7748   22.0199 H   0  0  0  0  0  0
  -28.1415  -28.8291   21.1962 H   0  0  0  0  0  0
  -25.9279  -25.8179   19.0573 H   0  0  0  0  0  0
  -23.9613  -27.2743   19.0324 H   0  0  0  0  0  0
  -23.8054  -30.5640   19.3984 H   0  0  0  0  0  0
  -22.7819  -29.2352   19.8407 H   0  0  0  0  0  0
  -25.1288  -36.1781   25.0814 H   0  0  0  0  0  0
  -20.9989  -28.3294   24.1378 H   0  0  0  0  0  0
  -20.5726  -26.2293   23.3627 H   0  0  0  0  0  0
  -21.6648  -26.7441   22.1171 H   0  0  0  0  0  0
  -19.6924  -25.6319   21.1235 H   0  0  0  0  0  0
  -19.6740  -27.3222   20.6796 H   0  0  0  0  0  0
  -17.4216  -26.6747   21.3998 H   0  0  0  0  0  0
  -18.0281  -26.0122   22.9011 H   0  0  0  0  0  0
  -19.7969  -30.7320   24.2187 H   0  0  0  0  0  0
  -17.5049  -31.6291   24.5176 H   0  0  0  0  0  0
  -15.5372  -30.2984   23.7779 H   0  0  0  0  0  0
  -15.8674  -28.0861   22.7104 H   0  0  0  0  0  0
  -24.5976  -30.7010   25.7731 H   0  0  0  0  0  0
  -24.8907  -32.2918   26.4693 H   0  0  0  0  0  0
  -25.8061  -30.9011   27.0221 H   0  0  0  0  0  0
  -26.3072  -29.6642   24.1264 H   0  0  0  0  0  0
  -27.4143  -29.7265   25.4792 H   0  0  0  0  0  0
  -27.8940  -30.4248   23.9518 H   0  0  0  0  0  0
  -27.2634  -33.3700   26.1923 H   0  0  0  0  0  0
  -28.3953  -32.6805   25.0365 H   0  0  0  0  0  0
  -28.0634  -31.8555   26.5519 H   0  0  0  0  0  0
  -28.2521  -38.0070   24.7530 H   0  0  0  0  0  0
  -28.1065  -36.2569   24.6272 H   0  0  0  0  0  0
  -27.2253  -37.1330   25.8883 H   0  0  0  0  0  0
  -20.9450  -29.8671   21.6730 H   0  0  0  0  0  0
  -26.0073  -38.2760   24.1563 H   0  0  0  0  0  0
  -31.7797  -20.2447   20.0768 H   0  0  0  0  0  0
  -32.1617  -17.5731   20.3032 H   0  0  0  0  0  0
  -30.4338  -22.6311   20.5484 H   0  0  0  0  0  0
  -30.1125  -22.5765   18.7814 H   0  0  0  0  0  0
  -27.0183  -21.5696   20.7370 H   0  0  0  0  0  0
  -27.5804  -22.5051   18.0744 H   0  0  0  0  0  0
  -27.7451  -24.2438   18.1478 H   0  0  0  0  0  0
  -26.4095  -23.4505   18.9775 H   0  0  0  0  0  0
  -25.7528  -21.0466   24.3211 H   0  0  0  0  0  0
  -25.7248  -21.6574   22.6765 H   0  0  0  0  0  0
  -26.4507  -22.6177   23.9626 H   0  0  0  0  0  0
  -27.9158  -20.2708   25.4032 H   0  0  0  0  0  0
  -28.6673  -21.8273   25.0715 H   0  0  0  0  0  0
  -29.4296  -20.3471   24.5202 H   0  0  0  0  0  0
  -26.8160  -18.9379   23.4849 H   0  0  0  0  0  0
  -28.3995  -18.9547   22.7354 H   0  0  0  0  0  0
  -26.9839  -19.4922   21.8287 H   0  0  0  0  0  0
  -28.6019  -22.7970   22.7544 H   0  0  0  0  0  0
  -29.5682  -21.4329   22.3732 H   0  0  0  0  0  0
  -28.8288  -24.7894   21.5477 H   0  0  0  0  0  0
  -27.1647  -24.7584   21.1840 H   0  0  0  0  0  0
  -28.7731  -15.8175   20.6388 H   0  0  0  0  0  0
  1 25  1  0  0  0
  1 30  2  0  0  0
  1 86  1  0  0  0
  2  3  1  0  0  0
  2 25  1  0  0  0
  2 88  1  0  0  0
  2 89  1  0  0  0
  3  4  1  0  0  0
  3 90  1  0  0  0
  3 91  1  0  0  0
  4  5  1  0  0  0
  4 92  1  0  0  0
  4 93  1  0  0  0
  5  6  1  0  0  0
  5 26  1  0  0  0
  5 94  1  0  0  0
  6 25  1  0  0  0
  6 95  1  0  0  0
  6 96  1  0  0  0
  7  8  2  0  0  0
  7 26  1  0  0  0
  7 29  1  0  0  0
  8  9  1  0  0  0
  8 22  1  0  0  0
  9 10  1  0  0  0
  9 27  2  0  0  0
 10 11  2  0  0  0
 10 15  1  0  0  0
 11 12  1  0  0  0
 11 97  1  0  0  0
 12 13  2  0  0  0
 12 98  1  0  0  0
 13 14  1  0  0  0
 13 31  1  0  0  0
 14 15  2  0  0  0
 14 99  1  0  0  0
 15100  1  0  0  0
 16 17  2  0  0  0
 16 21  1  0  0  0
 16 31  1  0  0  0
 17 18  1  0  0  0
 17101  1  0  0  0
 18 19  2  0  0  0
 18102  1  0  0  0
 19 20  1  0  0  0
 19 24  1  0  0  0
 20 21  2  0  0  0
 20103  1  0  0  0
 21 23  1  0  0  0
 22 28  1  0  0  0
 22 32  2  0  0  0
 26 27  1  0  0  0
 28104  1  0  0  0
 28105  1  0  0  0
 29106  1  0  0  0
 29107  1  0  0  0
 33 34  1  0  0  0
 33 66  1  0  0  0
 33 70  2  0  0  0
 34 36  1  0  0  0
 34 59  1  0  0  0
 34108  1  0  0  0
 35 44  2  0  0  0
 35 45  1  0  0  0
 35 68  1  0  0  0
 36 56  1  0  0  0
 36109  1  0  0  0
 37 39  1  0  0  0
 37 47  1  0  0  0
 37 66  1  0  0  0
 37110  1  0  0  0
 38 43  2  0  0  0
 38 46  1  0  0  0
 38 47  1  0  0  0
 39 64  1  0  0  0
 39 67  2  0  0  0
 40 52  1  0  0  0
 40 53  2  0  0  0
 40 58  1  0  0  0
 41111  1  0  0  0
 41112  1  0  0  0
 41113  1  0  0  0
 41 48  1  0  0  0
 42 43  1  0  0  0
 42 66  1  0  0  0
 42114  1  0  0  0
 42115  1  0  0  0
 43 44  1  0  0  0
 44116  1  0  0  0
 45 46  2  0  0  0
 45117  1  0  0  0
 46118  1  0  0  0
 47119  1  0  0  0
 47120  1  0  0  0
 48 56  1  0  0  0
 48 65  1  0  0  0
 48121  1  0  0  0
 49 50  1  0  0  0
 49 53  1  0  0  0
 49 64  1  0  0  0
 49122  1  0  0  0
 50 51  1  0  0  0
 50123  1  0  0  0
 50124  1  0  0  0
 51 52  1  0  0  0
 51125  1  0  0  0
 51126  1  0  0  0
 52127  1  0  0  0
 52128  1  0  0  0
 53 54  1  0  0  0
 54 55  2  0  0  0
 54129  1  0  0  0
 55 57  1  0  0  0
 55130  1  0  0  0
 56 69  2  0  0  0
 57 58  2  0  0  0
 57131  1  0  0  0
 58132  1  0  0  0
 59 60  1  0  0  0
 59 61  1  0  0  0
 59 62  1  0  0  0
 60133  1  0  0  0
 60134  1  0  0  0
 60135  1  0  0  0
 61136  1  0  0  0
 61137  1  0  0  0
 61138  1  0  0  0
 62139  1  0  0  0
 62140  1  0  0  0
 62141  1  0  0  0
 63 65  1  0  0  0
 63142  1  0  0  0
 63143  1  0  0  0
 63144  1  0  0  0
 64145  1  0  0  0
 65146  1  0  0  0
 68 83  1  0  0  0
 71 72  1  0  0  0
 71 73  2  0  0  0
 71147  1  0  0  0
 72 74  2  0  0  0
 72148  1  0  0  0
 73 85  1  0  0  0
 73 87  1  0  0  0
 74 86  1  0  0  0
 74 87  1  0  0  0
 75 77  1  0  0  0
 75 85  1  0  0  0
 75149  1  0  0  0
 75150  1  0  0  0
 76 77  1  0  0  0
 76 82  1  0  0  0
 76 85  1  0  0  0
 76151  1  0  0  0
 77 78  1  0  0  0
 77 83  1  0  0  0
 78152  1  0  0  0
 78153  1  0  0  0
 78154  1  0  0  0
 79155  1  0  0  0
 79156  1  0  0  0
 79157  1  0  0  0
 79 84  1  0  0  0
 80 84  1  0  0  0
 80158  1  0  0  0
 80159  1  0  0  0
 80160  1  0  0  0
 81 84  1  0  0  0
 81161  1  0  0  0
 81162  1  0  0  0
 81163  1  0  0  0
 82 84  1  0  0  0
 82164  1  0  0  0
 82165  1  0  0  0
 83166  1  0  0  0
 83167  1  0  0  0
 86168  1  0  0  0
M  ISO  4   1 100  68 101  83 101  86 100
M  END
> <chiral flag>
0

> <version>
0

> <s_m_source_file>
/data/baiqing/PycharmProjects/Reinvent-master-3.2/result/LINK_invent/BTK/process_docking_weight1_custom_product_contain_oxygen_bond_distance_aromatic_linkinvent_7_9_3/rearranged_h_0146.sdf

> <i_m_source_file_index>
24

> <r_mmod_Potential_Energy-OPLS-2005>
499.638916015625

> <r_mmod_Stretch_Energy-OPLS-2005>
206.593734741211

> <r_mmod_Bend_Energy-OPLS-2005>
299.876617431641

> <r_mmod_Torsional_Energy-OPLS-2005>
298.896179199219

> <r_mmod_Improper_Torsional_Energy-OPLS-2005>
12.3829460144043

> <r_mmod_Van_der_Waal_Energy-OPLS-2005>
112.040718078613

> <r_mmod_Electrostatic_Energy-OPLS-2005>
-381.586456298828

> <r_mmod_Solvation_Energy-OPLS-2005>
-210.199264526367

> <b_mmod_Minimization_Converged-OPLS-2005>
0

> <r_mmod_RMS_Derivative-OPLS-2005>
3.02363896369934

$$$$
24
                    3D
 Structure written by MMmdl.
161169  0  0  1  0            999 V2000
  -30.6678  -14.5728   20.5293 C   0  0  0  0  0  0
  -30.4215  -12.3596   19.4372 C   0  0  0  0  0  0
  -29.4954  -12.4910   18.2107 C   0  0  0  0  0  0
  -28.0180  -12.3429   18.6260 C   0  0  0  0  0  0
  -27.6482  -13.2151   19.8561 C   0  0  2  0  0  0
  -28.6916  -13.0697   20.9842 C   0  0  0  0  0  0
  -25.2541  -13.8175   20.5675 C   0  0  0  0  0  0
  -24.1814  -13.0446   20.9180 C   0  0  0  0  0  0
  -24.6388  -11.6910   20.8749 C   0  0  0  0  0  0
  -23.9071  -10.4296   21.0413 C   0  0  0  0  0  0
  -24.3618   -9.4208   21.9197 C   0  0  0  0  0  0
  -23.6290   -8.2247   22.0762 C   0  0  0  0  0  0
  -22.4270   -8.0290   21.3548 C   0  0  0  0  0  0
  -21.9916   -9.0258   20.4641 C   0  0  0  0  0  0
  -22.7246  -10.2138   20.3056 C   0  0  0  0  0  0
  -21.6858   -6.0739   22.5281 C   0  0  0  0  0  0
  -21.4007   -6.5641   23.8210 C   0  0  0  0  0  0
  -21.3655   -5.6797   24.9173 C   0  0  0  0  0  0
  -21.6039   -4.3059   24.7221 C   0  0  0  0  0  0
  -21.8825   -3.8151   23.4344 C   0  0  0  0  0  0
  -21.9185   -4.6970   22.3396 C   0  0  0  0  0  0
  -22.7837  -13.5230   21.1846 C   0  0  0  0  0  0
  -22.1662   -4.2156   21.0978 F   0  0  0  0  0  0
  -21.5626   -3.4537   25.7732 F   0  0  0  0  0  0
  -30.0055  -13.3858   20.4095 N   0  0  0  0  0  0
  -26.2956  -12.9353   20.3285 N   0  0  0  0  0  0
  -25.9310  -11.6512   20.5748 N   0  0  0  0  0  0
  -22.0476  -12.8222   22.0393 N   0  0  0  0  0  0
  -25.4236  -15.1896   20.4071 N   0  0  0  0  0  0
  -31.8416  -14.6939   20.1679 O   0  0  0  0  0  0
  -21.6633   -6.8885   21.4242 O   0  0  0  0  0  0
  -22.3523  -14.5536   20.6692 O   0  0  0  0  0  0
  -24.6201  -31.8637   23.2045 C   0  0  0  0  0  0
  -25.9070  -32.4798   23.8362 C   0  0  1  0  0  0
  -27.2255  -27.3603   20.0938 C   0  0  0  0  0  0
  -25.5883  -33.8596   24.2288 N   0  0  0  0  0  0
  -23.4133  -30.4874   21.5456 C   0  0  2  0  0  0
  -24.8581  -28.9426   20.1116 C   0  0  0  0  0  0
  -22.7455  -29.4641   22.4941 C   0  0  0  0  0  0
  -18.0286  -28.1376   22.8480 C   0  0  0  0  0  0
  -24.1486  -36.7308   23.2637 C   0  0  0  0  0  0
  -25.9494  -30.8010   21.3731 C   0  0  0  0  0  0
  -26.0221  -29.4304   20.7171 C   0  0  0  0  0  0
  -27.2048  -28.6444   20.7082 C   0  0  0  0  0  0
  -26.0351  -26.9030   19.4840 C   0  0  0  0  0  0
  -24.8619  -27.6819   19.4930 C   0  0  0  0  0  0
  -23.6266  -29.8213   20.1604 C   0  0  0  0  0  0
  -25.4112  -36.3094   24.0327 C   0  0  1  0  0  0
  -20.5885  -28.3672   23.1292 C   0  0  2  0  0  0
  -20.6780  -26.9402   22.5397 C   0  0  0  0  0  0
  -19.5744  -26.6380   21.5199 C   0  0  0  0  0  0
  -18.1924  -26.7908   22.1625 C   0  0  0  0  0  0
  -19.1534  -28.8838   23.2887 C   0  0  0  0  0  0
  -18.9463  -30.1438   23.8896 C   0  0  0  0  0  0
  -17.6473  -30.6584   24.0545 C   0  0  0  0  0  0
  -25.9041  -34.9460   23.5122 C   0  0  0  0  0  0
  -16.5365  -29.9087   23.6321 C   0  0  0  0  0  0
  -16.7276  -28.6504   23.0339 C   0  0  0  0  0  0
  -26.4470  -31.6595   25.0718 C   0  0  0  0  0  0
  -25.3688  -31.3705   26.1429 C   0  0  0  0  0  0
  -27.0306  -30.3021   24.6147 C   0  0  0  0  0  0
  -27.6036  -32.4315   25.7494 C   0  0  0  0  0  0
  -27.5591  -37.1817   24.8466 C   0  0  0  0  0  0
  -21.4168  -29.3045   22.3697 N   0  0  0  0  0  0
  -26.4302  -37.3788   23.9404 N   0  0  0  0  0  0
  -24.6787  -31.0673   22.0985 N   0  0  0  0  0  0
  -23.4212  -28.8168   23.2986 O   0  0  0  0  0  0
  -28.3789  -26.5791   20.1349 O   0  0  0  0  0  0
  -26.5627  -34.8920   22.4706 O   0  0  0  0  0  0
  -23.5379  -32.1412   23.7397 O   0  0  0  0  0  0
  -31.4354  -16.9548   22.2628 C   0  0  0  0  0  0
  -31.9433  -18.1490   22.7924 C   0  0  0  0  0  0
  -29.8517  -18.2298   20.9007 C   0  0  0  0  0  0
  -30.3988  -16.9587   21.3047 C   0  0  0  0  0  0
  -30.3867  -19.4566   21.4256 C   0  0  0  0  0  0
  -31.4299  -19.3985   22.3819 C   0  0  0  0  0  0
  -29.0471  -21.4837   20.4742 C   0  0  0  0  0  0
  -33.0464  -22.0412   24.4037 C   0  0  0  0  0  0
  -29.2301  -23.0413   20.4214 C   0  0  0  0  0  0
  -28.0773  -23.9644   19.8738 C   0  0  0  0  0  0
  -32.8483  -20.5985   23.9317 C   0  0  0  0  0  0
  -28.5111  -25.3777   19.3165 C   0  0  0  0  0  0
  -30.0607  -20.8242   21.0791 N   0  0  0  0  0  0
  -29.9182  -15.6734   20.8357 N   0  0  0  0  0  0
  -28.0612  -20.9282   19.9846 O   0  0  0  0  0  0
  -31.9014  -20.6049   22.8706 O   0  0  0  0  0  0
  -31.4652  -12.4665   19.1350 H   0  0  0  0  0  0
  -30.3387  -11.3650   19.8782 H   0  0  0  0  0  0
  -29.7491  -11.7369   17.4640 H   0  0  0  0  0  0
  -29.6513  -13.4588   17.7332 H   0  0  0  0  0  0
  -27.8439  -11.2911   18.8522 H   0  0  0  0  0  0
  -27.3656  -12.5819   17.7854 H   0  0  0  0  0  0
  -27.6674  -14.2499   19.5148 H   0  0  0  0  0  0
  -28.6901  -12.0542   21.3827 H   0  0  0  0  0  0
  -28.4491  -13.7220   21.8256 H   0  0  0  0  0  0
  -25.2764   -9.5681   22.4772 H   0  0  0  0  0  0
  -23.9989   -7.4641   22.7499 H   0  0  0  0  0  0
  -21.0847   -8.8786   19.8944 H   0  0  0  0  0  0
  -22.3718  -10.9680   19.6158 H   0  0  0  0  0  0
  -21.2010   -7.6153   23.9717 H   0  0  0  0  0  0
  -21.1465   -6.0523   25.9075 H   0  0  0  0  0  0
  -22.0606   -2.7616   23.2839 H   0  0  0  0  0  0
  -22.4081  -11.9865   22.4766 H   0  0  0  0  0  0
  -21.1091  -13.1246   22.2597 H   0  0  0  0  0  0
  -24.6537  -15.8414   20.5120 H   0  0  0  0  0  0
  -26.2694  -15.6323   20.0720 H   0  0  0  0  0  0
  -26.7146  -32.5484   23.1107 H   0  0  0  0  0  0
  -24.9936  -33.9736   25.0377 H   0  0  0  0  0  0
  -22.7046  -31.3060   21.4057 H   0  0  0  0  0  0
  -23.3752  -35.9641   23.3287 H   0  0  0  0  0  0
  -24.3548  -36.8930   22.2053 H   0  0  0  0  0  0
  -23.7237  -37.6505   23.6674 H   0  0  0  0  0  0
  -26.0762  -31.5669   20.6069 H   0  0  0  0  0  0
  -26.8317  -30.8507   21.9989 H   0  0  0  0  0  0
  -28.1018  -29.0117   21.1863 H   0  0  0  0  0  0
  -25.9796  -25.9324   19.0152 H   0  0  0  0  0  0
  -23.9653  -27.3005   19.0247 H   0  0  0  0  0  0
  -23.7495  -30.5987   19.4051 H   0  0  0  0  0  0
  -22.7478  -29.2498   19.8564 H   0  0  0  0  0  0
  -25.1295  -36.1951   25.0817 H   0  0  0  0  0  0
  -20.9975  -28.3244   24.1404 H   0  0  0  0  0  0
  -20.5668  -26.2277   23.3591 H   0  0  0  0  0  0
  -21.6659  -26.7434   22.1188 H   0  0  0  0  0  0
  -19.6895  -25.6288   21.1213 H   0  0  0  0  0  0
  -19.6670  -27.3210   20.6739 H   0  0  0  0  0  0
  -17.4188  -26.6634   21.4036 H   0  0  0  0  0  0
  -18.0344  -26.0064   22.9032 H   0  0  0  0  0  0
  -19.7959  -30.7241   24.2275 H   0  0  0  0  0  0
  -17.5042  -31.6258   24.5168 H   0  0  0  0  0  0
  -15.5360  -30.2989   23.7658 H   0  0  0  0  0  0
  -15.8663  -28.0827   22.7043 H   0  0  0  0  0  0
  -24.5896  -30.7023   25.7737 H   0  0  0  0  0  0
  -24.8828  -32.2852   26.4849 H   0  0  0  0  0  0
  -25.7991  -30.8887   27.0212 H   0  0  0  0  0  0
  -26.2873  -29.6783   24.1166 H   0  0  0  0  0  0
  -27.4008  -29.7267   25.4642 H   0  0  0  0  0  0
  -27.8742  -30.4316   23.9352 H   0  0  0  0  0  0
  -27.2672  -33.3635   26.2061 H   0  0  0  0  0  0
  -28.3869  -32.6830   25.0325 H   0  0  0  0  0  0
  -28.0680  -31.8417   26.5412 H   0  0  0  0  0  0
  -28.2606  -38.0124   24.7524 H   0  0  0  0  0  0
  -28.1082  -36.2647   24.6288 H   0  0  0  0  0  0
  -27.2280  -37.1445   25.8859 H   0  0  0  0  0  0
  -20.9334  -29.8792   21.6928 H   0  0  0  0  0  0
  -26.0179  -38.2852   24.1414 H   0  0  0  0  0  0
  -31.8559  -16.0228   22.6155 H   0  0  0  0  0  0
  -32.7421  -18.0736   23.5145 H   0  0  0  0  0  0
  -29.0534  -18.2676   20.1727 H   0  0  0  0  0  0
  -33.7705  -22.0889   25.2169 H   0  0  0  0  0  0
  -32.1099  -22.4647   24.7676 H   0  0  0  0  0  0
  -33.4114  -22.6755   23.5955 H   0  0  0  0  0  0
  -30.1171  -23.2017   19.8067 H   0  0  0  0  0  0
  -29.5008  -23.3900   21.4184 H   0  0  0  0  0  0
  -27.2865  -24.0763   20.6149 H   0  0  0  0  0  0
  -27.6111  -23.4296   19.0451 H   0  0  0  0  0  0
  -32.4929  -19.9931   24.7677 H   0  0  0  0  0  0
  -33.7998  -20.1846   23.5923 H   0  0  0  0  0  0
  -28.0264  -25.5446   18.3543 H   0  0  0  0  0  0
  -29.5663  -25.3193   19.0489 H   0  0  0  0  0  0
  -30.7521  -21.4601   21.4575 H   0  0  0  0  0  0
  -28.9184  -15.5409   20.8308 H   0  0  0  0  0  0
  1 25  1  0  0  0
  1 30  2  0  0  0
  1 84  1  0  0  0
  2  3  1  0  0  0
  2 25  1  0  0  0
  2 87  1  0  0  0
  2 88  1  0  0  0
  3  4  1  0  0  0
  3 89  1  0  0  0
  3 90  1  0  0  0
  4  5  1  0  0  0
  4 91  1  0  0  0
  4 92  1  0  0  0
  5  6  1  0  0  0
  5 26  1  0  0  0
  5 93  1  0  0  0
  6 25  1  0  0  0
  6 94  1  0  0  0
  6 95  1  0  0  0
  7  8  2  0  0  0
  7 26  1  0  0  0
  7 29  1  0  0  0
  8  9  1  0  0  0
  8 22  1  0  0  0
  9 10  1  0  0  0
  9 27  2  0  0  0
 10 11  2  0  0  0
 10 15  1  0  0  0
 11 12  1  0  0  0
 11 96  1  0  0  0
 12 13  2  0  0  0
 12 97  1  0  0  0
 13 14  1  0  0  0
 13 31  1  0  0  0
 14 15  2  0  0  0
 14 98  1  0  0  0
 15 99  1  0  0  0
 16 17  2  0  0  0
 16 21  1  0  0  0
 16 31  1  0  0  0
 17 18  1  0  0  0
 17100  1  0  0  0
 18 19  2  0  0  0
 18101  1  0  0  0
 19 20  1  0  0  0
 19 24  1  0  0  0
 20 21  2  0  0  0
 20102  1  0  0  0
 21 23  1  0  0  0
 22 28  1  0  0  0
 22 32  2  0  0  0
 26 27  1  0  0  0
 28103  1  0  0  0
 28104  1  0  0  0
 29105  1  0  0  0
 29106  1  0  0  0
 33 34  1  0  0  0
 33 66  1  0  0  0
 33 70  2  0  0  0
 34 36  1  0  0  0
 34 59  1  0  0  0
 34107  1  0  0  0
 35 44  2  0  0  0
 35 45  1  0  0  0
 35 68  1  0  0  0
 36 56  1  0  0  0
 36108  1  0  0  0
 37 39  1  0  0  0
 37 47  1  0  0  0
 37 66  1  0  0  0
 37109  1  0  0  0
 38 43  2  0  0  0
 38 46  1  0  0  0
 38 47  1  0  0  0
 39 64  1  0  0  0
 39 67  2  0  0  0
 40 52  1  0  0  0
 40 53  2  0  0  0
 40 58  1  0  0  0
 41110  1  0  0  0
 41111  1  0  0  0
 41112  1  0  0  0
 41 48  1  0  0  0
 42 43  1  0  0  0
 42 66  1  0  0  0
 42113  1  0  0  0
 42114  1  0  0  0
 43 44  1  0  0  0
 44115  1  0  0  0
 45 46  2  0  0  0
 45116  1  0  0  0
 46117  1  0  0  0
 47118  1  0  0  0
 47119  1  0  0  0
 48 56  1  0  0  0
 48 65  1  0  0  0
 48120  1  0  0  0
 49 50  1  0  0  0
 49 53  1  0  0  0
 49 64  1  0  0  0
 49121  1  0  0  0
 50 51  1  0  0  0
 50122  1  0  0  0
 50123  1  0  0  0
 51 52  1  0  0  0
 51124  1  0  0  0
 51125  1  0  0  0
 52126  1  0  0  0
 52127  1  0  0  0
 53 54  1  0  0  0
 54 55  2  0  0  0
 54128  1  0  0  0
 55 57  1  0  0  0
 55129  1  0  0  0
 56 69  2  0  0  0
 57 58  2  0  0  0
 57130  1  0  0  0
 58131  1  0  0  0
 59 60  1  0  0  0
 59 61  1  0  0  0
 59 62  1  0  0  0
 60132  1  0  0  0
 60133  1  0  0  0
 60134  1  0  0  0
 61135  1  0  0  0
 61136  1  0  0  0
 61137  1  0  0  0
 62138  1  0  0  0
 62139  1  0  0  0
 62140  1  0  0  0
 63 65  1  0  0  0
 63141  1  0  0  0
 63142  1  0  0  0
 63143  1  0  0  0
 64144  1  0  0  0
 65145  1  0  0  0
 68 82  1  0  0  0
 71 72  2  0  0  0
 71 74  1  0  0  0
 71146  1  0  0  0
 72 76  1  0  0  0
 72147  1  0  0  0
 73 74  2  0  0  0
 73 75  1  0  0  0
 73148  1  0  0  0
 74 84  1  0  0  0
 75 76  2  0  0  0
 75 83  1  0  0  0
 76 86  1  0  0  0
 77 79  1  0  0  0
 77 83  1  0  0  0
 77 85  2  0  0  0
 78 81  1  0  0  0
 78149  1  0  0  0
 78150  1  0  0  0
 78151  1  0  0  0
 79 80  1  0  0  0
 79152  1  0  0  0
 79153  1  0  0  0
 80 82  1  0  0  0
 80154  1  0  0  0
 80155  1  0  0  0
 81 86  1  0  0  0
 81156  1  0  0  0
 81157  1  0  0  0
 82158  1  0  0  0
 82159  1  0  0  0
 83160  1  0  0  0
 84161  1  0  0  0
M  ISO  4   1 100  68 101  82 101  84 100
M  END
> <chiral flag>
0

> <version>
0

> <s_m_source_file>
/data/baiqing/PycharmProjects/Reinvent-master-3.2/result/LINK_invent/BTK/process_docking_weight1_custom_product_contain_oxygen_bond_distance_aromatic_linkinvent_7_9_3/rearranged_h_0146.sdf

> <i_m_source_file_index>
25

> <r_mmod_Potential_Energy-OPLS-2005>
-41.1973991394043

> <r_mmod_Stretch_Energy-OPLS-2005>
61.4768104553223

> <r_mmod_Bend_Energy-OPLS-2005>
169.077972412109

> <r_mmod_Torsional_Energy-OPLS-2005>
236.413070678711

> <r_mmod_Improper_Torsional_Energy-OPLS-2005>
5.56268358230591

> <r_mmod_Van_der_Waal_Energy-OPLS-2005>
155.078033447266

> <r_mmod_Electrostatic_Energy-OPLS-2005>
-472.377990722656

> <r_mmod_Solvation_Energy-OPLS-2005>
-228.465698242188

> <b_mmod_Minimization_Converged-OPLS-2005>
0

> <r_mmod_RMS_Derivative-OPLS-2005>
1.98946487903595

$$$$
25
                    3D
 Structure written by MMmdl.
158167  0  0  1  0            999 V2000
  -30.7096  -14.5036   20.5286 C   0  0  0  0  0  0
  -30.4152  -12.3159   19.4303 C   0  0  0  0  0  0
  -29.4988  -12.5119   18.2039 C   0  0  0  0  0  0
  -28.0171  -12.3760   18.6099 C   0  0  0  0  0  0
  -27.6599  -13.2156   19.8681 C   0  0  2  0  0  0
  -28.7049  -13.0292   20.9913 C   0  0  0  0  0  0
  -25.2586  -13.8163   20.5670 C   0  0  0  0  0  0
  -24.1850  -13.0441   20.9172 C   0  0  0  0  0  0
  -24.6405  -11.6910   20.8742 C   0  0  0  0  0  0
  -23.9077  -10.4295   21.0415 C   0  0  0  0  0  0
  -24.3650   -9.4212   21.9186 C   0  0  0  0  0  0
  -23.6316   -8.2253   22.0761 C   0  0  0  0  0  0
  -22.4291   -8.0299   21.3551 C   0  0  0  0  0  0
  -21.9930   -9.0261   20.4661 C   0  0  0  0  0  0
  -22.7264  -10.2135   20.3059 C   0  0  0  0  0  0
  -21.6862   -6.0760   22.5286 C   0  0  0  0  0  0
  -21.4002   -6.5649   23.8219 C   0  0  0  0  0  0
  -21.3665   -5.6795   24.9179 C   0  0  0  0  0  0
  -21.6056   -4.3062   24.7226 C   0  0  0  0  0  0
  -21.8821   -3.8168   23.4347 C   0  0  0  0  0  0
  -21.9181   -4.6987   22.3403 C   0  0  0  0  0  0
  -22.7880  -13.5244   21.1835 C   0  0  0  0  0  0
  -22.1665   -4.2168   21.0983 F   0  0  0  0  0  0
  -21.5628   -3.4552   25.7736 F   0  0  0  0  0  0
  -30.0334  -13.3249   20.4329 N   0  0  0  0  0  0
  -26.3018  -12.9351   20.3334 N   0  0  0  0  0  0
  -25.9330  -11.6510   20.5732 N   0  0  0  0  0  0
  -22.0507  -12.8254   22.0402 N   0  0  0  0  0  0
  -25.4315  -15.1883   20.4069 N   0  0  0  0  0  0
  -31.8641  -14.6292   20.1123 O   0  0  0  0  0  0
  -21.6653   -6.8911   21.4258 O   0  0  0  0  0  0
  -22.3579  -14.5565   20.6704 O   0  0  0  0  0  0
  -24.6178  -31.8682   23.2089 C   0  0  0  0  0  0
  -25.9066  -32.4819   23.8398 C   0  0  1  0  0  0
  -27.2542  -27.4319   20.0972 C   0  0  0  0  0  0
  -25.5941  -33.8624   24.2359 N   0  0  0  0  0  0
  -23.4089  -30.4857   21.5514 C   0  0  2  0  0  0
  -24.8613  -28.9482   20.1194 C   0  0  0  0  0  0
  -22.7429  -29.4642   22.5008 C   0  0  0  0  0  0
  -18.0275  -28.1370   22.8502 C   0  0  0  0  0  0
  -24.1490  -36.7294   23.2627 C   0  0  0  0  0  0
  -25.9381  -30.8291   21.3670 C   0  0  0  0  0  0
  -26.0196  -29.4627   20.7148 C   0  0  0  0  0  0
  -27.2204  -28.7131   20.6965 C   0  0  0  0  0  0
  -26.0801  -26.9335   19.4944 C   0  0  0  0  0  0
  -24.8855  -27.6823   19.5050 C   0  0  0  0  0  0
  -23.6230  -29.8163   20.1671 C   0  0  0  0  0  0
  -25.4102  -36.3113   24.0353 C   0  0  1  0  0  0
  -20.5869  -28.3662   23.1328 C   0  0  2  0  0  0
  -20.6765  -26.9395   22.5439 C   0  0  0  0  0  0
  -19.5740  -26.6390   21.5236 C   0  0  0  0  0  0
  -18.1914  -26.7933   22.1616 C   0  0  0  0  0  0
  -19.1526  -28.8827   23.2916 C   0  0  0  0  0  0
  -18.9438  -30.1444   23.8905 C   0  0  0  0  0  0
  -17.6440  -30.6581   24.0559 C   0  0  0  0  0  0
  -25.9059  -34.9489   23.5157 C   0  0  0  0  0  0
  -16.5334  -29.9086   23.6323 C   0  0  0  0  0  0
  -16.7259  -28.6506   23.0334 C   0  0  0  0  0  0
  -26.4486  -31.6562   25.0713 C   0  0  0  0  0  0
  -25.3747  -31.3629   26.1449 C   0  0  0  0  0  0
  -27.0299  -30.3008   24.6056 C   0  0  0  0  0  0
  -27.6114  -32.4238   25.7431 C   0  0  0  0  0  0
  -27.5632  -37.1735   24.8424 C   0  0  0  0  0  0
  -21.4155  -29.3019   22.3718 N   0  0  0  0  0  0
  -26.4262  -37.3836   23.9496 N   0  0  0  0  0  0
  -24.6732  -31.0760   22.1019 N   0  0  0  0  0  0
  -23.4184  -28.8207   23.3083 O   0  0  0  0  0  0
  -28.4246  -26.6975   20.0632 O   0  0  0  0  0  0
  -26.5602  -34.8944   22.4705 O   0  0  0  0  0  0
  -23.5357  -32.1428   23.7467 O   0  0  0  0  0  0
  -31.4218  -17.5437   20.3794 C   0  0  0  0  0  0
  -31.3695  -18.9782   20.3768 C   0  0  0  0  0  0
  -30.1767  -19.4917   20.8650 C   0  0  0  0  0  0
  -30.2870  -16.9104   20.8409 C   0  0  0  0  0  0
  -29.2701  -23.0068   20.6221 C   0  0  0  0  0  0
  -29.8274  -21.7765   20.0644 C   0  0  0  0  0  0
  -32.5253  -19.7712   19.9588 C   0  0  0  0  0  0
  -29.0927  -24.2301   19.9583 C   0  0  0  0  0  0
  -28.8676  -22.7446   22.0502 C   0  0  0  0  0  0
  -29.0120  -21.2261   22.1938 C   0  0  0  0  0  0
  -33.1870  -19.3287   18.6560 C   0  0  0  0  0  0
  -28.3900  -25.4029   20.7123 C   0  0  0  0  0  0
  -29.7570  -20.7980   21.0072 N   0  0  0  0  0  0
  -29.9891  -15.5728   20.9451 N   0  0  0  0  0  0
  -29.3933  -24.5910   18.7951 O   0  5  0  0  0  0
  -30.2771  -21.6136   18.9303 O   0  0  0  0  0  0
  -32.9697  -20.7602   20.5488 O   0  0  0  0  0  0
  -29.1354  -18.1429   21.3255 S   0  0  0  0  0  0
  -31.4653  -12.3807   19.1386 H   0  0  0  0  0  0
  -30.2854  -11.3131   19.8347 H   0  0  0  0  0  0
  -29.7474  -11.7890   17.4262 H   0  0  0  0  0  0
  -29.6704  -13.4971   17.7706 H   0  0  0  0  0  0
  -27.8245  -11.3209   18.7965 H   0  0  0  0  0  0
  -27.3720  -12.6570   17.7775 H   0  0  0  0  0  0
  -27.6934  -14.2628   19.5639 H   0  0  0  0  0  0
  -28.6783  -12.0038   21.3623 H   0  0  0  0  0  0
  -28.4755  -13.6576   21.8537 H   0  0  0  0  0  0
  -25.2796   -9.5701   22.4760 H   0  0  0  0  0  0
  -24.0043   -7.4652   22.7464 H   0  0  0  0  0  0
  -21.0868   -8.8789   19.8959 H   0  0  0  0  0  0
  -22.3735  -10.9686   19.6187 H   0  0  0  0  0  0
  -21.1998   -7.6158   23.9746 H   0  0  0  0  0  0
  -21.1483   -6.0522   25.9094 H   0  0  0  0  0  0
  -22.0594   -2.7629   23.2830 H   0  0  0  0  0  0
  -22.4095  -11.9903   22.4805 H   0  0  0  0  0  0
  -21.1127  -13.1302   22.2567 H   0  0  0  0  0  0
  -24.6588  -15.8401   20.5011 H   0  0  0  0  0  0
  -26.2773  -15.6239   20.0595 H   0  0  0  0  0  0
  -26.7140  -32.5531   23.1166 H   0  0  0  0  0  0
  -25.0090  -33.9780   25.0506 H   0  0  0  0  0  0
  -22.7003  -31.3042   21.4078 H   0  0  0  0  0  0
  -23.3828  -35.9537   23.3125 H   0  0  0  0  0  0
  -24.3626  -36.9070   22.2076 H   0  0  0  0  0  0
  -23.7106  -37.6399   23.6722 H   0  0  0  0  0  0
  -26.0489  -31.5936   20.5972 H   0  0  0  0  0  0
  -26.8261  -30.8844   21.9850 H   0  0  0  0  0  0
  -28.1197  -29.1115   21.1459 H   0  0  0  0  0  0
  -26.0971  -25.9725   19.0011 H   0  0  0  0  0  0
  -23.9988  -27.2817   19.0366 H   0  0  0  0  0  0
  -23.7360  -30.5932   19.4121 H   0  0  0  0  0  0
  -22.7481  -29.2400   19.8649 H   0  0  0  0  0  0
  -25.1237  -36.1942   25.0834 H   0  0  0  0  0  0
  -20.9936  -28.3205   24.1463 H   0  0  0  0  0  0
  -20.5671  -26.2261   23.3623 H   0  0  0  0  0  0
  -21.6632  -26.7439   22.1201 H   0  0  0  0  0  0
  -19.6898  -25.6299   21.1246 H   0  0  0  0  0  0
  -19.6702  -27.3229   20.6777 H   0  0  0  0  0  0
  -17.4212  -26.6718   21.3988 H   0  0  0  0  0  0
  -18.0258  -26.0052   22.8969 H   0  0  0  0  0  0
  -19.7924  -30.7264   24.2260 H   0  0  0  0  0  0
  -17.4995  -31.6255   24.5164 H   0  0  0  0  0  0
  -15.5326  -30.2971   23.7655 H   0  0  0  0  0  0
  -15.8659  -28.0830   22.7014 H   0  0  0  0  0  0
  -24.5972  -30.6941   25.7743 H   0  0  0  0  0  0
  -24.8877  -32.2752   26.4896 H   0  0  0  0  0  0
  -25.8094  -30.8777   27.0198 H   0  0  0  0  0  0
  -26.2809  -29.6753   24.1191 H   0  0  0  0  0  0
  -27.4163  -29.7250   25.4476 H   0  0  0  0  0  0
  -27.8611  -30.4329   23.9132 H   0  0  0  0  0  0
  -27.2823  -33.3550   26.2040 H   0  0  0  0  0  0
  -28.3883  -32.6753   25.0204 H   0  0  0  0  0  0
  -28.0827  -31.8321   26.5284 H   0  0  0  0  0  0
  -28.2450  -38.0224   24.7803 H   0  0  0  0  0  0
  -28.1326  -36.2806   24.5803 H   0  0  0  0  0  0
  -27.2427  -37.0824   25.8816 H   0  0  0  0  0  0
  -20.9332  -29.8707   21.6899 H   0  0  0  0  0  0
  -26.0139  -38.2864   24.1691 H   0  0  0  0  0  0
  -32.3157  -17.0406   20.0405 H   0  0  0  0  0  0
  -27.8553  -23.0908   22.2699 H   0  0  0  0  0  0
  -29.5625  -23.2629   22.7130 H   0  0  0  0  0  0
  -28.0284  -20.7514   22.2009 H   0  0  0  0  0  0
  -29.5282  -20.9536   23.1180 H   0  0  0  0  0  0
  -33.8292  -18.4673   18.8287 H   0  0  0  0  0  0
  -33.7936  -20.1283   18.2345 H   0  0  0  0  0  0
  -32.4270  -19.0565   17.9247 H   0  0  0  0  0  0
  -28.8747  -25.5469   21.6781 H   0  0  0  0  0  0
  -27.3644  -25.1060   20.9376 H   0  0  0  0  0  0
  -29.0550  -15.3535   21.2529 H   0  0  0  0  0  0
  1 25  1  0  0  0
  1 30  2  0  0  0
  1 84  1  0  0  0
  2  3  1  0  0  0
  2 25  1  0  0  0
  2 89  1  0  0  0
  2 90  1  0  0  0
  3  4  1  0  0  0
  3 91  1  0  0  0
  3 92  1  0  0  0
  4  5  1  0  0  0
  4 93  1  0  0  0
  4 94  1  0  0  0
  5  6  1  0  0  0
  5 26  1  0  0  0
  5 95  1  0  0  0
  6 25  1  0  0  0
  6 96  1  0  0  0
  6 97  1  0  0  0
  7  8  2  0  0  0
  7 26  1  0  0  0
  7 29  1  0  0  0
  8  9  1  0  0  0
  8 22  1  0  0  0
  9 10  1  0  0  0
  9 27  2  0  0  0
 10 11  2  0  0  0
 10 15  1  0  0  0
 11 12  1  0  0  0
 11 98  1  0  0  0
 12 13  2  0  0  0
 12 99  1  0  0  0
 13 14  1  0  0  0
 13 31  1  0  0  0
 14 15  2  0  0  0
 14100  1  0  0  0
 15101  1  0  0  0
 16 17  2  0  0  0
 16 21  1  0  0  0
 16 31  1  0  0  0
 17 18  1  0  0  0
 17102  1  0  0  0
 18 19  2  0  0  0
 18103  1  0  0  0
 19 20  1  0  0  0
 19 24  1  0  0  0
 20 21  2  0  0  0
 20104  1  0  0  0
 21 23  1  0  0  0
 22 28  1  0  0  0
 22 32  2  0  0  0
 26 27  1  0  0  0
 28105  1  0  0  0
 28106  1  0  0  0
 29107  1  0  0  0
 29108  1  0  0  0
 33 34  1  0  0  0
 33 66  1  0  0  0
 33 70  2  0  0  0
 34 36  1  0  0  0
 34 59  1  0  0  0
 34109  1  0  0  0
 35 44  2  0  0  0
 35 45  1  0  0  0
 35 68  1  0  0  0
 36 56  1  0  0  0
 36110  1  0  0  0
 37 39  1  0  0  0
 37 47  1  0  0  0
 37 66  1  0  0  0
 37111  1  0  0  0
 38 43  2  0  0  0
 38 46  1  0  0  0
 38 47  1  0  0  0
 39 64  1  0  0  0
 39 67  2  0  0  0
 40 52  1  0  0  0
 40 53  2  0  0  0
 40 58  1  0  0  0
 41112  1  0  0  0
 41113  1  0  0  0
 41114  1  0  0  0
 41 48  1  0  0  0
 42 43  1  0  0  0
 42 66  1  0  0  0
 42115  1  0  0  0
 42116  1  0  0  0
 43 44  1  0  0  0
 44117  1  0  0  0
 45 46  2  0  0  0
 45118  1  0  0  0
 46119  1  0  0  0
 47120  1  0  0  0
 47121  1  0  0  0
 48 56  1  0  0  0
 48 65  1  0  0  0
 48122  1  0  0  0
 49 50  1  0  0  0
 49 53  1  0  0  0
 49 64  1  0  0  0
 49123  1  0  0  0
 50 51  1  0  0  0
 50124  1  0  0  0
 50125  1  0  0  0
 51 52  1  0  0  0
 51126  1  0  0  0
 51127  1  0  0  0
 52128  1  0  0  0
 52129  1  0  0  0
 53 54  1  0  0  0
 54 55  2  0  0  0
 54130  1  0  0  0
 55 57  1  0  0  0
 55131  1  0  0  0
 56 69  2  0  0  0
 57 58  2  0  0  0
 57132  1  0  0  0
 58133  1  0  0  0
 59 60  1  0  0  0
 59 61  1  0  0  0
 59 62  1  0  0  0
 60134  1  0  0  0
 60135  1  0  0  0
 60136  1  0  0  0
 61137  1  0  0  0
 61138  1  0  0  0
 61139  1  0  0  0
 62140  1  0  0  0
 62141  1  0  0  0
 62142  1  0  0  0
 63 65  1  0  0  0
 63143  1  0  0  0
 63144  1  0  0  0
 63145  1  0  0  0
 64146  1  0  0  0
 65147  1  0  0  0
 68 82  1  0  0  0
 71 72  1  0  0  0
 71 74  2  0  0  0
 71148  1  0  0  0
 72 73  2  0  0  0
 72 77  1  0  0  0
 73 83  1  0  0  0
 73 88  1  0  0  0
 74 84  1  0  0  0
 74 88  1  0  0  0
 75 76  1  0  0  0
 75 78  2  0  0  0
 75 79  1  0  0  0
 76 83  1  0  0  0
 76 86  2  0  0  0
 77 81  1  0  0  0
 77 87  2  0  0  0
 78 82  1  0  0  0
 78 85  1  0  0  0
 79 80  1  0  0  0
 79149  1  0  0  0
 79150  1  0  0  0
 80 83  1  0  0  0
 80151  1  0  0  0
 80152  1  0  0  0
 81153  1  0  0  0
 81154  1  0  0  0
 81155  1  0  0  0
 82156  1  0  0  0
 82157  1  0  0  0
 84158  1  0  0  0
M  CHG  1  85  -1
M  ISO  4   1 100  68 101  82 101  84 100
M  END
> <chiral flag>
0

> <version>
0

> <s_m_source_file>
/data/baiqing/PycharmProjects/Reinvent-master-3.2/result/LINK_invent/BTK/process_docking_weight1_custom_product_contain_oxygen_bond_distance_aromatic_linkinvent_7_9_3/rearranged_h_0146.sdf

> <i_m_source_file_index>
26

> <r_mmod_Potential_Energy-OPLS-2005>
-195.455642700195

> <r_mmod_Stretch_Energy-OPLS-2005>
45.8907012939453

> <r_mmod_Bend_Energy-OPLS-2005>
141.814971923828

> <r_mmod_Torsional_Energy-OPLS-2005>
308.084442138672

> <r_mmod_Improper_Torsional_Energy-OPLS-2005>
4.51852703094482

> <r_mmod_Van_der_Waal_Energy-OPLS-2005>
133.759414672852

> <r_mmod_Electrostatic_Energy-OPLS-2005>
-309.851379394531

> <r_mmod_Solvation_Energy-OPLS-2005>
-535.72802734375

> <b_mmod_Minimization_Converged-OPLS-2005>
0

> <r_mmod_RMS_Derivative-OPLS-2005>
4.64153099060059

$$$$
26
                    3D
 Structure written by MMmdl.
159168  0  0  1  0            999 V2000
  -30.5709  -14.7502   20.4497 C   0  0  0  0  0  0
  -30.4395  -12.4546   19.4478 C   0  0  0  0  0  0
  -29.5090  -12.5133   18.2148 C   0  0  0  0  0  0
  -28.0325  -12.3358   18.6288 C   0  0  0  0  0  0
  -27.6415  -13.2226   19.8416 C   0  0  2  0  0  0
  -28.6926  -13.1272   20.9692 C   0  0  0  0  0  0
  -25.2523  -13.8182   20.5685 C   0  0  0  0  0  0
  -24.1826  -13.0431   20.9227 C   0  0  0  0  0  0
  -24.6403  -11.6914   20.8741 C   0  0  0  0  0  0
  -23.9065  -10.4302   21.0406 C   0  0  0  0  0  0
  -24.3621   -9.4213   21.9178 C   0  0  0  0  0  0
  -23.6325   -8.2244   22.0742 C   0  0  0  0  0  0
  -22.4294   -8.0287   21.3545 C   0  0  0  0  0  0
  -21.9929   -9.0232   20.4630 C   0  0  0  0  0  0
  -22.7234  -10.2134   20.3037 C   0  0  0  0  0  0
  -21.6844   -6.0753   22.5290 C   0  0  0  0  0  0
  -21.3997   -6.5652   23.8227 C   0  0  0  0  0  0
  -21.3655   -5.6785   24.9188 C   0  0  0  0  0  0
  -21.6060   -4.3051   24.7214 C   0  0  0  0  0  0
  -21.8810   -3.8154   23.4333 C   0  0  0  0  0  0
  -21.9199   -4.6986   22.3399 C   0  0  0  0  0  0
  -22.7836  -13.5201   21.1887 C   0  0  0  0  0  0
  -22.1663   -4.2186   21.0969 F   0  0  0  0  0  0
  -21.5644   -3.4510   25.7718 F   0  0  0  0  0  0
  -29.9900  -13.5015   20.3924 N   0  0  0  0  0  0
  -26.2927  -12.9364   20.3207 N   0  0  0  0  0  0
  -25.9333  -11.6503   20.5700 N   0  0  0  0  0  0
  -22.0453  -12.8195   22.0421 N   0  0  0  0  0  0
  -25.4176  -15.1923   20.4132 N   0  0  0  0  0  0
  -31.7673  -14.8923   20.1686 O   0  0  0  0  0  0
  -21.6644   -6.8895   21.4253 O   0  0  0  0  0  0
  -22.3517  -14.5490   20.6698 O   0  0  0  0  0  0
  -24.6277  -31.8598   23.1925 C   0  0  0  0  0  0
  -25.9089  -32.4784   23.8324 C   0  0  1  0  0  0
  -27.2078  -27.2515   20.1465 C   0  0  0  0  0  0
  -25.5908  -33.8580   24.2271 N   0  0  0  0  0  0
  -23.4270  -30.4761   21.5397 C   0  0  2  0  0  0
  -24.8743  -28.9154   20.1182 C   0  0  0  0  0  0
  -22.7472  -29.4603   22.4909 C   0  0  0  0  0  0
  -18.0304  -28.1431   22.8519 C   0  0  0  0  0  0
  -24.1473  -36.7228   23.2632 C   0  0  0  0  0  0
  -25.9735  -30.7699   21.3719 C   0  0  0  0  0  0
  -26.0470  -29.3846   20.7264 C   0  0  0  0  0  0
  -27.2226  -28.5640   20.7308 C   0  0  0  0  0  0
  -26.0165  -26.8413   19.5208 C   0  0  0  0  0  0
  -24.8619  -27.6523   19.5051 C   0  0  0  0  0  0
  -23.6462  -29.8048   20.1599 C   0  0  0  0  0  0
  -25.4108  -36.3065   24.0342 C   0  0  1  0  0  0
  -20.5901  -28.3684   23.1317 C   0  0  2  0  0  0
  -20.6805  -26.9410   22.5421 C   0  0  0  0  0  0
  -19.5780  -26.6417   21.5232 C   0  0  0  0  0  0
  -18.1945  -26.7995   22.1628 C   0  0  0  0  0  0
  -19.1549  -28.8873   23.2925 C   0  0  0  0  0  0
  -18.9471  -30.1493   23.8902 C   0  0  0  0  0  0
  -17.6475  -30.6630   24.0572 C   0  0  0  0  0  0
  -25.9076  -34.9456   23.5127 C   0  0  0  0  0  0
  -16.5363  -29.9122   23.6369 C   0  0  0  0  0  0
  -16.7285  -28.6548   23.0367 C   0  0  0  0  0  0
  -26.4490  -31.6592   25.0673 C   0  0  0  0  0  0
  -25.3670  -31.3781   26.1347 C   0  0  0  0  0  0
  -27.0309  -30.3020   24.6097 C   0  0  0  0  0  0
  -27.6100  -32.4280   25.7430 C   0  0  0  0  0  0
  -27.5616  -37.1737   24.8453 C   0  0  0  0  0  0
  -21.4173  -29.3023   22.3666 N   0  0  0  0  0  0
  -26.4274  -37.3769   23.9462 N   0  0  0  0  0  0
  -24.6960  -31.0546   22.0918 N   0  0  0  0  0  0
  -23.4164  -28.8172   23.3034 O   0  0  0  0  0  0
  -28.2903  -26.3454   20.1067 O   0  0  0  0  0  0
  -26.5623  -34.8952   22.4683 O   0  0  0  0  0  0
  -23.5415  -32.1443   23.7193 O   0  0  0  0  0  0
  -30.6716  -19.4830   20.8717 C   0  0  0  0  0  0
  -30.9197  -18.0462   20.9107 C   0  0  0  0  0  0
  -29.4127  -19.8748   20.4566 C   0  0  0  0  0  0
  -29.8548  -17.2312   20.5654 C   0  0  0  0  0  0
  -27.4628  -23.0537   19.4488 C   0  0  0  0  0  0
  -27.7167  -21.5060   19.3930 C   0  0  0  0  0  0
  -29.3218  -22.5158   20.8446 C   0  0  2  0  0  0
  -28.0865  -23.5464   20.7725 C   0  0  2  0  0  0
  -30.5671  -23.0202   20.0863 C   0  0  0  0  0  0
  -27.1146  -23.1183   21.9125 C   0  0  0  0  0  0
  -28.3023  -25.1675   21.0307 C   0  0  0  0  0  0
  -28.8542  -21.2133   20.2695 N   0  0  0  0  0  0
  -29.7059  -15.8282   20.5753 N   0  0  0  0  0  0
  -28.5207  -18.3560   20.1316 S   0  0  0  0  0  0
  -31.4776  -12.5990   19.1448 H   0  0  0  0  0  0
  -30.3923  -11.4686   19.9133 H   0  0  0  0  0  0
  -29.7918  -11.7481   17.4897 H   0  0  0  0  0  0
  -29.6333  -13.4693   17.7045 H   0  0  0  0  0  0
  -27.8820  -11.2865   18.8798 H   0  0  0  0  0  0
  -27.3741  -12.5372   17.7839 H   0  0  0  0  0  0
  -27.6383  -14.2456   19.4667 H   0  0  0  0  0  0
  -28.7392  -12.1129   21.3712 H   0  0  0  0  0  0
  -28.4311  -13.7742   21.8066 H   0  0  0  0  0  0
  -25.2787   -9.5704   22.4725 H   0  0  0  0  0  0
  -24.0050   -7.4625   22.7446 H   0  0  0  0  0  0
  -21.0869   -8.8741   19.8919 H   0  0  0  0  0  0
  -22.3707  -10.9656   19.6129 H   0  0  0  0  0  0
  -21.1954   -7.6152   23.9743 H   0  0  0  0  0  0
  -21.1490   -6.0506   25.9099 H   0  0  0  0  0  0
  -22.0588   -2.7621   23.2790 H   0  0  0  0  0  0
  -22.4023  -11.9833   22.4806 H   0  0  0  0  0  0
  -21.1073  -13.1222   22.2584 H   0  0  0  0  0  0
  -24.6391  -15.8318   20.5324 H   0  0  0  0  0  0
  -26.2523  -15.6433   20.0600 H   0  0  0  0  0  0
  -26.7156  -32.5456   23.1076 H   0  0  0  0  0  0
  -25.0051  -33.9762   25.0422 H   0  0  0  0  0  0
  -22.7229  -31.2961   21.3880 H   0  0  0  0  0  0
  -23.3825  -35.9455   23.3178 H   0  0  0  0  0  0
  -24.3620  -36.8950   22.2077 H   0  0  0  0  0  0
  -23.7110  -37.6355   23.6711 H   0  0  0  0  0  0
  -26.1082  -31.5248   20.5944 H   0  0  0  0  0  0
  -26.8528  -30.8320   21.9994 H   0  0  0  0  0  0
  -28.1231  -28.9188   21.2142 H   0  0  0  0  0  0
  -25.9728  -25.8654   19.0585 H   0  0  0  0  0  0
  -23.9619  -27.2921   19.0262 H   0  0  0  0  0  0
  -23.7729  -30.5754   19.3994 H   0  0  0  0  0  0
  -22.7643  -29.2341   19.8638 H   0  0  0  0  0  0
  -25.1290  -36.1886   25.0829 H   0  0  0  0  0  0
  -21.0059  -28.3254   24.1414 H   0  0  0  0  0  0
  -20.5768  -26.2253   23.3588 H   0  0  0  0  0  0
  -21.6669  -26.7500   22.1160 H   0  0  0  0  0  0
  -19.6934  -25.6324   21.1251 H   0  0  0  0  0  0
  -19.6778  -27.3245   20.6776 H   0  0  0  0  0  0
  -17.4241  -26.6771   21.3993 H   0  0  0  0  0  0
  -18.0314  -26.0163   22.9049 H   0  0  0  0  0  0
  -19.7942  -30.7328   24.2239 H   0  0  0  0  0  0
  -17.5039  -31.6311   24.5175 H   0  0  0  0  0  0
  -15.5368  -30.3017   23.7730 H   0  0  0  0  0  0
  -15.8695  -28.0894   22.7042 H   0  0  0  0  0  0
  -24.5808  -30.7203   25.7638 H   0  0  0  0  0  0
  -24.8870  -32.2961   26.4738 H   0  0  0  0  0  0
  -25.7905  -30.8938   27.0140 H   0  0  0  0  0  0
  -26.2891  -29.6752   24.1123 H   0  0  0  0  0  0
  -27.4070  -29.7281   25.4577 H   0  0  0  0  0  0
  -27.8723  -30.4351   23.9287 H   0  0  0  0  0  0
  -27.2841  -33.3656   26.1948 H   0  0  0  0  0  0
  -28.3948  -32.6699   25.0246 H   0  0  0  0  0  0
  -28.0696  -31.8374   26.5365 H   0  0  0  0  0  0
  -28.2496  -38.0173   24.7707 H   0  0  0  0  0  0
  -28.1263  -36.2729   24.6005 H   0  0  0  0  0  0
  -27.2378  -37.1008   25.8852 H   0  0  0  0  0  0
  -20.9301  -29.8665   21.6844 H   0  0  0  0  0  0
  -26.0143  -38.2799   24.1608 H   0  0  0  0  0  0
  -31.4543  -20.1786   21.1360 H   0  0  0  0  0  0
  -31.8871  -17.6756   21.2232 H   0  0  0  0  0  0
  -26.4002  -23.2870   19.3676 H   0  0  0  0  0  0
  -27.9561  -23.5354   18.6052 H   0  0  0  0  0  0
  -27.8960  -21.1762   18.3675 H   0  0  0  0  0  0
  -26.8492  -20.9562   19.7612 H   0  0  0  0  0  0
  -29.5979  -22.3546   21.8888 H   0  0  0  0  0  0
  -30.3691  -23.1764   19.0243 H   0  0  0  0  0  0
  -31.3957  -22.3165   20.1609 H   0  0  0  0  0  0
  -30.9259  -23.9648   20.4974 H   0  0  0  0  0  0
  -26.8348  -22.0633   21.8829 H   0  0  0  0  0  0
  -26.1798  -23.6833   21.8799 H   0  0  0  0  0  0
  -27.5675  -23.2821   22.8904 H   0  0  0  0  0  0
  -29.2621  -25.2401   21.5397 H   0  0  0  0  0  0
  -27.6110  -25.4672   21.8193 H   0  0  0  0  0  0
  -28.7432  -15.5316   20.6278 H   0  0  0  0  0  0
  1 25  1  0  0  0
  1 30  2  0  0  0
  1 83  1  0  0  0
  2  3  1  0  0  0
  2 25  1  0  0  0
  2 85  1  0  0  0
  2 86  1  0  0  0
  3  4  1  0  0  0
  3 87  1  0  0  0
  3 88  1  0  0  0
  4  5  1  0  0  0
  4 89  1  0  0  0
  4 90  1  0  0  0
  5  6  1  0  0  0
  5 26  1  0  0  0
  5 91  1  0  0  0
  6 25  1  0  0  0
  6 92  1  0  0  0
  6 93  1  0  0  0
  7  8  2  0  0  0
  7 26  1  0  0  0
  7 29  1  0  0  0
  8  9  1  0  0  0
  8 22  1  0  0  0
  9 10  1  0  0  0
  9 27  2  0  0  0
 10 11  2  0  0  0
 10 15  1  0  0  0
 11 12  1  0  0  0
 11 94  1  0  0  0
 12 13  2  0  0  0
 12 95  1  0  0  0
 13 14  1  0  0  0
 13 31  1  0  0  0
 14 15  2  0  0  0
 14 96  1  0  0  0
 15 97  1  0  0  0
 16 17  2  0  0  0
 16 21  1  0  0  0
 16 31  1  0  0  0
 17 18  1  0  0  0
 17 98  1  0  0  0
 18 19  2  0  0  0
 18 99  1  0  0  0
 19 20  1  0  0  0
 19 24  1  0  0  0
 20 21  2  0  0  0
 20100  1  0  0  0
 21 23  1  0  0  0
 22 28  1  0  0  0
 22 32  2  0  0  0
 26 27  1  0  0  0
 28101  1  0  0  0
 28102  1  0  0  0
 29103  1  0  0  0
 29104  1  0  0  0
 33 34  1  0  0  0
 33 66  1  0  0  0
 33 70  2  0  0  0
 34 36  1  0  0  0
 34 59  1  0  0  0
 34105  1  0  0  0
 35 44  2  0  0  0
 35 45  1  0  0  0
 35 68  1  0  0  0
 36 56  1  0  0  0
 36106  1  0  0  0
 37 39  1  0  0  0
 37 47  1  0  0  0
 37 66  1  0  0  0
 37107  1  0  0  0
 38 43  2  0  0  0
 38 46  1  0  0  0
 38 47  1  0  0  0
 39 64  1  0  0  0
 39 67  2  0  0  0
 40 52  1  0  0  0
 40 53  2  0  0  0
 40 58  1  0  0  0
 41108  1  0  0  0
 41109  1  0  0  0
 41110  1  0  0  0
 41 48  1  0  0  0
 42 43  1  0  0  0
 42 66  1  0  0  0
 42111  1  0  0  0
 42112  1  0  0  0
 43 44  1  0  0  0
 44113  1  0  0  0
 45 46  2  0  0  0
 45114  1  0  0  0
 46115  1  0  0  0
 47116  1  0  0  0
 47117  1  0  0  0
 48 56  1  0  0  0
 48 65  1  0  0  0
 48118  1  0  0  0
 49 50  1  0  0  0
 49 53  1  0  0  0
 49 64  1  0  0  0
 49119  1  0  0  0
 50 51  1  0  0  0
 50120  1  0  0  0
 50121  1  0  0  0
 51 52  1  0  0  0
 51122  1  0  0  0
 51123  1  0  0  0
 52124  1  0  0  0
 52125  1  0  0  0
 53 54  1  0  0  0
 54 55  2  0  0  0
 54126  1  0  0  0
 55 57  1  0  0  0
 55127  1  0  0  0
 56 69  2  0  0  0
 57 58  2  0  0  0
 57128  1  0  0  0
 58129  1  0  0  0
 59 60  1  0  0  0
 59 61  1  0  0  0
 59 62  1  0  0  0
 60130  1  0  0  0
 60131  1  0  0  0
 60132  1  0  0  0
 61133  1  0  0  0
 61134  1  0  0  0
 61135  1  0  0  0
 62136  1  0  0  0
 62137  1  0  0  0
 62138  1  0  0  0
 63 65  1  0  0  0
 63139  1  0  0  0
 63140  1  0  0  0
 63141  1  0  0  0
 64142  1  0  0  0
 65143  1  0  0  0
 68 81  1  0  0  0
 71 72  1  0  0  0
 71 73  2  0  0  0
 71144  1  0  0  0
 72 74  2  0  0  0
 72145  1  0  0  0
 73 82  1  0  0  0
 73 84  1  0  0  0
 74 83  1  0  0  0
 74 84  1  0  0  0
 75 76  1  0  0  0
 75 78  1  0  0  0
 75146  1  0  0  0
 75147  1  0  0  0
 76 82  1  0  0  0
 76148  1  0  0  0
 76149  1  0  0  0
 77 78  1  0  0  0
 77 79  1  0  0  0
 77 82  1  0  0  0
 77150  1  0  0  0
 78 80  1  0  0  0
 78 81  1  0  0  0
 79151  1  0  0  0
 79152  1  0  0  0
 79153  1  0  0  0
 80154  1  0  0  0
 80155  1  0  0  0
 80156  1  0  0  0
 81157  1  0  0  0
 81158  1  0  0  0
 83159  1  0  0  0
M  ISO  4   1 100  68 101  81 101  83 100
M  END
> <chiral flag>
0

> <version>
0

> <s_m_source_file>
/data/baiqing/PycharmProjects/Reinvent-master-3.2/result/LINK_invent/BTK/process_docking_weight1_custom_product_contain_oxygen_bond_distance_aromatic_linkinvent_7_9_3/rearranged_h_0146.sdf

> <i_m_source_file_index>
27

> <r_mmod_Potential_Energy-OPLS-2005>
324.576782226562

> <r_mmod_Stretch_Energy-OPLS-2005>
119.17903137207

> <r_mmod_Bend_Energy-OPLS-2005>
245.305404663086

> <r_mmod_Torsional_Energy-OPLS-2005>
333.74169921875

> <r_mmod_Improper_Torsional_Energy-OPLS-2005>
6.14781141281128

> <r_mmod_Van_der_Waal_Energy-OPLS-2005>
110.182083129883

> <r_mmod_Electrostatic_Energy-OPLS-2005>
-368.464874267578

> <r_mmod_Solvation_Energy-OPLS-2005>
-210.731643676758

> <b_mmod_Minimization_Converged-OPLS-2005>
0

> <r_mmod_RMS_Derivative-OPLS-2005>
4.79534530639648

$$$$
27
                    3D
 Structure written by MMmdl.
155164  0  0  1  0            999 V2000
  -30.5720  -14.8859   20.1789 C   0  0  0  0  0  0
  -30.4354  -12.4835   19.4299 C   0  0  0  0  0  0
  -29.4750  -12.2753   18.2331 C   0  0  0  0  0  0
  -27.9990  -12.2875   18.6692 C   0  0  0  0  0  0
  -27.6311  -13.2408   19.8411 C   0  0  2  0  0  0
  -28.7140  -13.3011   20.9282 C   0  0  0  0  0  0
  -25.2517  -13.8243   20.5825 C   0  0  0  0  0  0
  -24.1820  -13.0471   20.9277 C   0  0  0  0  0  0
  -24.6403  -11.6917   20.8858 C   0  0  0  0  0  0
  -23.9085  -10.4253   21.0389 C   0  0  0  0  0  0
  -24.3574   -9.4130   21.9150 C   0  0  0  0  0  0
  -23.6231   -8.2186   22.0717 C   0  0  0  0  0  0
  -22.4225   -8.0215   21.3495 C   0  0  0  0  0  0
  -21.9880   -9.0237   20.4597 C   0  0  0  0  0  0
  -22.7265  -10.2087   20.3028 C   0  0  0  0  0  0
  -21.6828   -6.0647   22.5297 C   0  0  0  0  0  0
  -21.4025   -6.5576   23.8232 C   0  0  0  0  0  0
  -21.3586   -5.6718   24.9193 C   0  0  0  0  0  0
  -21.6029   -4.3001   24.7261 C   0  0  0  0  0  0
  -21.8829   -3.8051   23.4412 C   0  0  0  0  0  0
  -21.9171   -4.6853   22.3429 C   0  0  0  0  0  0
  -22.7826  -13.5185   21.1874 C   0  0  0  0  0  0
  -22.1660   -4.2006   21.1023 F   0  0  0  0  0  0
  -21.5579   -3.4510   25.7800 F   0  0  0  0  0  0
  -29.9637  -13.6385   20.2353 N   0  0  0  0  0  0
  -26.2992  -12.9480   20.3550 N   0  0  0  0  0  0
  -25.9399  -11.6620   20.6130 N   0  0  0  0  0  0
  -22.0446  -12.8138   22.0330 N   0  0  0  0  0  0
  -25.4159  -15.2022   20.4119 N   0  0  0  0  0  0
  -31.8043  -14.9428   20.2167 O   0  0  0  0  0  0
  -21.6611   -6.8808   21.4231 O   0  0  0  0  0  0
  -22.3550  -14.5524   20.6684 O   0  0  0  0  0  0
  -24.6328  -31.8537   23.1957 C   0  0  0  0  0  0
  -25.9122  -32.4749   23.8315 C   0  0  1  0  0  0
  -27.2514  -27.2553   20.1592 C   0  0  0  0  0  0
  -25.5905  -33.8550   24.2274 N   0  0  0  0  0  0
  -23.4321  -30.4736   21.5332 C   0  0  2  0  0  0
  -24.8947  -28.9063   20.1194 C   0  0  0  0  0  0
  -22.7476  -29.4638   22.4872 C   0  0  0  0  0  0
  -18.0249  -28.1192   22.8782 C   0  0  0  0  0  0
  -24.1473  -36.7264   23.2637 C   0  0  0  0  0  0
  -25.9766  -30.7700   21.3750 C   0  0  0  0  0  0
  -26.0612  -29.3878   20.7247 C   0  0  0  0  0  0
  -27.2428  -28.5779   20.7215 C   0  0  0  0  0  0
  -26.0592  -26.8322   19.5346 C   0  0  0  0  0  0
  -24.9008  -27.6398   19.5112 C   0  0  0  0  0  0
  -23.6612  -29.7919   20.1581 C   0  0  0  0  0  0
  -25.4084  -36.3071   24.0335 C   0  0  1  0  0  0
  -20.5858  -28.3710   23.1146 C   0  0  2  0  0  0
  -20.6837  -26.9550   22.4971 C   0  0  0  0  0  0
  -19.5454  -26.6406   21.5239 C   0  0  0  0  0  0
  -18.1970  -26.7529   22.2354 C   0  0  0  0  0  0
  -19.1499  -28.8830   23.2864 C   0  0  0  0  0  0
  -18.9455  -30.1536   23.8650 C   0  0  0  0  0  0
  -17.6474  -30.6709   24.0233 C   0  0  0  0  0  0
  -25.9054  -34.9451   23.5124 C   0  0  0  0  0  0
  -16.5358  -29.9078   23.6252 C   0  0  0  0  0  0
  -16.7232  -28.6316   23.0621 C   0  0  0  0  0  0
  -26.4499  -31.6593   25.0707 C   0  0  0  0  0  0
  -25.3702  -31.3722   26.1408 C   0  0  0  0  0  0
  -27.0313  -30.2992   24.6229 C   0  0  0  0  0  0
  -27.6087  -32.4306   25.7475 C   0  0  0  0  0  0
  -27.5559  -37.1788   24.8472 C   0  0  0  0  0  0
  -21.4162  -29.3140   22.3658 N   0  0  0  0  0  0
  -26.4282  -37.3742   23.9404 N   0  0  0  0  0  0
  -24.6993  -31.0493   22.0935 N   0  0  0  0  0  0
  -23.4099  -28.8145   23.2975 O   0  0  0  0  0  0
  -28.3761  -26.4009   20.1227 O   0  0  0  0  0  0
  -26.5627  -34.8946   22.4694 O   0  0  0  0  0  0
  -23.5488  -32.1386   23.7265 O   0  0  0  0  0  0
  -29.8832  -19.0472   17.4864 C   0  0  0  0  0  0
  -29.6097  -20.0978   18.3679 C   0  0  0  0  0  0
  -29.6379  -18.4995   20.2498 C   0  0  0  0  0  0
  -30.0219  -17.7483   17.9860 C   0  0  0  0  0  0
  -29.9213  -17.3867   19.3431 C   0  0  0  0  0  0
  -29.4769  -19.8869   19.7646 C   0  0  0  0  0  0
  -29.3032  -22.4204   20.2630 C   0  0  0  0  0  0
  -30.1722  -16.5826   17.0854 C   0  0  0  0  0  0
  -29.8039  -15.4431   18.0068 C   0  0  0  0  0  0
  -28.2033  -23.5977   20.2886 C   0  0  0  0  0  0
  -28.4293  -25.1006   20.8912 C   0  0  0  0  0  0
  -29.8959  -15.8751   19.4237 N   0  0  0  0  0  0
  -29.0044  -21.0800   20.5175 N   0  0  0  0  0  0
  -30.4645  -22.7302   19.9784 O   0  0  0  0  0  0
  -31.4581  -12.6293   19.0743 H   0  0  0  0  0  0
  -30.4499  -11.5838   20.0435 H   0  0  0  0  0  0
  -29.6879  -11.3054   17.7763 H   0  0  0  0  0  0
  -29.6198  -12.9484   17.3963 H   0  0  0  0  0  0
  -27.7472  -11.2637   18.9445 H   0  0  0  0  0  0
  -27.3770  -12.5358   17.8138 H   0  0  0  0  0  0
  -27.5769  -14.2407   19.4167 H   0  0  0  0  0  0
  -28.7956  -12.3530   21.4516 H   0  0  0  0  0  0
  -28.4704  -14.0569   21.6768 H   0  0  0  0  0  0
  -25.2673   -9.5617   22.4736 H   0  0  0  0  0  0
  -23.9834   -7.4571   22.7483 H   0  0  0  0  0  0
  -21.0763   -8.8904   19.8933 H   0  0  0  0  0  0
  -22.3750  -10.9682   19.6170 H   0  0  0  0  0  0
  -21.2117   -7.6090   23.9809 H   0  0  0  0  0  0
  -21.1377   -6.0402   25.9105 H   0  0  0  0  0  0
  -22.0645   -2.7507   23.3068 H   0  0  0  0  0  0
  -22.4011  -11.9797   22.4759 H   0  0  0  0  0  0
  -21.1112  -13.1174   22.2732 H   0  0  0  0  0  0
  -24.6316  -15.8407   20.4679 H   0  0  0  0  0  0
  -26.2628  -15.6502   20.0841 H   0  0  0  0  0  0
  -26.7163  -32.5471   23.1068 H   0  0  0  0  0  0
  -24.9951  -33.9628   25.0365 H   0  0  0  0  0  0
  -22.7306  -31.2936   21.3740 H   0  0  0  0  0  0
  -23.3741  -35.9591   23.3322 H   0  0  0  0  0  0
  -24.3569  -36.8862   22.2044 H   0  0  0  0  0  0
  -23.7274  -37.6486   23.6665 H   0  0  0  0  0  0
  -26.1078  -31.5303   20.6023 H   0  0  0  0  0  0
  -26.8493  -30.8323   22.0130 H   0  0  0  0  0  0
  -28.1462  -28.9504   21.1846 H   0  0  0  0  0  0
  -26.0341  -25.8640   19.0505 H   0  0  0  0  0  0
  -24.0057  -27.2766   19.0220 H   0  0  0  0  0  0
  -23.7924  -30.5589   19.3945 H   0  0  0  0  0  0
  -22.7857  -29.2169   19.8555 H   0  0  0  0  0  0
  -25.1292  -36.1881   25.0817 H   0  0  0  0  0  0
  -20.9932  -28.3119   24.1249 H   0  0  0  0  0  0
  -21.6483  -26.7922   22.0176 H   0  0  0  0  0  0
  -20.6412  -26.2299   23.3113 H   0  0  0  0  0  0
  -19.6682  -25.6386   21.1099 H   0  0  0  0  0  0
  -19.5808  -27.3358   20.6875 H   0  0  0  0  0  0
  -17.3812  -26.5481   21.5368 H   0  0  0  0  0  0
  -18.1343  -25.9948   23.0233 H   0  0  0  0  0  0
  -19.7938  -30.7424   24.1803 H   0  0  0  0  0  0
  -17.5057  -31.6545   24.4508 H   0  0  0  0  0  0
  -15.5355  -30.2984   23.7542 H   0  0  0  0  0  0
  -15.8612  -28.0448   22.7735 H   0  0  0  0  0  0
  -24.5933  -30.7035   25.7701 H   0  0  0  0  0  0
  -24.8820  -32.2859   26.4802 H   0  0  0  0  0  0
  -25.7953  -30.8926   27.0234 H   0  0  0  0  0  0
  -26.2885  -29.6765   24.1240 H   0  0  0  0  0  0
  -27.3913  -29.7247   25.4776 H   0  0  0  0  0  0
  -27.8812  -30.4156   23.9494 H   0  0  0  0  0  0
  -27.2725  -33.3610   26.2045 H   0  0  0  0  0  0
  -28.3885  -32.6831   25.0287 H   0  0  0  0  0  0
  -28.0792  -31.8445   26.5399 H   0  0  0  0  0  0
  -28.2595  -38.0059   24.7468 H   0  0  0  0  0  0
  -28.1032  -36.2601   24.6342 H   0  0  0  0  0  0
  -27.2295  -37.1482   25.8882 H   0  0  0  0  0  0
  -20.9414  -29.8908   21.6856 H   0  0  0  0  0  0
  -26.0174  -38.2815   24.1407 H   0  0  0  0  0  0
  -29.9103  -19.2192   16.4184 H   0  0  0  0  0  0
  -29.4149  -21.0640   17.9240 H   0  0  0  0  0  0
  -29.4969  -18.2767   21.2960 H   0  0  0  0  0  0
  -31.2202  -16.4688   16.8012 H   0  0  0  0  0  0
  -29.5676  -16.6330   16.1719 H   0  0  0  0  0  0
  -30.5228  -14.6763   17.7348 H   0  0  0  0  0  0
  -28.7941  -15.1094   17.7817 H   0  0  0  0  0  0
  -27.3162  -23.1712   20.7574 H   0  0  0  0  0  0
  -27.9111  -23.7286   19.2510 H   0  0  0  0  0  0
  -29.4083  -25.1017   21.3727 H   0  0  0  0  0  0
  -27.7211  -25.2155   21.7162 H   0  0  0  0  0  0
  -28.2143  -20.9097   21.1312 H   0  0  0  0  0  0
  1 25  1  0  0  0
  1 30  2  0  0  0
  1 82  1  0  0  0
  2  3  1  0  0  0
  2 25  1  0  0  0
  2 85  1  0  0  0
  2 86  1  0  0  0
  3  4  1  0  0  0
  3 87  1  0  0  0
  3 88  1  0  0  0
  4  5  1  0  0  0
  4 89  1  0  0  0
  4 90  1  0  0  0
  5  6  1  0  0  0
  5 26  1  0  0  0
  5 91  1  0  0  0
  6 25  1  0  0  0
  6 92  1  0  0  0
  6 93  1  0  0  0
  7  8  2  0  0  0
  7 26  1  0  0  0
  7 29  1  0  0  0
  8  9  1  0  0  0
  8 22  1  0  0  0
  9 10  1  0  0  0
  9 27  2  0  0  0
 10 11  2  0  0  0
 10 15  1  0  0  0
 11 12  1  0  0  0
 11 94  1  0  0  0
 12 13  2  0  0  0
 12 95  1  0  0  0
 13 14  1  0  0  0
 13 31  1  0  0  0
 14 15  2  0  0  0
 14 96  1  0  0  0
 15 97  1  0  0  0
 16 17  2  0  0  0
 16 21  1  0  0  0
 16 31  1  0  0  0
 17 18  1  0  0  0
 17 98  1  0  0  0
 18 19  2  0  0  0
 18 99  1  0  0  0
 19 20  1  0  0  0
 19 24  1  0  0  0
 20 21  2  0  0  0
 20100  1  0  0  0
 21 23  1  0  0  0
 22 28  1  0  0  0
 22 32  2  0  0  0
 26 27  1  0  0  0
 28101  1  0  0  0
 28102  1  0  0  0
 29103  1  0  0  0
 29104  1  0  0  0
 33 34  1  0  0  0
 33 66  1  0  0  0
 33 70  2  0  0  0
 34 36  1  0  0  0
 34 59  1  0  0  0
 34105  1  0  0  0
 35 44  2  0  0  0
 35 45  1  0  0  0
 35 68  1  0  0  0
 36 56  1  0  0  0
 36106  1  0  0  0
 37 39  1  0  0  0
 37 47  1  0  0  0
 37 66  1  0  0  0
 37107  1  0  0  0
 38 43  2  0  0  0
 38 46  1  0  0  0
 38 47  1  0  0  0
 39 64  1  0  0  0
 39 67  2  0  0  0
 40 52  1  0  0  0
 40 53  2  0  0  0
 40 58  1  0  0  0
 41108  1  0  0  0
 41109  1  0  0  0
 41110  1  0  0  0
 41 48  1  0  0  0
 42 43  1  0  0  0
 42 66  1  0  0  0
 42111  1  0  0  0
 42112  1  0  0  0
 43 44  1  0  0  0
 44113  1  0  0  0
 45 46  2  0  0  0
 45114  1  0  0  0
 46115  1  0  0  0
 47116  1  0  0  0
 47117  1  0  0  0
 48 56  1  0  0  0
 48 65  1  0  0  0
 48118  1  0  0  0
 49 50  1  0  0  0
 49 53  1  0  0  0
 49 64  1  0  0  0
 49119  1  0  0  0
 50 51  1  0  0  0
 50120  1  0  0  0
 50121  1  0  0  0
 51 52  1  0  0  0
 51122  1  0  0  0
 51123  1  0  0  0
 52124  1  0  0  0
 52125  1  0  0  0
 53 54  1  0  0  0
 54 55  2  0  0  0
 54126  1  0  0  0
 55 57  1  0  0  0
 55127  1  0  0  0
 56 69  2  0  0  0
 57 58  2  0  0  0
 57128  1  0  0  0
 58129  1  0  0  0
 59 60  1  0  0  0
 59 61  1  0  0  0
 59 62  1  0  0  0
 60130  1  0  0  0
 60131  1  0  0  0
 60132  1  0  0  0
 61133  1  0  0  0
 61134  1  0  0  0
 61135  1  0  0  0
 62136  1  0  0  0
 62137  1  0  0  0
 62138  1  0  0  0
 63 65  1  0  0  0
 63139  1  0  0  0
 63140  1  0  0  0
 63141  1  0  0  0
 64142  1  0  0  0
 65143  1  0  0  0
 68 81  1  0  0  0
 71 72  2  0  0  0
 71 74  1  0  0  0
 71144  1  0  0  0
 72 76  1  0  0  0
 72145  1  0  0  0
 73 75  1  0  0  0
 73 76  2  0  0  0
 73146  1  0  0  0
 74 75  2  0  0  0
 74 78  1  0  0  0
 75 82  1  0  0  0
 76 83  1  0  0  0
 77 80  1  0  0  0
 77 83  1  0  0  0
 77 84  2  0  0  0
 78 79  1  0  0  0
 78147  1  0  0  0
 78148  1  0  0  0
 79 82  1  0  0  0
 79149  1  0  0  0
 79150  1  0  0  0
 80 81  1  0  0  0
 80151  1  0  0  0
 80152  1  0  0  0
 81153  1  0  0  0
 81154  1  0  0  0
 83155  1  0  0  0
M  ISO  4   1 100  68 101  81 101  82 100
M  END
> <chiral flag>
0

> <version>
0

> <s_m_source_file>
/data/baiqing/PycharmProjects/Reinvent-master-3.2/result/LINK_invent/BTK/process_docking_weight1_custom_product_contain_oxygen_bond_distance_aromatic_linkinvent_7_9_3/rearranged_h_0146.sdf

> <i_m_source_file_index>
28

> <r_mmod_Potential_Energy-OPLS-2005>
628.575988769531

> <r_mmod_Stretch_Energy-OPLS-2005>
157.761856079102

> <r_mmod_Bend_Energy-OPLS-2005>
286.445098876953

> <r_mmod_Torsional_Energy-OPLS-2005>
400.307922363281

> <r_mmod_Improper_Torsional_Energy-OPLS-2005>
33.2554626464844

> <r_mmod_Van_der_Waal_Energy-OPLS-2005>
145.269622802734

> <r_mmod_Electrostatic_Energy-OPLS-2005>
-317.535949707031

> <r_mmod_Solvation_Energy-OPLS-2005>
-230.345977783203

> <b_mmod_Minimization_Converged-OPLS-2005>
0

> <r_mmod_RMS_Derivative-OPLS-2005>
9.64666175842285

$$$$
28
                    3D
 Structure written by MMmdl.
159168  0  0  1  0            999 V2000
  -30.6422  -14.7005   20.4574 C   0  0  0  0  0  0
  -30.4333  -12.4285   19.4626 C   0  0  0  0  0  0
  -29.5061  -12.4917   18.2292 C   0  0  0  0  0  0
  -28.0333  -12.3218   18.6500 C   0  0  0  0  0  0
  -27.6424  -13.2265   19.8499 C   0  0  2  0  0  0
  -28.6908  -13.1461   20.9828 C   0  0  0  0  0  0
  -25.2501  -13.8117   20.5750 C   0  0  0  0  0  0
  -24.1780  -13.0386   20.9243 C   0  0  0  0  0  0
  -24.6370  -11.6874   20.8751 C   0  0  0  0  0  0
  -23.9049  -10.4258   21.0399 C   0  0  0  0  0  0
  -24.3592   -9.4179   21.9180 C   0  0  0  0  0  0
  -23.6262   -8.2221   22.0744 C   0  0  0  0  0  0
  -22.4245   -8.0266   21.3537 C   0  0  0  0  0  0
  -21.9893   -9.0236   20.4626 C   0  0  0  0  0  0
  -22.7227  -10.2110   20.3041 C   0  0  0  0  0  0
  -21.6843   -6.0720   22.5291 C   0  0  0  0  0  0
  -21.4008   -6.5627   23.8223 C   0  0  0  0  0  0
  -21.3645   -5.6780   24.9185 C   0  0  0  0  0  0
  -21.6042   -4.3046   24.7231 C   0  0  0  0  0  0
  -21.8815   -3.8133   23.4351 C   0  0  0  0  0  0
  -21.9184   -4.6951   22.3406 C   0  0  0  0  0  0
  -22.7805  -13.5208   21.1877 C   0  0  0  0  0  0
  -22.1659   -4.2140   21.0983 F   0  0  0  0  0  0
  -21.5619   -3.4529   25.7739 F   0  0  0  0  0  0
  -29.9976  -13.4875   20.4007 N   0  0  0  0  0  0
  -26.2931  -12.9357   20.3285 N   0  0  0  0  0  0
  -25.9309  -11.6505   20.5739 N   0  0  0  0  0  0
  -22.0405  -12.8217   22.0404 N   0  0  0  0  0  0
  -25.4169  -15.1797   20.4222 N   0  0  0  0  0  0
  -31.8324  -14.7708   20.1401 O   0  0  0  0  0  0
  -21.6611   -6.8863   21.4249 O   0  0  0  0  0  0
  -22.3526  -14.5526   20.6716 O   0  0  0  0  0  0
  -24.6307  -31.8563   23.1980 C   0  0  0  0  0  0
  -25.9133  -32.4758   23.8324 C   0  0  1  0  0  0
  -27.2327  -27.2925   20.1295 C   0  0  0  0  0  0
  -25.5937  -33.8557   24.2263 N   0  0  0  0  0  0
  -23.4274  -30.4769   21.5406 C   0  0  2  0  0  0
  -24.8778  -28.9243   20.1140 C   0  0  0  0  0  0
  -22.7495  -29.4618   22.4931 C   0  0  0  0  0  0
  -18.0296  -28.1400   22.8500 C   0  0  0  0  0  0
  -24.1495  -36.7291   23.2643 C   0  0  0  0  0  0
  -25.9705  -30.7798   21.3723 C   0  0  0  0  0  0
  -26.0482  -29.4030   20.7180 C   0  0  0  0  0  0
  -27.2317  -28.6005   20.7120 C   0  0  0  0  0  0
  -26.0431  -26.8750   19.4947 C   0  0  0  0  0  0
  -24.8792  -27.6672   19.4898 C   0  0  0  0  0  0
  -23.6455  -29.8056   20.1586 C   0  0  0  0  0  0
  -25.4115  -36.3076   24.0333 C   0  0  1  0  0  0
  -20.5907  -28.3677   23.1249 C   0  0  2  0  0  0
  -20.6760  -26.9413   22.5381 C   0  0  0  0  0  0
  -19.5726  -26.6429   21.5185 C   0  0  0  0  0  0
  -18.1927  -26.7939   22.1636 C   0  0  0  0  0  0
  -19.1563  -28.8849   23.2877 C   0  0  0  0  0  0
  -18.9506  -30.1448   23.8899 C   0  0  0  0  0  0
  -17.6515  -30.6597   24.0593 C   0  0  0  0  0  0
  -25.9050  -34.9441   23.5097 C   0  0  0  0  0  0
  -16.5394  -29.9103   23.6393 C   0  0  0  0  0  0
  -16.7286  -28.6529   23.0394 C   0  0  0  0  0  0
  -26.4498  -31.6578   25.0708 C   0  0  0  0  0  0
  -25.3722  -31.3722   26.1429 C   0  0  0  0  0  0
  -27.0351  -30.3001   24.6186 C   0  0  0  0  0  0
  -27.6049  -32.4327   25.7490 C   0  0  0  0  0  0
  -27.5577  -37.1797   24.8465 C   0  0  0  0  0  0
  -21.4211  -29.3023   22.3631 N   0  0  0  0  0  0
  -26.4288  -37.3773   23.9412 N   0  0  0  0  0  0
  -24.6956  -31.0552   22.0941 N   0  0  0  0  0  0
  -23.4182  -28.8181   23.3054 O   0  0  0  0  0  0
  -28.3197  -26.3990   20.1644 O   0  0  0  0  0  0
  -26.5628  -34.8907   22.4669 O   0  0  0  0  0  0
  -23.5455  -32.1382   23.7280 O   0  0  0  0  0  0
  -31.7871  -19.1452   20.3259 C   0  0  0  0  0  0
  -30.7656  -20.1168   20.2896 C   0  0  0  0  0  0
  -31.5036  -17.7671   20.4534 C   0  0  0  0  0  0
  -29.4128  -19.7454   20.3855 C   0  0  0  0  0  0
  -29.1404  -18.3127   20.5098 C   0  0  0  0  0  0
  -30.1732  -17.2882   20.5391 C   0  0  0  0  0  0
  -28.8278  -23.7585   20.2642 C   0  0  0  0  0  0
  -27.9522  -21.6729   21.5168 C   0  0  0  0  0  0
  -28.2751  -20.8342   20.3150 C   0  0  2  0  0  0
  -28.0309  -22.4160   20.1948 C   0  0  2  0  0  0
  -27.1385  -17.6791   19.1238 C   0  0  0  0  0  0
  -27.6897  -17.8517   20.5481 C   0  0  0  0  0  0
  -28.0169  -25.0514   20.7366 C   0  0  0  0  0  0
  -29.8747  -15.8345   20.6593 N   0  0  0  0  0  0
  -30.0288  -23.8189   19.9868 O   0  0  0  0  0  0
  -31.4728  -12.5472   19.1508 H   0  0  0  0  0  0
  -30.3807  -11.4495   19.9406 H   0  0  0  0  0  0
  -29.7819  -11.7153   17.5140 H   0  0  0  0  0  0
  -29.6362  -13.4447   17.7135 H   0  0  0  0  0  0
  -27.8944  -11.2743   18.9238 H   0  0  0  0  0  0
  -27.3727  -12.5038   17.8007 H   0  0  0  0  0  0
  -27.6401  -14.2488   19.4723 H   0  0  0  0  0  0
  -28.7128  -12.1411   21.4102 H   0  0  0  0  0  0
  -28.4318  -13.8218   21.7989 H   0  0  0  0  0  0
  -25.2726   -9.5658   22.4766 H   0  0  0  0  0  0
  -23.9953   -7.4611   22.7473 H   0  0  0  0  0  0
  -21.0827   -8.8754   19.8929 H   0  0  0  0  0  0
  -22.3688  -10.9647   19.6140 H   0  0  0  0  0  0
  -21.2008   -7.6136   23.9733 H   0  0  0  0  0  0
  -21.1473   -6.0503   25.9090 H   0  0  0  0  0  0
  -22.0604   -2.7599   23.2860 H   0  0  0  0  0  0
  -22.3988  -11.9874   22.4814 H   0  0  0  0  0  0
  -21.1013  -13.1260   22.2549 H   0  0  0  0  0  0
  -24.6461  -15.8283   20.5359 H   0  0  0  0  0  0
  -26.2426  -15.6107   20.0304 H   0  0  0  0  0  0
  -26.7217  -32.5421   23.1080 H   0  0  0  0  0  0
  -25.0073  -33.9693   25.0398 H   0  0  0  0  0  0
  -22.7236  -31.2990   21.3910 H   0  0  0  0  0  0
  -23.3747  -35.9632   23.3305 H   0  0  0  0  0  0
  -24.3581  -36.8914   22.2058 H   0  0  0  0  0  0
  -23.7251  -37.6495   23.6661 H   0  0  0  0  0  0
  -26.1047  -31.5386   20.6003 H   0  0  0  0  0  0
  -26.8499  -30.8318   22.0018 H   0  0  0  0  0  0
  -28.1294  -28.9622   21.1956 H   0  0  0  0  0  0
  -26.0019  -25.9101   19.0111 H   0  0  0  0  0  0
  -23.9865  -27.2953   19.0061 H   0  0  0  0  0  0
  -23.7656  -30.5774   19.3975 H   0  0  0  0  0  0
  -22.7652  -29.2335   19.8583 H   0  0  0  0  0  0
  -25.1296  -36.1923   25.0824 H   0  0  0  0  0  0
  -21.0003  -28.3238   24.1366 H   0  0  0  0  0  0
  -20.5607  -26.2332   23.3592 H   0  0  0  0  0  0
  -21.6612  -26.7378   22.1157 H   0  0  0  0  0  0
  -19.6861  -25.6346   21.1191 H   0  0  0  0  0  0
  -19.6631  -27.3264   20.6736 H   0  0  0  0  0  0
  -17.4181  -26.6663   21.4062 H   0  0  0  0  0  0
  -18.0402  -26.0093   22.9056 H   0  0  0  0  0  0
  -19.8022  -30.7269   24.2212 H   0  0  0  0  0  0
  -17.5096  -31.6293   24.5177 H   0  0  0  0  0  0
  -15.5405  -30.3014   23.7756 H   0  0  0  0  0  0
  -15.8660  -28.0887   22.7110 H   0  0  0  0  0  0
  -24.5881  -30.7101   25.7747 H   0  0  0  0  0  0
  -24.8921  -32.2889   26.4868 H   0  0  0  0  0  0
  -25.8025  -30.8873   27.0202 H   0  0  0  0  0  0
  -26.2930  -29.6741   24.1222 H   0  0  0  0  0  0
  -27.4064  -29.7277   25.4701 H   0  0  0  0  0  0
  -27.8793  -30.4294   23.9408 H   0  0  0  0  0  0
  -27.2643  -33.3620   26.2077 H   0  0  0  0  0  0
  -28.3847  -32.6914   25.0312 H   0  0  0  0  0  0
  -28.0738  -31.8452   26.5402 H   0  0  0  0  0  0
  -28.2599  -38.0095   24.7504 H   0  0  0  0  0  0
  -28.1075  -36.2618   24.6299 H   0  0  0  0  0  0
  -27.2291  -37.1459   25.8870 H   0  0  0  0  0  0
  -20.9426  -29.8706   21.6786 H   0  0  0  0  0  0
  -26.0171  -38.2855   24.1389 H   0  0  0  0  0  0
  -32.8176  -19.4650   20.2514 H   0  0  0  0  0  0
  -31.0327  -21.1588   20.1753 H   0  0  0  0  0  0
  -32.3456  -17.0914   20.4814 H   0  0  0  0  0  0
  -28.7574  -21.8487   22.2286 H   0  0  0  0  0  0
  -26.9711  -21.5321   21.9670 H   0  0  0  0  0  0
  -27.4400  -20.3429   19.8304 H   0  0  0  0  0  0
  -27.0627  -22.6129   19.7408 H   0  0  0  0  0  0
  -27.2067  -18.5988   18.5423 H   0  0  0  0  0  0
  -26.0884  -17.3898   19.1291 H   0  0  0  0  0  0
  -27.7007  -16.9173   18.5842 H   0  0  0  0  0  0
  -27.0853  -18.5585   21.1156 H   0  0  0  0  0  0
  -27.5961  -16.9198   21.1054 H   0  0  0  0  0  0
  -28.1836  -25.1340   21.8102 H   0  0  0  0  0  0
  -26.9599  -24.8153   20.6434 H   0  0  0  0  0  0
  -28.9103  -15.6187   20.8546 H   0  0  0  0  0  0
  1 25  1  0  0  0
  1 30  2  0  0  0
  1 84  1  0  0  0
  2  3  1  0  0  0
  2 25  1  0  0  0
  2 86  1  0  0  0
  2 87  1  0  0  0
  3  4  1  0  0  0
  3 88  1  0  0  0
  3 89  1  0  0  0
  4  5  1  0  0  0
  4 90  1  0  0  0
  4 91  1  0  0  0
  5  6  1  0  0  0
  5 26  1  0  0  0
  5 92  1  0  0  0
  6 25  1  0  0  0
  6 93  1  0  0  0
  6 94  1  0  0  0
  7  8  2  0  0  0
  7 26  1  0  0  0
  7 29  1  0  0  0
  8  9  1  0  0  0
  8 22  1  0  0  0
  9 10  1  0  0  0
  9 27  2  0  0  0
 10 11  2  0  0  0
 10 15  1  0  0  0
 11 12  1  0  0  0
 11 95  1  0  0  0
 12 13  2  0  0  0
 12 96  1  0  0  0
 13 14  1  0  0  0
 13 31  1  0  0  0
 14 15  2  0  0  0
 14 97  1  0  0  0
 15 98  1  0  0  0
 16 17  2  0  0  0
 16 21  1  0  0  0
 16 31  1  0  0  0
 17 18  1  0  0  0
 17 99  1  0  0  0
 18 19  2  0  0  0
 18100  1  0  0  0
 19 20  1  0  0  0
 19 24  1  0  0  0
 20 21  2  0  0  0
 20101  1  0  0  0
 21 23  1  0  0  0
 22 28  1  0  0  0
 22 32  2  0  0  0
 26 27  1  0  0  0
 28102  1  0  0  0
 28103  1  0  0  0
 29104  1  0  0  0
 29105  1  0  0  0
 33 34  1  0  0  0
 33 66  1  0  0  0
 33 70  2  0  0  0
 34 36  1  0  0  0
 34 59  1  0  0  0
 34106  1  0  0  0
 35 44  2  0  0  0
 35 45  1  0  0  0
 35 68  1  0  0  0
 36 56  1  0  0  0
 36107  1  0  0  0
 37 39  1  0  0  0
 37 47  1  0  0  0
 37 66  1  0  0  0
 37108  1  0  0  0
 38 43  2  0  0  0
 38 46  1  0  0  0
 38 47  1  0  0  0
 39 64  1  0  0  0
 39 67  2  0  0  0
 40 52  1  0  0  0
 40 53  2  0  0  0
 40 58  1  0  0  0
 41109  1  0  0  0
 41110  1  0  0  0
 41111  1  0  0  0
 41 48  1  0  0  0
 42 43  1  0  0  0
 42 66  1  0  0  0
 42112  1  0  0  0
 42113  1  0  0  0
 43 44  1  0  0  0
 44114  1  0  0  0
 45 46  2  0  0  0
 45115  1  0  0  0
 46116  1  0  0  0
 47117  1  0  0  0
 47118  1  0  0  0
 48 56  1  0  0  0
 48 65  1  0  0  0
 48119  1  0  0  0
 49 50  1  0  0  0
 49 53  1  0  0  0
 49 64  1  0  0  0
 49120  1  0  0  0
 50 51  1  0  0  0
 50121  1  0  0  0
 50122  1  0  0  0
 51 52  1  0  0  0
 51123  1  0  0  0
 51124  1  0  0  0
 52125  1  0  0  0
 52126  1  0  0  0
 53 54  1  0  0  0
 54 55  2  0  0  0
 54127  1  0  0  0
 55 57  1  0  0  0
 55128  1  0  0  0
 56 69  2  0  0  0
 57 58  2  0  0  0
 57129  1  0  0  0
 58130  1  0  0  0
 59 60  1  0  0  0
 59 61  1  0  0  0
 59 62  1  0  0  0
 60131  1  0  0  0
 60132  1  0  0  0
 60133  1  0  0  0
 61134  1  0  0  0
 61135  1  0  0  0
 61136  1  0  0  0
 62137  1  0  0  0
 62138  1  0  0  0
 62139  1  0  0  0
 63 65  1  0  0  0
 63140  1  0  0  0
 63141  1  0  0  0
 63142  1  0  0  0
 64143  1  0  0  0
 65144  1  0  0  0
 68 83  1  0  0  0
 71 72  2  0  0  0
 71 73  1  0  0  0
 71145  1  0  0  0
 72 74  1  0  0  0
 72146  1  0  0  0
 73 76  2  0  0  0
 73147  1  0  0  0
 74 75  2  0  0  0
 74 79  1  0  0  0
 75 76  1  0  0  0
 75 82  1  0  0  0
 76 84  1  0  0  0
 77 83  1  0  0  0
 77 85  2  0  0  0
 77 80  1  0  0  0
 78 79  1  0  0  0
 78 80  1  0  0  0
 78148  1  0  0  0
 78149  1  0  0  0
 79 80  1  0  0  0
 79150  1  0  0  0
 80151  1  0  0  0
 81 82  1  0  0  0
 81152  1  0  0  0
 81153  1  0  0  0
 81154  1  0  0  0
 82155  1  0  0  0
 82156  1  0  0  0
 83157  1  0  0  0
 83158  1  0  0  0
 84159  1  0  0  0
M  ISO  4   1 100  68 101  83 101  84 100
M  END
> <chiral flag>
0

> <version>
0

> <s_m_source_file>
/data/baiqing/PycharmProjects/Reinvent-master-3.2/result/LINK_invent/BTK/process_docking_weight1_custom_product_contain_oxygen_bond_distance_aromatic_linkinvent_7_9_3/rearranged_h_0146.sdf

> <i_m_source_file_index>
29

> <r_mmod_Potential_Energy-OPLS-2005>
234.223770141602

> <r_mmod_Stretch_Energy-OPLS-2005>
112.598922729492

> <r_mmod_Bend_Energy-OPLS-2005>
226.174926757812

> <r_mmod_Torsional_Energy-OPLS-2005>
264.536163330078

> <r_mmod_Improper_Torsional_Energy-OPLS-2005>
5.19032144546509

> <r_mmod_Van_der_Waal_Energy-OPLS-2005>
138.091934204102

> <r_mmod_Electrostatic_Energy-OPLS-2005>
-359.708740234375

> <r_mmod_Solvation_Energy-OPLS-2005>
-222.015747070312

> <b_mmod_Minimization_Converged-OPLS-2005>
0

> <r_mmod_RMS_Derivative-OPLS-2005>
3.00095057487488

$$$$
29
                    3D
 Structure written by MMmdl.
156165  0  0  1  0            999 V2000
  -30.7466  -14.4126   20.6599 C   0  0  0  0  0  0
  -30.4280  -12.3076   19.4063 C   0  0  0  0  0  0
  -29.4915  -12.5188   18.2004 C   0  0  0  0  0  0
  -28.0170  -12.3634   18.6236 C   0  0  0  0  0  0
  -27.6626  -13.1979   19.8808 C   0  0  2  0  0  0
  -28.7046  -12.9528   20.9962 C   0  0  0  0  0  0
  -25.2588  -13.8165   20.5717 C   0  0  0  0  0  0
  -24.1814  -13.0457   20.9196 C   0  0  0  0  0  0
  -24.6350  -11.6906   20.8727 C   0  0  0  0  0  0
  -23.9037  -10.4308   21.0382 C   0  0  0  0  0  0
  -24.3608   -9.4238   21.9173 C   0  0  0  0  0  0
  -23.6295   -8.2269   22.0740 C   0  0  0  0  0  0
  -22.4262   -8.0308   21.3550 C   0  0  0  0  0  0
  -21.9889   -9.0269   20.4627 C   0  0  0  0  0  0
  -22.7219  -10.2151   20.3031 C   0  0  0  0  0  0
  -21.6860   -6.0745   22.5281 C   0  0  0  0  0  0
  -21.3994   -6.5636   23.8225 C   0  0  0  0  0  0
  -21.3658   -5.6792   24.9186 C   0  0  0  0  0  0
  -21.6044   -4.3063   24.7228 C   0  0  0  0  0  0
  -21.8810   -3.8158   23.4349 C   0  0  0  0  0  0
  -21.9182   -4.6968   22.3400 C   0  0  0  0  0  0
  -22.7855  -13.5269   21.1891 C   0  0  0  0  0  0
  -22.1676   -4.2159   21.0985 F   0  0  0  0  0  0
  -21.5634   -3.4538   25.7747 F   0  0  0  0  0  0
  -30.0402  -13.2643   20.4576 N   0  0  0  0  0  0
  -26.3000  -12.9309   20.3360 N   0  0  0  0  0  0
  -25.9265  -11.6475   20.5729 N   0  0  0  0  0  0
  -22.0472  -12.8236   22.0398 N   0  0  0  0  0  0
  -25.4335  -15.1892   20.4214 N   0  0  0  0  0  0
  -31.8203  -14.6334   20.0901 O   0  0  0  0  0  0
  -21.6649   -6.8890   21.4251 O   0  0  0  0  0  0
  -22.3555  -14.5611   20.6804 O   0  0  0  0  0  0
  -24.6158  -31.8655   23.2121 C   0  0  0  0  0  0
  -25.9073  -32.4790   23.8440 C   0  0  1  0  0  0
  -27.2346  -27.4198   20.1143 C   0  0  0  0  0  0
  -25.5952  -33.8596   24.2337 N   0  0  0  0  0  0
  -23.4061  -30.4918   21.5462 C   0  0  2  0  0  0
  -24.8532  -28.9535   20.1209 C   0  0  0  0  0  0
  -22.7437  -29.4655   22.4931 C   0  0  0  0  0  0
  -18.0333  -28.1340   22.8483 C   0  0  0  0  0  0
  -24.1491  -36.7307   23.2619 C   0  0  0  0  0  0
  -25.9334  -30.8332   21.3658 C   0  0  0  0  0  0
  -26.0105  -29.4651   20.7156 C   0  0  0  0  0  0
  -27.2027  -28.7067   20.7035 C   0  0  0  0  0  0
  -26.0534  -26.9261   19.5093 C   0  0  0  0  0  0
  -24.8684  -27.6854   19.5169 C   0  0  0  0  0  0
  -23.6240  -29.8294   20.1595 C   0  0  0  0  0  0
  -25.4100  -36.3056   24.0316 C   0  0  1  0  0  0
  -20.5899  -28.3702   23.1324 C   0  0  2  0  0  0
  -20.6875  -26.9438   22.5420 C   0  0  0  0  0  0
  -19.5889  -26.6447   21.5193 C   0  0  0  0  0  0
  -18.2066  -26.7887   22.1641 C   0  0  0  0  0  0
  -19.1546  -28.8821   23.2907 C   0  0  0  0  0  0
  -18.9440  -30.1418   23.8927 C   0  0  0  0  0  0
  -17.6428  -30.6530   24.0550 C   0  0  0  0  0  0
  -25.9038  -34.9429   23.5097 C   0  0  0  0  0  0
  -16.5355  -29.9017   23.6264 C   0  0  0  0  0  0
  -16.7307  -28.6442   23.0277 C   0  0  0  0  0  0
  -26.4537  -31.6574   25.0750 C   0  0  0  0  0  0
  -25.3876  -31.3722   26.1557 C   0  0  0  0  0  0
  -27.0340  -30.2988   24.6170 C   0  0  0  0  0  0
  -27.6114  -32.4269   25.7551 C   0  0  0  0  0  0
  -27.5563  -37.1807   24.8454 C   0  0  0  0  0  0
  -21.4162  -29.3088   22.3738 N   0  0  0  0  0  0
  -26.4261  -37.3759   23.9416 N   0  0  0  0  0  0
  -24.6696  -31.0789   22.0992 N   0  0  0  0  0  0
  -23.4224  -28.8126   23.2923 O   0  0  0  0  0  0
  -28.4461  -26.7466   20.1245 O   0  0  0  0  0  0
  -26.5553  -34.8870   22.4616 O   0  0  0  0  0  0
  -23.5358  -32.1399   23.7535 O   0  0  0  0  0  0
  -29.0239  -18.8424   21.5445 C   0  0  0  0  0  0
  -29.4989  -17.5040   21.6855 C   0  0  0  0  0  0
  -30.6273  -17.4103   22.3955 C   0  0  0  0  0  0
  -29.8502  -19.7518   22.1819 C   0  0  0  0  0  0
  -27.0959  -24.5336   22.0880 C   0  0  0  0  0  0
  -28.2576  -24.4458   21.4045 C   0  0  0  0  0  0
  -29.2252  -21.9853   21.4220 C   0  0  0  0  0  0
  -29.1035  -16.1463   21.2243 C   0  0  0  0  0  0
  -31.1724  -16.0445   22.4627 C   0  0  0  0  0  0
  -29.3390  -23.4556   21.8501 C   0  0  0  0  0  0
  -28.6108  -25.3068   20.1731 C   0  0  0  0  0  0
  -30.2526  -15.2667   21.5885 N   0  0  0  0  0  0
  -29.7542  -21.1001   22.2849 N   0  0  0  0  0  0
  -28.7088  -21.6806   20.3432 O   0  0  0  0  0  0
  -31.1839  -18.9334   22.9905 S   0  0  0  0  0  0
  -31.4725  -12.4139   19.1032 H   0  0  0  0  0  0
  -30.3447  -11.2877   19.7815 H   0  0  0  0  0  0
  -29.7297  -11.8093   17.4076 H   0  0  0  0  0  0
  -29.6554  -13.5122   17.7743 H   0  0  0  0  0  0
  -27.8353  -11.3058   18.8264 H   0  0  0  0  0  0
  -27.3571  -12.6358   17.7980 H   0  0  0  0  0  0
  -27.7124  -14.2451   19.5899 H   0  0  0  0  0  0
  -28.6786  -11.9085   21.3107 H   0  0  0  0  0  0
  -28.4527  -13.5170   21.8937 H   0  0  0  0  0  0
  -25.2750   -9.5732   22.4740 H   0  0  0  0  0  0
  -24.0015   -7.4651   22.7425 H   0  0  0  0  0  0
  -21.0825   -8.8792   19.8919 H   0  0  0  0  0  0
  -22.3693  -10.9687   19.6142 H   0  0  0  0  0  0
  -21.1991   -7.6149   23.9750 H   0  0  0  0  0  0
  -21.1482   -6.0507   25.9097 H   0  0  0  0  0  0
  -22.0572   -2.7610   23.2848 H   0  0  0  0  0  0
  -22.4105  -11.9941   22.4849 H   0  0  0  0  0  0
  -21.1079  -13.1230   22.2562 H   0  0  0  0  0  0
  -24.6752  -15.8444   20.5662 H   0  0  0  0  0  0
  -26.2821  -15.6329   20.0956 H   0  0  0  0  0  0
  -26.7119  -32.5541   23.1203 H   0  0  0  0  0  0
  -25.0227  -33.9823   25.0559 H   0  0  0  0  0  0
  -22.6988  -31.3087   21.3990 H   0  0  0  0  0  0
  -23.3695  -35.9701   23.3282 H   0  0  0  0  0  0
  -24.3585  -36.8932   22.2037 H   0  0  0  0  0  0
  -23.7338  -37.6543   23.6643 H   0  0  0  0  0  0
  -26.0481  -31.6038   20.6013 H   0  0  0  0  0  0
  -26.8186  -30.8854   21.9881 H   0  0  0  0  0  0
  -28.1019  -29.1035   21.1545 H   0  0  0  0  0  0
  -26.0190  -25.9664   19.0153 H   0  0  0  0  0  0
  -23.9736  -27.2919   19.0557 H   0  0  0  0  0  0
  -23.7665  -30.6011   19.4028 H   0  0  0  0  0  0
  -22.7491  -29.2642   19.8376 H   0  0  0  0  0  0
  -25.1270  -36.1879   25.0814 H   0  0  0  0  0  0
  -20.9950  -28.3245   24.1443 H   0  0  0  0  0  0
  -20.5891  -26.2253   23.3570 H   0  0  0  0  0  0
  -21.6774  -26.7626   22.1209 H   0  0  0  0  0  0
  -19.7120  -25.6403   21.1126 H   0  0  0  0  0  0
  -19.6805  -27.3333   20.6776 H   0  0  0  0  0  0
  -17.4411  -26.6548   21.4012 H   0  0  0  0  0  0
  -18.0563  -26.0014   22.9060 H   0  0  0  0  0  0
  -19.7915  -30.7235   24.2323 H   0  0  0  0  0  0
  -17.4944  -31.6216   24.5091 H   0  0  0  0  0  0
  -15.5324  -30.2895   23.7532 H   0  0  0  0  0  0
  -15.8719  -28.0762   22.6909 H   0  0  0  0  0  0
  -24.6039  -30.7023   25.8009 H   0  0  0  0  0  0
  -24.9097  -32.2883   26.5034 H   0  0  0  0  0  0
  -25.8350  -30.8957   27.0298 H   0  0  0  0  0  0
  -26.2888  -29.6763   24.1202 H   0  0  0  0  0  0
  -27.4006  -29.7244   25.4701 H   0  0  0  0  0  0
  -27.8781  -30.4207   23.9372 H   0  0  0  0  0  0
  -27.2707  -33.3507   26.2248 H   0  0  0  0  0  0
  -28.3948  -32.6925   25.0432 H   0  0  0  0  0  0
  -28.0749  -31.8311   26.5428 H   0  0  0  0  0  0
  -28.2554  -38.0112   24.7412 H   0  0  0  0  0  0
  -28.1061  -36.2628   24.6325 H   0  0  0  0  0  0
  -27.2279  -37.1533   25.8856 H   0  0  0  0  0  0
  -20.9299  -29.8928   21.7068 H   0  0  0  0  0  0
  -26.0106  -38.2818   24.1428 H   0  0  0  0  0  0
  -28.1231  -19.0841   20.9963 H   0  0  0  0  0  0
  -26.9037  -23.8976   22.9416 H   0  0  0  0  0  0
  -26.3212  -25.2325   21.8125 H   0  0  0  0  0  0
  -28.9016  -16.1467   20.1540 H   0  0  0  0  0  0
  -28.2036  -15.8105   21.7415 H   0  0  0  0  0  0
  -31.1478  -15.6632   23.4831 H   0  0  0  0  0  0
  -32.2115  -16.0426   22.1255 H   0  0  0  0  0  0
  -29.3527  -23.4738   22.9419 H   0  0  0  0  0  0
  -30.3194  -23.8223   21.5411 H   0  0  0  0  0  0
  -29.1318  -25.7046   21.0466 H   0  0  0  0  0  0
  -27.6151  -25.0350   19.8563 H   0  0  0  0  0  0
  -30.2338  -21.5065   23.0776 H   0  0  0  0  0  0
  1 25  1  0  0  0
  1 30  2  0  0  0
  1 82  1  0  0  0
  2  3  1  0  0  0
  2 25  1  0  0  0
  2 86  1  0  0  0
  2 87  1  0  0  0
  3  4  1  0  0  0
  3 88  1  0  0  0
  3 89  1  0  0  0
  4  5  1  0  0  0
  4 90  1  0  0  0
  4 91  1  0  0  0
  5  6  1  0  0  0
  5 26  1  0  0  0
  5 92  1  0  0  0
  6 25  1  0  0  0
  6 93  1  0  0  0
  6 94  1  0  0  0
  7  8  2  0  0  0
  7 26  1  0  0  0
  7 29  1  0  0  0
  8  9  1  0  0  0
  8 22  1  0  0  0
  9 10  1  0  0  0
  9 27  2  0  0  0
 10 11  2  0  0  0
 10 15  1  0  0  0
 11 12  1  0  0  0
 11 95  1  0  0  0
 12 13  2  0  0  0
 12 96  1  0  0  0
 13 14  1  0  0  0
 13 31  1  0  0  0
 14 15  2  0  0  0
 14 97  1  0  0  0
 15 98  1  0  0  0
 16 17  2  0  0  0
 16 21  1  0  0  0
 16 31  1  0  0  0
 17 18  1  0  0  0
 17 99  1  0  0  0
 18 19  2  0  0  0
 18100  1  0  0  0
 19 20  1  0  0  0
 19 24  1  0  0  0
 20 21  2  0  0  0
 20101  1  0  0  0
 21 23  1  0  0  0
 22 28  1  0  0  0
 22 32  2  0  0  0
 26 27  1  0  0  0
 28102  1  0  0  0
 28103  1  0  0  0
 29104  1  0  0  0
 29105  1  0  0  0
 33 34  1  0  0  0
 33 66  1  0  0  0
 33 70  2  0  0  0
 34 36  1  0  0  0
 34 59  1  0  0  0
 34106  1  0  0  0
 35 44  2  0  0  0
 35 45  1  0  0  0
 35 68  1  0  0  0
 36 56  1  0  0  0
 36107  1  0  0  0
 37 39  1  0  0  0
 37 47  1  0  0  0
 37 66  1  0  0  0
 37108  1  0  0  0
 38 43  2  0  0  0
 38 46  1  0  0  0
 38 47  1  0  0  0
 39 64  1  0  0  0
 39 67  2  0  0  0
 40 52  1  0  0  0
 40 53  2  0  0  0
 40 58  1  0  0  0
 41109  1  0  0  0
 41110  1  0  0  0
 41111  1  0  0  0
 41 48  1  0  0  0
 42 43  1  0  0  0
 42 66  1  0  0  0
 42112  1  0  0  0
 42113  1  0  0  0
 43 44  1  0  0  0
 44114  1  0  0  0
 45 46  2  0  0  0
 45115  1  0  0  0
 46116  1  0  0  0
 47117  1  0  0  0
 47118  1  0  0  0
 48 56  1  0  0  0
 48 65  1  0  0  0
 48119  1  0  0  0
 49 50  1  0  0  0
 49 53  1  0  0  0
 49 64  1  0  0  0
 49120  1  0  0  0
 50 51  1  0  0  0
 50121  1  0  0  0
 50122  1  0  0  0
 51 52  1  0  0  0
 51123  1  0  0  0
 51124  1  0  0  0
 52125  1  0  0  0
 52126  1  0  0  0
 53 54  1  0  0  0
 54 55  2  0  0  0
 54127  1  0  0  0
 55 57  1  0  0  0
 55128  1  0  0  0
 56 69  2  0  0  0
 57 58  2  0  0  0
 57129  1  0  0  0
 58130  1  0  0  0
 59 60  1  0  0  0
 59 61  1  0  0  0
 59 62  1  0  0  0
 60131  1  0  0  0
 60132  1  0  0  0
 60133  1  0  0  0
 61134  1  0  0  0
 61135  1  0  0  0
 61136  1  0  0  0
 62137  1  0  0  0
 62138  1  0  0  0
 62139  1  0  0  0
 63 65  1  0  0  0
 63140  1  0  0  0
 63141  1  0  0  0
 63142  1  0  0  0
 64143  1  0  0  0
 65144  1  0  0  0
 68 81  1  0  0  0
 71 72  1  0  0  0
 71 74  2  0  0  0
 71145  1  0  0  0
 72 73  2  0  0  0
 72 78  1  0  0  0
 73 79  1  0  0  0
 73 85  1  0  0  0
 74 83  1  0  0  0
 74 85  1  0  0  0
 75 76  2  0  0  0
 75146  1  0  0  0
 75147  1  0  0  0
 76 80  1  0  0  0
 76 81  1  0  0  0
 77 80  1  0  0  0
 77 83  1  0  0  0
 77 84  2  0  0  0
 78 82  1  0  0  0
 78148  1  0  0  0
 78149  1  0  0  0
 79 82  1  0  0  0
 79150  1  0  0  0
 79151  1  0  0  0
 80152  1  0  0  0
 80153  1  0  0  0
 81154  1  0  0  0
 81155  1  0  0  0
 83156  1  0  0  0
M  ISO  4   1 100  68 101  81 101  82 100
M  END
> <chiral flag>
0

> <version>
0

> <s_m_source_file>
/data/baiqing/PycharmProjects/Reinvent-master-3.2/result/LINK_invent/BTK/process_docking_weight1_custom_product_contain_oxygen_bond_distance_aromatic_linkinvent_7_9_3/rearranged_h_0146.sdf

> <i_m_source_file_index>
30

> <r_mmod_Potential_Energy-OPLS-2005>
295.629028320312

> <r_mmod_Stretch_Energy-OPLS-2005>
45.5839233398438

> <r_mmod_Bend_Energy-OPLS-2005>
417.961456298828

> <r_mmod_Torsional_Energy-OPLS-2005>
251.898483276367

> <r_mmod_Improper_Torsional_Energy-OPLS-2005>
6.31746387481689

> <r_mmod_Van_der_Waal_Energy-OPLS-2005>
141.495971679688

> <r_mmod_Electrostatic_Energy-OPLS-2005>
-355.557006835938

> <r_mmod_Solvation_Energy-OPLS-2005>
-223.012985229492

> <b_mmod_Minimization_Converged-OPLS-2005>
0

> <r_mmod_RMS_Derivative-OPLS-2005>
5.680006980896

$$$$
30
                    3D
 Structure written by MMmdl.
169178  0  0  1  0            999 V2000
  -30.7526  -14.6001   20.4507 C   0  0  0  0  0  0
  -30.4323  -12.3720   19.4696 C   0  0  0  0  0  0
  -29.5128  -12.4795   18.2365 C   0  0  0  0  0  0
  -28.0346  -12.3478   18.6490 C   0  0  0  0  0  0
  -27.6571  -13.2419   19.8623 C   0  0  2  0  0  0
  -28.7112  -13.1699   20.9941 C   0  0  0  0  0  0
  -25.2571  -13.8257   20.5706 C   0  0  0  0  0  0
  -24.1855  -13.0445   20.9233 C   0  0  0  0  0  0
  -24.6504  -11.6955   20.8801 C   0  0  0  0  0  0
  -23.9183  -10.4315   21.0444 C   0  0  0  0  0  0
  -24.3701   -9.4205   21.9212 C   0  0  0  0  0  0
  -23.6359   -8.2245   22.0774 C   0  0  0  0  0  0
  -22.4333   -8.0317   21.3568 C   0  0  0  0  0  0
  -22.0003   -9.0305   20.4655 C   0  0  0  0  0  0
  -22.7365  -10.2170   20.3078 C   0  0  0  0  0  0
  -21.6868   -6.0774   22.5294 C   0  0  0  0  0  0
  -21.4014   -6.5670   23.8215 C   0  0  0  0  0  0
  -21.3659   -5.6805   24.9184 C   0  0  0  0  0  0
  -21.6041   -4.3072   24.7213 C   0  0  0  0  0  0
  -21.8837   -3.8176   23.4329 C   0  0  0  0  0  0
  -21.9197   -4.7006   22.3389 C   0  0  0  0  0  0
  -22.7877  -13.5204   21.1879 C   0  0  0  0  0  0
  -22.1670   -4.2200   21.0975 F   0  0  0  0  0  0
  -21.5629   -3.4545   25.7717 F   0  0  0  0  0  0
  -30.0322  -13.4398   20.4040 N   0  0  0  0  0  0
  -26.3061  -12.9491   20.3393 N   0  0  0  0  0  0
  -25.9439  -11.6636   20.5840 N   0  0  0  0  0  0
  -22.0534  -12.8129   22.0440 N   0  0  0  0  0  0
  -25.4122  -15.1963   20.4047 N   0  0  0  0  0  0
  -31.9560  -14.6019   20.1940 O   0  0  0  0  0  0
  -21.6665   -6.8942   21.4261 O   0  0  0  0  0  0
  -22.3523  -14.5499   20.6759 O   0  0  0  0  0  0
  -24.6116  -31.8680   23.2109 C   0  0  0  0  0  0
  -25.9006  -32.4799   23.8436 C   0  0  1  0  0  0
  -27.2550  -27.4067   20.1459 C   0  0  0  0  0  0
  -25.5861  -33.8607   24.2374 N   0  0  0  0  0  0
  -23.4114  -30.4793   21.5459 C   0  0  2  0  0  0
  -24.8660  -28.9237   20.1426 C   0  0  0  0  0  0
  -22.7394  -29.4684   22.5010 C   0  0  0  0  0  0
  -18.0260  -28.1399   22.8451 C   0  0  0  0  0  0
  -24.1498  -36.7281   23.2671 C   0  0  0  0  0  0
  -25.9375  -30.8152   21.3787 C   0  0  0  0  0  0
  -26.0199  -29.4354   20.7549 C   0  0  0  0  0  0
  -27.2126  -28.6734   20.7805 C   0  0  0  0  0  0
  -26.0912  -26.9185   19.5210 C   0  0  0  0  0  0
  -24.8925  -27.6552   19.5328 C   0  0  0  0  0  0
  -23.6354  -29.7996   20.1670 C   0  0  0  0  0  0
  -25.4118  -36.3085   24.0365 C   0  0  1  0  0  0
  -20.5833  -28.3747   23.1253 C   0  0  2  0  0  0
  -20.6759  -26.9494   22.5370 C   0  0  0  0  0  0
  -19.5757  -26.6433   21.5161 C   0  0  0  0  0  0
  -18.1925  -26.7951   22.1582 C   0  0  0  0  0  0
  -19.1493  -28.8880   23.2846 C   0  0  0  0  0  0
  -18.9452  -30.1455   23.8911 C   0  0  0  0  0  0
  -17.6460  -30.6598   24.0577 C   0  0  0  0  0  0
  -25.9025  -34.9450   23.5167 C   0  0  0  0  0  0
  -16.5344  -29.9100   23.6349 C   0  0  0  0  0  0
  -16.7250  -28.6514   23.0347 C   0  0  0  0  0  0
  -26.4487  -31.6546   25.0717 C   0  0  0  0  0  0
  -25.3762  -31.3529   26.1446 C   0  0  0  0  0  0
  -27.0445  -30.3032   24.6099 C   0  0  0  0  0  0
  -27.6090  -32.4281   25.7414 C   0  0  0  0  0  0
  -27.5591  -37.1793   24.8482 C   0  0  0  0  0  0
  -21.4125  -29.3100   22.3660 N   0  0  0  0  0  0
  -26.4307  -37.3761   23.9412 N   0  0  0  0  0  0
  -24.6698  -31.0711   22.1040 N   0  0  0  0  0  0
  -23.4085  -28.8277   23.3164 O   0  0  0  0  0  0
  -28.4181  -26.6749   20.0128 O   0  0  0  0  0  0
  -26.5586  -34.8904   22.4724 O   0  0  0  0  0  0
  -23.5282  -32.1492   23.7415 O   0  0  0  0  0  0
  -32.0436  -18.4507   18.6634 C   0  0  0  0  0  0
  -31.4981  -17.2079   19.0335 C   0  0  0  0  0  0
  -30.1111  -18.3274   20.6710 C   0  0  0  0  0  0
  -30.6354  -19.6148   20.2904 C   0  0  0  0  0  0
  -31.6525  -19.6505   19.2914 C   0  0  0  0  0  0
  -30.5599  -17.0969   20.0896 C   0  0  0  0  0  0
  -30.2995  -20.8179   21.1226 C   0  0  0  0  0  0
  -29.0876  -23.9042   19.3274 C   0  0  0  0  0  0
  -29.4684  -22.4040   19.3297 C   0  0  0  0  0  0
  -29.7574  -23.3588   21.5036 C   0  0  1  0  0  0
  -28.7018  -24.2577   20.7710 C   0  0  2  0  0  0
  -32.4332  -20.9030   18.9028 C   0  0  0  0  0  0
  -29.5309  -23.2427   23.0275 C   0  0  0  0  0  0
  -27.2519  -23.8067   21.0553 C   0  0  0  0  0  0
  -28.8295  -25.8054   21.0864 C   0  0  0  0  0  0
  -29.8480  -22.0649   20.7225 N   0  0  0  0  0  0
  -30.0817  -15.7866   20.5427 N   0  0  0  0  0  0
  -30.5294  -20.6217   22.4098 N   0  3  0  0  0  0
  -31.4778  -12.4525   19.1590 H   0  0  0  0  0  0
  -30.3424  -11.3997   19.9572 H   0  0  0  0  0  0
  -29.7689  -11.7017   17.5167 H   0  0  0  0  0  0
  -29.6693  -13.4338   17.7330 H   0  0  0  0  0  0
  -27.8571  -11.2981   18.8873 H   0  0  0  0  0  0
  -27.3875  -12.5784   17.8014 H   0  0  0  0  0  0
  -27.6535  -14.2677   19.4940 H   0  0  0  0  0  0
  -28.7058  -12.1936   21.4792 H   0  0  0  0  0  0
  -28.4845  -13.8963   21.7760 H   0  0  0  0  0  0
  -25.2850   -9.5632   22.4789 H   0  0  0  0  0  0
  -24.0052   -7.4625   22.7481 H   0  0  0  0  0  0
  -21.0950   -8.8879   19.8929 H   0  0  0  0  0  0
  -22.3896  -10.9737   19.6179 H   0  0  0  0  0  0
  -21.2015   -7.6180   23.9747 H   0  0  0  0  0  0
  -21.1458   -6.0532   25.9089 H   0  0  0  0  0  0
  -22.0614   -2.7647   23.2816 H   0  0  0  0  0  0
  -22.4197  -11.9761   22.4720 H   0  0  0  0  0  0
  -21.1149  -13.1096   22.2699 H   0  0  0  0  0  0
  -24.6274  -15.8342   20.4999 H   0  0  0  0  0  0
  -26.2435  -15.6475   20.0428 H   0  0  0  0  0  0
  -26.7090  -32.5560   23.1231 H   0  0  0  0  0  0
  -25.0025  -33.9806   25.0522 H   0  0  0  0  0  0
  -22.7078  -31.2946   21.3828 H   0  0  0  0  0  0
  -23.3752  -35.9608   23.3281 H   0  0  0  0  0  0
  -24.3637  -36.8950   22.2095 H   0  0  0  0  0  0
  -23.7262  -37.6481   23.6718 H   0  0  0  0  0  0
  -26.0511  -31.5666   20.5960 H   0  0  0  0  0  0
  -26.8220  -30.8843   22.0004 H   0  0  0  0  0  0
  -28.0900  -29.0592   21.2837 H   0  0  0  0  0  0
  -26.1249  -25.9574   19.0264 H   0  0  0  0  0  0
  -24.0176  -27.2365   19.0534 H   0  0  0  0  0  0
  -23.7758  -30.5685   19.4068 H   0  0  0  0  0  0
  -22.7594  -29.2232   19.8640 H   0  0  0  0  0  0
  -25.1308  -36.1960   25.0859 H   0  0  0  0  0  0
  -20.9880  -28.3352   24.1391 H   0  0  0  0  0  0
  -20.5679  -26.2401   23.3585 H   0  0  0  0  0  0
  -21.6638  -26.7564   22.1181 H   0  0  0  0  0  0
  -19.6970  -25.6349   21.1212 H   0  0  0  0  0  0
  -19.6674  -27.3219   20.6670 H   0  0  0  0  0  0
  -17.4200  -26.6649   21.3973 H   0  0  0  0  0  0
  -18.0342  -26.0102   22.8998 H   0  0  0  0  0  0
  -19.7935  -30.7192   24.2339 H   0  0  0  0  0  0
  -17.5052  -31.6289   24.5169 H   0  0  0  0  0  0
  -15.5351  -30.2997   23.7704 H   0  0  0  0  0  0
  -15.8651  -28.0832   22.7076 H   0  0  0  0  0  0
  -24.5935  -30.6913   25.7717 H   0  0  0  0  0  0
  -24.8896  -32.2585   26.5058 H   0  0  0  0  0  0
  -25.8090  -30.8562   27.0133 H   0  0  0  0  0  0
  -26.3061  -29.6572   24.1340 H   0  0  0  0  0  0
  -27.4494  -29.7451   25.4558 H   0  0  0  0  0  0
  -27.8705  -30.4408   23.9121 H   0  0  0  0  0  0
  -27.2811  -33.3641   26.1954 H   0  0  0  0  0  0
  -28.3852  -32.6752   25.0151 H   0  0  0  0  0  0
  -28.0812  -31.8418   26.5319 H   0  0  0  0  0  0
  -28.2593  -38.0112   24.7592 H   0  0  0  0  0  0
  -28.1116  -36.2647   24.6242 H   0  0  0  0  0  0
  -27.2317  -37.1370   25.8893 H   0  0  0  0  0  0
  -20.9320  -29.8780   21.6820 H   0  0  0  0  0  0
  -26.0174  -38.2843   24.1364 H   0  0  0  0  0  0
  -32.8209  -18.4701   17.9128 H   0  0  0  0  0  0
  -31.8532  -16.3397   18.4997 H   0  0  0  0  0  0
  -29.3962  -18.2799   21.4800 H   0  0  0  0  0  0
  -28.2791  -24.0985   18.6220 H   0  0  0  0  0  0
  -29.9447  -24.5090   19.0223 H   0  0  0  0  0  0
  -30.2545  -22.2462   18.5974 H   0  0  0  0  0  0
  -28.6149  -21.7992   19.0242 H   0  0  0  0  0  0
  -30.7253  -23.8505   21.3787 H   0  0  0  0  0  0
  -33.4909  -20.6728   18.7678 H   0  0  0  0  0  0
  -32.3889  -21.6956   19.6481 H   0  0  0  0  0  0
  -32.0792  -21.2830   17.9460 H   0  0  0  0  0  0
  -28.7675  -22.5079   23.2706 H   0  0  0  0  0  0
  -29.2159  -24.1941   23.4527 H   0  0  0  0  0  0
  -30.4480  -22.9719   23.5522 H   0  0  0  0  0  0
  -27.0364  -22.7980   20.7021 H   0  0  0  0  0  0
  -26.5455  -24.4916   20.5966 H   0  0  0  0  0  0
  -27.0309  -23.8209   22.1185 H   0  0  0  0  0  0
  -29.8742  -26.0586   21.2720 H   0  0  0  0  0  0
  -28.3084  -26.0681   22.0102 H   0  0  0  0  0  0
  -29.1313  -15.7279   20.8730 H   0  0  0  0  0  0
  -30.9939  -19.7738   22.6991 H   0  0  0  0  0  0
  -30.2579  -21.3150   23.0829 H   0  0  0  0  0  0
  1 25  1  0  0  0
  1 30  2  0  0  0
  1 87  1  0  0  0
  2  3  1  0  0  0
  2 25  1  0  0  0
  2 89  1  0  0  0
  2 90  1  0  0  0
  3  4  1  0  0  0
  3 91  1  0  0  0
  3 92  1  0  0  0
  4  5  1  0  0  0
  4 93  1  0  0  0
  4 94  1  0  0  0
  5  6  1  0  0  0
  5 26  1  0  0  0
  5 95  1  0  0  0
  6 25  1  0  0  0
  6 96  1  0  0  0
  6 97  1  0  0  0
  7  8  2  0  0  0
  7 26  1  0  0  0
  7 29  1  0  0  0
  8  9  1  0  0  0
  8 22  1  0  0  0
  9 10  1  0  0  0
  9 27  2  0  0  0
 10 11  2  0  0  0
 10 15  1  0  0  0
 11 12  1  0  0  0
 11 98  1  0  0  0
 12 13  2  0  0  0
 12 99  1  0  0  0
 13 14  1  0  0  0
 13 31  1  0  0  0
 14 15  2  0  0  0
 14100  1  0  0  0
 15101  1  0  0  0
 16 17  2  0  0  0
 16 21  1  0  0  0
 16 31  1  0  0  0
 17 18  1  0  0  0
 17102  1  0  0  0
 18 19  2  0  0  0
 18103  1  0  0  0
 19 20  1  0  0  0
 19 24  1  0  0  0
 20 21  2  0  0  0
 20104  1  0  0  0
 21 23  1  0  0  0
 22 28  1  0  0  0
 22 32  2  0  0  0
 26 27  1  0  0  0
 28105  1  0  0  0
 28106  1  0  0  0
 29107  1  0  0  0
 29108  1  0  0  0
 33 34  1  0  0  0
 33 66  1  0  0  0
 33 70  2  0  0  0
 34 36  1  0  0  0
 34 59  1  0  0  0
 34109  1  0  0  0
 35 44  2  0  0  0
 35 45  1  0  0  0
 35 68  1  0  0  0
 36 56  1  0  0  0
 36110  1  0  0  0
 37 39  1  0  0  0
 37 47  1  0  0  0
 37 66  1  0  0  0
 37111  1  0  0  0
 38 43  2  0  0  0
 38 46  1  0  0  0
 38 47  1  0  0  0
 39 64  1  0  0  0
 39 67  2  0  0  0
 40 52  1  0  0  0
 40 53  2  0  0  0
 40 58  1  0  0  0
 41112  1  0  0  0
 41113  1  0  0  0
 41114  1  0  0  0
 41 48  1  0  0  0
 42 43  1  0  0  0
 42 66  1  0  0  0
 42115  1  0  0  0
 42116  1  0  0  0
 43 44  1  0  0  0
 44117  1  0  0  0
 45 46  2  0  0  0
 45118  1  0  0  0
 46119  1  0  0  0
 47120  1  0  0  0
 47121  1  0  0  0
 48 56  1  0  0  0
 48 65  1  0  0  0
 48122  1  0  0  0
 49 50  1  0  0  0
 49 53  1  0  0  0
 49 64  1  0  0  0
 49123  1  0  0  0
 50 51  1  0  0  0
 50124  1  0  0  0
 50125  1  0  0  0
 51 52  1  0  0  0
 51126  1  0  0  0
 51127  1  0  0  0
 52128  1  0  0  0
 52129  1  0  0  0
 53 54  1  0  0  0
 54 55  2  0  0  0
 54130  1  0  0  0
 55 57  1  0  0  0
 55131  1  0  0  0
 56 69  2  0  0  0
 57 58  2  0  0  0
 57132  1  0  0  0
 58133  1  0  0  0
 59 60  1  0  0  0
 59 61  1  0  0  0
 59 62  1  0  0  0
 60134  1  0  0  0
 60135  1  0  0  0
 60136  1  0  0  0
 61137  1  0  0  0
 61138  1  0  0  0
 61139  1  0  0  0
 62140  1  0  0  0
 62141  1  0  0  0
 62142  1  0  0  0
 63 65  1  0  0  0
 63143  1  0  0  0
 63144  1  0  0  0
 63145  1  0  0  0
 64146  1  0  0  0
 65147  1  0  0  0
 68 85  1  0  0  0
 71 72  2  0  0  0
 71 75  1  0  0  0
 71148  1  0  0  0
 72 76  1  0  0  0
 72149  1  0  0  0
 73 74  1  0  0  0
 73 76  2  0  0  0
 73150  1  0  0  0
 74 75  2  0  0  0
 74 77  1  0  0  0
 75 82  1  0  0  0
 76 87  1  0  0  0
 77 86  1  0  0  0
 77 88  2  0  0  0
 78 79  1  0  0  0
 78 81  1  0  0  0
 78151  1  0  0  0
 78152  1  0  0  0
 79 86  1  0  0  0
 79153  1  0  0  0
 79154  1  0  0  0
 80 81  1  0  0  0
 80 83  1  0  0  0
 80 86  1  0  0  0
 80155  1  0  0  0
 81 84  1  0  0  0
 81 85  1  0  0  0
 82156  1  0  0  0
 82157  1  0  0  0
 82158  1  0  0  0
 83159  1  0  0  0
 83160  1  0  0  0
 83161  1  0  0  0
 84162  1  0  0  0
 84163  1  0  0  0
 84164  1  0  0  0
 85165  1  0  0  0
 85166  1  0  0  0
 87167  1  0  0  0
 88168  1  0  0  0
 88169  1  0  0  0
M  CHG  1  88   1
M  ISO  4   1 100  68 101  85 101  87 100
M  END
> <chiral flag>
0

> <version>
0

> <s_m_source_file>
/data/baiqing/PycharmProjects/Reinvent-master-3.2/result/LINK_invent/BTK/process_docking_weight1_custom_product_contain_oxygen_bond_distance_aromatic_linkinvent_7_9_3/rearranged_h_0146.sdf

> <i_m_source_file_index>
31

> <r_mmod_Potential_Energy-OPLS-2005>
42.7117156982422

> <r_mmod_Stretch_Energy-OPLS-2005>
66.8571853637695

> <r_mmod_Bend_Energy-OPLS-2005>
175.325485229492

> <r_mmod_Torsional_Energy-OPLS-2005>
353.885803222656

> <r_mmod_Improper_Torsional_Energy-OPLS-2005>
7.9349102973938

> <r_mmod_Van_der_Waal_Energy-OPLS-2005>
161.436508178711

> <r_mmod_Electrostatic_Energy-OPLS-2005>
-384.096435546875

> <r_mmod_Solvation_Energy-OPLS-2005>
-377.834716796875

> <b_mmod_Minimization_Converged-OPLS-2005>
0

> <r_mmod_RMS_Derivative-OPLS-2005>
6.50439929962158

$$$$
31
                    3D
 Structure written by MMmdl.
158167  0  0  1  0            999 V2000
  -30.7099  -14.4418   20.5510 C   0  0  0  0  0  0
  -30.4206  -12.2706   19.4354 C   0  0  0  0  0  0
  -29.5080  -12.5229   18.2149 C   0  0  0  0  0  0
  -28.0206  -12.3988   18.6034 C   0  0  0  0  0  0
  -27.6678  -13.2091   19.8794 C   0  0  2  0  0  0
  -28.7045  -12.9711   21.0063 C   0  0  0  0  0  0
  -25.2602  -13.8168   20.5655 C   0  0  0  0  0  0
  -24.1839  -13.0436   20.9156 C   0  0  0  0  0  0
  -24.6393  -11.6899   20.8718 C   0  0  0  0  0  0
  -23.9050  -10.4286   21.0400 C   0  0  0  0  0  0
  -24.3595   -9.4214   21.9194 C   0  0  0  0  0  0
  -23.6251   -8.2267   22.0773 C   0  0  0  0  0  0
  -22.4248   -8.0304   21.3534 C   0  0  0  0  0  0
  -21.9883   -9.0294   20.4655 C   0  0  0  0  0  0
  -22.7219  -10.2166   20.3051 C   0  0  0  0  0  0
  -21.6869   -6.0723   22.5263 C   0  0  0  0  0  0
  -21.4025   -6.5636   23.8186 C   0  0  0  0  0  0
  -21.3658   -5.6783   24.9164 C   0  0  0  0  0  0
  -21.6044   -4.3046   24.7223 C   0  0  0  0  0  0
  -21.8818   -3.8126   23.4352 C   0  0  0  0  0  0
  -21.9188   -4.6936   22.3388 C   0  0  0  0  0  0
  -22.7885  -13.5249   21.1808 C   0  0  0  0  0  0
  -22.1671   -4.2127   21.0967 F   0  0  0  0  0  0
  -21.5615   -3.4517   25.7740 F   0  0  0  0  0  0
  -30.0531  -13.2497   20.4719 N   0  0  0  0  0  0
  -26.3039  -12.9336   20.3325 N   0  0  0  0  0  0
  -25.9314  -11.6499   20.5707 N   0  0  0  0  0  0
  -22.0499  -12.8295   22.0385 N   0  0  0  0  0  0
  -25.4386  -15.1890   20.4115 N   0  0  0  0  0  0
  -31.8043  -14.6551   20.0255 O   0  0  0  0  0  0
  -21.6644   -6.8889   21.4225 O   0  0  0  0  0  0
  -22.3607  -14.5575   20.6638 O   0  0  0  0  0  0
  -24.6163  -31.8679   23.2109 C   0  0  0  0  0  0
  -25.9053  -32.4820   23.8427 C   0  0  1  0  0  0
  -27.2300  -27.4190   20.1061 C   0  0  0  0  0  0
  -25.5884  -33.8617   24.2352 N   0  0  0  0  0  0
  -23.4070  -30.4937   21.5499 C   0  0  2  0  0  0
  -24.8517  -28.9617   20.1131 C   0  0  0  0  0  0
  -22.7446  -29.4656   22.4961 C   0  0  0  0  0  0
  -18.0281  -28.1383   22.8489 C   0  0  0  0  0  0
  -24.1475  -36.7322   23.2645 C   0  0  0  0  0  0
  -25.9399  -30.8268   21.3699 C   0  0  0  0  0  0
  -26.0131  -29.4627   20.7137 C   0  0  0  0  0  0
  -27.2061  -28.7006   20.7044 C   0  0  0  0  0  0
  -26.0490  -26.9403   19.4890 C   0  0  0  0  0  0
  -24.8659  -27.7008   19.4947 C   0  0  0  0  0  0
  -23.6182  -29.8337   20.1608 C   0  0  0  0  0  0
  -25.4090  -36.3115   24.0345 C   0  0  1  0  0  0
  -20.5877  -28.3672   23.1307 C   0  0  2  0  0  0
  -20.6762  -26.9400   22.5408 C   0  0  0  0  0  0
  -19.5733  -26.6389   21.5215 C   0  0  0  0  0  0
  -18.1913  -26.7938   22.1627 C   0  0  0  0  0  0
  -19.1540  -28.8856   23.2892 C   0  0  0  0  0  0
  -18.9460  -30.1461   23.8909 C   0  0  0  0  0  0
  -17.6453  -30.6590   24.0579 C   0  0  0  0  0  0
  -25.9029  -34.9476   23.5156 C   0  0  0  0  0  0
  -16.5341  -29.9089   23.6329 C   0  0  0  0  0  0
  -16.7267  -28.6505   23.0350 C   0  0  0  0  0  0
  -26.4478  -31.6609   25.0773 C   0  0  0  0  0  0
  -25.3741  -31.3717   26.1528 C   0  0  0  0  0  0
  -27.0310  -30.3043   24.6168 C   0  0  0  0  0  0
  -27.6062  -32.4343   25.7501 C   0  0  0  0  0  0
  -27.5589  -37.1801   24.8454 C   0  0  0  0  0  0
  -21.4172  -29.3032   22.3707 N   0  0  0  0  0  0
  -26.4278  -37.3801   23.9429 N   0  0  0  0  0  0
  -24.6722  -31.0786   22.0998 N   0  0  0  0  0  0
  -23.4215  -28.8204   23.3019 O   0  0  0  0  0  0
  -28.3820  -26.6572   20.1502 O   0  0  0  0  0  0
  -26.5602  -34.8928   22.4734 O   0  0  0  0  0  0
  -23.5351  -32.1425   23.7491 O   0  0  0  0  0  0
  -31.5534  -18.5999   20.0231 C   0  0  0  0  0  0
  -31.4911  -20.0191   20.1685 C   0  0  0  0  0  0
  -29.1067  -20.0082   20.8888 C   0  0  0  0  0  0
  -30.3681  -17.9294   20.3537 C   0  0  0  0  0  0
  -29.1909  -18.6198   20.7664 C   0  0  0  0  0  0
  -30.3052  -20.7247   20.5841 C   0  0  0  0  0  0
  -29.4161  -24.4566   20.6907 C   0  0  0  0  0  0
  -28.3417  -17.3733   20.7777 C   0  0  0  0  0  0
  -29.6385  -16.6032   20.2186 C   0  0  2  0  0  0
  -28.9944  -22.8438   22.6025 C   0  0  0  0  0  0
  -28.1722  -25.2308   20.1997 C   0  0  0  0  0  0
  -29.2201  -22.9632   21.0762 C   0  0  2  0  0  0
  -30.3544  -22.1327   20.6442 N   0  0  0  0  0  0
  -29.9783  -15.4468   21.0525 N   0  0  0  0  0  0
  -30.5190  -25.0097   20.7701 O   0  0  0  0  0  0
  -31.4765  -12.3287   19.1570 H   0  0  0  0  0  0
  -30.2677  -11.2575   19.8137 H   0  0  0  0  0  0
  -29.7423  -11.8192   17.4146 H   0  0  0  0  0  0
  -29.7003  -13.5217   17.8172 H   0  0  0  0  0  0
  -27.7946  -11.3441   18.7633 H   0  0  0  0  0  0
  -27.3974  -12.7235   17.7703 H   0  0  0  0  0  0
  -27.7170  -14.2628   19.6029 H   0  0  0  0  0  0
  -28.6538  -11.9333   21.3439 H   0  0  0  0  0  0
  -28.4720  -13.5773   21.8823 H   0  0  0  0  0  0
  -25.2757   -9.5701   22.4754 H   0  0  0  0  0  0
  -23.9947   -7.4682   22.7524 H   0  0  0  0  0  0
  -21.0806   -8.8851   19.8989 H   0  0  0  0  0  0
  -22.3706  -10.9713   19.6164 H   0  0  0  0  0  0
  -21.2050   -7.6155   23.9698 H   0  0  0  0  0  0
  -21.1473   -6.0525   25.9066 H   0  0  0  0  0  0
  -22.0589   -2.7578   23.2876 H   0  0  0  0  0  0
  -22.4030  -11.9935   22.4788 H   0  0  0  0  0  0
  -21.1138  -13.1420   22.2564 H   0  0  0  0  0  0
  -24.6846  -15.8547   20.5321 H   0  0  0  0  0  0
  -26.2832  -15.6041   20.0431 H   0  0  0  0  0  0
  -26.7139  -32.5515   23.1205 H   0  0  0  0  0  0
  -25.0019  -33.9782   25.0480 H   0  0  0  0  0  0
  -22.6952  -31.3095   21.4130 H   0  0  0  0  0  0
  -23.3728  -35.9666   23.3300 H   0  0  0  0  0  0
  -24.3572  -36.8943   22.2060 H   0  0  0  0  0  0
  -23.7223  -37.6531   23.6649 H   0  0  0  0  0  0
  -26.0684  -31.5941   20.6051 H   0  0  0  0  0  0
  -26.8205  -30.8701   21.9975 H   0  0  0  0  0  0
  -28.0986  -29.0790   21.1843 H   0  0  0  0  0  0
  -26.0210  -25.9796   18.9959 H   0  0  0  0  0  0
  -23.9766  -27.3120   19.0187 H   0  0  0  0  0  0
  -23.7362  -30.6140   19.4077 H   0  0  0  0  0  0
  -22.7379  -29.2641   19.8571 H   0  0  0  0  0  0
  -25.1250  -36.1998   25.0834 H   0  0  0  0  0  0
  -20.9962  -28.3225   24.1430 H   0  0  0  0  0  0
  -20.5640  -26.2282   23.3602 H   0  0  0  0  0  0
  -21.6628  -26.7412   22.1222 H   0  0  0  0  0  0
  -19.6880  -25.6303   21.1238 H   0  0  0  0  0  0
  -19.6671  -27.3205   20.6744 H   0  0  0  0  0  0
  -17.4175  -26.6692   21.4033 H   0  0  0  0  0  0
  -18.0304  -26.0075   22.9026 H   0  0  0  0  0  0
  -19.7928  -30.7283   24.2262 H   0  0  0  0  0  0
  -17.5002  -31.6254   24.5199 H   0  0  0  0  0  0
  -15.5349  -30.2997   23.7640 H   0  0  0  0  0  0
  -15.8668  -28.0832   22.7059 H   0  0  0  0  0  0
  -24.5868  -30.7118   25.7869 H   0  0  0  0  0  0
  -24.8984  -32.2873   26.5058 H   0  0  0  0  0  0
  -25.8090  -30.8821   27.0249 H   0  0  0  0  0  0
  -26.2861  -29.6803   24.1212 H   0  0  0  0  0  0
  -27.4066  -29.7302   25.4655 H   0  0  0  0  0  0
  -27.8713  -30.4385   23.9347 H   0  0  0  0  0  0
  -27.2679  -33.3621   26.2140 H   0  0  0  0  0  0
  -28.3803  -32.6951   25.0263 H   0  0  0  0  0  0
  -28.0805  -31.8437   26.5357 H   0  0  0  0  0  0
  -28.2577  -38.0131   24.7546 H   0  0  0  0  0  0
  -28.1112  -36.2670   24.6188 H   0  0  0  0  0  0
  -27.2332  -37.1343   25.8864 H   0  0  0  0  0  0
  -20.9334  -29.8772   21.6946 H   0  0  0  0  0  0
  -26.0173  -38.2880   24.1451 H   0  0  0  0  0  0
  -32.4271  -18.0967   19.6304 H   0  0  0  0  0  0
  -32.3780  -20.5849   19.9137 H   0  0  0  0  0  0
  -28.1708  -20.4774   21.1584 H   0  0  0  0  0  0
  -27.5026  -17.4121   20.0837 H   0  0  0  0  0  0
  -28.0411  -17.1045   21.7927 H   0  0  0  0  0  0
  -29.5214  -16.3590   19.1592 H   0  0  0  0  0  0
  -28.1663  -23.4684   22.9413 H   0  0  0  0  0  0
  -29.8791  -23.1350   23.1681 H   0  0  0  0  0  0
  -28.7517  -21.8288   22.9112 H   0  0  0  0  0  0
  -27.3417  -24.9960   20.8682 H   0  0  0  0  0  0
  -27.9080  -24.8648   19.2074 H   0  0  0  0  0  0
  -28.3264  -22.6148   20.5555 H   0  0  0  0  0  0
  -31.1450  -22.6262   20.2304 H   0  0  0  0  0  0
  -29.2291  -15.1356   21.6465 H   0  0  0  0  0  0
  1 25  1  0  0  0
  1 30  2  0  0  0
  1 84  1  0  0  0
  2  3  1  0  0  0
  2 25  1  0  0  0
  2 86  1  0  0  0
  2 87  1  0  0  0
  3  4  1  0  0  0
  3 88  1  0  0  0
  3 89  1  0  0  0
  4  5  1  0  0  0
  4 90  1  0  0  0
  4 91  1  0  0  0
  5  6  1  0  0  0
  5 26  1  0  0  0
  5 92  1  0  0  0
  6 25  1  0  0  0
  6 93  1  0  0  0
  6 94  1  0  0  0
  7  8  2  0  0  0
  7 26  1  0  0  0
  7 29  1  0  0  0
  8  9  1  0  0  0
  8 22  1  0  0  0
  9 10  1  0  0  0
  9 27  2  0  0  0
 10 11  2  0  0  0
 10 15  1  0  0  0
 11 12  1  0  0  0
 11 95  1  0  0  0
 12 13  2  0  0  0
 12 96  1  0  0  0
 13 14  1  0  0  0
 13 31  1  0  0  0
 14 15  2  0  0  0
 14 97  1  0  0  0
 15 98  1  0  0  0
 16 17  2  0  0  0
 16 21  1  0  0  0
 16 31  1  0  0  0
 17 18  1  0  0  0
 17 99  1  0  0  0
 18 19  2  0  0  0
 18100  1  0  0  0
 19 20  1  0  0  0
 19 24  1  0  0  0
 20 21  2  0  0  0
 20101  1  0  0  0
 21 23  1  0  0  0
 22 28  1  0  0  0
 22 32  2  0  0  0
 26 27  1  0  0  0
 28102  1  0  0  0
 28103  1  0  0  0
 29104  1  0  0  0
 29105  1  0  0  0
 33 34  1  0  0  0
 33 66  1  0  0  0
 33 70  2  0  0  0
 34 36  1  0  0  0
 34 59  1  0  0  0
 34106  1  0  0  0
 35 44  2  0  0  0
 35 45  1  0  0  0
 35 68  1  0  0  0
 36 56  1  0  0  0
 36107  1  0  0  0
 37 39  1  0  0  0
 37 47  1  0  0  0
 37 66  1  0  0  0
 37108  1  0  0  0
 38 43  2  0  0  0
 38 46  1  0  0  0
 38 47  1  0  0  0
 39 64  1  0  0  0
 39 67  2  0  0  0
 40 52  1  0  0  0
 40 53  2  0  0  0
 40 58  1  0  0  0
 41109  1  0  0  0
 41110  1  0  0  0
 41111  1  0  0  0
 41 48  1  0  0  0
 42 43  1  0  0  0
 42 66  1  0  0  0
 42112  1  0  0  0
 42113  1  0  0  0
 43 44  1  0  0  0
 44114  1  0  0  0
 45 46  2  0  0  0
 45115  1  0  0  0
 46116  1  0  0  0
 47117  1  0  0  0
 47118  1  0  0  0
 48 56  1  0  0  0
 48 65  1  0  0  0
 48119  1  0  0  0
 49 50  1  0  0  0
 49 53  1  0  0  0
 49 64  1  0  0  0
 49120  1  0  0  0
 50 51  1  0  0  0
 50121  1  0  0  0
 50122  1  0  0  0
 51 52  1  0  0  0
 51123  1  0  0  0
 51124  1  0  0  0
 52125  1  0  0  0
 52126  1  0  0  0
 53 54  1  0  0  0
 54 55  2  0  0  0
 54127  1  0  0  0
 55 57  1  0  0  0
 55128  1  0  0  0
 56 69  2  0  0  0
 57 58  2  0  0  0
 57129  1  0  0  0
 58130  1  0  0  0
 59 60  1  0  0  0
 59 61  1  0  0  0
 59 62  1  0  0  0
 60131  1  0  0  0
 60132  1  0  0  0
 60133  1  0  0  0
 61134  1  0  0  0
 61135  1  0  0  0
 61136  1  0  0  0
 62137  1  0  0  0
 62138  1  0  0  0
 62139  1  0  0  0
 63 65  1  0  0  0
 63140  1  0  0  0
 63141  1  0  0  0
 63142  1  0  0  0
 64143  1  0  0  0
 65144  1  0  0  0
 68 81  1  0  0  0
 71 72  2  0  0  0
 71 74  1  0  0  0
 71145  1  0  0  0
 72 76  1  0  0  0
 72146  1  0  0  0
 73 75  1  0  0  0
 73 76  2  0  0  0
 73147  1  0  0  0
 74 75  2  0  0  0
 74 79  1  0  0  0
 75 78  1  0  0  0
 76 83  1  0  0  0
 77 81  1  0  0  0
 77 82  1  0  0  0
 77 85  2  0  0  0
 78 79  1  0  0  0
 78148  1  0  0  0
 78149  1  0  0  0
 79 84  1  0  0  0
 79150  1  0  0  0
 80151  1  0  0  0
 80152  1  0  0  0
 80153  1  0  0  0
 80 82  1  0  0  0
 81154  1  0  0  0
 81155  1  0  0  0
 82 83  1  0  0  0
 82156  1  0  0  0
 83157  1  0  0  0
 84158  1  0  0  0
M  ISO  4   1 100  68 101  81 101  84 100
M  END
> <chiral flag>
0

> <version>
0

> <s_m_source_file>
/data/baiqing/PycharmProjects/Reinvent-master-3.2/result/LINK_invent/BTK/process_docking_weight1_custom_product_contain_oxygen_bond_distance_aromatic_linkinvent_7_9_3/rearranged_h_0146.sdf

> <i_m_source_file_index>
32

> <r_mmod_Potential_Energy-OPLS-2005>
345.228057861328

> <r_mmod_Stretch_Energy-OPLS-2005>
59.3834686279297

> <r_mmod_Bend_Energy-OPLS-2005>
470.968322753906

> <r_mmod_Torsional_Energy-OPLS-2005>
247.984664916992

> <r_mmod_Improper_Torsional_Energy-OPLS-2005>
12.0193223953247

> <r_mmod_Van_der_Waal_Energy-OPLS-2005>
146.21858215332

> <r_mmod_Electrostatic_Energy-OPLS-2005>
-357.006469726562

> <r_mmod_Solvation_Energy-OPLS-2005>
-248.047973632812

> <b_mmod_Minimization_Converged-OPLS-2005>
0

> <r_mmod_RMS_Derivative-OPLS-2005>
5.21345043182373

$$$$
32
                    3D
 Structure written by MMmdl.
163171  0  0  1  0            999 V2000
  -30.7483  -14.3903   20.6432 C   0  0  0  0  0  0
  -30.4182  -12.2857   19.4003 C   0  0  0  0  0  0
  -29.4854  -12.5086   18.1946 C   0  0  0  0  0  0
  -28.0081  -12.3745   18.6116 C   0  0  0  0  0  0
  -27.6651  -13.2020   19.8790 C   0  0  2  0  0  0
  -28.7053  -12.9488   20.9925 C   0  0  0  0  0  0
  -25.2606  -13.8157   20.5671 C   0  0  0  0  0  0
  -24.1846  -13.0437   20.9159 C   0  0  0  0  0  0
  -24.6396  -11.6904   20.8733 C   0  0  0  0  0  0
  -23.9064  -10.4289   21.0411 C   0  0  0  0  0  0
  -24.3614   -9.4200   21.9188 C   0  0  0  0  0  0
  -23.6284   -8.2238   22.0759 C   0  0  0  0  0  0
  -22.4269   -8.0280   21.3546 C   0  0  0  0  0  0
  -21.9908   -9.0257   20.4649 C   0  0  0  0  0  0
  -22.7240  -10.2134   20.3057 C   0  0  0  0  0  0
  -21.6855   -6.0731   22.5279 C   0  0  0  0  0  0
  -21.4012   -6.5634   23.8212 C   0  0  0  0  0  0
  -21.3655   -5.6789   24.9176 C   0  0  0  0  0  0
  -21.6046   -4.3054   24.7229 C   0  0  0  0  0  0
  -21.8819   -3.8142   23.4352 C   0  0  0  0  0  0
  -21.9189   -4.6956   22.3406 C   0  0  0  0  0  0
  -22.7871  -13.5237   21.1824 C   0  0  0  0  0  0
  -22.1660   -4.2141   21.0982 F   0  0  0  0  0  0
  -21.5629   -3.4539   25.7740 F   0  0  0  0  0  0
  -30.0422  -13.2469   20.4467 N   0  0  0  0  0  0
  -26.3041  -12.9320   20.3385 N   0  0  0  0  0  0
  -25.9320  -11.6484   20.5770 N   0  0  0  0  0  0
  -22.0511  -12.8238   22.0391 N   0  0  0  0  0  0
  -25.4337  -15.1870   20.4074 N   0  0  0  0  0  0
  -31.8302  -14.6166   20.0909 O   0  0  0  0  0  0
  -21.6633   -6.8877   21.4240 O   0  0  0  0  0  0
  -22.3558  -14.5542   20.6673 O   0  0  0  0  0  0
  -24.6113  -31.8710   23.2125 C   0  0  0  0  0  0
  -25.9027  -32.4834   23.8408 C   0  0  1  0  0  0
  -27.2324  -27.4617   20.0984 C   0  0  0  0  0  0
  -25.5891  -33.8628   24.2341 N   0  0  0  0  0  0
  -23.3978  -30.4943   21.5532 C   0  0  2  0  0  0
  -24.8444  -28.9660   20.1135 C   0  0  0  0  0  0
  -22.7406  -29.4667   22.5016 C   0  0  0  0  0  0
  -18.0273  -28.1364   22.8498 C   0  0  0  0  0  0
  -24.1484  -36.7305   23.2641 C   0  0  0  0  0  0
  -25.9233  -30.8457   21.3614 C   0  0  0  0  0  0
  -26.0031  -29.4835   20.7069 C   0  0  0  0  0  0
  -27.2026  -28.7401   20.6930 C   0  0  0  0  0  0
  -26.0621  -26.9579   19.4885 C   0  0  0  0  0  0
  -24.8674  -27.7012   19.5001 C   0  0  0  0  0  0
  -23.6039  -29.8281   20.1667 C   0  0  0  0  0  0
  -25.4104  -36.3115   24.0344 C   0  0  1  0  0  0
  -20.5859  -28.3657   23.1330 C   0  0  2  0  0  0
  -20.6769  -26.9397   22.5425 C   0  0  0  0  0  0
  -19.5750  -26.6383   21.5212 C   0  0  0  0  0  0
  -18.1924  -26.7913   22.1621 C   0  0  0  0  0  0
  -19.1521  -28.8827   23.2913 C   0  0  0  0  0  0
  -18.9452  -30.1430   23.8923 C   0  0  0  0  0  0
  -17.6459  -30.6584   24.0558 C   0  0  0  0  0  0
  -25.9031  -34.9481   23.5142 C   0  0  0  0  0  0
  -16.5350  -29.9081   23.6315 C   0  0  0  0  0  0
  -16.7264  -28.6492   23.0346 C   0  0  0  0  0  0
  -26.4469  -31.6593   25.0715 C   0  0  0  0  0  0
  -25.3746  -31.3678   26.1469 C   0  0  0  0  0  0
  -27.0315  -30.3048   24.6052 C   0  0  0  0  0  0
  -27.6056  -32.4308   25.7472 C   0  0  0  0  0  0
  -27.5578  -37.1806   24.8470 C   0  0  0  0  0  0
  -21.4138  -29.3026   22.3749 N   0  0  0  0  0  0
  -26.4297  -37.3790   23.9406 N   0  0  0  0  0  0
  -24.6624  -31.0832   22.1015 N   0  0  0  0  0  0
  -23.4186  -28.8216   23.3057 O   0  0  0  0  0  0
  -28.3955  -26.7294   20.1170 O   0  0  0  0  0  0
  -26.5594  -34.8937   22.4705 O   0  0  0  0  0  0
  -23.5317  -32.1470   23.7532 O   0  0  0  0  0  0
  -29.8679  -17.7352   21.5063 C   0  0  0  0  0  0
  -31.9474  -16.7458   22.3170 C   0  0  0  0  0  0
  -31.6387  -19.1661   22.3755 C   0  0  0  0  0  0
  -30.6659  -16.5917   21.7412 C   0  0  0  0  0  0
  -30.3523  -19.0292   21.8032 C   0  0  0  0  0  0
  -32.4289  -18.0294   22.6345 C   0  0  0  0  0  0
  -28.7700  -22.4979   21.6935 C   0  0  0  0  0  0
  -30.6276  -25.0786   21.4191 C   0  0  0  0  0  0
  -28.9332  -26.2381   22.8596 C   0  0  0  0  0  0
  -28.7288  -23.7831   22.5302 C   0  0  0  0  0  0
  -29.8626  -21.4716   22.0217 C   0  0  0  0  0  0
  -28.2578  -25.3782   20.5769 C   0  0  0  0  0  0
  -29.1394  -25.1099   21.8255 C   0  0  0  0  0  0
  -30.1533  -15.3040   21.4260 N   0  0  0  0  0  0
  -29.5453  -20.1394   21.5077 N   0  0  0  0  0  0
  -27.9233  -22.2700   20.8229 O   0  0  0  0  0  0
  -33.6580  -18.1726   23.1873 F   0  0  0  0  0  0
  -31.4608  -12.3834   19.0924 H   0  0  0  0  0  0
  -30.3177  -11.2670   19.7783 H   0  0  0  0  0  0
  -29.7137  -11.7922   17.4041 H   0  0  0  0  0  0
  -29.6600  -13.4988   17.7708 H   0  0  0  0  0  0
  -27.8101  -11.3176   18.7960 H   0  0  0  0  0  0
  -27.3560  -12.6648   17.7869 H   0  0  0  0  0  0
  -27.7215  -14.2544   19.6008 H   0  0  0  0  0  0
  -28.6716  -11.9041   21.3062 H   0  0  0  0  0  0
  -28.4633  -13.5220   21.8882 H   0  0  0  0  0  0
  -25.2764   -9.5669   22.4762 H   0  0  0  0  0  0
  -23.9987   -7.4631   22.7484 H   0  0  0  0  0  0
  -21.0835   -8.8783   19.8959 H   0  0  0  0  0  0
  -22.3707  -10.9674   19.6161 H   0  0  0  0  0  0
  -21.2009   -7.6145   23.9711 H   0  0  0  0  0  0
  -21.1478   -6.0522   25.9075 H   0  0  0  0  0  0
  -22.0604   -2.7604   23.2856 H   0  0  0  0  0  0
  -22.4128  -11.9894   22.4769 H   0  0  0  0  0  0
  -21.1135  -13.1280   22.2604 H   0  0  0  0  0  0
  -24.6687  -15.8450   20.5127 H   0  0  0  0  0  0
  -26.2891  -15.6243   20.0880 H   0  0  0  0  0  0
  -26.7099  -32.5572   23.1174 H   0  0  0  0  0  0
  -25.0056  -33.9791   25.0495 H   0  0  0  0  0  0
  -22.6836  -31.3095   21.4154 H   0  0  0  0  0  0
  -23.3761  -35.9625   23.3318 H   0  0  0  0  0  0
  -24.3590  -36.8898   22.2053 H   0  0  0  0  0  0
  -23.7223  -37.6507   23.6651 H   0  0  0  0  0  0
  -26.0329  -31.6177   20.5985 H   0  0  0  0  0  0
  -26.8105  -30.8980   21.9797 H   0  0  0  0  0  0
  -28.0982  -29.1331   21.1535 H   0  0  0  0  0  0
  -26.0710  -25.9921   19.0040 H   0  0  0  0  0  0
  -23.9783  -27.2979   19.0331 H   0  0  0  0  0  0
  -23.7088  -30.6045   19.4083 H   0  0  0  0  0  0
  -22.7286  -29.2455   19.8734 H   0  0  0  0  0  0
  -25.1276  -36.1997   25.0836 H   0  0  0  0  0  0
  -20.9945  -28.3227   24.1449 H   0  0  0  0  0  0
  -20.5674  -26.2261   23.3611 H   0  0  0  0  0  0
  -21.6642  -26.7449   22.1210 H   0  0  0  0  0  0
  -19.6917  -25.6297   21.1226 H   0  0  0  0  0  0
  -19.6677  -27.3212   20.6754 H   0  0  0  0  0  0
  -17.4188  -26.6666   21.4024 H   0  0  0  0  0  0
  -18.0319  -26.0048   22.9009 H   0  0  0  0  0  0
  -19.7934  -30.7228   24.2312 H   0  0  0  0  0  0
  -17.5021  -31.6266   24.5162 H   0  0  0  0  0  0
  -15.5352  -30.2990   23.7630 H   0  0  0  0  0  0
  -15.8664  -28.0822   22.7037 H   0  0  0  0  0  0
  -24.5910  -30.7036   25.7795 H   0  0  0  0  0  0
  -24.8953  -32.2831   26.4958 H   0  0  0  0  0  0
  -25.8108  -30.8814   27.0204 H   0  0  0  0  0  0
  -26.2850  -29.6789   24.1143 H   0  0  0  0  0  0
  -27.4156  -29.7286   25.4482 H   0  0  0  0  0  0
  -27.8652  -30.4379   23.9150 H   0  0  0  0  0  0
  -27.2676  -33.3592   26.2091 H   0  0  0  0  0  0
  -28.3846  -32.6890   25.0284 H   0  0  0  0  0  0
  -28.0753  -31.8409   26.5351 H   0  0  0  0  0  0
  -28.2606  -38.0093   24.7530 H   0  0  0  0  0  0
  -28.1066  -36.2634   24.6295 H   0  0  0  0  0  0
  -27.2308  -37.1451   25.8875 H   0  0  0  0  0  0
  -20.9299  -29.8741   21.6966 H   0  0  0  0  0  0
  -26.0202  -38.2872   24.1416 H   0  0  0  0  0  0
  -28.8843  -17.6156   21.0734 H   0  0  0  0  0  0
  -32.5683  -15.8850   22.5199 H   0  0  0  0  0  0
  -32.0466  -20.1351   22.6185 H   0  0  0  0  0  0
  -31.2694  -24.8473   22.2701 H   0  0  0  0  0  0
  -30.9462  -26.0434   21.0218 H   0  0  0  0  0  0
  -30.8228  -24.3348   20.6455 H   0  0  0  0  0  0
  -29.4949  -26.0498   23.7754 H   0  0  0  0  0  0
  -27.8822  -26.3379   23.1333 H   0  0  0  0  0  0
  -29.2617  -27.2051   22.4774 H   0  0  0  0  0  0
  -29.3542  -23.6301   23.4097 H   0  0  0  0  0  0
  -27.7104  -23.8777   22.9075 H   0  0  0  0  0  0
  -29.9946  -21.4294   23.1039 H   0  0  0  0  0  0
  -30.8009  -21.8244   21.5919 H   0  0  0  0  0  0
  -27.2268  -25.1294   20.8369 H   0  0  0  0  0  0
  -28.5321  -24.7151   19.7561 H   0  0  0  0  0  0
  -29.2085  -15.0934   21.7115 H   0  0  0  0  0  0
  -28.6146  -20.0255   21.1102 H   0  0  0  0  0  0
  1 25  1  0  0  0
  1 30  2  0  0  0
  1 84  1  0  0  0
  2  3  1  0  0  0
  2 25  1  0  0  0
  2 88  1  0  0  0
  2 89  1  0  0  0
  3  4  1  0  0  0
  3 90  1  0  0  0
  3 91  1  0  0  0
  4  5  1  0  0  0
  4 92  1  0  0  0
  4 93  1  0  0  0
  5  6  1  0  0  0
  5 26  1  0  0  0
  5 94  1  0  0  0
  6 25  1  0  0  0
  6 95  1  0  0  0
  6 96  1  0  0  0
  7  8  2  0  0  0
  7 26  1  0  0  0
  7 29  1  0  0  0
  8  9  1  0  0  0
  8 22  1  0  0  0
  9 10  1  0  0  0
  9 27  2  0  0  0
 10 11  2  0  0  0
 10 15  1  0  0  0
 11 12  1  0  0  0
 11 97  1  0  0  0
 12 13  2  0  0  0
 12 98  1  0  0  0
 13 14  1  0  0  0
 13 31  1  0  0  0
 14 15  2  0  0  0
 14 99  1  0  0  0
 15100  1  0  0  0
 16 17  2  0  0  0
 16 21  1  0  0  0
 16 31  1  0  0  0
 17 18  1  0  0  0
 17101  1  0  0  0
 18 19  2  0  0  0
 18102  1  0  0  0
 19 20  1  0  0  0
 19 24  1  0  0  0
 20 21  2  0  0  0
 20103  1  0  0  0
 21 23  1  0  0  0
 22 28  1  0  0  0
 22 32  2  0  0  0
 26 27  1  0  0  0
 28104  1  0  0  0
 28105  1  0  0  0
 29106  1  0  0  0
 29107  1  0  0  0
 33 34  1  0  0  0
 33 66  1  0  0  0
 33 70  2  0  0  0
 34 36  1  0  0  0
 34 59  1  0  0  0
 34108  1  0  0  0
 35 44  2  0  0  0
 35 45  1  0  0  0
 35 68  1  0  0  0
 36 56  1  0  0  0
 36109  1  0  0  0
 37 39  1  0  0  0
 37 47  1  0  0  0
 37 66  1  0  0  0
 37110  1  0  0  0
 38 43  2  0  0  0
 38 46  1  0  0  0
 38 47  1  0  0  0
 39 64  1  0  0  0
 39 67  2  0  0  0
 40 52  1  0  0  0
 40 53  2  0  0  0
 40 58  1  0  0  0
 41111  1  0  0  0
 41112  1  0  0  0
 41113  1  0  0  0
 41 48  1  0  0  0
 42 43  1  0  0  0
 42 66  1  0  0  0
 42114  1  0  0  0
 42115  1  0  0  0
 43 44  1  0  0  0
 44116  1  0  0  0
 45 46  2  0  0  0
 45117  1  0  0  0
 46118  1  0  0  0
 47119  1  0  0  0
 47120  1  0  0  0
 48 56  1  0  0  0
 48 65  1  0  0  0
 48121  1  0  0  0
 49 50  1  0  0  0
 49 53  1  0  0  0
 49 64  1  0  0  0
 49122  1  0  0  0
 50 51  1  0  0  0
 50123  1  0  0  0
 50124  1  0  0  0
 51 52  1  0  0  0
 51125  1  0  0  0
 51126  1  0  0  0
 52127  1  0  0  0
 52128  1  0  0  0
 53 54  1  0  0  0
 54 55  2  0  0  0
 54129  1  0  0  0
 55 57  1  0  0  0
 55130  1  0  0  0
 56 69  2  0  0  0
 57 58  2  0  0  0
 57131  1  0  0  0
 58132  1  0  0  0
 59 60  1  0  0  0
 59 61  1  0  0  0
 59 62  1  0  0  0
 60133  1  0  0  0
 60134  1  0  0  0
 60135  1  0  0  0
 61136  1  0  0  0
 61137  1  0  0  0
 61138  1  0  0  0
 62139  1  0  0  0
 62140  1  0  0  0
 62141  1  0  0  0
 63 65  1  0  0  0
 63142  1  0  0  0
 63143  1  0  0  0
 63144  1  0  0  0
 64145  1  0  0  0
 65146  1  0  0  0
 68 82  1  0  0  0
 71 74  2  0  0  0
 71 75  1  0  0  0
 71147  1  0  0  0
 72 74  1  0  0  0
 72 76  2  0  0  0
 72148  1  0  0  0
 73 75  2  0  0  0
 73 76  1  0  0  0
 73149  1  0  0  0
 74 84  1  0  0  0
 75 85  1  0  0  0
 76 87  1  0  0  0
 77 80  1  0  0  0
 77 81  1  0  0  0
 77 86  2  0  0  0
 78150  1  0  0  0
 78151  1  0  0  0
 78152  1  0  0  0
 78 83  1  0  0  0
 79 83  1  0  0  0
 79153  1  0  0  0
 79154  1  0  0  0
 79155  1  0  0  0
 80 83  1  0  0  0
 80156  1  0  0  0
 80157  1  0  0  0
 81 85  1  0  0  0
 81158  1  0  0  0
 81159  1  0  0  0
 82 83  1  0  0  0
 82160  1  0  0  0
 82161  1  0  0  0
 84162  1  0  0  0
 85163  1  0  0  0
M  ISO  4   1 100  68 101  82 101  84 100
M  END
> <chiral flag>
0

> <version>
0

> <s_m_source_file>
/data/baiqing/PycharmProjects/Reinvent-master-3.2/result/LINK_invent/BTK/process_docking_weight1_custom_product_contain_oxygen_bond_distance_aromatic_linkinvent_7_9_3/rearranged_h_0146.sdf

> <i_m_source_file_index>
33

> <r_mmod_Potential_Energy-OPLS-2005>
-4.72382640838623

> <r_mmod_Stretch_Energy-OPLS-2005>
34.6966094970703

> <r_mmod_Bend_Energy-OPLS-2005>
104.131988525391

> <r_mmod_Torsional_Energy-OPLS-2005>
222.412979125977

> <r_mmod_Improper_Torsional_Energy-OPLS-2005>
2.94974279403687

> <r_mmod_Van_der_Waal_Energy-OPLS-2005>
159.14192199707

> <r_mmod_Electrostatic_Energy-OPLS-2005>
-313.784942626953

> <r_mmod_Solvation_Energy-OPLS-2005>
-222.649261474609

> <b_mmod_Minimization_Converged-OPLS-2005>
0

> <r_mmod_RMS_Derivative-OPLS-2005>
1.44804060459137

$$$$
33
                    3D
 Structure written by MMmdl.
152161  0  0  1  0            999 V2000
  -30.6665  -14.5661   20.4829 C   0  0  0  0  0  0
  -30.4236  -12.3408   19.4425 C   0  0  0  0  0  0
  -29.4982  -12.4856   18.2161 C   0  0  0  0  0  0
  -28.0202  -12.3428   18.6305 C   0  0  0  0  0  0
  -27.6514  -13.2139   19.8620 C   0  0  2  0  0  0
  -28.6980  -13.0722   20.9904 C   0  0  0  0  0  0
  -25.2561  -13.8169   20.5705 C   0  0  0  0  0  0
  -24.1814  -13.0436   20.9181 C   0  0  0  0  0  0
  -24.6383  -11.6907   20.8744 C   0  0  0  0  0  0
  -23.9056  -10.4291   21.0412 C   0  0  0  0  0  0
  -24.3608   -9.4209   21.9189 C   0  0  0  0  0  0
  -23.6284   -8.2243   22.0758 C   0  0  0  0  0  0
  -22.4266   -8.0281   21.3547 C   0  0  0  0  0  0
  -21.9898   -9.0257   20.4651 C   0  0  0  0  0  0
  -22.7229  -10.2135   20.3064 C   0  0  0  0  0  0
  -21.6846   -6.0735   22.5282 C   0  0  0  0  0  0
  -21.4013   -6.5639   23.8217 C   0  0  0  0  0  0
  -21.3656   -5.6792   24.9179 C   0  0  0  0  0  0
  -21.6037   -4.3055   24.7228 C   0  0  0  0  0  0
  -21.8817   -3.8147   23.4351 C   0  0  0  0  0  0
  -21.9187   -4.6964   22.3407 C   0  0  0  0  0  0
  -22.7838  -13.5232   21.1843 C   0  0  0  0  0  0
  -22.1650   -4.2151   21.0985 F   0  0  0  0  0  0
  -21.5633   -3.4538   25.7740 F   0  0  0  0  0  0
  -30.0155  -13.3694   20.4138 N   0  0  0  0  0  0
  -26.2985  -12.9346   20.3347 N   0  0  0  0  0  0
  -25.9313  -11.6503   20.5779 N   0  0  0  0  0  0
  -22.0481  -12.8231   22.0403 N   0  0  0  0  0  0
  -25.4301  -15.1890   20.4168 N   0  0  0  0  0  0
  -31.8565  -14.6748   20.1686 O   0  0  0  0  0  0
  -21.6632   -6.8879   21.4244 O   0  0  0  0  0  0
  -22.3523  -14.5539   20.6696 O   0  0  0  0  0  0
  -24.6191  -31.8638   23.2060 C   0  0  0  0  0  0
  -25.9067  -32.4800   23.8373 C   0  0  1  0  0  0
  -27.2293  -27.3865   20.1142 C   0  0  0  0  0  0
  -25.5909  -33.8600   24.2307 N   0  0  0  0  0  0
  -23.4101  -30.4857   21.5469 C   0  0  2  0  0  0
  -24.8578  -28.9446   20.1145 C   0  0  0  0  0  0
  -22.7434  -29.4638   22.4967 C   0  0  0  0  0  0
  -18.0278  -28.1377   22.8490 C   0  0  0  0  0  0
  -24.1490  -36.7306   23.2638 C   0  0  0  0  0  0
  -25.9428  -30.8171   21.3644 C   0  0  0  0  0  0
  -26.0212  -29.4479   20.7109 C   0  0  0  0  0  0
  -27.2139  -28.6795   20.6993 C   0  0  0  0  0  0
  -26.0498  -26.9086   19.5070 C   0  0  0  0  0  0
  -24.8696  -27.6775   19.5055 C   0  0  0  0  0  0
  -23.6217  -29.8166   20.1627 C   0  0  0  0  0  0
  -25.4111  -36.3099   24.0336 C   0  0  1  0  0  0
  -20.5869  -28.3671   23.1307 C   0  0  2  0  0  0
  -20.6767  -26.9401   22.5415 C   0  0  0  0  0  0
  -19.5746  -26.6384   21.5211 C   0  0  0  0  0  0
  -18.1926  -26.7924   22.1622 C   0  0  0  0  0  0
  -19.1525  -28.8841   23.2898 C   0  0  0  0  0  0
  -18.9453  -30.1446   23.8911 C   0  0  0  0  0  0
  -17.6455  -30.6585   24.0562 C   0  0  0  0  0  0
  -25.9040  -34.9464   23.5120 C   0  0  0  0  0  0
  -16.5346  -29.9086   23.6324 C   0  0  0  0  0  0
  -16.7265  -28.6499   23.0349 C   0  0  0  0  0  0
  -26.4481  -31.6589   25.0716 C   0  0  0  0  0  0
  -25.3741  -31.3698   26.1459 C   0  0  0  0  0  0
  -27.0316  -30.3028   24.6114 C   0  0  0  0  0  0
  -27.6056  -32.4308   25.7481 C   0  0  0  0  0  0
  -27.5581  -37.1808   24.8466 C   0  0  0  0  0  0
  -21.4155  -29.3033   22.3709 N   0  0  0  0  0  0
  -26.4296  -37.3784   23.9407 N   0  0  0  0  0  0
  -24.6758  -31.0705   22.0976 N   0  0  0  0  0  0
  -23.4186  -28.8180   23.3026 O   0  0  0  0  0  0
  -28.3690  -26.5979   20.1174 O   0  0  0  0  0  0
  -26.5602  -34.8919   22.4683 O   0  0  0  0  0  0
  -23.5374  -32.1405   23.7430 O   0  0  0  0  0  0
  -29.4145  -19.2425   19.1620 C   0  0  0  0  0  0
  -29.5785  -17.9385   19.7380 C   0  0  0  0  0  0
  -29.4981  -17.9269   21.0707 C   0  0  0  0  0  0
  -29.1975  -20.2476   20.0957 C   0  0  0  0  0  0
  -28.7476  -22.6650   20.5508 C   0  0  0  0  0  0
  -29.8281  -16.5414   19.2535 C   0  0  0  0  0  0
  -29.6812  -16.5605   21.6534 C   0  0  0  0  0  0
  -28.6689  -24.0566   19.8400 C   0  0  0  0  0  0
  -28.2485  -25.2796   20.7298 C   0  0  0  0  0  0
  -29.8618  -15.6703   20.4705 N   0  0  0  0  0  0
  -29.0287  -21.5798   19.7812 N   0  0  0  0  0  0
  -28.5540  -22.5886   21.7662 O   0  0  0  0  0  0
  -29.2005  -19.5248   21.7253 S   0  0  0  0  0  0
  -31.4686  -12.4391   19.1411 H   0  0  0  0  0  0
  -30.3289  -11.3474   19.8836 H   0  0  0  0  0  0
  -29.7483  -11.7352   17.4648 H   0  0  0  0  0  0
  -29.6557  -13.4562   17.7434 H   0  0  0  0  0  0
  -27.8431  -11.2905   18.8560 H   0  0  0  0  0  0
  -27.3681  -12.5858   17.7911 H   0  0  0  0  0  0
  -27.6672  -14.2483   19.5201 H   0  0  0  0  0  0
  -28.6902  -12.0628   21.4041 H   0  0  0  0  0  0
  -28.4669  -13.7447   21.8183 H   0  0  0  0  0  0
  -25.2760   -9.5678   22.4754 H   0  0  0  0  0  0
  -23.9999   -7.4632   22.7470 H   0  0  0  0  0  0
  -21.0834   -8.8777   19.8948 H   0  0  0  0  0  0
  -22.3699  -10.9676   19.6171 H   0  0  0  0  0  0
  -21.2009   -7.6147   23.9720 H   0  0  0  0  0  0
  -21.1478   -6.0529   25.9081 H   0  0  0  0  0  0
  -22.0599   -2.7608   23.2861 H   0  0  0  0  0  0
  -22.4092  -11.9895   22.4794 H   0  0  0  0  0  0
  -21.1104  -13.1271   22.2619 H   0  0  0  0  0  0
  -24.6703  -15.8487   20.5445 H   0  0  0  0  0  0
  -26.2998  -15.6326   20.1496 H   0  0  0  0  0  0
  -26.7135  -32.5498   23.1131 H   0  0  0  0  0  0
  -25.0071  -33.9754   25.0462 H   0  0  0  0  0  0
  -22.7009  -31.3038   21.4048 H   0  0  0  0  0  0
  -23.3747  -35.9645   23.3310 H   0  0  0  0  0  0
  -24.3580  -36.8912   22.2051 H   0  0  0  0  0  0
  -23.7250  -37.6516   23.6647 H   0  0  0  0  0  0
  -26.0604  -31.5820   20.5957 H   0  0  0  0  0  0
  -26.8281  -30.8703   21.9866 H   0  0  0  0  0  0
  -28.1128  -29.0630   21.1614 H   0  0  0  0  0  0
  -26.0411  -25.9348   19.0377 H   0  0  0  0  0  0
  -23.9756  -27.2858   19.0399 H   0  0  0  0  0  0
  -23.7343  -30.5909   19.4030 H   0  0  0  0  0  0
  -22.7446  -29.2394   19.8642 H   0  0  0  0  0  0
  -25.1291  -36.1961   25.0829 H   0  0  0  0  0  0
  -20.9963  -28.3236   24.1427 H   0  0  0  0  0  0
  -20.5672  -26.2272   23.3603 H   0  0  0  0  0  0
  -21.6637  -26.7441   22.1203 H   0  0  0  0  0  0
  -19.6908  -25.6297   21.1234 H   0  0  0  0  0  0
  -19.6690  -27.3199   20.6746 H   0  0  0  0  0  0
  -17.4195  -26.6670   21.4026 H   0  0  0  0  0  0
  -18.0330  -26.0063   22.9017 H   0  0  0  0  0  0
  -19.7927  -30.7257   24.2287 H   0  0  0  0  0  0
  -17.5008  -31.6266   24.5162 H   0  0  0  0  0  0
  -15.5346  -30.2994   23.7641 H   0  0  0  0  0  0
  -15.8661  -28.0824   22.7062 H   0  0  0  0  0  0
  -24.5921  -30.7039   25.7789 H   0  0  0  0  0  0
  -24.8927  -32.2853   26.4904 H   0  0  0  0  0  0
  -25.8093  -30.8866   27.0217 H   0  0  0  0  0  0
  -26.2866  -29.6782   24.1171 H   0  0  0  0  0  0
  -27.4082  -29.7271   25.4579 H   0  0  0  0  0  0
  -27.8703  -30.4337   23.9271 H   0  0  0  0  0  0
  -27.2683  -33.3604   26.2075 H   0  0  0  0  0  0
  -28.3861  -32.6871   25.0304 H   0  0  0  0  0  0
  -28.0731  -31.8420   26.5384 H   0  0  0  0  0  0
  -28.2604  -38.0100   24.7505 H   0  0  0  0  0  0
  -28.1074  -36.2631   24.6304 H   0  0  0  0  0  0
  -27.2296  -37.1471   25.8868 H   0  0  0  0  0  0
  -20.9321  -29.8757   21.6928 H   0  0  0  0  0  0
  -26.0185  -38.2864   24.1401 H   0  0  0  0  0  0
  -29.4639  -19.3961   18.0927 H   0  0  0  0  0  0
  -30.7620  -16.4913   18.6910 H   0  0  0  0  0  0
  -29.0329  -16.2076   18.5862 H   0  0  0  0  0  0
  -30.5522  -16.5309   22.3105 H   0  0  0  0  0  0
  -28.8044  -16.2577   22.2269 H   0  0  0  0  0  0
  -27.9779  -23.9761   19.0010 H   0  0  0  0  0  0
  -29.6499  -24.2581   19.4098 H   0  0  0  0  0  0
  -28.8886  -25.3018   21.6125 H   0  0  0  0  0  0
  -27.2421  -25.1104   21.1172 H   0  0  0  0  0  0
  -29.1382  -21.7977   18.7996 H   0  0  0  0  0  0
  1 25  1  0  0  0
  1 30  2  0  0  0
  1 80  1  0  0  0
  2  3  1  0  0  0
  2 25  1  0  0  0
  2 84  1  0  0  0
  2 85  1  0  0  0
  3  4  1  0  0  0
  3 86  1  0  0  0
  3 87  1  0  0  0
  4  5  1  0  0  0
  4 88  1  0  0  0
  4 89  1  0  0  0
  5  6  1  0  0  0
  5 26  1  0  0  0
  5 90  1  0  0  0
  6 25  1  0  0  0
  6 91  1  0  0  0
  6 92  1  0  0  0
  7  8  2  0  0  0
  7 26  1  0  0  0
  7 29  1  0  0  0
  8  9  1  0  0  0
  8 22  1  0  0  0
  9 10  1  0  0  0
  9 27  2  0  0  0
 10 11  2  0  0  0
 10 15  1  0  0  0
 11 12  1  0  0  0
 11 93  1  0  0  0
 12 13  2  0  0  0
 12 94  1  0  0  0
 13 14  1  0  0  0
 13 31  1  0  0  0
 14 15  2  0  0  0
 14 95  1  0  0  0
 15 96  1  0  0  0
 16 17  2  0  0  0
 16 21  1  0  0  0
 16 31  1  0  0  0
 17 18  1  0  0  0
 17 97  1  0  0  0
 18 19  2  0  0  0
 18 98  1  0  0  0
 19 20  1  0  0  0
 19 24  1  0  0  0
 20 21  2  0  0  0
 20 99  1  0  0  0
 21 23  1  0  0  0
 22 28  1  0  0  0
 22 32  2  0  0  0
 26 27  1  0  0  0
 28100  1  0  0  0
 28101  1  0  0  0
 29102  1  0  0  0
 29103  1  0  0  0
 33 34  1  0  0  0
 33 66  1  0  0  0
 33 70  2  0  0  0
 34 36  1  0  0  0
 34 59  1  0  0  0
 34104  1  0  0  0
 35 44  2  0  0  0
 35 45  1  0  0  0
 35 68  1  0  0  0
 36 56  1  0  0  0
 36105  1  0  0  0
 37 39  1  0  0  0
 37 47  1  0  0  0
 37 66  1  0  0  0
 37106  1  0  0  0
 38 43  2  0  0  0
 38 46  1  0  0  0
 38 47  1  0  0  0
 39 64  1  0  0  0
 39 67  2  0  0  0
 40 52  1  0  0  0
 40 53  2  0  0  0
 40 58  1  0  0  0
 41107  1  0  0  0
 41108  1  0  0  0
 41109  1  0  0  0
 41 48  1  0  0  0
 42 43  1  0  0  0
 42 66  1  0  0  0
 42110  1  0  0  0
 42111  1  0  0  0
 43 44  1  0  0  0
 44112  1  0  0  0
 45 46  2  0  0  0
 45113  1  0  0  0
 46114  1  0  0  0
 47115  1  0  0  0
 47116  1  0  0  0
 48 56  1  0  0  0
 48 65  1  0  0  0
 48117  1  0  0  0
 49 50  1  0  0  0
 49 53  1  0  0  0
 49 64  1  0  0  0
 49118  1  0  0  0
 50 51  1  0  0  0
 50119  1  0  0  0
 50120  1  0  0  0
 51 52  1  0  0  0
 51121  1  0  0  0
 51122  1  0  0  0
 52123  1  0  0  0
 52124  1  0  0  0
 53 54  1  0  0  0
 54 55  2  0  0  0
 54125  1  0  0  0
 55 57  1  0  0  0
 55126  1  0  0  0
 56 69  2  0  0  0
 57 58  2  0  0  0
 57127  1  0  0  0
 58128  1  0  0  0
 59 60  1  0  0  0
 59 61  1  0  0  0
 59 62  1  0  0  0
 60129  1  0  0  0
 60130  1  0  0  0
 60131  1  0  0  0
 61132  1  0  0  0
 61133  1  0  0  0
 61134  1  0  0  0
 62135  1  0  0  0
 62136  1  0  0  0
 62137  1  0  0  0
 63 65  1  0  0  0
 63138  1  0  0  0
 63139  1  0  0  0
 63140  1  0  0  0
 64141  1  0  0  0
 65142  1  0  0  0
 68 79  1  0  0  0
 71 72  1  0  0  0
 71 74  2  0  0  0
 71143  1  0  0  0
 72 73  2  0  0  0
 72 76  1  0  0  0
 73 77  1  0  0  0
 73 83  1  0  0  0
 74 81  1  0  0  0
 74 83  1  0  0  0
 75 78  1  0  0  0
 75 81  1  0  0  0
 75 82  2  0  0  0
 76 80  1  0  0  0
 76144  1  0  0  0
 76145  1  0  0  0
 77 80  1  0  0  0
 77146  1  0  0  0
 77147  1  0  0  0
 78 79  1  0  0  0
 78148  1  0  0  0
 78149  1  0  0  0
 79150  1  0  0  0
 79151  1  0  0  0
 81152  1  0  0  0
M  ISO  4   1 100  68 101  79 101  80 100
M  END
> <chiral flag>
0

> <version>
0

> <s_m_source_file>
/data/baiqing/PycharmProjects/Reinvent-master-3.2/result/LINK_invent/BTK/process_docking_weight1_custom_product_contain_oxygen_bond_distance_aromatic_linkinvent_7_9_3/rearranged_h_0146.sdf

> <i_m_source_file_index>
34

> <r_mmod_Potential_Energy-OPLS-2005>
100.187446594238

> <r_mmod_Stretch_Energy-OPLS-2005>
55.5295791625977

> <r_mmod_Bend_Energy-OPLS-2005>
185.400650024414

> <r_mmod_Torsional_Energy-OPLS-2005>
284.017272949219

> <r_mmod_Improper_Torsional_Energy-OPLS-2005>
16.1771183013916

> <r_mmod_Van_der_Waal_Energy-OPLS-2005>
115.923164367676

> <r_mmod_Electrostatic_Energy-OPLS-2005>
-358.373016357422

> <r_mmod_Solvation_Energy-OPLS-2005>
-227.538513183594

> <b_mmod_Minimization_Converged-OPLS-2005>
0

> <r_mmod_RMS_Derivative-OPLS-2005>
0.815696179866791

$$$$
34
                    3D
 Structure written by MMmdl.
173182  0  0  1  0            999 V2000
  -30.6732  -14.6689   20.5078 C   0  0  0  0  0  0
  -30.4386  -12.4332   19.4249 C   0  0  0  0  0  0
  -29.4927  -12.4944   18.2074 C   0  0  0  0  0  0
  -28.0257  -12.2682   18.6358 C   0  0  0  0  0  0
  -27.6391  -13.1466   19.8430 C   0  0  2  0  0  0
  -28.7135  -13.0381   20.9687 C   0  0  0  0  0  0
  -25.2507  -13.7906   20.5547 C   0  0  0  0  0  0
  -24.1775  -13.0288   20.9196 C   0  0  0  0  0  0
  -24.6293  -11.6763   20.8770 C   0  0  0  0  0  0
  -23.8961  -10.4207   21.0447 C   0  0  0  0  0  0
  -24.3553   -9.4155   21.9219 C   0  0  0  0  0  0
  -23.6245   -8.2182   22.0770 C   0  0  0  0  0  0
  -22.4231   -8.0219   21.3540 C   0  0  0  0  0  0
  -21.9837   -9.0193   20.4658 C   0  0  0  0  0  0
  -22.7153  -10.2082   20.3064 C   0  0  0  0  0  0
  -21.6840   -6.0733   22.5291 C   0  0  0  0  0  0
  -21.4019   -6.5660   23.8218 C   0  0  0  0  0  0
  -21.3628   -5.6796   24.9167 C   0  0  0  0  0  0
  -21.6002   -4.3051   24.7209 C   0  0  0  0  0  0
  -21.8827   -3.8154   23.4324 C   0  0  0  0  0  0
  -21.9217   -4.6971   22.3390 C   0  0  0  0  0  0
  -22.7830  -13.5176   21.1880 C   0  0  0  0  0  0
  -22.1671   -4.2154   21.0951 F   0  0  0  0  0  0
  -21.5607   -3.4564   25.7743 F   0  0  0  0  0  0
  -29.9947  -13.4686   20.3841 N   0  0  0  0  0  0
  -26.2897  -12.8969   20.3224 N   0  0  0  0  0  0
  -25.9182  -11.6217   20.5752 N   0  0  0  0  0  0
  -22.0454  -12.8225   22.0452 N   0  0  0  0  0  0
  -25.4036  -15.1585   20.3670 N   0  0  0  0  0  0
  -31.8765  -14.6945   20.2251 O   0  0  0  0  0  0
  -21.6581   -6.8845   21.4244 O   0  0  0  0  0  0
  -22.3554  -14.5500   20.6736 O   0  0  0  0  0  0
  -24.6141  -31.8647   23.2056 C   0  0  0  0  0  0
  -25.9026  -32.4815   23.8357 C   0  0  1  0  0  0
  -27.2737  -27.4307   20.1035 C   0  0  0  0  0  0
  -25.5873  -33.8606   24.2293 N   0  0  0  0  0  0
  -23.4057  -30.4822   21.5463 C   0  0  2  0  0  0
  -24.8605  -28.9376   20.1215 C   0  0  0  0  0  0
  -22.7409  -29.4633   22.5001 C   0  0  0  0  0  0
  -18.0268  -28.1380   22.8492 C   0  0  0  0  0  0
  -24.1479  -36.7297   23.2640 C   0  0  0  0  0  0
  -25.9311  -30.8316   21.3566 C   0  0  0  0  0  0
  -26.0168  -29.4622   20.7081 C   0  0  0  0  0  0
  -27.2217  -28.7200   20.6873 C   0  0  0  0  0  0
  -26.0904  -26.9127   19.5254 C   0  0  0  0  0  0
  -24.8921  -27.6619   19.5274 C   0  0  0  0  0  0
  -23.6165  -29.8004   20.1662 C   0  0  0  0  0  0
  -25.4105  -36.3103   24.0336 C   0  0  1  0  0  0
  -20.5852  -28.3651   23.1328 C   0  0  2  0  0  0
  -20.6757  -26.9386   22.5430 C   0  0  0  0  0  0
  -19.5749  -26.6380   21.5216 C   0  0  0  0  0  0
  -18.1922  -26.7928   22.1619 C   0  0  0  0  0  0
  -19.1514  -28.8830   23.2906 C   0  0  0  0  0  0
  -18.9448  -30.1440   23.8912 C   0  0  0  0  0  0
  -17.6449  -30.6578   24.0567 C   0  0  0  0  0  0
  -25.9035  -34.9474   23.5124 C   0  0  0  0  0  0
  -16.5339  -29.9086   23.6336 C   0  0  0  0  0  0
  -16.7255  -28.6508   23.0349 C   0  0  0  0  0  0
  -26.4463  -31.6591   25.0675 C   0  0  0  0  0  0
  -25.3739  -31.3684   26.1424 C   0  0  0  0  0  0
  -27.0289  -30.3040   24.6036 C   0  0  0  0  0  0
  -27.6034  -32.4311   25.7444 C   0  0  0  0  0  0
  -27.5577  -37.1804   24.8462 C   0  0  0  0  0  0
  -21.4131  -29.3018   22.3735 N   0  0  0  0  0  0
  -26.4295  -37.3789   23.9413 N   0  0  0  0  0  0
  -24.6684  -31.0739   22.0952 N   0  0  0  0  0  0
  -23.4174  -28.8186   23.3056 O   0  0  0  0  0  0
  -28.4863  -26.7540   20.0898 O   0  0  0  0  0  0
  -26.5604  -34.8929   22.4695 O   0  0  0  0  0  0
  -23.5341  -32.1390   23.7461 O   0  0  0  0  0  0
  -30.7888  -19.7786   20.5996 C   0  0  0  0  0  0
  -28.7001  -20.9379   20.1270 C   0  0  0  0  0  0
  -30.0795  -18.5397   20.6980 C   0  0  0  0  0  0
  -28.6720  -18.5781   20.5915 C   0  0  0  0  0  0
  -27.9752  -19.7446   20.1733 C   0  0  0  0  0  0
  -30.0769  -20.9978   20.3844 C   0  0  0  0  0  0
  -30.0545  -23.3673   20.9628 C   0  0  0  0  0  0
  -27.9503  -17.3592   21.0736 C   0  0  0  0  0  0
  -30.7918  -17.1695   20.9641 C   0  0  0  0  0  0
  -28.5812  -16.0814   20.5578 C   0  0  0  0  0  0
  -25.5334  -22.1462   19.4985 C   0  0  0  0  0  0
  -26.8708  -21.0681   17.6070 C   0  0  0  0  0  0
  -24.6223  -20.2447   18.1954 C   0  0  0  0  0  0
  -26.4698  -19.7652   19.8445 C   0  0  0  0  0  0
  -29.9680  -24.7502   20.2733 C   0  0  0  0  0  0
  -28.5092  -25.3138   20.1593 C   0  0  0  0  0  0
  -25.9196  -20.8128   18.8052 C   0  0  0  0  0  0
  -30.0232  -15.8732   20.7855 N   0  0  0  0  0  0
  -30.6443  -22.3139   20.3357 N   0  0  0  0  0  0
  -29.5926  -23.2513   22.1014 O   0  0  0  0  0  0
  -31.4696  -12.5756   19.0964 H   0  0  0  0  0  0
  -30.4166  -11.4420   19.8820 H   0  0  0  0  0  0
  -29.7832  -11.7513   17.4656 H   0  0  0  0  0  0
  -29.5851  -13.4686   17.7218 H   0  0  0  0  0  0
  -27.9061  -11.2162   18.8961 H   0  0  0  0  0  0
  -27.3483  -12.4574   17.8009 H   0  0  0  0  0  0
  -27.6101  -14.1251   19.3899 H   0  0  0  0  0  0
  -28.7797  -12.0015   21.3004 H   0  0  0  0  0  0
  -28.4744  -13.5772   21.8847 H   0  0  0  0  0  0
  -25.2717   -9.5673   22.4772 H   0  0  0  0  0  0
  -23.9976   -7.4589   22.7480 H   0  0  0  0  0  0
  -21.0764   -8.8697   19.8975 H   0  0  0  0  0  0
  -22.3599  -10.9626   19.6146 H   0  0  0  0  0  0
  -21.1990   -7.6175   23.9730 H   0  0  0  0  0  0
  -21.1441   -6.0511   25.9063 H   0  0  0  0  0  0
  -22.0638   -2.7627   23.2795 H   0  0  0  0  0  0
  -22.4059  -11.9885   22.4844 H   0  0  0  0  0  0
  -21.1086  -13.1301   22.2666 H   0  0  0  0  0  0
  -24.6027  -15.7788   20.4170 H   0  0  0  0  0  0
  -26.2020  -15.5767   19.9136 H   0  0  0  0  0  0
  -26.7091  -32.5530   23.1119 H   0  0  0  0  0  0
  -25.0002  -33.9761   25.0424 H   0  0  0  0  0  0
  -22.6934  -31.2975   21.4002 H   0  0  0  0  0  0
  -23.3757  -35.9617   23.3310 H   0  0  0  0  0  0
  -24.3577  -36.8905   22.2052 H   0  0  0  0  0  0
  -23.7218  -37.6498   23.6655 H   0  0  0  0  0  0
  -26.0380  -31.5958   20.5868 H   0  0  0  0  0  0
  -26.8204  -30.8923   21.9711 H   0  0  0  0  0  0
  -28.1189  -29.1322   21.1273 H   0  0  0  0  0  0
  -26.0827  -25.9405   19.0547 H   0  0  0  0  0  0
  -24.0027  -27.2510   19.0708 H   0  0  0  0  0  0
  -23.7132  -30.5679   19.3969 H   0  0  0  0  0  0
  -22.7435  -29.2107   19.8806 H   0  0  0  0  0  0
  -25.1297  -36.1961   25.0833 H   0  0  0  0  0  0
  -20.9950  -28.3225   24.1444 H   0  0  0  0  0  0
  -20.5663  -26.2255   23.3618 H   0  0  0  0  0  0
  -21.6634  -26.7430   22.1222 H   0  0  0  0  0  0
  -19.6912  -25.6300   21.1236 H   0  0  0  0  0  0
  -19.6708  -27.3204   20.6766 H   0  0  0  0  0  0
  -17.4200  -26.6677   21.4013 H   0  0  0  0  0  0
  -18.0310  -26.0058   22.9002 H   0  0  0  0  0  0
  -19.7923  -30.7252   24.2290 H   0  0  0  0  0  0
  -17.5005  -31.6269   24.5161 H   0  0  0  0  0  0
  -15.5348  -30.2992   23.7653 H   0  0  0  0  0  0
  -15.8651  -28.0837   22.7053 H   0  0  0  0  0  0
  -24.5925  -30.7020   25.7764 H   0  0  0  0  0  0
  -24.8914  -32.2821   26.4884 H   0  0  0  0  0  0
  -25.8089  -30.8846   27.0174 H   0  0  0  0  0  0
  -26.2811  -29.6799   24.1122 H   0  0  0  0  0  0
  -27.4105  -29.7272   25.4472 H   0  0  0  0  0  0
  -27.8627  -30.4366   23.9140 H   0  0  0  0  0  0
  -27.2650  -33.3605   26.2034 H   0  0  0  0  0  0
  -28.3830  -32.6878   25.0263 H   0  0  0  0  0  0
  -28.0711  -31.8425   26.5341 H   0  0  0  0  0  0
  -28.2603  -38.0093   24.7520 H   0  0  0  0  0  0
  -28.1066  -36.2630   24.6285 H   0  0  0  0  0  0
  -27.2296  -37.1443   25.8864 H   0  0  0  0  0  0
  -20.9295  -29.8708   21.6922 H   0  0  0  0  0  0
  -26.0177  -38.2870   24.1439 H   0  0  0  0  0  0
  -31.8632  -19.7943   20.7313 H   0  0  0  0  0  0
  -28.1916  -21.8556   19.8974 H   0  0  0  0  0  0
  -26.8923  -17.3715   20.8269 H   0  0  0  0  0  0
  -27.9841  -17.3643   22.1642 H   0  0  0  0  0  0
  -31.1806  -17.1901   21.9817 H   0  0  0  0  0  0
  -31.6703  -17.1639   20.3153 H   0  0  0  0  0  0
  -28.4107  -16.0433   19.4801 H   0  0  0  0  0  0
  -27.9756  -15.3588   21.0734 H   0  0  0  0  0  0
  -25.3558  -22.9391   18.7691 H   0  0  0  0  0  0
  -26.2811  -22.5141   20.1946 H   0  0  0  0  0  0
  -24.6197  -22.0326   20.0812 H   0  0  0  0  0  0
  -26.3619  -21.6030   16.8026 H   0  0  0  0  0  0
  -27.2336  -20.1295   17.1885 H   0  0  0  0  0  0
  -27.7388  -21.6770   17.8442 H   0  0  0  0  0  0
  -24.1472  -20.9623   17.5222 H   0  0  0  0  0  0
  -23.8943  -19.9918   18.9680 H   0  0  0  0  0  0
  -24.8112  -19.3391   17.6193 H   0  0  0  0  0  0
  -25.9023  -19.8123   20.7742 H   0  0  0  0  0  0
  -26.2571  -18.7907   19.4093 H   0  0  0  0  0  0
  -30.4379  -24.7158   19.2910 H   0  0  0  0  0  0
  -30.5710  -25.4363   20.8684 H   0  0  0  0  0  0
  -27.9062  -25.0006   21.0134 H   0  0  0  0  0  0
  -28.0424  -24.8896   19.2698 H   0  0  0  0  0  0
  -31.2214  -22.5188   19.5297 H   0  0  0  0  0  0
  1 25  1  0  0  0
  1 30  2  0  0  0
  1 88  1  0  0  0
  2  3  1  0  0  0
  2 25  1  0  0  0
  2 91  1  0  0  0
  2 92  1  0  0  0
  3  4  1  0  0  0
  3 93  1  0  0  0
  3 94  1  0  0  0
  4  5  1  0  0  0
  4 95  1  0  0  0
  4 96  1  0  0  0
  5  6  1  0  0  0
  5 26  1  0  0  0
  5 97  1  0  0  0
  6 25  1  0  0  0
  6 98  1  0  0  0
  6 99  1  0  0  0
  7  8  2  0  0  0
  7 26  1  0  0  0
  7 29  1  0  0  0
  8  9  1  0  0  0
  8 22  1  0  0  0
  9 10  1  0  0  0
  9 27  2  0  0  0
 10 11  2  0  0  0
 10 15  1  0  0  0
 11 12  1  0  0  0
 11100  1  0  0  0
 12 13  2  0  0  0
 12101  1  0  0  0
 13 14  1  0  0  0
 13 31  1  0  0  0
 14 15  2  0  0  0
 14102  1  0  0  0
 15103  1  0  0  0
 16 17  2  0  0  0
 16 21  1  0  0  0
 16 31  1  0  0  0
 17 18  1  0  0  0
 17104  1  0  0  0
 18 19  2  0  0  0
 18105  1  0  0  0
 19 20  1  0  0  0
 19 24  1  0  0  0
 20 21  2  0  0  0
 20106  1  0  0  0
 21 23  1  0  0  0
 22 28  1  0  0  0
 22 32  2  0  0  0
 26 27  1  0  0  0
 28107  1  0  0  0
 28108  1  0  0  0
 29109  1  0  0  0
 29110  1  0  0  0
 33 34  1  0  0  0
 33 66  1  0  0  0
 33 70  2  0  0  0
 34 36  1  0  0  0
 34 59  1  0  0  0
 34111  1  0  0  0
 35 44  2  0  0  0
 35 45  1  0  0  0
 35 68  1  0  0  0
 36 56  1  0  0  0
 36112  1  0  0  0
 37 39  1  0  0  0
 37 47  1  0  0  0
 37 66  1  0  0  0
 37113  1  0  0  0
 38 43  2  0  0  0
 38 46  1  0  0  0
 38 47  1  0  0  0
 39 64  1  0  0  0
 39 67  2  0  0  0
 40 52  1  0  0  0
 40 53  2  0  0  0
 40 58  1  0  0  0
 41114  1  0  0  0
 41115  1  0  0  0
 41116  1  0  0  0
 41 48  1  0  0  0
 42 43  1  0  0  0
 42 66  1  0  0  0
 42117  1  0  0  0
 42118  1  0  0  0
 43 44  1  0  0  0
 44119  1  0  0  0
 45 46  2  0  0  0
 45120  1  0  0  0
 46121  1  0  0  0
 47122  1  0  0  0
 47123  1  0  0  0
 48 56  1  0  0  0
 48 65  1  0  0  0
 48124  1  0  0  0
 49 50  1  0  0  0
 49 53  1  0  0  0
 49 64  1  0  0  0
 49125  1  0  0  0
 50 51  1  0  0  0
 50126  1  0  0  0
 50127  1  0  0  0
 51 52  1  0  0  0
 51128  1  0  0  0
 51129  1  0  0  0
 52130  1  0  0  0
 52131  1  0  0  0
 53 54  1  0  0  0
 54 55  2  0  0  0
 54132  1  0  0  0
 55 57  1  0  0  0
 55133  1  0  0  0
 56 69  2  0  0  0
 57 58  2  0  0  0
 57134  1  0  0  0
 58135  1  0  0  0
 59 60  1  0  0  0
 59 61  1  0  0  0
 59 62  1  0  0  0
 60136  1  0  0  0
 60137  1  0  0  0
 60138  1  0  0  0
 61139  1  0  0  0
 61140  1  0  0  0
 61141  1  0  0  0
 62142  1  0  0  0
 62143  1  0  0  0
 62144  1  0  0  0
 63 65  1  0  0  0
 63145  1  0  0  0
 63146  1  0  0  0
 63147  1  0  0  0
 64148  1  0  0  0
 65149  1  0  0  0
 68 86  1  0  0  0
 71 73  2  0  0  0
 71 76  1  0  0  0
 71150  1  0  0  0
 72 75  1  0  0  0
 72 76  2  0  0  0
 72151  1  0  0  0
 73 74  1  0  0  0
 73 79  1  0  0  0
 74 75  2  0  0  0
 74 78  1  0  0  0
 75 84  1  0  0  0
 76 89  1  0  0  0
 77 85  1  0  0  0
 77 89  1  0  0  0
 77 90  2  0  0  0
 78 80  1  0  0  0
 78152  1  0  0  0
 78153  1  0  0  0
 79 88  1  0  0  0
 79154  1  0  0  0
 79155  1  0  0  0
 80 88  1  0  0  0
 80156  1  0  0  0
 80157  1  0  0  0
 81158  1  0  0  0
 81159  1  0  0  0
 81160  1  0  0  0
 81 87  1  0  0  0
 82 87  1  0  0  0
 82161  1  0  0  0
 82162  1  0  0  0
 82163  1  0  0  0
 83 87  1  0  0  0
 83164  1  0  0  0
 83165  1  0  0  0
 83166  1  0  0  0
 84 87  1  0  0  0
 84167  1  0  0  0
 84168  1  0  0  0
 85 86  1  0  0  0
 85169  1  0  0  0
 85170  1  0  0  0
 86171  1  0  0  0
 86172  1  0  0  0
 89173  1  0  0  0
M  ISO  4   1 100  68 101  86 101  88 100
M  END
> <chiral flag>
0

> <version>
0

> <s_m_source_file>
/data/baiqing/PycharmProjects/Reinvent-master-3.2/result/LINK_invent/BTK/process_docking_weight1_custom_product_contain_oxygen_bond_distance_aromatic_linkinvent_7_9_3/rearranged_h_0146.sdf

> <i_m_source_file_index>
35

> <r_mmod_Potential_Energy-OPLS-2005>
239.902282714844

> <r_mmod_Stretch_Energy-OPLS-2005>
72.2251052856445

> <r_mmod_Bend_Energy-OPLS-2005>
169.956512451172

> <r_mmod_Torsional_Energy-OPLS-2005>
342.135131835938

> <r_mmod_Improper_Torsional_Energy-OPLS-2005>
7.00552845001221

> <r_mmod_Van_der_Waal_Energy-OPLS-2005>
193.121780395508

> <r_mmod_Electrostatic_Energy-OPLS-2005>
-361.357849121094

> <r_mmod_Solvation_Energy-OPLS-2005>
-224.368804931641

> <b_mmod_Minimization_Converged-OPLS-2005>
0

> <r_mmod_RMS_Derivative-OPLS-2005>
3.77503800392151

$$$$
35
                    3D
 Structure written by MMmdl.
152161  0  0  1  0            999 V2000
  -30.5914  -14.7569   20.3666 C   0  0  0  0  0  0
  -30.4421  -12.4334   19.4719 C   0  0  0  0  0  0
  -29.5104  -12.4250   18.2373 C   0  0  0  0  0  0
  -28.0308  -12.2979   18.6550 C   0  0  0  0  0  0
  -27.6382  -13.2149   19.8461 C   0  0  2  0  0  0
  -28.6930  -13.1847   20.9728 C   0  0  0  0  0  0
  -25.2534  -13.8153   20.5728 C   0  0  0  0  0  0
  -24.1795  -13.0422   20.9215 C   0  0  0  0  0  0
  -24.6361  -11.6892   20.8762 C   0  0  0  0  0  0
  -23.9036  -10.4278   21.0410 C   0  0  0  0  0  0
  -24.3596   -9.4196   21.9181 C   0  0  0  0  0  0
  -23.6279   -8.2231   22.0751 C   0  0  0  0  0  0
  -22.4264   -8.0264   21.3539 C   0  0  0  0  0  0
  -21.9889   -9.0239   20.4642 C   0  0  0  0  0  0
  -22.7212  -10.2122   20.3054 C   0  0  0  0  0  0
  -21.6853   -6.0720   22.5272 C   0  0  0  0  0  0
  -21.4015   -6.5628   23.8204 C   0  0  0  0  0  0
  -21.3660   -5.6786   24.9169 C   0  0  0  0  0  0
  -21.6045   -4.3050   24.7222 C   0  0  0  0  0  0
  -21.8820   -3.8136   23.4347 C   0  0  0  0  0  0
  -21.9193   -4.6951   22.3396 C   0  0  0  0  0  0
  -22.7818  -13.5224   21.1859 C   0  0  0  0  0  0
  -22.1662   -4.2133   21.0977 F   0  0  0  0  0  0
  -21.5632   -3.4533   25.7737 F   0  0  0  0  0  0
  -29.9907  -13.5174   20.3703 N   0  0  0  0  0  0
  -26.2935  -12.9316   20.3332 N   0  0  0  0  0  0
  -25.9291  -11.6481   20.5802 N   0  0  0  0  0  0
  -22.0461  -12.8223   22.0420 N   0  0  0  0  0  0
  -25.4274  -15.1879   20.4174 N   0  0  0  0  0  0
  -31.8155  -14.8474   20.2289 O   0  0  0  0  0  0
  -21.6636   -6.8858   21.4231 O   0  0  0  0  0  0
  -22.3508  -14.5523   20.6689 O   0  0  0  0  0  0
  -24.6289  -31.8576   23.2002 C   0  0  0  0  0  0
  -25.9121  -32.4769   23.8342 C   0  0  1  0  0  0
  -27.2239  -27.2816   20.1298 C   0  0  0  0  0  0
  -25.5932  -33.8573   24.2273 N   0  0  0  0  0  0
  -23.4257  -30.4807   21.5422 C   0  0  2  0  0  0
  -24.8748  -28.9346   20.1082 C   0  0  0  0  0  0
  -22.7496  -29.4614   22.4907 C   0  0  0  0  0  0
  -18.0294  -28.1389   22.8486 C   0  0  0  0  0  0
  -24.1492  -36.7287   23.2641 C   0  0  0  0  0  0
  -25.9700  -30.7777   21.3779 C   0  0  0  0  0  0
  -26.0445  -29.4024   20.7200 C   0  0  0  0  0  0
  -27.2210  -28.5882   20.7214 C   0  0  0  0  0  0
  -26.0330  -26.8870   19.4747 C   0  0  0  0  0  0
  -24.8738  -27.6845   19.4745 C   0  0  0  0  0  0
  -23.6439  -29.8172   20.1571 C   0  0  0  0  0  0
  -25.4118  -36.3078   24.0332 C   0  0  1  0  0  0
  -20.5898  -28.3700   23.1271 C   0  0  2  0  0  0
  -20.6783  -26.9418   22.5406 C   0  0  0  0  0  0
  -19.5757  -26.6385   21.5212 C   0  0  0  0  0  0
  -18.1939  -26.7934   22.1624 C   0  0  0  0  0  0
  -19.1546  -28.8861   23.2875 C   0  0  0  0  0  0
  -18.9466  -30.1465   23.8895 C   0  0  0  0  0  0
  -17.6465  -30.6590   24.0565 C   0  0  0  0  0  0
  -25.9055  -34.9448   23.5101 C   0  0  0  0  0  0
  -16.5359  -29.9088   23.6328 C   0  0  0  0  0  0
  -16.7282  -28.6506   23.0351 C   0  0  0  0  0  0
  -26.4498  -31.6583   25.0718 C   0  0  0  0  0  0
  -25.3727  -31.3723   26.1441 C   0  0  0  0  0  0
  -27.0347  -30.3008   24.6185 C   0  0  0  0  0  0
  -27.6055  -32.4319   25.7491 C   0  0  0  0  0  0
  -27.5581  -37.1799   24.8468 C   0  0  0  0  0  0
  -21.4205  -29.3051   22.3658 N   0  0  0  0  0  0
  -26.4295  -37.3773   23.9408 N   0  0  0  0  0  0
  -24.6936  -31.0564   22.0964 N   0  0  0  0  0  0
  -23.4207  -28.8153   23.2996 O   0  0  0  0  0  0
  -28.3182  -26.3894   20.2157 O   0  0  0  0  0  0
  -26.5623  -34.8919   22.4669 O   0  0  0  0  0  0
  -23.5442  -32.1386   23.7306 O   0  0  0  0  0  0
  -29.5315  -18.4654   17.7354 C   0  0  0  0  0  0
  -29.4836  -19.6829   18.4586 C   0  0  0  0  0  0
  -29.7155  -18.5318   20.6646 C   0  0  0  0  0  0
  -29.6740  -17.3214   18.5127 C   0  0  0  0  0  0
  -29.8022  -17.2860   19.9362 C   0  0  0  0  0  0
  -29.5285  -19.7742   19.8934 C   0  0  0  0  0  0
  -28.7834  -22.2657   19.9792 C   0  0  0  0  0  0
  -29.6568  -15.8354   18.4118 C   0  0  0  0  0  0
  -29.0501  -23.7493   20.5101 C   0  0  0  0  0  0
  -28.0770  -24.9267   19.9817 C   0  0  0  0  0  0
  -29.7729  -15.7913   19.9216 N   0  0  0  0  0  0
  -29.4290  -21.1387   20.4788 N   0  0  0  0  0  0
  -27.9277  -22.1471   19.0993 O   0  0  0  0  0  0
  -31.4796  -12.5660   19.1596 H   0  0  0  0  0  0
  -30.4036  -11.4742   19.9898 H   0  0  0  0  0  0
  -29.7745  -11.5926   17.5840 H   0  0  0  0  0  0
  -29.6561  -13.3175   17.6344 H   0  0  0  0  0  0
  -27.8705  -11.2556   18.9314 H   0  0  0  0  0  0
  -27.3773  -12.4835   17.8018 H   0  0  0  0  0  0
  -27.6075  -14.2258   19.4507 H   0  0  0  0  0  0
  -28.7279  -12.2057   21.4520 H   0  0  0  0  0  0
  -28.4368  -13.9072   21.7498 H   0  0  0  0  0  0
  -25.2743   -9.5676   22.4752 H   0  0  0  0  0  0
  -23.9991   -7.4620   22.7464 H   0  0  0  0  0  0
  -21.0825   -8.8750   19.8942 H   0  0  0  0  0  0
  -22.3668  -10.9660   19.6164 H   0  0  0  0  0  0
  -21.2008   -7.6136   23.9703 H   0  0  0  0  0  0
  -21.1485   -6.0517   25.9073 H   0  0  0  0  0  0
  -22.0600   -2.7594   23.2850 H   0  0  0  0  0  0
  -22.4086  -11.9907   22.4839 H   0  0  0  0  0  0
  -21.1063  -13.1227   22.2590 H   0  0  0  0  0  0
  -24.6677  -15.8477   20.5441 H   0  0  0  0  0  0
  -26.2954  -15.6301   20.1414 H   0  0  0  0  0  0
  -26.7186  -32.5430   23.1084 H   0  0  0  0  0  0
  -25.0083  -33.9719   25.0420 H   0  0  0  0  0  0
  -22.7212  -31.3021   21.3965 H   0  0  0  0  0  0
  -23.3755  -35.9618   23.3310 H   0  0  0  0  0  0
  -24.3579  -36.8897   22.2051 H   0  0  0  0  0  0
  -23.7242  -37.6492   23.6655 H   0  0  0  0  0  0
  -26.1068  -31.5395   20.6089 H   0  0  0  0  0  0
  -26.8483  -30.8265   22.0094 H   0  0  0  0  0  0
  -28.1138  -28.9405   21.2194 H   0  0  0  0  0  0
  -25.9621  -25.9367   18.9672 H   0  0  0  0  0  0
  -23.9799  -27.3233   18.9847 H   0  0  0  0  0  0
  -23.7674  -30.5943   19.4022 H   0  0  0  0  0  0
  -22.7640  -29.2488   19.8512 H   0  0  0  0  0  0
  -25.1295  -36.1931   25.0824 H   0  0  0  0  0  0
  -20.9994  -28.3279   24.1388 H   0  0  0  0  0  0
  -20.5682  -26.2313   23.3611 H   0  0  0  0  0  0
  -21.6653  -26.7443   22.1197 H   0  0  0  0  0  0
  -19.6919  -25.6292   21.1247 H   0  0  0  0  0  0
  -19.6694  -27.3194   20.6743 H   0  0  0  0  0  0
  -17.4207  -26.6683   21.4030 H   0  0  0  0  0  0
  -18.0339  -26.0078   22.9023 H   0  0  0  0  0  0
  -19.7945  -30.7281   24.2262 H   0  0  0  0  0  0
  -17.5023  -31.6269   24.5169 H   0  0  0  0  0  0
  -15.5361  -30.2991   23.7654 H   0  0  0  0  0  0
  -15.8684  -28.0827   22.7065 H   0  0  0  0  0  0
  -24.5920  -30.7049   25.7769 H   0  0  0  0  0  0
  -24.8895  -32.2888   26.4840 H   0  0  0  0  0  0
  -25.8052  -30.8924   27.0230 H   0  0  0  0  0  0
  -26.2927  -29.6752   24.1211 H   0  0  0  0  0  0
  -27.4048  -29.7266   25.4689 H   0  0  0  0  0  0
  -27.8795  -30.4292   23.9415 H   0  0  0  0  0  0
  -27.2671  -33.3629   26.2051 H   0  0  0  0  0  0
  -28.3878  -32.6863   25.0325 H   0  0  0  0  0  0
  -28.0712  -31.8452   26.5420 H   0  0  0  0  0  0
  -28.2599  -38.0095   24.7514 H   0  0  0  0  0  0
  -28.1076  -36.2626   24.6297 H   0  0  0  0  0  0
  -27.2299  -37.1453   25.8871 H   0  0  0  0  0  0
  -20.9387  -29.8777   21.6865 H   0  0  0  0  0  0
  -26.0178  -38.2850   24.1404 H   0  0  0  0  0  0
  -29.4375  -18.4257   16.6591 H   0  0  0  0  0  0
  -29.3896  -20.5805   17.8642 H   0  0  0  0  0  0
  -29.7292  -18.5430   21.7451 H   0  0  0  0  0  0
  -28.7158  -15.4729   17.9993 H   0  0  0  0  0  0
  -30.5190  -15.4644   17.8532 H   0  0  0  0  0  0
  -29.0256  -23.7302   21.5996 H   0  0  0  0  0  0
  -30.0743  -24.0006   20.2362 H   0  0  0  0  0  0
  -27.1010  -24.6809   20.4026 H   0  0  0  0  0  0
  -27.9779  -24.8085   18.9024 H   0  0  0  0  0  0
  -29.9549  -21.2869   21.3307 H   0  0  0  0  0  0
  1 25  1  0  0  0
  1 30  2  0  0  0
  1 81  1  0  0  0
  2  3  1  0  0  0
  2 25  1  0  0  0
  2 84  1  0  0  0
  2 85  1  0  0  0
  3  4  1  0  0  0
  3 86  1  0  0  0
  3 87  1  0  0  0
  4  5  1  0  0  0
  4 88  1  0  0  0
  4 89  1  0  0  0
  5  6  1  0  0  0
  5 26  1  0  0  0
  5 90  1  0  0  0
  6 25  1  0  0  0
  6 91  1  0  0  0
  6 92  1  0  0  0
  7  8  2  0  0  0
  7 26  1  0  0  0
  7 29  1  0  0  0
  8  9  1  0  0  0
  8 22  1  0  0  0
  9 10  1  0  0  0
  9 27  2  0  0  0
 10 11  2  0  0  0
 10 15  1  0  0  0
 11 12  1  0  0  0
 11 93  1  0  0  0
 12 13  2  0  0  0
 12 94  1  0  0  0
 13 14  1  0  0  0
 13 31  1  0  0  0
 14 15  2  0  0  0
 14 95  1  0  0  0
 15 96  1  0  0  0
 16 17  2  0  0  0
 16 21  1  0  0  0
 16 31  1  0  0  0
 17 18  1  0  0  0
 17 97  1  0  0  0
 18 19  2  0  0  0
 18 98  1  0  0  0
 19 20  1  0  0  0
 19 24  1  0  0  0
 20 21  2  0  0  0
 20 99  1  0  0  0
 21 23  1  0  0  0
 22 28  1  0  0  0
 22 32  2  0  0  0
 26 27  1  0  0  0
 28100  1  0  0  0
 28101  1  0  0  0
 29102  1  0  0  0
 29103  1  0  0  0
 33 34  1  0  0  0
 33 66  1  0  0  0
 33 70  2  0  0  0
 34 36  1  0  0  0
 34 59  1  0  0  0
 34104  1  0  0  0
 35 44  2  0  0  0
 35 45  1  0  0  0
 35 68  1  0  0  0
 36 56  1  0  0  0
 36105  1  0  0  0
 37 39  1  0  0  0
 37 47  1  0  0  0
 37 66  1  0  0  0
 37106  1  0  0  0
 38 43  2  0  0  0
 38 46  1  0  0  0
 38 47  1  0  0  0
 39 64  1  0  0  0
 39 67  2  0  0  0
 40 52  1  0  0  0
 40 53  2  0  0  0
 40 58  1  0  0  0
 41107  1  0  0  0
 41108  1  0  0  0
 41109  1  0  0  0
 41 48  1  0  0  0
 42 43  1  0  0  0
 42 66  1  0  0  0
 42110  1  0  0  0
 42111  1  0  0  0
 43 44  1  0  0  0
 44112  1  0  0  0
 45 46  2  0  0  0
 45113  1  0  0  0
 46114  1  0  0  0
 47115  1  0  0  0
 47116  1  0  0  0
 48 56  1  0  0  0
 48 65  1  0  0  0
 48117  1  0  0  0
 49 50  1  0  0  0
 49 53  1  0  0  0
 49 64  1  0  0  0
 49118  1  0  0  0
 50 51  1  0  0  0
 50119  1  0  0  0
 50120  1  0  0  0
 51 52  1  0  0  0
 51121  1  0  0  0
 51122  1  0  0  0
 52123  1  0  0  0
 52124  1  0  0  0
 53 54  1  0  0  0
 54 55  2  0  0  0
 54125  1  0  0  0
 55 57  1  0  0  0
 55126  1  0  0  0
 56 69  2  0  0  0
 57 58  2  0  0  0
 57127  1  0  0  0
 58128  1  0  0  0
 59 60  1  0  0  0
 59 61  1  0  0  0
 59 62  1  0  0  0
 60129  1  0  0  0
 60130  1  0  0  0
 60131  1  0  0  0
 61132  1  0  0  0
 61133  1  0  0  0
 61134  1  0  0  0
 62135  1  0  0  0
 62136  1  0  0  0
 62137  1  0  0  0
 63 65  1  0  0  0
 63138  1  0  0  0
 63139  1  0  0  0
 63140  1  0  0  0
 64141  1  0  0  0
 65142  1  0  0  0
 68 80  1  0  0  0
 71 72  2  0  0  0
 71 74  1  0  0  0
 71143  1  0  0  0
 72 76  1  0  0  0
 72144  1  0  0  0
 73 75  1  0  0  0
 73 76  2  0  0  0
 73145  1  0  0  0
 74 75  2  0  0  0
 74 78  1  0  0  0
 75 81  1  0  0  0
 76 82  1  0  0  0
 77 79  1  0  0  0
 77 82  1  0  0  0
 77 83  2  0  0  0
 78 81  1  0  0  0
 78146  1  0  0  0
 78147  1  0  0  0
 79 80  1  0  0  0
 79148  1  0  0  0
 79149  1  0  0  0
 80150  1  0  0  0
 80151  1  0  0  0
 82152  1  0  0  0
M  ISO  4   1 100  68 101  80 101  81 100
M  END
> <chiral flag>
0

> <version>
0

> <s_m_source_file>
/data/baiqing/PycharmProjects/Reinvent-master-3.2/result/LINK_invent/BTK/process_docking_weight1_custom_product_contain_oxygen_bond_distance_aromatic_linkinvent_7_9_3/rearranged_h_0146.sdf

> <i_m_source_file_index>
36

> <r_mmod_Potential_Energy-OPLS-2005>
708.193237304688

> <r_mmod_Stretch_Energy-OPLS-2005>
137.742172241211

> <r_mmod_Bend_Energy-OPLS-2005>
573.416687011719

> <r_mmod_Torsional_Energy-OPLS-2005>
309.219177246094

> <r_mmod_Improper_Torsional_Energy-OPLS-2005>
30.0756607055664

> <r_mmod_Van_der_Waal_Energy-OPLS-2005>
145.418441772461

> <r_mmod_Electrostatic_Energy-OPLS-2005>
-359.162322998047

> <r_mmod_Solvation_Energy-OPLS-2005>
-221.628860473633

> <b_mmod_Minimization_Converged-OPLS-2005>
0

> <r_mmod_RMS_Derivative-OPLS-2005>
0.977242112159729

$$$$
36
                    3D
 Structure written by MMmdl.
165173  0  0  1  0            999 V2000
  -30.6564  -14.4962   20.5249 C   0  0  0  0  0  0
  -30.4547  -12.3098   19.4444 C   0  0  0  0  0  0
  -29.5151  -12.4740   18.2325 C   0  0  0  0  0  0
  -28.0561  -12.2719   18.6749 C   0  0  0  0  0  0
  -27.6808  -13.1703   19.8783 C   0  0  2  0  0  0
  -28.7164  -12.9909   21.0140 C   0  0  0  0  0  0
  -25.2782  -13.8143   20.5635 C   0  0  0  0  0  0
  -24.1921  -13.0406   20.9135 C   0  0  0  0  0  0
  -24.6411  -11.6900   20.8733 C   0  0  0  0  0  0
  -23.9041  -10.4284   21.0390 C   0  0  0  0  0  0
  -24.3605   -9.4233   21.9160 C   0  0  0  0  0  0
  -23.6299   -8.2249   22.0738 C   0  0  0  0  0  0
  -22.4299   -8.0245   21.3538 C   0  0  0  0  0  0
  -21.9898   -9.0233   20.4649 C   0  0  0  0  0  0
  -22.7202  -10.2122   20.3063 C   0  0  0  0  0  0
  -21.6850   -6.0727   22.5285 C   0  0  0  0  0  0
  -21.4011   -6.5626   23.8206 C   0  0  0  0  0  0
  -21.3664   -5.6776   24.9151 C   0  0  0  0  0  0
  -21.6035   -4.3038   24.7215 C   0  0  0  0  0  0
  -21.8843   -3.8149   23.4311 C   0  0  0  0  0  0
  -21.9202   -4.6961   22.3380 C   0  0  0  0  0  0
  -22.7991  -13.5323   21.1795 C   0  0  0  0  0  0
  -22.1677   -4.2157   21.0954 F   0  0  0  0  0  0
  -21.5627   -3.4521   25.7711 F   0  0  0  0  0  0
  -30.0523  -13.2855   20.4672 N   0  0  0  0  0  0
  -26.3146  -12.9176   20.3356 N   0  0  0  0  0  0
  -25.9337  -11.6387   20.5799 N   0  0  0  0  0  0
  -22.0605  -12.8315   22.0365 N   0  0  0  0  0  0
  -25.4488  -15.1787   20.4046 N   0  0  0  0  0  0
  -31.7547  -14.7267   20.0049 O   0  0  0  0  0  0
  -21.6627   -6.8863   21.4243 O   0  0  0  0  0  0
  -22.3680  -14.5591   20.6617 O   0  0  0  0  0  0
  -24.6211  -31.8475   23.2133 C   0  0  0  0  0  0
  -25.9134  -32.4733   23.8375 C   0  0  1  0  0  0
  -27.2444  -27.4040   20.0343 C   0  0  0  0  0  0
  -25.5956  -33.8554   24.2234 N   0  0  0  0  0  0
  -23.4159  -30.4880   21.5435 C   0  0  2  0  0  0
  -24.8570  -28.9407   20.1484 C   0  0  0  0  0  0
  -22.7396  -29.4598   22.4729 C   0  0  0  0  0  0
  -18.0257  -28.1321   22.8785 C   0  0  0  0  0  0
  -24.1514  -36.7346   23.2621 C   0  0  0  0  0  0
  -25.9540  -30.8052   21.3720 C   0  0  0  0  0  0
  -26.0341  -29.4458   20.7066 C   0  0  0  0  0  0
  -27.2389  -28.6931   20.6312 C   0  0  0  0  0  0
  -26.0341  -26.9414   19.4790 C   0  0  0  0  0  0
  -24.8432  -27.6723   19.5653 C   0  0  0  0  0  0
  -23.6501  -29.8359   20.1649 C   0  0  0  0  0  0
  -25.4128  -36.3010   24.0248 C   0  0  1  0  0  0
  -20.5838  -28.3768   23.0952 C   0  0  2  0  0  0
  -20.6860  -26.9329   22.5581 C   0  0  0  0  0  0
  -19.5352  -26.4840   21.6476 C   0  0  0  0  0  0
  -18.1723  -26.7309   22.3056 C   0  0  0  0  0  0
  -19.1572  -28.8980   23.2565 C   0  0  0  0  0  0
  -18.9700  -30.1698   23.8350 C   0  0  0  0  0  0
  -17.6752  -30.6756   24.0413 C   0  0  0  0  0  0
  -25.9017  -34.9389   23.4985 C   0  0  0  0  0  0
  -16.5520  -29.9220   23.6522 C   0  0  0  0  0  0
  -16.7315  -28.6543   23.0703 C   0  0  0  0  0  0
  -26.4570  -31.6592   25.0771 C   0  0  0  0  0  0
  -25.3835  -31.3836   26.1572 C   0  0  0  0  0  0
  -27.0333  -30.2937   24.6279 C   0  0  0  0  0  0
  -27.6032  -32.4427   25.7605 C   0  0  0  0  0  0
  -27.5569  -37.1828   24.8424 C   0  0  0  0  0  0
  -21.4178  -29.2920   22.3188 N   0  0  0  0  0  0
  -26.4295  -37.3736   23.9318 N   0  0  0  0  0  0
  -24.6830  -31.0521   22.1089 N   0  0  0  0  0  0
  -23.4054  -28.8200   23.2937 O   0  0  0  0  0  0
  -28.4097  -26.6653   19.8655 O   0  0  0  0  0  0
  -26.5574  -34.8873   22.4520 O   0  0  0  0  0  0
  -23.5421  -32.1258   23.7504 O   0  0  0  0  0  0
  -29.0224  -17.7854   20.9992 C   0  0  0  0  0  0
  -28.6294  -19.0289   18.9380 C   0  0  0  0  0  0
  -29.4537  -16.7202   18.8564 C   0  0  0  0  0  0
  -28.6056  -18.9834   20.3557 C   0  0  0  0  0  0
  -29.4880  -16.6600   20.2786 C   0  0  0  0  0  0
  -29.0304  -17.8965   18.1998 C   0  0  0  0  0  0
  -26.4925  -24.2013   21.0758 C   0  0  0  0  0  0
  -27.5126  -23.8549   18.6914 C   0  0  0  0  0  0
  -27.6231  -21.4535   20.5349 C   0  0  0  0  0  0
  -28.4597  -22.7659   20.7441 C   0  0  0  0  0  0
  -28.6485  -25.3648   20.4926 C   0  0  0  0  0  0
  -28.1040  -20.1422   21.2469 C   0  0  2  0  0  0
  -27.7700  -24.0719   20.2079 C   0  0  0  0  0  0
  -29.8717  -15.4812   21.0181 N   0  0  0  0  0  0
  -29.0397  -20.4101   22.3661 N   0  3  0  0  0  0
  -28.9957  -17.9486   16.8448 F   0  0  0  0  0  0
  -31.4933  -12.4380   19.1320 H   0  0  0  0  0  0
  -30.3998  -11.2974   19.8475 H   0  0  0  0  0  0
  -29.7814  -11.7506   17.4577 H   0  0  0  0  0  0
  -29.6292  -13.4592   17.7857 H   0  0  0  0  0  0
  -27.9636  -11.2271   18.9705 H   0  0  0  0  0  0
  -27.3674  -12.4029   17.8457 H   0  0  0  0  0  0
  -27.7244  -14.1991   19.5308 H   0  0  0  0  0  0
  -28.7050  -11.9793   21.4073 H   0  0  0  0  0  0
  -28.4643  -13.6255   21.8650 H   0  0  0  0  0  0
  -25.2771   -9.5661   22.4714 H   0  0  0  0  0  0
  -24.0009   -7.4623   22.7433 H   0  0  0  0  0  0
  -21.0850   -8.8744   19.8950 H   0  0  0  0  0  0
  -22.3679  -10.9648   19.6165 H   0  0  0  0  0  0
  -21.2013   -7.6146   23.9710 H   0  0  0  0  0  0
  -21.1458   -6.0488   25.9046 H   0  0  0  0  0  0
  -22.0638   -2.7626   23.2799 H   0  0  0  0  0  0
  -22.4242  -11.9947   22.4677 H   0  0  0  0  0  0
  -21.1227  -13.1371   22.2572 H   0  0  0  0  0  0
  -24.6659  -15.8177   20.4905 H   0  0  0  0  0  0
  -26.2998  -15.6254   20.0828 H   0  0  0  0  0  0
  -26.7147  -32.5502   23.1070 H   0  0  0  0  0  0
  -25.0337  -33.9755   25.0571 H   0  0  0  0  0  0
  -22.7154  -31.3075   21.3904 H   0  0  0  0  0  0
  -23.3667  -35.9802   23.3293 H   0  0  0  0  0  0
  -24.3603  -36.9019   22.2038 H   0  0  0  0  0  0
  -23.7442  -37.6607   23.6711 H   0  0  0  0  0  0
  -26.0626  -31.5824   20.6207 H   0  0  0  0  0  0
  -26.8432  -30.8559   21.9927 H   0  0  0  0  0  0
  -28.1722  -29.1148   20.9897 H   0  0  0  0  0  0
  -25.9757  -26.0016   18.9720 H   0  0  0  0  0  0
  -23.9233  -27.2509   19.1856 H   0  0  0  0  0  0
  -23.8786  -30.6250   19.4453 H   0  0  0  0  0  0
  -22.7728  -29.2995   19.7921 H   0  0  0  0  0  0
  -25.1333  -36.1771   25.0752 H   0  0  0  0  0  0
  -20.9947  -28.3687   24.1067 H   0  0  0  0  0  0
  -20.6780  -26.2723   23.4263 H   0  0  0  0  0  0
  -21.6457  -26.7393   22.0844 H   0  0  0  0  0  0
  -19.6184  -25.4080   21.4776 H   0  0  0  0  0  0
  -19.5929  -26.9611   20.6714 H   0  0  0  0  0  0
  -18.0591  -26.0550   23.1538 H   0  0  0  0  0  0
  -17.3519  -26.4960   21.6254 H   0  0  0  0  0  0
  -19.8361  -30.7610   24.1130 H   0  0  0  0  0  0
  -17.5584  -31.6567   24.4878 H   0  0  0  0  0  0
  -15.5607  -30.3196   23.8247 H   0  0  0  0  0  0
  -15.8598  -28.0776   22.7913 H   0  0  0  0  0  0
  -24.5889  -30.7286   25.8010 H   0  0  0  0  0  0
  -24.9287  -32.3135   26.5038 H   0  0  0  0  0  0
  -25.8312  -30.9014   27.0291 H   0  0  0  0  0  0
  -26.2828  -29.6665   24.1477 H   0  0  0  0  0  0
  -27.4061  -29.7305   25.4862 H   0  0  0  0  0  0
  -27.8744  -30.4079   23.9413 H   0  0  0  0  0  0
  -27.2385  -33.3570   26.2333 H   0  0  0  0  0  0
  -28.3849  -32.7279   25.0533 H   0  0  0  0  0  0
  -28.0705  -31.8507   26.5506 H   0  0  0  0  0  0
  -28.2527  -38.0167   24.7368 H   0  0  0  0  0  0
  -28.1091  -36.2670   24.6296 H   0  0  0  0  0  0
  -27.2283  -37.1545   25.8838 H   0  0  0  0  0  0
  -20.9326  -29.8409   21.6224 H   0  0  0  0  0  0
  -26.0080  -38.2777   24.1384 H   0  0  0  0  0  0
  -28.9949  -17.7177   22.0802 H   0  0  0  0  0  0
  -28.3340  -19.8955   18.3640 H   0  0  0  0  0  0
  -29.7215  -15.8742   18.2365 H   0  0  0  0  0  0
  -26.1850  -25.2338   21.2186 H   0  0  0  0  0  0
  -25.6424  -23.6399   20.6765 H   0  0  0  0  0  0
  -26.6636  -23.8540   22.0985 H   0  0  0  0  0  0
  -28.3955  -23.4242   18.2070 H   0  0  0  0  0  0
  -27.2988  -24.7598   18.1208 H   0  0  0  0  0  0
  -26.6930  -23.1557   18.4970 H   0  0  0  0  0  0
  -27.4257  -21.2915   19.4756 H   0  0  0  0  0  0
  -26.6256  -21.6296   20.9296 H   0  0  0  0  0  0
  -29.4745  -22.6341   20.3616 H   0  0  0  0  0  0
  -28.6058  -22.9050   21.8109 H   0  0  0  0  0  0
  -28.6620  -25.5640   21.5620 H   0  0  0  0  0  0
  -29.6830  -25.0974   20.2467 H   0  0  0  0  0  0
  -27.2034  -19.7304   21.7119 H   0  0  0  0  0  0
  -29.1609  -15.1391   21.6719 H   0  0  0  0  0  0
  -29.9139  -20.7709   22.0176 H   0  0  0  0  0  0
  -29.2254  -19.5720   22.8930 H   0  0  0  0  0  0
  -28.6267  -21.0765   22.9979 H   0  0  0  0  0  0
  1 25  1  0  0  0
  1 30  2  0  0  0
  1 84  1  0  0  0
  2  3  1  0  0  0
  2 25  1  0  0  0
  2 87  1  0  0  0
  2 88  1  0  0  0
  3  4  1  0  0  0
  3 89  1  0  0  0
  3 90  1  0  0  0
  4  5  1  0  0  0
  4 91  1  0  0  0
  4 92  1  0  0  0
  5  6  1  0  0  0
  5 26  1  0  0  0
  5 93  1  0  0  0
  6 25  1  0  0  0
  6 94  1  0  0  0
  6 95  1  0  0  0
  7  8  2  0  0  0
  7 26  1  0  0  0
  7 29  1  0  0  0
  8  9  1  0  0  0
  8 22  1  0  0  0
  9 10  1  0  0  0
  9 27  2  0  0  0
 10 11  2  0  0  0
 10 15  1  0  0  0
 11 12  1  0  0  0
 11 96  1  0  0  0
 12 13  2  0  0  0
 12 97  1  0  0  0
 13 14  1  0  0  0
 13 31  1  0  0  0
 14 15  2  0  0  0
 14 98  1  0  0  0
 15 99  1  0  0  0
 16 17  2  0  0  0
 16 21  1  0  0  0
 16 31  1  0  0  0
 17 18  1  0  0  0
 17100  1  0  0  0
 18 19  2  0  0  0
 18101  1  0  0  0
 19 20  1  0  0  0
 19 24  1  0  0  0
 20 21  2  0  0  0
 20102  1  0  0  0
 21 23  1  0  0  0
 22 28  1  0  0  0
 22 32  2  0  0  0
 26 27  1  0  0  0
 28103  1  0  0  0
 28104  1  0  0  0
 29105  1  0  0  0
 29106  1  0  0  0
 33 34  1  0  0  0
 33 66  1  0  0  0
 33 70  2  0  0  0
 34 36  1  0  0  0
 34 59  1  0  0  0
 34107  1  0  0  0
 35 44  2  0  0  0
 35 45  1  0  0  0
 35 68  1  0  0  0
 36 56  1  0  0  0
 36108  1  0  0  0
 37 39  1  0  0  0
 37 47  1  0  0  0
 37 66  1  0  0  0
 37109  1  0  0  0
 38 43  2  0  0  0
 38 46  1  0  0  0
 38 47  1  0  0  0
 39 64  1  0  0  0
 39 67  2  0  0  0
 40 52  1  0  0  0
 40 53  2  0  0  0
 40 58  1  0  0  0
 41110  1  0  0  0
 41111  1  0  0  0
 41112  1  0  0  0
 41 48  1  0  0  0
 42 43  1  0  0  0
 42 66  1  0  0  0
 42113  1  0  0  0
 42114  1  0  0  0
 43 44  1  0  0  0
 44115  1  0  0  0
 45 46  2  0  0  0
 45116  1  0  0  0
 46117  1  0  0  0
 47118  1  0  0  0
 47119  1  0  0  0
 48 56  1  0  0  0
 48 65  1  0  0  0
 48120  1  0  0  0
 49 50  1  0  0  0
 49 53  1  0  0  0
 49 64  1  0  0  0
 49121  1  0  0  0
 50 51  1  0  0  0
 50122  1  0  0  0
 50123  1  0  0  0
 51 52  1  0  0  0
 51124  1  0  0  0
 51125  1  0  0  0
 52126  1  0  0  0
 52127  1  0  0  0
 53 54  1  0  0  0
 54 55  2  0  0  0
 54128  1  0  0  0
 55 57  1  0  0  0
 55129  1  0  0  0
 56 69  2  0  0  0
 57 58  2  0  0  0
 57130  1  0  0  0
 58131  1  0  0  0
 59 60  1  0  0  0
 59 61  1  0  0  0
 59 62  1  0  0  0
 60132  1  0  0  0
 60133  1  0  0  0
 60134  1  0  0  0
 61135  1  0  0  0
 61136  1  0  0  0
 61137  1  0  0  0
 62138  1  0  0  0
 62139  1  0  0  0
 62140  1  0  0  0
 63 65  1  0  0  0
 63141  1  0  0  0
 63142  1  0  0  0
 63143  1  0  0  0
 64144  1  0  0  0
 65145  1  0  0  0
 68 81  1  0  0  0
 71 74  2  0  0  0
 71 75  1  0  0  0
 71146  1  0  0  0
 72 74  1  0  0  0
 72 76  2  0  0  0
 72147  1  0  0  0
 73 75  2  0  0  0
 73 76  1  0  0  0
 73148  1  0  0  0
 74 82  1  0  0  0
 75 84  1  0  0  0
 76 86  1  0  0  0
 77149  1  0  0  0
 77150  1  0  0  0
 77151  1  0  0  0
 77 83  1  0  0  0
 78 83  1  0  0  0
 78152  1  0  0  0
 78153  1  0  0  0
 78154  1  0  0  0
 79 80  1  0  0  0
 79 82  1  0  0  0
 79155  1  0  0  0
 79156  1  0  0  0
 80 83  1  0  0  0
 80157  1  0  0  0
 80158  1  0  0  0
 81 83  1  0  0  0
 81159  1  0  0  0
 81160  1  0  0  0
 82 85  1  0  0  0
 82161  1  0  0  0
 84162  1  0  0  0
 85163  1  0  0  0
 85164  1  0  0  0
 85165  1  0  0  0
M  CHG  1  85   1
M  ISO  4   1 100  68 101  81 101  84 100
M  END
> <chiral flag>
0

> <version>
0

> <s_m_source_file>
/data/baiqing/PycharmProjects/Reinvent-master-3.2/result/LINK_invent/BTK/process_docking_weight1_custom_product_contain_oxygen_bond_distance_aromatic_linkinvent_7_9_3/rearranged_h_0146.sdf

> <i_m_source_file_index>
37

> <r_mmod_Potential_Energy-OPLS-2005>
-143.779098510742

> <r_mmod_Stretch_Energy-OPLS-2005>
55.1178398132324

> <r_mmod_Bend_Energy-OPLS-2005>
154.508941650391

> <r_mmod_Torsional_Energy-OPLS-2005>
292.745452880859

> <r_mmod_Improper_Torsional_Energy-OPLS-2005>
8.19009876251221

> <r_mmod_Van_der_Waal_Energy-OPLS-2005>
174.670913696289

> <r_mmod_Electrostatic_Energy-OPLS-2005>
-346.693145751953

> <r_mmod_Solvation_Energy-OPLS-2005>
-515.49658203125

> <b_mmod_Minimization_Converged-OPLS-2005>
0

> <r_mmod_RMS_Derivative-OPLS-2005>
16.9687976837158

$$$$
37
                    3D
 Structure written by MMmdl.
161169  0  0  1  0            999 V2000
  -30.7325  -14.4775   20.5894 C   0  0  0  0  0  0
  -30.4175  -12.3215   19.4207 C   0  0  0  0  0  0
  -29.4873  -12.5019   18.2054 C   0  0  0  0  0  0
  -28.0131  -12.3467   18.6247 C   0  0  0  0  0  0
  -27.6559  -13.2025   19.8669 C   0  0  2  0  0  0
  -28.7011  -13.0211   20.9919 C   0  0  0  0  0  0
  -25.2566  -13.8145   20.5675 C   0  0  0  0  0  0
  -24.1826  -13.0429   20.9195 C   0  0  0  0  0  0
  -24.6381  -11.6897   20.8761 C   0  0  0  0  0  0
  -23.9049  -10.4287   21.0420 C   0  0  0  0  0  0
  -24.3606   -9.4205   21.9194 C   0  0  0  0  0  0
  -23.6289   -8.2240   22.0757 C   0  0  0  0  0  0
  -22.4274   -8.0276   21.3544 C   0  0  0  0  0  0
  -21.9905   -9.0252   20.4647 C   0  0  0  0  0  0
  -22.7229  -10.2131   20.3063 C   0  0  0  0  0  0
  -21.6850   -6.0731   22.5275 C   0  0  0  0  0  0
  -21.4010   -6.5639   23.8207 C   0  0  0  0  0  0
  -21.3661   -5.6795   24.9172 C   0  0  0  0  0  0
  -21.6048   -4.3053   24.7222 C   0  0  0  0  0  0
  -21.8819   -3.8145   23.4341 C   0  0  0  0  0  0
  -21.9194   -4.6962   22.3398 C   0  0  0  0  0  0
  -22.7851  -13.5236   21.1856 C   0  0  0  0  0  0
  -22.1662   -4.2151   21.0973 F   0  0  0  0  0  0
  -21.5636   -3.4536   25.7732 F   0  0  0  0  0  0
  -30.0305  -13.3187   20.4324 N   0  0  0  0  0  0
  -26.2995  -12.9308   20.3349 N   0  0  0  0  0  0
  -25.9303  -11.6477   20.5790 N   0  0  0  0  0  0
  -22.0492  -12.8228   22.0413 N   0  0  0  0  0  0
  -25.4252  -15.1859   20.4025 N   0  0  0  0  0  0
  -31.8568  -14.6402   20.1034 O   0  0  0  0  0  0
  -21.6637   -6.8874   21.4237 O   0  0  0  0  0  0
  -22.3543  -14.5548   20.6711 O   0  0  0  0  0  0
  -24.6183  -31.8660   23.2095 C   0  0  0  0  0  0
  -25.9059  -32.4821   23.8388 C   0  0  1  0  0  0
  -27.2248  -27.4027   20.0966 C   0  0  0  0  0  0
  -25.5919  -33.8623   24.2309 N   0  0  0  0  0  0
  -23.4072  -30.4927   21.5504 C   0  0  2  0  0  0
  -24.8519  -28.9620   20.1114 C   0  0  0  0  0  0
  -22.7441  -29.4649   22.4964 C   0  0  0  0  0  0
  -18.0282  -28.1381   22.8497 C   0  0  0  0  0  0
  -24.1498  -36.7301   23.2638 C   0  0  0  0  0  0
  -25.9413  -30.8218   21.3693 C   0  0  0  0  0  0
  -26.0168  -29.4564   20.7123 C   0  0  0  0  0  0
  -27.2079  -28.6859   20.6996 C   0  0  0  0  0  0
  -26.0433  -26.9470   19.4662 C   0  0  0  0  0  0
  -24.8629  -27.7087   19.4822 C   0  0  0  0  0  0
  -23.6167  -29.8321   20.1635 C   0  0  0  0  0  0
  -25.4122  -36.3103   24.0331 C   0  0  1  0  0  0
  -20.5880  -28.3665   23.1309 C   0  0  2  0  0  0
  -20.6780  -26.9397   22.5414 C   0  0  0  0  0  0
  -19.5756  -26.6380   21.5215 C   0  0  0  0  0  0
  -18.1931  -26.7928   22.1620 C   0  0  0  0  0  0
  -19.1538  -28.8834   23.2908 C   0  0  0  0  0  0
  -18.9466  -30.1447   23.8905 C   0  0  0  0  0  0
  -17.6466  -30.6583   24.0568 C   0  0  0  0  0  0
  -25.9051  -34.9476   23.5104 C   0  0  0  0  0  0
  -16.5358  -29.9089   23.6339 C   0  0  0  0  0  0
  -16.7272  -28.6514   23.0343 C   0  0  0  0  0  0
  -26.4479  -31.6619   25.0730 C   0  0  0  0  0  0
  -25.3740  -31.3740   26.1476 C   0  0  0  0  0  0
  -27.0309  -30.3060   24.6114 C   0  0  0  0  0  0
  -27.6045  -32.4350   25.7493 C   0  0  0  0  0  0
  -27.5585  -37.1811   24.8468 C   0  0  0  0  0  0
  -21.4158  -29.3032   22.3703 N   0  0  0  0  0  0
  -26.4302  -37.3792   23.9416 N   0  0  0  0  0  0
  -24.6736  -31.0754   22.1005 N   0  0  0  0  0  0
  -23.4206  -28.8168   23.2992 O   0  0  0  0  0  0
  -28.3643  -26.6127   20.1147 O   0  0  0  0  0  0
  -26.5606  -34.8923   22.4663 O   0  0  0  0  0  0
  -23.5367  -32.1405   23.7483 O   0  0  0  0  0  0
  -28.5762  -18.5323   21.9007 C   0  0  0  0  0  0
  -28.7075  -19.9555   21.8432 C   0  0  0  0  0  0
  -29.2530  -17.8709   20.9060 C   0  0  0  0  0  0
  -29.4931  -20.3945   20.8068 C   0  0  0  0  0  0
  -30.5648  -24.7042   21.0671 C   0  0  0  0  0  0
  -29.6537  -24.1977   18.7659 C   0  0  0  0  0  0
  -30.8725  -16.0367   22.4339 C   0  0  0  0  0  0
  -29.2015  -16.3844   20.5949 C   0  0  0  0  0  0
  -28.8937  -22.8136   20.7713 C   0  0  0  0  0  0
  -28.1548  -25.2345   20.5254 C   0  0  0  0  0  0
  -29.3312  -24.2365   20.2744 C   0  0  0  0  0  0
  -29.8073  -21.7116   20.4315 N   0  0  0  0  0  0
  -30.1417  -15.4741   21.2950 N   0  0  0  0  0  0
  -30.1197  -19.0234   19.9036 S   0  0  0  0  0  0
  -31.4604  -12.4163   19.1123 H   0  0  0  0  0  0
  -30.3229  -11.3151   19.8323 H   0  0  0  0  0  0
  -29.7320  -11.7734   17.4315 H   0  0  0  0  0  0
  -29.6428  -13.4864   17.7609 H   0  0  0  0  0  0
  -27.8375  -11.2912   18.8381 H   0  0  0  0  0  0
  -27.3551  -12.5998   17.7928 H   0  0  0  0  0  0
  -27.6845  -14.2385   19.5361 H   0  0  0  0  0  0
  -28.6836  -11.9974   21.3683 H   0  0  0  0  0  0
  -28.4577  -13.6522   21.8479 H   0  0  0  0  0  0
  -25.2751   -9.5683   22.4771 H   0  0  0  0  0  0
  -23.9999   -7.4626   22.7471 H   0  0  0  0  0  0
  -21.0842   -8.8771   19.8947 H   0  0  0  0  0  0
  -22.3696  -10.9674   19.6170 H   0  0  0  0  0  0
  -21.1993   -7.6146   23.9712 H   0  0  0  0  0  0
  -21.1488   -6.0521   25.9076 H   0  0  0  0  0  0
  -22.0596   -2.7607   23.2837 H   0  0  0  0  0  0
  -22.4098  -11.9881   22.4790 H   0  0  0  0  0  0
  -21.1113  -13.1261   22.2620 H   0  0  0  0  0  0
  -24.6525  -15.8348   20.5043 H   0  0  0  0  0  0
  -26.2650  -15.6253   20.0504 H   0  0  0  0  0  0
  -26.7127  -32.5510   23.1146 H   0  0  0  0  0  0
  -25.0113  -33.9801   25.0478 H   0  0  0  0  0  0
  -22.6972  -31.3102   21.4135 H   0  0  0  0  0  0
  -23.3763  -35.9630   23.3308 H   0  0  0  0  0  0
  -24.3587  -36.8900   22.2048 H   0  0  0  0  0  0
  -23.7240  -37.6502   23.6655 H   0  0  0  0  0  0
  -26.0647  -31.5875   20.6020 H   0  0  0  0  0  0
  -26.8255  -30.8677   21.9940 H   0  0  0  0  0  0
  -28.1058  -29.0613   21.1710 H   0  0  0  0  0  0
  -26.0137  -26.0048   18.9408 H   0  0  0  0  0  0
  -23.9738  -27.3309   18.9964 H   0  0  0  0  0  0
  -23.7287  -30.6094   19.4069 H   0  0  0  0  0  0
  -22.7386  -29.2583   19.8628 H   0  0  0  0  0  0
  -25.1298  -36.1948   25.0822 H   0  0  0  0  0  0
  -20.9996  -28.3223   24.1420 H   0  0  0  0  0  0
  -20.5690  -26.2263   23.3598 H   0  0  0  0  0  0
  -21.6650  -26.7440   22.1190 H   0  0  0  0  0  0
  -19.6930  -25.6296   21.1230 H   0  0  0  0  0  0
  -19.6712  -27.3209   20.6764 H   0  0  0  0  0  0
  -17.4211  -26.6690   21.4010 H   0  0  0  0  0  0
  -18.0324  -26.0059   22.9001 H   0  0  0  0  0  0
  -19.7935  -30.7275   24.2265 H   0  0  0  0  0  0
  -17.5018  -31.6268   24.5163 H   0  0  0  0  0  0
  -15.5359  -30.2993   23.7676 H   0  0  0  0  0  0
  -15.8666  -28.0854   22.7037 H   0  0  0  0  0  0
  -24.5915  -30.7083   25.7821 H   0  0  0  0  0  0
  -24.8937  -32.2903   26.4920 H   0  0  0  0  0  0
  -25.8079  -30.8916   27.0239 H   0  0  0  0  0  0
  -26.2849  -29.6832   24.1165 H   0  0  0  0  0  0
  -27.4072  -29.7295   25.4572 H   0  0  0  0  0  0
  -27.8693  -30.4385   23.9272 H   0  0  0  0  0  0
  -27.2662  -33.3659   26.2064 H   0  0  0  0  0  0
  -28.3865  -32.6895   25.0328 H   0  0  0  0  0  0
  -28.0701  -31.8476   26.5418 H   0  0  0  0  0  0
  -28.2603  -38.0112   24.7514 H   0  0  0  0  0  0
  -28.1069  -36.2634   24.6285 H   0  0  0  0  0  0
  -27.2297  -37.1441   25.8870 H   0  0  0  0  0  0
  -20.9311  -29.8768   21.6945 H   0  0  0  0  0  0
  -26.0173  -38.2855   24.1431 H   0  0  0  0  0  0
  -27.9619  -18.0500   22.6483 H   0  0  0  0  0  0
  -28.2082  -20.5952   22.5571 H   0  0  0  0  0  0
  -31.4000  -24.0117   20.9582 H   0  0  0  0  0  0
  -30.3394  -24.7809   22.1312 H   0  0  0  0  0  0
  -30.9017  -25.6864   20.7349 H   0  0  0  0  0  0
  -30.5185  -23.5692   18.5496 H   0  0  0  0  0  0
  -29.8803  -25.1928   18.3828 H   0  0  0  0  0  0
  -28.8137  -23.8090   18.1891 H   0  0  0  0  0  0
  -30.1854  -16.4702   23.1602 H   0  0  0  0  0  0
  -31.5701  -16.8101   22.1084 H   0  0  0  0  0  0
  -31.4448  -15.2674   22.9568 H   0  0  0  0  0  0
  -29.2932  -16.2543   19.5140 H   0  0  0  0  0  0
  -28.2003  -16.0323   20.8390 H   0  0  0  0  0  0
  -27.9154  -22.5704   20.3535 H   0  0  0  0  0  0
  -28.7570  -22.8390   21.8541 H   0  0  0  0  0  0
  -27.9174  -25.2437   21.5902 H   0  0  0  0  0  0
  -27.2837  -24.7956   20.0435 H   0  0  0  0  0  0
  -30.3787  -21.8580   19.6034 H   0  0  0  0  0  0
  1 25  1  0  0  0
  1 30  2  0  0  0
  1 83  1  0  0  0
  2  3  1  0  0  0
  2 25  1  0  0  0
  2 85  1  0  0  0
  2 86  1  0  0  0
  3  4  1  0  0  0
  3 87  1  0  0  0
  3 88  1  0  0  0
  4  5  1  0  0  0
  4 89  1  0  0  0
  4 90  1  0  0  0
  5  6  1  0  0  0
  5 26  1  0  0  0
  5 91  1  0  0  0
  6 25  1  0  0  0
  6 92  1  0  0  0
  6 93  1  0  0  0
  7  8  2  0  0  0
  7 26  1  0  0  0
  7 29  1  0  0  0
  8  9  1  0  0  0
  8 22  1  0  0  0
  9 10  1  0  0  0
  9 27  2  0  0  0
 10 11  2  0  0  0
 10 15  1  0  0  0
 11 12  1  0  0  0
 11 94  1  0  0  0
 12 13  2  0  0  0
 12 95  1  0  0  0
 13 14  1  0  0  0
 13 31  1  0  0  0
 14 15  2  0  0  0
 14 96  1  0  0  0
 15 97  1  0  0  0
 16 17  2  0  0  0
 16 21  1  0  0  0
 16 31  1  0  0  0
 17 18  1  0  0  0
 17 98  1  0  0  0
 18 19  2  0  0  0
 18 99  1  0  0  0
 19 20  1  0  0  0
 19 24  1  0  0  0
 20 21  2  0  0  0
 20100  1  0  0  0
 21 23  1  0  0  0
 22 28  1  0  0  0
 22 32  2  0  0  0
 26 27  1  0  0  0
 28101  1  0  0  0
 28102  1  0  0  0
 29103  1  0  0  0
 29104  1  0  0  0
 33 34  1  0  0  0
 33 66  1  0  0  0
 33 70  2  0  0  0
 34 36  1  0  0  0
 34 59  1  0  0  0
 34105  1  0  0  0
 35 44  2  0  0  0
 35 45  1  0  0  0
 35 68  1  0  0  0
 36 56  1  0  0  0
 36106  1  0  0  0
 37 39  1  0  0  0
 37 47  1  0  0  0
 37 66  1  0  0  0
 37107  1  0  0  0
 38 43  2  0  0  0
 38 46  1  0  0  0
 38 47  1  0  0  0
 39 64  1  0  0  0
 39 67  2  0  0  0
 40 52  1  0  0  0
 40 53  2  0  0  0
 40 58  1  0  0  0
 41108  1  0  0  0
 41109  1  0  0  0
 41110  1  0  0  0
 41 48  1  0  0  0
 42 43  1  0  0  0
 42 66  1  0  0  0
 42111  1  0  0  0
 42112  1  0  0  0
 43 44  1  0  0  0
 44113  1  0  0  0
 45 46  2  0  0  0
 45114  1  0  0  0
 46115  1  0  0  0
 47116  1  0  0  0
 47117  1  0  0  0
 48 56  1  0  0  0
 48 65  1  0  0  0
 48118  1  0  0  0
 49 50  1  0  0  0
 49 53  1  0  0  0
 49 64  1  0  0  0
 49119  1  0  0  0
 50 51  1  0  0  0
 50120  1  0  0  0
 50121  1  0  0  0
 51 52  1  0  0  0
 51122  1  0  0  0
 51123  1  0  0  0
 52124  1  0  0  0
 52125  1  0  0  0
 53 54  1  0  0  0
 54 55  2  0  0  0
 54126  1  0  0  0
 55 57  1  0  0  0
 55127  1  0  0  0
 56 69  2  0  0  0
 57 58  2  0  0  0
 57128  1  0  0  0
 58129  1  0  0  0
 59 60  1  0  0  0
 59 61  1  0  0  0
 59 62  1  0  0  0
 60130  1  0  0  0
 60131  1  0  0  0
 60132  1  0  0  0
 61133  1  0  0  0
 61134  1  0  0  0
 61135  1  0  0  0
 62136  1  0  0  0
 62137  1  0  0  0
 62138  1  0  0  0
 63 65  1  0  0  0
 63139  1  0  0  0
 63140  1  0  0  0
 63141  1  0  0  0
 64142  1  0  0  0
 65143  1  0  0  0
 68 80  1  0  0  0
 71 72  1  0  0  0
 71 73  2  0  0  0
 71144  1  0  0  0
 72 74  2  0  0  0
 72145  1  0  0  0
 73 78  1  0  0  0
 73 84  1  0  0  0
 74 82  1  0  0  0
 74 84  1  0  0  0
 75146  1  0  0  0
 75147  1  0  0  0
 75148  1  0  0  0
 75 81  1  0  0  0
 76 81  1  0  0  0
 76149  1  0  0  0
 76150  1  0  0  0
 76151  1  0  0  0
 77 83  1  0  0  0
 77152  1  0  0  0
 77153  1  0  0  0
 77154  1  0  0  0
 78 83  1  0  0  0
 78155  1  0  0  0
 78156  1  0  0  0
 79 81  1  0  0  0
 79 82  1  0  0  0
 79157  1  0  0  0
 79158  1  0  0  0
 80 81  1  0  0  0
 80159  1  0  0  0
 80160  1  0  0  0
 82161  1  0  0  0
M  ISO  4   1 100  68 101  80 101  83 100
M  END
> <chiral flag>
0

> <version>
0

> <s_m_source_file>
/data/baiqing/PycharmProjects/Reinvent-master-3.2/result/LINK_invent/BTK/process_docking_weight1_custom_product_contain_oxygen_bond_distance_aromatic_linkinvent_7_9_3/rearranged_h_0146.sdf

> <i_m_source_file_index>
38

> <r_mmod_Potential_Energy-OPLS-2005>
89.7281494140625

> <r_mmod_Stretch_Energy-OPLS-2005>
43.0744705200195

> <r_mmod_Bend_Energy-OPLS-2005>
109.860778808594

> <r_mmod_Torsional_Energy-OPLS-2005>
305.114318847656

> <r_mmod_Improper_Torsional_Energy-OPLS-2005>
5.96362924575806

> <r_mmod_Van_der_Waal_Energy-OPLS-2005>
131.263427734375

> <r_mmod_Electrostatic_Energy-OPLS-2005>
-325.733215332031

> <r_mmod_Solvation_Energy-OPLS-2005>
-197.212661743164

> <b_mmod_Minimization_Converged-OPLS-2005>
0

> <r_mmod_RMS_Derivative-OPLS-2005>
1.51401329040527

$$$$
38
                    3D
 Structure written by MMmdl.
163172  0  0  1  0            999 V2000
  -30.7020  -14.4713   20.5080 C   0  0  0  0  0  0
  -30.4158  -12.2852   19.4394 C   0  0  0  0  0  0
  -29.4992  -12.4891   18.2153 C   0  0  0  0  0  0
  -28.0177  -12.3634   18.6212 C   0  0  0  0  0  0
  -27.6600  -13.2098   19.8726 C   0  0  2  0  0  0
  -28.7009  -13.0147   20.9994 C   0  0  0  0  0  0
  -25.2581  -13.8172   20.5692 C   0  0  0  0  0  0
  -24.1836  -13.0443   20.9190 C   0  0  0  0  0  0
  -24.6392  -11.6912   20.8737 C   0  0  0  0  0  0
  -23.9056  -10.4296   21.0404 C   0  0  0  0  0  0
  -24.3610   -9.4208   21.9180 C   0  0  0  0  0  0
  -23.6289   -8.2242   22.0750 C   0  0  0  0  0  0
  -22.4267   -8.0287   21.3548 C   0  0  0  0  0  0
  -21.9900   -9.0260   20.4646 C   0  0  0  0  0  0
  -22.7228  -10.2139   20.3054 C   0  0  0  0  0  0
  -21.6853   -6.0741   22.5286 C   0  0  0  0  0  0
  -21.4014   -6.5646   23.8223 C   0  0  0  0  0  0
  -21.3658   -5.6795   24.9184 C   0  0  0  0  0  0
  -21.6047   -4.3060   24.7228 C   0  0  0  0  0  0
  -21.8816   -3.8154   23.4348 C   0  0  0  0  0  0
  -21.9192   -4.6969   22.3405 C   0  0  0  0  0  0
  -22.7857  -13.5245   21.1852 C   0  0  0  0  0  0
  -22.1662   -4.2156   21.0982 F   0  0  0  0  0  0
  -21.5619   -3.4542   25.7736 F   0  0  0  0  0  0
  -30.0340  -13.2902   20.4427 N   0  0  0  0  0  0
  -26.3017  -12.9343   20.3357 N   0  0  0  0  0  0
  -25.9320  -11.6501   20.5766 N   0  0  0  0  0  0
  -22.0482  -12.8249   22.0404 N   0  0  0  0  0  0
  -25.4292  -15.1895   20.4109 N   0  0  0  0  0  0
  -31.8715  -14.5975   20.1351 O   0  0  0  0  0  0
  -21.6634   -6.8885   21.4249 O   0  0  0  0  0  0
  -22.3555  -14.5560   20.6697 O   0  0  0  0  0  0
  -24.6136  -31.8691   23.2116 C   0  0  0  0  0  0
  -25.9033  -32.4834   23.8404 C   0  0  1  0  0  0
  -27.2281  -27.4414   20.1031 C   0  0  0  0  0  0
  -25.5891  -33.8632   24.2335 N   0  0  0  0  0  0
  -23.4014  -30.4937   21.5515 C   0  0  2  0  0  0
  -24.8485  -28.9661   20.1103 C   0  0  0  0  0  0
  -22.7404  -29.4664   22.4986 C   0  0  0  0  0  0
  -18.0269  -28.1377   22.8490 C   0  0  0  0  0  0
  -24.1484  -36.7321   23.2636 C   0  0  0  0  0  0
  -25.9296  -30.8400   21.3625 C   0  0  0  0  0  0
  -26.0090  -29.4762   20.7074 C   0  0  0  0  0  0
  -27.2057  -28.7226   20.6985 C   0  0  0  0  0  0
  -26.0564  -26.9539   19.4835 C   0  0  0  0  0  0
  -24.8671  -27.7040   19.4931 C   0  0  0  0  0  0
  -23.6094  -29.8304   20.1641 C   0  0  0  0  0  0
  -25.4106  -36.3120   24.0335 C   0  0  1  0  0  0
  -20.5858  -28.3665   23.1316 C   0  0  2  0  0  0
  -20.6762  -26.9403   22.5414 C   0  0  0  0  0  0
  -19.5746  -26.6385   21.5207 C   0  0  0  0  0  0
  -18.1923  -26.7925   22.1619 C   0  0  0  0  0  0
  -19.1519  -28.8835   23.2902 C   0  0  0  0  0  0
  -18.9450  -30.1440   23.8916 C   0  0  0  0  0  0
  -17.6456  -30.6586   24.0565 C   0  0  0  0  0  0
  -25.9032  -34.9483   23.5133 C   0  0  0  0  0  0
  -16.5345  -29.9092   23.6324 C   0  0  0  0  0  0
  -16.7259  -28.6506   23.0348 C   0  0  0  0  0  0
  -26.4465  -31.6608   25.0724 C   0  0  0  0  0  0
  -25.3737  -31.3713   26.1476 C   0  0  0  0  0  0
  -27.0287  -30.3053   24.6083 C   0  0  0  0  0  0
  -27.6046  -32.4318   25.7484 C   0  0  0  0  0  0
  -27.5580  -37.1816   24.8463 C   0  0  0  0  0  0
  -21.4131  -29.3036   22.3724 N   0  0  0  0  0  0
  -26.4295  -37.3800   23.9404 N   0  0  0  0  0  0
  -24.6664  -31.0804   22.1011 N   0  0  0  0  0  0
  -23.4181  -28.8204   23.3023 O   0  0  0  0  0  0
  -28.3648  -26.6629   20.1437 O   0  0  0  0  0  0
  -26.5594  -34.8927   22.4696 O   0  0  0  0  0  0
  -23.5332  -32.1436   23.7519 O   0  0  0  0  0  0
  -30.6621  -18.2469   18.2709 C   0  0  0  0  0  0
  -30.2450  -19.3965   18.9624 C   0  0  0  0  0  0
  -30.5755  -16.9836   18.8779 C   0  0  0  0  0  0
  -29.6507  -18.0118   20.8827 C   0  0  0  0  0  0
  -29.7331  -19.2967   20.2791 C   0  0  0  0  0  0
  -30.0819  -16.8458   20.1994 C   0  0  0  0  0  0
  -30.3283  -24.0379   20.3283 C   0  0  0  0  0  0
  -30.6282  -22.5221   20.3199 C   0  0  0  0  0  0
  -28.3032  -22.8385   20.6574 C   0  0  0  0  0  0
  -28.8152  -24.1776   20.0749 C   0  0  2  0  0  0
  -28.5106  -24.2535   18.5609 C   0  0  0  0  0  0
  -29.2413  -20.5350   21.0500 C   0  0  0  0  0  0
  -28.1777  -25.3945   20.8062 C   0  0  0  0  0  0
  -29.9549  -15.5544   20.8100 N   0  0  0  0  0  0
  -29.3193  -21.8238   20.3005 N   0  3  2  0  0  0
  -31.4646  -12.3587   19.1450 H   0  0  0  0  0  0
  -30.2927  -11.2826   19.8510 H   0  0  0  0  0  0
  -29.7341  -11.7560   17.4426 H   0  0  0  0  0  0
  -29.6829  -13.4702   17.7740 H   0  0  0  0  0  0
  -27.8214  -11.3090   18.8189 H   0  0  0  0  0  0
  -27.3736  -12.6388   17.7855 H   0  0  0  0  0  0
  -27.6966  -14.2535   19.5628 H   0  0  0  0  0  0
  -28.6668  -11.9919   21.3757 H   0  0  0  0  0  0
  -28.4759  -13.6532   21.8551 H   0  0  0  0  0  0
  -25.2751   -9.5685   22.4758 H   0  0  0  0  0  0
  -24.0004   -7.4627   22.7458 H   0  0  0  0  0  0
  -21.0831   -8.8773   19.8950 H   0  0  0  0  0  0
  -22.3680  -10.9678   19.6168 H   0  0  0  0  0  0
  -21.2009   -7.6152   23.9730 H   0  0  0  0  0  0
  -21.1484   -6.0525   25.9088 H   0  0  0  0  0  0
  -22.0592   -2.7614   23.2847 H   0  0  0  0  0  0
  -22.4081  -11.9924   22.4831 H   0  0  0  0  0  0
  -21.1092  -13.1293   22.2573 H   0  0  0  0  0  0
  -24.6598  -15.8419   20.5155 H   0  0  0  0  0  0
  -26.2800  -15.6308   20.0843 H   0  0  0  0  0  0
  -26.7107  -32.5555   23.1175 H   0  0  0  0  0  0
  -25.0040  -33.9798   25.0478 H   0  0  0  0  0  0
  -22.6896  -31.3103   21.4144 H   0  0  0  0  0  0
  -23.3741  -35.9660   23.3314 H   0  0  0  0  0  0
  -24.3580  -36.8921   22.2048 H   0  0  0  0  0  0
  -23.7241  -37.6531   23.6641 H   0  0  0  0  0  0
  -26.0378  -31.6081   20.5953 H   0  0  0  0  0  0
  -26.8187  -30.8937   21.9789 H   0  0  0  0  0  0
  -28.1000  -29.1078   21.1686 H   0  0  0  0  0  0
  -26.0560  -25.9866   19.0032 H   0  0  0  0  0  0
  -23.9767  -27.3072   19.0245 H   0  0  0  0  0  0
  -23.7162  -30.6081   19.4068 H   0  0  0  0  0  0
  -22.7339  -29.2500   19.8673 H   0  0  0  0  0  0
  -25.1281  -36.1991   25.0827 H   0  0  0  0  0  0
  -20.9944  -28.3231   24.1438 H   0  0  0  0  0  0
  -20.5657  -26.2275   23.3599 H   0  0  0  0  0  0
  -21.6637  -26.7445   22.1216 H   0  0  0  0  0  0
  -19.6913  -25.6298   21.1233 H   0  0  0  0  0  0
  -19.6693  -27.3197   20.6738 H   0  0  0  0  0  0
  -17.4192  -26.6661   21.4025 H   0  0  0  0  0  0
  -18.0335  -26.0062   22.9011 H   0  0  0  0  0  0
  -19.7926  -30.7242   24.2303 H   0  0  0  0  0  0
  -17.5015  -31.6268   24.5160 H   0  0  0  0  0  0
  -15.5350  -30.3007   23.7633 H   0  0  0  0  0  0
  -15.8656  -28.0831   22.7064 H   0  0  0  0  0  0
  -24.5904  -30.7067   25.7813 H   0  0  0  0  0  0
  -24.8938  -32.2873   26.4933 H   0  0  0  0  0  0
  -25.8094  -30.8874   27.0227 H   0  0  0  0  0  0
  -26.2827  -29.6830   24.1127 H   0  0  0  0  0  0
  -27.4054  -29.7271   25.4530 H   0  0  0  0  0  0
  -27.8662  -30.4378   23.9229 H   0  0  0  0  0  0
  -27.2673  -33.3607   26.2091 H   0  0  0  0  0  0
  -28.3842  -32.6895   25.0303 H   0  0  0  0  0  0
  -28.0727  -31.8423   26.5377 H   0  0  0  0  0  0
  -28.2607  -38.0104   24.7501 H   0  0  0  0  0  0
  -28.1066  -36.2637   24.6298 H   0  0  0  0  0  0
  -27.2299  -37.1473   25.8866 H   0  0  0  0  0  0
  -20.9283  -29.8775   21.6965 H   0  0  0  0  0  0
  -26.0188  -38.2880   24.1403 H   0  0  0  0  0  0
  -31.0438  -18.3325   17.2624 H   0  0  0  0  0  0
  -30.3222  -20.3409   18.4445 H   0  0  0  0  0  0
  -30.8859  -16.1238   18.3014 H   0  0  0  0  0  0
  -29.2527  -17.9234   21.8848 H   0  0  0  0  0  0
  -30.9300  -24.5858   19.6018 H   0  0  0  0  0  0
  -30.5864  -24.4364   21.3106 H   0  0  0  0  0  0
  -31.2126  -22.2510   21.2002 H   0  0  0  0  0  0
  -31.2152  -22.2429   19.4452 H   0  0  0  0  0  0
  -27.3141  -22.5666   20.2853 H   0  0  0  0  0  0
  -28.2333  -22.9041   21.7452 H   0  0  0  0  0  0
  -28.9622  -23.4334   18.0030 H   0  0  0  0  0  0
  -28.8958  -25.1761   18.1251 H   0  0  0  0  0  0
  -27.4379  -24.2252   18.3683 H   0  0  0  0  0  0
  -29.7695  -20.6142   22.0012 H   0  0  0  0  0  0
  -28.1966  -20.3459   21.3016 H   0  0  0  0  0  0
  -28.5888  -25.4852   21.8120 H   0  0  0  0  0  0
  -27.1219  -25.1715   20.9710 H   0  0  0  0  0  0
  -29.0923  -15.3734   21.3005 H   0  0  0  0  0  0
  -29.1277  -21.5901   19.3392 H   0  0  0  0  0  0
  1 25  1  0  0  0
  1 30  2  0  0  0
  1 84  1  0  0  0
  2  3  1  0  0  0
  2 25  1  0  0  0
  2 86  1  0  0  0
  2 87  1  0  0  0
  3  4  1  0  0  0
  3 88  1  0  0  0
  3 89  1  0  0  0
  4  5  1  0  0  0
  4 90  1  0  0  0
  4 91  1  0  0  0
  5  6  1  0  0  0
  5 26  1  0  0  0
  5 92  1  0  0  0
  6 25  1  0  0  0
  6 93  1  0  0  0
  6 94  1  0  0  0
  7  8  2  0  0  0
  7 26  1  0  0  0
  7 29  1  0  0  0
  8  9  1  0  0  0
  8 22  1  0  0  0
  9 10  1  0  0  0
  9 27  2  0  0  0
 10 11  2  0  0  0
 10 15  1  0  0  0
 11 12  1  0  0  0
 11 95  1  0  0  0
 12 13  2  0  0  0
 12 96  1  0  0  0
 13 14  1  0  0  0
 13 31  1  0  0  0
 14 15  2  0  0  0
 14 97  1  0  0  0
 15 98  1  0  0  0
 16 17  2  0  0  0
 16 21  1  0  0  0
 16 31  1  0  0  0
 17 18  1  0  0  0
 17 99  1  0  0  0
 18 19  2  0  0  0
 18100  1  0  0  0
 19 20  1  0  0  0
 19 24  1  0  0  0
 20 21  2  0  0  0
 20101  1  0  0  0
 21 23  1  0  0  0
 22 28  1  0  0  0
 22 32  2  0  0  0
 26 27  1  0  0  0
 28102  1  0  0  0
 28103  1  0  0  0
 29104  1  0  0  0
 29105  1  0  0  0
 33 34  1  0  0  0
 33 66  1  0  0  0
 33 70  2  0  0  0
 34 36  1  0  0  0
 34 59  1  0  0  0
 34106  1  0  0  0
 35 44  2  0  0  0
 35 45  1  0  0  0
 35 68  1  0  0  0
 36 56  1  0  0  0
 36107  1  0  0  0
 37 39  1  0  0  0
 37 47  1  0  0  0
 37 66  1  0  0  0
 37108  1  0  0  0
 38 43  2  0  0  0
 38 46  1  0  0  0
 38 47  1  0  0  0
 39 64  1  0  0  0
 39 67  2  0  0  0
 40 52  1  0  0  0
 40 53  2  0  0  0
 40 58  1  0  0  0
 41109  1  0  0  0
 41110  1  0  0  0
 41111  1  0  0  0
 41 48  1  0  0  0
 42 43  1  0  0  0
 42 66  1  0  0  0
 42112  1  0  0  0
 42113  1  0  0  0
 43 44  1  0  0  0
 44114  1  0  0  0
 45 46  2  0  0  0
 45115  1  0  0  0
 46116  1  0  0  0
 47117  1  0  0  0
 47118  1  0  0  0
 48 56  1  0  0  0
 48 65  1  0  0  0
 48119  1  0  0  0
 49 50  1  0  0  0
 49 53  1  0  0  0
 49 64  1  0  0  0
 49120  1  0  0  0
 50 51  1  0  0  0
 50121  1  0  0  0
 50122  1  0  0  0
 51 52  1  0  0  0
 51123  1  0  0  0
 51124  1  0  0  0
 52125  1  0  0  0
 52126  1  0  0  0
 53 54  1  0  0  0
 54 55  2  0  0  0
 54127  1  0  0  0
 55 57  1  0  0  0
 55128  1  0  0  0
 56 69  2  0  0  0
 57 58  2  0  0  0
 57129  1  0  0  0
 58130  1  0  0  0
 59 60  1  0  0  0
 59 61  1  0  0  0
 59 62  1  0  0  0
 60131  1  0  0  0
 60132  1  0  0  0
 60133  1  0  0  0
 61134  1  0  0  0
 61135  1  0  0  0
 61136  1  0  0  0
 62137  1  0  0  0
 62138  1  0  0  0
 62139  1  0  0  0
 63 65  1  0  0  0
 63140  1  0  0  0
 63141  1  0  0  0
 63142  1  0  0  0
 64143  1  0  0  0
 65144  1  0  0  0
 68 83  1  0  0  0
 71 72  2  0  0  0
 71 73  1  0  0  0
 71145  1  0  0  0
 72 75  1  0  0  0
 72146  1  0  0  0
 73 76  2  0  0  0
 73147  1  0  0  0
 74 75  2  0  0  0
 74 76  1  0  0  0
 74148  1  0  0  0
 75 82  1  0  0  0
 76 84  1  0  0  0
 77 78  1  0  0  0
 77 80  1  0  0  0
 77149  1  0  0  0
 77150  1  0  0  0
 78 85  1  0  0  0
 78151  1  0  0  0
 78152  1  0  0  0
 79 80  1  0  0  0
 79 85  1  0  0  0
 79153  1  0  0  0
 79154  1  0  0  0
 80 81  1  0  0  0
 80 83  1  0  0  0
 81155  1  0  0  0
 81156  1  0  0  0
 81157  1  0  0  0
 82158  1  0  0  0
 82159  1  0  0  0
 82 85  1  0  0  0
 83160  1  0  0  0
 83161  1  0  0  0
 84162  1  0  0  0
 85163  1  0  0  0
M  CHG  1  85   1
M  ISO  4   1 100  68 101  83 101  84 100
M  END
> <chiral flag>
0

> <version>
0

> <s_m_source_file>
/data/baiqing/PycharmProjects/Reinvent-master-3.2/result/LINK_invent/BTK/process_docking_weight1_custom_product_contain_oxygen_bond_distance_aromatic_linkinvent_7_9_3/rearranged_h_0146.sdf

> <i_m_source_file_index>
39

> <r_mmod_Potential_Energy-OPLS-2005>
-56.1825752258301

> <r_mmod_Stretch_Energy-OPLS-2005>
39.3246574401855

> <r_mmod_Bend_Energy-OPLS-2005>
116.983245849609

> <r_mmod_Torsional_Energy-OPLS-2005>
328.183471679688

> <r_mmod_Improper_Torsional_Energy-OPLS-2005>
5.58058738708496

> <r_mmod_Van_der_Waal_Energy-OPLS-2005>
155.135055541992

> <r_mmod_Electrostatic_Energy-OPLS-2005>
-270.733276367188

> <r_mmod_Solvation_Energy-OPLS-2005>
-447.713073730469

> <b_mmod_Minimization_Converged-OPLS-2005>
0

> <r_mmod_RMS_Derivative-OPLS-2005>
1.27849853038788

$$$$
39
                    3D
 Structure written by MMmdl.
163171  0  0  1  0            999 V2000
  -29.4606  -17.3731   20.5848 C   0  0  0  0  0  0
  -30.1418  -14.4948   19.6390 C   0  0  0  0  0  0
  -29.6070  -13.3828   18.5794 C   0  0  0  0  0  0
  -28.3402  -12.6334   18.9976 C   0  0  0  0  0  0
  -27.5551  -13.6058   19.8815 C   0  0  2  0  0  0
  -28.3699  -14.5274   20.9171 C   0  0  0  0  0  0
  -25.1781  -13.8799   20.6043 C   0  0  0  0  0  0
  -24.1527  -13.0490   20.9331 C   0  0  0  0  0  0
  -24.6722  -11.7179   20.8663 C   0  0  0  0  0  0
  -23.9491  -10.4368   21.0220 C   0  0  0  0  0  0
  -24.3898   -9.4276   21.9074 C   0  0  0  0  0  0
  -23.6472   -8.2351   22.0727 C   0  0  0  0  0  0
  -22.4433   -8.0381   21.3540 C   0  0  0  0  0  0
  -22.0142   -9.0365   20.4611 C   0  0  0  0  0  0
  -22.7585  -10.2187   20.2944 C   0  0  0  0  0  0
  -21.6922   -6.0812   22.5287 C   0  0  0  0  0  0
  -21.4070   -6.5689   23.8227 C   0  0  0  0  0  0
  -21.3680   -5.6822   24.9174 C   0  0  0  0  0  0
  -21.6043   -4.3084   24.7209 C   0  0  0  0  0  0
  -21.8806   -3.8192   23.4322 C   0  0  0  0  0  0
  -21.9210   -4.7026   22.3391 C   0  0  0  0  0  0
  -22.7434  -13.4905   21.1925 C   0  0  0  0  0  0
  -22.1664   -4.2209   21.0966 F   0  0  0  0  0  0
  -21.5617   -3.4554   25.7712 F   0  0  0  0  0  0
  -29.1937  -15.7154   20.2820 N   0  0  0  0  0  0
  -26.2749  -13.0829   20.3742 N   0  0  0  0  0  0
  -25.9816  -11.7556   20.5644 N   0  0  0  0  0  0
  -22.0262  -12.7795   22.0529 N   0  0  0  0  0  0
  -25.2529  -15.2612   20.4462 N   0  0  0  0  0  0
  -30.7196  -17.0519   20.6030 O   0  0  0  0  0  0
  -21.6737   -6.8997   21.4269 O   0  0  0  0  0  0
  -22.2932  -14.5144   20.6776 O   0  0  0  0  0  0
  -25.0046  -31.7812   23.2129 C   0  0  0  0  0  0
  -26.1405  -32.5086   23.8995 C   0  0  1  0  0  0
  -25.7582  -25.5512   19.9980 C   0  0  0  0  0  0
  -25.7107  -33.8677   24.2526 N   0  0  0  0  0  0
  -24.2504  -30.0853   21.7715 C   0  0  2  0  0  0
  -25.4131  -29.1810   19.5040 C   0  0  0  0  0  0
  -24.0033  -28.5872   22.7385 C   0  0  0  0  0  0
  -18.1360  -27.9202   22.6740 C   0  0  0  0  0  0
  -24.1571  -36.7406   23.2500 C   0  0  0  0  0  0
  -26.6331  -30.3870   21.5530 C   0  0  0  0  0  0
  -26.6768  -29.0310   20.6193 C   0  0  0  0  0  0
  -27.3191  -27.3722   21.0545 C   0  0  0  0  0  0
  -24.7160  -26.2694   18.8459 C   0  0  0  0  0  0
  -24.6428  -27.9579   18.5657 C   0  0  0  0  0  0
  -24.4126  -30.2234   20.1128 C   0  0  0  0  0  0
  -25.4123  -36.3112   24.0333 C   0  0  1  0  0  0
  -20.8044  -27.3653   22.8770 C   0  0  2  0  0  0
  -20.4635  -26.1179   22.2178 C   0  0  0  0  0  0
  -19.4113  -26.4071   21.2024 C   0  0  0  0  0  0
  -18.1085  -26.5908   21.9720 C   0  0  0  0  0  0
  -19.4069  -28.4220   23.1070 C   0  0  0  0  0  0
  -19.1340  -29.6162   23.9299 C   0  0  0  0  0  0
  -17.9090  -30.3285   24.0692 C   0  0  0  0  0  0
  -25.9328  -34.9544   23.5071 C   0  0  0  0  0  0
  -16.7484  -29.7794   23.5270 C   0  0  0  0  0  0
  -16.8740  -28.5513   22.8669 C   0  0  0  0  0  0
  -26.5976  -31.7205   25.1782 C   0  0  0  0  0  0
  -25.4972  -31.4776   26.2581 C   0  0  0  0  0  0
  -27.2607  -30.3752   24.8189 C   0  0  0  0  0  0
  -27.7410  -32.5053   25.8439 C   0  0  0  0  0  0
  -27.5627  -37.1997   24.8436 C   0  0  0  0  0  0
  -22.5597  -27.4354   22.5735 N   0  0  0  0  0  0
  -26.4199  -37.3884   23.9571 N   0  0  0  0  0  0
  -25.3234  -30.8358   22.2423 N   0  0  0  0  0  0
  -24.8940  -28.4795   23.5001 O   0  0  0  0  0  0
  -24.5335  -25.2431   21.2908 O   0  0  0  0  0  0
  -26.5428  -34.8984   22.4364 O   0  0  0  0  0  0
  -23.8518  -32.0875   23.6081 O   0  0  0  0  0  0
  -27.9300  -26.0335   19.0066 C   0  0  0  0  0  0
  -28.1404  -24.7075   19.9226 C   0  0  0  0  0  0
  -26.8076  -27.2208   18.9753 C   0  0  0  0  0  0
  -26.5109  -25.4873   22.0738 C   0  0  0  0  0  0
  -27.4942  -23.9379   21.1797 C   0  0  0  0  0  0
  -25.1559  -27.3073   20.9517 C   0  0  0  0  0  0
  -21.9845  -29.3365   23.9066 C   0  0  0  0  0  0
  -23.8934  -28.1273   25.9103 C   0  0  0  0  0  0
  -22.0305  -26.6435   25.6841 C   0  0  0  0  0  0
  -28.1849  -21.4942   21.2478 C   0  0  0  0  0  0
  -21.9628  -29.3044   21.5686 C   0  0  0  0  0  0
  -24.1095  -25.8921   23.3094 C   0  0  0  0  0  0
  -22.9659  -27.5116   24.7726 C   0  0  0  0  0  0
  -23.3346  -28.0001   20.5464 N   0  0  0  0  0  0
  -28.6502  -19.1891   20.7132 N   0  0  0  0  0  0
  -21.9372  -30.3500   24.5922 O   0  0  0  0  0  0
  -30.9093  -15.0368   19.0797 H   0  0  0  0  0  0
  -30.7334  -14.0365   20.4352 H   0  0  0  0  0  0
  -30.4169  -12.6907   18.3333 H   0  0  0  0  0  0
  -29.3971  -13.9410   17.6669 H   0  0  0  0  0  0
  -28.6074  -11.7409   19.5590 H   0  0  0  0  0  0
  -27.7655  -12.3341   18.1213 H   0  0  0  0  0  0
  -27.2417  -14.3444   19.1408 H   0  0  0  0  0  0
  -28.9479  -13.9420   21.6349 H   0  0  0  0  0  0
  -27.6503  -15.0498   21.5436 H   0  0  0  0  0  0
  -25.3045   -9.5719   22.4647 H   0  0  0  0  0  0
  -24.0155   -7.4760   22.7480 H   0  0  0  0  0  0
  -21.1066   -8.8932   19.8917 H   0  0  0  0  0  0
  -22.4069  -10.9696   19.6009 H   0  0  0  0  0  0
  -21.2090   -7.6199   23.9750 H   0  0  0  0  0  0
  -21.1511   -6.0545   25.9081 H   0  0  0  0  0  0
  -22.0555   -2.7651   23.2808 H   0  0  0  0  0  0
  -22.4087  -11.9579   22.4982 H   0  0  0  0  0  0
  -21.0782  -13.0539   22.2696 H   0  0  0  0  0  0
  -24.4159  -15.8307   20.5225 H   0  0  0  0  0  0
  -26.0664  -15.7862   20.1592 H   0  0  0  0  0  0
  -26.9786  -32.5940   23.2136 H   0  0  0  0  0  0
  -25.2063  -33.9795   25.1156 H   0  0  0  0  0  0
  -23.4827  -30.8407   21.8613 H   0  0  0  0  0  0
  -23.3769  -35.9771   23.2732 H   0  0  0  0  0  0
  -24.3792  -36.9517   22.2036 H   0  0  0  0  0  0
  -23.7276  -37.6486   23.6669 H   0  0  0  0  0  0
  -27.0136  -31.2324   20.9655 H   0  0  0  0  0  0
  -27.3996  -30.2003   22.2788 H   0  0  0  0  0  0
  -28.0347  -27.2747   21.8636 H   0  0  0  0  0  0
  -23.9897  -25.6259   18.3575 H   0  0  0  0  0  0
  -23.8524  -28.2743   17.9027 H   0  0  0  0  0  0
  -24.7748  -31.2249   19.8464 H   0  0  0  0  0  0
  -23.4636  -30.2140   19.5833 H   0  0  0  0  0  0
  -25.1129  -36.1904   25.0790 H   0  0  0  0  0  0
  -20.6087  -27.0407   23.8655 H   0  0  0  0  0  0
  -20.0524  -25.3941   22.9275 H   0  0  0  0  0  0
  -21.3153  -25.5807   21.8049 H   0  0  0  0  0  0
  -19.3372  -25.5769   20.4936 H   0  0  0  0  0  0
  -19.6637  -27.2981   20.6209 H   0  0  0  0  0  0
  -17.2551  -26.5196   21.2981 H   0  0  0  0  0  0
  -17.9478  -25.7716   22.6826 H   0  0  0  0  0  0
  -19.7872  -29.9966   24.6789 H   0  0  0  0  0  0
  -17.8469  -31.2125   24.6900 H   0  0  0  0  0  0
  -15.7755  -30.2430   23.6416 H   0  0  0  0  0  0
  -15.9768  -28.0752   22.5019 H   0  0  0  0  0  0
  -25.4748  -30.4431   26.6128 H   0  0  0  0  0  0
  -24.4934  -31.6940   25.9199 H   0  0  0  0  0  0
  -25.6447  -32.1427   27.1209 H   0  0  0  0  0  0
  -26.5980  -29.6501   24.3903 H   0  0  0  0  0  0
  -27.6645  -29.9002   25.7149 H   0  0  0  0  0  0
  -28.1167  -30.5284   24.1613 H   0  0  0  0  0  0
  -27.4286  -33.4857   26.1994 H   0  0  0  0  0  0
  -28.5760  -32.6716   25.1569 H   0  0  0  0  0  0
  -28.1200  -31.9710   26.7204 H   0  0  0  0  0  0
  -28.2196  -38.0702   24.7747 H   0  0  0  0  0  0
  -28.1434  -36.3190   24.5607 H   0  0  0  0  0  0
  -27.2451  -37.1036   25.8843 H   0  0  0  0  0  0
  -22.6749  -27.3665   21.5360 H   0  0  0  0  0  0
  -25.9901  -38.2842   24.1598 H   0  0  0  0  0  0
  -28.6448  -26.1383   18.2035 H   0  0  0  0  0  0
  -28.9287  -24.1118   19.4733 H   0  0  0  0  0  0
  -26.8670  -27.8251   18.0666 H   0  0  0  0  0  0
  -26.2914  -25.0188   23.0034 H   0  0  0  0  0  0
  -24.1549  -29.1275   25.5704 H   0  0  0  0  0  0
  -24.8137  -27.5538   26.0108 H   0  0  0  0  0  0
  -23.4766  -28.2518   26.9239 H   0  0  0  0  0  0
  -22.5971  -25.9311   26.2726 H   0  0  0  0  0  0
  -21.4678  -25.8850   25.1487 H   0  0  0  0  0  0
  -21.3412  -27.2336   26.3033 H   0  0  0  0  0  0
  -27.2177  -21.2100   21.6571 H   0  0  0  0  0  0
  -28.9023  -21.5781   22.0600 H   0  0  0  0  0  0
  -20.9860  -28.9435   21.2644 H   0  0  0  0  0  0
  -21.8614  -30.2857   21.1133 H   0  0  0  0  0  0
  -23.6829  -24.9766   23.7152 H   0  0  0  0  0  0
  -24.9844  -25.9472   23.9363 H   0  0  0  0  0  0
  -23.4208  -28.3033   19.5837 H   0  0  0  0  0  0
  -27.8091  -18.9790   20.1781 H   0  0  0  0  0  0
  1 25  1  0  0  0
  1 30  2  0  0  0
  1 85  1  0  0  0
  2  3  1  0  0  0
  2 25  1  0  0  0
  2 87  1  0  0  0
  2 88  1  0  0  0
  3  4  1  0  0  0
  3 89  1  0  0  0
  3 90  1  0  0  0
  4  5  1  0  0  0
  4 91  1  0  0  0
  4 92  1  0  0  0
  5  6  1  0  0  0
  5 26  1  0  0  0
  5 93  1  0  0  0
  6 25  1  0  0  0
  6 94  1  0  0  0
  6 95  1  0  0  0
  7  8  2  0  0  0
  7 26  1  0  0  0
  7 29  1  0  0  0
  8  9  1  0  0  0
  8 22  1  0  0  0
  9 10  1  0  0  0
  9 27  2  0  0  0
 10 11  2  0  0  0
 10 15  1  0  0  0
 11 12  1  0  0  0
 11 96  1  0  0  0
 12 13  2  0  0  0
 12 97  1  0  0  0
 13 14  1  0  0  0
 13 31  1  0  0  0
 14 15  2  0  0  0
 14 98  1  0  0  0
 15 99  1  0  0  0
 16 17  2  0  0  0
 16 21  1  0  0  0
 16 31  1  0  0  0
 17 18  1  0  0  0
 17100  1  0  0  0
 18 19  2  0  0  0
 18101  1  0  0  0
 19 20  1  0  0  0
 19 24  1  0  0  0
 20 21  2  0  0  0
 20102  1  0  0  0
 21 23  1  0  0  0
 22 28  1  0  0  0
 22 32  2  0  0  0
 26 27  1  0  0  0
 28103  1  0  0  0
 28104  1  0  0  0
 29105  1  0  0  0
 29106  1  0  0  0
 33 34  1  0  0  0
 33 66  1  0  0  0
 33 70  2  0  0  0
 34 36  1  0  0  0
 34 59  1  0  0  0
 34107  1  0  0  0
 35 44  2  0  0  0
 35 45  1  0  0  0
 35 68  1  0  0  0
 36 56  1  0  0  0
 36108  1  0  0  0
 37 39  1  0  0  0
 37 47  1  0  0  0
 37 66  1  0  0  0
 37109  1  0  0  0
 38 43  2  0  0  0
 38 46  1  0  0  0
 38 47  1  0  0  0
 39 64  1  0  0  0
 39 67  2  0  0  0
 40 52  1  0  0  0
 40 53  2  0  0  0
 40 58  1  0  0  0
 41110  1  0  0  0
 41111  1  0  0  0
 41112  1  0  0  0
 41 48  1  0  0  0
 42 43  1  0  0  0
 42 66  1  0  0  0
 42113  1  0  0  0
 42114  1  0  0  0
 43 44  1  0  0  0
 44115  1  0  0  0
 45 46  2  0  0  0
 45116  1  0  0  0
 46117  1  0  0  0
 47118  1  0  0  0
 47119  1  0  0  0
 48 56  1  0  0  0
 48 65  1  0  0  0
 48120  1  0  0  0
 49 50  1  0  0  0
 49 53  1  0  0  0
 49 64  1  0  0  0
 49121  1  0  0  0
 50 51  1  0  0  0
 50122  1  0  0  0
 50123  1  0  0  0
 51 52  1  0  0  0
 51124  1  0  0  0
 51125  1  0  0  0
 52126  1  0  0  0
 52127  1  0  0  0
 53 54  1  0  0  0
 54 55  2  0  0  0
 54128  1  0  0  0
 55 57  1  0  0  0
 55129  1  0  0  0
 56 69  2  0  0  0
 57 58  2  0  0  0
 57130  1  0  0  0
 58131  1  0  0  0
 59 60  1  0  0  0
 59 61  1  0  0  0
 59 62  1  0  0  0
 60132  1  0  0  0
 60133  1  0  0  0
 60134  1  0  0  0
 61135  1  0  0  0
 61136  1  0  0  0
 61137  1  0  0  0
 62138  1  0  0  0
 62139  1  0  0  0
 62140  1  0  0  0
 63 65  1  0  0  0
 63141  1  0  0  0
 63142  1  0  0  0
 63143  1  0  0  0
 64144  1  0  0  0
 65145  1  0  0  0
 68 82  1  0  0  0
 71 72  2  0  0  0
 71 73  1  0  0  0
 71146  1  0  0  0
 72 75  1  0  0  0
 72147  1  0  0  0
 73 76  2  0  0  0
 73148  1  0  0  0
 74 75  2  0  0  0
 74 76  1  0  0  0
 74149  1  0  0  0
 75 80  1  0  0  0
 76 84  1  0  0  0
 77 81  1  0  0  0
 77 83  1  0  0  0
 77 86  2  0  0  0
 78150  1  0  0  0
 78151  1  0  0  0
 78152  1  0  0  0
 78 83  1  0  0  0
 79 83  1  0  0  0
 79153  1  0  0  0
 79154  1  0  0  0
 79155  1  0  0  0
 80 85  1  0  0  0
 80156  1  0  0  0
 80157  1  0  0  0
 81 84  1  0  0  0
 81158  1  0  0  0
 81159  1  0  0  0
 82 83  1  0  0  0
 82160  1  0  0  0
 82161  1  0  0  0
 84162  1  0  0  0
 85163  1  0  0  0
M  ISO  4   1 100  68 101  82 101  85 100
M  END
> <chiral flag>
0

> <version>
0

> <s_m_source_file>
/data/baiqing/PycharmProjects/Reinvent-master-3.2/result/LINK_invent/BTK/process_docking_weight1_custom_product_contain_oxygen_bond_distance_aromatic_linkinvent_7_9_3/rearranged_h_0146.sdf

> <i_m_source_file_index>
40

> <r_mmod_Potential_Energy-OPLS-2005>
38144.8671875

> <r_mmod_Stretch_Energy-OPLS-2005>
20616.09375

> <r_mmod_Bend_Energy-OPLS-2005>
2131.8134765625

> <r_mmod_Torsional_Energy-OPLS-2005>
710.037719726562

> <r_mmod_Improper_Torsional_Energy-OPLS-2005>
102.227325439453

> <r_mmod_Van_der_Waal_Energy-OPLS-2005>
6898.70849609375

> <r_mmod_Electrostatic_Energy-OPLS-2005>
-413.469696044922

> <r_mmod_Solvation_Energy-OPLS-2005>
-224.226852416992

> <b_mmod_Minimization_Converged-OPLS-2005>
0

> <r_mmod_RMS_Derivative-OPLS-2005>
37.9164237976074

$$$$
40
                    3D
 Structure written by MMmdl.
165174  0  0  1  0            999 V2000
  -30.5902  -14.7343   20.4948 C   0  0  0  0  0  0
  -30.4492  -12.4484   19.4763 C   0  0  0  0  0  0
  -29.5236  -12.5204   18.2401 C   0  0  0  0  0  0
  -28.0460  -12.3465   18.6426 C   0  0  0  0  0  0
  -27.6530  -13.2250   19.8587 C   0  0  2  0  0  0
  -28.6947  -13.1130   20.9958 C   0  0  0  0  0  0
  -25.2542  -13.8202   20.5657 C   0  0  0  0  0  0
  -24.1817  -13.0448   20.9176 C   0  0  0  0  0  0
  -24.6395  -11.6922   20.8711 C   0  0  0  0  0  0
  -23.9076  -10.4304   21.0384 C   0  0  0  0  0  0
  -24.3623   -9.4235   21.9184 C   0  0  0  0  0  0
  -23.6307   -8.2270   22.0759 C   0  0  0  0  0  0
  -22.4295   -8.0298   21.3542 C   0  0  0  0  0  0
  -21.9912   -9.0272   20.4652 C   0  0  0  0  0  0
  -22.7233  -10.2152   20.3057 C   0  0  0  0  0  0
  -21.6869   -6.0743   22.5281 C   0  0  0  0  0  0
  -21.4015   -6.5644   23.8210 C   0  0  0  0  0  0
  -21.3652   -5.6804   24.9171 C   0  0  0  0  0  0
  -21.6040   -4.3064   24.7232 C   0  0  0  0  0  0
  -21.8826   -3.8151   23.4355 C   0  0  0  0  0  0
  -21.9199   -4.6966   22.3405 C   0  0  0  0  0  0
  -22.7841  -13.5238   21.1858 C   0  0  0  0  0  0
  -22.1673   -4.2150   21.0987 F   0  0  0  0  0  0
  -21.5618   -3.4546   25.7742 F   0  0  0  0  0  0
  -30.0060  -13.4850   20.4396 N   0  0  0  0  0  0
  -26.2981  -12.9386   20.3268 N   0  0  0  0  0  0
  -25.9321  -11.6526   20.5700 N   0  0  0  0  0  0
  -22.0511  -12.8224   22.0427 N   0  0  0  0  0  0
  -25.4236  -15.1939   20.4120 N   0  0  0  0  0  0
  -31.7397  -14.8973   20.0734 O   0  0  0  0  0  0
  -21.6665   -6.8889   21.4241 O   0  0  0  0  0  0
  -22.3519  -14.5572   20.6762 O   0  0  0  0  0  0
  -24.6360  -31.8541   23.1973 C   0  0  0  0  0  0
  -25.9171  -32.4738   23.8326 C   0  0  1  0  0  0
  -27.2159  -27.2393   20.1339 C   0  0  0  0  0  0
  -25.5966  -33.8540   24.2248 N   0  0  0  0  0  0
  -23.4313  -30.4768   21.5424 C   0  0  2  0  0  0
  -24.8795  -28.9246   20.1074 C   0  0  0  0  0  0
  -22.7512  -29.4619   22.4930 C   0  0  0  0  0  0
  -18.0304  -28.1393   22.8473 C   0  0  0  0  0  0
  -24.1491  -36.7266   23.2634 C   0  0  0  0  0  0
  -25.9801  -30.7618   21.3786 C   0  0  0  0  0  0
  -26.0532  -29.3826   20.7198 C   0  0  0  0  0  0
  -27.2249  -28.5548   20.7167 C   0  0  0  0  0  0
  -26.0179  -26.8570   19.4869 C   0  0  0  0  0  0
  -24.8689  -27.6719   19.4776 C   0  0  0  0  0  0
  -23.6480  -29.8097   20.1581 C   0  0  0  0  0  0
  -25.4126  -36.3059   24.0320 C   0  0  1  0  0  0
  -20.5894  -28.3734   23.1280 C   0  0  2  0  0  0
  -20.6802  -26.9455   22.5459 C   0  0  0  0  0  0
  -19.5811  -26.6439   21.5239 C   0  0  0  0  0  0
  -18.1996  -26.7931   22.1633 C   0  0  0  0  0  0
  -19.1538  -28.8885   23.2878 C   0  0  0  0  0  0
  -18.9416  -30.1482   23.8873 C   0  0  0  0  0  0
  -17.6401  -30.6565   24.0560 C   0  0  0  0  0  0
  -25.9076  -34.9431   23.5094 C   0  0  0  0  0  0
  -16.5313  -29.9027   23.6329 C   0  0  0  0  0  0
  -16.7275  -28.6458   23.0352 C   0  0  0  0  0  0
  -26.4524  -31.6566   25.0714 C   0  0  0  0  0  0
  -25.3724  -31.3714   26.1408 C   0  0  0  0  0  0
  -27.0386  -30.2997   24.6197 C   0  0  0  0  0  0
  -27.6088  -32.4294   25.7489 C   0  0  0  0  0  0
  -27.5571  -37.1798   24.8471 C   0  0  0  0  0  0
  -21.4230  -29.3033   22.3639 N   0  0  0  0  0  0
  -26.4297  -37.3758   23.9390 N   0  0  0  0  0  0
  -24.7015  -31.0488   22.0956 N   0  0  0  0  0  0
  -23.4188  -28.8196   23.3075 O   0  0  0  0  0  0
  -28.2924  -26.3168   20.2185 O   0  0  0  0  0  0
  -26.5625  -34.8922   22.4644 O   0  0  0  0  0  0
  -23.5516  -32.1387   23.7263 O   0  0  0  0  0  0
  -30.1823  -18.2897   21.0514 C   0  0  0  0  0  0
  -29.3164  -19.4209   20.6930 C   0  0  0  0  0  0
  -28.3081  -18.8191   19.9664 C   0  0  0  0  0  0
  -29.6286  -17.1061   20.5533 C   0  0  0  0  0  0
  -29.0822  -23.7504   20.5057 C   0  0  0  0  0  0
  -30.4252  -21.2714   22.2762 C   0  0  0  0  0  0
  -29.3592  -20.9541   21.2361 C   0  0  1  0  0  0
  -29.0057  -21.0739   22.7411 C   0  0  0  0  0  0
  -27.0201  -19.2841   19.3624 C   0  0  0  0  0  0
  -28.1745  -22.2461   23.2540 C   0  0  0  0  0  0
  -28.6928  -19.8370   23.5813 C   0  0  0  0  0  0
  -29.3909  -21.8818   18.8016 C   0  0  0  0  0  0
  -27.9969  -24.8415   20.0360 C   0  0  0  0  0  0
  -28.8823  -22.1561   20.2311 C   0  0  2  0  0  0
  -29.8110  -15.7772   20.9591 N   0  0  0  0  0  0
  -30.1284  -24.1611   21.0146 O   0  0  0  0  0  0
  -28.4917  -17.4514   19.8839 O   0  0  0  0  0  0
  -31.4869  -12.5956   19.1687 H   0  0  0  0  0  0
  -30.4123  -11.4582   19.9341 H   0  0  0  0  0  0
  -29.8083  -11.7626   17.5071 H   0  0  0  0  0  0
  -29.6557  -13.4843   17.7476 H   0  0  0  0  0  0
  -27.8878  -11.2929   18.8853 H   0  0  0  0  0  0
  -27.4002  -12.5678   17.7931 H   0  0  0  0  0  0
  -27.6629  -14.2573   19.5055 H   0  0  0  0  0  0
  -28.7195  -12.0982   21.3953 H   0  0  0  0  0  0
  -28.4161  -13.7553   21.8321 H   0  0  0  0  0  0
  -25.2763   -9.5729   22.4758 H   0  0  0  0  0  0
  -24.0011   -7.4677   22.7487 H   0  0  0  0  0  0
  -21.0840   -8.8798   19.8984 H   0  0  0  0  0  0
  -22.3683  -10.9691   19.6182 H   0  0  0  0  0  0
  -21.2017   -7.6159   23.9696 H   0  0  0  0  0  0
  -21.1451   -6.0548   25.9069 H   0  0  0  0  0  0
  -22.0606   -2.7614   23.2871 H   0  0  0  0  0  0
  -22.4116  -11.9874   22.4785 H   0  0  0  0  0  0
  -21.1148  -13.1259   22.2677 H   0  0  0  0  0  0
  -24.6537  -15.8424   20.5317 H   0  0  0  0  0  0
  -26.2770  -15.6422   20.0987 H   0  0  0  0  0  0
  -26.7216  -32.5395   23.1057 H   0  0  0  0  0  0
  -25.0151  -33.9666   25.0417 H   0  0  0  0  0  0
  -22.7287  -31.3001   21.3970 H   0  0  0  0  0  0
  -23.3759  -35.9592   23.3330 H   0  0  0  0  0  0
  -24.3581  -36.8852   22.2039 H   0  0  0  0  0  0
  -23.7248  -37.6476   23.6650 H   0  0  0  0  0  0
  -26.1202  -31.5211   20.6090 H   0  0  0  0  0  0
  -26.8589  -30.8128   22.0108 H   0  0  0  0  0  0
  -28.1222  -28.9015   21.2111 H   0  0  0  0  0  0
  -25.9324  -25.8972   18.9993 H   0  0  0  0  0  0
  -23.9717  -27.3189   18.9867 H   0  0  0  0  0  0
  -23.7654  -30.5858   19.4017 H   0  0  0  0  0  0
  -22.7674  -29.2387   19.8562 H   0  0  0  0  0  0
  -25.1307  -36.1906   25.0811 H   0  0  0  0  0  0
  -20.9960  -28.3351   24.1412 H   0  0  0  0  0  0
  -20.5698  -26.2347   23.3658 H   0  0  0  0  0  0
  -21.6664  -26.7470   22.1264 H   0  0  0  0  0  0
  -19.7011  -25.6380   21.1215 H   0  0  0  0  0  0
  -19.6762  -27.3304   20.6822 H   0  0  0  0  0  0
  -17.4256  -26.6586   21.4061 H   0  0  0  0  0  0
  -18.0490  -26.0099   22.9063 H   0  0  0  0  0  0
  -19.7879  -30.7315   24.2227 H   0  0  0  0  0  0
  -17.4907  -31.6231   24.5152 H   0  0  0  0  0  0
  -15.5305  -30.2865   23.7692 H   0  0  0  0  0  0
  -15.8687  -28.0765   22.7060 H   0  0  0  0  0  0
  -24.5922  -30.7044   25.7717 H   0  0  0  0  0  0
  -24.8887  -32.2877   26.4800 H   0  0  0  0  0  0
  -25.8015  -30.8906   27.0201 H   0  0  0  0  0  0
  -26.2989  -29.6742   24.1194 H   0  0  0  0  0  0
  -27.4051  -29.7260   25.4713 H   0  0  0  0  0  0
  -27.8863  -30.4287   23.9471 H   0  0  0  0  0  0
  -27.2719  -33.3600   26.2065 H   0  0  0  0  0  0
  -28.3912  -32.6826   25.0322 H   0  0  0  0  0  0
  -28.0751  -31.8405   26.5395 H   0  0  0  0  0  0
  -28.2619  -38.0066   24.7482 H   0  0  0  0  0  0
  -28.1033  -36.2594   24.6350 H   0  0  0  0  0  0
  -27.2279  -37.1510   25.8872 H   0  0  0  0  0  0
  -20.9443  -29.8548   21.6656 H   0  0  0  0  0  0
  -26.0181  -38.2834   24.1369 H   0  0  0  0  0  0
  -31.0440  -18.3213   21.7031 H   0  0  0  0  0  0
  -30.8306  -22.2742   22.3552 H   0  0  0  0  0  0
  -31.1455  -20.4990   22.5400 H   0  0  0  0  0  0
  -26.8573  -20.3500   19.4976 H   0  0  0  0  0  0
  -26.1763  -18.7696   19.8222 H   0  0  0  0  0  0
  -26.9870  -19.0750   18.2927 H   0  0  0  0  0  0
  -28.7145  -23.1864   23.1624 H   0  0  0  0  0  0
  -27.9292  -22.1361   24.3110 H   0  0  0  0  0  0
  -27.2366  -22.3141   22.7024 H   0  0  0  0  0  0
  -27.7533  -19.3864   23.2608 H   0  0  0  0  0  0
  -28.6190  -20.0796   24.6417 H   0  0  0  0  0  0
  -29.4783  -19.0867   23.4965 H   0  0  0  0  0  0
  -29.1179  -22.6789   18.1092 H   0  0  0  0  0  0
  -28.9797  -20.9642   18.3861 H   0  0  0  0  0  0
  -30.4769  -21.7900   18.7865 H   0  0  0  0  0  0
  -27.0662  -24.6001   20.5510 H   0  0  0  0  0  0
  -27.8124  -24.6612   18.9771 H   0  0  0  0  0  0
  -27.7991  -22.0661   20.1989 H   0  0  0  0  0  0
  -28.9608  -15.3883   21.3361 H   0  0  0  0  0  0
  1 25  1  0  0  0
  1 30  2  0  0  0
  1 85  1  0  0  0
  2  3  1  0  0  0
  2 25  1  0  0  0
  2 88  1  0  0  0
  2 89  1  0  0  0
  3  4  1  0  0  0
  3 90  1  0  0  0
  3 91  1  0  0  0
  4  5  1  0  0  0
  4 92  1  0  0  0
  4 93  1  0  0  0
  5  6  1  0  0  0
  5 26  1  0  0  0
  5 94  1  0  0  0
  6 25  1  0  0  0
  6 95  1  0  0  0
  6 96  1  0  0  0
  7  8  2  0  0  0
  7 26  1  0  0  0
  7 29  1  0  0  0
  8  9  1  0  0  0
  8 22  1  0  0  0
  9 10  1  0  0  0
  9 27  2  0  0  0
 10 11  2  0  0  0
 10 15  1  0  0  0
 11 12  1  0  0  0
 11 97  1  0  0  0
 12 13  2  0  0  0
 12 98  1  0  0  0
 13 14  1  0  0  0
 13 31  1  0  0  0
 14 15  2  0  0  0
 14 99  1  0  0  0
 15100  1  0  0  0
 16 17  2  0  0  0
 16 21  1  0  0  0
 16 31  1  0  0  0
 17 18  1  0  0  0
 17101  1  0  0  0
 18 19  2  0  0  0
 18102  1  0  0  0
 19 20  1  0  0  0
 19 24  1  0  0  0
 20 21  2  0  0  0
 20103  1  0  0  0
 21 23  1  0  0  0
 22 28  1  0  0  0
 22 32  2  0  0  0
 26 27  1  0  0  0
 28104  1  0  0  0
 28105  1  0  0  0
 29106  1  0  0  0
 29107  1  0  0  0
 33 34  1  0  0  0
 33 66  1  0  0  0
 33 70  2  0  0  0
 34 36  1  0  0  0
 34 59  1  0  0  0
 34108  1  0  0  0
 35 44  2  0  0  0
 35 45  1  0  0  0
 35 68  1  0  0  0
 36 56  1  0  0  0
 36109  1  0  0  0
 37 39  1  0  0  0
 37 47  1  0  0  0
 37 66  1  0  0  0
 37110  1  0  0  0
 38 43  2  0  0  0
 38 46  1  0  0  0
 38 47  1  0  0  0
 39 64  1  0  0  0
 39 67  2  0  0  0
 40 52  1  0  0  0
 40 53  2  0  0  0
 40 58  1  0  0  0
 41111  1  0  0  0
 41112  1  0  0  0
 41113  1  0  0  0
 41 48  1  0  0  0
 42 43  1  0  0  0
 42 66  1  0  0  0
 42114  1  0  0  0
 42115  1  0  0  0
 43 44  1  0  0  0
 44116  1  0  0  0
 45 46  2  0  0  0
 45117  1  0  0  0
 46118  1  0  0  0
 47119  1  0  0  0
 47120  1  0  0  0
 48 56  1  0  0  0
 48 65  1  0  0  0
 48121  1  0  0  0
 49 50  1  0  0  0
 49 53  1  0  0  0
 49 64  1  0  0  0
 49122  1  0  0  0
 50 51  1  0  0  0
 50123  1  0  0  0
 50124  1  0  0  0
 51 52  1  0  0  0
 51125  1  0  0  0
 51126  1  0  0  0
 52127  1  0  0  0
 52128  1  0  0  0
 53 54  1  0  0  0
 54 55  2  0  0  0
 54129  1  0  0  0
 55 57  1  0  0  0
 55130  1  0  0  0
 56 69  2  0  0  0
 57 58  2  0  0  0
 57131  1  0  0  0
 58132  1  0  0  0
 59 60  1  0  0  0
 59 61  1  0  0  0
 59 62  1  0  0  0
 60133  1  0  0  0
 60134  1  0  0  0
 60135  1  0  0  0
 61136  1  0  0  0
 61137  1  0  0  0
 61138  1  0  0  0
 62139  1  0  0  0
 62140  1  0  0  0
 62141  1  0  0  0
 63 65  1  0  0  0
 63142  1  0  0  0
 63143  1  0  0  0
 63144  1  0  0  0
 64145  1  0  0  0
 65146  1  0  0  0
 68 83  1  0  0  0
 71 72  1  0  0  0
 71 74  2  0  0  0
 71147  1  0  0  0
 72 73  2  0  0  0
 72 77  1  0  0  0
 73 79  1  0  0  0
 73 87  1  0  0  0
 74 85  1  0  0  0
 74 87  1  0  0  0
 75 83  1  0  0  0
 75 84  1  0  0  0
 75 86  2  0  0  0
 76 77  1  0  0  0
 76 78  1  0  0  0
 76148  1  0  0  0
 76149  1  0  0  0
 77 78  1  0  0  0
 77 84  1  0  0  0
 78 80  1  0  0  0
 78 81  1  0  0  0
 79150  1  0  0  0
 79151  1  0  0  0
 79152  1  0  0  0
 80153  1  0  0  0
 80154  1  0  0  0
 80155  1  0  0  0
 81156  1  0  0  0
 81157  1  0  0  0
 81158  1  0  0  0
 82159  1  0  0  0
 82160  1  0  0  0
 82161  1  0  0  0
 82 84  1  0  0  0
 83162  1  0  0  0
 83163  1  0  0  0
 84164  1  0  0  0
 85165  1  0  0  0
M  ISO  4   1 100  68 101  83 101  85 100
M  END
> <chiral flag>
0

> <version>
0

> <s_m_source_file>
/data/baiqing/PycharmProjects/Reinvent-master-3.2/result/LINK_invent/BTK/process_docking_weight1_custom_product_contain_oxygen_bond_distance_aromatic_linkinvent_7_9_3/rearranged_h_0146.sdf

> <i_m_source_file_index>
41

> <r_mmod_Potential_Energy-OPLS-2005>
264.077270507812

> <r_mmod_Stretch_Energy-OPLS-2005>
145.027359008789

> <r_mmod_Bend_Energy-OPLS-2005>
190.026229858398

> <r_mmod_Torsional_Energy-OPLS-2005>
300.935424804688

> <r_mmod_Improper_Torsional_Energy-OPLS-2005>
10.9087905883789

> <r_mmod_Van_der_Waal_Energy-OPLS-2005>
121.847793579102

> <r_mmod_Electrostatic_Energy-OPLS-2005>
-374.790954589844

> <r_mmod_Solvation_Energy-OPLS-2005>
-219.503295898438

> <b_mmod_Minimization_Converged-OPLS-2005>
0

> <r_mmod_RMS_Derivative-OPLS-2005>
4.1246166229248

$$$$
41
                    3D
 Structure written by MMmdl.
159168  0  0  1  0            999 V2000
  -30.7449  -14.4700   20.6339 C   0  0  0  0  0  0
  -30.4147  -12.3255   19.4361 C   0  0  0  0  0  0
  -29.4948  -12.5138   18.2117 C   0  0  0  0  0  0
  -28.0156  -12.3660   18.6145 C   0  0  0  0  0  0
  -27.6554  -13.2124   19.8625 C   0  0  2  0  0  0
  -28.6872  -13.0009   20.9873 C   0  0  0  0  0  0
  -25.2559  -13.8180   20.5663 C   0  0  0  0  0  0
  -24.1820  -13.0440   20.9176 C   0  0  0  0  0  0
  -24.6382  -11.6912   20.8714 C   0  0  0  0  0  0
  -23.9055  -10.4293   21.0403 C   0  0  0  0  0  0
  -24.3609   -9.4206   21.9175 C   0  0  0  0  0  0
  -23.6284   -8.2240   22.0739 C   0  0  0  0  0  0
  -22.4267   -8.0278   21.3537 C   0  0  0  0  0  0
  -21.9900   -9.0256   20.4647 C   0  0  0  0  0  0
  -22.7221  -10.2136   20.3056 C   0  0  0  0  0  0
  -21.6857   -6.0743   22.5288 C   0  0  0  0  0  0
  -21.4030   -6.5643   23.8229 C   0  0  0  0  0  0
  -21.3656   -5.6779   24.9179 C   0  0  0  0  0  0
  -21.6037   -4.3043   24.7227 C   0  0  0  0  0  0
  -21.8819   -3.8148   23.4347 C   0  0  0  0  0  0
  -21.9193   -4.6971   22.3409 C   0  0  0  0  0  0
  -22.7842  -13.5236   21.1841 C   0  0  0  0  0  0
  -22.1641   -4.2155   21.0985 F   0  0  0  0  0  0
  -21.5618   -3.4525   25.7742 F   0  0  0  0  0  0
  -30.0281  -13.3160   20.4609 N   0  0  0  0  0  0
  -26.2981  -12.9351   20.3286 N   0  0  0  0  0  0
  -25.9300  -11.6506   20.5704 N   0  0  0  0  0  0
  -22.0469  -12.8232   22.0399 N   0  0  0  0  0  0
  -25.4273  -15.1898   20.4091 N   0  0  0  0  0  0
  -31.8186  -14.6499   20.0476 O   0  0  0  0  0  0
  -21.6629   -6.8881   21.4247 O   0  0  0  0  0  0
  -22.3518  -14.5542   20.6695 O   0  0  0  0  0  0
  -24.6173  -31.8666   23.2092 C   0  0  0  0  0  0
  -25.9058  -32.4817   23.8387 C   0  0  1  0  0  0
  -27.2288  -27.4107   20.1052 C   0  0  0  0  0  0
  -25.5909  -33.8618   24.2322 N   0  0  0  0  0  0
  -23.4067  -30.4907   21.5497 C   0  0  2  0  0  0
  -24.8532  -28.9558   20.1130 C   0  0  0  0  0  0
  -22.7428  -29.4657   22.4981 C   0  0  0  0  0  0
  -18.0283  -28.1378   22.8490 C   0  0  0  0  0  0
  -24.1486  -36.7313   23.2636 C   0  0  0  0  0  0
  -25.9384  -30.8268   21.3642 C   0  0  0  0  0  0
  -26.0164  -29.4602   20.7101 C   0  0  0  0  0  0
  -27.2103  -28.6974   20.6980 C   0  0  0  0  0  0
  -26.0520  -26.9360   19.4856 C   0  0  0  0  0  0
  -24.8685  -27.6952   19.4936 C   0  0  0  0  0  0
  -23.6155  -29.8246   20.1639 C   0  0  0  0  0  0
  -25.4107  -36.3110   24.0333 C   0  0  1  0  0  0
  -20.5873  -28.3671   23.1314 C   0  0  2  0  0  0
  -20.6772  -26.9404   22.5421 C   0  0  0  0  0  0
  -19.5751  -26.6389   21.5217 C   0  0  0  0  0  0
  -18.1926  -26.7927   22.1625 C   0  0  0  0  0  0
  -19.1530  -28.8840   23.2900 C   0  0  0  0  0  0
  -18.9459  -30.1446   23.8908 C   0  0  0  0  0  0
  -17.6457  -30.6581   24.0561 C   0  0  0  0  0  0
  -25.9038  -34.9475   23.5120 C   0  0  0  0  0  0
  -16.5346  -29.9083   23.6324 C   0  0  0  0  0  0
  -16.7272  -28.6502   23.0344 C   0  0  0  0  0  0
  -26.4479  -31.6598   25.0720 C   0  0  0  0  0  0
  -25.3741  -31.3707   26.1462 C   0  0  0  0  0  0
  -27.0304  -30.3037   24.6102 C   0  0  0  0  0  0
  -27.6053  -32.4316   25.7484 C   0  0  0  0  0  0
  -27.5580  -37.1810   24.8466 C   0  0  0  0  0  0
  -21.4151  -29.3034   22.3717 N   0  0  0  0  0  0
  -26.4298  -37.3796   23.9410 N   0  0  0  0  0  0
  -24.6723  -31.0751   22.1001 N   0  0  0  0  0  0
  -23.4189  -28.8192   23.3029 O   0  0  0  0  0  0
  -28.3631  -26.6211   20.1283 O   0  0  0  0  0  0
  -26.5607  -34.8924   22.4684 O   0  0  0  0  0  0
  -23.5361  -32.1425   23.7471 O   0  0  0  0  0  0
  -29.0716  -20.3172   20.9260 C   0  0  0  0  0  0
  -30.8668  -21.7723   20.8015 C   0  0  0  0  0  0
  -29.5056  -21.6625   20.6301 C   0  0  0  0  0  0
  -30.0696  -19.4526   21.3288 C   0  0  0  0  0  0
  -29.0643  -24.2078   20.1339 C   0  0  0  0  0  0
  -28.7296  -16.2529   23.1892 C   0  0  0  0  0  0
  -28.6933  -17.6750   22.5810 C   0  0  0  0  0  0
  -29.9628  -15.4319   22.7526 C   0  0  0  0  0  0
  -30.3078  -16.9019   20.7829 C   0  0  0  0  0  0
  -29.9908  -18.0179   21.8269 C   0  0  1  0  0  0
  -28.5171  -22.7501   20.1816 C   0  0  0  0  0  0
  -28.1549  -25.3129   20.7227 C   0  0  0  0  0  0
  -30.1505  -15.5042   21.2937 N   0  0  0  0  0  0
  -30.1401  -24.4917   19.5923 O   0  0  0  0  0  0
  -31.6047  -20.2780   21.3176 S   0  0  0  0  0  0
  -31.4613  -12.4115   19.1379 H   0  0  0  0  0  0
  -30.3108  -11.3147   19.8347 H   0  0  0  0  0  0
  -29.7467  -11.7864   17.4390 H   0  0  0  0  0  0
  -29.6611  -13.4980   17.7713 H   0  0  0  0  0  0
  -27.8300  -11.3107   18.8157 H   0  0  0  0  0  0
  -27.3663  -12.6287   17.7779 H   0  0  0  0  0  0
  -27.6975  -14.2607   19.5644 H   0  0  0  0  0  0
  -28.6675  -11.9672   21.3361 H   0  0  0  0  0  0
  -28.3903  -13.6006   21.8413 H   0  0  0  0  0  0
  -25.2767   -9.5686   22.4731 H   0  0  0  0  0  0
  -23.9998   -7.4631   22.7446 H   0  0  0  0  0  0
  -21.0827   -8.8785   19.8966 H   0  0  0  0  0  0
  -22.3678  -10.9680   19.6172 H   0  0  0  0  0  0
  -21.2027   -7.6147   23.9746 H   0  0  0  0  0  0
  -21.1463   -6.0501   25.9081 H   0  0  0  0  0  0
  -22.0599   -2.7612   23.2843 H   0  0  0  0  0  0
  -22.4048  -11.9886   22.4804 H   0  0  0  0  0  0
  -21.1092  -13.1278   22.2592 H   0  0  0  0  0  0
  -24.6640  -15.8473   20.5267 H   0  0  0  0  0  0
  -26.2896  -15.6306   20.1141 H   0  0  0  0  0  0
  -26.7121  -32.5516   23.1142 H   0  0  0  0  0  0
  -25.0060  -33.9778   25.0464 H   0  0  0  0  0  0
  -22.6968  -31.3085   21.4095 H   0  0  0  0  0  0
  -23.3748  -35.9649   23.3320 H   0  0  0  0  0  0
  -24.3579  -36.8914   22.2049 H   0  0  0  0  0  0
  -23.7248  -37.6524   23.6643 H   0  0  0  0  0  0
  -26.0557  -31.5927   20.5956 H   0  0  0  0  0  0
  -26.8255  -30.8786   21.9846 H   0  0  0  0  0  0
  -28.1066  -29.0811   21.1658 H   0  0  0  0  0  0
  -26.0436  -25.9719   18.9960 H   0  0  0  0  0  0
  -23.9771  -27.3051   19.0215 H   0  0  0  0  0  0
  -23.7237  -30.6006   19.4056 H   0  0  0  0  0  0
  -22.7385  -29.2467   19.8675 H   0  0  0  0  0  0
  -25.1287  -36.1971   25.0831 H   0  0  0  0  0  0
  -20.9969  -28.3235   24.1436 H   0  0  0  0  0  0
  -20.5686  -26.2272   23.3608 H   0  0  0  0  0  0
  -21.6636  -26.7448   22.1198 H   0  0  0  0  0  0
  -19.6912  -25.6310   21.1232 H   0  0  0  0  0  0
  -19.6687  -27.3209   20.6759 H   0  0  0  0  0  0
  -17.4197  -26.6685   21.4024 H   0  0  0  0  0  0
  -18.0313  -26.0064   22.9019 H   0  0  0  0  0  0
  -19.7931  -30.7263   24.2276 H   0  0  0  0  0  0
  -17.5012  -31.6264   24.5168 H   0  0  0  0  0  0
  -15.5347  -30.2989   23.7649 H   0  0  0  0  0  0
  -15.8671  -28.0831   22.7047 H   0  0  0  0  0  0
  -24.5917  -30.7047   25.7811 H   0  0  0  0  0  0
  -24.8916  -32.2856   26.4908 H   0  0  0  0  0  0
  -25.8085  -30.8886   27.0226 H   0  0  0  0  0  0
  -26.2845  -29.6806   24.1150 H   0  0  0  0  0  0
  -27.4070  -29.7269   25.4561 H   0  0  0  0  0  0
  -27.8685  -30.4364   23.9256 H   0  0  0  0  0  0
  -27.2674  -33.3610   26.2079 H   0  0  0  0  0  0
  -28.3851  -32.6885   25.0304 H   0  0  0  0  0  0
  -28.0729  -31.8425   26.5385 H   0  0  0  0  0  0
  -28.2608  -38.0098   24.7502 H   0  0  0  0  0  0
  -28.1063  -36.2628   24.6299 H   0  0  0  0  0  0
  -27.2293  -37.1469   25.8869 H   0  0  0  0  0  0
  -20.9309  -29.8754   21.6929 H   0  0  0  0  0  0
  -26.0183  -38.2878   24.1401 H   0  0  0  0  0  0
  -28.0287  -20.0399   20.8578 H   0  0  0  0  0  0
  -31.5007  -22.6400   20.6558 H   0  0  0  0  0  0
  -27.8177  -15.7230   22.9102 H   0  0  0  0  0  0
  -28.7101  -16.3150   24.2786 H   0  0  0  0  0  0
  -28.5157  -18.4054   23.3725 H   0  0  0  0  0  0
  -27.8452  -17.7533   21.9000 H   0  0  0  0  0  0
  -29.8875  -14.4070   23.1189 H   0  0  0  0  0  0
  -30.8615  -15.8161   23.2377 H   0  0  0  0  0  0
  -31.3189  -17.0652   20.4050 H   0  0  0  0  0  0
  -29.6448  -17.0141   19.9237 H   0  0  0  0  0  0
  -30.7807  -17.9525   22.5775 H   0  0  0  0  0  0
  -27.6445  -22.7409   20.8360 H   0  0  0  0  0  0
  -28.1409  -22.5160   19.1854 H   0  0  0  0  0  0
  -28.3617  -25.3858   21.7906 H   0  0  0  0  0  0
  -27.1215  -24.9792   20.6380 H   0  0  0  0  0  0
  1 25  1  0  0  0
  1 30  2  0  0  0
  1 83  1  0  0  0
  2  3  1  0  0  0
  2 25  1  0  0  0
  2 86  1  0  0  0
  2 87  1  0  0  0
  3  4  1  0  0  0
  3 88  1  0  0  0
  3 89  1  0  0  0
  4  5  1  0  0  0
  4 90  1  0  0  0
  4 91  1  0  0  0
  5  6  1  0  0  0
  5 26  1  0  0  0
  5 92  1  0  0  0
  6 25  1  0  0  0
  6 93  1  0  0  0
  6 94  1  0  0  0
  7  8  2  0  0  0
  7 26  1  0  0  0
  7 29  1  0  0  0
  8  9  1  0  0  0
  8 22  1  0  0  0
  9 10  1  0  0  0
  9 27  2  0  0  0
 10 11  2  0  0  0
 10 15  1  0  0  0
 11 12  1  0  0  0
 11 95  1  0  0  0
 12 13  2  0  0  0
 12 96  1  0  0  0
 13 14  1  0  0  0
 13 31  1  0  0  0
 14 15  2  0  0  0
 14 97  1  0  0  0
 15 98  1  0  0  0
 16 17  2  0  0  0
 16 21  1  0  0  0
 16 31  1  0  0  0
 17 18  1  0  0  0
 17 99  1  0  0  0
 18 19  2  0  0  0
 18100  1  0  0  0
 19 20  1  0  0  0
 19 24  1  0  0  0
 20 21  2  0  0  0
 20101  1  0  0  0
 21 23  1  0  0  0
 22 28  1  0  0  0
 22 32  2  0  0  0
 26 27  1  0  0  0
 28102  1  0  0  0
 28103  1  0  0  0
 29104  1  0  0  0
 29105  1  0  0  0
 33 34  1  0  0  0
 33 66  1  0  0  0
 33 70  2  0  0  0
 34 36  1  0  0  0
 34 59  1  0  0  0
 34106  1  0  0  0
 35 44  2  0  0  0
 35 45  1  0  0  0
 35 68  1  0  0  0
 36 56  1  0  0  0
 36107  1  0  0  0
 37 39  1  0  0  0
 37 47  1  0  0  0
 37 66  1  0  0  0
 37108  1  0  0  0
 38 43  2  0  0  0
 38 46  1  0  0  0
 38 47  1  0  0  0
 39 64  1  0  0  0
 39 67  2  0  0  0
 40 52  1  0  0  0
 40 53  2  0  0  0
 40 58  1  0  0  0
 41109  1  0  0  0
 41110  1  0  0  0
 41111  1  0  0  0
 41 48  1  0  0  0
 42 43  1  0  0  0
 42 66  1  0  0  0
 42112  1  0  0  0
 42113  1  0  0  0
 43 44  1  0  0  0
 44114  1  0  0  0
 45 46  2  0  0  0
 45115  1  0  0  0
 46116  1  0  0  0
 47117  1  0  0  0
 47118  1  0  0  0
 48 56  1  0  0  0
 48 65  1  0  0  0
 48119  1  0  0  0
 49 50  1  0  0  0
 49 53  1  0  0  0
 49 64  1  0  0  0
 49120  1  0  0  0
 50 51  1  0  0  0
 50121  1  0  0  0
 50122  1  0  0  0
 51 52  1  0  0  0
 51123  1  0  0  0
 51124  1  0  0  0
 52125  1  0  0  0
 52126  1  0  0  0
 53 54  1  0  0  0
 54 55  2  0  0  0
 54127  1  0  0  0
 55 57  1  0  0  0
 55128  1  0  0  0
 56 69  2  0  0  0
 57 58  2  0  0  0
 57129  1  0  0  0
 58130  1  0  0  0
 59 60  1  0  0  0
 59 61  1  0  0  0
 59 62  1  0  0  0
 60131  1  0  0  0
 60132  1  0  0  0
 60133  1  0  0  0
 61134  1  0  0  0
 61135  1  0  0  0
 61136  1  0  0  0
 62137  1  0  0  0
 62138  1  0  0  0
 62139  1  0  0  0
 63 65  1  0  0  0
 63140  1  0  0  0
 63141  1  0  0  0
 63142  1  0  0  0
 64143  1  0  0  0
 65144  1  0  0  0
 68 82  1  0  0  0
 71 73  1  0  0  0
 71 74  2  0  0  0
 71145  1  0  0  0
 72 73  2  0  0  0
 72 85  1  0  0  0
 72146  1  0  0  0
 73 81  1  0  0  0
 74 85  1  0  0  0
 74 80  1  0  0  0
 75 81  1  0  0  0
 75 82  1  0  0  0
 75 84  2  0  0  0
 76 77  1  0  0  0
 76 78  1  0  0  0
 76147  1  0  0  0
 76148  1  0  0  0
 77 80  1  0  0  0
 77149  1  0  0  0
 77150  1  0  0  0
 78 83  1  0  0  0
 78151  1  0  0  0
 78152  1  0  0  0
 79 80  1  0  0  0
 79 83  1  0  0  0
 79153  1  0  0  0
 79154  1  0  0  0
 80155  1  0  0  0
 81156  1  0  0  0
 81157  1  0  0  0
 82158  1  0  0  0
 82159  1  0  0  0
M  ISO  4   1 100  68 101  82 101  83 100
M  END
> <chiral flag>
0

> <version>
0

> <s_m_source_file>
/data/baiqing/PycharmProjects/Reinvent-master-3.2/result/LINK_invent/BTK/process_docking_weight1_custom_product_contain_oxygen_bond_distance_aromatic_linkinvent_7_9_3/rearranged_h_0146.sdf

> <i_m_source_file_index>
42

> <r_mmod_Potential_Energy-OPLS-2005>
186.114791870117

> <r_mmod_Stretch_Energy-OPLS-2005>
48.7747650146484

> <r_mmod_Bend_Energy-OPLS-2005>
122.037750244141

> <r_mmod_Torsional_Energy-OPLS-2005>
324.248992919922

> <r_mmod_Improper_Torsional_Energy-OPLS-2005>
7.23675346374512

> <r_mmod_Van_der_Waal_Energy-OPLS-2005>
141.741500854492

> <r_mmod_Electrostatic_Energy-OPLS-2005>
-255.96174621582

> <r_mmod_Solvation_Energy-OPLS-2005>
-216.913787841797

> <b_mmod_Minimization_Converged-OPLS-2005>
0

> <r_mmod_RMS_Derivative-OPLS-2005>
1.83227336406708

$$$$
42
                    3D
 Structure written by MMmdl.
169178  0  0  1  0            999 V2000
  -30.6885  -14.5492   20.4805 C   0  0  0  0  0  0
  -30.4217  -12.3175   19.4574 C   0  0  0  0  0  0
  -29.5130  -12.4901   18.2221 C   0  0  0  0  0  0
  -28.0291  -12.3545   18.6228 C   0  0  0  0  0  0
  -27.6577  -13.2199   19.8572 C   0  0  2  0  0  0
  -28.7011  -13.0706   20.9867 C   0  0  0  0  0  0
  -25.2611  -13.8179   20.5674 C   0  0  0  0  0  0
  -24.1877  -13.0449   20.9164 C   0  0  0  0  0  0
  -24.6442  -11.6914   20.8707 C   0  0  0  0  0  0
  -23.9105  -10.4297   21.0394 C   0  0  0  0  0  0
  -24.3635   -9.4197   21.9177 C   0  0  0  0  0  0
  -23.6296   -8.2244   22.0760 C   0  0  0  0  0  0
  -22.4274   -8.0286   21.3566 C   0  0  0  0  0  0
  -21.9923   -9.0257   20.4660 C   0  0  0  0  0  0
  -22.7267  -10.2131   20.3061 C   0  0  0  0  0  0
  -21.6853   -6.0725   22.5283 C   0  0  0  0  0  0
  -21.4003   -6.5633   23.8206 C   0  0  0  0  0  0
  -21.3672   -5.6803   24.9180 C   0  0  0  0  0  0
  -21.6050   -4.3059   24.7238 C   0  0  0  0  0  0
  -21.8820   -3.8146   23.4362 C   0  0  0  0  0  0
  -21.9181   -4.6956   22.3410 C   0  0  0  0  0  0
  -22.7894  -13.5223   21.1830 C   0  0  0  0  0  0
  -22.1658   -4.2138   21.0987 F   0  0  0  0  0  0
  -21.5643   -3.4540   25.7753 F   0  0  0  0  0  0
  -30.0323  -13.3524   20.4320 N   0  0  0  0  0  0
  -26.3042  -12.9376   20.3288 N   0  0  0  0  0  0
  -25.9366  -11.6525   20.5728 N   0  0  0  0  0  0
  -22.0535  -12.8219   22.0387 N   0  0  0  0  0  0
  -25.4311  -15.1909   20.4100 N   0  0  0  0  0  0
  -31.8691  -14.6121   20.1253 O   0  0  0  0  0  0
  -21.6656   -6.8872   21.4247 O   0  0  0  0  0  0
  -22.3546  -14.5525   20.6676 O   0  0  0  0  0  0
  -24.6194  -31.8663   23.2068 C   0  0  0  0  0  0
  -25.9070  -32.4810   23.8396 C   0  0  1  0  0  0
  -27.2320  -27.3852   20.0999 C   0  0  0  0  0  0
  -25.5907  -33.8613   24.2340 N   0  0  0  0  0  0
  -23.4109  -30.4866   21.5530 C   0  0  2  0  0  0
  -24.8489  -28.9430   20.1209 C   0  0  0  0  0  0
  -22.7471  -29.4639   22.5040 C   0  0  0  0  0  0
  -18.0309  -28.1362   22.8436 C   0  0  0  0  0  0
  -24.1491  -36.7295   23.2638 C   0  0  0  0  0  0
  -25.9455  -30.8129   21.3661 C   0  0  0  0  0  0
  -26.0148  -29.4450   20.7111 C   0  0  0  0  0  0
  -27.2034  -28.6757   20.6895 C   0  0  0  0  0  0
  -26.0309  -26.8960   19.5277 C   0  0  0  0  0  0
  -24.8541  -27.6674   19.5306 C   0  0  0  0  0  0
  -23.6177  -29.8198   20.1674 C   0  0  0  0  0  0
  -25.4108  -36.3109   24.0348 C   0  0  1  0  0  0
  -20.5874  -28.3691   23.1296 C   0  0  2  0  0  0
  -20.6817  -26.9423   22.5462 C   0  0  0  0  0  0
  -19.5821  -26.6311   21.5256 C   0  0  0  0  0  0
  -18.1973  -26.7887   22.1601 C   0  0  0  0  0  0
  -19.1539  -28.8853   23.2830 C   0  0  0  0  0  0
  -18.9431  -30.1450   23.8857 C   0  0  0  0  0  0
  -17.6427  -30.6572   24.0495 C   0  0  0  0  0  0
  -25.9040  -34.9472   23.5151 C   0  0  0  0  0  0
  -16.5336  -29.9047   23.6269 C   0  0  0  0  0  0
  -16.7298  -28.6451   23.0323 C   0  0  0  0  0  0
  -26.4476  -31.6582   25.0734 C   0  0  0  0  0  0
  -25.3734  -31.3724   26.1493 C   0  0  0  0  0  0
  -27.0326  -30.3030   24.6113 C   0  0  0  0  0  0
  -27.6047  -32.4297   25.7498 C   0  0  0  0  0  0
  -27.5598  -37.1797   24.8468 C   0  0  0  0  0  0
  -21.4206  -29.3018   22.3724 N   0  0  0  0  0  0
  -26.4296  -37.3792   23.9438 N   0  0  0  0  0  0
  -24.6783  -31.0705   22.0999 N   0  0  0  0  0  0
  -23.4224  -28.8221   23.3128 O   0  0  0  0  0  0
  -28.4281  -26.6788   20.1164 O   0  0  0  0  0  0
  -26.5596  -34.8911   22.4708 O   0  0  0  0  0  0
  -23.5361  -32.1488   23.7390 O   0  0  0  0  0  0
  -30.0742  -19.3864   21.3715 C   0  0  0  0  0  0
  -29.1385  -20.3548   20.8725 C   0  0  0  0  0  0
  -29.8146  -18.1676   20.7873 C   0  0  0  0  0  0
  -28.3517  -19.6562   19.9827 C   0  0  0  0  0  0
  -30.4480  -16.8316   20.7600 C   0  0  0  0  0  0
  -31.1864  -21.1181   23.9191 C   0  0  0  0  0  0
  -30.8519  -19.6245   23.8823 C   0  0  0  0  0  0
  -31.9147  -20.9443   22.5818 C   0  0  0  0  0  0
  -31.1906  -19.6010   22.3849 C   0  0  0  0  0  0
  -27.1848  -19.9670   19.0987 C   0  0  0  0  0  0
  -27.4515  -24.3852   21.7816 C   0  0  0  0  0  0
  -29.9689  -24.5332   21.6497 C   0  0  0  0  0  0
  -28.7378  -22.7844   20.2835 C   0  0  0  0  0  0
  -28.5298  -25.2913   19.6998 C   0  0  0  0  0  0
  -28.6762  -24.2449   20.8613 C   0  0  0  0  0  0
  -29.8804  -15.6695   20.7616 N   0  0  0  0  0  0
  -29.0303  -21.7140   21.2639 N   0  0  0  0  0  0
  -28.7504  -18.3382   19.9448 O   0  0  0  0  0  0
  -31.4715  -12.3692   19.1697 H   0  0  0  0  0  0
  -30.2855  -11.3255   19.8891 H   0  0  0  0  0  0
  -29.7628  -11.7515   17.4591 H   0  0  0  0  0  0
  -29.6876  -13.4647   17.7637 H   0  0  0  0  0  0
  -27.8444  -11.3021   18.8385 H   0  0  0  0  0  0
  -27.3892  -12.6096   17.7781 H   0  0  0  0  0  0
  -27.6792  -14.2578   19.5254 H   0  0  0  0  0  0
  -28.6847  -12.0607   21.3980 H   0  0  0  0  0  0
  -28.4692  -13.7335   21.8212 H   0  0  0  0  0  0
  -25.2767   -9.5678   22.4760 H   0  0  0  0  0  0
  -23.9999   -7.4644   22.7483 H   0  0  0  0  0  0
  -21.0855   -8.8792   19.8962 H   0  0  0  0  0  0
  -22.3718  -10.9683   19.6189 H   0  0  0  0  0  0
  -21.1996   -7.6140   23.9711 H   0  0  0  0  0  0
  -21.1497   -6.0529   25.9082 H   0  0  0  0  0  0
  -22.0585   -2.7602   23.2871 H   0  0  0  0  0  0
  -22.4132  -11.9876   22.4803 H   0  0  0  0  0  0
  -21.1168  -13.1284   22.2598 H   0  0  0  0  0  0
  -24.6699  -15.8522   20.5264 H   0  0  0  0  0  0
  -26.3042  -15.6301   20.1438 H   0  0  0  0  0  0
  -26.7126  -32.5504   23.1134 H   0  0  0  0  0  0
  -25.0104  -33.9776   25.0520 H   0  0  0  0  0  0
  -22.7051  -31.3062   21.4110 H   0  0  0  0  0  0
  -23.3756  -35.9621   23.3287 H   0  0  0  0  0  0
  -24.3621  -36.8920   22.2064 H   0  0  0  0  0  0
  -23.7220  -37.6492   23.6640 H   0  0  0  0  0  0
  -26.0602  -31.5711   20.5911 H   0  0  0  0  0  0
  -26.8378  -30.8652   21.9808 H   0  0  0  0  0  0
  -28.1081  -29.0593   21.1391 H   0  0  0  0  0  0
  -25.9579  -25.9166   19.0863 H   0  0  0  0  0  0
  -23.9514  -27.2693   19.0870 H   0  0  0  0  0  0
  -23.7324  -30.5993   19.4131 H   0  0  0  0  0  0
  -22.7406  -29.2438   19.8637 H   0  0  0  0  0  0
  -25.1251  -36.1996   25.0829 H   0  0  0  0  0  0
  -20.9893  -28.3263   24.1441 H   0  0  0  0  0  0
  -20.5808  -26.2316   23.3679 H   0  0  0  0  0  0
  -21.6693  -26.7516   22.1253 H   0  0  0  0  0  0
  -19.7050  -25.6179   21.1410 H   0  0  0  0  0  0
  -19.6751  -27.3032   20.6707 H   0  0  0  0  0  0
  -17.4323  -26.6535   21.3941 H   0  0  0  0  0  0
  -18.0350  -26.0071   22.9027 H   0  0  0  0  0  0
  -19.7891  -30.7272   24.2243 H   0  0  0  0  0  0
  -17.4954  -31.6275   24.5034 H   0  0  0  0  0  0
  -15.5304  -30.2928   23.7546 H   0  0  0  0  0  0
  -15.8722  -28.0713   22.7082 H   0  0  0  0  0  0
  -24.5901  -30.7046   25.7888 H   0  0  0  0  0  0
  -24.8915  -32.2894   26.4889 H   0  0  0  0  0  0
  -25.8090  -30.8980   27.0301 H   0  0  0  0  0  0
  -26.2906  -29.6798   24.1117 H   0  0  0  0  0  0
  -27.4088  -29.7223   25.4551 H   0  0  0  0  0  0
  -27.8716  -30.4378   23.9283 H   0  0  0  0  0  0
  -27.2651  -33.3582   26.2086 H   0  0  0  0  0  0
  -28.3833  -32.6886   25.0313 H   0  0  0  0  0  0
  -28.0725  -31.8428   26.5414 H   0  0  0  0  0  0
  -28.2571  -38.0134   24.7561 H   0  0  0  0  0  0
  -28.1126  -36.2677   24.6192 H   0  0  0  0  0  0
  -27.2349  -37.1317   25.8874 H   0  0  0  0  0  0
  -20.9446  -29.8674   21.6855 H   0  0  0  0  0  0
  -26.0185  -38.2872   24.1440 H   0  0  0  0  0  0
  -31.5366  -16.9189   20.6997 H   0  0  0  0  0  0
  -31.8285  -21.4103   24.7517 H   0  0  0  0  0  0
  -30.3080  -21.7608   23.8440 H   0  0  0  0  0  0
  -29.8130  -19.3860   24.1115 H   0  0  0  0  0  0
  -31.5438  -19.0265   24.4790 H   0  0  0  0  0  0
  -32.9920  -20.8239   22.7119 H   0  0  0  0  0  0
  -31.7032  -21.7086   21.8356 H   0  0  0  0  0  0
  -31.9372  -18.8278   22.1920 H   0  0  0  0  0  0
  -26.2446  -19.8335   19.6332 H   0  0  0  0  0  0
  -27.1748  -19.3031   18.2332 H   0  0  0  0  0  0
  -27.2151  -20.9798   18.7089 H   0  0  0  0  0  0
  -27.4664  -23.6540   22.5875 H   0  0  0  0  0  0
  -26.5220  -24.2473   21.2299 H   0  0  0  0  0  0
  -27.4104  -25.3764   22.2336 H   0  0  0  0  0  0
  -29.9803  -24.0241   22.6147 H   0  0  0  0  0  0
  -30.0936  -25.5985   21.8465 H   0  0  0  0  0  0
  -30.8412  -24.2004   21.0861 H   0  0  0  0  0  0
  -29.4982  -22.7450   19.5018 H   0  0  0  0  0  0
  -27.7801  -22.6033   19.8021 H   0  0  0  0  0  0
  -27.7439  -24.9877   19.0141 H   0  0  0  0  0  0
  -29.4297  -25.2342   19.0869 H   0  0  0  0  0  0
  -29.6483  -21.9978   22.0190 H   0  0  0  0  0  0
  1 25  1  0  0  0
  1 30  2  0  0  0
  1 86  1  0  0  0
  2  3  1  0  0  0
  2 25  1  0  0  0
  2 89  1  0  0  0
  2 90  1  0  0  0
  3  4  1  0  0  0
  3 91  1  0  0  0
  3 92  1  0  0  0
  4  5  1  0  0  0
  4 93  1  0  0  0
  4 94  1  0  0  0
  5  6  1  0  0  0
  5 26  1  0  0  0
  5 95  1  0  0  0
  6 25  1  0  0  0
  6 96  1  0  0  0
  6 97  1  0  0  0
  7  8  2  0  0  0
  7 26  1  0  0  0
  7 29  1  0  0  0
  8  9  1  0  0  0
  8 22  1  0  0  0
  9 10  1  0  0  0
  9 27  2  0  0  0
 10 11  2  0  0  0
 10 15  1  0  0  0
 11 12  1  0  0  0
 11 98  1  0  0  0
 12 13  2  0  0  0
 12 99  1  0  0  0
 13 14  1  0  0  0
 13 31  1  0  0  0
 14 15  2  0  0  0
 14100  1  0  0  0
 15101  1  0  0  0
 16 17  2  0  0  0
 16 21  1  0  0  0
 16 31  1  0  0  0
 17 18  1  0  0  0
 17102  1  0  0  0
 18 19  2  0  0  0
 18103  1  0  0  0
 19 20  1  0  0  0
 19 24  1  0  0  0
 20 21  2  0  0  0
 20104  1  0  0  0
 21 23  1  0  0  0
 22 28  1  0  0  0
 22 32  2  0  0  0
 26 27  1  0  0  0
 28105  1  0  0  0
 28106  1  0  0  0
 29107  1  0  0  0
 29108  1  0  0  0
 33 34  1  0  0  0
 33 66  1  0  0  0
 33 70  2  0  0  0
 34 36  1  0  0  0
 34 59  1  0  0  0
 34109  1  0  0  0
 35 44  2  0  0  0
 35 45  1  0  0  0
 35 68  1  0  0  0
 36 56  1  0  0  0
 36110  1  0  0  0
 37 39  1  0  0  0
 37 47  1  0  0  0
 37 66  1  0  0  0
 37111  1  0  0  0
 38 43  2  0  0  0
 38 46  1  0  0  0
 38 47  1  0  0  0
 39 64  1  0  0  0
 39 67  2  0  0  0
 40 52  1  0  0  0
 40 53  2  0  0  0
 40 58  1  0  0  0
 41112  1  0  0  0
 41113  1  0  0  0
 41114  1  0  0  0
 41 48  1  0  0  0
 42 43  1  0  0  0
 42 66  1  0  0  0
 42115  1  0  0  0
 42116  1  0  0  0
 43 44  1  0  0  0
 44117  1  0  0  0
 45 46  2  0  0  0
 45118  1  0  0  0
 46119  1  0  0  0
 47120  1  0  0  0
 47121  1  0  0  0
 48 56  1  0  0  0
 48 65  1  0  0  0
 48122  1  0  0  0
 49 50  1  0  0  0
 49 53  1  0  0  0
 49 64  1  0  0  0
 49123  1  0  0  0
 50 51  1  0  0  0
 50124  1  0  0  0
 50125  1  0  0  0
 51 52  1  0  0  0
 51126  1  0  0  0
 51127  1  0  0  0
 52128  1  0  0  0
 52129  1  0  0  0
 53 54  1  0  0  0
 54 55  2  0  0  0
 54130  1  0  0  0
 55 57  1  0  0  0
 55131  1  0  0  0
 56 69  2  0  0  0
 57 58  2  0  0  0
 57132  1  0  0  0
 58133  1  0  0  0
 59 60  1  0  0  0
 59 61  1  0  0  0
 59 62  1  0  0  0
 60134  1  0  0  0
 60135  1  0  0  0
 60136  1  0  0  0
 61137  1  0  0  0
 61138  1  0  0  0
 61139  1  0  0  0
 62140  1  0  0  0
 62141  1  0  0  0
 62142  1  0  0  0
 63 65  1  0  0  0
 63143  1  0  0  0
 63144  1  0  0  0
 63145  1  0  0  0
 64146  1  0  0  0
 65147  1  0  0  0
 68 84  1  0  0  0
 71 72  1  0  0  0
 71 73  2  0  0  0
 71 79  1  0  0  0
 72 74  2  0  0  0
 72 87  1  0  0  0
 73 75  1  0  0  0
 73 88  1  0  0  0
 74 80  1  0  0  0
 74 88  1  0  0  0
 75 86  2  0  0  0
 75148  1  0  0  0
 76 77  1  0  0  0
 76 78  1  0  0  0
 76149  1  0  0  0
 76150  1  0  0  0
 77 79  1  0  0  0
 77151  1  0  0  0
 77152  1  0  0  0
 78 79  1  0  0  0
 78153  1  0  0  0
 78154  1  0  0  0
 79155  1  0  0  0
 80156  1  0  0  0
 80157  1  0  0  0
 80158  1  0  0  0
 81159  1  0  0  0
 81160  1  0  0  0
 81161  1  0  0  0
 81 85  1  0  0  0
 82 85  1  0  0  0
 82162  1  0  0  0
 82163  1  0  0  0
 82164  1  0  0  0
 83 85  1  0  0  0
 83 87  1  0  0  0
 83165  1  0  0  0
 83166  1  0  0  0
 84 85  1  0  0  0
 84167  1  0  0  0
 84168  1  0  0  0
 87169  1  0  0  0
M  ISO  4   1 100  68 101  84 101  86 100
M  END
> <chiral flag>
0

> <version>
0

> <s_m_source_file>
/data/baiqing/PycharmProjects/Reinvent-master-3.2/result/LINK_invent/BTK/process_docking_weight1_custom_product_contain_oxygen_bond_distance_aromatic_linkinvent_7_9_3/rearranged_h_0146.sdf

> <i_m_source_file_index>
43

> <r_mmod_Potential_Energy-OPLS-2005>
52.183292388916

> <r_mmod_Stretch_Energy-OPLS-2005>
50.738395690918

> <r_mmod_Bend_Energy-OPLS-2005>
164.389068603516

> <r_mmod_Torsional_Energy-OPLS-2005>
233.028259277344

> <r_mmod_Improper_Torsional_Energy-OPLS-2005>
7.40893888473511

> <r_mmod_Van_der_Waal_Energy-OPLS-2005>
132.831481933594

> <r_mmod_Electrostatic_Energy-OPLS-2005>
-386.411437988281

> <r_mmod_Solvation_Energy-OPLS-2005>
-176.219253540039

> <b_mmod_Minimization_Converged-OPLS-2005>
0

> <r_mmod_RMS_Derivative-OPLS-2005>
4.44103288650513

$$$$
43
                    3D
 Structure written by MMmdl.
163172  0  0  1  0            999 V2000
  -30.6050  -14.6043   20.5469 C   0  0  0  0  0  0
  -30.4522  -12.3813   19.4309 C   0  0  0  0  0  0
  -29.5099  -12.5171   18.2120 C   0  0  0  0  0  0
  -28.0305  -12.3506   18.6246 C   0  0  0  0  0  0
  -27.6598  -13.2010   19.8684 C   0  0  2  0  0  0
  -28.7062  -12.9993   20.9889 C   0  0  0  0  0  0
  -25.2596  -13.8130   20.5682 C   0  0  0  0  0  0
  -24.1840  -13.0423   20.9180 C   0  0  0  0  0  0
  -24.6378  -11.6884   20.8723 C   0  0  0  0  0  0
  -23.9032  -10.4286   21.0405 C   0  0  0  0  0  0
  -24.3588   -9.4206   21.9180 C   0  0  0  0  0  0
  -23.6280   -8.2230   22.0744 C   0  0  0  0  0  0
  -22.4264   -8.0263   21.3530 C   0  0  0  0  0  0
  -21.9889   -9.0235   20.4635 C   0  0  0  0  0  0
  -22.7206  -10.2126   20.3049 C   0  0  0  0  0  0
  -21.6848   -6.0720   22.5276 C   0  0  0  0  0  0
  -21.4008   -6.5625   23.8211 C   0  0  0  0  0  0
  -21.3666   -5.6779   24.9174 C   0  0  0  0  0  0
  -21.6049   -4.3043   24.7227 C   0  0  0  0  0  0
  -21.8817   -3.8132   23.4350 C   0  0  0  0  0  0
  -21.9191   -4.6945   22.3403 C   0  0  0  0  0  0
  -22.7866  -13.5238   21.1857 C   0  0  0  0  0  0
  -22.1662   -4.2131   21.0981 F   0  0  0  0  0  0
  -21.5646   -3.4530   25.7746 F   0  0  0  0  0  0
  -30.0240  -13.3684   20.4372 N   0  0  0  0  0  0
  -26.3015  -12.9280   20.3319 N   0  0  0  0  0  0
  -25.9300  -11.6448   20.5721 N   0  0  0  0  0  0
  -22.0492  -12.8234   22.0413 N   0  0  0  0  0  0
  -25.4351  -15.1849   20.4125 N   0  0  0  0  0  0
  -31.7475  -14.8375   20.1397 O   0  0  0  0  0  0
  -21.6625   -6.8864   21.4238 O   0  0  0  0  0  0
  -22.3565  -14.5547   20.6708 O   0  0  0  0  0  0
  -24.6207  -31.8618   23.2041 C   0  0  0  0  0  0
  -25.9064  -32.4799   23.8359 C   0  0  1  0  0  0
  -27.2349  -27.3598   20.1161 C   0  0  0  0  0  0
  -25.5885  -33.8597   24.2277 N   0  0  0  0  0  0
  -23.4143  -30.4834   21.5447 C   0  0  2  0  0  0
  -24.8642  -28.9378   20.1159 C   0  0  0  0  0  0
  -22.7454  -29.4618   22.4942 C   0  0  0  0  0  0
  -18.0274  -28.1392   22.8479 C   0  0  0  0  0  0
  -24.1486  -36.7307   23.2640 C   0  0  0  0  0  0
  -25.9503  -30.8072   21.3674 C   0  0  0  0  0  0
  -26.0299  -29.4353   20.7133 C   0  0  0  0  0  0
  -27.2219  -28.6588   20.6991 C   0  0  0  0  0  0
  -26.0501  -26.8980   19.5052 C   0  0  0  0  0  0
  -24.8733  -27.6721   19.5059 C   0  0  0  0  0  0
  -23.6293  -29.8140   20.1611 C   0  0  0  0  0  0
  -25.4111  -36.3099   24.0331 C   0  0  1  0  0  0
  -20.5872  -28.3674   23.1300 C   0  0  2  0  0  0
  -20.6759  -26.9401   22.5418 C   0  0  0  0  0  0
  -19.5741  -26.6384   21.5213 C   0  0  0  0  0  0
  -18.1920  -26.7932   22.1623 C   0  0  0  0  0  0
  -19.1530  -28.8850   23.2883 C   0  0  0  0  0  0
  -18.9461  -30.1459   23.8890 C   0  0  0  0  0  0
  -17.6466  -30.6594   24.0565 C   0  0  0  0  0  0
  -25.9041  -34.9465   23.5107 C   0  0  0  0  0  0
  -16.5353  -29.9100   23.6335 C   0  0  0  0  0  0
  -16.7265  -28.6526   23.0335 C   0  0  0  0  0  0
  -26.4452  -31.6608   25.0724 C   0  0  0  0  0  0
  -25.3701  -31.3763   26.1473 C   0  0  0  0  0  0
  -27.0276  -30.3032   24.6158 C   0  0  0  0  0  0
  -27.6013  -32.4339   25.7499 C   0  0  0  0  0  0
  -27.5583  -37.1808   24.8459 C   0  0  0  0  0  0
  -21.4167  -29.3036   22.3704 N   0  0  0  0  0  0
  -26.4288  -37.3796   23.9414 N   0  0  0  0  0  0
  -24.6802  -31.0665   22.0967 N   0  0  0  0  0  0
  -23.4200  -28.8152   23.2999 O   0  0  0  0  0  0
  -28.3728  -26.5558   20.1070 O   0  0  0  0  0  0
  -26.5627  -34.8934   22.4684 O   0  0  0  0  0  0
  -23.5379  -32.1379   23.7397 O   0  0  0  0  0  0
  -29.5981  -19.7083   22.1214 C   0  0  0  0  0  0
  -30.2291  -18.0468   20.4390 C   0  0  0  0  0  0
  -29.2950  -17.3223   22.5661 C   0  0  0  0  0  0
  -30.1132  -19.4301   20.8390 C   0  0  0  0  0  0
  -29.1812  -18.6678   22.9737 C   0  0  0  0  0  0
  -29.8330  -16.9752   21.3073 C   0  0  0  0  0  0
  -30.6429  -20.5622   20.0068 C   0  0  0  0  0  0
  -30.4489  -24.2835   19.5922 C   0  0  0  0  0  0
  -30.9978  -22.9063   19.1889 C   0  0  0  0  0  0
  -29.0502  -22.5985   20.5551 C   0  0  0  0  0  0
  -28.9749  -24.0262   19.8824 C   0  0  1  0  0  0
  -28.6024  -19.0095   24.3326 C   0  0  0  0  0  0
  -28.2553  -25.1991   20.6593 C   0  0  0  0  0  0
  -30.2162  -21.8818   19.9314 N   0  0  0  0  0  0
  -29.7388  -15.5680   20.9698 N   0  0  0  0  0  0
  -31.7112  -20.2522   19.2723 N   0  3  0  0  0  0
  -31.4913  -12.5298   19.1302 H   0  0  0  0  0  0
  -30.4007  -11.3729   19.8453 H   0  0  0  0  0  0
  -29.7734  -11.7791   17.4526 H   0  0  0  0  0  0
  -29.6497  -13.4956   17.7479 H   0  0  0  0  0  0
  -27.8645  -11.2943   18.8401 H   0  0  0  0  0  0
  -27.3735  -12.5991   17.7901 H   0  0  0  0  0  0
  -27.6921  -14.2440   19.5533 H   0  0  0  0  0  0
  -28.7173  -11.9557   21.3085 H   0  0  0  0  0  0
  -28.4469  -13.5706   21.8812 H   0  0  0  0  0  0
  -25.2739   -9.5696   22.4741 H   0  0  0  0  0  0
  -24.0002   -7.4625   22.7455 H   0  0  0  0  0  0
  -21.0822   -8.8738   19.8947 H   0  0  0  0  0  0
  -22.3654  -10.9651   19.6148 H   0  0  0  0  0  0
  -21.1983   -7.6127   23.9711 H   0  0  0  0  0  0
  -21.1501   -6.0507   25.9083 H   0  0  0  0  0  0
  -22.0593   -2.7591   23.2849 H   0  0  0  0  0  0
  -22.4083  -11.9888   22.4809 H   0  0  0  0  0  0
  -21.1103  -13.1271   22.2602 H   0  0  0  0  0  0
  -24.6675  -15.8398   20.5169 H   0  0  0  0  0  0
  -26.2803  -15.6214   20.0684 H   0  0  0  0  0  0
  -26.7134  -32.5490   23.1117 H   0  0  0  0  0  0
  -24.9983  -33.9735   25.0387 H   0  0  0  0  0  0
  -22.7060  -31.3016   21.4001 H   0  0  0  0  0  0
  -23.3752  -35.9633   23.3292 H   0  0  0  0  0  0
  -24.3579  -36.8940   22.2056 H   0  0  0  0  0  0
  -23.7230  -37.6505   23.6666 H   0  0  0  0  0  0
  -26.0721  -31.5731   20.6000 H   0  0  0  0  0  0
  -26.8338  -30.8593   21.9920 H   0  0  0  0  0  0
  -28.1239  -29.0403   21.1575 H   0  0  0  0  0  0
  -26.0323  -25.9284   19.0276 H   0  0  0  0  0  0
  -23.9791  -27.2845   19.0375 H   0  0  0  0  0  0
  -23.7465  -30.5881   19.4017 H   0  0  0  0  0  0
  -22.7510  -29.2397   19.8607 H   0  0  0  0  0  0
  -25.1288  -36.1950   25.0822 H   0  0  0  0  0  0
  -20.9956  -28.3244   24.1425 H   0  0  0  0  0  0
  -20.5646  -26.2283   23.3609 H   0  0  0  0  0  0
  -21.6631  -26.7425   22.1224 H   0  0  0  0  0  0
  -19.6897  -25.6294   21.1243 H   0  0  0  0  0  0
  -19.6693  -27.3193   20.6744 H   0  0  0  0  0  0
  -17.4186  -26.6662   21.4033 H   0  0  0  0  0  0
  -18.0335  -26.0086   22.9035 H   0  0  0  0  0  0
  -19.7942  -30.7273   24.2249 H   0  0  0  0  0  0
  -17.5029  -31.6273   24.5173 H   0  0  0  0  0  0
  -15.5356  -30.3004   23.7673 H   0  0  0  0  0  0
  -15.8661  -28.0864   22.7025 H   0  0  0  0  0  0
  -24.5854  -30.7122   25.7833 H   0  0  0  0  0  0
  -24.8914  -32.2941   26.4903 H   0  0  0  0  0  0
  -25.8041  -30.8952   27.0249 H   0  0  0  0  0  0
  -26.2841  -29.6831   24.1141 H   0  0  0  0  0  0
  -27.3923  -29.7248   25.4656 H   0  0  0  0  0  0
  -27.8730  -30.4318   23.9397 H   0  0  0  0  0  0
  -27.2606  -33.3626   26.2094 H   0  0  0  0  0  0
  -28.3823  -32.6932   25.0336 H   0  0  0  0  0  0
  -28.0680  -31.8459   26.5413 H   0  0  0  0  0  0
  -28.2593  -38.0117   24.7528 H   0  0  0  0  0  0
  -28.1087  -36.2650   24.6248 H   0  0  0  0  0  0
  -27.2305  -37.1417   25.8863 H   0  0  0  0  0  0
  -20.9333  -29.8796   21.6954 H   0  0  0  0  0  0
  -26.0170  -38.2863   24.1450 H   0  0  0  0  0  0
  -29.5393  -20.7271   22.4736 H   0  0  0  0  0  0
  -30.6082  -17.8054   19.4558 H   0  0  0  0  0  0
  -28.9475  -16.5421   23.2291 H   0  0  0  0  0  0
  -30.5776  -25.0182   18.7965 H   0  0  0  0  0  0
  -30.9678  -24.6561   20.4766 H   0  0  0  0  0  0
  -32.0638  -22.8545   19.4174 H   0  0  0  0  0  0
  -30.8769  -22.7482   18.1160 H   0  0  0  0  0  0
  -28.1194  -22.0467   20.4173 H   0  0  0  0  0  0
  -29.2192  -22.7065   21.6268 H   0  0  0  0  0  0
  -28.4540  -23.9065   18.9313 H   0  0  0  0  0  0
  -29.2561  -19.7027   24.8626 H   0  0  0  0  0  0
  -28.4776  -18.1220   24.9540 H   0  0  0  0  0  0
  -27.6272  -19.4835   24.2167 H   0  0  0  0  0  0
  -28.6712  -25.2452   21.6659 H   0  0  0  0  0  0
  -27.2113  -24.9187   20.8018 H   0  0  0  0  0  0
  -28.8749  -15.1432   21.2716 H   0  0  0  0  0  0
  -32.1344  -19.3451   19.3892 H   0  0  0  0  0  0
  -32.1193  -20.8932   18.6145 H   0  0  0  0  0  0
  1 25  1  0  0  0
  1 30  2  0  0  0
  1 85  1  0  0  0
  2  3  1  0  0  0
  2 25  1  0  0  0
  2 87  1  0  0  0
  2 88  1  0  0  0
  3  4  1  0  0  0
  3 89  1  0  0  0
  3 90  1  0  0  0
  4  5  1  0  0  0
  4 91  1  0  0  0
  4 92  1  0  0  0
  5  6  1  0  0  0
  5 26  1  0  0  0
  5 93  1  0  0  0
  6 25  1  0  0  0
  6 94  1  0  0  0
  6 95  1  0  0  0
  7  8  2  0  0  0
  7 26  1  0  0  0
  7 29  1  0  0  0
  8  9  1  0  0  0
  8 22  1  0  0  0
  9 10  1  0  0  0
  9 27  2  0  0  0
 10 11  2  0  0  0
 10 15  1  0  0  0
 11 12  1  0  0  0
 11 96  1  0  0  0
 12 13  2  0  0  0
 12 97  1  0  0  0
 13 14  1  0  0  0
 13 31  1  0  0  0
 14 15  2  0  0  0
 14 98  1  0  0  0
 15 99  1  0  0  0
 16 17  2  0  0  0
 16 21  1  0  0  0
 16 31  1  0  0  0
 17 18  1  0  0  0
 17100  1  0  0  0
 18 19  2  0  0  0
 18101  1  0  0  0
 19 20  1  0  0  0
 19 24  1  0  0  0
 20 21  2  0  0  0
 20102  1  0  0  0
 21 23  1  0  0  0
 22 28  1  0  0  0
 22 32  2  0  0  0
 26 27  1  0  0  0
 28103  1  0  0  0
 28104  1  0  0  0
 29105  1  0  0  0
 29106  1  0  0  0
 33 34  1  0  0  0
 33 66  1  0  0  0
 33 70  2  0  0  0
 34 36  1  0  0  0
 34 59  1  0  0  0
 34107  1  0  0  0
 35 44  2  0  0  0
 35 45  1  0  0  0
 35 68  1  0  0  0
 36 56  1  0  0  0
 36108  1  0  0  0
 37 39  1  0  0  0
 37 47  1  0  0  0
 37 66  1  0  0  0
 37109  1  0  0  0
 38 43  2  0  0  0
 38 46  1  0  0  0
 38 47  1  0  0  0
 39 64  1  0  0  0
 39 67  2  0  0  0
 40 52  1  0  0  0
 40 53  2  0  0  0
 40 58  1  0  0  0
 41110  1  0  0  0
 41111  1  0  0  0
 41112  1  0  0  0
 41 48  1  0  0  0
 42 43  1  0  0  0
 42 66  1  0  0  0
 42113  1  0  0  0
 42114  1  0  0  0
 43 44  1  0  0  0
 44115  1  0  0  0
 45 46  2  0  0  0
 45116  1  0  0  0
 46117  1  0  0  0
 47118  1  0  0  0
 47119  1  0  0  0
 48 56  1  0  0  0
 48 65  1  0  0  0
 48120  1  0  0  0
 49 50  1  0  0  0
 49 53  1  0  0  0
 49 64  1  0  0  0
 49121  1  0  0  0
 50 51  1  0  0  0
 50122  1  0  0  0
 50123  1  0  0  0
 51 52  1  0  0  0
 51124  1  0  0  0
 51125  1  0  0  0
 52126  1  0  0  0
 52127  1  0  0  0
 53 54  1  0  0  0
 54 55  2  0  0  0
 54128  1  0  0  0
 55 57  1  0  0  0
 55129  1  0  0  0
 56 69  2  0  0  0
 57 58  2  0  0  0
 57130  1  0  0  0
 58131  1  0  0  0
 59 60  1  0  0  0
 59 61  1  0  0  0
 59 62  1  0  0  0
 60132  1  0  0  0
 60133  1  0  0  0
 60134  1  0  0  0
 61135  1  0  0  0
 61136  1  0  0  0
 61137  1  0  0  0
 62138  1  0  0  0
 62139  1  0  0  0
 62140  1  0  0  0
 63 65  1  0  0  0
 63141  1  0  0  0
 63142  1  0  0  0
 63143  1  0  0  0
 64144  1  0  0  0
 65145  1  0  0  0
 68 83  1  0  0  0
 71 74  2  0  0  0
 71 75  1  0  0  0
 71146  1  0  0  0
 72 74  1  0  0  0
 72 76  2  0  0  0
 72147  1  0  0  0
 73 75  2  0  0  0
 73 76  1  0  0  0
 73148  1  0  0  0
 74 77  1  0  0  0
 75 82  1  0  0  0
 76 85  1  0  0  0
 77 84  1  0  0  0
 77 86  2  0  0  0
 78 79  1  0  0  0
 78 81  1  0  0  0
 78149  1  0  0  0
 78150  1  0  0  0
 79 84  1  0  0  0
 79151  1  0  0  0
 79152  1  0  0  0
 80 81  1  0  0  0
 80 84  1  0  0  0
 80153  1  0  0  0
 80154  1  0  0  0
 81 83  1  0  0  0
 81155  1  0  0  0
 82156  1  0  0  0
 82157  1  0  0  0
 82158  1  0  0  0
 83159  1  0  0  0
 83160  1  0  0  0
 85161  1  0  0  0
 86162  1  0  0  0
 86163  1  0  0  0
M  CHG  1  86   1
M  ISO  4   1 100  68 101  83 101  85 100
M  END
> <chiral flag>
0

> <version>
0

> <s_m_source_file>
/data/baiqing/PycharmProjects/Reinvent-master-3.2/result/LINK_invent/BTK/process_docking_weight1_custom_product_contain_oxygen_bond_distance_aromatic_linkinvent_7_9_3/rearranged_h_0146.sdf

> <i_m_source_file_index>
44

> <r_mmod_Potential_Energy-OPLS-2005>
-44.5841789245605

> <r_mmod_Stretch_Energy-OPLS-2005>
69.0970916748047

> <r_mmod_Bend_Energy-OPLS-2005>
177.497528076172

> <r_mmod_Torsional_Energy-OPLS-2005>
305.05029296875

> <r_mmod_Improper_Torsional_Energy-OPLS-2005>
6.14397621154785

> <r_mmod_Van_der_Waal_Energy-OPLS-2005>
145.690322875977

> <r_mmod_Electrostatic_Energy-OPLS-2005>
-382.436920166016

> <r_mmod_Solvation_Energy-OPLS-2005>
-400.382019042969

> <b_mmod_Minimization_Converged-OPLS-2005>
0

> <r_mmod_RMS_Derivative-OPLS-2005>
1.51916456222534

$$$$
44
                    3D
 Structure written by MMmdl.
166175  0  0  1  0            999 V2000
  -30.6543  -14.5507   20.5317 C   0  0  0  0  0  0
  -30.4325  -12.3435   19.4382 C   0  0  0  0  0  0
  -29.5038  -12.5055   18.2157 C   0  0  0  0  0  0
  -28.0248  -12.3525   18.6261 C   0  0  0  0  0  0
  -27.6575  -13.2074   19.8690 C   0  0  2  0  0  0
  -28.6998  -13.0216   20.9952 C   0  0  0  0  0  0
  -25.2577  -13.8154   20.5676 C   0  0  0  0  0  0
  -24.1838  -13.0431   20.9189 C   0  0  0  0  0  0
  -24.6393  -11.6899   20.8735 C   0  0  0  0  0  0
  -23.9056  -10.4287   21.0401 C   0  0  0  0  0  0
  -24.3612   -9.4206   21.9180 C   0  0  0  0  0  0
  -23.6290   -8.2240   22.0751 C   0  0  0  0  0  0
  -22.4268   -8.0279   21.3546 C   0  0  0  0  0  0
  -21.9900   -9.0250   20.4646 C   0  0  0  0  0  0
  -22.7226  -10.2131   20.3050 C   0  0  0  0  0  0
  -21.6853   -6.0735   22.5279 C   0  0  0  0  0  0
  -21.4014   -6.5635   23.8217 C   0  0  0  0  0  0
  -21.3662   -5.6785   24.9176 C   0  0  0  0  0  0
  -21.6041   -4.3048   24.7224 C   0  0  0  0  0  0
  -21.8819   -3.8145   23.4346 C   0  0  0  0  0  0
  -21.9194   -4.6962   22.3406 C   0  0  0  0  0  0
  -22.7862  -13.5234   21.1847 C   0  0  0  0  0  0
  -22.1659   -4.2150   21.0980 F   0  0  0  0  0  0
  -21.5631   -3.4530   25.7736 F   0  0  0  0  0  0
  -30.0237  -13.3441   20.4388 N   0  0  0  0  0  0
  -26.3003  -12.9320   20.3329 N   0  0  0  0  0  0
  -25.9317  -11.6485   20.5761 N   0  0  0  0  0  0
  -22.0492  -12.8242   22.0406 N   0  0  0  0  0  0
  -25.4295  -15.1877   20.4077 N   0  0  0  0  0  0
  -31.8038  -14.7273   20.1157 O   0  0  0  0  0  0
  -21.6638   -6.8873   21.4239 O   0  0  0  0  0  0
  -22.3558  -14.5538   20.6682 O   0  0  0  0  0  0
  -24.6191  -31.8648   23.2051 C   0  0  0  0  0  0
  -25.9069  -32.4800   23.8370 C   0  0  1  0  0  0
  -27.2346  -27.3798   20.1023 C   0  0  0  0  0  0
  -25.5912  -33.8600   24.2304 N   0  0  0  0  0  0
  -23.4101  -30.4869   21.5468 C   0  0  2  0  0  0
  -24.8566  -28.9455   20.1150 C   0  0  0  0  0  0
  -22.7437  -29.4642   22.4965 C   0  0  0  0  0  0
  -18.0279  -28.1380   22.8490 C   0  0  0  0  0  0
  -24.1493  -36.7299   23.2638 C   0  0  0  0  0  0
  -25.9448  -30.8131   21.3669 C   0  0  0  0  0  0
  -26.0212  -29.4439   20.7112 C   0  0  0  0  0  0
  -27.2117  -28.6719   20.6947 C   0  0  0  0  0  0
  -26.0440  -26.9079   19.5032 C   0  0  0  0  0  0
  -24.8663  -27.6796   19.5057 C   0  0  0  0  0  0
  -23.6212  -29.8185   20.1625 C   0  0  0  0  0  0
  -25.4119  -36.3103   24.0334 C   0  0  1  0  0  0
  -20.5874  -28.3673   23.1304 C   0  0  2  0  0  0
  -20.6769  -26.9402   22.5418 C   0  0  0  0  0  0
  -19.5745  -26.6385   21.5215 C   0  0  0  0  0  0
  -18.1924  -26.7929   22.1621 C   0  0  0  0  0  0
  -19.1529  -28.8843   23.2895 C   0  0  0  0  0  0
  -18.9454  -30.1449   23.8906 C   0  0  0  0  0  0
  -17.6455  -30.6586   24.0560 C   0  0  0  0  0  0
  -25.9048  -34.9466   23.5120 C   0  0  0  0  0  0
  -16.5346  -29.9087   23.6323 C   0  0  0  0  0  0
  -16.7266  -28.6504   23.0348 C   0  0  0  0  0  0
  -26.4484  -31.6584   25.0710 C   0  0  0  0  0  0
  -25.3737  -31.3692   26.1445 C   0  0  0  0  0  0
  -27.0315  -30.3018   24.6117 C   0  0  0  0  0  0
  -27.6065  -32.4299   25.7468 C   0  0  0  0  0  0
  -27.5588  -37.1809   24.8467 C   0  0  0  0  0  0
  -21.4158  -29.3035   22.3705 N   0  0  0  0  0  0
  -26.4305  -37.3789   23.9402 N   0  0  0  0  0  0
  -24.6761  -31.0712   22.0968 N   0  0  0  0  0  0
  -23.4189  -28.8187   23.3031 O   0  0  0  0  0  0
  -28.4013  -26.6215   20.1160 O   0  0  0  0  0  0
  -26.5610  -34.8923   22.4684 O   0  0  0  0  0  0
  -23.5373  -32.1421   23.7417 O   0  0  0  0  0  0
  -31.0594  -19.0690   21.8025 C   0  0  0  0  0  0
  -30.7441  -17.6922   21.9171 C   0  0  0  0  0  0
  -29.7977  -17.7411   19.6891 C   0  0  0  0  0  0
  -30.8053  -19.7978   20.6094 C   0  0  0  0  0  0
  -30.1606  -16.9911   20.8392 C   0  0  0  0  0  0
  -30.1190  -19.1225   19.5677 C   0  0  0  0  0  0
  -31.5465  -21.0746   20.3851 C   0  0  0  0  0  0
  -31.5938  -24.1849   18.3216 C   0  0  0  0  0  0
  -30.6356  -25.1494   19.0204 C   0  0  0  0  0  0
  -32.1792  -23.1944   19.3241 C   0  0  0  0  0  0
  -29.7337  -22.8836   19.8863 C   0  0  0  0  0  0
  -29.7284  -24.4709   20.0884 C   0  0  1  0  0  0
  -30.2510  -24.7640   21.5146 C   0  0  0  0  0  0
  -28.3241  -25.1703   19.9614 C   0  0  0  0  0  0
  -31.1317  -22.3051   19.9169 N   0  0  0  0  0  0
  -29.8812  -15.5835   20.9521 N   0  0  0  0  0  0
  -32.8491  -20.9720   20.6772 N   0  3  0  0  0  0
  -29.8419  -19.7637   18.4057 F   0  0  0  0  0  0
  -31.4763  -12.4565   19.1397 H   0  0  0  0  0  0
  -30.3494  -11.3381   19.8539 H   0  0  0  0  0  0
  -29.7576  -11.7703   17.4506 H   0  0  0  0  0  0
  -29.6602  -13.4862   17.7620 H   0  0  0  0  0  0
  -27.8485  -11.2973   18.8393 H   0  0  0  0  0  0
  -27.3735  -12.6050   17.7881 H   0  0  0  0  0  0
  -27.6897  -14.2497   19.5515 H   0  0  0  0  0  0
  -28.6929  -11.9914   21.3546 H   0  0  0  0  0  0
  -28.4551  -13.6367   21.8625 H   0  0  0  0  0  0
  -25.2759   -9.5685   22.4753 H   0  0  0  0  0  0
  -24.0006   -7.4631   22.7463 H   0  0  0  0  0  0
  -21.0834   -8.8761   19.8954 H   0  0  0  0  0  0
  -22.3680  -10.9667   19.6159 H   0  0  0  0  0  0
  -21.2002   -7.6142   23.9720 H   0  0  0  0  0  0
  -21.1484   -6.0514   25.9080 H   0  0  0  0  0  0
  -22.0598   -2.7607   23.2845 H   0  0  0  0  0  0
  -22.4094  -11.9910   22.4812 H   0  0  0  0  0  0
  -21.1107  -13.1275   22.2589 H   0  0  0  0  0  0
  -24.6574  -15.8376   20.5073 H   0  0  0  0  0  0
  -26.2702  -15.6267   20.0545 H   0  0  0  0  0  0
  -26.7134  -32.5492   23.1122 H   0  0  0  0  0  0
  -25.0076  -33.9761   25.0461 H   0  0  0  0  0  0
  -22.7006  -31.3047   21.4044 H   0  0  0  0  0  0
  -23.3761  -35.9627   23.3311 H   0  0  0  0  0  0
  -24.3584  -36.8905   22.2050 H   0  0  0  0  0  0
  -23.7239  -37.6504   23.6646 H   0  0  0  0  0  0
  -26.0696  -31.5788   20.6000 H   0  0  0  0  0  0
  -26.8277  -30.8621   21.9925 H   0  0  0  0  0  0
  -28.1112  -29.0557   21.1559 H   0  0  0  0  0  0
  -26.0006  -25.9420   19.0241 H   0  0  0  0  0  0
  -23.9721  -27.2905   19.0387 H   0  0  0  0  0  0
  -23.7338  -30.5923   19.4022 H   0  0  0  0  0  0
  -22.7442  -29.2416   19.8638 H   0  0  0  0  0  0
  -25.1298  -36.1971   25.0829 H   0  0  0  0  0  0
  -20.9966  -28.3246   24.1424 H   0  0  0  0  0  0
  -20.5680  -26.2280   23.3611 H   0  0  0  0  0  0
  -21.6638  -26.7450   22.1201 H   0  0  0  0  0  0
  -19.6903  -25.6299   21.1238 H   0  0  0  0  0  0
  -19.6684  -27.3203   20.6753 H   0  0  0  0  0  0
  -17.4197  -26.6682   21.4020 H   0  0  0  0  0  0
  -18.0313  -26.0072   22.9015 H   0  0  0  0  0  0
  -19.7931  -30.7261   24.2281 H   0  0  0  0  0  0
  -17.5010  -31.6266   24.5160 H   0  0  0  0  0  0
  -15.5347  -30.2986   23.7649 H   0  0  0  0  0  0
  -15.8666  -28.0823   22.7059 H   0  0  0  0  0  0
  -24.5929  -30.7023   25.7769 H   0  0  0  0  0  0
  -24.8904  -32.2840   26.4882 H   0  0  0  0  0  0
  -25.8081  -30.8866   27.0209 H   0  0  0  0  0  0
  -26.2864  -29.6769   24.1177 H   0  0  0  0  0  0
  -27.4073  -29.7268   25.4590 H   0  0  0  0  0  0
  -27.8708  -30.4315   23.9280 H   0  0  0  0  0  0
  -27.2703  -33.3599   26.2063 H   0  0  0  0  0  0
  -28.3864  -32.6855   25.0281 H   0  0  0  0  0  0
  -28.0745  -31.8406   26.5363 H   0  0  0  0  0  0
  -28.2617  -38.0098   24.7514 H   0  0  0  0  0  0
  -28.1077  -36.2630   24.6301 H   0  0  0  0  0  0
  -27.2300  -37.1467   25.8870 H   0  0  0  0  0  0
  -20.9326  -29.8753   21.6916 H   0  0  0  0  0  0
  -26.0195  -38.2869   24.1400 H   0  0  0  0  0  0
  -31.5838  -19.5458   22.6194 H   0  0  0  0  0  0
  -30.9987  -17.1663   22.8274 H   0  0  0  0  0  0
  -29.3116  -17.2485   18.8598 H   0  0  0  0  0  0
  -32.3909  -24.7393   17.8245 H   0  0  0  0  0  0
  -31.0721  -23.6401   17.5335 H   0  0  0  0  0  0
  -30.0397  -25.6290   18.2424 H   0  0  0  0  0  0
  -31.2063  -25.9576   19.4789 H   0  0  0  0  0  0
  -32.7247  -23.7230   20.1069 H   0  0  0  0  0  0
  -32.9171  -22.6015   18.7784 H   0  0  0  0  0  0
  -29.2639  -22.6239   18.9357 H   0  0  0  0  0  0
  -29.1265  -22.4139   20.6618 H   0  0  0  0  0  0
  -31.2471  -24.3601   21.6878 H   0  0  0  0  0  0
  -29.5944  -24.3285   22.2681 H   0  0  0  0  0  0
  -30.3017  -25.8344   21.7143 H   0  0  0  0  0  0
  -27.6364  -24.7607   20.7031 H   0  0  0  0  0  0
  -27.9124  -24.9261   18.9811 H   0  0  0  0  0  0
  -28.9553  -15.3336   21.2635 H   0  0  0  0  0  0
  -33.2176  -20.0794   20.9694 H   0  0  0  0  0  0
  -33.4495  -21.7766   20.7292 H   0  0  0  0  0  0
  1 25  1  0  0  0
  1 30  2  0  0  0
  1 86  1  0  0  0
  2  3  1  0  0  0
  2 25  1  0  0  0
  2 89  1  0  0  0
  2 90  1  0  0  0
  3  4  1  0  0  0
  3 91  1  0  0  0
  3 92  1  0  0  0
  4  5  1  0  0  0
  4 93  1  0  0  0
  4 94  1  0  0  0
  5  6  1  0  0  0
  5 26  1  0  0  0
  5 95  1  0  0  0
  6 25  1  0  0  0
  6 96  1  0  0  0
  6 97  1  0  0  0
  7  8  2  0  0  0
  7 26  1  0  0  0
  7 29  1  0  0  0
  8  9  1  0  0  0
  8 22  1  0  0  0
  9 10  1  0  0  0
  9 27  2  0  0  0
 10 11  2  0  0  0
 10 15  1  0  0  0
 11 12  1  0  0  0
 11 98  1  0  0  0
 12 13  2  0  0  0
 12 99  1  0  0  0
 13 14  1  0  0  0
 13 31  1  0  0  0
 14 15  2  0  0  0
 14100  1  0  0  0
 15101  1  0  0  0
 16 17  2  0  0  0
 16 21  1  0  0  0
 16 31  1  0  0  0
 17 18  1  0  0  0
 17102  1  0  0  0
 18 19  2  0  0  0
 18103  1  0  0  0
 19 20  1  0  0  0
 19 24  1  0  0  0
 20 21  2  0  0  0
 20104  1  0  0  0
 21 23  1  0  0  0
 22 28  1  0  0  0
 22 32  2  0  0  0
 26 27  1  0  0  0
 28105  1  0  0  0
 28106  1  0  0  0
 29107  1  0  0  0
 29108  1  0  0  0
 33 34  1  0  0  0
 33 66  1  0  0  0
 33 70  2  0  0  0
 34 36  1  0  0  0
 34 59  1  0  0  0
 34109  1  0  0  0
 35 44  2  0  0  0
 35 45  1  0  0  0
 35 68  1  0  0  0
 36 56  1  0  0  0
 36110  1  0  0  0
 37 39  1  0  0  0
 37 47  1  0  0  0
 37 66  1  0  0  0
 37111  1  0  0  0
 38 43  2  0  0  0
 38 46  1  0  0  0
 38 47  1  0  0  0
 39 64  1  0  0  0
 39 67  2  0  0  0
 40 52  1  0  0  0
 40 53  2  0  0  0
 40 58  1  0  0  0
 41112  1  0  0  0
 41113  1  0  0  0
 41114  1  0  0  0
 41 48  1  0  0  0
 42 43  1  0  0  0
 42 66  1  0  0  0
 42115  1  0  0  0
 42116  1  0  0  0
 43 44  1  0  0  0
 44117  1  0  0  0
 45 46  2  0  0  0
 45118  1  0  0  0
 46119  1  0  0  0
 47120  1  0  0  0
 47121  1  0  0  0
 48 56  1  0  0  0
 48 65  1  0  0  0
 48122  1  0  0  0
 49 50  1  0  0  0
 49 53  1  0  0  0
 49 64  1  0  0  0
 49123  1  0  0  0
 50 51  1  0  0  0
 50124  1  0  0  0
 50125  1  0  0  0
 51 52  1  0  0  0
 51126  1  0  0  0
 51127  1  0  0  0
 52128  1  0  0  0
 52129  1  0  0  0
 53 54  1  0  0  0
 54 55  2  0  0  0
 54130  1  0  0  0
 55 57  1  0  0  0
 55131  1  0  0  0
 56 69  2  0  0  0
 57 58  2  0  0  0
 57132  1  0  0  0
 58133  1  0  0  0
 59 60  1  0  0  0
 59 61  1  0  0  0
 59 62  1  0  0  0
 60134  1  0  0  0
 60135  1  0  0  0
 60136  1  0  0  0
 61137  1  0  0  0
 61138  1  0  0  0
 61139  1  0  0  0
 62140  1  0  0  0
 62141  1  0  0  0
 62142  1  0  0  0
 63 65  1  0  0  0
 63143  1  0  0  0
 63144  1  0  0  0
 63145  1  0  0  0
 64146  1  0  0  0
 65147  1  0  0  0
 68 84  1  0  0  0
 71 72  2  0  0  0
 71 74  1  0  0  0
 71148  1  0  0  0
 72 75  1  0  0  0
 72149  1  0  0  0
 73 75  2  0  0  0
 73 76  1  0  0  0
 73150  1  0  0  0
 74 76  2  0  0  0
 74 77  1  0  0  0
 75 86  1  0  0  0
 76 88  1  0  0  0
 77 85  1  0  0  0
 77 87  2  0  0  0
 78 79  1  0  0  0
 78 80  1  0  0  0
 78151  1  0  0  0
 78152  1  0  0  0
 79 82  1  0  0  0
 79153  1  0  0  0
 79154  1  0  0  0
 80 85  1  0  0  0
 80155  1  0  0  0
 80156  1  0  0  0
 81 82  1  0  0  0
 81 85  1  0  0  0
 81157  1  0  0  0
 81158  1  0  0  0
 82 83  1  0  0  0
 82 84  1  0  0  0
 83159  1  0  0  0
 83160  1  0  0  0
 83161  1  0  0  0
 84162  1  0  0  0
 84163  1  0  0  0
 86164  1  0  0  0
 87165  1  0  0  0
 87166  1  0  0  0
M  CHG  1  87   1
M  ISO  4   1 100  68 101  84 101  86 100
M  END
> <chiral flag>
0

> <version>
0

> <s_m_source_file>
/data/baiqing/PycharmProjects/Reinvent-master-3.2/result/LINK_invent/BTK/process_docking_weight1_custom_product_contain_oxygen_bond_distance_aromatic_linkinvent_7_9_3/rearranged_h_0146.sdf

> <i_m_source_file_index>
45

> <r_mmod_Potential_Energy-OPLS-2005>
9.74612140655518

> <r_mmod_Stretch_Energy-OPLS-2005>
63.5590553283691

> <r_mmod_Bend_Energy-OPLS-2005>
131.739364624023

> <r_mmod_Torsional_Energy-OPLS-2005>
333.098693847656

> <r_mmod_Improper_Torsional_Energy-OPLS-2005>
7.14307880401611

> <r_mmod_Van_der_Waal_Energy-OPLS-2005>
171.548919677734

> <r_mmod_Electrostatic_Energy-OPLS-2005>
-329.365905761719

> <r_mmod_Solvation_Energy-OPLS-2005>
-391.736511230469

> <b_mmod_Minimization_Converged-OPLS-2005>
0

> <r_mmod_RMS_Derivative-OPLS-2005>
1.01930439472198

$$$$
45
                    3D
 Structure written by MMmdl.
161171  0  0  1  0            999 V2000
  -30.6094  -14.6631   20.5100 C   0  0  0  0  0  0
  -30.4375  -12.4038   19.4710 C   0  0  0  0  0  0
  -29.5159  -12.4847   18.2353 C   0  0  0  0  0  0
  -28.0403  -12.3101   18.6500 C   0  0  0  0  0  0
  -27.6466  -13.2111   19.8511 C   0  0  2  0  0  0
  -28.6819  -13.1011   20.9891 C   0  0  0  0  0  0
  -25.2548  -13.8155   20.5668 C   0  0  0  0  0  0
  -24.1817  -13.0429   20.9176 C   0  0  0  0  0  0
  -24.6375  -11.6901   20.8729 C   0  0  0  0  0  0
  -23.9052  -10.4283   21.0396 C   0  0  0  0  0  0
  -24.3609   -9.4193   21.9164 C   0  0  0  0  0  0
  -23.6283   -8.2228   22.0739 C   0  0  0  0  0  0
  -22.4258   -8.0273   21.3534 C   0  0  0  0  0  0
  -21.9894   -9.0243   20.4633 C   0  0  0  0  0  0
  -22.7228  -10.2121   20.3039 C   0  0  0  0  0  0
  -21.6849   -6.0731   22.5286 C   0  0  0  0  0  0
  -21.4014   -6.5637   23.8221 C   0  0  0  0  0  0
  -21.3662   -5.6789   24.9181 C   0  0  0  0  0  0
  -21.6044   -4.3052   24.7225 C   0  0  0  0  0  0
  -21.8812   -3.8142   23.4347 C   0  0  0  0  0  0
  -21.9184   -4.6960   22.3404 C   0  0  0  0  0  0
  -22.7841  -13.5238   21.1854 C   0  0  0  0  0  0
  -22.1650   -4.2149   21.0981 F   0  0  0  0  0  0
  -21.5628   -3.4538   25.7735 F   0  0  0  0  0  0
  -29.9924  -13.4423   20.4203 N   0  0  0  0  0  0
  -26.2950  -12.9322   20.3242 N   0  0  0  0  0  0
  -25.9291  -11.6491   20.5707 N   0  0  0  0  0  0
  -22.0485  -12.8238   22.0416 N   0  0  0  0  0  0
  -25.4294  -15.1878   20.4132 N   0  0  0  0  0  0
  -31.7874  -14.8042   20.1651 O   0  0  0  0  0  0
  -21.6621   -6.8873   21.4240 O   0  0  0  0  0  0
  -22.3536  -14.5542   20.6711 O   0  0  0  0  0  0
  -24.6264  -31.8587   23.1978 C   0  0  0  0  0  0
  -25.9102  -32.4779   23.8327 C   0  0  1  0  0  0
  -27.2283  -27.3082   20.1276 C   0  0  0  0  0  0
  -25.5910  -33.8574   24.2267 N   0  0  0  0  0  0
  -23.4222  -30.4779   21.5420 C   0  0  2  0  0  0
  -24.8703  -28.9228   20.1146 C   0  0  0  0  0  0
  -22.7479  -29.4604   22.4933 C   0  0  0  0  0  0
  -18.0293  -28.1381   22.8503 C   0  0  0  0  0  0
  -24.1488  -36.7283   23.2641 C   0  0  0  0  0  0
  -25.9600  -30.7886   21.3652 C   0  0  0  0  0  0
  -26.0373  -29.4096   20.7168 C   0  0  0  0  0  0
  -27.2224  -28.6144   20.7095 C   0  0  0  0  0  0
  -26.0416  -26.8667   19.5113 C   0  0  0  0  0  0
  -24.8735  -27.6578   19.5018 C   0  0  0  0  0  0
  -23.6384  -29.8061   20.1588 C   0  0  0  0  0  0
  -25.4115  -36.3083   24.0334 C   0  0  1  0  0  0
  -20.5899  -28.3680   23.1302 C   0  0  2  0  0  0
  -20.6780  -26.9401   22.5432 C   0  0  0  0  0  0
  -19.5746  -26.6390   21.5235 C   0  0  0  0  0  0
  -18.1925  -26.7927   22.1645 C   0  0  0  0  0  0
  -19.1549  -28.8849   23.2899 C   0  0  0  0  0  0
  -18.9463  -30.1456   23.8904 C   0  0  0  0  0  0
  -17.6459  -30.6578   24.0577 C   0  0  0  0  0  0
  -25.9047  -34.9456   23.5108 C   0  0  0  0  0  0
  -16.5354  -29.9083   23.6328 C   0  0  0  0  0  0
  -16.7282  -28.6510   23.0339 C   0  0  0  0  0  0
  -26.4493  -31.6577   25.0687 C   0  0  0  0  0  0
  -25.3741  -31.3688   26.1427 C   0  0  0  0  0  0
  -27.0319  -30.3019   24.6075 C   0  0  0  0  0  0
  -27.6078  -32.4281   25.7444 C   0  0  0  0  0  0
  -27.5574  -37.1796   24.8474 C   0  0  0  0  0  0
  -21.4194  -29.3028   22.3686 N   0  0  0  0  0  0
  -26.4292  -37.3779   23.9408 N   0  0  0  0  0  0
  -24.6889  -31.0586   22.0929 N   0  0  0  0  0  0
  -23.4204  -28.8155   23.3021 O   0  0  0  0  0  0
  -28.3583  -26.4796   20.1075 O   0  0  0  0  0  0
  -26.5629  -34.8933   22.4676 O   0  0  0  0  0  0
  -23.5423  -32.1399   23.7292 O   0  0  0  0  0  0
  -29.1333  -18.9727   18.8413 C   0  0  0  0  0  0
  -29.4813  -17.5767   18.8326 C   0  0  0  0  0  0
  -29.0886  -19.1330   21.3105 C   0  0  0  0  0  0
  -29.4489  -17.7580   21.2832 C   0  0  0  0  0  0
  -28.9052  -19.7680   20.0295 C   0  0  0  0  0  0
  -29.6159  -16.9809   20.0921 C   0  0  0  0  0  0
  -29.7083  -16.5099   22.1202 C   0  0  0  0  0  0
  -30.9191  -23.5886   19.5174 C   0  0  0  0  0  0
  -29.6911  -24.0507   18.7352 C   0  0  0  0  0  0
  -30.4083  -22.4539   20.4204 C   0  0  0  0  0  0
  -28.5263  -23.8120   19.7023 C   0  0  2  0  0  0
  -28.2881  -21.2212   19.8461 C   0  0  0  0  0  0
  -28.2754  -25.0938   20.6440 C   0  0  0  0  0  0
  -29.8098  -15.7443   20.8126 N   0  0  0  0  0  0
  -28.9219  -22.4966   20.3963 N   0  3  1  0  0  0
  -31.4811  -12.5298   19.1792 H   0  0  0  0  0  0
  -30.3743  -11.4196   19.9375 H   0  0  0  0  0  0
  -29.7947  -11.7208   17.5074 H   0  0  0  0  0  0
  -29.6467  -13.4454   17.7358 H   0  0  0  0  0  0
  -27.9075  -11.2625   18.9222 H   0  0  0  0  0  0
  -27.3788  -12.4888   17.8029 H   0  0  0  0  0  0
  -27.6567  -14.2367   19.4805 H   0  0  0  0  0  0
  -28.6977  -12.0922   21.4040 H   0  0  0  0  0  0
  -28.4162  -13.7627   21.8159 H   0  0  0  0  0  0
  -25.2755   -9.5665   22.4749 H   0  0  0  0  0  0
  -23.9987   -7.4610   22.7465 H   0  0  0  0  0  0
  -21.0821   -8.8774   19.8944 H   0  0  0  0  0  0
  -22.3689  -10.9659   19.6154 H   0  0  0  0  0  0
  -21.2021   -7.6146   23.9729 H   0  0  0  0  0  0
  -21.1490   -6.0519   25.9092 H   0  0  0  0  0  0
  -22.0587   -2.7603   23.2848 H   0  0  0  0  0  0
  -22.4108  -11.9938   22.4854 H   0  0  0  0  0  0
  -21.1092  -13.1259   22.2588 H   0  0  0  0  0  0
  -24.6721  -15.8489   20.5476 H   0  0  0  0  0  0
  -26.2951  -15.6265   20.1262 H   0  0  0  0  0  0
  -26.7170  -32.5470   23.1078 H   0  0  0  0  0  0
  -25.0047  -33.9714   25.0410 H   0  0  0  0  0  0
  -22.7166  -31.2981   21.3952 H   0  0  0  0  0  0
  -23.3756  -35.9608   23.3326 H   0  0  0  0  0  0
  -24.3571  -36.8880   22.2047 H   0  0  0  0  0  0
  -23.7244  -37.6491   23.6655 H   0  0  0  0  0  0
  -26.0791  -31.5449   20.5875 H   0  0  0  0  0  0
  -26.8453  -30.8534   21.9861 H   0  0  0  0  0  0
  -28.1239  -28.9863   21.1750 H   0  0  0  0  0  0
  -26.0176  -25.8998   19.0300 H   0  0  0  0  0  0
  -23.9812  -27.2805   19.0228 H   0  0  0  0  0  0
  -23.7578  -30.5814   19.4003 H   0  0  0  0  0  0
  -22.7596  -29.2345   19.8561 H   0  0  0  0  0  0
  -25.1299  -36.1934   25.0828 H   0  0  0  0  0  0
  -20.9995  -28.3248   24.1424 H   0  0  0  0  0  0
  -20.5690  -26.2268   23.3622 H   0  0  0  0  0  0
  -21.6641  -26.7426   22.1215 H   0  0  0  0  0  0
  -19.6895  -25.6313   21.1225 H   0  0  0  0  0  0
  -19.6676  -27.3237   20.6792 H   0  0  0  0  0  0
  -17.4199  -26.6698   21.4042 H   0  0  0  0  0  0
  -18.0306  -26.0068   22.9034 H   0  0  0  0  0  0
  -19.7937  -30.7288   24.2251 H   0  0  0  0  0  0
  -17.5009  -31.6254   24.5182 H   0  0  0  0  0  0
  -15.5352  -30.2982   23.7636 H   0  0  0  0  0  0
  -15.8690  -28.0837   22.7014 H   0  0  0  0  0  0
  -24.5961  -30.6974   25.7780 H   0  0  0  0  0  0
  -24.8872  -32.2824   26.4833 H   0  0  0  0  0  0
  -25.8095  -30.8915   27.0215 H   0  0  0  0  0  0
  -26.2849  -29.6768   24.1164 H   0  0  0  0  0  0
  -27.4139  -29.7266   25.4518 H   0  0  0  0  0  0
  -27.8671  -30.4347   23.9194 H   0  0  0  0  0  0
  -27.2743  -33.3619   26.1977 H   0  0  0  0  0  0
  -28.3904  -32.6754   25.0260 H   0  0  0  0  0  0
  -28.0720  -31.8411   26.5378 H   0  0  0  0  0  0
  -28.2622  -38.0067   24.7504 H   0  0  0  0  0  0
  -28.1040  -36.2599   24.6332 H   0  0  0  0  0  0
  -27.2284  -37.1487   25.8878 H   0  0  0  0  0  0
  -20.9356  -29.8744   21.6907 H   0  0  0  0  0  0
  -26.0177  -38.2853   24.1418 H   0  0  0  0  0  0
  -28.9696  -19.4346   17.8765 H   0  0  0  0  0  0
  -29.5870  -17.0135   17.9150 H   0  0  0  0  0  0
  -28.9023  -19.6499   22.2419 H   0  0  0  0  0  0
  -28.8565  -16.2332   22.7429 H   0  0  0  0  0  0
  -30.6335  -16.5652   22.6930 H   0  0  0  0  0  0
  -31.3055  -24.4081   20.1269 H   0  0  0  0  0  0
  -31.7313  -23.2583   18.8684 H   0  0  0  0  0  0
  -29.5666  -23.4190   17.8533 H   0  0  0  0  0  0
  -29.7629  -25.0797   18.3812 H   0  0  0  0  0  0
  -30.7525  -22.5968   21.4466 H   0  0  0  0  0  0
  -30.8145  -21.4966   20.0920 H   0  0  0  0  0  0
  -27.6114  -23.6669   19.1261 H   0  0  0  0  0  0
  -27.2602  -21.1825   20.2065 H   0  0  0  0  0  0
  -28.1944  -21.3729   18.7706 H   0  0  0  0  0  0
  -29.0359  -25.0666   21.4241 H   0  0  0  0  0  0
  -27.3330  -24.9612   21.1776 H   0  0  0  0  0  0
  -28.6107  -22.5338   21.3561 H   0  0  0  0  0  0
  1 25  1  0  0  0
  1 30  2  0  0  0
  1 84  1  0  0  0
  2  3  1  0  0  0
  2 25  1  0  0  0
  2 86  1  0  0  0
  2 87  1  0  0  0
  3  4  1  0  0  0
  3 88  1  0  0  0
  3 89  1  0  0  0
  4  5  1  0  0  0
  4 90  1  0  0  0
  4 91  1  0  0  0
  5  6  1  0  0  0
  5 26  1  0  0  0
  5 92  1  0  0  0
  6 25  1  0  0  0
  6 93  1  0  0  0
  6 94  1  0  0  0
  7  8  2  0  0  0
  7 26  1  0  0  0
  7 29  1  0  0  0
  8  9  1  0  0  0
  8 22  1  0  0  0
  9 10  1  0  0  0
  9 27  2  0  0  0
 10 11  2  0  0  0
 10 15  1  0  0  0
 11 12  1  0  0  0
 11 95  1  0  0  0
 12 13  2  0  0  0
 12 96  1  0  0  0
 13 14  1  0  0  0
 13 31  1  0  0  0
 14 15  2  0  0  0
 14 97  1  0  0  0
 15 98  1  0  0  0
 16 17  2  0  0  0
 16 21  1  0  0  0
 16 31  1  0  0  0
 17 18  1  0  0  0
 17 99  1  0  0  0
 18 19  2  0  0  0
 18100  1  0  0  0
 19 20  1  0  0  0
 19 24  1  0  0  0
 20 21  2  0  0  0
 20101  1  0  0  0
 21 23  1  0  0  0
 22 28  1  0  0  0
 22 32  2  0  0  0
 26 27  1  0  0  0
 28102  1  0  0  0
 28103  1  0  0  0
 29104  1  0  0  0
 29105  1  0  0  0
 33 34  1  0  0  0
 33 66  1  0  0  0
 33 70  2  0  0  0
 34 36  1  0  0  0
 34 59  1  0  0  0
 34106  1  0  0  0
 35 44  2  0  0  0
 35 45  1  0  0  0
 35 68  1  0  0  0
 36 56  1  0  0  0
 36107  1  0  0  0
 37 39  1  0  0  0
 37 47  1  0  0  0
 37 66  1  0  0  0
 37108  1  0  0  0
 38 43  2  0  0  0
 38 46  1  0  0  0
 38 47  1  0  0  0
 39 64  1  0  0  0
 39 67  2  0  0  0
 40 52  1  0  0  0
 40 53  2  0  0  0
 40 58  1  0  0  0
 41109  1  0  0  0
 41110  1  0  0  0
 41111  1  0  0  0
 41 48  1  0  0  0
 42 43  1  0  0  0
 42 66  1  0  0  0
 42112  1  0  0  0
 42113  1  0  0  0
 43 44  1  0  0  0
 44114  1  0  0  0
 45 46  2  0  0  0
 45115  1  0  0  0
 46116  1  0  0  0
 47117  1  0  0  0
 47118  1  0  0  0
 48 56  1  0  0  0
 48 65  1  0  0  0
 48119  1  0  0  0
 49 50  1  0  0  0
 49 53  1  0  0  0
 49 64  1  0  0  0
 49120  1  0  0  0
 50 51  1  0  0  0
 50121  1  0  0  0
 50122  1  0  0  0
 51 52  1  0  0  0
 51123  1  0  0  0
 51124  1  0  0  0
 52125  1  0  0  0
 52126  1  0  0  0
 53 54  1  0  0  0
 54 55  2  0  0  0
 54127  1  0  0  0
 55 57  1  0  0  0
 55128  1  0  0  0
 56 69  2  0  0  0
 57 58  2  0  0  0
 57129  1  0  0  0
 58130  1  0  0  0
 59 60  1  0  0  0
 59 61  1  0  0  0
 59 62  1  0  0  0
 60131  1  0  0  0
 60132  1  0  0  0
 60133  1  0  0  0
 61134  1  0  0  0
 61135  1  0  0  0
 61136  1  0  0  0
 62137  1  0  0  0
 62138  1  0  0  0
 62139  1  0  0  0
 63 65  1  0  0  0
 63140  1  0  0  0
 63141  1  0  0  0
 63142  1  0  0  0
 64143  1  0  0  0
 65144  1  0  0  0
 68 83  1  0  0  0
 71 72  2  0  0  0
 71 75  1  0  0  0
 71145  1  0  0  0
 72 76  1  0  0  0
 72146  1  0  0  0
 73 74  1  0  0  0
 73 75  2  0  0  0
 73147  1  0  0  0
 74 76  2  0  0  0
 74 77  1  0  0  0
 75 82  1  0  0  0
 76 84  1  0  0  0
 77 84  1  0  0  0
 77148  1  0  0  0
 77149  1  0  0  0
 78 79  1  0  0  0
 78 80  1  0  0  0
 78150  1  0  0  0
 78151  1  0  0  0
 79 81  1  0  0  0
 79152  1  0  0  0
 79153  1  0  0  0
 80 85  1  0  0  0
 80154  1  0  0  0
 80155  1  0  0  0
 81 83  1  0  0  0
 81 85  1  0  0  0
 81156  1  0  0  0
 82157  1  0  0  0
 82158  1  0  0  0
 82 85  1  0  0  0
 83159  1  0  0  0
 83160  1  0  0  0
 85161  1  0  0  0
M  CHG  1  85   1
M  ISO  4   1 100  68 101  83 101  84 100
M  END
> <chiral flag>
0

> <version>
0

> <s_m_source_file>
/data/baiqing/PycharmProjects/Reinvent-master-3.2/result/LINK_invent/BTK/process_docking_weight1_custom_product_contain_oxygen_bond_distance_aromatic_linkinvent_7_9_3/rearranged_h_0146.sdf

> <i_m_source_file_index>
46

> <r_mmod_Potential_Energy-OPLS-2005>
627.095336914062

> <r_mmod_Stretch_Energy-OPLS-2005>
105.090705871582

> <r_mmod_Bend_Energy-OPLS-2005>
581.1474609375

> <r_mmod_Torsional_Energy-OPLS-2005>
362.597259521484

> <r_mmod_Improper_Torsional_Energy-OPLS-2005>
10.0635538101196

> <r_mmod_Van_der_Waal_Energy-OPLS-2005>
125.180862426758

> <r_mmod_Electrostatic_Energy-OPLS-2005>
-188.67546081543

> <r_mmod_Solvation_Energy-OPLS-2005>
-422.361724853516

> <b_mmod_Minimization_Converged-OPLS-2005>
0

> <r_mmod_RMS_Derivative-OPLS-2005>
2.74557399749756

$$$$
46
                    3D
 Structure written by MMmdl.
153162  0  0  1  0            999 V2000
  -30.6403  -14.5912   20.5184 C   0  0  0  0  0  0
  -30.4374  -12.3646   19.4433 C   0  0  0  0  0  0
  -29.5055  -12.5047   18.2192 C   0  0  0  0  0  0
  -28.0275  -12.3494   18.6309 C   0  0  0  0  0  0
  -27.6574  -13.2106   19.8677 C   0  0  2  0  0  0
  -28.7019  -13.0389   20.9944 C   0  0  0  0  0  0
  -25.2581  -13.8159   20.5678 C   0  0  0  0  0  0
  -24.1840  -13.0436   20.9190 C   0  0  0  0  0  0
  -24.6397  -11.6904   20.8740 C   0  0  0  0  0  0
  -23.9061  -10.4291   21.0406 C   0  0  0  0  0  0
  -24.3613   -9.4207   21.9183 C   0  0  0  0  0  0
  -23.6290   -8.2242   22.0753 C   0  0  0  0  0  0
  -22.4272   -8.0280   21.3544 C   0  0  0  0  0  0
  -21.9907   -9.0253   20.4646 C   0  0  0  0  0  0
  -22.7234  -10.2134   20.3055 C   0  0  0  0  0  0
  -21.6852   -6.0735   22.5279 C   0  0  0  0  0  0
  -21.4013   -6.5639   23.8212 C   0  0  0  0  0  0
  -21.3660   -5.6792   24.9174 C   0  0  0  0  0  0
  -21.6045   -4.3055   24.7225 C   0  0  0  0  0  0
  -21.8820   -3.8146   23.4346 C   0  0  0  0  0  0
  -21.9193   -4.6963   22.3402 C   0  0  0  0  0  0
  -22.7863  -13.5235   21.1853 C   0  0  0  0  0  0
  -22.1662   -4.2149   21.0980 F   0  0  0  0  0  0
  -21.5629   -3.4538   25.7737 F   0  0  0  0  0  0
  -30.0230  -13.3731   20.4361 N   0  0  0  0  0  0
  -26.3009  -12.9330   20.3333 N   0  0  0  0  0  0
  -25.9324  -11.6491   20.5760 N   0  0  0  0  0  0
  -22.0502  -12.8228   22.0407 N   0  0  0  0  0  0
  -25.4303  -15.1877   20.4069 N   0  0  0  0  0  0
  -31.7958  -14.7592   20.1174 O   0  0  0  0  0  0
  -21.6639   -6.8877   21.4240 O   0  0  0  0  0  0
  -22.3552  -14.5544   20.6703 O   0  0  0  0  0  0
  -24.6233  -31.8630   23.2058 C   0  0  0  0  0  0
  -25.9093  -32.4797   23.8374 C   0  0  1  0  0  0
  -27.2257  -27.3532   20.1048 C   0  0  0  0  0  0
  -25.5921  -33.8596   24.2303 N   0  0  0  0  0  0
  -23.4148  -30.4886   21.5482 C   0  0  2  0  0  0
  -24.8602  -28.9507   20.1117 C   0  0  0  0  0  0
  -22.7458  -29.4642   22.4951 C   0  0  0  0  0  0
  -18.0283  -28.1383   22.8490 C   0  0  0  0  0  0
  -24.1489  -36.7301   23.2639 C   0  0  0  0  0  0
  -25.9540  -30.8043   21.3722 C   0  0  0  0  0  0
  -26.0289  -29.4352   20.7129 C   0  0  0  0  0  0
  -27.2149  -28.6478   20.7008 C   0  0  0  0  0  0
  -26.0313  -26.9152   19.4827 C   0  0  0  0  0  0
  -24.8616  -27.6943   19.4900 C   0  0  0  0  0  0
  -23.6271  -29.8268   20.1622 C   0  0  0  0  0  0
  -25.4112  -36.3095   24.0334 C   0  0  1  0  0  0
  -20.5882  -28.3682   23.1293 C   0  0  2  0  0  0
  -20.6773  -26.9410   22.5410 C   0  0  0  0  0  0
  -19.5749  -26.6386   21.5213 C   0  0  0  0  0  0
  -18.1929  -26.7927   22.1625 C   0  0  0  0  0  0
  -19.1535  -28.8848   23.2889 C   0  0  0  0  0  0
  -18.9460  -30.1452   23.8902 C   0  0  0  0  0  0
  -17.6460  -30.6586   24.0564 C   0  0  0  0  0  0
  -25.9045  -34.9462   23.5116 C   0  0  0  0  0  0
  -16.5351  -29.9086   23.6328 C   0  0  0  0  0  0
  -16.7271  -28.6503   23.0351 C   0  0  0  0  0  0
  -26.4489  -31.6592   25.0728 C   0  0  0  0  0  0
  -25.3733  -31.3718   26.1460 C   0  0  0  0  0  0
  -27.0327  -30.3023   24.6155 C   0  0  0  0  0  0
  -27.6055  -32.4320   25.7497 C   0  0  0  0  0  0
  -27.5581  -37.1807   24.8466 C   0  0  0  0  0  0
  -21.4175  -29.3044   22.3692 N   0  0  0  0  0  0
  -26.4293  -37.3784   23.9408 N   0  0  0  0  0  0
  -24.6829  -31.0671   22.0994 N   0  0  0  0  0  0
  -23.4198  -28.8174   23.3010 O   0  0  0  0  0  0
  -28.3521  -26.5252   20.1480 O   0  0  0  0  0  0
  -26.5609  -34.8922   22.4680 O   0  0  0  0  0  0
  -23.5404  -32.1414   23.7404 O   0  0  0  0  0  0
  -31.1321  -19.2002   20.3866 C   0  0  0  0  0  0
  -28.8221  -19.2762   21.0411 C   0  0  0  0  0  0
  -31.1153  -17.7774   20.4317 C   0  0  0  0  0  0
  -28.8014  -17.8544   21.0938 C   0  0  0  0  0  0
  -29.9960  -19.9937   20.7023 C   0  0  0  0  0  0
  -29.9456  -17.0660   20.8019 C   0  0  0  0  0  0
  -29.2890  -24.1342   20.3673 C   0  0  0  0  0  0
  -29.6191  -22.2063   22.0212 C   0  0  0  0  0  0
  -30.1112  -21.5405   20.7636 C   0  0  2  0  0  0
  -29.0045  -22.6456   20.7063 C   0  0  2  0  0  0
  -28.1001  -25.0819   20.0067 C   0  0  0  0  0  0
  -29.8370  -15.6193   20.9172 N   0  0  0  0  0  0
  -30.4412  -24.5815   20.3947 O   0  0  0  0  0  0
  -31.4793  -12.4848   19.1411 H   0  0  0  0  0  0
  -30.3645  -11.3632   19.8705 H   0  0  0  0  0  0
  -29.7621  -11.7607   17.4637 H   0  0  0  0  0  0
  -29.6554  -13.4791   17.7513 H   0  0  0  0  0  0
  -27.8564  -11.2951   18.8517 H   0  0  0  0  0  0
  -27.3740  -12.5926   17.7922 H   0  0  0  0  0  0
  -27.6844  -14.2500   19.5405 H   0  0  0  0  0  0
  -28.7028  -12.0109   21.3599 H   0  0  0  0  0  0
  -28.4521  -13.6560   21.8589 H   0  0  0  0  0  0
  -25.2759   -9.5684   22.4757 H   0  0  0  0  0  0
  -24.0002   -7.4632   22.7470 H   0  0  0  0  0  0
  -21.0840   -8.8770   19.8950 H   0  0  0  0  0  0
  -22.3692  -10.9672   19.6164 H   0  0  0  0  0  0
  -21.2005   -7.6147   23.9715 H   0  0  0  0  0  0
  -21.1482   -6.0522   25.9077 H   0  0  0  0  0  0
  -22.0599   -2.7609   23.2846 H   0  0  0  0  0  0
  -22.4115  -11.9886   22.4792 H   0  0  0  0  0  0
  -21.1121  -13.1254   22.2612 H   0  0  0  0  0  0
  -24.6590  -15.8394   20.5023 H   0  0  0  0  0  0
  -26.2697  -15.6204   20.0434 H   0  0  0  0  0  0
  -26.7161  -32.5477   23.1126 H   0  0  0  0  0  0
  -25.0075  -33.9748   25.0452 H   0  0  0  0  0  0
  -22.7075  -31.3086   21.4084 H   0  0  0  0  0  0
  -23.3749  -35.9635   23.3307 H   0  0  0  0  0  0
  -24.3582  -36.8911   22.2051 H   0  0  0  0  0  0
  -23.7245  -37.6508   23.6651 H   0  0  0  0  0  0
  -26.0819  -31.5706   20.6063 H   0  0  0  0  0  0
  -26.8361  -30.8514   21.9991 H   0  0  0  0  0  0
  -28.1124  -29.0163   21.1781 H   0  0  0  0  0  0
  -25.9683  -25.9588   18.9862 H   0  0  0  0  0  0
  -23.9656  -27.3181   19.0151 H   0  0  0  0  0  0
  -23.7437  -30.6048   19.4068 H   0  0  0  0  0  0
  -22.7477  -29.2551   19.8601 H   0  0  0  0  0  0
  -25.1293  -36.1952   25.0826 H   0  0  0  0  0  0
  -20.9976  -28.3249   24.1413 H   0  0  0  0  0  0
  -20.5678  -26.2290   23.3604 H   0  0  0  0  0  0
  -21.6643  -26.7447   22.1201 H   0  0  0  0  0  0
  -19.6912  -25.6299   21.1236 H   0  0  0  0  0  0
  -19.6684  -27.3201   20.6746 H   0  0  0  0  0  0
  -17.4199  -26.6675   21.4026 H   0  0  0  0  0  0
  -18.0329  -26.0071   22.9022 H   0  0  0  0  0  0
  -19.7936  -30.7267   24.2273 H   0  0  0  0  0  0
  -17.5016  -31.6267   24.5165 H   0  0  0  0  0  0
  -15.5353  -30.2992   23.7650 H   0  0  0  0  0  0
  -15.8670  -28.0825   22.7064 H   0  0  0  0  0  0
  -24.5910  -30.7062   25.7794 H   0  0  0  0  0  0
  -24.8920  -32.2879   26.4894 H   0  0  0  0  0  0
  -25.8069  -30.8894   27.0230 H   0  0  0  0  0  0
  -26.2892  -29.6780   24.1186 H   0  0  0  0  0  0
  -27.4051  -29.7268   25.4640 H   0  0  0  0  0  0
  -27.8750  -30.4325   23.9355 H   0  0  0  0  0  0
  -27.2669  -33.3616   26.2084 H   0  0  0  0  0  0
  -28.3860  -32.6884   25.0322 H   0  0  0  0  0  0
  -28.0727  -31.8438   26.5405 H   0  0  0  0  0  0
  -28.2603  -38.0100   24.7512 H   0  0  0  0  0  0
  -28.1073  -36.2632   24.6295 H   0  0  0  0  0  0
  -27.2298  -37.1462   25.8869 H   0  0  0  0  0  0
  -20.9342  -29.8777   21.6919 H   0  0  0  0  0  0
  -26.0178  -38.2862   24.1404 H   0  0  0  0  0  0
  -32.0607  -19.6906   20.1288 H   0  0  0  0  0  0
  -27.9235  -19.8190   21.2994 H   0  0  0  0  0  0
  -32.0275  -17.2488   20.1961 H   0  0  0  0  0  0
  -27.8787  -17.3689   21.3806 H   0  0  0  0  0  0
  -30.3167  -22.8739   22.5247 H   0  0  0  0  0  0
  -28.9691  -21.6439   22.6884 H   0  0  0  0  0  0
  -31.0928  -21.8432   20.4019 H   0  0  0  0  0  0
  -27.9901  -22.3070   20.5073 H   0  0  0  0  0  0
  -27.2533  -24.7977   20.6324 H   0  0  0  0  0  0
  -27.8274  -24.8679   18.9733 H   0  0  0  0  0  0
  -28.9376  -15.2937   21.2358 H   0  0  0  0  0  0
  1 25  1  0  0  0
  1 30  2  0  0  0
  1 82  1  0  0  0
  2  3  1  0  0  0
  2 25  1  0  0  0
  2 84  1  0  0  0
  2 85  1  0  0  0
  3  4  1  0  0  0
  3 86  1  0  0  0
  3 87  1  0  0  0
  4  5  1  0  0  0
  4 88  1  0  0  0
  4 89  1  0  0  0
  5  6  1  0  0  0
  5 26  1  0  0  0
  5 90  1  0  0  0
  6 25  1  0  0  0
  6 91  1  0  0  0
  6 92  1  0  0  0
  7  8  2  0  0  0
  7 26  1  0  0  0
  7 29  1  0  0  0
  8  9  1  0  0  0
  8 22  1  0  0  0
  9 10  1  0  0  0
  9 27  2  0  0  0
 10 11  2  0  0  0
 10 15  1  0  0  0
 11 12  1  0  0  0
 11 93  1  0  0  0
 12 13  2  0  0  0
 12 94  1  0  0  0
 13 14  1  0  0  0
 13 31  1  0  0  0
 14 15  2  0  0  0
 14 95  1  0  0  0
 15 96  1  0  0  0
 16 17  2  0  0  0
 16 21  1  0  0  0
 16 31  1  0  0  0
 17 18  1  0  0  0
 17 97  1  0  0  0
 18 19  2  0  0  0
 18 98  1  0  0  0
 19 20  1  0  0  0
 19 24  1  0  0  0
 20 21  2  0  0  0
 20 99  1  0  0  0
 21 23  1  0  0  0
 22 28  1  0  0  0
 22 32  2  0  0  0
 26 27  1  0  0  0
 28100  1  0  0  0
 28101  1  0  0  0
 29102  1  0  0  0
 29103  1  0  0  0
 33 34  1  0  0  0
 33 66  1  0  0  0
 33 70  2  0  0  0
 34 36  1  0  0  0
 34 59  1  0  0  0
 34104  1  0  0  0
 35 44  2  0  0  0
 35 45  1  0  0  0
 35 68  1  0  0  0
 36 56  1  0  0  0
 36105  1  0  0  0
 37 39  1  0  0  0
 37 47  1  0  0  0
 37 66  1  0  0  0
 37106  1  0  0  0
 38 43  2  0  0  0
 38 46  1  0  0  0
 38 47  1  0  0  0
 39 64  1  0  0  0
 39 67  2  0  0  0
 40 52  1  0  0  0
 40 53  2  0  0  0
 40 58  1  0  0  0
 41107  1  0  0  0
 41108  1  0  0  0
 41109  1  0  0  0
 41 48  1  0  0  0
 42 43  1  0  0  0
 42 66  1  0  0  0
 42110  1  0  0  0
 42111  1  0  0  0
 43 44  1  0  0  0
 44112  1  0  0  0
 45 46  2  0  0  0
 45113  1  0  0  0
 46114  1  0  0  0
 47115  1  0  0  0
 47116  1  0  0  0
 48 56  1  0  0  0
 48 65  1  0  0  0
 48117  1  0  0  0
 49 50  1  0  0  0
 49 53  1  0  0  0
 49 64  1  0  0  0
 49118  1  0  0  0
 50 51  1  0  0  0
 50119  1  0  0  0
 50120  1  0  0  0
 51 52  1  0  0  0
 51121  1  0  0  0
 51122  1  0  0  0
 52123  1  0  0  0
 52124  1  0  0  0
 53 54  1  0  0  0
 54 55  2  0  0  0
 54125  1  0  0  0
 55 57  1  0  0  0
 55126  1  0  0  0
 56 69  2  0  0  0
 57 58  2  0  0  0
 57127  1  0  0  0
 58128  1  0  0  0
 59 60  1  0  0  0
 59 61  1  0  0  0
 59 62  1  0  0  0
 60129  1  0  0  0
 60130  1  0  0  0
 60131  1  0  0  0
 61132  1  0  0  0
 61133  1  0  0  0
 61134  1  0  0  0
 62135  1  0  0  0
 62136  1  0  0  0
 62137  1  0  0  0
 63 65  1  0  0  0
 63138  1  0  0  0
 63139  1  0  0  0
 63140  1  0  0  0
 64141  1  0  0  0
 65142  1  0  0  0
 68 81  1  0  0  0
 71 73  2  0  0  0
 71 75  1  0  0  0
 71143  1  0  0  0
 72 74  1  0  0  0
 72 75  2  0  0  0
 72144  1  0  0  0
 73 76  1  0  0  0
 73145  1  0  0  0
 74 76  2  0  0  0
 74146  1  0  0  0
 75 79  1  0  0  0
 76 82  1  0  0  0
 77 81  1  0  0  0
 77 83  2  0  0  0
 77 80  1  0  0  0
 78 79  1  0  0  0
 78 80  1  0  0  0
 78147  1  0  0  0
 78148  1  0  0  0
 79 80  1  0  0  0
 79149  1  0  0  0
 80150  1  0  0  0
 81151  1  0  0  0
 81152  1  0  0  0
 82153  1  0  0  0
M  ISO  4   1 100  68 101  81 101  82 100
M  END
> <chiral flag>
0

> <version>
0

> <s_m_source_file>
/data/baiqing/PycharmProjects/Reinvent-master-3.2/result/LINK_invent/BTK/process_docking_weight1_custom_product_contain_oxygen_bond_distance_aromatic_linkinvent_7_9_3/rearranged_h_0146.sdf

> <i_m_source_file_index>
47

> <r_mmod_Potential_Energy-OPLS-2005>
34.8261070251465

> <r_mmod_Stretch_Energy-OPLS-2005>
65.1283798217773

> <r_mmod_Bend_Energy-OPLS-2005>
125.960716247559

> <r_mmod_Torsional_Energy-OPLS-2005>
234.548004150391

> <r_mmod_Improper_Torsional_Energy-OPLS-2005>
4.3210825920105

> <r_mmod_Van_der_Waal_Energy-OPLS-2005>
148.481185913086

> <r_mmod_Electrostatic_Energy-OPLS-2005>
-351.666198730469

> <r_mmod_Solvation_Energy-OPLS-2005>
-226.603088378906

> <b_mmod_Minimization_Converged-OPLS-2005>
0

> <r_mmod_RMS_Derivative-OPLS-2005>
0.295433133840561

$$$$
47
                    3D
 Structure written by MMmdl.
166175  0  0  1  0            999 V2000
  -30.6226  -14.6090   20.4855 C   0  0  0  0  0  0
  -30.4466  -12.3676   19.4345 C   0  0  0  0  0  0
  -29.4998  -12.4809   18.2146 C   0  0  0  0  0  0
  -28.0313  -12.2944   18.6476 C   0  0  0  0  0  0
  -27.6575  -13.1881   19.8595 C   0  0  2  0  0  0
  -28.7067  -13.0385   20.9896 C   0  0  0  0  0  0
  -25.2632  -13.8148   20.5671 C   0  0  0  0  0  0
  -24.1855  -13.0469   20.9159 C   0  0  0  0  0  0
  -24.6369  -11.6903   20.8754 C   0  0  0  0  0  0
  -23.9019  -10.4300   21.0420 C   0  0  0  0  0  0
  -24.3589   -9.4211   21.9177 C   0  0  0  0  0  0
  -23.6279   -8.2249   22.0755 C   0  0  0  0  0  0
  -22.4270   -8.0271   21.3531 C   0  0  0  0  0  0
  -21.9879   -9.0246   20.4639 C   0  0  0  0  0  0
  -22.7204  -10.2132   20.3051 C   0  0  0  0  0  0
  -21.6854   -6.0718   22.5273 C   0  0  0  0  0  0
  -21.4006   -6.5628   23.8197 C   0  0  0  0  0  0
  -21.3668   -5.6789   24.9171 C   0  0  0  0  0  0
  -21.6053   -4.3046   24.7223 C   0  0  0  0  0  0
  -21.8830   -3.8137   23.4346 C   0  0  0  0  0  0
  -21.9184   -4.6947   22.3401 C   0  0  0  0  0  0
  -22.7884  -13.5259   21.1852 C   0  0  0  0  0  0
  -22.1659   -4.2127   21.0975 F   0  0  0  0  0  0
  -21.5633   -3.4535   25.7741 F   0  0  0  0  0  0
  -30.0278  -13.3767   20.4217 N   0  0  0  0  0  0
  -26.3020  -12.9268   20.3348 N   0  0  0  0  0  0
  -25.9267  -11.6441   20.5772 N   0  0  0  0  0  0
  -22.0511  -12.8240   22.0411 N   0  0  0  0  0  0
  -25.4429  -15.1842   20.4027 N   0  0  0  0  0  0
  -31.7769  -14.8164   20.1114 O   0  0  0  0  0  0
  -21.6649   -6.8859   21.4236 O   0  0  0  0  0  0
  -22.3573  -14.5569   20.6717 O   0  0  0  0  0  0
  -24.6278  -31.8662   23.2066 C   0  0  0  0  0  0
  -25.9139  -32.4782   23.8401 C   0  0  1  0  0  0
  -27.1860  -27.3360   20.0656 C   0  0  0  0  0  0
  -25.5920  -33.8596   24.2315 N   0  0  0  0  0  0
  -23.4102  -30.5038   21.5490 C   0  0  2  0  0  0
  -24.8347  -28.9719   20.1222 C   0  0  0  0  0  0
  -22.7470  -29.4664   22.4880 C   0  0  0  0  0  0
  -18.0287  -28.1434   22.8452 C   0  0  0  0  0  0
  -24.1463  -36.7350   23.2635 C   0  0  0  0  0  0
  -25.9540  -30.8063   21.3658 C   0  0  0  0  0  0
  -26.0170  -29.4338   20.7174 C   0  0  0  0  0  0
  -27.1941  -28.6249   20.6867 C   0  0  0  0  0  0
  -25.9502  -26.9111   19.5157 C   0  0  0  0  0  0
  -24.8014  -27.7108   19.5373 C   0  0  0  0  0  0
  -23.6102  -29.8619   20.1553 C   0  0  0  0  0  0
  -25.4077  -36.3089   24.0338 C   0  0  1  0  0  0
  -20.5885  -28.3702   23.1266 C   0  0  2  0  0  0
  -20.6757  -26.9430   22.5403 C   0  0  0  0  0  0
  -19.5747  -26.6402   21.5192 C   0  0  0  0  0  0
  -18.1924  -26.7964   22.1607 C   0  0  0  0  0  0
  -19.1527  -28.8881   23.2844 C   0  0  0  0  0  0
  -18.9467  -30.1455   23.8896 C   0  0  0  0  0  0
  -17.6465  -30.6607   24.0554 C   0  0  0  0  0  0
  -25.9057  -34.9456   23.5125 C   0  0  0  0  0  0
  -16.5356  -29.9141   23.6289 C   0  0  0  0  0  0
  -16.7260  -28.6560   23.0325 C   0  0  0  0  0  0
  -26.4512  -31.6566   25.0742 C   0  0  0  0  0  0
  -25.3737  -31.3723   26.1464 C   0  0  0  0  0  0
  -27.0282  -30.2958   24.6139 C   0  0  0  0  0  0
  -27.6023  -32.4301   25.7545 C   0  0  0  0  0  0
  -27.5554  -37.1823   24.8466 C   0  0  0  0  0  0
  -21.4179  -29.3099   22.3660 N   0  0  0  0  0  0
  -26.4236  -37.3794   23.9444 N   0  0  0  0  0  0
  -24.6837  -31.0797   22.0945 N   0  0  0  0  0  0
  -23.4282  -28.8211   23.2943 O   0  0  0  0  0  0
  -28.3214  -26.5031   19.9872 O   0  0  0  0  0  0
  -26.5649  -34.8892   22.4715 O   0  0  0  0  0  0
  -23.5409  -32.1390   23.7422 O   0  0  0  0  0  0
  -28.9981  -17.6448   21.8133 C   0  0  0  0  0  0
  -28.9557  -19.0725   21.6949 C   0  0  0  0  0  0
  -29.7073  -19.5786   20.6446 C   0  0  0  0  0  0
  -29.7662  -16.9691   20.9048 C   0  0  0  0  0  0
  -29.3085  -21.4057   18.7735 C   0  0  0  0  0  0
  -29.6219  -22.2318   21.1330 C   0  0  0  0  0  0
  -28.5616  -22.7779   18.6681 C   0  0  0  0  0  0
  -29.9845  -23.6430   20.5771 C   0  0  0  0  0  0
  -29.9239  -21.0505   20.1611 C   0  0  1  0  0  0
  -29.2399  -24.0615   19.2768 C   0  0  1  0  0  0
  -30.2288  -24.6485   18.2404 C   0  0  0  0  0  0
  -28.1466  -19.8210   22.7126 C   0  0  0  0  0  0
  -28.0878  -25.1188   19.5365 C   0  0  0  0  0  0
  -29.7570  -15.5922   20.8563 N   0  0  0  0  0  0
  -29.0262  -20.1799   23.8310 N   0  3  0  0  0  0
  -30.5322  -18.1871   19.8647 S   0  0  0  0  0  0
  -31.4871  -12.4961   19.1309 H   0  0  0  0  0  0
  -30.3777  -11.3707   19.8695 H   0  0  0  0  0  0
  -29.7616  -11.7316   17.4654 H   0  0  0  0  0  0
  -29.6194  -13.4536   17.7345 H   0  0  0  0  0  0
  -27.8983  -11.2445   18.9110 H   0  0  0  0  0  0
  -27.3559  -12.4734   17.8111 H   0  0  0  0  0  0
  -27.6812  -14.2167   19.4998 H   0  0  0  0  0  0
  -28.7196  -12.0174   21.3736 H   0  0  0  0  0  0
  -28.4480  -13.6611   21.8492 H   0  0  0  0  0  0
  -25.2733   -9.5706   22.4731 H   0  0  0  0  0  0
  -23.9988   -7.4650   22.7465 H   0  0  0  0  0  0
  -21.0813   -8.8754   19.8936 H   0  0  0  0  0  0
  -22.3653  -10.9663   19.6149 H   0  0  0  0  0  0
  -21.2012   -7.6132   23.9694 H   0  0  0  0  0  0
  -21.1477   -6.0517   25.9065 H   0  0  0  0  0  0
  -22.0599   -2.7588   23.2861 H   0  0  0  0  0  0
  -22.4118  -11.9873   22.4785 H   0  0  0  0  0  0
  -21.1123  -13.1261   22.2610 H   0  0  0  0  0  0
  -24.6865  -15.8473   20.5172 H   0  0  0  0  0  0
  -26.2949  -15.6149   20.0736 H   0  0  0  0  0  0
  -26.7238  -32.5480   23.1175 H   0  0  0  0  0  0
  -24.9928  -33.9802   25.0345 H   0  0  0  0  0  0
  -22.6927  -31.3177   21.4299 H   0  0  0  0  0  0
  -23.3641  -35.9756   23.3257 H   0  0  0  0  0  0
  -24.3526  -36.9014   22.2045 H   0  0  0  0  0  0
  -23.7278  -37.6575   23.6680 H   0  0  0  0  0  0
  -26.0739  -31.5508   20.5739 H   0  0  0  0  0  0
  -26.8391  -30.8598   21.9867 H   0  0  0  0  0  0
  -28.0989  -28.9895   21.1499 H   0  0  0  0  0  0
  -25.7977  -25.9566   19.0377 H   0  0  0  0  0  0
  -23.8907  -27.3468   19.0851 H   0  0  0  0  0  0
  -23.7393  -30.6474   19.4056 H   0  0  0  0  0  0
  -22.7192  -29.3015   19.8463 H   0  0  0  0  0  0
  -25.1211  -36.1911   25.0814 H   0  0  0  0  0  0
  -20.9935  -28.3303   24.1403 H   0  0  0  0  0  0
  -20.5627  -26.2320   23.3620 H   0  0  0  0  0  0
  -21.6645  -26.7451   22.1223 H   0  0  0  0  0  0
  -19.6916  -25.6318   21.1244 H   0  0  0  0  0  0
  -19.6712  -27.3180   20.6705 H   0  0  0  0  0  0
  -17.4170  -26.6580   21.4044 H   0  0  0  0  0  0
  -18.0368  -26.0160   22.9064 H   0  0  0  0  0  0
  -19.7944  -30.7223   24.2298 H   0  0  0  0  0  0
  -17.5061  -31.6303   24.5179 H   0  0  0  0  0  0
  -15.5363  -30.3097   23.7648 H   0  0  0  0  0  0
  -15.8615  -28.0920   22.7060 H   0  0  0  0  0  0
  -24.5944  -30.6994   25.7888 H   0  0  0  0  0  0
  -24.8863  -32.2874   26.4841 H   0  0  0  0  0  0
  -25.8100  -30.9013   27.0280 H   0  0  0  0  0  0
  -26.2812  -29.6813   24.1082 H   0  0  0  0  0  0
  -27.3856  -29.7128   25.4657 H   0  0  0  0  0  0
  -27.8761  -30.4212   23.9376 H   0  0  0  0  0  0
  -27.2592  -33.3630   26.2052 H   0  0  0  0  0  0
  -28.3912  -32.6811   25.0441 H   0  0  0  0  0  0
  -28.0569  -31.8441   26.5541 H   0  0  0  0  0  0
  -28.2551  -38.0140   24.7451 H   0  0  0  0  0  0
  -28.1040  -36.2640   24.6276 H   0  0  0  0  0  0
  -27.2291  -37.1490   25.8882 H   0  0  0  0  0  0
  -20.9316  -29.8882   21.6957 H   0  0  0  0  0  0
  -26.0073  -38.2845   24.1434 H   0  0  0  0  0  0
  -28.4194  -17.1469   22.5764 H   0  0  0  0  0  0
  -30.0908  -21.3647   18.0140 H   0  0  0  0  0  0
  -28.5966  -20.6257   18.4909 H   0  0  0  0  0  0
  -28.5561  -22.2757   21.3621 H   0  0  0  0  0  0
  -30.1538  -22.0737   22.0672 H   0  0  0  0  0  0
  -27.5897  -22.6328   19.1451 H   0  0  0  0  0  0
  -28.2935  -22.9811   17.6301 H   0  0  0  0  0  0
  -31.0632  -23.6902   20.4119 H   0  0  0  0  0  0
  -29.7649  -24.3826   21.3470 H   0  0  0  0  0  0
  -30.9994  -21.1305   20.0009 H   0  0  0  0  0  0
  -30.6580  -25.5810   18.6059 H   0  0  0  0  0  0
  -29.7483  -24.8810   17.2890 H   0  0  0  0  0  0
  -31.0461  -23.9614   18.0097 H   0  0  0  0  0  0
  -27.6444  -20.6895   22.3004 H   0  0  0  0  0  0
  -27.3395  -19.1946   23.1008 H   0  0  0  0  0  0
  -27.3869  -24.6617   20.2432 H   0  0  0  0  0  0
  -27.5896  -25.1734   18.5669 H   0  0  0  0  0  0
  -28.8931  -15.1856   21.1807 H   0  0  0  0  0  0
  -28.5335  -20.7589   24.4822 H   0  0  0  0  0  0
  -29.8520  -20.6438   23.4931 H   0  0  0  0  0  0
  -29.3144  -19.3488   24.3095 H   0  0  0  0  0  0
  1 25  1  0  0  0
  1 30  2  0  0  0
  1 84  1  0  0  0
  2  3  1  0  0  0
  2 25  1  0  0  0
  2 87  1  0  0  0
  2 88  1  0  0  0
  3  4  1  0  0  0
  3 89  1  0  0  0
  3 90  1  0  0  0
  4  5  1  0  0  0
  4 91  1  0  0  0
  4 92  1  0  0  0
  5  6  1  0  0  0
  5 26  1  0  0  0
  5 93  1  0  0  0
  6 25  1  0  0  0
  6 94  1  0  0  0
  6 95  1  0  0  0
  7  8  2  0  0  0
  7 26  1  0  0  0
  7 29  1  0  0  0
  8  9  1  0  0  0
  8 22  1  0  0  0
  9 10  1  0  0  0
  9 27  2  0  0  0
 10 11  2  0  0  0
 10 15  1  0  0  0
 11 12  1  0  0  0
 11 96  1  0  0  0
 12 13  2  0  0  0
 12 97  1  0  0  0
 13 14  1  0  0  0
 13 31  1  0  0  0
 14 15  2  0  0  0
 14 98  1  0  0  0
 15 99  1  0  0  0
 16 17  2  0  0  0
 16 21  1  0  0  0
 16 31  1  0  0  0
 17 18  1  0  0  0
 17100  1  0  0  0
 18 19  2  0  0  0
 18101  1  0  0  0
 19 20  1  0  0  0
 19 24  1  0  0  0
 20 21  2  0  0  0
 20102  1  0  0  0
 21 23  1  0  0  0
 22 28  1  0  0  0
 22 32  2  0  0  0
 26 27  1  0  0  0
 28103  1  0  0  0
 28104  1  0  0  0
 29105  1  0  0  0
 29106  1  0  0  0
 33 34  1  0  0  0
 33 66  1  0  0  0
 33 70  2  0  0  0
 34 36  1  0  0  0
 34 59  1  0  0  0
 34107  1  0  0  0
 35 44  2  0  0  0
 35 45  1  0  0  0
 35 68  1  0  0  0
 36 56  1  0  0  0
 36108  1  0  0  0
 37 39  1  0  0  0
 37 47  1  0  0  0
 37 66  1  0  0  0
 37109  1  0  0  0
 38 43  2  0  0  0
 38 46  1  0  0  0
 38 47  1  0  0  0
 39 64  1  0  0  0
 39 67  2  0  0  0
 40 52  1  0  0  0
 40 53  2  0  0  0
 40 58  1  0  0  0
 41110  1  0  0  0
 41111  1  0  0  0
 41112  1  0  0  0
 41 48  1  0  0  0
 42 43  1  0  0  0
 42 66  1  0  0  0
 42113  1  0  0  0
 42114  1  0  0  0
 43 44  1  0  0  0
 44115  1  0  0  0
 45 46  2  0  0  0
 45116  1  0  0  0
 46117  1  0  0  0
 47118  1  0  0  0
 47119  1  0  0  0
 48 56  1  0  0  0
 48 65  1  0  0  0
 48120  1  0  0  0
 49 50  1  0  0  0
 49 53  1  0  0  0
 49 64  1  0  0  0
 49121  1  0  0  0
 50 51  1  0  0  0
 50122  1  0  0  0
 50123  1  0  0  0
 51 52  1  0  0  0
 51124  1  0  0  0
 51125  1  0  0  0
 52126  1  0  0  0
 52127  1  0  0  0
 53 54  1  0  0  0
 54 55  2  0  0  0
 54128  1  0  0  0
 55 57  1  0  0  0
 55129  1  0  0  0
 56 69  2  0  0  0
 57 58  2  0  0  0
 57130  1  0  0  0
 58131  1  0  0  0
 59 60  1  0  0  0
 59 61  1  0  0  0
 59 62  1  0  0  0
 60132  1  0  0  0
 60133  1  0  0  0
 60134  1  0  0  0
 61135  1  0  0  0
 61136  1  0  0  0
 61137  1  0  0  0
 62138  1  0  0  0
 62139  1  0  0  0
 62140  1  0  0  0
 63 65  1  0  0  0
 63141  1  0  0  0
 63142  1  0  0  0
 63143  1  0  0  0
 64144  1  0  0  0
 65145  1  0  0  0
 68 83  1  0  0  0
 71 72  1  0  0  0
 71 74  2  0  0  0
 71146  1  0  0  0
 72 73  2  0  0  0
 72 82  1  0  0  0
 73 86  1  0  0  0
 73 79  1  0  0  0
 74 84  1  0  0  0
 74 86  1  0  0  0
 75 77  1  0  0  0
 75 79  1  0  0  0
 75147  1  0  0  0
 75148  1  0  0  0
 76 78  1  0  0  0
 76 79  1  0  0  0
 76149  1  0  0  0
 76150  1  0  0  0
 77 80  1  0  0  0
 77151  1  0  0  0
 77152  1  0  0  0
 78 80  1  0  0  0
 78153  1  0  0  0
 78154  1  0  0  0
 79155  1  0  0  0
 80 81  1  0  0  0
 80 83  1  0  0  0
 81156  1  0  0  0
 81157  1  0  0  0
 81158  1  0  0  0
 82 85  1  0  0  0
 82159  1  0  0  0
 82160  1  0  0  0
 83161  1  0  0  0
 83162  1  0  0  0
 84163  1  0  0  0
 85164  1  0  0  0
 85165  1  0  0  0
 85166  1  0  0  0
M  CHG  1  85   1
M  ISO  4   1 100  68 101  83 101  84 100
M  END
> <chiral flag>
0

> <version>
0

> <s_m_source_file>
/data/baiqing/PycharmProjects/Reinvent-master-3.2/result/LINK_invent/BTK/process_docking_weight1_custom_product_contain_oxygen_bond_distance_aromatic_linkinvent_7_9_3/rearranged_h_0146.sdf

> <i_m_source_file_index>
48

> <r_mmod_Potential_Energy-OPLS-2005>
-189.512161254883

> <r_mmod_Stretch_Energy-OPLS-2005>
72.1116256713867

> <r_mmod_Bend_Energy-OPLS-2005>
189.134490966797

> <r_mmod_Torsional_Energy-OPLS-2005>
240.190994262695

> <r_mmod_Improper_Torsional_Energy-OPLS-2005>
3.80852317810059

> <r_mmod_Van_der_Waal_Energy-OPLS-2005>
143.425308227539

> <r_mmod_Electrostatic_Energy-OPLS-2005>
-365.798767089844

> <r_mmod_Solvation_Energy-OPLS-2005>
-516.149291992188

> <b_mmod_Minimization_Converged-OPLS-2005>
0

> <r_mmod_RMS_Derivative-OPLS-2005>
9.75837898254395

$$$$
48
                    3D
 Structure written by MMmdl.
157165  0  0  1  0            999 V2000
  -30.6493  -14.5611   20.5297 C   0  0  0  0  0  0
  -30.4336  -12.3476   19.4387 C   0  0  0  0  0  0
  -29.5006  -12.4894   18.2161 C   0  0  0  0  0  0
  -28.0228  -12.3380   18.6308 C   0  0  0  0  0  0
  -27.6549  -13.2044   19.8646 C   0  0  2  0  0  0
  -28.6971  -13.0305   20.9920 C   0  0  0  0  0  0
  -25.2568  -13.8148   20.5663 C   0  0  0  0  0  0
  -24.1820  -13.0436   20.9178 C   0  0  0  0  0  0
  -24.6375  -11.6903   20.8740 C   0  0  0  0  0  0
  -23.9041  -10.4294   21.0408 C   0  0  0  0  0  0
  -24.3597   -9.4211   21.9183 C   0  0  0  0  0  0
  -23.6279   -8.2237   22.0758 C   0  0  0  0  0  0
  -22.4264   -8.0269   21.3540 C   0  0  0  0  0  0
  -21.9895   -9.0242   20.4645 C   0  0  0  0  0  0
  -22.7217  -10.2126   20.3054 C   0  0  0  0  0  0
  -21.6851   -6.0715   22.5273 C   0  0  0  0  0  0
  -21.4014   -6.5631   23.8198 C   0  0  0  0  0  0
  -21.3656   -5.6791   24.9165 C   0  0  0  0  0  0
  -21.6049   -4.3048   24.7225 C   0  0  0  0  0  0
  -21.8821   -3.8133   23.4343 C   0  0  0  0  0  0
  -21.9198   -4.6946   22.3399 C   0  0  0  0  0  0
  -22.7854  -13.5242   21.1850 C   0  0  0  0  0  0
  -22.1663   -4.2131   21.0976 F   0  0  0  0  0  0
  -21.5633   -3.4533   25.7740 F   0  0  0  0  0  0
  -30.0193  -13.3539   20.4319 N   0  0  0  0  0  0
  -26.2985  -12.9311   20.3311 N   0  0  0  0  0  0
  -25.9296  -11.6479   20.5764 N   0  0  0  0  0  0
  -22.0494  -12.8229   22.0406 N   0  0  0  0  0  0
  -25.4322  -15.1858   20.4031 N   0  0  0  0  0  0
  -31.8121  -14.7273   20.1480 O   0  0  0  0  0  0
  -21.6640   -6.8857   21.4232 O   0  0  0  0  0  0
  -22.3540  -14.5551   20.6703 O   0  0  0  0  0  0
  -24.6179  -31.8653   23.2080 C   0  0  0  0  0  0
  -25.9050  -32.4813   23.8381 C   0  0  1  0  0  0
  -27.2343  -27.3884   20.1232 C   0  0  0  0  0  0
  -25.5890  -33.8599   24.2332 N   0  0  0  0  0  0
  -23.4110  -30.4880   21.5447 C   0  0  2  0  0  0
  -24.8641  -28.9468   20.1193 C   0  0  0  0  0  0
  -22.7449  -29.4652   22.4950 C   0  0  0  0  0  0
  -18.0295  -28.1383   22.8515 C   0  0  0  0  0  0
  -24.1480  -36.7300   23.2641 C   0  0  0  0  0  0
  -25.9435  -30.8158   21.3721 C   0  0  0  0  0  0
  -26.0223  -29.4423   20.7305 C   0  0  0  0  0  0
  -27.2120  -28.6664   20.7415 C   0  0  0  0  0  0
  -26.0653  -26.9282   19.4855 C   0  0  0  0  0  0
  -24.8804  -27.6875   19.4943 C   0  0  0  0  0  0
  -23.6269  -29.8182   20.1609 C   0  0  0  0  0  0
  -25.4095  -36.3103   24.0357 C   0  0  1  0  0  0
  -20.5897  -28.3667   23.1315 C   0  0  2  0  0  0
  -20.6789  -26.9397   22.5425 C   0  0  0  0  0  0
  -19.5758  -26.6390   21.5228 C   0  0  0  0  0  0
  -18.1937  -26.7946   22.1631 C   0  0  0  0  0  0
  -19.1553  -28.8837   23.2915 C   0  0  0  0  0  0
  -18.9475  -30.1459   23.8906 C   0  0  0  0  0  0
  -17.6470  -30.6592   24.0575 C   0  0  0  0  0  0
  -25.9015  -34.9469   23.5142 C   0  0  0  0  0  0
  -16.5356  -29.9099   23.6341 C   0  0  0  0  0  0
  -16.7283  -28.6512   23.0356 C   0  0  0  0  0  0
  -26.4457  -31.6590   25.0717 C   0  0  0  0  0  0
  -25.3712  -31.3724   26.1467 C   0  0  0  0  0  0
  -27.0274  -30.3029   24.6098 C   0  0  0  0  0  0
  -27.6029  -32.4306   25.7478 C   0  0  0  0  0  0
  -27.5586  -37.1802   24.8469 C   0  0  0  0  0  0
  -21.4179  -29.3031   22.3704 N   0  0  0  0  0  0
  -26.4291  -37.3789   23.9431 N   0  0  0  0  0  0
  -24.6752  -31.0725   22.0996 N   0  0  0  0  0  0
  -23.4206  -28.8219   23.3025 O   0  0  0  0  0  0
  -28.3583  -26.5804   20.0494 O   0  0  0  0  0  0
  -26.5574  -34.8934   22.4700 O   0  0  0  0  0  0
  -23.5375  -32.1417   23.7446 O   0  0  0  0  0  0
  -31.2377  -17.6641   21.0769 C   0  0  0  0  0  0
  -31.1054  -19.0931   20.9671 C   0  0  0  0  0  0
  -30.0829  -16.9565   20.8202 C   0  0  0  0  0  0
  -29.8511  -19.5164   20.6002 C   0  0  0  0  0  0
  -29.2941  -23.3916   20.7294 C   0  0  0  0  0  0
  -28.9173  -24.2791   23.0888 C   0  0  0  0  0  0
  -27.0177  -24.2007   21.4484 C   0  0  0  0  0  0
  -29.5450  -21.9393   21.2813 C   0  0  0  0  0  0
  -28.8580  -25.9797   21.2650 C   0  0  0  0  0  0
  -28.5304  -24.4599   21.5979 C   0  0  0  0  0  0
  -29.8459  -15.6011   20.8762 N   0  0  0  0  0  0
  -29.3791  -20.8233   20.3195 N   0  0  0  0  0  0
  -29.6615  -23.6725   19.5848 O   0  0  0  0  0  0
  -28.8049  -18.1102   20.4262 S   0  0  0  0  0  0
  -31.4750  -12.4725   19.1347 H   0  0  0  0  0  0
  -30.3635  -11.3464   19.8671 H   0  0  0  0  0  0
  -29.7547  -11.7397   17.4655 H   0  0  0  0  0  0
  -29.6515  -13.4610   17.7427 H   0  0  0  0  0  0
  -27.8543  -11.2848   18.8586 H   0  0  0  0  0  0
  -27.3671  -12.5748   17.7916 H   0  0  0  0  0  0
  -27.6836  -14.2430   19.5340 H   0  0  0  0  0  0
  -28.6917  -12.0040   21.3637 H   0  0  0  0  0  0
  -28.4504  -13.6556   21.8518 H   0  0  0  0  0  0
  -25.2747   -9.5683   22.4759 H   0  0  0  0  0  0
  -23.9989   -7.4629   22.7480 H   0  0  0  0  0  0
  -21.0828   -8.8747   19.8953 H   0  0  0  0  0  0
  -22.3673  -10.9653   19.6154 H   0  0  0  0  0  0
  -21.1999   -7.6141   23.9698 H   0  0  0  0  0  0
  -21.1482   -6.0520   25.9068 H   0  0  0  0  0  0
  -22.0607   -2.7598   23.2852 H   0  0  0  0  0  0
  -22.4101  -11.9869   22.4761 H   0  0  0  0  0  0
  -21.1118  -13.1252   22.2631 H   0  0  0  0  0  0
  -24.6665  -15.8436   20.5042 H   0  0  0  0  0  0
  -26.2746  -15.6166   20.0448 H   0  0  0  0  0  0
  -26.7127  -32.5508   23.1142 H   0  0  0  0  0  0
  -25.0031  -33.9748   25.0476 H   0  0  0  0  0  0
  -22.7010  -31.3053   21.3975 H   0  0  0  0  0  0
  -23.3749  -35.9624   23.3283 H   0  0  0  0  0  0
  -24.3591  -36.8917   22.2066 H   0  0  0  0  0  0
  -23.7235  -37.6507   23.6640 H   0  0  0  0  0  0
  -26.0581  -31.5786   20.6007 H   0  0  0  0  0  0
  -26.8317  -30.8732   21.9897 H   0  0  0  0  0  0
  -28.1054  -29.0504   21.2145 H   0  0  0  0  0  0
  -26.0714  -25.9682   18.9881 H   0  0  0  0  0  0
  -23.9919  -27.3067   19.0082 H   0  0  0  0  0  0
  -23.7397  -30.5880   19.3963 H   0  0  0  0  0  0
  -22.7520  -29.2371   19.8616 H   0  0  0  0  0  0
  -25.1276  -36.1950   25.0860 H   0  0  0  0  0  0
  -20.9974  -28.3209   24.1443 H   0  0  0  0  0  0
  -20.5703  -26.2256   23.3603 H   0  0  0  0  0  0
  -21.6645  -26.7465   22.1184 H   0  0  0  0  0  0
  -19.6907  -25.6306   21.1237 H   0  0  0  0  0  0
  -19.6699  -27.3222   20.6776 H   0  0  0  0  0  0
  -17.4219  -26.6736   21.4014 H   0  0  0  0  0  0
  -18.0307  -26.0097   22.9018 H   0  0  0  0  0  0
  -19.7943  -30.7297   24.2255 H   0  0  0  0  0  0
  -17.5024  -31.6276   24.5173 H   0  0  0  0  0  0
  -15.5361  -30.2993   23.7673 H   0  0  0  0  0  0
  -15.8690  -28.0843   22.7041 H   0  0  0  0  0  0
  -24.5887  -30.7063   25.7810 H   0  0  0  0  0  0
  -24.8894  -32.2888   26.4880 H   0  0  0  0  0  0
  -25.8066  -30.8923   27.0242 H   0  0  0  0  0  0
  -26.2822  -29.6810   24.1130 H   0  0  0  0  0  0
  -27.4023  -29.7242   25.4550 H   0  0  0  0  0  0
  -27.8667  -30.4337   23.9268 H   0  0  0  0  0  0
  -27.2646  -33.3606   26.2058 H   0  0  0  0  0  0
  -28.3838  -32.6862   25.0295 H   0  0  0  0  0  0
  -28.0686  -31.8418   26.5396 H   0  0  0  0  0  0
  -28.2579  -38.0118   24.7533 H   0  0  0  0  0  0
  -28.1109  -36.2658   24.6249 H   0  0  0  0  0  0
  -27.2322  -37.1397   25.8874 H   0  0  0  0  0  0
  -20.9340  -29.8716   21.6895 H   0  0  0  0  0  0
  -26.0177  -38.2863   24.1433 H   0  0  0  0  0  0
  -32.1785  -17.2100   21.3532 H   0  0  0  0  0  0
  -31.9521  -19.7446   21.1334 H   0  0  0  0  0  0
  -28.6323  -23.3093   23.4921 H   0  0  0  0  0  0
  -28.4201  -25.0165   23.7212 H   0  0  0  0  0  0
  -29.9913  -24.3963   23.2461 H   0  0  0  0  0  0
  -26.7338  -23.2210   21.8341 H   0  0  0  0  0  0
  -26.7123  -24.2312   20.4021 H   0  0  0  0  0  0
  -26.4299  -24.9466   21.9826 H   0  0  0  0  0  0
  -28.8618  -21.7475   22.1069 H   0  0  0  0  0  0
  -30.5529  -21.9152   21.6990 H   0  0  0  0  0  0
  -29.9422  -26.1058   21.2556 H   0  0  0  0  0  0
  -28.5242  -26.6006   22.0986 H   0  0  0  0  0  0
  -28.8908  -15.3331   21.0544 H   0  0  0  0  0  0
  -28.4972  -20.8765   19.8134 H   0  0  0  0  0  0
  1 25  1  0  0  0
  1 30  2  0  0  0
  1 81  1  0  0  0
  2  3  1  0  0  0
  2 25  1  0  0  0
  2 85  1  0  0  0
  2 86  1  0  0  0
  3  4  1  0  0  0
  3 87  1  0  0  0
  3 88  1  0  0  0
  4  5  1  0  0  0
  4 89  1  0  0  0
  4 90  1  0  0  0
  5  6  1  0  0  0
  5 26  1  0  0  0
  5 91  1  0  0  0
  6 25  1  0  0  0
  6 92  1  0  0  0
  6 93  1  0  0  0
  7  8  2  0  0  0
  7 26  1  0  0  0
  7 29  1  0  0  0
  8  9  1  0  0  0
  8 22  1  0  0  0
  9 10  1  0  0  0
  9 27  2  0  0  0
 10 11  2  0  0  0
 10 15  1  0  0  0
 11 12  1  0  0  0
 11 94  1  0  0  0
 12 13  2  0  0  0
 12 95  1  0  0  0
 13 14  1  0  0  0
 13 31  1  0  0  0
 14 15  2  0  0  0
 14 96  1  0  0  0
 15 97  1  0  0  0
 16 17  2  0  0  0
 16 21  1  0  0  0
 16 31  1  0  0  0
 17 18  1  0  0  0
 17 98  1  0  0  0
 18 19  2  0  0  0
 18 99  1  0  0  0
 19 20  1  0  0  0
 19 24  1  0  0  0
 20 21  2  0  0  0
 20100  1  0  0  0
 21 23  1  0  0  0
 22 28  1  0  0  0
 22 32  2  0  0  0
 26 27  1  0  0  0
 28101  1  0  0  0
 28102  1  0  0  0
 29103  1  0  0  0
 29104  1  0  0  0
 33 34  1  0  0  0
 33 66  1  0  0  0
 33 70  2  0  0  0
 34 36  1  0  0  0
 34 59  1  0  0  0
 34105  1  0  0  0
 35 44  2  0  0  0
 35 45  1  0  0  0
 35 68  1  0  0  0
 36 56  1  0  0  0
 36106  1  0  0  0
 37 39  1  0  0  0
 37 47  1  0  0  0
 37 66  1  0  0  0
 37107  1  0  0  0
 38 43  2  0  0  0
 38 46  1  0  0  0
 38 47  1  0  0  0
 39 64  1  0  0  0
 39 67  2  0  0  0
 40 52  1  0  0  0
 40 53  2  0  0  0
 40 58  1  0  0  0
 41108  1  0  0  0
 41109  1  0  0  0
 41110  1  0  0  0
 41 48  1  0  0  0
 42 43  1  0  0  0
 42 66  1  0  0  0
 42111  1  0  0  0
 42112  1  0  0  0
 43 44  1  0  0  0
 44113  1  0  0  0
 45 46  2  0  0  0
 45114  1  0  0  0
 46115  1  0  0  0
 47116  1  0  0  0
 47117  1  0  0  0
 48 56  1  0  0  0
 48 65  1  0  0  0
 48118  1  0  0  0
 49 50  1  0  0  0
 49 53  1  0  0  0
 49 64  1  0  0  0
 49119  1  0  0  0
 50 51  1  0  0  0
 50120  1  0  0  0
 50121  1  0  0  0
 51 52  1  0  0  0
 51122  1  0  0  0
 51123  1  0  0  0
 52124  1  0  0  0
 52125  1  0  0  0
 53 54  1  0  0  0
 54 55  2  0  0  0
 54126  1  0  0  0
 55 57  1  0  0  0
 55127  1  0  0  0
 56 69  2  0  0  0
 57 58  2  0  0  0
 57128  1  0  0  0
 58129  1  0  0  0
 59 60  1  0  0  0
 59 61  1  0  0  0
 59 62  1  0  0  0
 60130  1  0  0  0
 60131  1  0  0  0
 60132  1  0  0  0
 61133  1  0  0  0
 61134  1  0  0  0
 61135  1  0  0  0
 62136  1  0  0  0
 62137  1  0  0  0
 62138  1  0  0  0
 63 65  1  0  0  0
 63139  1  0  0  0
 63140  1  0  0  0
 63141  1  0  0  0
 64142  1  0  0  0
 65143  1  0  0  0
 68 79  1  0  0  0
 71 72  1  0  0  0
 71 73  2  0  0  0
 71144  1  0  0  0
 72 74  2  0  0  0
 72145  1  0  0  0
 73 81  1  0  0  0
 73 84  1  0  0  0
 74 82  1  0  0  0
 74 84  1  0  0  0
 75 78  1  0  0  0
 75 80  1  0  0  0
 75 83  2  0  0  0
 76146  1  0  0  0
 76147  1  0  0  0
 76148  1  0  0  0
 76 80  1  0  0  0
 77 80  1  0  0  0
 77149  1  0  0  0
 77150  1  0  0  0
 77151  1  0  0  0
 78 82  1  0  0  0
 78152  1  0  0  0
 78153  1  0  0  0
 79 80  1  0  0  0
 79154  1  0  0  0
 79155  1  0  0  0
 81156  1  0  0  0
 82157  1  0  0  0
M  ISO  4   1 100  68 101  79 101  81 100
M  END
> <chiral flag>
0

> <version>
0

> <s_m_source_file>
/data/baiqing/PycharmProjects/Reinvent-master-3.2/result/LINK_invent/BTK/process_docking_weight1_custom_product_contain_oxygen_bond_distance_aromatic_linkinvent_7_9_3/rearranged_h_0146.sdf

> <i_m_source_file_index>
49

> <r_mmod_Potential_Energy-OPLS-2005>
68.4422607421875

> <r_mmod_Stretch_Energy-OPLS-2005>
53.7851333618164

> <r_mmod_Bend_Energy-OPLS-2005>
125.934829711914

> <r_mmod_Torsional_Energy-OPLS-2005>
256.140899658203

> <r_mmod_Improper_Torsional_Energy-OPLS-2005>
8.35834884643555

> <r_mmod_Van_der_Waal_Energy-OPLS-2005>
119.755714416504

> <r_mmod_Electrostatic_Energy-OPLS-2005>
-283.514678955078

> <r_mmod_Solvation_Energy-OPLS-2005>
-237.526657104492

> <b_mmod_Minimization_Converged-OPLS-2005>
0

> <r_mmod_RMS_Derivative-OPLS-2005>
2.80282855033875

$$$$
49
                    3D
 Structure written by MMmdl.
164173  0  0  1  0            999 V2000
  -30.6501  -14.5628   20.5100 C   0  0  0  0  0  0
  -30.4410  -12.3547   19.4254 C   0  0  0  0  0  0
  -29.4995  -12.5058   18.2108 C   0  0  0  0  0  0
  -28.0246  -12.3416   18.6293 C   0  0  0  0  0  0
  -27.6578  -13.1875   19.8740 C   0  0  2  0  0  0
  -28.7099  -13.0124   20.9936 C   0  0  0  0  0  0
  -25.2613  -13.8103   20.5689 C   0  0  0  0  0  0
  -24.1825  -13.0428   20.9158 C   0  0  0  0  0  0
  -24.6340  -11.6877   20.8725 C   0  0  0  0  0  0
  -23.8979  -10.4289   21.0387 C   0  0  0  0  0  0
  -24.3549   -9.4211   21.9152 C   0  0  0  0  0  0
  -23.6262   -8.2228   22.0714 C   0  0  0  0  0  0
  -22.4246   -8.0256   21.3509 C   0  0  0  0  0  0
  -21.9849   -9.0222   20.4626 C   0  0  0  0  0  0
  -22.7149  -10.2123   20.3048 C   0  0  0  0  0  0
  -21.6842   -6.0717   22.5261 C   0  0  0  0  0  0
  -21.3994   -6.5625   23.8193 C   0  0  0  0  0  0
  -21.3662   -5.6774   24.9146 C   0  0  0  0  0  0
  -21.6059   -4.3039   24.7204 C   0  0  0  0  0  0
  -21.8836   -3.8124   23.4323 C   0  0  0  0  0  0
  -21.9191   -4.6943   22.3386 C   0  0  0  0  0  0
  -22.7866  -13.5256   21.1824 C   0  0  0  0  0  0
  -22.1676   -4.2119   21.0967 F   0  0  0  0  0  0
  -21.5630   -3.4547   25.7728 F   0  0  0  0  0  0
  -30.0316  -13.3474   20.4347 N   0  0  0  0  0  0
  -26.3005  -12.9206   20.3387 N   0  0  0  0  0  0
  -25.9260  -11.6393   20.5764 N   0  0  0  0  0  0
  -22.0478  -12.8282   22.0394 N   0  0  0  0  0  0
  -25.4414  -15.1829   20.4148 N   0  0  0  0  0  0
  -31.7934  -14.7532   20.0841 O   0  0  0  0  0  0
  -21.6616   -6.8852   21.4224 O   0  0  0  0  0  0
  -22.3567  -14.5555   20.6652 O   0  0  0  0  0  0
  -24.6227  -31.8642   23.2052 C   0  0  0  0  0  0
  -25.9109  -32.4791   23.8358 C   0  0  1  0  0  0
  -27.2305  -27.3616   20.0968 C   0  0  0  0  0  0
  -25.5942  -33.8591   24.2276 N   0  0  0  0  0  0
  -23.4131  -30.4909   21.5459 C   0  0  2  0  0  0
  -24.8586  -28.9530   20.1063 C   0  0  0  0  0  0
  -22.7455  -29.4654   22.4916 C   0  0  0  0  0  0
  -18.0280  -28.1386   22.8472 C   0  0  0  0  0  0
  -24.1491  -36.7318   23.2635 C   0  0  0  0  0  0
  -25.9517  -30.8022   21.3757 C   0  0  0  0  0  0
  -26.0220  -29.4334   20.7185 C   0  0  0  0  0  0
  -27.2048  -28.6458   20.7119 C   0  0  0  0  0  0
  -26.0481  -26.9375   19.4404 C   0  0  0  0  0  0
  -24.8735  -27.7105   19.4569 C   0  0  0  0  0  0
  -23.6258  -29.8293   20.1588 C   0  0  0  0  0  0
  -25.4111  -36.3094   24.0325 C   0  0  1  0  0  0
  -20.5880  -28.3700   23.1272 C   0  0  2  0  0  0
  -20.6766  -26.9419   22.5413 C   0  0  0  0  0  0
  -19.5752  -26.6383   21.5208 C   0  0  0  0  0  0
  -18.1930  -26.7934   22.1612 C   0  0  0  0  0  0
  -19.1536  -28.8851   23.2872 C   0  0  0  0  0  0
  -18.9462  -30.1455   23.8900 C   0  0  0  0  0  0
  -17.6465  -30.6583   24.0565 C   0  0  0  0  0  0
  -25.9056  -34.9464   23.5097 C   0  0  0  0  0  0
  -16.5353  -29.9092   23.6321 C   0  0  0  0  0  0
  -16.7273  -28.6507   23.0341 C   0  0  0  0  0  0
  -26.4487  -31.6597   25.0730 C   0  0  0  0  0  0
  -25.3711  -31.3806   26.1466 C   0  0  0  0  0  0
  -27.0299  -30.2989   24.6216 C   0  0  0  0  0  0
  -27.6065  -32.4319   25.7492 C   0  0  0  0  0  0
  -27.5587  -37.1802   24.8443 C   0  0  0  0  0  0
  -21.4166  -29.3056   22.3665 N   0  0  0  0  0  0
  -26.4284  -37.3787   23.9413 N   0  0  0  0  0  0
  -24.6806  -31.0687   22.0989 N   0  0  0  0  0  0
  -23.4189  -28.8182   23.2980 O   0  0  0  0  0  0
  -28.3904  -26.5829   20.1679 O   0  0  0  0  0  0
  -26.5608  -34.8930   22.4653 O   0  0  0  0  0  0
  -23.5402  -32.1430   23.7402 O   0  0  0  0  0  0
  -28.4506  -18.1011   18.5843 C   0  0  0  0  0  0
  -28.9643  -19.3180   19.0668 C   0  0  0  0  0  0
  -28.8092  -16.8834   19.1892 C   0  0  0  0  0  0
  -30.1812  -18.0901   20.7941 C   0  0  0  0  0  0
  -29.8493  -19.3363   20.1659 C   0  0  0  0  0  0
  -29.6700  -16.8493   20.3094 C   0  0  0  0  0  0
  -30.2581  -24.1589   21.3092 C   0  0  0  0  0  0
  -30.5267  -22.7645   21.9065 C   0  0  0  0  0  0
  -28.8720  -22.6011   20.2117 C   0  0  0  0  0  0
  -28.8310  -24.0620   20.7774 C   0  0  2  0  0  0
  -26.5984  -24.1377   21.7715 C   0  0  0  0  0  0
  -30.5430  -20.6627   20.5583 C   0  0  0  0  0  0
  -28.4264  -25.1816   19.7309 C   0  0  0  0  0  0
  -29.8890  -15.5866   20.9714 N   0  0  0  0  0  0
  -29.7155  -21.7793   21.1399 N   0  3  1  0  0  0
  -28.0052  -24.0465   21.9508 O   0  0  0  0  0  0
  -31.4764  -12.4918   19.1106 H   0  0  0  0  0  0
  -30.3869  -11.3444   19.8344 H   0  0  0  0  0  0
  -29.7546  -11.7758   17.4423 H   0  0  0  0  0  0
  -29.6414  -13.4863   17.7537 H   0  0  0  0  0  0
  -27.8577  -11.2848   18.8422 H   0  0  0  0  0  0
  -27.3635  -12.5917   17.7971 H   0  0  0  0  0  0
  -27.6767  -14.2210   19.5529 H   0  0  0  0  0  0
  -28.7166  -11.9828   21.3530 H   0  0  0  0  0  0
  -28.4619  -13.6265   21.8601 H   0  0  0  0  0  0
  -25.2696   -9.5721   22.4699 H   0  0  0  0  0  0
  -23.9997   -7.4627   22.7437 H   0  0  0  0  0  0
  -21.0753   -8.8723   19.8962 H   0  0  0  0  0  0
  -22.3566  -10.9643   19.6162 H   0  0  0  0  0  0
  -21.1983   -7.6135   23.9691 H   0  0  0  0  0  0
  -21.1469   -6.0490   25.9047 H   0  0  0  0  0  0
  -22.0619   -2.7587   23.2814 H   0  0  0  0  0  0
  -22.4066  -11.9975   22.4847 H   0  0  0  0  0  0
  -21.1105  -13.1337   22.2591 H   0  0  0  0  0  0
  -24.6839  -15.8477   20.5196 H   0  0  0  0  0  0
  -26.3128  -15.6188   20.1388 H   0  0  0  0  0  0
  -26.7179  -32.5466   23.1113 H   0  0  0  0  0  0
  -25.0081  -33.9726   25.0410 H   0  0  0  0  0  0
  -22.7057  -31.3107   21.4058 H   0  0  0  0  0  0
  -23.3737  -35.9666   23.3289 H   0  0  0  0  0  0
  -24.3586  -36.8947   22.2052 H   0  0  0  0  0  0
  -23.7258  -37.6525   23.6659 H   0  0  0  0  0  0
  -26.0860  -31.5639   20.6061 H   0  0  0  0  0  0
  -26.8329  -30.8460   22.0048 H   0  0  0  0  0  0
  -28.0980  -29.0130   21.1974 H   0  0  0  0  0  0
  -25.9788  -26.0171   18.8863 H   0  0  0  0  0  0
  -23.9912  -27.3504   18.9451 H   0  0  0  0  0  0
  -23.7419  -30.6073   19.4034 H   0  0  0  0  0  0
  -22.7464  -29.2575   19.8577 H   0  0  0  0  0  0
  -25.1288  -36.1938   25.0814 H   0  0  0  0  0  0
  -20.9995  -28.3291   24.1388 H   0  0  0  0  0  0
  -20.5639  -26.2328   23.3624 H   0  0  0  0  0  0
  -21.6634  -26.7429   22.1230 H   0  0  0  0  0  0
  -19.6912  -25.6292   21.1247 H   0  0  0  0  0  0
  -19.6695  -27.3177   20.6726 H   0  0  0  0  0  0
  -17.4208  -26.6691   21.4005 H   0  0  0  0  0  0
  -18.0316  -26.0067   22.8995 H   0  0  0  0  0  0
  -19.7951  -30.7253   24.2275 H   0  0  0  0  0  0
  -17.5036  -31.6267   24.5176 H   0  0  0  0  0  0
  -15.5357  -30.3004   23.7647 H   0  0  0  0  0  0
  -15.8675  -28.0840   22.7047 H   0  0  0  0  0  0
  -24.5895  -30.7120   25.7841 H   0  0  0  0  0  0
  -24.8880  -32.3001   26.4787 H   0  0  0  0  0  0
  -25.8020  -30.9086   27.0304 H   0  0  0  0  0  0
  -26.2875  -29.6773   24.1198 H   0  0  0  0  0  0
  -27.3898  -29.7234   25.4754 H   0  0  0  0  0  0
  -27.8798  -30.4211   23.9499 H   0  0  0  0  0  0
  -27.2676  -33.3599   26.2113 H   0  0  0  0  0  0
  -28.3863  -32.6918   25.0321 H   0  0  0  0  0  0
  -28.0764  -31.8424   26.5377 H   0  0  0  0  0  0
  -28.2593  -38.0111   24.7499 H   0  0  0  0  0  0
  -28.1093  -36.2647   24.6227 H   0  0  0  0  0  0
  -27.2327  -37.1407   25.8849 H   0  0  0  0  0  0
  -20.9341  -29.8791   21.6891 H   0  0  0  0  0  0
  -26.0171  -38.2862   24.1418 H   0  0  0  0  0  0
  -27.7896  -18.0968   17.7270 H   0  0  0  0  0  0
  -28.6971  -20.2332   18.5564 H   0  0  0  0  0  0
  -28.4068  -15.9784   18.7675 H   0  0  0  0  0  0
  -30.8552  -18.0851   21.6383 H   0  0  0  0  0  0
  -30.9546  -24.3445   20.4905 H   0  0  0  0  0  0
  -30.3859  -24.9600   22.0379 H   0  0  0  0  0  0
  -30.1920  -22.7370   22.9449 H   0  0  0  0  0  0
  -31.5944  -22.5431   21.9136 H   0  0  0  0  0  0
  -29.3357  -22.6131   19.2250 H   0  0  0  0  0  0
  -27.8821  -22.1649   20.0859 H   0  0  0  0  0  0
  -26.0995  -23.8010   22.6815 H   0  0  0  0  0  0
  -26.2330  -23.5287   20.9445 H   0  0  0  0  0  0
  -26.3037  -25.1733   21.6102 H   0  0  0  0  0  0
  -31.0919  -21.0365   19.6930 H   0  0  0  0  0  0
  -31.3110  -20.3946   21.2857 H   0  0  0  0  0  0
  -27.5157  -24.8348   19.2573 H   0  0  0  0  0  0
  -29.1538  -25.1518   18.9193 H   0  0  0  0  0  0
  -29.0623  -15.2314   21.4287 H   0  0  0  0  0  0
  -29.0993  -21.3595   21.8214 H   0  0  0  0  0  0
  1 25  1  0  0  0
  1 30  2  0  0  0
  1 84  1  0  0  0
  2  3  1  0  0  0
  2 25  1  0  0  0
  2 87  1  0  0  0
  2 88  1  0  0  0
  3  4  1  0  0  0
  3 89  1  0  0  0
  3 90  1  0  0  0
  4  5  1  0  0  0
  4 91  1  0  0  0
  4 92  1  0  0  0
  5  6  1  0  0  0
  5 26  1  0  0  0
  5 93  1  0  0  0
  6 25  1  0  0  0
  6 94  1  0  0  0
  6 95  1  0  0  0
  7  8  2  0  0  0
  7 26  1  0  0  0
  7 29  1  0  0  0
  8  9  1  0  0  0
  8 22  1  0  0  0
  9 10  1  0  0  0
  9 27  2  0  0  0
 10 11  2  0  0  0
 10 15  1  0  0  0
 11 12  1  0  0  0
 11 96  1  0  0  0
 12 13  2  0  0  0
 12 97  1  0  0  0
 13 14  1  0  0  0
 13 31  1  0  0  0
 14 15  2  0  0  0
 14 98  1  0  0  0
 15 99  1  0  0  0
 16 17  2  0  0  0
 16 21  1  0  0  0
 16 31  1  0  0  0
 17 18  1  0  0  0
 17100  1  0  0  0
 18 19  2  0  0  0
 18101  1  0  0  0
 19 20  1  0  0  0
 19 24  1  0  0  0
 20 21  2  0  0  0
 20102  1  0  0  0
 21 23  1  0  0  0
 22 28  1  0  0  0
 22 32  2  0  0  0
 26 27  1  0  0  0
 28103  1  0  0  0
 28104  1  0  0  0
 29105  1  0  0  0
 29106  1  0  0  0
 33 34  1  0  0  0
 33 66  1  0  0  0
 33 70  2  0  0  0
 34 36  1  0  0  0
 34 59  1  0  0  0
 34107  1  0  0  0
 35 44  2  0  0  0
 35 45  1  0  0  0
 35 68  1  0  0  0
 36 56  1  0  0  0
 36108  1  0  0  0
 37 39  1  0  0  0
 37 47  1  0  0  0
 37 66  1  0  0  0
 37109  1  0  0  0
 38 43  2  0  0  0
 38 46  1  0  0  0
 38 47  1  0  0  0
 39 64  1  0  0  0
 39 67  2  0  0  0
 40 52  1  0  0  0
 40 53  2  0  0  0
 40 58  1  0  0  0
 41110  1  0  0  0
 41111  1  0  0  0
 41112  1  0  0  0
 41 48  1  0  0  0
 42 43  1  0  0  0
 42 66  1  0  0  0
 42113  1  0  0  0
 42114  1  0  0  0
 43 44  1  0  0  0
 44115  1  0  0  0
 45 46  2  0  0  0
 45116  1  0  0  0
 46117  1  0  0  0
 47118  1  0  0  0
 47119  1  0  0  0
 48 56  1  0  0  0
 48 65  1  0  0  0
 48120  1  0  0  0
 49 50  1  0  0  0
 49 53  1  0  0  0
 49 64  1  0  0  0
 49121  1  0  0  0
 50 51  1  0  0  0
 50122  1  0  0  0
 50123  1  0  0  0
 51 52  1  0  0  0
 51124  1  0  0  0
 51125  1  0  0  0
 52126  1  0  0  0
 52127  1  0  0  0
 53 54  1  0  0  0
 54 55  2  0  0  0
 54128  1  0  0  0
 55 57  1  0  0  0
 55129  1  0  0  0
 56 69  2  0  0  0
 57 58  2  0  0  0
 57130  1  0  0  0
 58131  1  0  0  0
 59 60  1  0  0  0
 59 61  1  0  0  0
 59 62  1  0  0  0
 60132  1  0  0  0
 60133  1  0  0  0
 60134  1  0  0  0
 61135  1  0  0  0
 61136  1  0  0  0
 61137  1  0  0  0
 62138  1  0  0  0
 62139  1  0  0  0
 62140  1  0  0  0
 63 65  1  0  0  0
 63141  1  0  0  0
 63142  1  0  0  0
 63143  1  0  0  0
 64144  1  0  0  0
 65145  1  0  0  0
 68 83  1  0  0  0
 71 72  2  0  0  0
 71 73  1  0  0  0
 71146  1  0  0  0
 72 75  1  0  0  0
 72147  1  0  0  0
 73 76  2  0  0  0
 73148  1  0  0  0
 74 75  2  0  0  0
 74 76  1  0  0  0
 74149  1  0  0  0
 75 82  1  0  0  0
 76 84  1  0  0  0
 77 78  1  0  0  0
 77 80  1  0  0  0
 77150  1  0  0  0
 77151  1  0  0  0
 78 85  1  0  0  0
 78152  1  0  0  0
 78153  1  0  0  0
 79 80  1  0  0  0
 79 85  1  0  0  0
 79154  1  0  0  0
 79155  1  0  0  0
 80 83  1  0  0  0
 80 86  1  0  0  0
 81 86  1  0  0  0
 81156  1  0  0  0
 81157  1  0  0  0
 81158  1  0  0  0
 82159  1  0  0  0
 82160  1  0  0  0
 82 85  1  0  0  0
 83161  1  0  0  0
 83162  1  0  0  0
 84163  1  0  0  0
 85164  1  0  0  0
M  CHG  1  85   1
M  ISO  4   1 100  68 101  83 101  84 100
M  END
> <chiral flag>
0

> <version>
0

> <s_m_source_file>
/data/baiqing/PycharmProjects/Reinvent-master-3.2/result/LINK_invent/BTK/process_docking_weight1_custom_product_contain_oxygen_bond_distance_aromatic_linkinvent_7_9_3/rearranged_h_0146.sdf

> <i_m_source_file_index>
50

> <r_mmod_Potential_Energy-OPLS-2005>
-18.1562919616699

> <r_mmod_Stretch_Energy-OPLS-2005>
58.2222709655762

> <r_mmod_Bend_Energy-OPLS-2005>
164.654388427734

> <r_mmod_Torsional_Energy-OPLS-2005>
308.450775146484

> <r_mmod_Improper_Torsional_Energy-OPLS-2005>
6.84128522872925

> <r_mmod_Van_der_Waal_Energy-OPLS-2005>
142.298004150391

> <r_mmod_Electrostatic_Energy-OPLS-2005>
-295.759094238281

> <r_mmod_Solvation_Energy-OPLS-2005>
-433.185272216797

> <b_mmod_Minimization_Converged-OPLS-2005>
0

> <r_mmod_RMS_Derivative-OPLS-2005>
3.09140133857727

$$$$
50
                    3D
 Structure written by MMmdl.
158166  0  0  1  0            999 V2000
  -30.6913  -14.4545   20.5085 C   0  0  0  0  0  0
  -30.4144  -12.2851   19.3855 C   0  0  0  0  0  0
  -29.4730  -12.5155   18.1844 C   0  0  0  0  0  0
  -27.9976  -12.3724   18.6081 C   0  0  0  0  0  0
  -27.6596  -13.1892   19.8821 C   0  0  2  0  0  0
  -28.7172  -12.9620   20.9866 C   0  0  0  0  0  0
  -25.2656  -13.8111   20.5789 C   0  0  0  0  0  0
  -24.1866  -13.0393   20.9205 C   0  0  0  0  0  0
  -24.6391  -11.6867   20.8743 C   0  0  0  0  0  0
  -23.9056  -10.4279   21.0415 C   0  0  0  0  0  0
  -24.3619   -9.4211   21.9188 C   0  0  0  0  0  0
  -23.6308   -8.2235   22.0765 C   0  0  0  0  0  0
  -22.4285   -8.0271   21.3559 C   0  0  0  0  0  0
  -21.9908   -9.0225   20.4658 C   0  0  0  0  0  0
  -22.7222  -10.2105   20.3078 C   0  0  0  0  0  0
  -21.6868   -6.0769   22.5285 C   0  0  0  0  0  0
  -21.4012   -6.5681   23.8213 C   0  0  0  0  0  0
  -21.3678   -5.6835   24.9177 C   0  0  0  0  0  0
  -21.6042   -4.3099   24.7256 C   0  0  0  0  0  0
  -21.8812   -3.8195   23.4379 C   0  0  0  0  0  0
  -21.9201   -4.6999   22.3423 C   0  0  0  0  0  0
  -22.7887  -13.5191   21.1831 C   0  0  0  0  0  0
  -22.1632   -4.2168   21.0992 F   0  0  0  0  0  0
  -21.5633   -3.4598   25.7788 F   0  0  0  0  0  0
  -30.0458  -13.2599   20.4223 N   0  0  0  0  0  0
  -26.3047  -12.9231   20.3478 N   0  0  0  0  0  0
  -25.9312  -11.6419   20.5818 N   0  0  0  0  0  0
  -22.0543  -12.8147   22.0382 N   0  0  0  0  0  0
  -25.4396  -15.1840   20.4232 N   0  0  0  0  0  0
  -31.8500  -14.6331   20.1268 O   0  0  0  0  0  0
  -21.6660   -6.8866   21.4225 O   0  0  0  0  0  0
  -22.3514  -14.5459   20.6631 O   0  0  0  0  0  0
  -24.6161  -31.8705   23.2155 C   0  0  0  0  0  0
  -25.9057  -32.4840   23.8408 C   0  0  1  0  0  0
  -27.2246  -27.4532   20.0917 C   0  0  0  0  0  0
  -25.5928  -33.8650   24.2346 N   0  0  0  0  0  0
  -23.3982  -30.4950   21.5587 C   0  0  2  0  0  0
  -24.8369  -28.9632   20.1172 C   0  0  0  0  0  0
  -22.7408  -29.4671   22.5077 C   0  0  0  0  0  0
  -18.0256  -28.1412   22.8504 C   0  0  0  0  0  0
  -24.1473  -36.7294   23.2652 C   0  0  0  0  0  0
  -25.9225  -30.8433   21.3558 C   0  0  0  0  0  0
  -25.9964  -29.4758   20.7104 C   0  0  0  0  0  0
  -27.1934  -28.7285   20.6944 C   0  0  0  0  0  0
  -26.0534  -26.9616   19.4710 C   0  0  0  0  0  0
  -24.8587  -27.7067   19.4895 C   0  0  0  0  0  0
  -23.5973  -29.8264   20.1727 C   0  0  0  0  0  0
  -25.4117  -36.3128   24.0330 C   0  0  1  0  0  0
  -20.5839  -28.3686   23.1373 C   0  0  2  0  0  0
  -20.6759  -26.9428   22.5465 C   0  0  0  0  0  0
  -19.5738  -26.6404   21.5271 C   0  0  0  0  0  0
  -18.1890  -26.7963   22.1626 C   0  0  0  0  0  0
  -19.1497  -28.8867   23.2924 C   0  0  0  0  0  0
  -18.9425  -30.1486   23.8924 C   0  0  0  0  0  0
  -17.6428  -30.6612   24.0608 C   0  0  0  0  0  0
  -25.9044  -34.9499   23.5124 C   0  0  0  0  0  0
  -16.5328  -29.9116   23.6369 C   0  0  0  0  0  0
  -16.7243  -28.6542   23.0364 C   0  0  0  0  0  0
  -26.4487  -31.6626   25.0743 C   0  0  0  0  0  0
  -25.3742  -31.3630   26.1482 C   0  0  0  0  0  0
  -27.0392  -30.3135   24.6046 C   0  0  0  0  0  0
  -27.6105  -32.4333   25.7454 C   0  0  0  0  0  0
  -27.5583  -37.1816   24.8461 C   0  0  0  0  0  0
  -21.4144  -29.3032   22.3795 N   0  0  0  0  0  0
  -26.4298  -37.3824   23.9408 N   0  0  0  0  0  0
  -24.6653  -31.0807   22.1037 N   0  0  0  0  0  0
  -23.4193  -28.8237   23.3132 O   0  0  0  0  0  0
  -28.4074  -26.7519   20.0936 O   0  0  0  0  0  0
  -26.5593  -34.8942   22.4686 O   0  0  0  0  0  0
  -23.5371  -32.1449   23.7590 O   0  0  0  0  0  0
  -29.2466  -18.0594   18.5155 C   0  0  0  0  0  0
  -29.0785  -16.7157   18.9474 C   0  0  0  0  0  0
  -30.0483  -18.6907   19.4316 C   0  0  0  0  0  0
  -29.8250  -16.6109   20.0866 C   0  0  0  0  0  0
  -30.4997  -20.0940   19.4721 C   0  0  0  0  0  0
  -31.2448  -20.5259   17.0792 C   0  0  0  0  0  0
  -29.2395  -23.1198   19.3080 C   0  0  0  0  0  0
  -29.1827  -24.6570   19.1876 C   0  0  0  0  0  0
  -30.3083  -22.4987   18.3840 C   0  0  0  0  0  0
  -28.3457  -25.3368   20.2832 C   0  0  0  0  0  0
  -30.2740  -20.9549   18.2023 C   0  0  2  0  0  0
  -29.8965  -15.4838   20.8397 N   0  0  0  0  0  0
  -31.0672  -20.5646   20.4618 O   0  0  0  0  0  0
  -30.4179  -17.7973   20.4149 O   0  0  0  0  0  0
  -31.4573  -12.3856   19.0780 H   0  0  0  0  0  0
  -30.2993  -11.2640   19.7515 H   0  0  0  0  0  0
  -29.6966  -11.8112   17.3844 H   0  0  0  0  0  0
  -29.6435  -13.5077   17.7653 H   0  0  0  0  0  0
  -27.8071  -11.3130   18.7839 H   0  0  0  0  0  0
  -27.3372  -12.6636   17.7917 H   0  0  0  0  0  0
  -27.6911  -14.2383   19.6040 H   0  0  0  0  0  0
  -28.7002  -11.9260   21.3268 H   0  0  0  0  0  0
  -28.5085  -13.5652   21.8706 H   0  0  0  0  0  0
  -25.2774   -9.5689   22.4742 H   0  0  0  0  0  0
  -24.0086   -7.4632   22.7469 H   0  0  0  0  0  0
  -21.0859   -8.8697   19.8964 H   0  0  0  0  0  0
  -22.3678  -10.9633   19.6193 H   0  0  0  0  0  0
  -21.1967   -7.6186   23.9710 H   0  0  0  0  0  0
  -21.1487   -6.0585   25.9068 H   0  0  0  0  0  0
  -22.0560   -2.7651   23.2886 H   0  0  0  0  0  0
  -22.4253  -11.9847   22.4769 H   0  0  0  0  0  0
  -21.1122  -13.1068   22.2573 H   0  0  0  0  0  0
  -24.6749  -15.8366   20.5530 H   0  0  0  0  0  0
  -26.2851  -15.6313   20.0927 H   0  0  0  0  0  0
  -26.7162  -32.5535   23.1215 H   0  0  0  0  0  0
  -25.0199  -33.9826   25.0572 H   0  0  0  0  0  0
  -22.6890  -31.3136   21.4269 H   0  0  0  0  0  0
  -23.3767  -35.9592   23.3322 H   0  0  0  0  0  0
  -24.3573  -36.8931   22.2064 H   0  0  0  0  0  0
  -23.7171  -37.6469   23.6696 H   0  0  0  0  0  0
  -26.0146  -31.5999   20.5739 H   0  0  0  0  0  0
  -26.8216  -30.9160   21.9526 H   0  0  0  0  0  0
  -28.0932  -29.1245   21.1494 H   0  0  0  0  0  0
  -26.0538  -26.0193   18.9439 H   0  0  0  0  0  0
  -23.9697  -27.3162   19.0126 H   0  0  0  0  0  0
  -23.6976  -30.6003   19.4096 H   0  0  0  0  0  0
  -22.7212  -29.2391   19.8887 H   0  0  0  0  0  0
  -25.1304  -36.2014   25.0819 H   0  0  0  0  0  0
  -20.9916  -28.3251   24.1503 H   0  0  0  0  0  0
  -20.5732  -26.2289   23.3652 H   0  0  0  0  0  0
  -21.6632  -26.7511   22.1247 H   0  0  0  0  0  0
  -19.6912  -25.6321   21.1286 H   0  0  0  0  0  0
  -19.6707  -27.3235   20.6823 H   0  0  0  0  0  0
  -17.4208  -26.6830   21.3947 H   0  0  0  0  0  0
  -18.0182  -26.0067   22.8948 H   0  0  0  0  0  0
  -19.7884  -30.7341   24.2290 H   0  0  0  0  0  0
  -17.4956  -31.6281   24.5218 H   0  0  0  0  0  0
  -15.5333  -30.3038   23.7690 H   0  0  0  0  0  0
  -15.8641  -28.0914   22.7047 H   0  0  0  0  0  0
  -24.6020  -30.6882   25.7765 H   0  0  0  0  0  0
  -24.8785  -32.2713   26.4912 H   0  0  0  0  0  0
  -25.8087  -30.8827   27.0251 H   0  0  0  0  0  0
  -26.2923  -29.6779   24.1278 H   0  0  0  0  0  0
  -27.4475  -29.7491   25.4428 H   0  0  0  0  0  0
  -27.8582  -30.4602   23.9005 H   0  0  0  0  0  0
  -27.2828  -33.3684   26.1998 H   0  0  0  0  0  0
  -28.3898  -32.6789   25.0226 H   0  0  0  0  0  0
  -28.0804  -31.8455   26.5351 H   0  0  0  0  0  0
  -28.2635  -38.0089   24.7575 H   0  0  0  0  0  0
  -28.1060  -36.2644   24.6249 H   0  0  0  0  0  0
  -27.2299  -37.1423   25.8861 H   0  0  0  0  0  0
  -20.9339  -29.8721   21.6970 H   0  0  0  0  0  0
  -26.0172  -38.2888   24.1457 H   0  0  0  0  0  0
  -28.8111  -18.5140   17.6382 H   0  0  0  0  0  0
  -28.4939  -15.9503   18.4611 H   0  0  0  0  0  0
  -31.4890  -19.4606   17.1295 H   0  0  0  0  0  0
  -32.1857  -21.0794   17.1279 H   0  0  0  0  0  0
  -30.8029  -20.7117   16.0938 H   0  0  0  0  0  0
  -28.2523  -22.7097   19.0769 H   0  0  0  0  0  0
  -29.4544  -22.8538   20.3432 H   0  0  0  0  0  0
  -28.7780  -24.9278   18.2115 H   0  0  0  0  0  0
  -30.1901  -25.0734   19.2177 H   0  0  0  0  0  0
  -31.3015  -22.8156   18.7117 H   0  0  0  0  0  0
  -30.1795  -22.9401   17.3938 H   0  0  0  0  0  0
  -28.7678  -25.1210   21.2670 H   0  0  0  0  0  0
  -27.3374  -24.9225   20.3103 H   0  0  0  0  0  0
  -29.2686  -20.7063   17.8595 H   0  0  0  0  0  0
  -29.0042  -15.1570   21.1810 H   0  0  0  0  0  0
  1 25  1  0  0  0
  1 30  2  0  0  0
  1 82  1  0  0  0
  2  3  1  0  0  0
  2 25  1  0  0  0
  2 85  1  0  0  0
  2 86  1  0  0  0
  3  4  1  0  0  0
  3 87  1  0  0  0
  3 88  1  0  0  0
  4  5  1  0  0  0
  4 89  1  0  0  0
  4 90  1  0  0  0
  5  6  1  0  0  0
  5 26  1  0  0  0
  5 91  1  0  0  0
  6 25  1  0  0  0
  6 92  1  0  0  0
  6 93  1  0  0  0
  7  8  2  0  0  0
  7 26  1  0  0  0
  7 29  1  0  0  0
  8  9  1  0  0  0
  8 22  1  0  0  0
  9 10  1  0  0  0
  9 27  2  0  0  0
 10 11  2  0  0  0
 10 15  1  0  0  0
 11 12  1  0  0  0
 11 94  1  0  0  0
 12 13  2  0  0  0
 12 95  1  0  0  0
 13 14  1  0  0  0
 13 31  1  0  0  0
 14 15  2  0  0  0
 14 96  1  0  0  0
 15 97  1  0  0  0
 16 17  2  0  0  0
 16 21  1  0  0  0
 16 31  1  0  0  0
 17 18  1  0  0  0
 17 98  1  0  0  0
 18 19  2  0  0  0
 18 99  1  0  0  0
 19 20  1  0  0  0
 19 24  1  0  0  0
 20 21  2  0  0  0
 20100  1  0  0  0
 21 23  1  0  0  0
 22 28  1  0  0  0
 22 32  2  0  0  0
 26 27  1  0  0  0
 28101  1  0  0  0
 28102  1  0  0  0
 29103  1  0  0  0
 29104  1  0  0  0
 33 34  1  0  0  0
 33 66  1  0  0  0
 33 70  2  0  0  0
 34 36  1  0  0  0
 34 59  1  0  0  0
 34105  1  0  0  0
 35 44  2  0  0  0
 35 45  1  0  0  0
 35 68  1  0  0  0
 36 56  1  0  0  0
 36106  1  0  0  0
 37 39  1  0  0  0
 37 47  1  0  0  0
 37 66  1  0  0  0
 37107  1  0  0  0
 38 43  2  0  0  0
 38 46  1  0  0  0
 38 47  1  0  0  0
 39 64  1  0  0  0
 39 67  2  0  0  0
 40 52  1  0  0  0
 40 53  2  0  0  0
 40 58  1  0  0  0
 41108  1  0  0  0
 41109  1  0  0  0
 41110  1  0  0  0
 41 48  1  0  0  0
 42 43  1  0  0  0
 42 66  1  0  0  0
 42111  1  0  0  0
 42112  1  0  0  0
 43 44  1  0  0  0
 44113  1  0  0  0
 45 46  2  0  0  0
 45114  1  0  0  0
 46115  1  0  0  0
 47116  1  0  0  0
 47117  1  0  0  0
 48 56  1  0  0  0
 48 65  1  0  0  0
 48118  1  0  0  0
 49 50  1  0  0  0
 49 53  1  0  0  0
 49 64  1  0  0  0
 49119  1  0  0  0
 50 51  1  0  0  0
 50120  1  0  0  0
 50121  1  0  0  0
 51 52  1  0  0  0
 51122  1  0  0  0
 51123  1  0  0  0
 52124  1  0  0  0
 52125  1  0  0  0
 53 54  1  0  0  0
 54 55  2  0  0  0
 54126  1  0  0  0
 55 57  1  0  0  0
 55127  1  0  0  0
 56 69  2  0  0  0
 57 58  2  0  0  0
 57128  1  0  0  0
 58129  1  0  0  0
 59 60  1  0  0  0
 59 61  1  0  0  0
 59 62  1  0  0  0
 60130  1  0  0  0
 60131  1  0  0  0
 60132  1  0  0  0
 61133  1  0  0  0
 61134  1  0  0  0
 61135  1  0  0  0
 62136  1  0  0  0
 62137  1  0  0  0
 62138  1  0  0  0
 63 65  1  0  0  0
 63139  1  0  0  0
 63140  1  0  0  0
 63141  1  0  0  0
 64142  1  0  0  0
 65143  1  0  0  0
 68 80  1  0  0  0
 71 72  1  0  0  0
 71 73  2  0  0  0
 71144  1  0  0  0
 72 74  2  0  0  0
 72145  1  0  0  0
 73 75  1  0  0  0
 73 84  1  0  0  0
 74 82  1  0  0  0
 74 84  1  0  0  0
 75 81  1  0  0  0
 75 83  2  0  0  0
 76146  1  0  0  0
 76147  1  0  0  0
 76148  1  0  0  0
 76 81  1  0  0  0
 77 78  1  0  0  0
 77 79  1  0  0  0
 77149  1  0  0  0
 77150  1  0  0  0
 78 80  1  0  0  0
 78151  1  0  0  0
 78152  1  0  0  0
 79 81  1  0  0  0
 79153  1  0  0  0
 79154  1  0  0  0
 80155  1  0  0  0
 80156  1  0  0  0
 81157  1  0  0  0
 82158  1  0  0  0
M  ISO  4   1 100  68 101  80 101  82 100
M  END
> <chiral flag>
0

> <version>
0

> <s_m_source_file>
/data/baiqing/PycharmProjects/Reinvent-master-3.2/result/LINK_invent/BTK/process_docking_weight1_custom_product_contain_oxygen_bond_distance_aromatic_linkinvent_7_9_3/rearranged_h_0146.sdf

> <i_m_source_file_index>
51

> <r_mmod_Potential_Energy-OPLS-2005>
20.7122917175293

> <r_mmod_Stretch_Energy-OPLS-2005>
33.64208984375

> <r_mmod_Bend_Energy-OPLS-2005>
104.537055969238

> <r_mmod_Torsional_Energy-OPLS-2005>
270.3828125

> <r_mmod_Improper_Torsional_Energy-OPLS-2005>
8.74170303344727

> <r_mmod_Van_der_Waal_Energy-OPLS-2005>
129.137298583984

> <r_mmod_Electrostatic_Energy-OPLS-2005>
-312.855041503906

> <r_mmod_Solvation_Energy-OPLS-2005>
-226.00993347168

> <b_mmod_Minimization_Converged-OPLS-2005>
0

> <r_mmod_RMS_Derivative-OPLS-2005>
5.64414024353027

$$$$
51
                    3D
 Structure written by MMmdl.
166174  0  0  1  0            999 V2000
  -30.6893  -14.4736   20.5847 C   0  0  0  0  0  0
  -30.4216  -12.3139   19.4195 C   0  0  0  0  0  0
  -29.4931  -12.5127   18.2037 C   0  0  0  0  0  0
  -28.0128  -12.3714   18.6142 C   0  0  0  0  0  0
  -27.6577  -13.2066   19.8742 C   0  0  2  0  0  0
  -28.6984  -12.9821   20.9939 C   0  0  0  0  0  0
  -25.2556  -13.8154   20.5673 C   0  0  0  0  0  0
  -24.1821  -13.0431   20.9188 C   0  0  0  0  0  0
  -24.6378  -11.6900   20.8741 C   0  0  0  0  0  0
  -23.9056  -10.4285   21.0408 C   0  0  0  0  0  0
  -24.3614   -9.4202   21.9184 C   0  0  0  0  0  0
  -23.6288   -8.2237   22.0756 C   0  0  0  0  0  0
  -22.4268   -8.0277   21.3551 C   0  0  0  0  0  0
  -21.9905   -9.0249   20.4647 C   0  0  0  0  0  0
  -22.7229  -10.2127   20.3054 C   0  0  0  0  0  0
  -21.6852   -6.0737   22.5285 C   0  0  0  0  0  0
  -21.4009   -6.5639   23.8218 C   0  0  0  0  0  0
  -21.3662   -5.6791   24.9180 C   0  0  0  0  0  0
  -21.6047   -4.3054   24.7228 C   0  0  0  0  0  0
  -21.8819   -3.8150   23.4348 C   0  0  0  0  0  0
  -21.9189   -4.6967   22.3405 C   0  0  0  0  0  0
  -22.7846  -13.5224   21.1869 C   0  0  0  0  0  0
  -22.1656   -4.2150   21.0983 F   0  0  0  0  0  0
  -21.5633   -3.4539   25.7743 F   0  0  0  0  0  0
  -30.0262  -13.2941   20.4418 N   0  0  0  0  0  0
  -26.2993  -12.9325   20.3353 N   0  0  0  0  0  0
  -25.9299  -11.6487   20.5758 N   0  0  0  0  0  0
  -22.0483  -12.8209   22.0417 N   0  0  0  0  0  0
  -25.4283  -15.1876   20.4066 N   0  0  0  0  0  0
  -31.8249  -14.6552   20.1331 O   0  0  0  0  0  0
  -21.6632   -6.8875   21.4245 O   0  0  0  0  0  0
  -22.3529  -14.5534   20.6727 O   0  0  0  0  0  0
  -24.6179  -31.8661   23.2104 C   0  0  0  0  0  0
  -25.9073  -32.4810   23.8380 C   0  0  1  0  0  0
  -27.2279  -27.4128   20.0844 C   0  0  0  0  0  0
  -25.5921  -33.8603   24.2312 N   0  0  0  0  0  0
  -23.4032  -30.4930   21.5533 C   0  0  2  0  0  0
  -24.8433  -28.9583   20.1138 C   0  0  0  0  0  0
  -22.7425  -29.4653   22.5004 C   0  0  0  0  0  0
  -18.0286  -28.1388   22.8497 C   0  0  0  0  0  0
  -24.1490  -36.7315   23.2635 C   0  0  0  0  0  0
  -25.9332  -30.8263   21.3605 C   0  0  0  0  0  0
  -26.0069  -29.4593   20.7070 C   0  0  0  0  0  0
  -27.1979  -28.6958   20.6867 C   0  0  0  0  0  0
  -26.0342  -26.9267   19.4981 C   0  0  0  0  0  0
  -24.8536  -27.6917   19.5078 C   0  0  0  0  0  0
  -23.6079  -29.8291   20.1664 C   0  0  0  0  0  0
  -25.4112  -36.3103   24.0331 C   0  0  1  0  0  0
  -20.5873  -28.3663   23.1328 C   0  0  2  0  0  0
  -20.6776  -26.9396   22.5443 C   0  0  0  0  0  0
  -19.5766  -26.6382   21.5236 C   0  0  0  0  0  0
  -18.1934  -26.7943   22.1623 C   0  0  0  0  0  0
  -19.1530  -28.8846   23.2915 C   0  0  0  0  0  0
  -18.9446  -30.1454   23.8923 C   0  0  0  0  0  0
  -17.6443  -30.6587   24.0577 C   0  0  0  0  0  0
  -25.9042  -34.9468   23.5114 C   0  0  0  0  0  0
  -16.5342  -29.9083   23.6335 C   0  0  0  0  0  0
  -16.7270  -28.6514   23.0330 C   0  0  0  0  0  0
  -26.4490  -31.6585   25.0709 C   0  0  0  0  0  0
  -25.3749  -31.3662   26.1442 C   0  0  0  0  0  0
  -27.0309  -30.3036   24.6062 C   0  0  0  0  0  0
  -27.6073  -32.4289   25.7474 C   0  0  0  0  0  0
  -27.5579  -37.1811   24.8466 C   0  0  0  0  0  0
  -21.4154  -29.3025   22.3730 N   0  0  0  0  0  0
  -26.4298  -37.3792   23.9406 N   0  0  0  0  0  0
  -24.6707  -31.0760   22.1001 N   0  0  0  0  0  0
  -23.4196  -28.8189   23.3044 O   0  0  0  0  0  0
  -28.4221  -26.7073   20.0969 O   0  0  0  0  0  0
  -26.5600  -34.8927   22.4675 O   0  0  0  0  0  0
  -23.5376  -32.1410   23.7507 O   0  0  0  0  0  0
  -31.6144  -17.2130   21.7233 C   0  0  0  0  0  0
  -31.1028  -19.5866   21.4258 C   0  0  0  0  0  0
  -29.4506  -17.8991   20.8294 C   0  0  0  0  0  0
  -31.9909  -18.5671   21.8255 C   0  0  0  0  0  0
  -30.3466  -16.8612   21.2071 C   0  0  0  0  0  0
  -29.8181  -19.2709   20.9301 C   0  0  0  0  0  0
  -33.3136  -18.9185   22.3278 C   0  0  0  0  0  0
  -28.6087  -22.8107   20.1934 C   0  0  0  0  0  0
  -29.7680  -24.5243   21.6692 C   0  0  0  0  0  0
  -27.2513  -24.3838   21.6308 C   0  0  0  0  0  0
  -28.8943  -21.6191   21.1482 C   0  0  0  0  0  0
  -28.5111  -25.3363   19.6360 C   0  0  0  0  0  0
  -28.5318  -24.2613   20.7783 C   0  0  0  0  0  0
  -34.3903  -18.2638   21.9039 N   0  0  0  0  0  0
  -29.9592  -15.4858   21.1022 N   0  0  0  0  0  0
  -28.9332  -20.2874   20.5035 N   0  0  0  0  0  0
  -33.4587  -19.9015   23.2130 N   0  3  0  0  0  0
  -28.4177  -22.5946   18.9916 O   0  0  0  0  0  0
  -31.4662  -12.4188   19.1200 H   0  0  0  0  0  0
  -30.3254  -11.3005   19.8125 H   0  0  0  0  0  0
  -29.7350  -11.7912   17.4217 H   0  0  0  0  0  0
  -29.6614  -13.5008   17.7719 H   0  0  0  0  0  0
  -27.8201  -11.3144   18.8036 H   0  0  0  0  0  0
  -27.3666  -12.6524   17.7822 H   0  0  0  0  0  0
  -27.6999  -14.2554   19.5805 H   0  0  0  0  0  0
  -28.6763  -11.9417   21.3214 H   0  0  0  0  0  0
  -28.4589  -13.5701   21.8816 H   0  0  0  0  0  0
  -25.2766   -9.5670   22.4749 H   0  0  0  0  0  0
  -24.0009   -7.4619   22.7465 H   0  0  0  0  0  0
  -21.0845   -8.8756   19.8937 H   0  0  0  0  0  0
  -22.3697  -10.9665   19.6153 H   0  0  0  0  0  0
  -21.1990   -7.6144   23.9721 H   0  0  0  0  0  0
  -21.1492   -6.0524   25.9087 H   0  0  0  0  0  0
  -22.0598   -2.7614   23.2853 H   0  0  0  0  0  0
  -22.4099  -11.9862   22.4789 H   0  0  0  0  0  0
  -21.1095  -13.1234   22.2619 H   0  0  0  0  0  0
  -24.6590  -15.8413   20.5026 H   0  0  0  0  0  0
  -26.2708  -15.6216   20.0530 H   0  0  0  0  0  0
  -26.7126  -32.5508   23.1120 H   0  0  0  0  0  0
  -25.0072  -33.9752   25.0455 H   0  0  0  0  0  0
  -22.6932  -31.3115   21.4190 H   0  0  0  0  0  0
  -23.3752  -35.9650   23.3313 H   0  0  0  0  0  0
  -24.3576  -36.8928   22.2048 H   0  0  0  0  0  0
  -23.7254  -37.6528   23.6642 H   0  0  0  0  0  0
  -26.0428  -31.5905   20.5896 H   0  0  0  0  0  0
  -26.8236  -30.8800   21.9745 H   0  0  0  0  0  0
  -28.0995  -29.0835   21.1391 H   0  0  0  0  0  0
  -25.9666  -25.9608   19.0262 H   0  0  0  0  0  0
  -23.9577  -27.2994   19.0475 H   0  0  0  0  0  0
  -23.7169  -30.6058   19.4085 H   0  0  0  0  0  0
  -22.7278  -29.2545   19.8729 H   0  0  0  0  0  0
  -25.1292  -36.1954   25.0827 H   0  0  0  0  0  0
  -20.9962  -28.3212   24.1447 H   0  0  0  0  0  0
  -20.5694  -26.2277   23.3644 H   0  0  0  0  0  0
  -21.6642  -26.7441   22.1223 H   0  0  0  0  0  0
  -19.6948  -25.6296   21.1257 H   0  0  0  0  0  0
  -19.6727  -27.3208   20.6787 H   0  0  0  0  0  0
  -17.4217  -26.6730   21.4004 H   0  0  0  0  0  0
  -18.0291  -26.0073   22.9005 H   0  0  0  0  0  0
  -19.7906  -30.7278   24.2305 H   0  0  0  0  0  0
  -17.4985  -31.6269   24.5165 H   0  0  0  0  0  0
  -15.5340  -30.2978   23.7660 H   0  0  0  0  0  0
  -15.8683  -28.0851   22.6991 H   0  0  0  0  0  0
  -24.5951  -30.6989   25.7761 H   0  0  0  0  0  0
  -24.8898  -32.2792   26.4900 H   0  0  0  0  0  0
  -25.8093  -30.8820   27.0196 H   0  0  0  0  0  0
  -26.2827  -29.6806   24.1143 H   0  0  0  0  0  0
  -27.4128  -29.7270   25.4500 H   0  0  0  0  0  0
  -27.8648  -30.4390   23.9166 H   0  0  0  0  0  0
  -27.2720  -33.3592   26.2066 H   0  0  0  0  0  0
  -28.3870  -32.6836   25.0286 H   0  0  0  0  0  0
  -28.0742  -31.8392   26.5371 H   0  0  0  0  0  0
  -28.2600  -38.0104   24.7502 H   0  0  0  0  0  0
  -28.1065  -36.2633   24.6294 H   0  0  0  0  0  0
  -27.2287  -37.1468   25.8867 H   0  0  0  0  0  0
  -20.9327  -29.8747   21.6943 H   0  0  0  0  0  0
  -26.0187  -38.2873   24.1403 H   0  0  0  0  0  0
  -32.3048  -16.4442   22.0441 H   0  0  0  0  0  0
  -31.4434  -20.6107   21.4725 H   0  0  0  0  0  0
  -28.4767  -17.6376   20.4415 H   0  0  0  0  0  0
  -29.7569  -23.9226   22.5781 H   0  0  0  0  0  0
  -29.8119  -25.5668   21.9839 H   0  0  0  0  0  0
  -30.6972  -24.3107   21.1385 H   0  0  0  0  0  0
  -27.2362  -23.6680   22.4531 H   0  0  0  0  0  0
  -26.3525  -24.2232   21.0339 H   0  0  0  0  0  0
  -27.1723  -25.3750   22.0752 H   0  0  0  0  0  0
  -28.0984  -21.5996   21.8927 H   0  0  0  0  0  0
  -29.8097  -21.8331   21.6945 H   0  0  0  0  0  0
  -27.7857  -25.0916   18.8648 H   0  0  0  0  0  0
  -29.4614  -25.2758   19.1035 H   0  0  0  0  0  0
  -34.2824  -17.5487   21.1982 H   0  0  0  0  0  0
  -35.3237  -18.4768   22.2195 H   0  0  0  0  0  0
  -28.9965  -15.2638   21.3046 H   0  0  0  0  0  0
  -28.0803  -20.0157   20.0222 H   0  0  0  0  0  0
  -32.6346  -20.3519   23.5836 H   0  0  0  0  0  0
  -34.3564  -20.1784   23.5765 H   0  0  0  0  0  0
  1 25  1  0  0  0
  1 30  2  0  0  0
  1 85  1  0  0  0
  2  3  1  0  0  0
  2 25  1  0  0  0
  2 89  1  0  0  0
  2 90  1  0  0  0
  3  4  1  0  0  0
  3 91  1  0  0  0
  3 92  1  0  0  0
  4  5  1  0  0  0
  4 93  1  0  0  0
  4 94  1  0  0  0
  5  6  1  0  0  0
  5 26  1  0  0  0
  5 95  1  0  0  0
  6 25  1  0  0  0
  6 96  1  0  0  0
  6 97  1  0  0  0
  7  8  2  0  0  0
  7 26  1  0  0  0
  7 29  1  0  0  0
  8  9  1  0  0  0
  8 22  1  0  0  0
  9 10  1  0  0  0
  9 27  2  0  0  0
 10 11  2  0  0  0
 10 15  1  0  0  0
 11 12  1  0  0  0
 11 98  1  0  0  0
 12 13  2  0  0  0
 12 99  1  0  0  0
 13 14  1  0  0  0
 13 31  1  0  0  0
 14 15  2  0  0  0
 14100  1  0  0  0
 15101  1  0  0  0
 16 17  2  0  0  0
 16 21  1  0  0  0
 16 31  1  0  0  0
 17 18  1  0  0  0
 17102  1  0  0  0
 18 19  2  0  0  0
 18103  1  0  0  0
 19 20  1  0  0  0
 19 24  1  0  0  0
 20 21  2  0  0  0
 20104  1  0  0  0
 21 23  1  0  0  0
 22 28  1  0  0  0
 22 32  2  0  0  0
 26 27  1  0  0  0
 28105  1  0  0  0
 28106  1  0  0  0
 29107  1  0  0  0
 29108  1  0  0  0
 33 34  1  0  0  0
 33 66  1  0  0  0
 33 70  2  0  0  0
 34 36  1  0  0  0
 34 59  1  0  0  0
 34109  1  0  0  0
 35 44  2  0  0  0
 35 45  1  0  0  0
 35 68  1  0  0  0
 36 56  1  0  0  0
 36110  1  0  0  0
 37 39  1  0  0  0
 37 47  1  0  0  0
 37 66  1  0  0  0
 37111  1  0  0  0
 38 43  2  0  0  0
 38 46  1  0  0  0
 38 47  1  0  0  0
 39 64  1  0  0  0
 39 67  2  0  0  0
 40 52  1  0  0  0
 40 53  2  0  0  0
 40 58  1  0  0  0
 41112  1  0  0  0
 41113  1  0  0  0
 41114  1  0  0  0
 41 48  1  0  0  0
 42 43  1  0  0  0
 42 66  1  0  0  0
 42115  1  0  0  0
 42116  1  0  0  0
 43 44  1  0  0  0
 44117  1  0  0  0
 45 46  2  0  0  0
 45118  1  0  0  0
 46119  1  0  0  0
 47120  1  0  0  0
 47121  1  0  0  0
 48 56  1  0  0  0
 48 65  1  0  0  0
 48122  1  0  0  0
 49 50  1  0  0  0
 49 53  1  0  0  0
 49 64  1  0  0  0
 49123  1  0  0  0
 50 51  1  0  0  0
 50124  1  0  0  0
 50125  1  0  0  0
 51 52  1  0  0  0
 51126  1  0  0  0
 51127  1  0  0  0
 52128  1  0  0  0
 52129  1  0  0  0
 53 54  1  0  0  0
 54 55  2  0  0  0
 54130  1  0  0  0
 55 57  1  0  0  0
 55131  1  0  0  0
 56 69  2  0  0  0
 57 58  2  0  0  0
 57132  1  0  0  0
 58133  1  0  0  0
 59 60  1  0  0  0
 59 61  1  0  0  0
 59 62  1  0  0  0
 60134  1  0  0  0
 60135  1  0  0  0
 60136  1  0  0  0
 61137  1  0  0  0
 61138  1  0  0  0
 61139  1  0  0  0
 62140  1  0  0  0
 62141  1  0  0  0
 62142  1  0  0  0
 63 65  1  0  0  0
 63143  1  0  0  0
 63144  1  0  0  0
 63145  1  0  0  0
 64146  1  0  0  0
 65147  1  0  0  0
 68 82  1  0  0  0
 71 74  2  0  0  0
 71 75  1  0  0  0
 71148  1  0  0  0
 72 74  1  0  0  0
 72 76  2  0  0  0
 72149  1  0  0  0
 73 75  2  0  0  0
 73 76  1  0  0  0
 73150  1  0  0  0
 74 77  1  0  0  0
 75 85  1  0  0  0
 76 86  1  0  0  0
 77 84  1  0  0  0
 77 87  2  0  0  0
 78 81  1  0  0  0
 78 83  1  0  0  0
 78 88  2  0  0  0
 79151  1  0  0  0
 79152  1  0  0  0
 79153  1  0  0  0
 79 83  1  0  0  0
 80 83  1  0  0  0
 80154  1  0  0  0
 80155  1  0  0  0
 80156  1  0  0  0
 81 86  1  0  0  0
 81157  1  0  0  0
 81158  1  0  0  0
 82 83  1  0  0  0
 82159  1  0  0  0
 82160  1  0  0  0
 84161  1  0  0  0
 84162  1  0  0  0
 85163  1  0  0  0
 86164  1  0  0  0
 87165  1  0  0  0
 87166  1  0  0  0
M  CHG  1  87   1
M  ISO  4   1 100  68 101  82 101  85 100
M  END
> <chiral flag>
0

> <version>
0

> <s_m_source_file>
/data/baiqing/PycharmProjects/Reinvent-master-3.2/result/LINK_invent/BTK/process_docking_weight1_custom_product_contain_oxygen_bond_distance_aromatic_linkinvent_7_9_3/rearranged_h_0146.sdf

> <i_m_source_file_index>
52

> <r_mmod_Potential_Energy-OPLS-2005>
-294.477294921875

> <r_mmod_Stretch_Energy-OPLS-2005>
46.7621765136719

> <r_mmod_Bend_Energy-OPLS-2005>
119.163650512695

> <r_mmod_Torsional_Energy-OPLS-2005>
222.896514892578

> <r_mmod_Improper_Torsional_Energy-OPLS-2005>
5.58595085144043

> <r_mmod_Van_der_Waal_Energy-OPLS-2005>
162.825012207031

> <r_mmod_Electrostatic_Energy-OPLS-2005>
-410.252349853516

> <r_mmod_Solvation_Energy-OPLS-2005>
-455.477630615234

> <b_mmod_Minimization_Converged-OPLS-2005>
0

> <r_mmod_RMS_Derivative-OPLS-2005>
1.68602776527405

$$$$
52
                    3D
 Structure written by MMmdl.
162171  0  0  1  0            999 V2000
  -30.7457  -14.5444   20.5251 C   0  0  0  0  0  0
  -30.4166  -12.3434   19.4540 C   0  0  0  0  0  0
  -29.4872  -12.4757   18.2300 C   0  0  0  0  0  0
  -28.0176  -12.3219   18.6595 C   0  0  0  0  0  0
  -27.6530  -13.2164   19.8727 C   0  0  2  0  0  0
  -28.7074  -13.1060   21.0051 C   0  0  0  0  0  0
  -25.2519  -13.8151   20.5732 C   0  0  0  0  0  0
  -24.1798  -13.0413   20.9206 C   0  0  0  0  0  0
  -24.6368  -11.6897   20.8815 C   0  0  0  0  0  0
  -23.9020  -10.4286   21.0445 C   0  0  0  0  0  0
  -24.3579   -9.4180   21.9203 C   0  0  0  0  0  0
  -23.6237   -8.2221   22.0772 C   0  0  0  0  0  0
  -22.4221   -8.0265   21.3557 C   0  0  0  0  0  0
  -21.9860   -9.0248   20.4675 C   0  0  0  0  0  0
  -22.7185  -10.2132   20.3094 C   0  0  0  0  0  0
  -21.6836   -6.0717   22.5286 C   0  0  0  0  0  0
  -21.4022   -6.5635   23.8215 C   0  0  0  0  0  0
  -21.3666   -5.6805   24.9195 C   0  0  0  0  0  0
  -21.6020   -4.3060   24.7276 C   0  0  0  0  0  0
  -21.8808   -3.8140   23.4410 C   0  0  0  0  0  0
  -21.9175   -4.6944   22.3446 C   0  0  0  0  0  0
  -22.7827  -13.5217   21.1846 C   0  0  0  0  0  0
  -22.1644   -4.2121   21.1025 F   0  0  0  0  0  0
  -21.5629   -3.4546   25.7792 F   0  0  0  0  0  0
  -30.0283  -13.3860   20.4210 N   0  0  0  0  0  0
  -26.2987  -12.9360   20.3460 N   0  0  0  0  0  0
  -25.9306  -11.6504   20.5890 N   0  0  0  0  0  0
  -22.0478  -12.8217   22.0431 N   0  0  0  0  0  0
  -25.4118  -15.1881   20.4139 N   0  0  0  0  0  0
  -31.9034  -14.6241   20.1072 O   0  0  0  0  0  0
  -21.6610   -6.8848   21.4237 O   0  0  0  0  0  0
  -22.3498  -14.5515   20.6672 O   0  0  0  0  0  0
  -24.6213  -31.8636   23.2116 C   0  0  0  0  0  0
  -25.9067  -32.4814   23.8412 C   0  0  1  0  0  0
  -27.2212  -27.3832   20.0841 C   0  0  0  0  0  0
  -25.5916  -33.8617   24.2356 N   0  0  0  0  0  0
  -23.4102  -30.4904   21.5562 C   0  0  2  0  0  0
  -24.8540  -28.9582   20.1154 C   0  0  0  0  0  0
  -22.7476  -29.4618   22.5011 C   0  0  0  0  0  0
  -18.0279  -28.1365   22.8539 C   0  0  0  0  0  0
  -24.1485  -36.7296   23.2645 C   0  0  0  0  0  0
  -25.9490  -30.8092   21.3760 C   0  0  0  0  0  0
  -26.0205  -29.4426   20.7198 C   0  0  0  0  0  0
  -27.2070  -28.6594   20.7088 C   0  0  0  0  0  0
  -26.0296  -26.9425   19.4552 C   0  0  0  0  0  0
  -24.8544  -27.7075   19.4859 C   0  0  0  0  0  0
  -23.6223  -29.8356   20.1687 C   0  0  0  0  0  0
  -25.4099  -36.3109   24.0361 C   0  0  1  0  0  0
  -20.5883  -28.3630   23.1365 C   0  0  2  0  0  0
  -20.6767  -26.9363   22.5460 C   0  0  0  0  0  0
  -19.5727  -26.6371   21.5270 C   0  0  0  0  0  0
  -18.1903  -26.7914   22.1662 C   0  0  0  0  0  0
  -19.1532  -28.8816   23.2937 C   0  0  0  0  0  0
  -18.9451  -30.1437   23.8921 C   0  0  0  0  0  0
  -17.6442  -30.6584   24.0573 C   0  0  0  0  0  0
  -25.9026  -34.9468   23.5156 C   0  0  0  0  0  0
  -16.5338  -29.9090   23.6331 C   0  0  0  0  0  0
  -16.7258  -28.6503   23.0361 C   0  0  0  0  0  0
  -26.4485  -31.6593   25.0730 C   0  0  0  0  0  0
  -25.3758  -31.3704   26.1486 C   0  0  0  0  0  0
  -27.0329  -30.3055   24.6079 C   0  0  0  0  0  0
  -27.6054  -32.4332   25.7443 C   0  0  0  0  0  0
  -27.5584  -37.1780   24.8466 C   0  0  0  0  0  0
  -21.4181  -29.2995   22.3767 N   0  0  0  0  0  0
  -26.4296  -37.3785   23.9421 N   0  0  0  0  0  0
  -24.6794  -31.0705   22.1045 N   0  0  0  0  0  0
  -23.4249  -28.8137   23.3034 O   0  0  0  0  0  0
  -28.3637  -26.5833   20.1073 O   0  0  0  0  0  0
  -26.5562  -34.8936   22.4701 O   0  0  0  0  0  0
  -23.5388  -32.1395   23.7495 O   0  0  0  0  0  0
  -28.7428  -18.3062   19.8801 C   0  0  0  0  0  0
  -28.4898  -19.7011   19.6997 C   0  0  0  0  0  0
  -29.9504  -18.1873   20.5251 C   0  0  0  0  0  0
  -29.5708  -20.3555   20.2241 C   0  0  0  0  0  0
  -30.9675  -22.5027   20.1636 C   0  0  0  0  0  0
  -28.5996  -22.6911   20.3805 C   0  0  0  0  0  0
  -30.5078  -23.9189   19.7070 C   0  0  1  0  0  0
  -29.1750  -24.1380   20.4706 C   0  0  2  0  0  0
  -31.5519  -25.0425   19.8570 C   0  0  0  0  0  0
  -29.3988  -24.5179   21.9502 C   0  0  0  0  0  0
  -30.7343  -17.0082   21.0854 C   0  0  0  0  0  0
  -28.1746  -25.1615   19.8392 C   0  0  0  0  0  0
  -29.7264  -21.7596   20.3608 N   0  0  0  0  0  0
  -30.1109  -15.6595   20.9527 N   0  0  0  0  0  0
  -30.4903  -19.4531   20.7014 O   0  0  0  0  0  0
  -31.4580  -12.4311   19.1387 H   0  0  0  0  0  0
  -30.3269  -11.3579   19.9119 H   0  0  0  0  0  0
  -29.7368  -11.7196   17.4817 H   0  0  0  0  0  0
  -29.6344  -13.4469   17.7579 H   0  0  0  0  0  0
  -27.8640  -11.2709   18.9140 H   0  0  0  0  0  0
  -27.3498  -12.5311   17.8244 H   0  0  0  0  0  0
  -27.6598  -14.2451   19.5130 H   0  0  0  0  0  0
  -28.7007  -12.1130   21.4563 H   0  0  0  0  0  0
  -28.4736  -13.7994   21.8143 H   0  0  0  0  0  0
  -25.2744   -9.5648   22.4746 H   0  0  0  0  0  0
  -23.9950   -7.4616   22.7495 H   0  0  0  0  0  0
  -21.0776   -8.8760   19.9002 H   0  0  0  0  0  0
  -22.3628  -10.9668   19.6218 H   0  0  0  0  0  0
  -21.2039   -7.6154   23.9722 H   0  0  0  0  0  0
  -21.1481   -6.0554   25.9092 H   0  0  0  0  0  0
  -22.0576   -2.7587   23.2938 H   0  0  0  0  0  0
  -22.4099  -11.9891   22.4857 H   0  0  0  0  0  0
  -21.1133  -13.1292   22.2707 H   0  0  0  0  0  0
  -24.6277  -15.8188   20.5390 H   0  0  0  0  0  0
  -26.2572  -15.6579   20.1106 H   0  0  0  0  0  0
  -26.7128  -32.5511   23.1155 H   0  0  0  0  0  0
  -25.0143  -33.9772   25.0562 H   0  0  0  0  0  0
  -22.6984  -31.3078   21.4236 H   0  0  0  0  0  0
  -23.3769  -35.9611   23.3335 H   0  0  0  0  0  0
  -24.3574  -36.8860   22.2052 H   0  0  0  0  0  0
  -23.7238  -37.6511   23.6634 H   0  0  0  0  0  0
  -26.0711  -31.5746   20.6094 H   0  0  0  0  0  0
  -26.8346  -30.8588   21.9967 H   0  0  0  0  0  0
  -28.1036  -29.0206   21.1930 H   0  0  0  0  0  0
  -25.9741  -25.9992   18.9354 H   0  0  0  0  0  0
  -23.9568  -27.3340   19.0137 H   0  0  0  0  0  0
  -23.7426  -30.6190   19.4196 H   0  0  0  0  0  0
  -22.7431  -29.2667   19.8619 H   0  0  0  0  0  0
  -25.1299  -36.1953   25.0863 H   0  0  0  0  0  0
  -20.9957  -28.3172   24.1493 H   0  0  0  0  0  0
  -20.5741  -26.2212   23.3632 H   0  0  0  0  0  0
  -21.6618  -26.7424   22.1204 H   0  0  0  0  0  0
  -19.6891  -25.6303   21.1249 H   0  0  0  0  0  0
  -19.6686  -27.3237   20.6850 H   0  0  0  0  0  0
  -17.4204  -26.6729   21.4034 H   0  0  0  0  0  0
  -18.0241  -26.0034   22.9018 H   0  0  0  0  0  0
  -19.7913  -30.7259   24.2315 H   0  0  0  0  0  0
  -17.4977  -31.6256   24.5162 H   0  0  0  0  0  0
  -15.5327  -30.2973   23.7632 H   0  0  0  0  0  0
  -15.8667  -28.0809   22.7061 H   0  0  0  0  0  0
  -24.5910  -30.7075   25.7832 H   0  0  0  0  0  0
  -24.8971  -32.2872   26.4949 H   0  0  0  0  0  0
  -25.8083  -30.8854   27.0242 H   0  0  0  0  0  0
  -26.2860  -29.6775   24.1211 H   0  0  0  0  0  0
  -27.4249  -29.7301   25.4475 H   0  0  0  0  0  0
  -27.8647  -30.4464   23.9167 H   0  0  0  0  0  0
  -27.2686  -33.3651   26.2002 H   0  0  0  0  0  0
  -28.3836  -32.6858   25.0229 H   0  0  0  0  0  0
  -28.0744  -31.8454   26.5334 H   0  0  0  0  0  0
  -28.2623  -38.0053   24.7484 H   0  0  0  0  0  0
  -28.1055  -36.2586   24.6329 H   0  0  0  0  0  0
  -27.2299  -37.1465   25.8865 H   0  0  0  0  0  0
  -20.9364  -29.8727   21.6976 H   0  0  0  0  0  0
  -26.0194  -38.2874   24.1405 H   0  0  0  0  0  0
  -28.1008  -17.4860   19.5936 H   0  0  0  0  0  0
  -27.6133  -20.1492   19.2438 H   0  0  0  0  0  0
  -31.5063  -22.5678   21.1107 H   0  0  0  0  0  0
  -31.6315  -22.0314   19.4391 H   0  0  0  0  0  0
  -28.0240  -22.5690   19.4625 H   0  0  0  0  0  0
  -27.9317  -22.4724   21.2140 H   0  0  0  0  0  0
  -30.2727  -23.8474   18.6434 H   0  0  0  0  0  0
  -31.8837  -25.1638   20.8878 H   0  0  0  0  0  0
  -31.1348  -25.9935   19.5279 H   0  0  0  0  0  0
  -32.4342  -24.8561   19.2409 H   0  0  0  0  0  0
  -30.1244  -23.8654   22.4352 H   0  0  0  0  0  0
  -28.4736  -24.4479   22.5201 H   0  0  0  0  0  0
  -29.7543  -25.5448   22.0482 H   0  0  0  0  0  0
  -30.8757  -17.1752   22.1535 H   0  0  0  0  0  0
  -31.7463  -17.0231   20.6703 H   0  0  0  0  0  0
  -27.2092  -24.8572   20.2482 H   0  0  0  0  0  0
  -28.1162  -25.0077   18.7608 H   0  0  0  0  0  0
  -29.1513  -15.5715   21.2506 H   0  0  0  0  0  0
  1 25  1  0  0  0
  1 30  2  0  0  0
  1 84  1  0  0  0
  2  3  1  0  0  0
  2 25  1  0  0  0
  2 86  1  0  0  0
  2 87  1  0  0  0
  3  4  1  0  0  0
  3 88  1  0  0  0
  3 89  1  0  0  0
  4  5  1  0  0  0
  4 90  1  0  0  0
  4 91  1  0  0  0
  5  6  1  0  0  0
  5 26  1  0  0  0
  5 92  1  0  0  0
  6 25  1  0  0  0
  6 93  1  0  0  0
  6 94  1  0  0  0
  7  8  2  0  0  0
  7 26  1  0  0  0
  7 29  1  0  0  0
  8  9  1  0  0  0
  8 22  1  0  0  0
  9 10  1  0  0  0
  9 27  2  0  0  0
 10 11  2  0  0  0
 10 15  1  0  0  0
 11 12  1  0  0  0
 11 95  1  0  0  0
 12 13  2  0  0  0
 12 96  1  0  0  0
 13 14  1  0  0  0
 13 31  1  0  0  0
 14 15  2  0  0  0
 14 97  1  0  0  0
 15 98  1  0  0  0
 16 17  2  0  0  0
 16 21  1  0  0  0
 16 31  1  0  0  0
 17 18  1  0  0  0
 17 99  1  0  0  0
 18 19  2  0  0  0
 18100  1  0  0  0
 19 20  1  0  0  0
 19 24  1  0  0  0
 20 21  2  0  0  0
 20101  1  0  0  0
 21 23  1  0  0  0
 22 28  1  0  0  0
 22 32  2  0  0  0
 26 27  1  0  0  0
 28102  1  0  0  0
 28103  1  0  0  0
 29104  1  0  0  0
 29105  1  0  0  0
 33 34  1  0  0  0
 33 66  1  0  0  0
 33 70  2  0  0  0
 34 36  1  0  0  0
 34 59  1  0  0  0
 34106  1  0  0  0
 35 44  2  0  0  0
 35 45  1  0  0  0
 35 68  1  0  0  0
 36 56  1  0  0  0
 36107  1  0  0  0
 37 39  1  0  0  0
 37 47  1  0  0  0
 37 66  1  0  0  0
 37108  1  0  0  0
 38 43  2  0  0  0
 38 46  1  0  0  0
 38 47  1  0  0  0
 39 64  1  0  0  0
 39 67  2  0  0  0
 40 52  1  0  0  0
 40 53  2  0  0  0
 40 58  1  0  0  0
 41109  1  0  0  0
 41110  1  0  0  0
 41111  1  0  0  0
 41 48  1  0  0  0
 42 43  1  0  0  0
 42 66  1  0  0  0
 42112  1  0  0  0
 42113  1  0  0  0
 43 44  1  0  0  0
 44114  1  0  0  0
 45 46  2  0  0  0
 45115  1  0  0  0
 46116  1  0  0  0
 47117  1  0  0  0
 47118  1  0  0  0
 48 56  1  0  0  0
 48 65  1  0  0  0
 48119  1  0  0  0
 49 50  1  0  0  0
 49 53  1  0  0  0
 49 64  1  0  0  0
 49120  1  0  0  0
 50 51  1  0  0  0
 50121  1  0  0  0
 50122  1  0  0  0
 51 52  1  0  0  0
 51123  1  0  0  0
 51124  1  0  0  0
 52125  1  0  0  0
 52126  1  0  0  0
 53 54  1  0  0  0
 54 55  2  0  0  0
 54127  1  0  0  0
 55 57  1  0  0  0
 55128  1  0  0  0
 56 69  2  0  0  0
 57 58  2  0  0  0
 57129  1  0  0  0
 58130  1  0  0  0
 59 60  1  0  0  0
 59 61  1  0  0  0
 59 62  1  0  0  0
 60131  1  0  0  0
 60132  1  0  0  0
 60133  1  0  0  0
 61134  1  0  0  0
 61135  1  0  0  0
 61136  1  0  0  0
 62137  1  0  0  0
 62138  1  0  0  0
 62139  1  0  0  0
 63 65  1  0  0  0
 63140  1  0  0  0
 63141  1  0  0  0
 63142  1  0  0  0
 64143  1  0  0  0
 65144  1  0  0  0
 68 82  1  0  0  0
 71 72  1  0  0  0
 71 73  2  0  0  0
 71145  1  0  0  0
 72 74  2  0  0  0
 72146  1  0  0  0
 73 81  1  0  0  0
 73 85  1  0  0  0
 74 83  1  0  0  0
 74 85  1  0  0  0
 75 77  1  0  0  0
 75 83  1  0  0  0
 75147  1  0  0  0
 75148  1  0  0  0
 76 78  1  0  0  0
 76 83  1  0  0  0
 76149  1  0  0  0
 76150  1  0  0  0
 77 78  1  0  0  0
 77 79  1  0  0  0
 77151  1  0  0  0
 78 80  1  0  0  0
 78 82  1  0  0  0
 79152  1  0  0  0
 79153  1  0  0  0
 79154  1  0  0  0
 80155  1  0  0  0
 80156  1  0  0  0
 80157  1  0  0  0
 81 84  1  0  0  0
 81158  1  0  0  0
 81159  1  0  0  0
 82160  1  0  0  0
 82161  1  0  0  0
 84162  1  0  0  0
M  ISO  4   1 100  68 101  82 101  84 100
M  END
> <chiral flag>
0

> <version>
0

> <s_m_source_file>
/data/baiqing/PycharmProjects/Reinvent-master-3.2/result/LINK_invent/BTK/process_docking_weight1_custom_product_contain_oxygen_bond_distance_aromatic_linkinvent_7_9_3/rearranged_h_0146.sdf

> <i_m_source_file_index>
53

> <r_mmod_Potential_Energy-OPLS-2005>
-19.6826953887939

> <r_mmod_Stretch_Energy-OPLS-2005>
49.5050315856934

> <r_mmod_Bend_Energy-OPLS-2005>
159.703231811523

> <r_mmod_Torsional_Energy-OPLS-2005>
272.95849609375

> <r_mmod_Improper_Torsional_Energy-OPLS-2005>
3.94041919708252

> <r_mmod_Van_der_Waal_Energy-OPLS-2005>
133.637619018555

> <r_mmod_Electrostatic_Energy-OPLS-2005>
-445.766510009766

> <r_mmod_Solvation_Energy-OPLS-2005>
-223.638870239258

> <b_mmod_Minimization_Converged-OPLS-2005>
0

> <r_mmod_RMS_Derivative-OPLS-2005>
5.93438053131104

$$$$
53
                    3D
 Structure written by MMmdl.
167176  0  0  1  0            999 V2000
  -30.6291  -14.5757   20.5305 C   0  0  0  0  0  0
  -30.4393  -12.3567   19.4394 C   0  0  0  0  0  0
  -29.5066  -12.5082   18.2169 C   0  0  0  0  0  0
  -28.0264  -12.3565   18.6258 C   0  0  0  0  0  0
  -27.6586  -13.2070   19.8708 C   0  0  2  0  0  0
  -28.7014  -13.0144   20.9954 C   0  0  0  0  0  0
  -25.2585  -13.8153   20.5673 C   0  0  0  0  0  0
  -24.1839  -13.0434   20.9180 C   0  0  0  0  0  0
  -24.6391  -11.6901   20.8732 C   0  0  0  0  0  0
  -23.9056  -10.4289   21.0402 C   0  0  0  0  0  0
  -24.3611   -9.4206   21.9181 C   0  0  0  0  0  0
  -23.6289   -8.2242   22.0753 C   0  0  0  0  0  0
  -22.4270   -8.0280   21.3543 C   0  0  0  0  0  0
  -21.9904   -9.0249   20.4641 C   0  0  0  0  0  0
  -22.7232  -10.2129   20.3049 C   0  0  0  0  0  0
  -21.6852   -6.0734   22.5277 C   0  0  0  0  0  0
  -21.4014   -6.5637   23.8212 C   0  0  0  0  0  0
  -21.3661   -5.6790   24.9173 C   0  0  0  0  0  0
  -21.6046   -4.3052   24.7222 C   0  0  0  0  0  0
  -21.8821   -3.8144   23.4342 C   0  0  0  0  0  0
  -21.9191   -4.6961   22.3399 C   0  0  0  0  0  0
  -22.7863  -13.5234   21.1844 C   0  0  0  0  0  0
  -22.1662   -4.2148   21.0976 F   0  0  0  0  0  0
  -21.5629   -3.4535   25.7735 F   0  0  0  0  0  0
  -30.0236  -13.3536   20.4417 N   0  0  0  0  0  0
  -26.3009  -12.9315   20.3333 N   0  0  0  0  0  0
  -25.9316  -11.6479   20.5754 N   0  0  0  0  0  0
  -22.0494  -12.8220   22.0389 N   0  0  0  0  0  0
  -25.4314  -15.1873   20.4081 N   0  0  0  0  0  0
  -31.7793  -14.7697   20.1232 O   0  0  0  0  0  0
  -21.6638   -6.8875   21.4240 O   0  0  0  0  0  0
  -22.3555  -14.5544   20.6700 O   0  0  0  0  0  0
  -24.6194  -31.8635   23.2041 C   0  0  0  0  0  0
  -25.9061  -32.4808   23.8359 C   0  0  1  0  0  0
  -27.2348  -27.3821   20.1156 C   0  0  0  0  0  0
  -25.5903  -33.8606   24.2297 N   0  0  0  0  0  0
  -23.4116  -30.4844   21.5445 C   0  0  2  0  0  0
  -24.8609  -28.9385   20.1162 C   0  0  0  0  0  0
  -22.7437  -29.4643   22.4956 C   0  0  0  0  0  0
  -18.0280  -28.1386   22.8489 C   0  0  0  0  0  0
  -24.1482  -36.7294   23.2635 C   0  0  0  0  0  0
  -25.9445  -30.8145   21.3631 C   0  0  0  0  0  0
  -26.0241  -29.4427   20.7139 C   0  0  0  0  0  0
  -27.2174  -28.6742   20.7048 C   0  0  0  0  0  0
  -26.0554  -26.9019   19.5123 C   0  0  0  0  0  0
  -24.8740  -27.6696   19.5100 C   0  0  0  0  0  0
  -23.6249  -29.8115   20.1617 C   0  0  0  0  0  0
  -25.4107  -36.3102   24.0336 C   0  0  1  0  0  0
  -20.5873  -28.3682   23.1304 C   0  0  2  0  0  0
  -20.6772  -26.9412   22.5417 C   0  0  0  0  0  0
  -19.5756  -26.6389   21.5210 C   0  0  0  0  0  0
  -18.1933  -26.7932   22.1618 C   0  0  0  0  0  0
  -19.1529  -28.8848   23.2896 C   0  0  0  0  0  0
  -18.9456  -30.1450   23.8915 C   0  0  0  0  0  0
  -17.6459  -30.6590   24.0569 C   0  0  0  0  0  0
  -25.9042  -34.9472   23.5117 C   0  0  0  0  0  0
  -16.5350  -29.9097   23.6325 C   0  0  0  0  0  0
  -16.7268  -28.6511   23.0348 C   0  0  0  0  0  0
  -26.4471  -31.6603   25.0706 C   0  0  0  0  0  0
  -25.3728  -31.3722   26.1451 C   0  0  0  0  0  0
  -27.0305  -30.3048   24.6090 C   0  0  0  0  0  0
  -27.6038  -32.4329   25.7476 C   0  0  0  0  0  0
  -27.5584  -37.1800   24.8454 C   0  0  0  0  0  0
  -21.4157  -29.3044   22.3700 N   0  0  0  0  0  0
  -26.4282  -37.3799   23.9425 N   0  0  0  0  0  0
  -24.6772  -31.0695   22.0959 N   0  0  0  0  0  0
  -23.4184  -28.8186   23.3017 O   0  0  0  0  0  0
  -28.3696  -26.5851   20.1035 O   0  0  0  0  0  0
  -26.5603  -34.8934   22.4677 O   0  0  0  0  0  0
  -23.5374  -32.1400   23.7410 O   0  0  0  0  0  0
  -30.6679  -19.1991   20.6683 C   0  0  0  0  0  0
  -30.9686  -17.7897   20.5753 C   0  0  0  0  0  0
  -29.3712  -19.4845   21.0326 C   0  0  0  0  0  0
  -29.9098  -16.9540   20.8635 C   0  0  0  0  0  0
  -29.6893  -23.1360   20.7646 C   0  0  0  0  0  0
  -28.0909  -20.7384   22.7797 C   0  0  0  0  0  0
  -29.3270  -20.9023   23.6602 C   0  0  0  0  0  0
  -28.6799  -20.8309   21.3704 C   0  0  1  0  0  0
  -30.2217  -21.8872   22.8750 C   0  0  2  0  0  0
  -29.1727  -23.9258   24.1084 C   0  0  0  0  0  0
  -31.3883  -22.9876   24.8750 C   0  0  0  0  0  0
  -28.4509  -23.9648   20.3015 C   0  0  0  0  0  0
  -28.3249  -25.4010   20.9524 C   0  0  0  0  0  0
  -30.4677  -23.2132   23.6650 C   0  0  0  0  0  0
  -29.5678  -22.0159   21.5466 N   0  0  0  0  0  0
  -29.8097  -15.5817   20.9433 N   0  0  0  0  0  0
  -30.8038  -23.6137   20.5301 O   0  0  0  0  0  0
  -28.4967  -17.9576   21.1731 S   0  0  0  0  0  0
  -31.4811  -12.4828   19.1399 H   0  0  0  0  0  0
  -30.3676  -11.3505   19.8554 H   0  0  0  0  0  0
  -29.7608  -11.7691   17.4560 H   0  0  0  0  0  0
  -29.6609  -13.4852   17.7563 H   0  0  0  0  0  0
  -27.8480  -11.3012   18.8346 H   0  0  0  0  0  0
  -27.3754  -12.6131   17.7890 H   0  0  0  0  0  0
  -27.6905  -14.2498   19.5552 H   0  0  0  0  0  0
  -28.6993  -11.9804   21.3432 H   0  0  0  0  0  0
  -28.4518  -13.6147   21.8716 H   0  0  0  0  0  0
  -25.2758   -9.5685   22.4754 H   0  0  0  0  0  0
  -23.9999   -7.4632   22.7472 H   0  0  0  0  0  0
  -21.0837   -8.8762   19.8945 H   0  0  0  0  0  0
  -22.3690  -10.9664   19.6154 H   0  0  0  0  0  0
  -21.2008   -7.6148   23.9716 H   0  0  0  0  0  0
  -21.1483   -6.0518   25.9077 H   0  0  0  0  0  0
  -22.0598   -2.7607   23.2838 H   0  0  0  0  0  0
  -22.4098  -11.9863   22.4755 H   0  0  0  0  0  0
  -21.1110  -13.1246   22.2586 H   0  0  0  0  0  0
  -24.6625  -15.8404   20.5120 H   0  0  0  0  0  0
  -26.2774  -15.6246   20.0658 H   0  0  0  0  0  0
  -26.7132  -32.5508   23.1119 H   0  0  0  0  0  0
  -25.0081  -33.9756   25.0463 H   0  0  0  0  0  0
  -22.7039  -31.3029   21.3991 H   0  0  0  0  0  0
  -23.3765  -35.9602   23.3273 H   0  0  0  0  0  0
  -24.3584  -36.8929   22.2053 H   0  0  0  0  0  0
  -23.7200  -37.6479   23.6662 H   0  0  0  0  0  0
  -26.0588  -31.5754   20.5898 H   0  0  0  0  0  0
  -26.8319  -30.8737   21.9819 H   0  0  0  0  0  0
  -28.1156  -29.0576   21.1683 H   0  0  0  0  0  0
  -26.0510  -25.9254   19.0480 H   0  0  0  0  0  0
  -23.9812  -27.2740   19.0454 H   0  0  0  0  0  0
  -23.7392  -30.5835   19.3999 H   0  0  0  0  0  0
  -22.7486  -29.2334   19.8631 H   0  0  0  0  0  0
  -25.1281  -36.1956   25.0828 H   0  0  0  0  0  0
  -20.9967  -28.3251   24.1423 H   0  0  0  0  0  0
  -20.5674  -26.2289   23.3606 H   0  0  0  0  0  0
  -21.6646  -26.7455   22.1211 H   0  0  0  0  0  0
  -19.6921  -25.6301   21.1238 H   0  0  0  0  0  0
  -19.6703  -27.3204   20.6744 H   0  0  0  0  0  0
  -17.4206  -26.6678   21.4017 H   0  0  0  0  0  0
  -18.0335  -26.0073   22.9011 H   0  0  0  0  0  0
  -19.7935  -30.7254   24.2296 H   0  0  0  0  0  0
  -17.5022  -31.6272   24.5168 H   0  0  0  0  0  0
  -15.5354  -30.3012   23.7639 H   0  0  0  0  0  0
  -15.8664  -28.0838   22.7060 H   0  0  0  0  0  0
  -24.5891  -30.7081   25.7791 H   0  0  0  0  0  0
  -24.8928  -32.2883   26.4909 H   0  0  0  0  0  0
  -25.8069  -30.8885   27.0209 H   0  0  0  0  0  0
  -26.2856  -29.6828   24.1115 H   0  0  0  0  0  0
  -27.4052  -29.7271   25.4549 H   0  0  0  0  0  0
  -27.8701  -30.4381   23.9262 H   0  0  0  0  0  0
  -27.2656  -33.3639   26.2040 H   0  0  0  0  0  0
  -28.3855  -32.6871   25.0305 H   0  0  0  0  0  0
  -28.0693  -31.8458   26.5401 H   0  0  0  0  0  0
  -28.2568  -38.0135   24.7566 H   0  0  0  0  0  0
  -28.1112  -36.2670   24.6191 H   0  0  0  0  0  0
  -27.2313  -37.1341   25.8856 H   0  0  0  0  0  0
  -20.9320  -29.8769   21.6922 H   0  0  0  0  0  0
  -26.0161  -38.2864   24.1471 H   0  0  0  0  0  0
  -31.4299  -19.9474   20.5003 H   0  0  0  0  0  0
  -31.9639  -17.4491   20.3261 H   0  0  0  0  0  0
  -27.4068  -21.5713   22.9507 H   0  0  0  0  0  0
  -27.5335  -19.8254   22.9871 H   0  0  0  0  0  0
  -29.8398  -19.9453   23.7695 H   0  0  0  0  0  0
  -29.0643  -21.2279   24.6658 H   0  0  0  0  0  0
  -27.8944  -21.0339   20.6410 H   0  0  0  0  0  0
  -31.1904  -21.4186   22.6925 H   0  0  0  0  0  0
  -28.4242  -23.9517   23.3196 H   0  0  0  0  0  0
  -29.3771  -24.9555   24.4029 H   0  0  0  0  0  0
  -28.7105  -23.4357   24.9653 H   0  0  0  0  0  0
  -32.3331  -22.5340   24.5730 H   0  0  0  0  0  0
  -30.9316  -22.3368   25.6207 H   0  0  0  0  0  0
  -31.6257  -23.9320   25.3659 H   0  0  0  0  0  0
  -27.5432  -23.3984   20.5088 H   0  0  0  0  0  0
  -28.5002  -24.0633   19.2174 H   0  0  0  0  0  0
  -29.1337  -25.5396   21.6705 H   0  0  0  0  0  0
  -27.4203  -25.4177   21.5640 H   0  0  0  0  0  0
  -31.0151  -23.9037   23.0242 H   0  0  0  0  0  0
  -28.9088  -15.2462   21.2489 H   0  0  0  0  0  0
  1 25  1  0  0  0
  1 30  2  0  0  0
  1 86  1  0  0  0
  2  3  1  0  0  0
  2 25  1  0  0  0
  2 89  1  0  0  0
  2 90  1  0  0  0
  3  4  1  0  0  0
  3 91  1  0  0  0
  3 92  1  0  0  0
  4  5  1  0  0  0
  4 93  1  0  0  0
  4 94  1  0  0  0
  5  6  1  0  0  0
  5 26  1  0  0  0
  5 95  1  0  0  0
  6 25  1  0  0  0
  6 96  1  0  0  0
  6 97  1  0  0  0
  7  8  2  0  0  0
  7 26  1  0  0  0
  7 29  1  0  0  0
  8  9  1  0  0  0
  8 22  1  0  0  0
  9 10  1  0  0  0
  9 27  2  0  0  0
 10 11  2  0  0  0
 10 15  1  0  0  0
 11 12  1  0  0  0
 11 98  1  0  0  0
 12 13  2  0  0  0
 12 99  1  0  0  0
 13 14  1  0  0  0
 13 31  1  0  0  0
 14 15  2  0  0  0
 14100  1  0  0  0
 15101  1  0  0  0
 16 17  2  0  0  0
 16 21  1  0  0  0
 16 31  1  0  0  0
 17 18  1  0  0  0
 17102  1  0  0  0
 18 19  2  0  0  0
 18103  1  0  0  0
 19 20  1  0  0  0
 19 24  1  0  0  0
 20 21  2  0  0  0
 20104  1  0  0  0
 21 23  1  0  0  0
 22 28  1  0  0  0
 22 32  2  0  0  0
 26 27  1  0  0  0
 28105  1  0  0  0
 28106  1  0  0  0
 29107  1  0  0  0
 29108  1  0  0  0
 33 34  1  0  0  0
 33 66  1  0  0  0
 33 70  2  0  0  0
 34 36  1  0  0  0
 34 59  1  0  0  0
 34109  1  0  0  0
 35 44  2  0  0  0
 35 45  1  0  0  0
 35 68  1  0  0  0
 36 56  1  0  0  0
 36110  1  0  0  0
 37 39  1  0  0  0
 37 47  1  0  0  0
 37 66  1  0  0  0
 37111  1  0  0  0
 38 43  2  0  0  0
 38 46  1  0  0  0
 38 47  1  0  0  0
 39 64  1  0  0  0
 39 67  2  0  0  0
 40 52  1  0  0  0
 40 53  2  0  0  0
 40 58  1  0  0  0
 41112  1  0  0  0
 41113  1  0  0  0
 41114  1  0  0  0
 41 48  1  0  0  0
 42 43  1  0  0  0
 42 66  1  0  0  0
 42115  1  0  0  0
 42116  1  0  0  0
 43 44  1  0  0  0
 44117  1  0  0  0
 45 46  2  0  0  0
 45118  1  0  0  0
 46119  1  0  0  0
 47120  1  0  0  0
 47121  1  0  0  0
 48 56  1  0  0  0
 48 65  1  0  0  0
 48122  1  0  0  0
 49 50  1  0  0  0
 49 53  1  0  0  0
 49 64  1  0  0  0
 49123  1  0  0  0
 50 51  1  0  0  0
 50124  1  0  0  0
 50125  1  0  0  0
 51 52  1  0  0  0
 51126  1  0  0  0
 51127  1  0  0  0
 52128  1  0  0  0
 52129  1  0  0  0
 53 54  1  0  0  0
 54 55  2  0  0  0
 54130  1  0  0  0
 55 57  1  0  0  0
 55131  1  0  0  0
 56 69  2  0  0  0
 57 58  2  0  0  0
 57132  1  0  0  0
 58133  1  0  0  0
 59 60  1  0  0  0
 59 61  1  0  0  0
 59 62  1  0  0  0
 60134  1  0  0  0
 60135  1  0  0  0
 60136  1  0  0  0
 61137  1  0  0  0
 61138  1  0  0  0
 61139  1  0  0  0
 62140  1  0  0  0
 62141  1  0  0  0
 62142  1  0  0  0
 63 65  1  0  0  0
 63143  1  0  0  0
 63144  1  0  0  0
 63145  1  0  0  0
 64146  1  0  0  0
 65147  1  0  0  0
 68 83  1  0  0  0
 71 72  1  0  0  0
 71 73  2  0  0  0
 71148  1  0  0  0
 72 74  2  0  0  0
 72149  1  0  0  0
 73 88  1  0  0  0
 73 78  1  0  0  0
 74 86  1  0  0  0
 74 88  1  0  0  0
 75 82  1  0  0  0
 75 85  1  0  0  0
 75 87  2  0  0  0
 76 77  1  0  0  0
 76 78  1  0  0  0
 76150  1  0  0  0
 76151  1  0  0  0
 77152  1  0  0  0
 77153  1  0  0  0
 77 79  1  0  0  0
 78 85  1  0  0  0
 78154  1  0  0  0
 79 84  1  0  0  0
 79 85  1  0  0  0
 79155  1  0  0  0
 80156  1  0  0  0
 80157  1  0  0  0
 80158  1  0  0  0
 80 84  1  0  0  0
 81 84  1  0  0  0
 81159  1  0  0  0
 81160  1  0  0  0
 81161  1  0  0  0
 82 83  1  0  0  0
 82162  1  0  0  0
 82163  1  0  0  0
 83164  1  0  0  0
 83165  1  0  0  0
 84166  1  0  0  0
 86167  1  0  0  0
M  ISO  4   1 100  68 101  83 101  86 100
M  END
> <chiral flag>
0

> <version>
0

> <s_m_source_file>
/data/baiqing/PycharmProjects/Reinvent-master-3.2/result/LINK_invent/BTK/process_docking_weight1_custom_product_contain_oxygen_bond_distance_aromatic_linkinvent_7_9_3/rearranged_h_0146.sdf

> <i_m_source_file_index>
54

> <r_mmod_Potential_Energy-OPLS-2005>
153.221466064453

> <r_mmod_Stretch_Energy-OPLS-2005>
59.7377319335938

> <r_mmod_Bend_Energy-OPLS-2005>
170.460388183594

> <r_mmod_Torsional_Energy-OPLS-2005>
362.653778076172

> <r_mmod_Improper_Torsional_Energy-OPLS-2005>
6.30057573318481

> <r_mmod_Van_der_Waal_Energy-OPLS-2005>
120.406402587891

> <r_mmod_Electrostatic_Energy-OPLS-2005>
-379.328826904297

> <r_mmod_Solvation_Energy-OPLS-2005>
-214.258926391602

> <b_mmod_Minimization_Converged-OPLS-2005>
0

> <r_mmod_RMS_Derivative-OPLS-2005>
0.77239978313446

$$$$
54
                    3D
 Structure written by MMmdl.
171180  0  0  1  0            999 V2000
  -30.7240  -14.4399   20.4982 C   0  0  0  0  0  0
  -30.4087  -12.2669   19.4192 C   0  0  0  0  0  0
  -29.4861  -12.4786   18.2018 C   0  0  0  0  0  0
  -28.0088  -12.3453   18.6205 C   0  0  0  0  0  0
  -27.6566  -13.2056   19.8647 C   0  0  2  0  0  0
  -28.7033  -13.0228   20.9862 C   0  0  0  0  0  0
  -25.2582  -13.8164   20.5650 C   0  0  0  0  0  0
  -24.1843  -13.0457   20.9180 C   0  0  0  0  0  0
  -24.6394  -11.6915   20.8766 C   0  0  0  0  0  0
  -23.9063  -10.4301   21.0421 C   0  0  0  0  0  0
  -24.3610   -9.4205   21.9190 C   0  0  0  0  0  0
  -23.6277   -8.2244   22.0750 C   0  0  0  0  0  0
  -22.4258   -8.0285   21.3544 C   0  0  0  0  0  0
  -21.9906   -9.0268   20.4647 C   0  0  0  0  0  0
  -22.7241  -10.2146   20.3065 C   0  0  0  0  0  0
  -21.6847   -6.0729   22.5277 C   0  0  0  0  0  0
  -21.4012   -6.5632   23.8211 C   0  0  0  0  0  0
  -21.3662   -5.6788   24.9174 C   0  0  0  0  0  0
  -21.6037   -4.3049   24.7232 C   0  0  0  0  0  0
  -21.8818   -3.8140   23.4357 C   0  0  0  0  0  0
  -21.9192   -4.6954   22.3407 C   0  0  0  0  0  0
  -22.7870  -13.5259   21.1861 C   0  0  0  0  0  0
  -22.1662   -4.2132   21.0986 F   0  0  0  0  0  0
  -21.5627   -3.4532   25.7749 F   0  0  0  0  0  0
  -30.0325  -13.2771   20.4143 N   0  0  0  0  0  0
  -26.3019  -12.9334   20.3372 N   0  0  0  0  0  0
  -25.9322  -11.6495   20.5811 N   0  0  0  0  0  0
  -22.0514  -12.8243   22.0411 N   0  0  0  0  0  0
  -25.4302  -15.1864   20.3962 N   0  0  0  0  0  0
  -31.9196  -14.5275   20.2064 O   0  0  0  0  0  0
  -21.6629   -6.8877   21.4238 O   0  0  0  0  0  0
  -22.3549  -14.5567   20.6716 O   0  0  0  0  0  0
  -24.6146  -31.8708   23.2122 C   0  0  0  0  0  0
  -25.9042  -32.4833   23.8418 C   0  0  1  0  0  0
  -27.2330  -27.4661   20.0830 C   0  0  0  0  0  0
  -25.5908  -33.8630   24.2350 N   0  0  0  0  0  0
  -23.4000  -30.4961   21.5520 C   0  0  2  0  0  0
  -24.8456  -28.9710   20.1113 C   0  0  0  0  0  0
  -22.7410  -29.4690   22.4986 C   0  0  0  0  0  0
  -18.0279  -28.1364   22.8491 C   0  0  0  0  0  0
  -24.1491  -36.7326   23.2638 C   0  0  0  0  0  0
  -25.9264  -30.8470   21.3585 C   0  0  0  0  0  0
  -26.0062  -29.4853   20.7037 C   0  0  0  0  0  0
  -27.2072  -28.7425   20.6839 C   0  0  0  0  0  0
  -26.0554  -26.9619   19.4895 C   0  0  0  0  0  0
  -24.8634  -27.7060   19.5017 C   0  0  0  0  0  0
  -23.6053  -29.8322   20.1652 C   0  0  0  0  0  0
  -25.4110  -36.3123   24.0344 C   0  0  1  0  0  0
  -20.5877  -28.3657   23.1308 C   0  0  2  0  0  0
  -20.6783  -26.9407   22.5398 C   0  0  0  0  0  0
  -19.5740  -26.6373   21.5212 C   0  0  0  0  0  0
  -18.1919  -26.7921   22.1612 C   0  0  0  0  0  0
  -19.1530  -28.8827   23.2906 C   0  0  0  0  0  0
  -18.9459  -30.1426   23.8927 C   0  0  0  0  0  0
  -17.6470  -30.6559   24.0582 C   0  0  0  0  0  0
  -25.9038  -34.9485   23.5145 C   0  0  0  0  0  0
  -16.5366  -29.9077   23.6327 C   0  0  0  0  0  0
  -16.7272  -28.6495   23.0352 C   0  0  0  0  0  0
  -26.4488  -31.6597   25.0729 C   0  0  0  0  0  0
  -25.3773  -31.3679   26.1489 C   0  0  0  0  0  0
  -27.0313  -30.3051   24.6058 C   0  0  0  0  0  0
  -27.6083  -32.4306   25.7467 C   0  0  0  0  0  0
  -27.5579  -37.1830   24.8471 C   0  0  0  0  0  0
  -21.4141  -29.3058   22.3733 N   0  0  0  0  0  0
  -26.4305  -37.3798   23.9396 N   0  0  0  0  0  0
  -24.6650  -31.0848   22.1001 N   0  0  0  0  0  0
  -23.4196  -28.8225   23.3009 O   0  0  0  0  0  0
  -28.3862  -26.7153   20.0953 O   0  0  0  0  0  0
  -26.5592  -34.8928   22.4701 O   0  0  0  0  0  0
  -23.5345  -32.1449   23.7535 O   0  0  0  0  0  0
  -28.2629  -18.4600   21.4085 C   0  0  0  0  0  0
  -27.9038  -16.4528   22.7328 C   0  0  0  0  0  0
  -26.1416  -18.1345   22.5447 C   0  0  0  0  0  0
  -28.7336  -17.2159   21.8864 C   0  0  0  0  0  0
  -26.9631  -18.9179   21.7071 C   0  0  0  0  0  0
  -26.6142  -16.9130   23.0652 C   0  0  0  0  0  0
  -28.1072  -21.6275   19.7347 C   0  0  0  0  0  0
  -30.9164  -17.3833   20.3699 C   0  0  0  0  0  0
  -30.1244  -16.5294   19.3907 C   0  0  0  0  0  0
  -30.0953  -16.6724   21.4484 C   0  0  2  0  0  0
  -25.8493  -21.0171   18.7523 C   0  0  0  0  0  0
  -28.2534  -24.4369   18.3161 C   0  0  0  0  0  0
  -26.4458  -20.2381   21.1387 C   0  0  0  0  0  0
  -27.8204  -22.9853   20.3871 C   0  0  0  0  0  0
  -28.2311  -25.4320   20.7117 C   0  0  0  0  0  0
  -26.9721  -20.5845   19.7151 C   0  0  2  0  0  0
  -28.5651  -24.2162   19.8111 C   0  0  2  0  0  0
  -29.9527  -15.5518   20.4890 N   0  0  0  0  0  0
  -29.2120  -21.3666   19.2517 O   0  0  0  0  0  0
  -25.6059  -15.9668   24.0966 Cl  0  0  0  0  0  0
  -31.4562  -12.3327   19.1195 H   0  0  0  0  0  0
  -30.2757  -11.2648   19.8302 H   0  0  0  0  0  0
  -29.7232  -11.7554   17.4208 H   0  0  0  0  0  0
  -29.6600  -13.4663   17.7703 H   0  0  0  0  0  0
  -27.8225  -11.2926   18.8339 H   0  0  0  0  0  0
  -27.3540  -12.6044   17.7880 H   0  0  0  0  0  0
  -27.6895  -14.2464   19.5436 H   0  0  0  0  0  0
  -28.4965  -13.6950   21.8175 H   0  0  0  0  0  0
  -28.6620  -12.0115   21.3921 H   0  0  0  0  0  0
  -25.2756   -9.5659   22.4769 H   0  0  0  0  0  0
  -23.9968   -7.4626   22.7466 H   0  0  0  0  0  0
  -21.0840   -8.8819   19.8946 H   0  0  0  0  0  0
  -22.3720  -10.9698   19.6182 H   0  0  0  0  0  0
  -21.2000   -7.6137   23.9709 H   0  0  0  0  0  0
  -21.1488   -6.0519   25.9078 H   0  0  0  0  0  0
  -22.0594   -2.7597   23.2873 H   0  0  0  0  0  0
  -22.4140  -11.9893   22.4769 H   0  0  0  0  0  0
  -21.1144  -13.1278   22.2657 H   0  0  0  0  0  0
  -24.6789  -15.8484   20.5464 H   0  0  0  0  0  0
  -26.3120  -15.6281   20.1711 H   0  0  0  0  0  0
  -26.7114  -32.5548   23.1187 H   0  0  0  0  0  0
  -25.0071  -33.9806   25.0500 H   0  0  0  0  0  0
  -22.6883  -31.3123   21.4144 H   0  0  0  0  0  0
  -23.3739  -35.9679   23.3343 H   0  0  0  0  0  0
  -24.3583  -36.8895   22.2046 H   0  0  0  0  0  0
  -23.7269  -37.6556   23.6622 H   0  0  0  0  0  0
  -26.0336  -31.6141   20.5899 H   0  0  0  0  0  0
  -26.8175  -30.9013   21.9724 H   0  0  0  0  0  0
  -28.1036  -29.1356   21.1443 H   0  0  0  0  0  0
  -26.0460  -25.9920   19.0211 H   0  0  0  0  0  0
  -23.9730  -27.3005   19.0420 H   0  0  0  0  0  0
  -23.7091  -30.6102   19.4069 H   0  0  0  0  0  0
  -22.7300  -29.2499   19.8699 H   0  0  0  0  0  0
  -25.1288  -36.2009   25.0841 H   0  0  0  0  0  0
  -21.0010  -28.3208   24.1415 H   0  0  0  0  0  0
  -21.6665  -26.7449   22.1211 H   0  0  0  0  0  0
  -20.5680  -26.2263   23.3576 H   0  0  0  0  0  0
  -19.6878  -25.6300   21.1222 H   0  0  0  0  0  0
  -19.6661  -27.3182   20.6736 H   0  0  0  0  0  0
  -17.4191  -26.6678   21.4012 H   0  0  0  0  0  0
  -18.0290  -26.0066   22.9003 H   0  0  0  0  0  0
  -19.7919  -30.7272   24.2284 H   0  0  0  0  0  0
  -17.5012  -31.6230   24.5183 H   0  0  0  0  0  0
  -15.5369  -30.2988   23.7619 H   0  0  0  0  0  0
  -15.8675  -28.0825   22.7065 H   0  0  0  0  0  0
  -24.5942  -30.7034   25.7816 H   0  0  0  0  0  0
  -24.8972  -32.2826   26.4977 H   0  0  0  0  0  0
  -25.8141  -30.8817   27.0220 H   0  0  0  0  0  0
  -26.2839  -29.6803   24.1149 H   0  0  0  0  0  0
  -27.4163  -29.7283   25.4476 H   0  0  0  0  0  0
  -27.8646  -30.4392   23.9155 H   0  0  0  0  0  0
  -27.2725  -33.3592   26.2091 H   0  0  0  0  0  0
  -28.3853  -32.6890   25.0263 H   0  0  0  0  0  0
  -28.0801  -31.8404   26.5330 H   0  0  0  0  0  0
  -28.2631  -38.0090   24.7467 H   0  0  0  0  0  0
  -28.1036  -36.2621   24.6359 H   0  0  0  0  0  0
  -27.2293  -37.1563   25.8875 H   0  0  0  0  0  0
  -20.9302  -29.8767   21.6940 H   0  0  0  0  0  0
  -26.0202  -38.2894   24.1344 H   0  0  0  0  0  0
  -28.8909  -19.0679   20.7811 H   0  0  0  0  0  0
  -28.2462  -15.5060   23.1214 H   0  0  0  0  0  0
  -25.1442  -18.4663   22.7939 H   0  0  0  0  0  0
  -30.8074  -18.4620   20.2765 H   0  0  0  0  0  0
  -31.9760  -17.1233   20.3900 H   0  0  0  0  0  0
  -30.7098  -16.1946   18.5305 H   0  0  0  0  0  0
  -29.1891  -16.9864   19.0612 H   0  0  0  0  0  0
  -30.7111  -16.4377   22.3195 H   0  0  0  0  0  0
  -25.0319  -20.2948   18.7471 H   0  0  0  0  0  0
  -26.2228  -21.0841   17.7287 H   0  0  0  0  0  0
  -25.4264  -21.9855   19.0168 H   0  0  0  0  0  0
  -27.1845  -24.4323   18.1111 H   0  0  0  0  0  0
  -28.6964  -23.6488   17.7065 H   0  0  0  0  0  0
  -28.6676  -25.3776   17.9533 H   0  0  0  0  0  0
  -26.6780  -21.0244   21.8594 H   0  0  0  0  0  0
  -25.3561  -20.1891   21.1174 H   0  0  0  0  0  0
  -28.0580  -22.8858   21.4464 H   0  0  0  0  0  0
  -26.7475  -23.1661   20.3375 H   0  0  0  0  0  0
  -28.8925  -25.4112   21.5795 H   0  0  0  0  0  0
  -27.2329  -25.3122   21.1379 H   0  0  0  0  0  0
  -27.3780  -19.6750   19.2743 H   0  0  0  0  0  0
  -29.6408  -24.0483   19.8879 H   0  0  0  0  0  0
  1 25  1  0  0  0
  1 30  2  0  0  0
  1 88  1  0  0  0
  2  3  1  0  0  0
  2 25  1  0  0  0
  2 91  1  0  0  0
  2 92  1  0  0  0
  3  4  1  0  0  0
  3 93  1  0  0  0
  3 94  1  0  0  0
  4  5  1  0  0  0
  4 95  1  0  0  0
  4 96  1  0  0  0
  5  6  1  0  0  0
  5 26  1  0  0  0
  5 97  1  0  0  0
  6 25  1  0  0  0
  6 98  1  0  0  0
  6 99  1  0  0  0
  7  8  2  0  0  0
  7 26  1  0  0  0
  7 29  1  0  0  0
  8  9  1  0  0  0
  8 22  1  0  0  0
  9 10  1  0  0  0
  9 27  2  0  0  0
 10 11  2  0  0  0
 10 15  1  0  0  0
 11 12  1  0  0  0
 11100  1  0  0  0
 12 13  2  0  0  0
 12101  1  0  0  0
 13 14  1  0  0  0
 13 31  1  0  0  0
 14 15  2  0  0  0
 14102  1  0  0  0
 15103  1  0  0  0
 16 17  2  0  0  0
 16 21  1  0  0  0
 16 31  1  0  0  0
 17 18  1  0  0  0
 17104  1  0  0  0
 18 19  2  0  0  0
 18105  1  0  0  0
 19 20  1  0  0  0
 19 24  1  0  0  0
 20 21  2  0  0  0
 20106  1  0  0  0
 21 23  1  0  0  0
 22 28  1  0  0  0
 22 32  2  0  0  0
 26 27  1  0  0  0
 28107  1  0  0  0
 28108  1  0  0  0
 29109  1  0  0  0
 29110  1  0  0  0
 33 34  1  0  0  0
 33 66  1  0  0  0
 33 70  2  0  0  0
 34 36  1  0  0  0
 34 59  1  0  0  0
 34111  1  0  0  0
 35 44  2  0  0  0
 35 45  1  0  0  0
 35 68  1  0  0  0
 36 56  1  0  0  0
 36112  1  0  0  0
 37 39  1  0  0  0
 37 47  1  0  0  0
 37 66  1  0  0  0
 37113  1  0  0  0
 38 43  2  0  0  0
 38 46  1  0  0  0
 38 47  1  0  0  0
 39 64  1  0  0  0
 39 67  2  0  0  0
 40 52  1  0  0  0
 40 53  2  0  0  0
 40 58  1  0  0  0
 41114  1  0  0  0
 41115  1  0  0  0
 41116  1  0  0  0
 41 48  1  0  0  0
 42 43  1  0  0  0
 42 66  1  0  0  0
 42117  1  0  0  0
 42118  1  0  0  0
 43 44  1  0  0  0
 44119  1  0  0  0
 45 46  2  0  0  0
 45120  1  0  0  0
 46121  1  0  0  0
 47122  1  0  0  0
 47123  1  0  0  0
 48 56  1  0  0  0
 48 65  1  0  0  0
 48124  1  0  0  0
 49 50  1  0  0  0
 49 53  1  0  0  0
 49 64  1  0  0  0
 49125  1  0  0  0
 50 51  1  0  0  0
 50126  1  0  0  0
 50127  1  0  0  0
 51 52  1  0  0  0
 51128  1  0  0  0
 51129  1  0  0  0
 52130  1  0  0  0
 52131  1  0  0  0
 53 54  1  0  0  0
 54 55  2  0  0  0
 54132  1  0  0  0
 55 57  1  0  0  0
 55133  1  0  0  0
 56 69  2  0  0  0
 57 58  2  0  0  0
 57134  1  0  0  0
 58135  1  0  0  0
 59 60  1  0  0  0
 59 61  1  0  0  0
 59 62  1  0  0  0
 60136  1  0  0  0
 60137  1  0  0  0
 60138  1  0  0  0
 61139  1  0  0  0
 61140  1  0  0  0
 61141  1  0  0  0
 62142  1  0  0  0
 62143  1  0  0  0
 62144  1  0  0  0
 63 65  1  0  0  0
 63145  1  0  0  0
 63146  1  0  0  0
 63147  1  0  0  0
 64148  1  0  0  0
 65149  1  0  0  0
 68 85  1  0  0  0
 71 74  2  0  0  0
 71 75  1  0  0  0
 71150  1  0  0  0
 72 74  1  0  0  0
 72 76  2  0  0  0
 72151  1  0  0  0
 73 75  2  0  0  0
 73 76  1  0  0  0
 73152  1  0  0  0
 74 80  1  0  0  0
 75 83  1  0  0  0
 76 90  1  0  0  0
 77 84  1  0  0  0
 77 86  1  0  0  0
 77 89  2  0  0  0
 78 79  1  0  0  0
 78 80  1  0  0  0
 78153  1  0  0  0
 78154  1  0  0  0
 79 88  1  0  0  0
 79155  1  0  0  0
 79156  1  0  0  0
 80 88  1  0  0  0
 80157  1  0  0  0
 81158  1  0  0  0
 81159  1  0  0  0
 81160  1  0  0  0
 81 86  1  0  0  0
 82161  1  0  0  0
 82162  1  0  0  0
 82163  1  0  0  0
 82 87  1  0  0  0
 83 86  1  0  0  0
 83164  1  0  0  0
 83165  1  0  0  0
 84 87  1  0  0  0
 84166  1  0  0  0
 84167  1  0  0  0
 85 87  1  0  0  0
 85168  1  0  0  0
 85169  1  0  0  0
 86170  1  0  0  0
 87171  1  0  0  0
M  ISO  4   1 100  68 101  85 101  88 100
M  END
> <chiral flag>
0

> <version>
0

> <s_m_source_file>
/data/baiqing/PycharmProjects/Reinvent-master-3.2/result/LINK_invent/BTK/process_docking_weight1_custom_product_contain_oxygen_bond_distance_aromatic_linkinvent_7_9_3/rearranged_h_0146.sdf

> <i_m_source_file_index>
55

> <r_mmod_Potential_Energy-OPLS-2005>
98.4281616210938

> <r_mmod_Stretch_Energy-OPLS-2005>
37.2884864807129

> <r_mmod_Bend_Energy-OPLS-2005>
106.052276611328

> <r_mmod_Torsional_Energy-OPLS-2005>
312.228820800781

> <r_mmod_Improper_Torsional_Energy-OPLS-2005>
19.7294616699219

> <r_mmod_Van_der_Waal_Energy-OPLS-2005>
152.093154907227

> <r_mmod_Electrostatic_Energy-OPLS-2005>
-357.486511230469

> <r_mmod_Solvation_Energy-OPLS-2005>
-190.254730224609

> <b_mmod_Minimization_Converged-OPLS-2005>
0

> <r_mmod_RMS_Derivative-OPLS-2005>
2.19782614707947

$$$$
55
                    3D
 Structure written by MMmdl.
172181  0  0  1  0            999 V2000
  -30.6651  -14.5409   20.5666 C   0  0  0  0  0  0
  -30.4400  -12.3485   19.4305 C   0  0  0  0  0  0
  -29.5019  -12.5145   18.2145 C   0  0  0  0  0  0
  -28.0236  -12.3622   18.6272 C   0  0  0  0  0  0
  -27.6606  -13.2059   19.8781 C   0  0  2  0  0  0
  -28.7076  -12.9980   20.9973 C   0  0  0  0  0  0
  -25.2489  -13.8016   20.5574 C   0  0  0  0  0  0
  -24.1772  -13.0320   20.9108 C   0  0  0  0  0  0
  -24.6386  -11.6820   20.8724 C   0  0  0  0  0  0
  -23.9054  -10.4230   21.0401 C   0  0  0  0  0  0
  -24.3608   -9.4159   21.9189 C   0  0  0  0  0  0
  -23.6273   -8.2205   22.0759 C   0  0  0  0  0  0
  -22.4255   -8.0256   21.3547 C   0  0  0  0  0  0
  -21.9886   -9.0226   20.4648 C   0  0  0  0  0  0
  -22.7224  -10.2095   20.3054 C   0  0  0  0  0  0
  -21.6842   -6.0723   22.5281 C   0  0  0  0  0  0
  -21.4006   -6.5631   23.8214 C   0  0  0  0  0  0
  -21.3656   -5.6786   24.9177 C   0  0  0  0  0  0
  -21.6046   -4.3050   24.7230 C   0  0  0  0  0  0
  -21.8821   -3.8137   23.4353 C   0  0  0  0  0  0
  -21.9189   -4.6951   22.3406 C   0  0  0  0  0  0
  -22.7818  -13.5164   21.1804 C   0  0  0  0  0  0
  -22.1661   -4.2139   21.0984 F   0  0  0  0  0  0
  -21.5627   -3.4536   25.7744 F   0  0  0  0  0  0
  -30.0369  -13.3327   20.4493 N   0  0  0  0  0  0
  -26.3019  -12.9266   20.3400 N   0  0  0  0  0  0
  -25.9338  -11.6430   20.5826 N   0  0  0  0  0  0
  -22.0465  -12.8190   22.0391 N   0  0  0  0  0  0
  -25.4007  -15.1691   20.3916 N   0  0  0  0  0  0
  -31.7836  -14.7595   20.0934 O   0  0  0  0  0  0
  -21.6619   -6.8858   21.4243 O   0  0  0  0  0  0
  -22.3534  -14.5510   20.6699 O   0  0  0  0  0  0
  -24.6168  -31.8657   23.2084 C   0  0  0  0  0  0
  -25.9048  -32.4813   23.8390 C   0  0  1  0  0  0
  -27.2442  -27.4092   20.1086 C   0  0  0  0  0  0
  -25.5892  -33.8610   24.2318 N   0  0  0  0  0  0
  -23.4083  -30.4866   21.5481 C   0  0  2  0  0  0
  -24.8607  -28.9433   20.1222 C   0  0  0  0  0  0
  -22.7427  -29.4643   22.4977 C   0  0  0  0  0  0
  -18.0276  -28.1380   22.8489 C   0  0  0  0  0  0
  -24.1485  -36.7315   23.2639 C   0  0  0  0  0  0
  -25.9394  -30.8205   21.3689 C   0  0  0  0  0  0
  -26.0202  -29.4485   20.7260 C   0  0  0  0  0  0
  -27.2161  -28.6866   20.7229 C   0  0  0  0  0  0
  -26.0711  -26.9249   19.4970 C   0  0  0  0  0  0
  -24.8807  -27.6788   19.5074 C   0  0  0  0  0  0
  -23.6228  -29.8140   20.1653 C   0  0  0  0  0  0
  -25.4104  -36.3105   24.0336 C   0  0  1  0  0  0
  -20.5868  -28.3670   23.1309 C   0  0  2  0  0  0
  -20.6767  -26.9401   22.5419 C   0  0  0  0  0  0
  -19.5749  -26.6383   21.5213 C   0  0  0  0  0  0
  -18.1925  -26.7926   22.1621 C   0  0  0  0  0  0
  -19.1526  -28.8841   23.2896 C   0  0  0  0  0  0
  -18.9453  -30.1446   23.8911 C   0  0  0  0  0  0
  -17.6455  -30.6582   24.0568 C   0  0  0  0  0  0
  -25.9031  -34.9470   23.5127 C   0  0  0  0  0  0
  -16.5346  -29.9086   23.6325 C   0  0  0  0  0  0
  -16.7264  -28.6503   23.0345 C   0  0  0  0  0  0
  -26.4473  -31.6597   25.0724 C   0  0  0  0  0  0
  -25.3736  -31.3717   26.1474 C   0  0  0  0  0  0
  -27.0308  -30.3035   24.6117 C   0  0  0  0  0  0
  -27.6047  -32.4322   25.7480 C   0  0  0  0  0  0
  -27.5578  -37.1810   24.8462 C   0  0  0  0  0  0
  -21.4151  -29.3031   22.3711 N   0  0  0  0  0  0
  -26.4290  -37.3788   23.9407 N   0  0  0  0  0  0
  -24.6727  -31.0731   22.0999 N   0  0  0  0  0  0
  -23.4181  -28.8189   23.3033 O   0  0  0  0  0  0
  -28.3885  -26.6395   20.0242 O   0  0  0  0  0  0
  -26.5601  -34.8922   22.4692 O   0  0  0  0  0  0
  -23.5352  -32.1420   23.7455 O   0  0  0  0  0  0
  -30.9467  -17.7990   20.7639 C   0  0  0  0  0  0
  -30.7403  -19.1956   20.5986 C   0  0  0  0  0  0
  -29.8490  -16.9272   20.9405 C   0  0  0  0  0  0
  -28.3305  -18.8947   20.8175 C   0  0  0  0  0  0
  -29.4382  -19.7739   20.6018 C   0  0  0  0  0  0
  -28.5579  -17.4915   20.9647 C   0  0  0  0  0  0
  -28.7158  -24.3599   21.0266 C   0  0  0  0  0  0
  -24.7060  -19.5201   21.9097 C   0  0  0  0  0  0
  -25.4385  -20.7746   22.3355 C   0  0  0  0  0  0
  -25.8497  -18.6116   21.4717 C   0  0  0  0  0  0
  -26.7278  -20.7710   21.5021 C   0  0  0  0  0  0
  -31.0752  -24.4312   20.0239 C   0  0  0  0  0  0
  -26.4840  -19.6157   19.3623 C   0  0  0  0  0  0
  -28.7583  -25.9093   21.2081 C   0  0  0  0  0  0
  -30.1518  -22.1465   20.6752 C   0  0  0  0  0  0
  -29.7841  -23.5997   20.1788 C   0  0  1  0  0  0
  -29.9194  -15.5025   21.1586 N   0  0  0  0  0  0
  -26.8749  -19.4591   20.7902 N   0  3  0  0  0  0
  -27.8150  -23.7238   21.5772 O   0  0  0  0  0  0
  -29.1936  -21.1252   20.3319 O   0  0  0  0  0  0
  -27.5376  -16.6170   21.0995 F   0  0  0  0  0  0
  -31.4808  -12.4715   19.1253 H   0  0  0  0  0  0
  -30.3677  -11.3381   19.8362 H   0  0  0  0  0  0
  -29.7506  -11.7826   17.4445 H   0  0  0  0  0  0
  -29.6568  -13.4959   17.7631 H   0  0  0  0  0  0
  -27.8441  -11.3060   18.8311 H   0  0  0  0  0  0
  -27.3711  -12.6245   17.7939 H   0  0  0  0  0  0
  -27.6944  -14.2522   19.5735 H   0  0  0  0  0  0
  -28.7011  -11.9588   21.3297 H   0  0  0  0  0  0
  -28.4541  -13.5813   21.8837 H   0  0  0  0  0  0
  -25.2758   -9.5634   22.4755 H   0  0  0  0  0  0
  -23.9979   -7.4596   22.7482 H   0  0  0  0  0  0
  -21.0812   -8.8749   19.8960 H   0  0  0  0  0  0
  -22.3692  -10.9634   19.6158 H   0  0  0  0  0  0
  -21.1997   -7.6140   23.9714 H   0  0  0  0  0  0
  -21.1476   -6.0518   25.9079 H   0  0  0  0  0  0
  -22.0604   -2.7598   23.2861 H   0  0  0  0  0  0
  -22.4054  -11.9830   22.4757 H   0  0  0  0  0  0
  -21.1108  -13.1267   22.2632 H   0  0  0  0  0  0
  -24.6205  -15.7975   20.5333 H   0  0  0  0  0  0
  -26.3005  -15.6263   20.3096 H   0  0  0  0  0  0
  -26.7120  -32.5527   23.1156 H   0  0  0  0  0  0
  -25.0039  -33.9769   25.0460 H   0  0  0  0  0  0
  -22.6981  -31.3035   21.4042 H   0  0  0  0  0  0
  -23.3737  -35.9660   23.3311 H   0  0  0  0  0  0
  -24.3578  -36.8922   22.2051 H   0  0  0  0  0  0
  -23.7250  -37.6527   23.6651 H   0  0  0  0  0  0
  -26.0533  -31.5803   20.5945 H   0  0  0  0  0  0
  -26.8264  -30.8803   21.9877 H   0  0  0  0  0  0
  -28.1142  -29.0787   21.1795 H   0  0  0  0  0  0
  -26.0812  -25.9597   19.0106 H   0  0  0  0  0  0
  -23.9913  -27.2844   19.0350 H   0  0  0  0  0  0
  -23.7349  -30.5868   19.4041 H   0  0  0  0  0  0
  -22.7466  -29.2349   19.8678 H   0  0  0  0  0  0
  -25.1281  -36.1968   25.0830 H   0  0  0  0  0  0
  -20.9959  -28.3241   24.1430 H   0  0  0  0  0  0
  -20.5663  -26.2276   23.3609 H   0  0  0  0  0  0
  -21.6639  -26.7437   22.1219 H   0  0  0  0  0  0
  -19.6912  -25.6298   21.1233 H   0  0  0  0  0  0
  -19.6693  -27.3200   20.6750 H   0  0  0  0  0  0
  -17.4197  -26.6674   21.4022 H   0  0  0  0  0  0
  -18.0325  -26.0065   22.9013 H   0  0  0  0  0  0
  -19.7929  -30.7259   24.2286 H   0  0  0  0  0  0
  -17.5010  -31.6263   24.5169 H   0  0  0  0  0  0
  -15.5348  -30.2994   23.7642 H   0  0  0  0  0  0
  -15.8662  -28.0829   22.7051 H   0  0  0  0  0  0
  -24.5894  -30.7079   25.7815 H   0  0  0  0  0  0
  -24.8948  -32.2882   26.4935 H   0  0  0  0  0  0
  -25.8086  -30.8874   27.0226 H   0  0  0  0  0  0
  -26.2860  -29.6792   24.1167 H   0  0  0  0  0  0
  -27.4065  -29.7277   25.4586 H   0  0  0  0  0  0
  -27.8700  -30.4348   23.9282 H   0  0  0  0  0  0
  -27.2664  -33.3608   26.2090 H   0  0  0  0  0  0
  -28.3836  -32.6907   25.0293 H   0  0  0  0  0  0
  -28.0742  -31.8432   26.5368 H   0  0  0  0  0  0
  -28.2604  -38.0098   24.7496 H   0  0  0  0  0  0
  -28.1065  -36.2631   24.6296 H   0  0  0  0  0  0
  -27.2299  -37.1472   25.8865 H   0  0  0  0  0  0
  -20.9316  -29.8744   21.6924 H   0  0  0  0  0  0
  -26.0179  -38.2867   24.1405 H   0  0  0  0  0  0
  -31.9541  -17.4063   20.7494 H   0  0  0  0  0  0
  -31.6156  -19.8061   20.4344 H   0  0  0  0  0  0
  -24.0406  -19.7323   21.0719 H   0  0  0  0  0  0
  -24.1042  -19.0874   22.7101 H   0  0  0  0  0  0
  -25.6827  -20.7213   23.3975 H   0  0  0  0  0  0
  -24.8433  -21.6756   22.1808 H   0  0  0  0  0  0
  -25.4749  -17.8101   20.8380 H   0  0  0  0  0  0
  -26.2744  -18.1631   22.3715 H   0  0  0  0  0  0
  -27.5609  -20.9527   22.1822 H   0  0  0  0  0  0
  -26.7095  -21.5969   20.7908 H   0  0  0  0  0  0
  -30.8836  -25.4022   19.5662 H   0  0  0  0  0  0
  -31.7934  -23.9257   19.3779 H   0  0  0  0  0  0
  -31.5625  -24.5992   20.9855 H   0  0  0  0  0  0
  -26.4997  -18.6553   18.8454 H   0  0  0  0  0  0
  -27.1690  -20.2789   18.8333 H   0  0  0  0  0  0
  -25.4831  -20.0331   19.2529 H   0  0  0  0  0  0
  -29.7602  -26.2109   21.5113 H   0  0  0  0  0  0
  -28.1005  -26.1773   22.0363 H   0  0  0  0  0  0
  -30.3040  -22.1469   21.7559 H   0  0  0  0  0  0
  -31.1102  -21.8794   20.2323 H   0  0  0  0  0  0
  -29.3563  -23.5007   19.1812 H   0  0  0  0  0  0
  -29.0626  -15.1195   21.5296 H   0  0  0  0  0  0
  1 25  1  0  0  0
  1 30  2  0  0  0
  1 87  1  0  0  0
  2  3  1  0  0  0
  2 25  1  0  0  0
  2 92  1  0  0  0
  2 93  1  0  0  0
  3  4  1  0  0  0
  3 94  1  0  0  0
  3 95  1  0  0  0
  4  5  1  0  0  0
  4 96  1  0  0  0
  4 97  1  0  0  0
  5  6  1  0  0  0
  5 26  1  0  0  0
  5 98  1  0  0  0
  6 25  1  0  0  0
  6 99  1  0  0  0
  6100  1  0  0  0
  7  8  2  0  0  0
  7 26  1  0  0  0
  7 29  1  0  0  0
  8  9  1  0  0  0
  8 22  1  0  0  0
  9 10  1  0  0  0
  9 27  2  0  0  0
 10 11  2  0  0  0
 10 15  1  0  0  0
 11 12  1  0  0  0
 11101  1  0  0  0
 12 13  2  0  0  0
 12102  1  0  0  0
 13 14  1  0  0  0
 13 31  1  0  0  0
 14 15  2  0  0  0
 14103  1  0  0  0
 15104  1  0  0  0
 16 17  2  0  0  0
 16 21  1  0  0  0
 16 31  1  0  0  0
 17 18  1  0  0  0
 17105  1  0  0  0
 18 19  2  0  0  0
 18106  1  0  0  0
 19 20  1  0  0  0
 19 24  1  0  0  0
 20 21  2  0  0  0
 20107  1  0  0  0
 21 23  1  0  0  0
 22 28  1  0  0  0
 22 32  2  0  0  0
 26 27  1  0  0  0
 28108  1  0  0  0
 28109  1  0  0  0
 29110  1  0  0  0
 29111  1  0  0  0
 33 34  1  0  0  0
 33 66  1  0  0  0
 33 70  2  0  0  0
 34 36  1  0  0  0
 34 59  1  0  0  0
 34112  1  0  0  0
 35 44  2  0  0  0
 35 45  1  0  0  0
 35 68  1  0  0  0
 36 56  1  0  0  0
 36113  1  0  0  0
 37 39  1  0  0  0
 37 47  1  0  0  0
 37 66  1  0  0  0
 37114  1  0  0  0
 38 43  2  0  0  0
 38 46  1  0  0  0
 38 47  1  0  0  0
 39 64  1  0  0  0
 39 67  2  0  0  0
 40 52  1  0  0  0
 40 53  2  0  0  0
 40 58  1  0  0  0
 41115  1  0  0  0
 41116  1  0  0  0
 41117  1  0  0  0
 41 48  1  0  0  0
 42 43  1  0  0  0
 42 66  1  0  0  0
 42118  1  0  0  0
 42119  1  0  0  0
 43 44  1  0  0  0
 44120  1  0  0  0
 45 46  2  0  0  0
 45121  1  0  0  0
 46122  1  0  0  0
 47123  1  0  0  0
 47124  1  0  0  0
 48 56  1  0  0  0
 48 65  1  0  0  0
 48125  1  0  0  0
 49 50  1  0  0  0
 49 53  1  0  0  0
 49 64  1  0  0  0
 49126  1  0  0  0
 50 51  1  0  0  0
 50127  1  0  0  0
 50128  1  0  0  0
 51 52  1  0  0  0
 51129  1  0  0  0
 51130  1  0  0  0
 52131  1  0  0  0
 52132  1  0  0  0
 53 54  1  0  0  0
 54 55  2  0  0  0
 54133  1  0  0  0
 55 57  1  0  0  0
 55134  1  0  0  0
 56 69  2  0  0  0
 57 58  2  0  0  0
 57135  1  0  0  0
 58136  1  0  0  0
 59 60  1  0  0  0
 59 61  1  0  0  0
 59 62  1  0  0  0
 60137  1  0  0  0
 60138  1  0  0  0
 60139  1  0  0  0
 61140  1  0  0  0
 61141  1  0  0  0
 61142  1  0  0  0
 62143  1  0  0  0
 62144  1  0  0  0
 62145  1  0  0  0
 63 65  1  0  0  0
 63146  1  0  0  0
 63147  1  0  0  0
 63148  1  0  0  0
 64149  1  0  0  0
 65150  1  0  0  0
 68 84  1  0  0  0
 71 72  2  0  0  0
 71 73  1  0  0  0
 71151  1  0  0  0
 72 75  1  0  0  0
 72152  1  0  0  0
 73 76  2  0  0  0
 73 87  1  0  0  0
 74 75  2  0  0  0
 74 76  1  0  0  0
 74 88  1  0  0  0
 75 90  1  0  0  0
 76 91  1  0  0  0
 77 84  1  0  0  0
 77 86  1  0  0  0
 77 89  2  0  0  0
 78 79  1  0  0  0
 78 80  1  0  0  0
 78153  1  0  0  0
 78154  1  0  0  0
 79 81  1  0  0  0
 79155  1  0  0  0
 79156  1  0  0  0
 80 88  1  0  0  0
 80157  1  0  0  0
 80158  1  0  0  0
 81 88  1  0  0  0
 81159  1  0  0  0
 81160  1  0  0  0
 82161  1  0  0  0
 82162  1  0  0  0
 82163  1  0  0  0
 82 86  1  0  0  0
 83164  1  0  0  0
 83165  1  0  0  0
 83166  1  0  0  0
 83 88  1  0  0  0
 84167  1  0  0  0
 84168  1  0  0  0
 85 86  1  0  0  0
 85 90  1  0  0  0
 85169  1  0  0  0
 85170  1  0  0  0
 86171  1  0  0  0
 87172  1  0  0  0
M  CHG  1  88   1
M  ISO  4   1 100  68 101  84 101  87 100
M  END
> <chiral flag>
0

> <version>
0

> <s_m_source_file>
/data/baiqing/PycharmProjects/Reinvent-master-3.2/result/LINK_invent/BTK/process_docking_weight1_custom_product_contain_oxygen_bond_distance_aromatic_linkinvent_7_9_3/rearranged_h_0146.sdf

> <i_m_source_file_index>
56

> <r_mmod_Potential_Energy-OPLS-2005>
63.7636299133301

> <r_mmod_Stretch_Energy-OPLS-2005>
59.9019737243652

> <r_mmod_Bend_Energy-OPLS-2005>
165.682266235352

> <r_mmod_Torsional_Energy-OPLS-2005>
330.975494384766

> <r_mmod_Improper_Torsional_Energy-OPLS-2005>
5.0811128616333

> <r_mmod_Van_der_Waal_Energy-OPLS-2005>
160.190887451172

> <r_mmod_Electrostatic_Energy-OPLS-2005>
-332.341064453125

> <r_mmod_Solvation_Energy-OPLS-2005>
-344.492919921875

> <b_mmod_Minimization_Converged-OPLS-2005>
0

> <r_mmod_RMS_Derivative-OPLS-2005>
0.750040888786316

$$$$
56
                    3D
 Structure written by MMmdl.
157166  0  0  1  0            999 V2000
  -30.6124  -14.8244   20.4462 C   0  0  0  0  0  0
  -30.4242  -12.5032   19.4833 C   0  0  0  0  0  0
  -29.5065  -12.5014   18.2419 C   0  0  0  0  0  0
  -28.0374  -12.3129   18.6601 C   0  0  0  0  0  0
  -27.6304  -13.2387   19.8357 C   0  0  2  0  0  0
  -28.6766  -13.2324   20.9699 C   0  0  0  0  0  0
  -25.2502  -13.8218   20.5737 C   0  0  0  0  0  0
  -24.1788  -13.0437   20.9230 C   0  0  0  0  0  0
  -24.6372  -11.6921   20.8778 C   0  0  0  0  0  0
  -23.9049  -10.4270   21.0401 C   0  0  0  0  0  0
  -24.3620   -9.4195   21.9179 C   0  0  0  0  0  0
  -23.6294   -8.2218   22.0738 C   0  0  0  0  0  0
  -22.4270   -8.0255   21.3521 C   0  0  0  0  0  0
  -21.9909   -9.0233   20.4633 C   0  0  0  0  0  0
  -22.7224  -10.2105   20.3043 C   0  0  0  0  0  0
  -21.6852   -6.0712   22.5290 C   0  0  0  0  0  0
  -21.4013   -6.5615   23.8221 C   0  0  0  0  0  0
  -21.3663   -5.6769   24.9180 C   0  0  0  0  0  0
  -21.6032   -4.3032   24.7230 C   0  0  0  0  0  0
  -21.8820   -3.8117   23.4358 C   0  0  0  0  0  0
  -21.9200   -4.6940   22.3409 C   0  0  0  0  0  0
  -22.7807  -13.5240   21.1873 C   0  0  0  0  0  0
  -22.1670   -4.2121   21.0998 F   0  0  0  0  0  0
  -21.5643   -3.4535   25.7762 F   0  0  0  0  0  0
  -29.9599  -13.6063   20.3683 N   0  0  0  0  0  0
  -26.2870  -12.9401   20.3193 N   0  0  0  0  0  0
  -25.9290  -11.6557   20.5749 N   0  0  0  0  0  0
  -22.0419  -12.8241   22.0432 N   0  0  0  0  0  0
  -25.4182  -15.1931   20.4208 N   0  0  0  0  0  0
  -31.8054  -14.8441   20.1215 O   0  0  0  0  0  0
  -21.6620   -6.8856   21.4240 O   0  0  0  0  0  0
  -22.3463  -14.5501   20.6668 O   0  0  0  0  0  0
  -24.6347  -31.8521   23.1944 C   0  0  0  0  0  0
  -25.9138  -32.4746   23.8304 C   0  0  1  0  0  0
  -27.2286  -27.2031   20.1452 C   0  0  0  0  0  0
  -25.5921  -33.8556   24.2236 N   0  0  0  0  0  0
  -23.4378  -30.4751   21.5395 C   0  0  2  0  0  0
  -24.8909  -28.9165   20.1080 C   0  0  0  0  0  0
  -22.7527  -29.4575   22.4855 C   0  0  0  0  0  0
  -18.0307  -28.1377   22.8499 C   0  0  0  0  0  0
  -24.1485  -36.7280   23.2640 C   0  0  0  0  0  0
  -25.9873  -30.7467   21.3871 C   0  0  0  0  0  0
  -26.0623  -29.3628   20.7309 C   0  0  0  0  0  0
  -27.2302  -28.5189   20.7433 C   0  0  0  0  0  0
  -26.0381  -26.8577   19.4687 C   0  0  0  0  0  0
  -24.8885  -27.6723   19.4641 C   0  0  0  0  0  0
  -23.6641  -29.8100   20.1559 C   0  0  0  0  0  0
  -25.4111  -36.3087   24.0333 C   0  0  1  0  0  0
  -20.5912  -28.3702   23.1255 C   0  0  2  0  0  0
  -20.6803  -26.9401   22.5417 C   0  0  0  0  0  0
  -19.5783  -26.6350   21.5242 C   0  0  0  0  0  0
  -18.1961  -26.7910   22.1650 C   0  0  0  0  0  0
  -19.1554  -28.8862   23.2873 C   0  0  0  0  0  0
  -18.9475  -30.1467   23.8874 C   0  0  0  0  0  0
  -17.6469  -30.6585   24.0559 C   0  0  0  0  0  0
  -25.9048  -34.9445   23.5078 C   0  0  0  0  0  0
  -16.5363  -29.9065   23.6338 C   0  0  0  0  0  0
  -16.7288  -28.6488   23.0351 C   0  0  0  0  0  0
  -26.4492  -31.6585   25.0715 C   0  0  0  0  0  0
  -25.3690  -31.3768   26.1426 C   0  0  0  0  0  0
  -27.0335  -30.2991   24.6246 C   0  0  0  0  0  0
  -27.6046  -32.4314   25.7498 C   0  0  0  0  0  0
  -27.5579  -37.1806   24.8465 C   0  0  0  0  0  0
  -21.4219  -29.3040   22.3618 N   0  0  0  0  0  0
  -26.4288  -37.3793   23.9403 N   0  0  0  0  0  0
  -24.7058  -31.0421   22.0968 N   0  0  0  0  0  0
  -23.4193  -28.8092   23.2976 O   0  0  0  0  0  0
  -28.2838  -26.2367   20.2330 O   0  0  0  0  0  0
  -26.5614  -34.8941   22.4649 O   0  0  0  0  0  0
  -23.5484  -32.1340   23.7220 O   0  0  0  0  0  0
  -31.5509  -17.0098   22.1567 C   0  0  0  0  0  0
  -32.1595  -18.0768   22.7310 C   0  0  0  0  0  0
  -30.5084  -17.3200   21.2166 C   0  0  0  0  0  0
  -30.2755  -18.7695   21.1347 C   0  0  0  0  0  0
  -30.0547  -21.0354   19.5953 C   0  0  0  0  0  0
  -28.7191  -20.9381   21.6370 C   0  0  0  0  0  0
  -29.3262  -22.4265   19.2305 C   0  0  0  0  0  0
  -28.0343  -22.3350   21.2490 C   0  0  0  0  0  0
  -29.3449  -19.9626   20.5385 C   0  0  2  0  0  0
  -28.8420  -23.3878   20.3919 C   0  0  2  0  0  0
  -27.9979  -24.7568   19.9404 C   0  0  0  0  0  0
  -29.9238  -16.0415   20.6650 N   0  0  0  0  0  0
  -31.5366  -19.5488   22.1069 S   0  0  0  0  0  0
  -31.4677  -12.5998   19.1763 H   0  0  0  0  0  0
  -30.3542  -11.5442   20.0037 H   0  0  0  0  0  0
  -29.8027  -11.7088   17.5496 H   0  0  0  0  0  0
  -29.6128  -13.4432   17.7011 H   0  0  0  0  0  0
  -27.9227  -11.2677   18.9514 H   0  0  0  0  0  0
  -27.3731  -12.4590   17.8090 H   0  0  0  0  0  0
  -27.6071  -14.2474   19.4224 H   0  0  0  0  0  0
  -28.3927  -13.9330   21.7590 H   0  0  0  0  0  0
  -28.7369  -12.2423   21.4271 H   0  0  0  0  0  0
  -25.2733   -9.5689   22.4771 H   0  0  0  0  0  0
  -23.9993   -7.4621   22.7475 H   0  0  0  0  0  0
  -21.0808   -8.8741   19.8976 H   0  0  0  0  0  0
  -22.3648  -10.9654   19.6169 H   0  0  0  0  0  0
  -21.1988   -7.6130   23.9722 H   0  0  0  0  0  0
  -21.1498   -6.0501   25.9095 H   0  0  0  0  0  0
  -22.0599   -2.7586   23.2872 H   0  0  0  0  0  0
  -22.4033  -11.9944   22.4899 H   0  0  0  0  0  0
  -21.1026  -13.1288   22.2566 H   0  0  0  0  0  0
  -24.6478  -15.8414   20.5427 H   0  0  0  0  0  0
  -26.2557  -15.6391   20.0691 H   0  0  0  0  0  0
  -26.7204  -32.5419   23.1061 H   0  0  0  0  0  0
  -25.0104  -33.9670   25.0410 H   0  0  0  0  0  0
  -22.7391  -31.3012   21.3886 H   0  0  0  0  0  0
  -23.3778  -35.9588   23.3291 H   0  0  0  0  0  0
  -24.3589  -36.8896   22.2058 H   0  0  0  0  0  0
  -23.7198  -37.6464   23.6654 H   0  0  0  0  0  0
  -26.1227  -31.5050   20.6137 H   0  0  0  0  0  0
  -26.8654  -30.8070   22.0202 H   0  0  0  0  0  0
  -28.1144  -28.8570   21.2665 H   0  0  0  0  0  0
  -25.9593  -25.9222   18.9404 H   0  0  0  0  0  0
  -23.9979  -27.3263   18.9558 H   0  0  0  0  0  0
  -23.7947  -30.5856   19.4000 H   0  0  0  0  0  0
  -22.7843  -29.2435   19.8444 H   0  0  0  0  0  0
  -25.1305  -36.1941   25.0831 H   0  0  0  0  0  0
  -21.0035  -28.3303   24.1371 H   0  0  0  0  0  0
  -20.5717  -26.2309   23.3635 H   0  0  0  0  0  0
  -21.6669  -26.7411   22.1219 H   0  0  0  0  0  0
  -19.6929  -25.6255   21.1290 H   0  0  0  0  0  0
  -19.6717  -27.3152   20.6777 H   0  0  0  0  0  0
  -17.4218  -26.6652   21.4049 H   0  0  0  0  0  0
  -18.0350  -26.0047   22.9051 H   0  0  0  0  0  0
  -19.7939  -30.7309   24.2201 H   0  0  0  0  0  0
  -17.5009  -31.6272   24.5143 H   0  0  0  0  0  0
  -15.5355  -30.2962   23.7661 H   0  0  0  0  0  0
  -15.8696  -28.0811   22.7046 H   0  0  0  0  0  0
  -24.5907  -30.7059   25.7770 H   0  0  0  0  0  0
  -24.8836  -32.2946   26.4758 H   0  0  0  0  0  0
  -25.7997  -30.9032   27.0258 H   0  0  0  0  0  0
  -26.2932  -29.6749   24.1239 H   0  0  0  0  0  0
  -27.3940  -29.7269   25.4799 H   0  0  0  0  0  0
  -27.8845  -30.4242   23.9558 H   0  0  0  0  0  0
  -27.2665  -33.3648   26.2029 H   0  0  0  0  0  0
  -28.3901  -32.6797   25.0343 H   0  0  0  0  0  0
  -28.0657  -31.8441   26.5456 H   0  0  0  0  0  0
  -28.2614  -38.0095   24.7533 H   0  0  0  0  0  0
  -28.1062  -36.2624   24.6283 H   0  0  0  0  0  0
  -27.2292  -37.1450   25.8872 H   0  0  0  0  0  0
  -20.9375  -29.8779   21.6858 H   0  0  0  0  0  0
  -26.0176  -38.2873   24.1421 H   0  0  0  0  0  0
  -31.8394  -16.0023   22.4228 H   0  0  0  0  0  0
  -32.9468  -18.0703   23.4768 H   0  0  0  0  0  0
  -30.3040  -20.5393   18.6572 H   0  0  0  0  0  0
  -31.0122  -21.3098   20.0378 H   0  0  0  0  0  0
  -28.0105  -20.3536   22.2257 H   0  0  0  0  0  0
  -29.4929  -21.2249   22.3438 H   0  0  0  0  0  0
  -28.4638  -22.1958   18.6035 H   0  0  0  0  0  0
  -29.9897  -22.9968   18.5768 H   0  0  0  0  0  0
  -27.7437  -22.8334   22.1755 H   0  0  0  0  0  0
  -27.0928  -22.1149   20.7480 H   0  0  0  0  0  0
  -28.5229  -19.5145   19.9828 H   0  0  0  0  0  0
  -29.7080  -23.7095   20.9716 H   0  0  0  0  0  0
  -26.9888  -24.5720   20.3155 H   0  0  0  0  0  0
  -27.9140  -24.7078   18.8515 H   0  0  0  0  0  0
  -28.9180  -15.9728   20.6503 H   0  0  0  0  0  0
  1 25  1  0  0  0
  1 30  2  0  0  0
  1 82  1  0  0  0
  2  3  1  0  0  0
  2 25  1  0  0  0
  2 84  1  0  0  0
  2 85  1  0  0  0
  3  4  1  0  0  0
  3 86  1  0  0  0
  3 87  1  0  0  0
  4  5  1  0  0  0
  4 88  1  0  0  0
  4 89  1  0  0  0
  5  6  1  0  0  0
  5 26  1  0  0  0
  5 90  1  0  0  0
  6 25  1  0  0  0
  6 91  1  0  0  0
  6 92  1  0  0  0
  7  8  2  0  0  0
  7 26  1  0  0  0
  7 29  1  0  0  0
  8  9  1  0  0  0
  8 22  1  0  0  0
  9 10  1  0  0  0
  9 27  2  0  0  0
 10 11  2  0  0  0
 10 15  1  0  0  0
 11 12  1  0  0  0
 11 93  1  0  0  0
 12 13  2  0  0  0
 12 94  1  0  0  0
 13 14  1  0  0  0
 13 31  1  0  0  0
 14 15  2  0  0  0
 14 95  1  0  0  0
 15 96  1  0  0  0
 16 17  2  0  0  0
 16 21  1  0  0  0
 16 31  1  0  0  0
 17 18  1  0  0  0
 17 97  1  0  0  0
 18 19  2  0  0  0
 18 98  1  0  0  0
 19 20  1  0  0  0
 19 24  1  0  0  0
 20 21  2  0  0  0
 20 99  1  0  0  0
 21 23  1  0  0  0
 22 28  1  0  0  0
 22 32  2  0  0  0
 26 27  1  0  0  0
 28100  1  0  0  0
 28101  1  0  0  0
 29102  1  0  0  0
 29103  1  0  0  0
 33 34  1  0  0  0
 33 66  1  0  0  0
 33 70  2  0  0  0
 34 36  1  0  0  0
 34 59  1  0  0  0
 34104  1  0  0  0
 35 44  2  0  0  0
 35 45  1  0  0  0
 35 68  1  0  0  0
 36 56  1  0  0  0
 36105  1  0  0  0
 37 39  1  0  0  0
 37 47  1  0  0  0
 37 66  1  0  0  0
 37106  1  0  0  0
 38 43  2  0  0  0
 38 46  1  0  0  0
 38 47  1  0  0  0
 39 64  1  0  0  0
 39 67  2  0  0  0
 40 52  1  0  0  0
 40 53  2  0  0  0
 40 58  1  0  0  0
 41107  1  0  0  0
 41108  1  0  0  0
 41109  1  0  0  0
 41 48  1  0  0  0
 42 43  1  0  0  0
 42 66  1  0  0  0
 42110  1  0  0  0
 42111  1  0  0  0
 43 44  1  0  0  0
 44112  1  0  0  0
 45 46  2  0  0  0
 45113  1  0  0  0
 46114  1  0  0  0
 47115  1  0  0  0
 47116  1  0  0  0
 48 56  1  0  0  0
 48 65  1  0  0  0
 48117  1  0  0  0
 49 50  1  0  0  0
 49 53  1  0  0  0
 49 64  1  0  0  0
 49118  1  0  0  0
 50 51  1  0  0  0
 50119  1  0  0  0
 50120  1  0  0  0
 51 52  1  0  0  0
 51121  1  0  0  0
 51122  1  0  0  0
 52123  1  0  0  0
 52124  1  0  0  0
 53 54  1  0  0  0
 54 55  2  0  0  0
 54125  1  0  0  0
 55 57  1  0  0  0
 55126  1  0  0  0
 56 69  2  0  0  0
 57 58  2  0  0  0
 57127  1  0  0  0
 58128  1  0  0  0
 59 60  1  0  0  0
 59 61  1  0  0  0
 59 62  1  0  0  0
 60129  1  0  0  0
 60130  1  0  0  0
 60131  1  0  0  0
 61132  1  0  0  0
 61133  1  0  0  0
 61134  1  0  0  0
 62135  1  0  0  0
 62136  1  0  0  0
 62137  1  0  0  0
 63 65  1  0  0  0
 63138  1  0  0  0
 63139  1  0  0  0
 63140  1  0  0  0
 64141  1  0  0  0
 65142  1  0  0  0
 68 81  1  0  0  0
 71 72  2  0  0  0
 71 73  1  0  0  0
 71143  1  0  0  0
 72 83  1  0  0  0
 72144  1  0  0  0
 73 74  2  0  0  0
 73 82  1  0  0  0
 74 83  1  0  0  0
 74 79  1  0  0  0
 75 77  1  0  0  0
 75 79  1  0  0  0
 75145  1  0  0  0
 75146  1  0  0  0
 76 78  1  0  0  0
 76 79  1  0  0  0
 76147  1  0  0  0
 76148  1  0  0  0
 77 80  1  0  0  0
 77149  1  0  0  0
 77150  1  0  0  0
 78 80  1  0  0  0
 78151  1  0  0  0
 78152  1  0  0  0
 79153  1  0  0  0
 80 81  1  0  0  0
 80154  1  0  0  0
 81155  1  0  0  0
 81156  1  0  0  0
 82157  1  0  0  0
M  ISO  4   1 100  68 101  81 101  82 100
M  END
> <chiral flag>
0

> <version>
0

> <s_m_source_file>
/data/baiqing/PycharmProjects/Reinvent-master-3.2/result/LINK_invent/BTK/process_docking_weight1_custom_product_contain_oxygen_bond_distance_aromatic_linkinvent_7_9_3/rearranged_h_0146.sdf

> <i_m_source_file_index>
57

> <r_mmod_Potential_Energy-OPLS-2005>
453.632263183594

> <r_mmod_Stretch_Energy-OPLS-2005>
203.970306396484

> <r_mmod_Bend_Energy-OPLS-2005>
303.501708984375

> <r_mmod_Torsional_Energy-OPLS-2005>
237.41862487793

> <r_mmod_Improper_Torsional_Energy-OPLS-2005>
5.27070140838623

> <r_mmod_Van_der_Waal_Energy-OPLS-2005>
141.260833740234

> <r_mmod_Electrostatic_Energy-OPLS-2005>
-358.717437744141

> <r_mmod_Solvation_Energy-OPLS-2005>
-207.677032470703

> <b_mmod_Minimization_Converged-OPLS-2005>
0

> <r_mmod_RMS_Derivative-OPLS-2005>
7.29545879364014

$$$$
57
                    3D
 Structure written by MMmdl.
162171  0  0  1  0            999 V2000
  -30.7127  -14.4420   20.6106 C   0  0  0  0  0  0
  -30.4230  -12.3028   19.4180 C   0  0  0  0  0  0
  -29.4963  -12.5261   18.2054 C   0  0  0  0  0  0
  -28.0161  -12.3829   18.6149 C   0  0  0  0  0  0
  -27.6674  -13.2074   19.8829 C   0  0  2  0  0  0
  -28.7051  -12.9633   21.0000 C   0  0  0  0  0  0
  -25.2607  -13.8163   20.5691 C   0  0  0  0  0  0
  -24.1845  -13.0439   20.9164 C   0  0  0  0  0  0
  -24.6399  -11.6904   20.8727 C   0  0  0  0  0  0
  -23.9056  -10.4294   21.0389 C   0  0  0  0  0  0
  -24.3616   -9.4208   21.9175 C   0  0  0  0  0  0
  -23.6294   -8.2242   22.0749 C   0  0  0  0  0  0
  -22.4269   -8.0286   21.3541 C   0  0  0  0  0  0
  -21.9899   -9.0250   20.4641 C   0  0  0  0  0  0
  -22.7225  -10.2134   20.3038 C   0  0  0  0  0  0
  -21.6859   -6.0733   22.5286 C   0  0  0  0  0  0
  -21.4024   -6.5629   23.8220 C   0  0  0  0  0  0
  -21.3656   -5.6779   24.9175 C   0  0  0  0  0  0
  -21.6035   -4.3046   24.7223 C   0  0  0  0  0  0
  -21.8817   -3.8137   23.4341 C   0  0  0  0  0  0
  -21.9193   -4.6957   22.3397 C   0  0  0  0  0  0
  -22.7863  -13.5241   21.1815 C   0  0  0  0  0  0
  -22.1654   -4.2143   21.0973 F   0  0  0  0  0  0
  -21.5623   -3.4526   25.7734 F   0  0  0  0  0  0
  -30.0426  -13.2679   20.4618 N   0  0  0  0  0  0
  -26.3060  -12.9342   20.3389 N   0  0  0  0  0  0
  -25.9337  -11.6496   20.5768 N   0  0  0  0  0  0
  -22.0490  -12.8263   22.0392 N   0  0  0  0  0  0
  -25.4320  -15.1887   20.4120 N   0  0  0  0  0  0
  -31.8091  -14.6603   20.0849 O   0  0  0  0  0  0
  -21.6636   -6.8882   21.4248 O   0  0  0  0  0  0
  -22.3548  -14.5524   20.6625 O   0  0  0  0  0  0
  -24.6164  -31.8710   23.2122 C   0  0  0  0  0  0
  -25.9058  -32.4834   23.8407 C   0  0  1  0  0  0
  -27.2278  -27.4228   20.0905 C   0  0  0  0  0  0
  -25.5917  -33.8633   24.2350 N   0  0  0  0  0  0
  -23.4033  -30.4985   21.5519 C   0  0  2  0  0  0
  -24.8460  -28.9679   20.1132 C   0  0  0  0  0  0
  -22.7406  -29.4696   22.4963 C   0  0  0  0  0  0
  -18.0285  -28.1380   22.8494 C   0  0  0  0  0  0
  -24.1483  -36.7310   23.2645 C   0  0  0  0  0  0
  -25.9353  -30.8306   21.3697 C   0  0  0  0  0  0
  -26.0069  -29.4664   20.7141 C   0  0  0  0  0  0
  -27.1952  -28.6988   20.7051 C   0  0  0  0  0  0
  -26.0401  -26.9478   19.4801 C   0  0  0  0  0  0
  -24.8575  -27.7078   19.4966 C   0  0  0  0  0  0
  -23.6127  -29.8395   20.1630 C   0  0  0  0  0  0
  -25.4105  -36.3125   24.0354 C   0  0  1  0  0  0
  -20.5878  -28.3688   23.1292 C   0  0  2  0  0  0
  -20.6778  -26.9420   22.5412 C   0  0  0  0  0  0
  -19.5754  -26.6389   21.5212 C   0  0  0  0  0  0
  -18.1931  -26.7933   22.1617 C   0  0  0  0  0  0
  -19.1535  -28.8845   23.2899 C   0  0  0  0  0  0
  -18.9463  -30.1442   23.8919 C   0  0  0  0  0  0
  -17.6465  -30.6591   24.0567 C   0  0  0  0  0  0
  -25.9035  -34.9486   23.5152 C   0  0  0  0  0  0
  -16.5356  -29.9096   23.6322 C   0  0  0  0  0  0
  -16.7273  -28.6508   23.0355 C   0  0  0  0  0  0
  -26.4483  -31.6608   25.0733 C   0  0  0  0  0  0
  -25.3745  -31.3706   26.1480 C   0  0  0  0  0  0
  -27.0334  -30.3051   24.6125 C   0  0  0  0  0  0
  -27.6064  -32.4326   25.7489 C   0  0  0  0  0  0
  -27.5583  -37.1815   24.8469 C   0  0  0  0  0  0
  -21.4139  -29.3058   22.3689 N   0  0  0  0  0  0
  -26.4293  -37.3808   23.9419 N   0  0  0  0  0  0
  -24.6703  -31.0805   22.1027 N   0  0  0  0  0  0
  -23.4176  -28.8241   23.3010 O   0  0  0  0  0  0
  -28.4095  -26.7007   20.1408 O   0  0  0  0  0  0
  -26.5590  -34.8936   22.4701 O   0  0  0  0  0  0
  -23.5353  -32.1468   23.7501 O   0  0  0  0  0  0
  -29.7942  -18.7260   19.6346 C   0  0  0  0  0  0
  -31.1596  -18.9695   21.6308 C   0  0  0  0  0  0
  -29.5907  -17.3640   19.9428 C   0  0  0  0  0  0
  -30.9589  -17.6039   21.9391 C   0  0  0  0  0  0
  -30.6179  -19.5367   20.4493 C   0  0  0  0  0  0
  -30.2117  -16.7836   21.0684 C   0  0  0  0  0  0
  -29.2662  -24.3776   20.3115 C   0  0  0  0  0  0
  -32.3911  -21.4987   20.4017 C   0  0  0  0  0  0
  -31.5855  -22.4064   21.3260 C   0  0  0  0  0  0
  -31.0468  -20.9281   19.9415 C   0  0  2  0  0  0
  -31.0453  -23.7269   18.6070 C   0  0  0  0  0  0
  -28.5315  -25.4361   19.4568 C   0  0  0  0  0  0
  -29.9312  -23.1914   19.5503 C   0  0  1  0  0  0
  -30.0705  -15.3914   21.3154 N   0  0  0  0  0  0
  -30.3844  -22.1261   20.5205 N   0  3  2  0  0  0
  -29.2860  -24.4919   21.5431 O   0  0  0  0  0  0
  -31.4675  -12.4051   19.1171 H   0  0  0  0  0  0
  -30.3189  -11.2858   19.7978 H   0  0  0  0  0  0
  -29.7365  -11.8149   17.4136 H   0  0  0  0  0  0
  -29.6686  -13.5177   17.7846 H   0  0  0  0  0  0
  -27.8227  -11.3253   18.7973 H   0  0  0  0  0  0
  -27.3691  -12.6718   17.7861 H   0  0  0  0  0  0
  -27.7191  -14.2611   19.6064 H   0  0  0  0  0  0
  -28.6759  -11.9205   21.3190 H   0  0  0  0  0  0
  -28.4610  -13.5485   21.8880 H   0  0  0  0  0  0
  -25.2779   -9.5671   22.4731 H   0  0  0  0  0  0
  -23.9998   -7.4627   22.7470 H   0  0  0  0  0  0
  -21.0819   -8.8759   19.8965 H   0  0  0  0  0  0
  -22.3687  -10.9650   19.6129 H   0  0  0  0  0  0
  -21.2031   -7.6143   23.9724 H   0  0  0  0  0  0
  -21.1481   -6.0507   25.9078 H   0  0  0  0  0  0
  -22.0603   -2.7596   23.2839 H   0  0  0  0  0  0
  -22.4097  -11.9959   22.4844 H   0  0  0  0  0  0
  -21.1098  -13.1297   22.2556 H   0  0  0  0  0  0
  -24.6677  -15.8449   20.5298 H   0  0  0  0  0  0
  -26.2933  -15.6326   20.1181 H   0  0  0  0  0  0
  -26.7138  -32.5539   23.1178 H   0  0  0  0  0  0
  -25.0084  -33.9799   25.0509 H   0  0  0  0  0  0
  -22.6958  -31.3191   21.4153 H   0  0  0  0  0  0
  -23.3755  -35.9630   23.3313 H   0  0  0  0  0  0
  -24.3579  -36.8912   22.2057 H   0  0  0  0  0  0
  -23.7215  -37.6514   23.6642 H   0  0  0  0  0  0
  -26.0570  -31.5998   20.6048 H   0  0  0  0  0  0
  -26.8218  -30.8764   21.9915 H   0  0  0  0  0  0
  -28.0861  -29.0829   21.1816 H   0  0  0  0  0  0
  -25.9687  -25.9938   18.9854 H   0  0  0  0  0  0
  -23.9631  -27.3201   19.0291 H   0  0  0  0  0  0
  -23.7327  -30.6225   19.4129 H   0  0  0  0  0  0
  -22.7334  -29.2706   19.8560 H   0  0  0  0  0  0
  -25.1276  -36.2006   25.0852 H   0  0  0  0  0  0
  -20.9983  -28.3268   24.1404 H   0  0  0  0  0  0
  -20.5683  -26.2300   23.3610 H   0  0  0  0  0  0
  -21.6649  -26.7467   22.1199 H   0  0  0  0  0  0
  -19.6922  -25.6304   21.1238 H   0  0  0  0  0  0
  -19.6692  -27.3205   20.6748 H   0  0  0  0  0  0
  -17.4208  -26.6700   21.4011 H   0  0  0  0  0  0
  -18.0318  -26.0061   22.9000 H   0  0  0  0  0  0
  -19.7942  -30.7246   24.2300 H   0  0  0  0  0  0
  -17.5033  -31.6270   24.5170 H   0  0  0  0  0  0
  -15.5362  -30.3014   23.7627 H   0  0  0  0  0  0
  -15.8674  -28.0833   22.7065 H   0  0  0  0  0  0
  -24.5908  -30.7077   25.7805 H   0  0  0  0  0  0
  -24.8948  -32.2859   26.4957 H   0  0  0  0  0  0
  -25.8092  -30.8844   27.0224 H   0  0  0  0  0  0
  -26.2895  -29.6783   24.1197 H   0  0  0  0  0  0
  -27.4134  -29.7317   25.4593 H   0  0  0  0  0  0
  -27.8713  -30.4380   23.9274 H   0  0  0  0  0  0
  -27.2696  -33.3615   26.2104 H   0  0  0  0  0  0
  -28.3846  -32.6911   25.0294 H   0  0  0  0  0  0
  -28.0770  -31.8431   26.5370 H   0  0  0  0  0  0
  -28.2616  -38.0101   24.7521 H   0  0  0  0  0  0
  -28.1070  -36.2637   24.6294 H   0  0  0  0  0  0
  -27.2304  -37.1467   25.8875 H   0  0  0  0  0  0
  -20.9296  -29.8759   21.6898 H   0  0  0  0  0  0
  -26.0191  -38.2894   24.1412 H   0  0  0  0  0  0
  -29.3644  -19.1214   18.7251 H   0  0  0  0  0  0
  -31.7891  -19.5510   22.2878 H   0  0  0  0  0  0
  -28.9951  -16.7551   19.2767 H   0  0  0  0  0  0
  -31.4206  -17.1820   22.8214 H   0  0  0  0  0  0
  -33.0633  -20.7981   20.8945 H   0  0  0  0  0  0
  -32.9212  -22.0462   19.6235 H   0  0  0  0  0  0
  -31.9202  -23.4433   21.3494 H   0  0  0  0  0  0
  -31.4917  -22.0027   22.3356 H   0  0  0  0  0  0
  -30.9811  -20.9213   18.8518 H   0  0  0  0  0  0
  -30.6479  -24.4052   17.8546 H   0  0  0  0  0  0
  -31.5266  -22.9324   18.0400 H   0  0  0  0  0  0
  -31.8177  -24.2759   19.1486 H   0  0  0  0  0  0
  -27.5910  -24.9739   19.1799 H   0  0  0  0  0  0
  -29.0714  -25.6228   18.5306 H   0  0  0  0  0  0
  -29.1599  -22.7317   18.9324 H   0  0  0  0  0  0
  -29.2173  -15.0945   21.7644 H   0  0  0  0  0  0
  -29.6097  -21.8652   21.1131 H   0  0  0  0  0  0
  1 25  1  0  0  0
  1 30  2  0  0  0
  1 84  1  0  0  0
  2  3  1  0  0  0
  2 25  1  0  0  0
  2 87  1  0  0  0
  2 88  1  0  0  0
  3  4  1  0  0  0
  3 89  1  0  0  0
  3 90  1  0  0  0
  4  5  1  0  0  0
  4 91  1  0  0  0
  4 92  1  0  0  0
  5  6  1  0  0  0
  5 26  1  0  0  0
  5 93  1  0  0  0
  6 25  1  0  0  0
  6 94  1  0  0  0
  6 95  1  0  0  0
  7  8  2  0  0  0
  7 26  1  0  0  0
  7 29  1  0  0  0
  8  9  1  0  0  0
  8 22  1  0  0  0
  9 10  1  0  0  0
  9 27  2  0  0  0
 10 11  2  0  0  0
 10 15  1  0  0  0
 11 12  1  0  0  0
 11 96  1  0  0  0
 12 13  2  0  0  0
 12 97  1  0  0  0
 13 14  1  0  0  0
 13 31  1  0  0  0
 14 15  2  0  0  0
 14 98  1  0  0  0
 15 99  1  0  0  0
 16 17  2  0  0  0
 16 21  1  0  0  0
 16 31  1  0  0  0
 17 18  1  0  0  0
 17100  1  0  0  0
 18 19  2  0  0  0
 18101  1  0  0  0
 19 20  1  0  0  0
 19 24  1  0  0  0
 20 21  2  0  0  0
 20102  1  0  0  0
 21 23  1  0  0  0
 22 28  1  0  0  0
 22 32  2  0  0  0
 26 27  1  0  0  0
 28103  1  0  0  0
 28104  1  0  0  0
 29105  1  0  0  0
 29106  1  0  0  0
 33 34  1  0  0  0
 33 66  1  0  0  0
 33 70  2  0  0  0
 34 36  1  0  0  0
 34 59  1  0  0  0
 34107  1  0  0  0
 35 44  2  0  0  0
 35 45  1  0  0  0
 35 68  1  0  0  0
 36 56  1  0  0  0
 36108  1  0  0  0
 37 39  1  0  0  0
 37 47  1  0  0  0
 37 66  1  0  0  0
 37109  1  0  0  0
 38 43  2  0  0  0
 38 46  1  0  0  0
 38 47  1  0  0  0
 39 64  1  0  0  0
 39 67  2  0  0  0
 40 52  1  0  0  0
 40 53  2  0  0  0
 40 58  1  0  0  0
 41110  1  0  0  0
 41111  1  0  0  0
 41112  1  0  0  0
 41 48  1  0  0  0
 42 43  1  0  0  0
 42 66  1  0  0  0
 42113  1  0  0  0
 42114  1  0  0  0
 43 44  1  0  0  0
 44115  1  0  0  0
 45 46  2  0  0  0
 45116  1  0  0  0
 46117  1  0  0  0
 47118  1  0  0  0
 47119  1  0  0  0
 48 56  1  0  0  0
 48 65  1  0  0  0
 48120  1  0  0  0
 49 50  1  0  0  0
 49 53  1  0  0  0
 49 64  1  0  0  0
 49121  1  0  0  0
 50 51  1  0  0  0
 50122  1  0  0  0
 50123  1  0  0  0
 51 52  1  0  0  0
 51124  1  0  0  0
 51125  1  0  0  0
 52126  1  0  0  0
 52127  1  0  0  0
 53 54  1  0  0  0
 54 55  2  0  0  0
 54128  1  0  0  0
 55 57  1  0  0  0
 55129  1  0  0  0
 56 69  2  0  0  0
 57 58  2  0  0  0
 57130  1  0  0  0
 58131  1  0  0  0
 59 60  1  0  0  0
 59 61  1  0  0  0
 59 62  1  0  0  0
 60132  1  0  0  0
 60133  1  0  0  0
 60134  1  0  0  0
 61135  1  0  0  0
 61136  1  0  0  0
 61137  1  0  0  0
 62138  1  0  0  0
 62139  1  0  0  0
 62140  1  0  0  0
 63 65  1  0  0  0
 63141  1  0  0  0
 63142  1  0  0  0
 63143  1  0  0  0
 64144  1  0  0  0
 65145  1  0  0  0
 68 82  1  0  0  0
 71 73  2  0  0  0
 71 75  1  0  0  0
 71146  1  0  0  0
 72 74  1  0  0  0
 72 75  2  0  0  0
 72147  1  0  0  0
 73 76  1  0  0  0
 73148  1  0  0  0
 74 76  2  0  0  0
 74149  1  0  0  0
 75 80  1  0  0  0
 76 84  1  0  0  0
 77 82  1  0  0  0
 77 83  1  0  0  0
 77 86  2  0  0  0
 78 79  1  0  0  0
 78 80  1  0  0  0
 78150  1  0  0  0
 78151  1  0  0  0
 79152  1  0  0  0
 79153  1  0  0  0
 79 85  1  0  0  0
 80 85  1  0  0  0
 80154  1  0  0  0
 81155  1  0  0  0
 81156  1  0  0  0
 81157  1  0  0  0
 81 83  1  0  0  0
 82158  1  0  0  0
 82159  1  0  0  0
 83 85  1  0  0  0
 83160  1  0  0  0
 84161  1  0  0  0
 85162  1  0  0  0
M  CHG  1  85   1
M  ISO  4   1 100  68 101  82 101  84 100
M  END
> <chiral flag>
0

> <version>
0

> <s_m_source_file>
/data/baiqing/PycharmProjects/Reinvent-master-3.2/result/LINK_invent/BTK/process_docking_weight1_custom_product_contain_oxygen_bond_distance_aromatic_linkinvent_7_9_3/rearranged_h_0146.sdf

> <i_m_source_file_index>
58

> <r_mmod_Potential_Energy-OPLS-2005>
-182.952575683594

> <r_mmod_Stretch_Energy-OPLS-2005>
44.4397811889648

> <r_mmod_Bend_Energy-OPLS-2005>
118.269309997559

> <r_mmod_Torsional_Energy-OPLS-2005>
277.354278564453

> <r_mmod_Improper_Torsional_Energy-OPLS-2005>
4.45754957199097

> <r_mmod_Van_der_Waal_Energy-OPLS-2005>
163.705490112305

> <r_mmod_Electrostatic_Energy-OPLS-2005>
-329.754150390625

> <r_mmod_Solvation_Energy-OPLS-2005>
-473.401275634766

> <b_mmod_Minimization_Converged-OPLS-2005>
0

> <r_mmod_RMS_Derivative-OPLS-2005>
2.39128589630127

$$$$
58
                    3D
 Structure written by MMmdl.
166175  0  0  1  0            999 V2000
  -30.7478  -14.4903   20.6066 C   0  0  0  0  0  0
  -30.4149  -12.3199   19.4486 C   0  0  0  0  0  0
  -29.5097  -12.5275   18.2170 C   0  0  0  0  0  0
  -28.0321  -12.3653   18.6187 C   0  0  0  0  0  0
  -27.6654  -13.2183   19.8619 C   0  0  2  0  0  0
  -28.7014  -13.0395   20.9992 C   0  0  0  0  0  0
  -25.2617  -13.8171   20.5636 C   0  0  0  0  0  0
  -24.1850  -13.0399   20.9111 C   0  0  0  0  0  0
  -24.6433  -11.6893   20.8679 C   0  0  0  0  0  0
  -23.9090  -10.4271   21.0381 C   0  0  0  0  0  0
  -24.3631   -9.4197   21.9172 C   0  0  0  0  0  0
  -23.6293   -8.2246   22.0753 C   0  0  0  0  0  0
  -22.4273   -8.0272   21.3541 C   0  0  0  0  0  0
  -21.9919   -9.0255   20.4644 C   0  0  0  0  0  0
  -22.7262  -10.2121   20.3039 C   0  0  0  0  0  0
  -21.6871   -6.0728   22.5294 C   0  0  0  0  0  0
  -21.4011   -6.5632   23.8220 C   0  0  0  0  0  0
  -21.3665   -5.6778   24.9186 C   0  0  0  0  0  0
  -21.6048   -4.3044   24.7229 C   0  0  0  0  0  0
  -21.8817   -3.8134   23.4355 C   0  0  0  0  0  0
  -21.9200   -4.6962   22.3409 C   0  0  0  0  0  0
  -22.7893  -13.5238   21.1767 C   0  0  0  0  0  0
  -22.1672   -4.2149   21.0990 F   0  0  0  0  0  0
  -21.5629   -3.4520   25.7742 F   0  0  0  0  0  0
  -30.0496  -13.3193   20.4721 N   0  0  0  0  0  0
  -26.3056  -12.9371   20.3264 N   0  0  0  0  0  0
  -25.9365  -11.6510   20.5672 N   0  0  0  0  0  0
  -22.0515  -12.8253   22.0349 N   0  0  0  0  0  0
  -25.4273  -15.1877   20.4078 N   0  0  0  0  0  0
  -31.8074  -14.6904   20.0044 O   0  0  0  0  0  0
  -21.6636   -6.8871   21.4245 O   0  0  0  0  0  0
  -22.3591  -14.5545   20.6625 O   0  0  0  0  0  0
  -24.6270  -31.8704   23.2098 C   0  0  0  0  0  0
  -25.9158  -32.4821   23.8386 C   0  0  1  0  0  0
  -27.2173  -27.3687   20.1046 C   0  0  0  0  0  0
  -25.6012  -33.8628   24.2332 N   0  0  0  0  0  0
  -23.4089  -30.4987   21.5537 C   0  0  2  0  0  0
  -24.8521  -28.9773   20.1132 C   0  0  0  0  0  0
  -22.7427  -29.4648   22.4942 C   0  0  0  0  0  0
  -18.0263  -28.1336   22.8493 C   0  0  0  0  0  0
  -24.1489  -36.7298   23.2611 C   0  0  0  0  0  0
  -25.9472  -30.8178   21.3699 C   0  0  0  0  0  0
  -26.0243  -29.4490   20.7188 C   0  0  0  0  0  0
  -27.2092  -28.6587   20.7126 C   0  0  0  0  0  0
  -26.0184  -26.9782   19.4408 C   0  0  0  0  0  0
  -24.8455  -27.7381   19.4703 C   0  0  0  0  0  0
  -23.6241  -29.8549   20.1614 C   0  0  0  0  0  0
  -25.4108  -36.3109   24.0338 C   0  0  1  0  0  0
  -20.5874  -28.3628   23.1316 C   0  0  2  0  0  0
  -20.6773  -26.9351   22.5429 C   0  0  0  0  0  0
  -19.5741  -26.6350   21.5217 C   0  0  0  0  0  0
  -18.1912  -26.7888   22.1609 C   0  0  0  0  0  0
  -19.1522  -28.8801   23.2906 C   0  0  0  0  0  0
  -18.9447  -30.1427   23.8903 C   0  0  0  0  0  0
  -17.6449  -30.6569   24.0538 C   0  0  0  0  0  0
  -25.9042  -34.9485   23.5088 C   0  0  0  0  0  0
  -16.5336  -29.9059   23.6325 C   0  0  0  0  0  0
  -16.7254  -28.6472   23.0337 C   0  0  0  0  0  0
  -26.4566  -31.6547   25.0697 C   0  0  0  0  0  0
  -25.3820  -31.3668   26.1441 C   0  0  0  0  0  0
  -27.0375  -30.2966   24.6070 C   0  0  0  0  0  0
  -27.6144  -32.4194   25.7531 C   0  0  0  0  0  0
  -27.5566  -37.1825   24.8472 C   0  0  0  0  0  0
  -21.4142  -29.3044   22.3761 N   0  0  0  0  0  0
  -26.4279  -37.3802   23.9425 N   0  0  0  0  0  0
  -24.6794  -31.0761   22.1027 N   0  0  0  0  0  0
  -23.4193  -28.8167   23.2951 O   0  0  0  0  0  0
  -28.3214  -26.4963   20.1839 O   0  0  0  0  0  0
  -26.5501  -34.8954   22.4580 O   0  0  0  0  0  0
  -23.5473  -32.1492   23.7462 O   0  0  0  0  0  0
  -30.5972  -18.9720   20.1171 C   0  0  0  0  0  0
  -29.9864  -19.0703   22.4541 C   0  0  0  0  0  0
  -30.6511  -17.5592   20.1789 C   0  0  0  0  0  0
  -30.0460  -17.6498   22.5175 C   0  0  0  0  0  0
  -30.2330  -19.7620   21.2374 C   0  0  0  0  0  0
  -30.3541  -16.8645   21.3769 C   0  0  0  0  0  0
  -28.8968  -21.9207   22.0250 C   0  0  0  0  0  0
  -30.8993  -22.3099   20.5407 C   0  0  0  0  0  0
  -28.3811  -23.3296   21.5786 C   0  0  0  0  0  0
  -30.2237  -23.5860   19.8983 C   0  0  0  0  0  0
  -29.8587  -21.2555   21.0074 C   0  0  1  0  0  0
  -28.6672  -23.7208   20.0891 C   0  0  1  0  0  0
  -27.7916  -22.7458   19.1769 C   0  0  0  0  0  0
  -28.0376  -25.1319   19.7244 C   0  0  0  0  0  0
  -30.2384  -15.4241   21.4453 N   0  0  0  0  0  0
  -28.3948  -22.2800   17.9032 N   0  3  0  0  0  0
  -31.4667  -12.3740   19.1642 H   0  0  0  0  0  0
  -30.2679  -11.3146   19.8475 H   0  0  0  0  0  0
  -29.7651  -11.8064   17.4370 H   0  0  0  0  0  0
  -29.6837  -13.5183   17.7918 H   0  0  0  0  0  0
  -27.8710  -11.3084   18.8332 H   0  0  0  0  0  0
  -27.3796  -12.6035   17.7784 H   0  0  0  0  0  0
  -27.6986  -14.2617   19.5437 H   0  0  0  0  0  0
  -28.6698  -12.0205   21.3820 H   0  0  0  0  0  0
  -28.4431  -13.6792   21.8429 H   0  0  0  0  0  0
  -25.2780   -9.5672   22.4741 H   0  0  0  0  0  0
  -23.9997   -7.4646   22.7485 H   0  0  0  0  0  0
  -21.0840   -8.8762   19.8979 H   0  0  0  0  0  0
  -22.3715  -10.9637   19.6126 H   0  0  0  0  0  0
  -21.1999   -7.6132   23.9736 H   0  0  0  0  0  0
  -21.1494   -6.0498   25.9089 H   0  0  0  0  0  0
  -22.0598   -2.7598   23.2857 H   0  0  0  0  0  0
  -22.4076  -11.9924   22.4783 H   0  0  0  0  0  0
  -21.1132  -13.1321   22.2479 H   0  0  0  0  0  0
  -24.6517  -15.8330   20.4990 H   0  0  0  0  0  0
  -26.2960  -15.6439   20.1546 H   0  0  0  0  0  0
  -26.7157  -32.5560   23.1095 H   0  0  0  0  0  0
  -25.0382  -33.9775   25.0636 H   0  0  0  0  0  0
  -22.6996  -31.3188   21.4217 H   0  0  0  0  0  0
  -23.3786  -35.9590   23.3283 H   0  0  0  0  0  0
  -24.3557  -36.8881   22.2004 H   0  0  0  0  0  0
  -23.7219  -37.6509   23.6604 H   0  0  0  0  0  0
  -26.0619  -31.5901   20.6067 H   0  0  0  0  0  0
  -26.8361  -30.8716   21.9860 H   0  0  0  0  0  0
  -28.1086  -29.0268   21.1899 H   0  0  0  0  0  0
  -25.9246  -26.0606   18.8835 H   0  0  0  0  0  0
  -23.9542  -27.3662   18.9806 H   0  0  0  0  0  0
  -23.7458  -30.6502   19.4228 H   0  0  0  0  0  0
  -22.7480  -29.2855   19.8430 H   0  0  0  0  0  0
  -25.1295  -36.1925   25.0836 H   0  0  0  0  0  0
  -20.9942  -28.3176   24.1428 H   0  0  0  0  0  0
  -20.5668  -26.2194   23.3598 H   0  0  0  0  0  0
  -21.6651  -26.7384   22.1210 H   0  0  0  0  0  0
  -19.6922  -25.6264   21.1222 H   0  0  0  0  0  0
  -19.6738  -27.3161   20.6742 H   0  0  0  0  0  0
  -17.4195  -26.6608   21.3990 H   0  0  0  0  0  0
  -18.0335  -26.0011   22.8984 H   0  0  0  0  0  0
  -19.7937  -30.7243   24.2247 H   0  0  0  0  0  0
  -17.5010  -31.6266   24.5100 H   0  0  0  0  0  0
  -15.5351  -30.2953   23.7704 H   0  0  0  0  0  0
  -15.8625  -28.0838   22.7013 H   0  0  0  0  0  0
  -24.6115  -30.6821   25.7844 H   0  0  0  0  0  0
  -24.8899  -32.2817   26.4754 H   0  0  0  0  0  0
  -25.8253  -30.9022   27.0257 H   0  0  0  0  0  0
  -26.2921  -29.6784   24.1034 H   0  0  0  0  0  0
  -27.4010  -29.7172   25.4569 H   0  0  0  0  0  0
  -27.8846  -30.4277   23.9326 H   0  0  0  0  0  0
  -27.2784  -33.3524   26.2093 H   0  0  0  0  0  0
  -28.4082  -32.6617   25.0433 H   0  0  0  0  0  0
  -28.0646  -31.8230   26.5495 H   0  0  0  0  0  0
  -28.2610  -38.0108   24.7537 H   0  0  0  0  0  0
  -28.1051  -36.2640   24.6306 H   0  0  0  0  0  0
  -27.2269  -37.1471   25.8873 H   0  0  0  0  0  0
  -20.9221  -29.8874   21.7163 H   0  0  0  0  0  0
  -26.0181  -38.2878   24.1457 H   0  0  0  0  0  0
  -30.7445  -19.4458   19.1585 H   0  0  0  0  0  0
  -29.6581  -19.6062   23.3365 H   0  0  0  0  0  0
  -30.8467  -17.0211   19.2610 H   0  0  0  0  0  0
  -29.7979  -17.1547   23.4480 H   0  0  0  0  0  0
  -28.0379  -21.2702   22.1968 H   0  0  0  0  0  0
  -29.3910  -22.0193   22.9955 H   0  0  0  0  0  0
  -31.5217  -22.6253   21.3843 H   0  0  0  0  0  0
  -31.5856  -21.8747   19.8131 H   0  0  0  0  0  0
  -28.8194  -24.0786   22.2434 H   0  0  0  0  0  0
  -27.3085  -23.3690   21.7705 H   0  0  0  0  0  0
  -30.4854  -23.6612   18.8440 H   0  0  0  0  0  0
  -30.7100  -24.4610   20.3344 H   0  0  0  0  0  0
  -29.3087  -21.0663   20.1000 H   0  0  0  0  0  0
  -26.8223  -23.1866   18.9353 H   0  0  0  0  0  0
  -27.4710  -21.8617   19.7235 H   0  0  0  0  0  0
  -27.0512  -24.9279   20.1336 H   0  0  0  0  0  0
  -27.9498  -25.2015   18.6386 H   0  0  0  0  0  0
  -29.5732  -15.0703   22.1163 H   0  0  0  0  0  0
  -28.5248  -23.0181   17.2353 H   0  0  0  0  0  0
  -27.7677  -21.6164   17.4762 H   0  0  0  0  0  0
  -29.2751  -21.8180   18.0455 H   0  0  0  0  0  0
  1 25  1  0  0  0
  1 30  2  0  0  0
  1 85  1  0  0  0
  2  3  1  0  0  0
  2 25  1  0  0  0
  2 87  1  0  0  0
  2 88  1  0  0  0
  3  4  1  0  0  0
  3 89  1  0  0  0
  3 90  1  0  0  0
  4  5  1  0  0  0
  4 91  1  0  0  0
  4 92  1  0  0  0
  5  6  1  0  0  0
  5 26  1  0  0  0
  5 93  1  0  0  0
  6 25  1  0  0  0
  6 94  1  0  0  0
  6 95  1  0  0  0
  7  8  2  0  0  0
  7 26  1  0  0  0
  7 29  1  0  0  0
  8  9  1  0  0  0
  8 22  1  0  0  0
  9 10  1  0  0  0
  9 27  2  0  0  0
 10 11  2  0  0  0
 10 15  1  0  0  0
 11 12  1  0  0  0
 11 96  1  0  0  0
 12 13  2  0  0  0
 12 97  1  0  0  0
 13 14  1  0  0  0
 13 31  1  0  0  0
 14 15  2  0  0  0
 14 98  1  0  0  0
 15 99  1  0  0  0
 16 17  2  0  0  0
 16 21  1  0  0  0
 16 31  1  0  0  0
 17 18  1  0  0  0
 17100  1  0  0  0
 18 19  2  0  0  0
 18101  1  0  0  0
 19 20  1  0  0  0
 19 24  1  0  0  0
 20 21  2  0  0  0
 20102  1  0  0  0
 21 23  1  0  0  0
 22 28  1  0  0  0
 22 32  2  0  0  0
 26 27  1  0  0  0
 28103  1  0  0  0
 28104  1  0  0  0
 29105  1  0  0  0
 29106  1  0  0  0
 33 34  1  0  0  0
 33 66  1  0  0  0
 33 70  2  0  0  0
 34 36  1  0  0  0
 34 59  1  0  0  0
 34107  1  0  0  0
 35 44  2  0  0  0
 35 45  1  0  0  0
 35 68  1  0  0  0
 36 56  1  0  0  0
 36108  1  0  0  0
 37 39  1  0  0  0
 37 47  1  0  0  0
 37 66  1  0  0  0
 37109  1  0  0  0
 38 43  2  0  0  0
 38 46  1  0  0  0
 38 47  1  0  0  0
 39 64  1  0  0  0
 39 67  2  0  0  0
 40 52  1  0  0  0
 40 53  2  0  0  0
 40 58  1  0  0  0
 41110  1  0  0  0
 41111  1  0  0  0
 41112  1  0  0  0
 41 48  1  0  0  0
 42 43  1  0  0  0
 42 66  1  0  0  0
 42113  1  0  0  0
 42114  1  0  0  0
 43 44  1  0  0  0
 44115  1  0  0  0
 45 46  2  0  0  0
 45116  1  0  0  0
 46117  1  0  0  0
 47118  1  0  0  0
 47119  1  0  0  0
 48 56  1  0  0  0
 48 65  1  0  0  0
 48120  1  0  0  0
 49 50  1  0  0  0
 49 53  1  0  0  0
 49 64  1  0  0  0
 49121  1  0  0  0
 50 51  1  0  0  0
 50122  1  0  0  0
 50123  1  0  0  0
 51 52  1  0  0  0
 51124  1  0  0  0
 51125  1  0  0  0
 52126  1  0  0  0
 52127  1  0  0  0
 53 54  1  0  0  0
 54 55  2  0  0  0
 54128  1  0  0  0
 55 57  1  0  0  0
 55129  1  0  0  0
 56 69  2  0  0  0
 57 58  2  0  0  0
 57130  1  0  0  0
 58131  1  0  0  0
 59 60  1  0  0  0
 59 61  1  0  0  0
 59 62  1  0  0  0
 60132  1  0  0  0
 60133  1  0  0  0
 60134  1  0  0  0
 61135  1  0  0  0
 61136  1  0  0  0
 61137  1  0  0  0
 62138  1  0  0  0
 62139  1  0  0  0
 62140  1  0  0  0
 63 65  1  0  0  0
 63141  1  0  0  0
 63142  1  0  0  0
 63143  1  0  0  0
 64144  1  0  0  0
 65145  1  0  0  0
 68 84  1  0  0  0
 71 73  2  0  0  0
 71 75  1  0  0  0
 71146  1  0  0  0
 72 74  1  0  0  0
 72 75  2  0  0  0
 72147  1  0  0  0
 73 76  1  0  0  0
 73148  1  0  0  0
 74 76  2  0  0  0
 74149  1  0  0  0
 75 81  1  0  0  0
 76 85  1  0  0  0
 77 79  1  0  0  0
 77 81  1  0  0  0
 77150  1  0  0  0
 77151  1  0  0  0
 78 80  1  0  0  0
 78 81  1  0  0  0
 78152  1  0  0  0
 78153  1  0  0  0
 79 82  1  0  0  0
 79154  1  0  0  0
 79155  1  0  0  0
 80 82  1  0  0  0
 80156  1  0  0  0
 80157  1  0  0  0
 81158  1  0  0  0
 82 83  1  0  0  0
 82 84  1  0  0  0
 83 86  1  0  0  0
 83159  1  0  0  0
 83160  1  0  0  0
 84161  1  0  0  0
 84162  1  0  0  0
 85163  1  0  0  0
 86164  1  0  0  0
 86165  1  0  0  0
 86166  1  0  0  0
M  CHG  1  86   1
M  ISO  4   1 100  68 101  84 101  85 100
M  END
> <chiral flag>
0

> <version>
0

> <s_m_source_file>
/data/baiqing/PycharmProjects/Reinvent-master-3.2/result/LINK_invent/BTK/process_docking_weight1_custom_product_contain_oxygen_bond_distance_aromatic_linkinvent_7_9_3/rearranged_h_0146.sdf

> <i_m_source_file_index>
59

> <r_mmod_Potential_Energy-OPLS-2005>
-6.87171602249146

> <r_mmod_Stretch_Energy-OPLS-2005>
72.6695404052734

> <r_mmod_Bend_Energy-OPLS-2005>
201.488433837891

> <r_mmod_Torsional_Energy-OPLS-2005>
301.198364257812

> <r_mmod_Improper_Torsional_Energy-OPLS-2005>
4.42313575744629

> <r_mmod_Van_der_Waal_Energy-OPLS-2005>
194.3271484375

> <r_mmod_Electrostatic_Energy-OPLS-2005>
-304.48291015625

> <r_mmod_Solvation_Energy-OPLS-2005>
-503.42822265625

> <b_mmod_Minimization_Converged-OPLS-2005>
0

> <r_mmod_RMS_Derivative-OPLS-2005>
6.72100162506104

$$$$
59
                    3D
 Structure written by MMmdl.
160169  0  0  1  0            999 V2000
  -30.6096  -14.7083   20.5036 C   0  0  0  0  0  0
  -30.4503  -12.4413   19.4601 C   0  0  0  0  0  0
  -29.5156  -12.5003   18.2315 C   0  0  0  0  0  0
  -28.0436  -12.3194   18.6495 C   0  0  0  0  0  0
  -27.6508  -13.2194   19.8525 C   0  0  2  0  0  0
  -28.6954  -13.1095   20.9842 C   0  0  0  0  0  0
  -25.2568  -13.8165   20.5678 C   0  0  0  0  0  0
  -24.1829  -13.0437   20.9209 C   0  0  0  0  0  0
  -24.6388  -11.6907   20.8732 C   0  0  0  0  0  0
  -23.9046  -10.4300   21.0394 C   0  0  0  0  0  0
  -24.3593   -9.4236   21.9189 C   0  0  0  0  0  0
  -23.6270   -8.2269   22.0760 C   0  0  0  0  0  0
  -22.4267   -8.0285   21.3540 C   0  0  0  0  0  0
  -21.9897   -9.0240   20.4623 C   0  0  0  0  0  0
  -22.7207  -10.2128   20.3037 C   0  0  0  0  0  0
  -21.6845   -6.0748   22.5267 C   0  0  0  0  0  0
  -21.3974   -6.5629   23.8192 C   0  0  0  0  0  0
  -21.3659   -5.6772   24.9145 C   0  0  0  0  0  0
  -21.6054   -4.3050   24.7184 C   0  0  0  0  0  0
  -21.8818   -3.8135   23.4310 C   0  0  0  0  0  0
  -21.9184   -4.6972   22.3393 C   0  0  0  0  0  0
  -22.7849  -13.5248   21.1850 C   0  0  0  0  0  0
  -22.1665   -4.2168   21.0978 F   0  0  0  0  0  0
  -21.5653   -3.4541   25.7697 F   0  0  0  0  0  0
  -30.0051  -13.4765   20.4209 N   0  0  0  0  0  0
  -26.2992  -12.9350   20.3273 N   0  0  0  0  0  0
  -25.9320  -11.6503   20.5732 N   0  0  0  0  0  0
  -22.0421  -12.8246   22.0367 N   0  0  0  0  0  0
  -25.4258  -15.1911   20.4071 N   0  0  0  0  0  0
  -31.7771  -14.8565   20.1292 O   0  0  0  0  0  0
  -21.6623   -6.8889   21.4240 O   0  0  0  0  0  0
  -22.3549  -14.5551   20.6698 O   0  0  0  0  0  0
  -24.6316  -31.8574   23.2001 C   0  0  0  0  0  0
  -25.9148  -32.4766   23.8318 C   0  0  1  0  0  0
  -27.2148  -27.2657   20.1419 C   0  0  0  0  0  0
  -25.5947  -33.8556   24.2257 N   0  0  0  0  0  0
  -23.4224  -30.4809   21.5464 C   0  0  2  0  0  0
  -24.8736  -28.9273   20.1278 C   0  0  0  0  0  0
  -22.7500  -29.4582   22.4935 C   0  0  0  0  0  0
  -18.0272  -28.1370   22.8463 C   0  0  0  0  0  0
  -24.1479  -36.7252   23.2647 C   0  0  0  0  0  0
  -25.9715  -30.7657   21.3889 C   0  0  0  0  0  0
  -26.0414  -29.3841   20.7515 C   0  0  0  0  0  0
  -27.2152  -28.5607   20.7614 C   0  0  0  0  0  0
  -26.0429  -26.9120   19.4461 C   0  0  0  0  0  0
  -24.8776  -27.6944   19.4667 C   0  0  0  0  0  0
  -23.6433  -29.8113   20.1655 C   0  0  0  0  0  0
  -25.4110  -36.3052   24.0327 C   0  0  1  0  0  0
  -20.5885  -28.3641   23.1311 C   0  0  2  0  0  0
  -20.6765  -26.9351   22.5433 C   0  0  0  0  0  0
  -19.5766  -26.6357   21.5213 C   0  0  0  0  0  0
  -18.1918  -26.7931   22.1556 C   0  0  0  0  0  0
  -19.1533  -28.8820   23.2890 C   0  0  0  0  0  0
  -18.9447  -30.1422   23.8910 C   0  0  0  0  0  0
  -17.6447  -30.6559   24.0566 C   0  0  0  0  0  0
  -25.9036  -34.9434   23.5078 C   0  0  0  0  0  0
  -16.5341  -29.9046   23.6347 C   0  0  0  0  0  0
  -16.7256  -28.6477   23.0337 C   0  0  0  0  0  0
  -26.4529  -31.6568   25.0674 C   0  0  0  0  0  0
  -25.3714  -31.3691   26.1334 C   0  0  0  0  0  0
  -27.0361  -30.2977   24.6130 C   0  0  0  0  0  0
  -27.6076  -32.4319   25.7432 C   0  0  0  0  0  0
  -27.5549  -37.1794   24.8470 C   0  0  0  0  0  0
  -21.4196  -29.3011   22.3729 N   0  0  0  0  0  0
  -26.4268  -37.3751   23.9403 N   0  0  0  0  0  0
  -24.6925  -31.0548   22.0995 N   0  0  0  0  0  0
  -23.4235  -28.8065   23.2963 O   0  0  0  0  0  0
  -28.3181  -26.3881   20.0651 O   0  0  0  0  0  0
  -26.5582  -34.8904   22.4619 O   0  0  0  0  0  0
  -23.5461  -32.1366   23.7320 O   0  0  0  0  0  0
  -30.7753  -19.4284   20.5533 C   0  0  0  0  0  0
  -31.0271  -17.9924   20.4850 C   0  0  0  0  0  0
  -29.4924  -19.7929   20.9185 C   0  0  0  0  0  0
  -29.9519  -17.1700   20.7911 C   0  0  0  0  0  0
  -28.3889  -23.0629   18.2384 C   0  0  0  0  0  0
  -27.2867  -23.3689   19.2448 C   0  0  0  0  0  0
  -29.4512  -22.3033   19.0578 C   0  0  0  0  0  0
  -28.0503  -23.6039   20.5562 C   0  0  2  0  0  0
  -28.9564  -21.4095   22.8044 C   0  0  0  0  0  0
  -28.4397  -25.1575   20.9200 C   0  0  0  0  0  0
  -28.8338  -21.1900   21.2718 C   0  0  1  0  0  0
  -29.8040  -15.7771   20.8553 N   0  0  0  0  0  0
  -29.1450  -22.5062   20.5109 N   0  3  1  0  0  0
  -28.5952  -18.2684   21.1609 S   0  0  0  0  0  0
  -31.4889  -12.5787   19.1559 H   0  0  0  0  0  0
  -30.4133  -11.4538   19.9201 H   0  0  0  0  0  0
  -29.7960  -11.7302   17.5127 H   0  0  0  0  0  0
  -29.6421  -13.4574   17.7221 H   0  0  0  0  0  0
  -27.9075  -11.2689   18.9175 H   0  0  0  0  0  0
  -27.3793  -12.4990   17.8003 H   0  0  0  0  0  0
  -27.6576  -14.2453   19.4825 H   0  0  0  0  0  0
  -28.7284  -12.0905   21.3695 H   0  0  0  0  0  0
  -28.4306  -13.7436   21.8316 H   0  0  0  0  0  0
  -25.2730   -9.5745   22.4781 H   0  0  0  0  0  0
  -23.9959   -7.4693   22.7508 H   0  0  0  0  0  0
  -21.0835   -8.8744   19.8923 H   0  0  0  0  0  0
  -22.3658  -10.9666   19.6156 H   0  0  0  0  0  0
  -21.1909   -7.6115   23.9701 H   0  0  0  0  0  0
  -21.1498   -6.0489   25.9050 H   0  0  0  0  0  0
  -22.0591   -2.7596   23.2786 H   0  0  0  0  0  0
  -22.3930  -11.9872   22.4775 H   0  0  0  0  0  0
  -21.1027  -13.1304   22.2468 H   0  0  0  0  0  0
  -24.6492  -15.8341   20.4968 H   0  0  0  0  0  0
  -26.2535  -15.6280   20.0233 H   0  0  0  0  0  0
  -26.7190  -32.5440   23.1027 H   0  0  0  0  0  0
  -25.0244  -33.9731   25.0490 H   0  0  0  0  0  0
  -22.7128  -31.2966   21.3960 H   0  0  0  0  0  0
  -23.3790  -35.9543   23.3279 H   0  0  0  0  0  0
  -24.3548  -36.8879   22.2058 H   0  0  0  0  0  0
  -23.7187  -37.6416   23.6704 H   0  0  0  0  0  0
  -26.1110  -31.5153   20.6087 H   0  0  0  0  0  0
  -26.8550  -30.8256   22.0135 H   0  0  0  0  0  0
  -28.1110  -28.9068   21.2552 H   0  0  0  0  0  0
  -26.0137  -26.0404   18.8250 H   0  0  0  0  0  0
  -23.9941  -27.3583   18.9420 H   0  0  0  0  0  0
  -23.7648  -30.5817   19.4045 H   0  0  0  0  0  0
  -22.7682  -29.2352   19.8606 H   0  0  0  0  0  0
  -25.1320  -36.1887   25.0830 H   0  0  0  0  0  0
  -20.9950  -28.3187   24.1448 H   0  0  0  0  0  0
  -20.5628  -26.2216   23.3614 H   0  0  0  0  0  0
  -21.6623  -26.7350   22.1219 H   0  0  0  0  0  0
  -19.6916  -25.6281   21.1199 H   0  0  0  0  0  0
  -19.6784  -27.3196   20.6781 H   0  0  0  0  0  0
  -17.4217  -26.6766   21.3902 H   0  0  0  0  0  0
  -18.0218  -26.0024   22.8882 H   0  0  0  0  0  0
  -19.7934  -30.7240   24.2270 H   0  0  0  0  0  0
  -17.4983  -31.6241   24.5156 H   0  0  0  0  0  0
  -15.5331  -30.2935   23.7694 H   0  0  0  0  0  0
  -15.8643  -28.0804   22.7062 H   0  0  0  0  0  0
  -24.6065  -30.6835   25.7649 H   0  0  0  0  0  0
  -24.8685  -32.2823   26.4545 H   0  0  0  0  0  0
  -25.7963  -30.9064   27.0237 H   0  0  0  0  0  0
  -26.2892  -29.6700   24.1228 H   0  0  0  0  0  0
  -27.4159  -29.7254   25.4603 H   0  0  0  0  0  0
  -27.8738  -30.4265   23.9260 H   0  0  0  0  0  0
  -27.2765  -33.3793   26.1717 H   0  0  0  0  0  0
  -28.4028  -32.6553   25.0299 H   0  0  0  0  0  0
  -28.0559  -31.8588   26.5563 H   0  0  0  0  0  0
  -28.2602  -38.0045   24.7413 H   0  0  0  0  0  0
  -28.1012  -36.2553   24.6460 H   0  0  0  0  0  0
  -27.2246  -37.1618   25.8869 H   0  0  0  0  0  0
  -20.9354  -29.8804   21.7006 H   0  0  0  0  0  0
  -26.0160  -38.2846   24.1354 H   0  0  0  0  0  0
  -31.5685  -20.1379   20.3524 H   0  0  0  0  0  0
  -32.0168  -17.6319   20.2307 H   0  0  0  0  0  0
  -28.7961  -23.9937   17.8423 H   0  0  0  0  0  0
  -28.0251  -22.4898   17.3813 H   0  0  0  0  0  0
  -26.6605  -22.4804   19.3534 H   0  0  0  0  0  0
  -26.6048  -24.1471   18.9349 H   0  0  0  0  0  0
  -30.4510  -22.6759   18.8208 H   0  0  0  0  0  0
  -29.4475  -21.2543   18.7559 H   0  0  0  0  0  0
  -27.3658  -23.3306   21.3620 H   0  0  0  0  0  0
  -28.4875  -20.5956   23.3601 H   0  0  0  0  0  0
  -28.4798  -22.3227   23.1570 H   0  0  0  0  0  0
  -30.0013  -21.4458   23.1256 H   0  0  0  0  0  0
  -29.4897  -25.1428   21.2086 H   0  0  0  0  0  0
  -27.9438  -25.4039   21.8612 H   0  0  0  0  0  0
  -27.7674  -21.0366   21.0752 H   0  0  0  0  0  0
  -28.8850  -15.4741   21.1463 H   0  0  0  0  0  0
  -29.9927  -22.8617   20.9345 H   0  0  0  0  0  0
  1 25  1  0  0  0
  1 30  2  0  0  0
  1 82  1  0  0  0
  2  3  1  0  0  0
  2 25  1  0  0  0
  2 85  1  0  0  0
  2 86  1  0  0  0
  3  4  1  0  0  0
  3 87  1  0  0  0
  3 88  1  0  0  0
  4  5  1  0  0  0
  4 89  1  0  0  0
  4 90  1  0  0  0
  5  6  1  0  0  0
  5 26  1  0  0  0
  5 91  1  0  0  0
  6 25  1  0  0  0
  6 92  1  0  0  0
  6 93  1  0  0  0
  7  8  2  0  0  0
  7 26  1  0  0  0
  7 29  1  0  0  0
  8  9  1  0  0  0
  8 22  1  0  0  0
  9 10  1  0  0  0
  9 27  2  0  0  0
 10 11  2  0  0  0
 10 15  1  0  0  0
 11 12  1  0  0  0
 11 94  1  0  0  0
 12 13  2  0  0  0
 12 95  1  0  0  0
 13 14  1  0  0  0
 13 31  1  0  0  0
 14 15  2  0  0  0
 14 96  1  0  0  0
 15 97  1  0  0  0
 16 17  2  0  0  0
 16 21  1  0  0  0
 16 31  1  0  0  0
 17 18  1  0  0  0
 17 98  1  0  0  0
 18 19  2  0  0  0
 18 99  1  0  0  0
 19 20  1  0  0  0
 19 24  1  0  0  0
 20 21  2  0  0  0
 20100  1  0  0  0
 21 23  1  0  0  0
 22 28  1  0  0  0
 22 32  2  0  0  0
 26 27  1  0  0  0
 28101  1  0  0  0
 28102  1  0  0  0
 29103  1  0  0  0
 29104  1  0  0  0
 33 34  1  0  0  0
 33 66  1  0  0  0
 33 70  2  0  0  0
 34 36  1  0  0  0
 34 59  1  0  0  0
 34105  1  0  0  0
 35 44  2  0  0  0
 35 45  1  0  0  0
 35 68  1  0  0  0
 36 56  1  0  0  0
 36106  1  0  0  0
 37 39  1  0  0  0
 37 47  1  0  0  0
 37 66  1  0  0  0
 37107  1  0  0  0
 38 43  2  0  0  0
 38 46  1  0  0  0
 38 47  1  0  0  0
 39 64  1  0  0  0
 39 67  2  0  0  0
 40 52  1  0  0  0
 40 53  2  0  0  0
 40 58  1  0  0  0
 41108  1  0  0  0
 41109  1  0  0  0
 41110  1  0  0  0
 41 48  1  0  0  0
 42 43  1  0  0  0
 42 66  1  0  0  0
 42111  1  0  0  0
 42112  1  0  0  0
 43 44  1  0  0  0
 44113  1  0  0  0
 45 46  2  0  0  0
 45114  1  0  0  0
 46115  1  0  0  0
 47116  1  0  0  0
 47117  1  0  0  0
 48 56  1  0  0  0
 48 65  1  0  0  0
 48118  1  0  0  0
 49 50  1  0  0  0
 49 53  1  0  0  0
 49 64  1  0  0  0
 49119  1  0  0  0
 50 51  1  0  0  0
 50120  1  0  0  0
 50121  1  0  0  0
 51 52  1  0  0  0
 51122  1  0  0  0
 51123  1  0  0  0
 52124  1  0  0  0
 52125  1  0  0  0
 53 54  1  0  0  0
 54 55  2  0  0  0
 54126  1  0  0  0
 55 57  1  0  0  0
 55127  1  0  0  0
 56 69  2  0  0  0
 57 58  2  0  0  0
 57128  1  0  0  0
 58129  1  0  0  0
 59 60  1  0  0  0
 59 61  1  0  0  0
 59 62  1  0  0  0
 60130  1  0  0  0
 60131  1  0  0  0
 60132  1  0  0  0
 61133  1  0  0  0
 61134  1  0  0  0
 61135  1  0  0  0
 62136  1  0  0  0
 62137  1  0  0  0
 62138  1  0  0  0
 63 65  1  0  0  0
 63139  1  0  0  0
 63140  1  0  0  0
 63141  1  0  0  0
 64142  1  0  0  0
 65143  1  0  0  0
 68 80  1  0  0  0
 71 72  1  0  0  0
 71 73  2  0  0  0
 71144  1  0  0  0
 72 74  2  0  0  0
 72145  1  0  0  0
 73 81  1  0  0  0
 73 84  1  0  0  0
 74 82  1  0  0  0
 74 84  1  0  0  0
 75 76  1  0  0  0
 75 77  1  0  0  0
 75146  1  0  0  0
 75147  1  0  0  0
 76 78  1  0  0  0
 76148  1  0  0  0
 76149  1  0  0  0
 77150  1  0  0  0
 77151  1  0  0  0
 77 83  1  0  0  0
 78 80  1  0  0  0
 78 83  1  0  0  0
 78152  1  0  0  0
 79153  1  0  0  0
 79154  1  0  0  0
 79155  1  0  0  0
 79 81  1  0  0  0
 80156  1  0  0  0
 80157  1  0  0  0
 81 83  1  0  0  0
 81158  1  0  0  0
 82159  1  0  0  0
 83160  1  0  0  0
M  CHG  1  83   1
M  ISO  4   1 100  68 101  80 101  82 100
M  END
> <chiral flag>
0

> <version>
0

> <s_m_source_file>
/data/baiqing/PycharmProjects/Reinvent-master-3.2/result/LINK_invent/BTK/process_docking_weight1_custom_product_contain_oxygen_bond_distance_aromatic_linkinvent_7_9_3/rearranged_h_0146.sdf

> <i_m_source_file_index>
60

> <r_mmod_Potential_Energy-OPLS-2005>
184.933029174805

> <r_mmod_Stretch_Energy-OPLS-2005>
118.69393157959

> <r_mmod_Bend_Energy-OPLS-2005>
233.730224609375

> <r_mmod_Torsional_Energy-OPLS-2005>
313.772552490234

> <r_mmod_Improper_Torsional_Energy-OPLS-2005>
4.84098529815674

> <r_mmod_Van_der_Waal_Energy-OPLS-2005>
110.782989501953

> <r_mmod_Electrostatic_Energy-OPLS-2005>
-248.247131347656

> <r_mmod_Solvation_Energy-OPLS-2005>
-420.197174072266

> <b_mmod_Minimization_Converged-OPLS-2005>
0

> <r_mmod_RMS_Derivative-OPLS-2005>
5.79813766479492

$$$$
60
                    3D
 Structure written by MMmdl.
155164  0  0  1  0            999 V2000
  -30.6770  -14.5955   20.4520 C   0  0  0  0  0  0
  -30.4226  -12.3687   19.4358 C   0  0  0  0  0  0
  -29.4868  -12.4633   18.2137 C   0  0  0  0  0  0
  -28.0142  -12.3216   18.6432 C   0  0  0  0  0  0
  -27.6465  -13.2180   19.8539 C   0  0  2  0  0  0
  -28.6978  -13.1176   20.9817 C   0  0  0  0  0  0
  -25.2550  -13.8205   20.5678 C   0  0  0  0  0  0
  -24.1830  -13.0464   20.9222 C   0  0  0  0  0  0
  -24.6399  -11.6932   20.8788 C   0  0  0  0  0  0
  -23.9073  -10.4308   21.0437 C   0  0  0  0  0  0
  -24.3611   -9.4224   21.9217 C   0  0  0  0  0  0
  -23.6299   -8.2254   22.0769 C   0  0  0  0  0  0
  -22.4290   -8.0283   21.3542 C   0  0  0  0  0  0
  -21.9920   -9.0275   20.4660 C   0  0  0  0  0  0
  -22.7239  -10.2161   20.3091 C   0  0  0  0  0  0
  -21.6856   -6.0748   22.5280 C   0  0  0  0  0  0
  -21.4010   -6.5647   23.8212 C   0  0  0  0  0  0
  -21.3652   -5.6794   24.9168 C   0  0  0  0  0  0
  -21.6048   -4.3059   24.7216 C   0  0  0  0  0  0
  -21.8829   -3.8158   23.4332 C   0  0  0  0  0  0
  -21.9200   -4.6979   22.3394 C   0  0  0  0  0  0
  -22.7844  -13.5256   21.1851 C   0  0  0  0  0  0
  -22.1675   -4.2153   21.0974 F   0  0  0  0  0  0
  -21.5623   -3.4546   25.7732 F   0  0  0  0  0  0
  -30.0048  -13.4129   20.3846 N   0  0  0  0  0  0
  -26.2968  -12.9374   20.3338 N   0  0  0  0  0  0
  -25.9317  -11.6536   20.5818 N   0  0  0  0  0  0
  -22.0474  -12.8252   22.0393 N   0  0  0  0  0  0
  -25.4283  -15.1907   20.3965 N   0  0  0  0  0  0
  -31.8779  -14.6648   20.1943 O   0  0  0  0  0  0
  -21.6654   -6.8869   21.4229 O   0  0  0  0  0  0
  -22.3528  -14.5568   20.6697 O   0  0  0  0  0  0
  -24.6210  -31.8649   23.2101 C   0  0  0  0  0  0
  -25.9077  -32.4823   23.8396 C   0  0  1  0  0  0
  -27.2192  -27.3607   20.0783 C   0  0  0  0  0  0
  -25.5936  -33.8620   24.2331 N   0  0  0  0  0  0
  -23.4101  -30.4945   21.5518 C   0  0  2  0  0  0
  -24.8532  -28.9511   20.1189 C   0  0  0  0  0  0
  -22.7431  -29.4673   22.4960 C   0  0  0  0  0  0
  -18.0310  -28.1315   22.8498 C   0  0  0  0  0  0
  -24.1486  -36.7319   23.2625 C   0  0  0  0  0  0
  -25.9487  -30.8071   21.3748 C   0  0  0  0  0  0
  -26.0215  -29.4353   20.7128 C   0  0  0  0  0  0
  -27.2047  -28.6464   20.6929 C   0  0  0  0  0  0
  -26.0081  -26.9036   19.5046 C   0  0  0  0  0  0
  -24.8407  -27.6856   19.5220 C   0  0  0  0  0  0
  -23.6254  -29.8359   20.1640 C   0  0  0  0  0  0
  -25.4105  -36.3093   24.0305 C   0  0  1  0  0  0
  -20.5952  -28.3635   23.1323 C   0  0  2  0  0  0
  -20.6818  -26.9384   22.5392 C   0  0  0  0  0  0
  -19.5845  -26.6710   21.5036 C   0  0  0  0  0  0
  -18.2050  -26.7927   22.1546 C   0  0  0  0  0  0
  -19.1575  -28.8790   23.2929 C   0  0  0  0  0  0
  -18.9421  -30.1408   23.8864 C   0  0  0  0  0  0
  -17.6406  -30.6513   24.0429 C   0  0  0  0  0  0
  -25.9028  -34.9480   23.5100 C   0  0  0  0  0  0
  -16.5328  -29.8935   23.6295 C   0  0  0  0  0  0
  -16.7271  -28.6339   23.0405 C   0  0  0  0  0  0
  -26.4503  -31.6611   25.0748 C   0  0  0  0  0  0
  -25.3780  -31.3732   26.1511 C   0  0  0  0  0  0
  -27.0331  -30.3031   24.6179 C   0  0  0  0  0  0
  -27.6064  -32.4331   25.7551 C   0  0  0  0  0  0
  -27.5583  -37.1813   24.8456 C   0  0  0  0  0  0
  -21.4173  -29.2991   22.3648 N   0  0  0  0  0  0
  -26.4297  -37.3780   23.9387 N   0  0  0  0  0  0
  -24.6781  -31.0708   22.1031 N   0  0  0  0  0  0
  -23.4174  -28.8225   23.3017 O   0  0  0  0  0  0
  -28.3822  -26.5887   20.0799 O   0  0  0  0  0  0
  -26.5589  -34.8919   22.4658 O   0  0  0  0  0  0
  -23.5386  -32.1420   23.7468 O   0  0  0  0  0  0
  -29.8246  -19.6159   22.5855 C   0  0  0  0  0  0
  -29.5213  -20.6675   21.6763 C   0  0  0  0  0  0
  -28.7971  -19.0942   19.8792 C   0  0  0  0  0  0
  -29.5880  -18.3308   22.0998 C   0  0  0  0  0  0
  -29.0907  -18.0557   20.7918 C   0  0  0  0  0  0
  -28.9993  -20.4420   20.3564 C   0  0  0  0  0  0
  -28.9407  -24.1038   20.0815 C   0  0  0  0  0  0
  -29.6862  -16.8720   22.4803 C   0  0  0  0  0  0
  -29.0712  -16.5313   21.0311 C   0  0  2  0  0  0
  -28.0900  -22.7921   20.0678 C   0  0  0  0  0  0
  -28.4679  -25.3579   19.2850 C   0  0  0  0  0  0
  -28.7079  -21.5505   19.5224 N   0  0  0  0  0  0
  -29.9577  -15.7130   20.1815 N   0  0  0  0  0  0
  -30.0123  -24.1320   20.6923 O   0  0  0  0  0  0
  -31.4575  -12.4906   19.1129 H   0  0  0  0  0  0
  -30.3601  -11.3857   19.9067 H   0  0  0  0  0  0
  -29.7356  -11.6871   17.4917 H   0  0  0  0  0  0
  -29.6304  -13.4136   17.6957 H   0  0  0  0  0  0
  -27.8463  -11.2728   18.8941 H   0  0  0  0  0  0
  -27.3516  -12.5297   17.8032 H   0  0  0  0  0  0
  -27.6496  -14.2446   19.4851 H   0  0  0  0  0  0
  -28.7066  -12.1214   21.4282 H   0  0  0  0  0  0
  -28.4675  -13.8172   21.7848 H   0  0  0  0  0  0
  -25.2746   -9.5711   22.4800 H   0  0  0  0  0  0
  -24.0022   -7.4642   22.7486 H   0  0  0  0  0  0
  -21.0853   -8.8804   19.8946 H   0  0  0  0  0  0
  -22.3707  -10.9719   19.6224 H   0  0  0  0  0  0
  -21.2000   -7.6151   23.9703 H   0  0  0  0  0  0
  -21.1460   -6.0528   25.9064 H   0  0  0  0  0  0
  -22.0611   -2.7615   23.2840 H   0  0  0  0  0  0
  -22.4069  -11.9902   22.4771 H   0  0  0  0  0  0
  -21.1100  -13.1309   22.2604 H   0  0  0  0  0  0
  -24.6603  -15.8467   20.4779 H   0  0  0  0  0  0
  -26.2588  -15.6015   19.9924 H   0  0  0  0  0  0
  -26.7160  -32.5519   23.1162 H   0  0  0  0  0  0
  -25.0174  -33.9819   25.0542 H   0  0  0  0  0  0
  -22.6955  -31.3105   21.4199 H   0  0  0  0  0  0
  -23.3742  -35.9671   23.3290 H   0  0  0  0  0  0
  -24.3608  -36.8944   22.2050 H   0  0  0  0  0  0
  -23.7266  -37.6518   23.6666 H   0  0  0  0  0  0
  -26.0692  -31.5713   20.6050 H   0  0  0  0  0  0
  -26.8356  -30.8594   21.9931 H   0  0  0  0  0  0
  -28.1101  -29.0142   21.1567 H   0  0  0  0  0  0
  -25.8980  -25.9282   19.0561 H   0  0  0  0  0  0
  -23.9319  -27.3001   19.0854 H   0  0  0  0  0  0
  -23.7621  -30.6207   19.4145 H   0  0  0  0  0  0
  -22.7416  -29.2771   19.8509 H   0  0  0  0  0  0
  -25.1295  -36.1957   25.0804 H   0  0  0  0  0  0
  -21.0100  -28.3263   24.1419 H   0  0  0  0  0  0
  -20.5640  -26.2117   23.3460 H   0  0  0  0  0  0
  -21.6712  -26.7486   22.1166 H   0  0  0  0  0  0
  -19.7223  -25.6857   21.0560 H   0  0  0  0  0  0
  -19.6749  -27.4000   20.6953 H   0  0  0  0  0  0
  -17.4285  -26.6636   21.3987 H   0  0  0  0  0  0
  -18.0603  -25.9993   22.8928 H   0  0  0  0  0  0
  -19.7899  -30.7274   24.2201 H   0  0  0  0  0  0
  -17.4924  -31.6192   24.4932 H   0  0  0  0  0  0
  -15.5293  -30.2762   23.7648 H   0  0  0  0  0  0
  -15.8661  -28.0577   22.7230 H   0  0  0  0  0  0
  -24.5940  -30.7083   25.7871 H   0  0  0  0  0  0
  -24.9010  -32.2893   26.4987 H   0  0  0  0  0  0
  -25.8151  -30.8894   27.0260 H   0  0  0  0  0  0
  -26.2876  -29.6782   24.1238 H   0  0  0  0  0  0
  -27.4056  -29.7293   25.4682 H   0  0  0  0  0  0
  -27.8753  -30.4305   23.9362 H   0  0  0  0  0  0
  -27.2650  -33.3588   26.2204 H   0  0  0  0  0  0
  -28.3877  -32.6954   25.0411 H   0  0  0  0  0  0
  -28.0740  -31.8421   26.5443 H   0  0  0  0  0  0
  -28.2577  -38.0125   24.7508 H   0  0  0  0  0  0
  -28.1088  -36.2660   24.6264 H   0  0  0  0  0  0
  -27.2313  -37.1444   25.8859 H   0  0  0  0  0  0
  -20.9427  -29.8428   21.6589 H   0  0  0  0  0  0
  -26.0166  -38.2849   24.1401 H   0  0  0  0  0  0
  -30.2180  -19.8069   23.5751 H   0  0  0  0  0  0
  -29.7114  -21.6789   22.0011 H   0  0  0  0  0  0
  -28.4214  -18.8734   18.8884 H   0  0  0  0  0  0
  -30.7246  -16.5777   22.6333 H   0  0  0  0  0  0
  -29.0415  -16.6041   23.3178 H   0  0  0  0  0  0
  -28.0424  -16.1686   21.0911 H   0  0  0  0  0  0
  -27.7657  -22.6107   21.0894 H   0  0  0  0  0  0
  -27.1733  -22.9903   19.5075 H   0  0  0  0  0  0
  -27.5989  -25.1043   18.6953 H   0  0  0  0  0  0
  -29.2387  -25.5438   18.5379 H   0  0  0  0  0  0
  -28.3608  -21.2972   18.5987 H   0  0  0  0  0  0
  -30.4933  -16.3264   19.5867 H   0  0  0  0  0  0
  1 25  1  0  0  0
  1 30  2  0  0  0
  1 83  1  0  0  0
  2  3  1  0  0  0
  2 25  1  0  0  0
  2 85  1  0  0  0
  2 86  1  0  0  0
  3  4  1  0  0  0
  3 87  1  0  0  0
  3 88  1  0  0  0
  4  5  1  0  0  0
  4 89  1  0  0  0
  4 90  1  0  0  0
  5  6  1  0  0  0
  5 26  1  0  0  0
  5 91  1  0  0  0
  6 25  1  0  0  0
  6 92  1  0  0  0
  6 93  1  0  0  0
  7  8  2  0  0  0
  7 26  1  0  0  0
  7 29  1  0  0  0
  8  9  1  0  0  0
  8 22  1  0  0  0
  9 10  1  0  0  0
  9 27  2  0  0  0
 10 11  2  0  0  0
 10 15  1  0  0  0
 11 12  1  0  0  0
 11 94  1  0  0  0
 12 13  2  0  0  0
 12 95  1  0  0  0
 13 14  1  0  0  0
 13 31  1  0  0  0
 14 15  2  0  0  0
 14 96  1  0  0  0
 15 97  1  0  0  0
 16 17  2  0  0  0
 16 21  1  0  0  0
 16 31  1  0  0  0
 17 18  1  0  0  0
 17 98  1  0  0  0
 18 19  2  0  0  0
 18 99  1  0  0  0
 19 20  1  0  0  0
 19 24  1  0  0  0
 20 21  2  0  0  0
 20100  1  0  0  0
 21 23  1  0  0  0
 22 28  1  0  0  0
 22 32  2  0  0  0
 26 27  1  0  0  0
 28101  1  0  0  0
 28102  1  0  0  0
 29103  1  0  0  0
 29104  1  0  0  0
 33 34  1  0  0  0
 33 66  1  0  0  0
 33 70  2  0  0  0
 34 36  1  0  0  0
 34 59  1  0  0  0
 34105  1  0  0  0
 35 44  2  0  0  0
 35 45  1  0  0  0
 35 68  1  0  0  0
 36 56  1  0  0  0
 36106  1  0  0  0
 37 39  1  0  0  0
 37 47  1  0  0  0
 37 66  1  0  0  0
 37107  1  0  0  0
 38 43  2  0  0  0
 38 46  1  0  0  0
 38 47  1  0  0  0
 39 64  1  0  0  0
 39 67  2  0  0  0
 40 52  1  0  0  0
 40 53  2  0  0  0
 40 58  1  0  0  0
 41108  1  0  0  0
 41109  1  0  0  0
 41110  1  0  0  0
 41 48  1  0  0  0
 42 43  1  0  0  0
 42 66  1  0  0  0
 42111  1  0  0  0
 42112  1  0  0  0
 43 44  1  0  0  0
 44113  1  0  0  0
 45 46  2  0  0  0
 45114  1  0  0  0
 46115  1  0  0  0
 47116  1  0  0  0
 47117  1  0  0  0
 48 56  1  0  0  0
 48 65  1  0  0  0
 48118  1  0  0  0
 49 50  1  0  0  0
 49 53  1  0  0  0
 49 64  1  0  0  0
 49119  1  0  0  0
 50 51  1  0  0  0
 50120  1  0  0  0
 50121  1  0  0  0
 51 52  1  0  0  0
 51122  1  0  0  0
 51123  1  0  0  0
 52124  1  0  0  0
 52125  1  0  0  0
 53 54  1  0  0  0
 54 55  2  0  0  0
 54126  1  0  0  0
 55 57  1  0  0  0
 55127  1  0  0  0
 56 69  2  0  0  0
 57 58  2  0  0  0
 57128  1  0  0  0
 58129  1  0  0  0
 59 60  1  0  0  0
 59 61  1  0  0  0
 59 62  1  0  0  0
 60130  1  0  0  0
 60131  1  0  0  0
 60132  1  0  0  0
 61133  1  0  0  0
 61134  1  0  0  0
 61135  1  0  0  0
 62136  1  0  0  0
 62137  1  0  0  0
 62138  1  0  0  0
 63 65  1  0  0  0
 63139  1  0  0  0
 63140  1  0  0  0
 63141  1  0  0  0
 64142  1  0  0  0
 65143  1  0  0  0
 68 81  1  0  0  0
 71 72  2  0  0  0
 71 74  1  0  0  0
 71144  1  0  0  0
 72 76  1  0  0  0
 72145  1  0  0  0
 73 75  1  0  0  0
 73 76  2  0  0  0
 73146  1  0  0  0
 74 75  2  0  0  0
 74 78  1  0  0  0
 75 79  1  0  0  0
 76 82  1  0  0  0
 77 80  1  0  0  0
 77 81  1  0  0  0
 77 84  2  0  0  0
 78 79  1  0  0  0
 78147  1  0  0  0
 78148  1  0  0  0
 79 83  1  0  0  0
 79149  1  0  0  0
 80 82  1  0  0  0
 80150  1  0  0  0
 80151  1  0  0  0
 81152  1  0  0  0
 81153  1  0  0  0
 82154  1  0  0  0
 83155  1  0  0  0
M  ISO  4   1 100  68 101  81 101  83 100
M  END
> <chiral flag>
0

> <version>
0

> <s_m_source_file>
/data/baiqing/PycharmProjects/Reinvent-master-3.2/result/LINK_invent/BTK/process_docking_weight1_custom_product_contain_oxygen_bond_distance_aromatic_linkinvent_7_9_3/rearranged_h_0146.sdf

> <i_m_source_file_index>
61

> <r_mmod_Potential_Energy-OPLS-2005>
448.761260986328

> <r_mmod_Stretch_Energy-OPLS-2005>
72.8597412109375

> <r_mmod_Bend_Energy-OPLS-2005>
507.597778320312

> <r_mmod_Torsional_Energy-OPLS-2005>
279.715148925781

> <r_mmod_Improper_Torsional_Energy-OPLS-2005>
28.9674205780029

> <r_mmod_Van_der_Waal_Energy-OPLS-2005>
137.095581054688

> <r_mmod_Electrostatic_Energy-OPLS-2005>
-369.440521240234

> <r_mmod_Solvation_Energy-OPLS-2005>
-247.685913085938

> <b_mmod_Minimization_Converged-OPLS-2005>
0

> <r_mmod_RMS_Derivative-OPLS-2005>
7.21476745605469

$$$$
61
                    3D
 Structure written by MMmdl.
156165  0  0  1  0            999 V2000
  -30.5336  -14.7812   20.4886 C   0  0  0  0  0  0
  -30.4607  -12.4830   19.4659 C   0  0  0  0  0  0
  -29.5211  -12.5304   18.2364 C   0  0  0  0  0  0
  -28.0462  -12.3396   18.6479 C   0  0  0  0  0  0
  -27.6524  -13.2193   19.8629 C   0  0  2  0  0  0
  -28.6994  -13.0992   20.9935 C   0  0  0  0  0  0
  -25.2551  -13.8149   20.5668 C   0  0  0  0  0  0
  -24.1826  -13.0419   20.9188 C   0  0  0  0  0  0
  -24.6403  -11.6893   20.8738 C   0  0  0  0  0  0
  -23.9068  -10.4281   21.0406 C   0  0  0  0  0  0
  -24.3616   -9.4198   21.9186 C   0  0  0  0  0  0
  -23.6288   -8.2237   22.0757 C   0  0  0  0  0  0
  -22.4271   -8.0277   21.3546 C   0  0  0  0  0  0
  -21.9907   -9.0252   20.4649 C   0  0  0  0  0  0
  -22.7239  -10.2128   20.3057 C   0  0  0  0  0  0
  -21.6852   -6.0732   22.5279 C   0  0  0  0  0  0
  -21.4014   -6.5637   23.8212 C   0  0  0  0  0  0
  -21.3657   -5.6791   24.9174 C   0  0  0  0  0  0
  -21.6044   -4.3054   24.7226 C   0  0  0  0  0  0
  -21.8821   -3.8145   23.4347 C   0  0  0  0  0  0
  -21.9195   -4.6961   22.3403 C   0  0  0  0  0  0
  -22.7850  -13.5221   21.1852 C   0  0  0  0  0  0
  -22.1663   -4.2147   21.0980 F   0  0  0  0  0  0
  -21.5628   -3.4537   25.7739 F   0  0  0  0  0  0
  -30.0010  -13.5068   20.4330 N   0  0  0  0  0  0
  -26.2989  -12.9338   20.3312 N   0  0  0  0  0  0
  -25.9336  -11.6493   20.5754 N   0  0  0  0  0  0
  -22.0490  -12.8222   22.0412 N   0  0  0  0  0  0
  -25.4233  -15.1863   20.4051 N   0  0  0  0  0  0
  -31.6835  -14.9961   20.0886 O   0  0  0  0  0  0
  -21.6636   -6.8874   21.4241 O   0  0  0  0  0  0
  -22.3539  -14.5530   20.6701 O   0  0  0  0  0  0
  -24.6338  -31.8523   23.1952 C   0  0  0  0  0  0
  -25.9150  -32.4739   23.8313 C   0  0  1  0  0  0
  -27.2285  -27.2405   20.1405 C   0  0  0  0  0  0
  -25.5933  -33.8541   24.2236 N   0  0  0  0  0  0
  -23.4330  -30.4724   21.5387 C   0  0  2  0  0  0
  -24.8835  -28.9114   20.1139 C   0  0  0  0  0  0
  -22.7519  -29.4585   22.4900 C   0  0  0  0  0  0
  -18.0295  -28.1389   22.8481 C   0  0  0  0  0  0
  -24.1490  -36.7277   23.2641 C   0  0  0  0  0  0
  -25.9802  -30.7591   21.3782 C   0  0  0  0  0  0
  -26.0557  -29.3780   20.7232 C   0  0  0  0  0  0
  -27.2328  -28.5575   20.7202 C   0  0  0  0  0  0
  -26.0352  -26.8466   19.4986 C   0  0  0  0  0  0
  -24.8793  -27.6542   19.4888 C   0  0  0  0  0  0
  -23.6545  -29.8012   20.1573 C   0  0  0  0  0  0
  -25.4118  -36.3059   24.0324 C   0  0  1  0  0  0
  -20.5901  -28.3703   23.1261 C   0  0  2  0  0  0
  -20.6781  -26.9416   22.5408 C   0  0  0  0  0  0
  -19.5757  -26.6382   21.5211 C   0  0  0  0  0  0
  -18.1938  -26.7930   22.1623 C   0  0  0  0  0  0
  -19.1550  -28.8863   23.2865 C   0  0  0  0  0  0
  -18.9469  -30.1462   23.8886 C   0  0  0  0  0  0
  -17.6468  -30.6588   24.0561 C   0  0  0  0  0  0
  -25.9060  -34.9431   23.5086 C   0  0  0  0  0  0
  -16.5359  -29.9084   23.6332 C   0  0  0  0  0  0
  -16.7282  -28.6503   23.0351 C   0  0  0  0  0  0
  -26.4508  -31.6574   25.0715 C   0  0  0  0  0  0
  -25.3722  -31.3735   26.1430 C   0  0  0  0  0  0
  -27.0361  -30.2986   24.6224 C   0  0  0  0  0  0
  -27.6055  -32.4323   25.7493 C   0  0  0  0  0  0
  -27.5578  -37.1794   24.8465 C   0  0  0  0  0  0
  -21.4222  -29.3043   22.3645 N   0  0  0  0  0  0
  -26.4289  -37.3762   23.9409 N   0  0  0  0  0  0
  -24.7014  -31.0466   22.0938 N   0  0  0  0  0  0
  -23.4203  -28.8133   23.3018 O   0  0  0  0  0  0
  -28.3193  -26.3325   20.1571 O   0  0  0  0  0  0
  -26.5637  -34.8914   22.4659 O   0  0  0  0  0  0
  -23.5481  -32.1352   23.7232 O   0  0  0  0  0  0
  -29.8930  -18.3928   20.4275 C   0  0  0  0  0  0
  -27.9121  -19.2078   21.3459 C   0  0  0  0  0  0
  -29.0406  -19.6007   20.6833 C   0  0  0  0  0  0
  -29.3775  -17.1481   20.8910 C   0  0  0  0  0  0
  -30.2301  -23.2608   20.2309 C   0  0  0  0  0  0
  -30.4730  -21.7211   20.0366 C   0  0  0  0  0  0
  -28.2151  -22.1361   20.5440 C   0  0  0  0  0  0
  -28.7304  -23.5436   19.9719 C   0  0  2  0  0  0
  -28.4489  -23.6012   18.4589 C   0  0  0  0  0  0
  -28.0945  -24.9093   20.6311 C   0  0  0  0  0  0
  -29.2212  -21.0313   20.3413 N   0  0  0  0  0  0
  -29.6504  -15.7599   20.9230 N   0  0  0  0  0  0
  -27.8532  -17.5000   21.6729 S   0  0  0  0  0  0
  -31.4934  -12.6552   19.1577 H   0  0  0  0  0  0
  -30.4467  -11.4931   19.9246 H   0  0  0  0  0  0
  -29.8088  -11.7679   17.5113 H   0  0  0  0  0  0
  -29.6344  -13.4898   17.7294 H   0  0  0  0  0  0
  -27.9048  -11.2868   18.8952 H   0  0  0  0  0  0
  -27.3881  -12.5443   17.8027 H   0  0  0  0  0  0
  -27.6588  -14.2498   19.5079 H   0  0  0  0  0  0
  -28.7486  -12.0733   21.3620 H   0  0  0  0  0  0
  -28.4165  -13.7037   21.8565 H   0  0  0  0  0  0
  -25.2761   -9.5672   22.4761 H   0  0  0  0  0  0
  -23.9994   -7.4628   22.7477 H   0  0  0  0  0  0
  -21.0838   -8.8773   19.8955 H   0  0  0  0  0  0
  -22.3699  -10.9667   19.6165 H   0  0  0  0  0  0
  -21.2005   -7.6145   23.9713 H   0  0  0  0  0  0
  -21.1477   -6.0521   25.9076 H   0  0  0  0  0  0
  -22.0603   -2.7607   23.2848 H   0  0  0  0  0  0
  -22.4099  -11.9880   22.4796 H   0  0  0  0  0  0
  -21.1112  -13.1256   22.2621 H   0  0  0  0  0  0
  -24.6540  -15.8378   20.5151 H   0  0  0  0  0  0
  -26.2685  -15.6279   20.0671 H   0  0  0  0  0  0
  -26.7218  -32.5386   23.1055 H   0  0  0  0  0  0
  -25.0073  -33.9671   25.0377 H   0  0  0  0  0  0
  -22.7307  -31.2949   21.3882 H   0  0  0  0  0  0
  -23.3754  -35.9607   23.3298 H   0  0  0  0  0  0
  -24.3579  -36.8907   22.2057 H   0  0  0  0  0  0
  -23.7244  -37.6475   23.6673 H   0  0  0  0  0  0
  -26.1209  -31.5176   20.6069 H   0  0  0  0  0  0
  -26.8564  -30.8104   22.0131 H   0  0  0  0  0  0
  -28.1320  -28.9127   21.2040 H   0  0  0  0  0  0
  -25.9869  -25.8848   19.0079 H   0  0  0  0  0  0
  -23.9843  -27.2925   19.0016 H   0  0  0  0  0  0
  -23.7822  -30.5750   19.3994 H   0  0  0  0  0  0
  -22.7728  -29.2351   19.8515 H   0  0  0  0  0  0
  -25.1302  -36.1901   25.0817 H   0  0  0  0  0  0
  -20.9992  -28.3285   24.1382 H   0  0  0  0  0  0
  -20.5675  -26.2315   23.3617 H   0  0  0  0  0  0
  -21.6650  -26.7433   22.1206 H   0  0  0  0  0  0
  -19.6920  -25.6290   21.1248 H   0  0  0  0  0  0
  -19.6695  -27.3187   20.6736 H   0  0  0  0  0  0
  -17.4207  -26.6674   21.4025 H   0  0  0  0  0  0
  -18.0339  -26.0074   22.9022 H   0  0  0  0  0  0
  -19.7945  -30.7280   24.2251 H   0  0  0  0  0  0
  -17.5022  -31.6266   24.5167 H   0  0  0  0  0  0
  -15.5358  -30.2982   23.7660 H   0  0  0  0  0  0
  -15.8683  -28.0819   22.7069 H   0  0  0  0  0  0
  -24.5903  -30.7076   25.7758 H   0  0  0  0  0  0
  -24.8906  -32.2907   26.4829 H   0  0  0  0  0  0
  -25.8032  -30.8931   27.0223 H   0  0  0  0  0  0
  -26.2952  -29.6723   24.1240 H   0  0  0  0  0  0
  -27.4021  -29.7262   25.4758 H   0  0  0  0  0  0
  -27.8839  -30.4248   23.9487 H   0  0  0  0  0  0
  -27.2656  -33.3632   26.2046 H   0  0  0  0  0  0
  -28.3878  -32.6870   25.0330 H   0  0  0  0  0  0
  -28.0709  -31.8465   26.5429 H   0  0  0  0  0  0
  -28.2594  -38.0092   24.7509 H   0  0  0  0  0  0
  -28.1075  -36.2622   24.6294 H   0  0  0  0  0  0
  -27.2296  -37.1448   25.8869 H   0  0  0  0  0  0
  -20.9416  -29.8757   21.6837 H   0  0  0  0  0  0
  -26.0165  -38.2835   24.1407 H   0  0  0  0  0  0
  -30.8327  -18.4843   19.9020 H   0  0  0  0  0  0
  -27.0885  -19.8220   21.6838 H   0  0  0  0  0  0
  -30.8863  -23.8626   19.6007 H   0  0  0  0  0  0
  -30.4654  -23.5229   21.2635 H   0  0  0  0  0  0
  -31.2869  -21.3651   20.6702 H   0  0  0  0  0  0
  -30.7469  -21.5077   19.0023 H   0  0  0  0  0  0
  -27.2573  -21.8657   20.0965 H   0  0  0  0  0  0
  -28.0370  -22.2311   21.6166 H   0  0  0  0  0  0
  -28.8202  -22.7183   17.9379 H   0  0  0  0  0  0
  -28.9193  -24.4744   18.0057 H   0  0  0  0  0  0
  -27.3783  -23.6680   18.2631 H   0  0  0  0  0  0
  -28.3929  -24.9157   21.6797 H   0  0  0  0  0  0
  -27.0202  -24.7350   20.6817 H   0  0  0  0  0  0
  -28.8592  -15.2689   21.3118 H   0  0  0  0  0  0
  1 25  1  0  0  0
  1 30  2  0  0  0
  1 82  1  0  0  0
  2  3  1  0  0  0
  2 25  1  0  0  0
  2 84  1  0  0  0
  2 85  1  0  0  0
  3  4  1  0  0  0
  3 86  1  0  0  0
  3 87  1  0  0  0
  4  5  1  0  0  0
  4 88  1  0  0  0
  4 89  1  0  0  0
  5  6  1  0  0  0
  5 26  1  0  0  0
  5 90  1  0  0  0
  6 25  1  0  0  0
  6 91  1  0  0  0
  6 92  1  0  0  0
  7  8  2  0  0  0
  7 26  1  0  0  0
  7 29  1  0  0  0
  8  9  1  0  0  0
  8 22  1  0  0  0
  9 10  1  0  0  0
  9 27  2  0  0  0
 10 11  2  0  0  0
 10 15  1  0  0  0
 11 12  1  0  0  0
 11 93  1  0  0  0
 12 13  2  0  0  0
 12 94  1  0  0  0
 13 14  1  0  0  0
 13 31  1  0  0  0
 14 15  2  0  0  0
 14 95  1  0  0  0
 15 96  1  0  0  0
 16 17  2  0  0  0
 16 21  1  0  0  0
 16 31  1  0  0  0
 17 18  1  0  0  0
 17 97  1  0  0  0
 18 19  2  0  0  0
 18 98  1  0  0  0
 19 20  1  0  0  0
 19 24  1  0  0  0
 20 21  2  0  0  0
 20 99  1  0  0  0
 21 23  1  0  0  0
 22 28  1  0  0  0
 22 32  2  0  0  0
 26 27  1  0  0  0
 28100  1  0  0  0
 28101  1  0  0  0
 29102  1  0  0  0
 29103  1  0  0  0
 33 34  1  0  0  0
 33 66  1  0  0  0
 33 70  2  0  0  0
 34 36  1  0  0  0
 34 59  1  0  0  0
 34104  1  0  0  0
 35 44  2  0  0  0
 35 45  1  0  0  0
 35 68  1  0  0  0
 36 56  1  0  0  0
 36105  1  0  0  0
 37 39  1  0  0  0
 37 47  1  0  0  0
 37 66  1  0  0  0
 37106  1  0  0  0
 38 43  2  0  0  0
 38 46  1  0  0  0
 38 47  1  0  0  0
 39 64  1  0  0  0
 39 67  2  0  0  0
 40 52  1  0  0  0
 40 53  2  0  0  0
 40 58  1  0  0  0
 41107  1  0  0  0
 41108  1  0  0  0
 41109  1  0  0  0
 41 48  1  0  0  0
 42 43  1  0  0  0
 42 66  1  0  0  0
 42110  1  0  0  0
 42111  1  0  0  0
 43 44  1  0  0  0
 44112  1  0  0  0
 45 46  2  0  0  0
 45113  1  0  0  0
 46114  1  0  0  0
 47115  1  0  0  0
 47116  1  0  0  0
 48 56  1  0  0  0
 48 65  1  0  0  0
 48117  1  0  0  0
 49 50  1  0  0  0
 49 53  1  0  0  0
 49 64  1  0  0  0
 49118  1  0  0  0
 50 51  1  0  0  0
 50119  1  0  0  0
 50120  1  0  0  0
 51 52  1  0  0  0
 51121  1  0  0  0
 51122  1  0  0  0
 52123  1  0  0  0
 52124  1  0  0  0
 53 54  1  0  0  0
 54 55  2  0  0  0
 54125  1  0  0  0
 55 57  1  0  0  0
 55126  1  0  0  0
 56 69  2  0  0  0
 57 58  2  0  0  0
 57127  1  0  0  0
 58128  1  0  0  0
 59 60  1  0  0  0
 59 61  1  0  0  0
 59 62  1  0  0  0
 60129  1  0  0  0
 60130  1  0  0  0
 60131  1  0  0  0
 61132  1  0  0  0
 61133  1  0  0  0
 61134  1  0  0  0
 62135  1  0  0  0
 62136  1  0  0  0
 62137  1  0  0  0
 63 65  1  0  0  0
 63138  1  0  0  0
 63139  1  0  0  0
 63140  1  0  0  0
 64141  1  0  0  0
 65142  1  0  0  0
 68 80  1  0  0  0
 71 73  1  0  0  0
 71 74  2  0  0  0
 71143  1  0  0  0
 72 73  2  0  0  0
 72 83  1  0  0  0
 72144  1  0  0  0
 73 81  1  0  0  0
 74 82  1  0  0  0
 74 83  1  0  0  0
 75 76  1  0  0  0
 75 78  1  0  0  0
 75145  1  0  0  0
 75146  1  0  0  0
 76 81  1  0  0  0
 76147  1  0  0  0
 76148  1  0  0  0
 77 78  1  0  0  0
 77 81  1  0  0  0
 77149  1  0  0  0
 77150  1  0  0  0
 78 79  1  0  0  0
 78 80  1  0  0  0
 79151  1  0  0  0
 79152  1  0  0  0
 79153  1  0  0  0
 80154  1  0  0  0
 80155  1  0  0  0
 82156  1  0  0  0
M  ISO  4   1 100  68 101  80 101  82 100
M  END
> <chiral flag>
0

> <version>
0

> <s_m_source_file>
/data/baiqing/PycharmProjects/Reinvent-master-3.2/result/LINK_invent/BTK/process_docking_weight1_custom_product_contain_oxygen_bond_distance_aromatic_linkinvent_7_9_3/rearranged_h_0146.sdf

> <i_m_source_file_index>
62

> <r_mmod_Potential_Energy-OPLS-2005>
315.3544921875

> <r_mmod_Stretch_Energy-OPLS-2005>
134.515029907227

> <r_mmod_Bend_Energy-OPLS-2005>
280.061859130859

> <r_mmod_Torsional_Energy-OPLS-2005>
301.379669189453

> <r_mmod_Improper_Torsional_Energy-OPLS-2005>
3.58579635620117

> <r_mmod_Van_der_Waal_Energy-OPLS-2005>
107.766014099121

> <r_mmod_Electrostatic_Energy-OPLS-2005>
-388.615417480469

> <r_mmod_Solvation_Energy-OPLS-2005>
-224.080444335938

> <b_mmod_Minimization_Converged-OPLS-2005>
0

> <r_mmod_RMS_Derivative-OPLS-2005>
0.285451382398605

$$$$
62
                    3D
 Structure written by MMmdl.
158167  0  0  1  0            999 V2000
  -30.6669  -14.4721   20.6714 C   0  0  0  0  0  0
  -30.4481  -12.3474   19.4033 C   0  0  0  0  0  0
  -29.4999  -12.5478   18.2002 C   0  0  0  0  0  0
  -28.0186  -12.4012   18.6110 C   0  0  0  0  0  0
  -27.6718  -13.2067   19.8891 C   0  0  2  0  0  0
  -28.7106  -12.9160   20.9943 C   0  0  0  0  0  0
  -25.2616  -13.8172   20.5717 C   0  0  0  0  0  0
  -24.1844  -13.0448   20.9191 C   0  0  0  0  0  0
  -24.6405  -11.6923   20.8713 C   0  0  0  0  0  0
  -23.9081  -10.4302   21.0414 C   0  0  0  0  0  0
  -24.3630   -9.4213   21.9188 C   0  0  0  0  0  0
  -23.6276   -8.2261   22.0767 C   0  0  0  0  0  0
  -22.4250   -8.0314   21.3556 C   0  0  0  0  0  0
  -21.9898   -9.0305   20.4660 C   0  0  0  0  0  0
  -22.7264  -10.2159   20.3065 C   0  0  0  0  0  0
  -21.6859   -6.0741   22.5271 C   0  0  0  0  0  0
  -21.4024   -6.5634   23.8217 C   0  0  0  0  0  0
  -21.3648   -5.6784   24.9175 C   0  0  0  0  0  0
  -21.6048   -4.3044   24.7215 C   0  0  0  0  0  0
  -21.8823   -3.8142   23.4337 C   0  0  0  0  0  0
  -21.9186   -4.6974   22.3393 C   0  0  0  0  0  0
  -22.7868  -13.5272   21.1846 C   0  0  0  0  0  0
  -22.1671   -4.2167   21.0966 F   0  0  0  0  0  0
  -21.5609   -3.4526   25.7716 F   0  0  0  0  0  0
  -30.0455  -13.2735   20.4743 N   0  0  0  0  0  0
  -26.3069  -12.9356   20.3391 N   0  0  0  0  0  0
  -25.9331  -11.6523   20.5727 N   0  0  0  0  0  0
  -22.0473  -12.8264   22.0374 N   0  0  0  0  0  0
  -25.4359  -15.1878   20.4255 N   0  0  0  0  0  0
  -31.7112  -14.7894   20.0938 O   0  0  0  0  0  0
  -21.6636   -6.8903   21.4226 O   0  0  0  0  0  0
  -22.3569  -14.5597   20.6727 O   0  0  0  0  0  0
  -24.6176  -31.8656   23.2058 C   0  0  0  0  0  0
  -25.9041  -32.4804   23.8374 C   0  0  1  0  0  0
  -27.2407  -27.4060   20.1258 C   0  0  0  0  0  0
  -25.5892  -33.8610   24.2305 N   0  0  0  0  0  0
  -23.4072  -30.4848   21.5470 C   0  0  2  0  0  0
  -24.8576  -28.9402   20.1203 C   0  0  0  0  0  0
  -22.7424  -29.4624   22.4977 C   0  0  0  0  0  0
  -18.0275  -28.1394   22.8490 C   0  0  0  0  0  0
  -24.1482  -36.7312   23.2637 C   0  0  0  0  0  0
  -25.9359  -30.8256   21.3598 C   0  0  0  0  0  0
  -26.0176  -29.4545   20.7154 C   0  0  0  0  0  0
  -27.2141  -28.6974   20.7089 C   0  0  0  0  0  0
  -26.0652  -26.9061   19.5286 C   0  0  0  0  0  0
  -24.8776  -27.6647   19.5237 C   0  0  0  0  0  0
  -23.6186  -29.8102   20.1643 C   0  0  0  0  0  0
  -25.4100  -36.3100   24.0331 C   0  0  1  0  0  0
  -20.5863  -28.3668   23.1327 C   0  0  2  0  0  0
  -20.6759  -26.9397   22.5429 C   0  0  0  0  0  0
  -19.5742  -26.6377   21.5220 C   0  0  0  0  0  0
  -18.1917  -26.7934   22.1628 C   0  0  0  0  0  0
  -19.1528  -28.8840   23.2898 C   0  0  0  0  0  0
  -18.9457  -30.1449   23.8911 C   0  0  0  0  0  0
  -17.6462  -30.6578   24.0571 C   0  0  0  0  0  0
  -25.9031  -34.9467   23.5110 C   0  0  0  0  0  0
  -16.5347  -29.9082   23.6334 C   0  0  0  0  0  0
  -16.7263  -28.6503   23.0334 C   0  0  0  0  0  0
  -26.4469  -31.6594   25.0709 C   0  0  0  0  0  0
  -25.3738  -31.3736   26.1465 C   0  0  0  0  0  0
  -27.0287  -30.3024   24.6094 C   0  0  0  0  0  0
  -27.6039  -32.4336   25.7474 C   0  0  0  0  0  0
  -27.5578  -37.1797   24.8458 C   0  0  0  0  0  0
  -21.4148  -29.3024   22.3724 N   0  0  0  0  0  0
  -26.4284  -37.3787   23.9412 N   0  0  0  0  0  0
  -24.6709  -31.0740   22.0960 N   0  0  0  0  0  0
  -23.4175  -28.8204   23.3062 O   0  0  0  0  0  0
  -28.4028  -26.6607   20.0910 O   0  0  0  0  0  0
  -26.5604  -34.8930   22.4682 O   0  0  0  0  0  0
  -23.5354  -32.1447   23.7414 O   0  0  0  0  0  0
  -28.5625  -18.5813   22.0469 C   0  0  0  0  0  0
  -28.6817  -17.1565   22.2357 C   0  0  0  0  0  0
  -29.5117  -19.1191   21.2116 C   0  0  0  0  0  0
  -29.7395  -16.5905   21.5504 C   0  0  0  0  0  0
  -29.2924  -22.9691   20.7178 C   0  0  0  0  0  0
  -26.6878  -16.9179   23.9912 C   0  0  0  0  0  0
  -27.9089  -16.2508   24.5813 C   0  0  0  0  0  0
  -27.7398  -16.3281   23.0806 C   0  0  0  0  0  0
  -28.3989  -24.1098   20.1545 C   0  0  0  0  0  0
  -28.7108  -21.5333   20.9103 C   0  0  0  0  0  0
  -28.4573  -25.4730   20.9199 C   0  0  0  0  0  0
  -30.0499  -15.2565   21.5827 N   0  0  0  0  0  0
  -29.7174  -20.4521   20.7883 N   0  0  0  0  0  0
  -30.4838  -23.1838   20.9688 O   0  0  0  0  0  0
  -30.5909  -17.8456   20.6540 S   0  0  0  0  0  0
  -31.4844  -12.5000   19.0936 H   0  0  0  0  0  0
  -30.3964  -11.3196   19.7647 H   0  0  0  0  0  0
  -29.7335  -11.8390   17.4056 H   0  0  0  0  0  0
  -29.6652  -13.5367   17.7703 H   0  0  0  0  0  0
  -27.8115  -11.3410   18.7708 H   0  0  0  0  0  0
  -27.3792  -12.7185   17.7859 H   0  0  0  0  0  0
  -27.7374  -14.2658   19.6327 H   0  0  0  0  0  0
  -28.6946  -11.8534   21.2442 H   0  0  0  0  0  0
  -28.4434  -13.4217   21.9218 H   0  0  0  0  0  0
  -25.2786   -9.5683   22.4763 H   0  0  0  0  0  0
  -24.0004   -7.4628   22.7466 H   0  0  0  0  0  0
  -21.0839   -8.8843   19.8942 H   0  0  0  0  0  0
  -22.3748  -10.9715   19.6174 H   0  0  0  0  0  0
  -21.2035   -7.6144   23.9734 H   0  0  0  0  0  0
  -21.1464   -6.0504   25.9084 H   0  0  0  0  0  0
  -22.0602   -2.7604   23.2836 H   0  0  0  0  0  0
  -22.4093  -11.9953   22.4806 H   0  0  0  0  0  0
  -21.1128  -13.1356   22.2615 H   0  0  0  0  0  0
  -24.6933  -15.8570   20.6014 H   0  0  0  0  0  0
  -26.2918  -15.6241   20.1089 H   0  0  0  0  0  0
  -26.7116  -32.5522   23.1144 H   0  0  0  0  0  0
  -25.0033  -33.9773   25.0441 H   0  0  0  0  0  0
  -22.6959  -31.3004   21.4033 H   0  0  0  0  0  0
  -23.3736  -35.9653   23.3295 H   0  0  0  0  0  0
  -24.3588  -36.8939   22.2059 H   0  0  0  0  0  0
  -23.7249  -37.6514   23.6671 H   0  0  0  0  0  0
  -26.0470  -31.5833   20.5852 H   0  0  0  0  0  0
  -26.8242  -30.8853   21.9760 H   0  0  0  0  0  0
  -28.1145  -29.0941   21.1564 H   0  0  0  0  0  0
  -26.0747  -25.9304   19.0631 H   0  0  0  0  0  0
  -23.9868  -27.2576   19.0644 H   0  0  0  0  0  0
  -23.7277  -30.5837   19.4033 H   0  0  0  0  0  0
  -22.7421  -29.2298   19.8688 H   0  0  0  0  0  0
  -25.1272  -36.1948   25.0822 H   0  0  0  0  0  0
  -20.9959  -28.3226   24.1453 H   0  0  0  0  0  0
  -20.5671  -26.2268   23.3615 H   0  0  0  0  0  0
  -21.6635  -26.7435   22.1231 H   0  0  0  0  0  0
  -19.6900  -25.6287   21.1243 H   0  0  0  0  0  0
  -19.6679  -27.3202   20.6764 H   0  0  0  0  0  0
  -17.4189  -26.6684   21.4023 H   0  0  0  0  0  0
  -18.0297  -26.0070   22.9032 H   0  0  0  0  0  0
  -19.7924  -30.7257   24.2283 H   0  0  0  0  0  0
  -17.5010  -31.6266   24.5173 H   0  0  0  0  0  0
  -15.5351  -30.2991   23.7644 H   0  0  0  0  0  0
  -15.8665  -28.0835   22.7037 H   0  0  0  0  0  0
  -24.5898  -30.7085   25.7837 H   0  0  0  0  0  0
  -24.8948  -32.2907   26.4907 H   0  0  0  0  0  0
  -25.8095  -30.8932   27.0232 H   0  0  0  0  0  0
  -26.2823  -29.6796   24.1154 H   0  0  0  0  0  0
  -27.4049  -29.7261   25.4559 H   0  0  0  0  0  0
  -27.8666  -30.4332   23.9245 H   0  0  0  0  0  0
  -27.2632  -33.3639   26.2046 H   0  0  0  0  0  0
  -28.3840  -32.6898   25.0292 H   0  0  0  0  0  0
  -28.0706  -31.8470   26.5400 H   0  0  0  0  0  0
  -28.2579  -38.0111   24.7512 H   0  0  0  0  0  0
  -28.1083  -36.2638   24.6245 H   0  0  0  0  0  0
  -27.2309  -37.1408   25.8866 H   0  0  0  0  0  0
  -20.9310  -29.8729   21.6938 H   0  0  0  0  0  0
  -26.0154  -38.2853   24.1440 H   0  0  0  0  0  0
  -27.7868  -19.1551   22.5296 H   0  0  0  0  0  0
  -26.6125  -17.9986   24.0758 H   0  0  0  0  0  0
  -25.7417  -16.3842   24.0685 H   0  0  0  0  0  0
  -27.7808  -15.2790   25.0510 H   0  0  0  0  0  0
  -28.6386  -16.9041   25.0591 H   0  0  0  0  0  0
  -27.4425  -15.4135   22.5696 H   0  0  0  0  0  0
  -27.3676  -23.7708   20.0700 H   0  0  0  0  0  0
  -28.7489  -24.2779   19.1366 H   0  0  0  0  0  0
  -27.9181  -21.3770   20.1795 H   0  0  0  0  0  0
  -28.2397  -21.4879   21.8934 H   0  0  0  0  0  0
  -29.4001  -25.5462   21.4640 H   0  0  0  0  0  0
  -27.6854  -25.4961   21.6921 H   0  0  0  0  0  0
  -29.4224  -14.7122   22.1522 H   0  0  0  0  0  0
  -30.4957  -20.6713   20.1736 H   0  0  0  0  0  0
  1 25  1  0  0  0
  1 30  2  0  0  0
  1 82  1  0  0  0
  2  3  1  0  0  0
  2 25  1  0  0  0
  2 86  1  0  0  0
  2 87  1  0  0  0
  3  4  1  0  0  0
  3 88  1  0  0  0
  3 89  1  0  0  0
  4  5  1  0  0  0
  4 90  1  0  0  0
  4 91  1  0  0  0
  5  6  1  0  0  0
  5 26  1  0  0  0
  5 92  1  0  0  0
  6 25  1  0  0  0
  6 93  1  0  0  0
  6 94  1  0  0  0
  7  8  2  0  0  0
  7 26  1  0  0  0
  7 29  1  0  0  0
  8  9  1  0  0  0
  8 22  1  0  0  0
  9 10  1  0  0  0
  9 27  2  0  0  0
 10 11  2  0  0  0
 10 15  1  0  0  0
 11 12  1  0  0  0
 11 95  1  0  0  0
 12 13  2  0  0  0
 12 96  1  0  0  0
 13 14  1  0  0  0
 13 31  1  0  0  0
 14 15  2  0  0  0
 14 97  1  0  0  0
 15 98  1  0  0  0
 16 17  2  0  0  0
 16 21  1  0  0  0
 16 31  1  0  0  0
 17 18  1  0  0  0
 17 99  1  0  0  0
 18 19  2  0  0  0
 18100  1  0  0  0
 19 20  1  0  0  0
 19 24  1  0  0  0
 20 21  2  0  0  0
 20101  1  0  0  0
 21 23  1  0  0  0
 22 28  1  0  0  0
 22 32  2  0  0  0
 26 27  1  0  0  0
 28102  1  0  0  0
 28103  1  0  0  0
 29104  1  0  0  0
 29105  1  0  0  0
 33 34  1  0  0  0
 33 66  1  0  0  0
 33 70  2  0  0  0
 34 36  1  0  0  0
 34 59  1  0  0  0
 34106  1  0  0  0
 35 44  2  0  0  0
 35 45  1  0  0  0
 35 68  1  0  0  0
 36 56  1  0  0  0
 36107  1  0  0  0
 37 39  1  0  0  0
 37 47  1  0  0  0
 37 66  1  0  0  0
 37108  1  0  0  0
 38 43  2  0  0  0
 38 46  1  0  0  0
 38 47  1  0  0  0
 39 64  1  0  0  0
 39 67  2  0  0  0
 40 52  1  0  0  0
 40 53  2  0  0  0
 40 58  1  0  0  0
 41109  1  0  0  0
 41110  1  0  0  0
 41111  1  0  0  0
 41 48  1  0  0  0
 42 43  1  0  0  0
 42 66  1  0  0  0
 42112  1  0  0  0
 42113  1  0  0  0
 43 44  1  0  0  0
 44114  1  0  0  0
 45 46  2  0  0  0
 45115  1  0  0  0
 46116  1  0  0  0
 47117  1  0  0  0
 47118  1  0  0  0
 48 56  1  0  0  0
 48 65  1  0  0  0
 48119  1  0  0  0
 49 50  1  0  0  0
 49 53  1  0  0  0
 49 64  1  0  0  0
 49120  1  0  0  0
 50 51  1  0  0  0
 50121  1  0  0  0
 50122  1  0  0  0
 51 52  1  0  0  0
 51123  1  0  0  0
 51124  1  0  0  0
 52125  1  0  0  0
 52126  1  0  0  0
 53 54  1  0  0  0
 54 55  2  0  0  0
 54127  1  0  0  0
 55 57  1  0  0  0
 55128  1  0  0  0
 56 69  2  0  0  0
 57 58  2  0  0  0
 57129  1  0  0  0
 58130  1  0  0  0
 59 60  1  0  0  0
 59 61  1  0  0  0
 59 62  1  0  0  0
 60131  1  0  0  0
 60132  1  0  0  0
 60133  1  0  0  0
 61134  1  0  0  0
 61135  1  0  0  0
 61136  1  0  0  0
 62137  1  0  0  0
 62138  1  0  0  0
 62139  1  0  0  0
 63 65  1  0  0  0
 63140  1  0  0  0
 63141  1  0  0  0
 63142  1  0  0  0
 64143  1  0  0  0
 65144  1  0  0  0
 68 81  1  0  0  0
 71 72  1  0  0  0
 71 73  2  0  0  0
 71145  1  0  0  0
 72 74  2  0  0  0
 72 78  1  0  0  0
 73 83  1  0  0  0
 73 85  1  0  0  0
 74 82  1  0  0  0
 74 85  1  0  0  0
 75 79  1  0  0  0
 75 80  1  0  0  0
 75 84  2  0  0  0
 76 77  1  0  0  0
 76 78  1  0  0  0
 76146  1  0  0  0
 76147  1  0  0  0
 77 78  1  0  0  0
 77148  1  0  0  0
 77149  1  0  0  0
 78150  1  0  0  0
 79 81  1  0  0  0
 79151  1  0  0  0
 79152  1  0  0  0
 80 83  1  0  0  0
 80153  1  0  0  0
 80154  1  0  0  0
 81155  1  0  0  0
 81156  1  0  0  0
 82157  1  0  0  0
 83158  1  0  0  0
M  ISO  4   1 100  68 101  81 101  82 100
M  END
> <chiral flag>
0

> <version>
0

> <s_m_source_file>
/data/baiqing/PycharmProjects/Reinvent-master-3.2/result/LINK_invent/BTK/process_docking_weight1_custom_product_contain_oxygen_bond_distance_aromatic_linkinvent_7_9_3/rearranged_h_0146.sdf

> <i_m_source_file_index>
63

> <r_mmod_Potential_Energy-OPLS-2005>
-19.0508594512939

> <r_mmod_Stretch_Energy-OPLS-2005>
45.1591300964355

> <r_mmod_Bend_Energy-OPLS-2005>
122.306030273438

> <r_mmod_Torsional_Energy-OPLS-2005>
260.463684082031

> <r_mmod_Improper_Torsional_Energy-OPLS-2005>
4.61409521102905

> <r_mmod_Van_der_Waal_Energy-OPLS-2005>
113.122398376465

> <r_mmod_Electrostatic_Energy-OPLS-2005>
-339.522796630859

> <r_mmod_Solvation_Energy-OPLS-2005>
-240.769485473633

> <b_mmod_Minimization_Converged-OPLS-2005>
0

> <r_mmod_RMS_Derivative-OPLS-2005>
4.27210807800293

$$$$
63
                    3D
 Structure written by MMmdl.
162171  0  0  1  0            999 V2000
  -30.6132  -14.5962   20.4097 C   0  0  0  0  0  0
  -30.4435  -12.3330   19.4626 C   0  0  0  0  0  0
  -29.5124  -12.4316   18.2295 C   0  0  0  0  0  0
  -28.0257  -12.3189   18.6286 C   0  0  0  0  0  0
  -27.6489  -13.1923   19.8537 C   0  0  2  0  0  0
  -28.6986  -13.0676   20.9815 C   0  0  0  0  0  0
  -25.2570  -13.8113   20.5664 C   0  0  0  0  0  0
  -24.1823  -13.0411   20.9176 C   0  0  0  0  0  0
  -24.6355  -11.6873   20.8732 C   0  0  0  0  0  0
  -23.9019  -10.4273   21.0410 C   0  0  0  0  0  0
  -24.3589   -9.4190   21.9179 C   0  0  0  0  0  0
  -23.6278   -8.2223   22.0748 C   0  0  0  0  0  0
  -22.4259   -8.0261   21.3540 C   0  0  0  0  0  0
  -21.9883   -9.0231   20.4640 C   0  0  0  0  0  0
  -22.7198  -10.2112   20.3054 C   0  0  0  0  0  0
  -21.6845   -6.0717   22.5267 C   0  0  0  0  0  0
  -21.4015   -6.5626   23.8198 C   0  0  0  0  0  0
  -21.3664   -5.6781   24.9161 C   0  0  0  0  0  0
  -21.6051   -4.3042   24.7216 C   0  0  0  0  0  0
  -21.8827   -3.8128   23.4340 C   0  0  0  0  0  0
  -21.9200   -4.6946   22.3396 C   0  0  0  0  0  0
  -22.7852  -13.5214   21.1852 C   0  0  0  0  0  0
  -22.1668   -4.2124   21.0975 F   0  0  0  0  0  0
  -21.5634   -3.4538   25.7740 F   0  0  0  0  0  0
  -30.0293  -13.3623   20.4300 N   0  0  0  0  0  0
  -26.2965  -12.9230   20.3281 N   0  0  0  0  0  0
  -25.9272  -11.6415   20.5742 N   0  0  0  0  0  0
  -22.0498  -12.8215   22.0412 N   0  0  0  0  0  0
  -25.4312  -15.1840   20.4095 N   0  0  0  0  0  0
  -31.8203  -14.7425   20.1938 O   0  0  0  0  0  0
  -21.6633   -6.8852   21.4228 O   0  0  0  0  0  0
  -22.3539  -14.5527   20.6697 O   0  0  0  0  0  0
  -24.6127  -31.8685   23.2077 C   0  0  0  0  0  0
  -25.9025  -32.4818   23.8377 C   0  0  1  0  0  0
  -27.2430  -27.4176   20.1144 C   0  0  0  0  0  0
  -25.5890  -33.8620   24.2315 N   0  0  0  0  0  0
  -23.4010  -30.4883   21.5492 C   0  0  2  0  0  0
  -24.8492  -28.9488   20.1169 C   0  0  0  0  0  0
  -22.7392  -29.4659   22.5006 C   0  0  0  0  0  0
  -18.0266  -28.1381   22.8485 C   0  0  0  0  0  0
  -24.1494  -36.7310   23.2638 C   0  0  0  0  0  0
  -25.9283  -30.8309   21.3609 C   0  0  0  0  0  0
  -26.0071  -29.4614   20.7124 C   0  0  0  0  0  0
  -27.2015  -28.7044   20.7053 C   0  0  0  0  0  0
  -26.0653  -26.9270   19.5008 C   0  0  0  0  0  0
  -24.8749  -27.6822   19.5065 C   0  0  0  0  0  0
  -23.6097  -29.8153   20.1652 C   0  0  0  0  0  0
  -25.4113  -36.3113   24.0340 C   0  0  1  0  0  0
  -20.5853  -28.3667   23.1327 C   0  0  2  0  0  0
  -20.6763  -26.9408   22.5419 C   0  0  0  0  0  0
  -19.5743  -26.6385   21.5212 C   0  0  0  0  0  0
  -18.1918  -26.7928   22.1618 C   0  0  0  0  0  0
  -19.1514  -28.8840   23.2903 C   0  0  0  0  0  0
  -18.9447  -30.1452   23.8899 C   0  0  0  0  0  0
  -17.6450  -30.6589   24.0558 C   0  0  0  0  0  0
  -25.9040  -34.9479   23.5129 C   0  0  0  0  0  0
  -16.5341  -29.9089   23.6329 C   0  0  0  0  0  0
  -16.7255  -28.6514   23.0339 C   0  0  0  0  0  0
  -26.4453  -31.6590   25.0700 C   0  0  0  0  0  0
  -25.3722  -31.3685   26.1448 C   0  0  0  0  0  0
  -27.0281  -30.3034   24.6065 C   0  0  0  0  0  0
  -27.6040  -32.4290   25.7463 C   0  0  0  0  0  0
  -27.5583  -37.1808   24.8462 C   0  0  0  0  0  0
  -21.4123  -29.3025   22.3731 N   0  0  0  0  0  0
  -26.4295  -37.3795   23.9411 N   0  0  0  0  0  0
  -24.6658  -31.0776   22.0978 N   0  0  0  0  0  0
  -23.4169  -28.8226   23.3064 O   0  0  0  0  0  0
  -28.4413  -26.7213   20.1387 O   0  0  0  0  0  0
  -26.5607  -34.8934   22.4692 O   0  0  0  0  0  0
  -23.5323  -32.1441   23.7476 O   0  0  0  0  0  0
  -29.8086  -18.5997   18.0557 C   0  0  0  0  0  0
  -29.9779  -19.7648   18.8379 C   0  0  0  0  0  0
  -30.1919  -18.4749   20.9708 C   0  0  0  0  0  0
  -29.8776  -17.4103   18.7742 C   0  0  0  0  0  0
  -30.1402  -17.3039   20.1779 C   0  0  0  0  0  0
  -30.1037  -19.7300   20.2670 C   0  0  0  0  0  0
  -29.5635  -22.1531   20.6363 C   0  0  0  0  0  0
  -29.4047  -16.0028   18.6530 C   0  0  0  0  0  0
  -29.6555  -15.8315   20.2378 C   0  0  1  0  0  0
  -31.3599  -23.8540   20.2999 C   0  0  0  0  0  0
  -30.7309  -23.2054   22.6344 C   0  0  0  0  0  0
  -29.1659  -24.6757   21.3230 C   0  0  0  0  0  0
  -28.4900  -25.2787   20.0522 C   0  0  0  0  0  0
  -30.1739  -23.4671   21.2116 C   0  0  0  0  0  0
  -30.1486  -20.9755   20.9784 N   0  0  0  0  0  0
  -28.5743  -22.2134   19.9018 O   0  0  0  0  0  0
  -31.4859  -12.4507   19.1607 H   0  0  0  0  0  0
  -30.3749  -11.3451   19.9210 H   0  0  0  0  0  0
  -29.7581  -11.6375   17.5239 H   0  0  0  0  0  0
  -29.6892  -13.3572   17.6889 H   0  0  0  0  0  0
  -27.8252  -11.2700   18.8501 H   0  0  0  0  0  0
  -27.3908  -12.5731   17.7795 H   0  0  0  0  0  0
  -27.6399  -14.2142   19.4961 H   0  0  0  0  0  0
  -28.6869  -12.0604   21.3981 H   0  0  0  0  0  0
  -28.4591  -13.7358   21.8100 H   0  0  0  0  0  0
  -25.2740   -9.5680   22.4741 H   0  0  0  0  0  0
  -24.0003   -7.4610   22.7463 H   0  0  0  0  0  0
  -21.0823   -8.8743   19.8933 H   0  0  0  0  0  0
  -22.3666  -10.9654   19.6163 H   0  0  0  0  0  0
  -21.1997   -7.6135   23.9695 H   0  0  0  0  0  0
  -21.1482   -6.0507   25.9063 H   0  0  0  0  0  0
  -22.0606   -2.7593   23.2848 H   0  0  0  0  0  0
  -22.4124  -11.9897   22.4831 H   0  0  0  0  0  0
  -21.1109  -13.1216   22.2598 H   0  0  0  0  0  0
  -24.6678  -15.8422   20.5265 H   0  0  0  0  0  0
  -26.2869  -15.6264   20.1032 H   0  0  0  0  0  0
  -26.7091  -32.5537   23.1144 H   0  0  0  0  0  0
  -25.0047  -33.9788   25.0464 H   0  0  0  0  0  0
  -22.6896  -31.3044   21.4081 H   0  0  0  0  0  0
  -23.3764  -35.9630   23.3293 H   0  0  0  0  0  0
  -24.3591  -36.8928   22.2049 H   0  0  0  0  0  0
  -23.7232  -37.6509   23.6656 H   0  0  0  0  0  0
  -26.0383  -31.5956   20.5911 H   0  0  0  0  0  0
  -26.8163  -30.8885   21.9787 H   0  0  0  0  0  0
  -28.0944  -29.1020   21.1682 H   0  0  0  0  0  0
  -26.0457  -25.9718   18.9997 H   0  0  0  0  0  0
  -23.9861  -27.2837   19.0370 H   0  0  0  0  0  0
  -23.7125  -30.5875   19.4019 H   0  0  0  0  0  0
  -22.7335  -29.2321   19.8739 H   0  0  0  0  0  0
  -25.1289  -36.1979   25.0830 H   0  0  0  0  0  0
  -20.9931  -28.3221   24.1450 H   0  0  0  0  0  0
  -20.5685  -26.2259   23.3596 H   0  0  0  0  0  0
  -21.6638  -26.7462   22.1198 H   0  0  0  0  0  0
  -19.6914  -25.6297   21.1237 H   0  0  0  0  0  0
  -19.6691  -27.3198   20.6745 H   0  0  0  0  0  0
  -17.4188  -26.6667   21.4016 H   0  0  0  0  0  0
  -18.0323  -26.0071   22.9016 H   0  0  0  0  0  0
  -19.7930  -30.7271   24.2254 H   0  0  0  0  0  0
  -17.5014  -31.6274   24.5165 H   0  0  0  0  0  0
  -15.5349  -30.3001   23.7660 H   0  0  0  0  0  0
  -15.8651  -28.0851   22.7037 H   0  0  0  0  0  0
  -24.5907  -30.7022   25.7774 H   0  0  0  0  0  0
  -24.8899  -32.2833   26.4898 H   0  0  0  0  0  0
  -25.8077  -30.8847   27.0200 H   0  0  0  0  0  0
  -26.2822  -29.6802   24.1119 H   0  0  0  0  0  0
  -27.4051  -29.7260   25.4517 H   0  0  0  0  0  0
  -27.8655  -30.4352   23.9211 H   0  0  0  0  0  0
  -27.2678  -33.3585   26.2066 H   0  0  0  0  0  0
  -28.3839  -32.6843   25.0277 H   0  0  0  0  0  0
  -28.0718  -31.8387   26.5352 H   0  0  0  0  0  0
  -28.2601  -38.0107   24.7527 H   0  0  0  0  0  0
  -28.1086  -36.2642   24.6276 H   0  0  0  0  0  0
  -27.2306  -37.1436   25.8867 H   0  0  0  0  0  0
  -20.9291  -29.8708   21.6919 H   0  0  0  0  0  0
  -26.0191  -38.2874   24.1416 H   0  0  0  0  0  0
  -29.5716  -18.6398   17.0016 H   0  0  0  0  0  0
  -29.9364  -20.7152   18.3229 H   0  0  0  0  0  0
  -30.2052  -18.4257   22.0509 H   0  0  0  0  0  0
  -30.0761  -15.4523   17.9959 H   0  0  0  0  0  0
  -28.3641  -15.9536   18.3349 H   0  0  0  0  0  0
  -28.7360  -15.7749   20.8183 H   0  0  0  0  0  0
  -32.0974  -23.0511   20.2469 H   0  0  0  0  0  0
  -31.8766  -24.7415   20.6652 H   0  0  0  0  0  0
  -31.0471  -24.0542   19.2752 H   0  0  0  0  0  0
  -31.5452  -22.4803   22.6388 H   0  0  0  0  0  0
  -29.9554  -22.8414   23.3099 H   0  0  0  0  0  0
  -31.1373  -24.1174   23.0723 H   0  0  0  0  0  0
  -28.3741  -24.4055   22.0222 H   0  0  0  0  0  0
  -29.6964  -25.4918   21.8152 H   0  0  0  0  0  0
  -27.5162  -24.8094   19.9307 H   0  0  0  0  0  0
  -29.0506  -25.0327   19.1527 H   0  0  0  0  0  0
  -30.7737  -21.0166   21.7715 H   0  0  0  0  0  0
  1 25  1  0  0  0
  1 30  2  0  0  0
  1 79  1  0  0  0
  2  3  1  0  0  0
  2 25  1  0  0  0
  2 87  1  0  0  0
  2 88  1  0  0  0
  3  4  1  0  0  0
  3 89  1  0  0  0
  3 90  1  0  0  0
  4  5  1  0  0  0
  4 91  1  0  0  0
  4 92  1  0  0  0
  5  6  1  0  0  0
  5 26  1  0  0  0
  5 93  1  0  0  0
  6 25  1  0  0  0
  6 94  1  0  0  0
  6 95  1  0  0  0
  7  8  2  0  0  0
  7 26  1  0  0  0
  7 29  1  0  0  0
  8  9  1  0  0  0
  8 22  1  0  0  0
  9 10  1  0  0  0
  9 27  2  0  0  0
 10 11  2  0  0  0
 10 15  1  0  0  0
 11 12  1  0  0  0
 11 96  1  0  0  0
 12 13  2  0  0  0
 12 97  1  0  0  0
 13 14  1  0  0  0
 13 31  1  0  0  0
 14 15  2  0  0  0
 14 98  1  0  0  0
 15 99  1  0  0  0
 16 17  2  0  0  0
 16 21  1  0  0  0
 16 31  1  0  0  0
 17 18  1  0  0  0
 17100  1  0  0  0
 18 19  2  0  0  0
 18101  1  0  0  0
 19 20  1  0  0  0
 19 24  1  0  0  0
 20 21  2  0  0  0
 20102  1  0  0  0
 21 23  1  0  0  0
 22 28  1  0  0  0
 22 32  2  0  0  0
 26 27  1  0  0  0
 28103  1  0  0  0
 28104  1  0  0  0
 29105  1  0  0  0
 29106  1  0  0  0
 33 34  1  0  0  0
 33 66  1  0  0  0
 33 70  2  0  0  0
 34 36  1  0  0  0
 34 59  1  0  0  0
 34107  1  0  0  0
 35 44  2  0  0  0
 35 45  1  0  0  0
 35 68  1  0  0  0
 36 56  1  0  0  0
 36108  1  0  0  0
 37 39  1  0  0  0
 37 47  1  0  0  0
 37 66  1  0  0  0
 37109  1  0  0  0
 38 43  2  0  0  0
 38 46  1  0  0  0
 38 47  1  0  0  0
 39 64  1  0  0  0
 39 67  2  0  0  0
 40 52  1  0  0  0
 40 53  2  0  0  0
 40 58  1  0  0  0
 41110  1  0  0  0
 41111  1  0  0  0
 41112  1  0  0  0
 41 48  1  0  0  0
 42 43  1  0  0  0
 42 66  1  0  0  0
 42113  1  0  0  0
 42114  1  0  0  0
 43 44  1  0  0  0
 44115  1  0  0  0
 45 46  2  0  0  0
 45116  1  0  0  0
 46117  1  0  0  0
 47118  1  0  0  0
 47119  1  0  0  0
 48 56  1  0  0  0
 48 65  1  0  0  0
 48120  1  0  0  0
 49 50  1  0  0  0
 49 53  1  0  0  0
 49 64  1  0  0  0
 49121  1  0  0  0
 50 51  1  0  0  0
 50122  1  0  0  0
 50123  1  0  0  0
 51 52  1  0  0  0
 51124  1  0  0  0
 51125  1  0  0  0
 52126  1  0  0  0
 52127  1  0  0  0
 53 54  1  0  0  0
 54 55  2  0  0  0
 54128  1  0  0  0
 55 57  1  0  0  0
 55129  1  0  0  0
 56 69  2  0  0  0
 57 58  2  0  0  0
 57130  1  0  0  0
 58131  1  0  0  0
 59 60  1  0  0  0
 59 61  1  0  0  0
 59 62  1  0  0  0
 60132  1  0  0  0
 60133  1  0  0  0
 60134  1  0  0  0
 61135  1  0  0  0
 61136  1  0  0  0
 61137  1  0  0  0
 62138  1  0  0  0
 62139  1  0  0  0
 62140  1  0  0  0
 63 65  1  0  0  0
 63141  1  0  0  0
 63142  1  0  0  0
 63143  1  0  0  0
 64144  1  0  0  0
 65145  1  0  0  0
 68 83  1  0  0  0
 71 72  2  0  0  0
 71 74  1  0  0  0
 71146  1  0  0  0
 72 76  1  0  0  0
 72147  1  0  0  0
 73 75  1  0  0  0
 73 76  2  0  0  0
 73148  1  0  0  0
 74 75  2  0  0  0
 74 78  1  0  0  0
 75 79  1  0  0  0
 76 85  1  0  0  0
 77 84  1  0  0  0
 77 85  1  0  0  0
 77 86  2  0  0  0
 78 79  1  0  0  0
 78149  1  0  0  0
 78150  1  0  0  0
 79151  1  0  0  0
 80152  1  0  0  0
 80153  1  0  0  0
 80154  1  0  0  0
 80 84  1  0  0  0
 81 84  1  0  0  0
 81155  1  0  0  0
 81156  1  0  0  0
 81157  1  0  0  0
 82 83  1  0  0  0
 82 84  1  0  0  0
 82158  1  0  0  0
 82159  1  0  0  0
 83160  1  0  0  0
 83161  1  0  0  0
 85162  1  0  0  0
M  ISO  4   1 100  68 101  79 100  83 101
M  END
> <chiral flag>
0

> <version>
0

> <s_m_source_file>
/data/baiqing/PycharmProjects/Reinvent-master-3.2/result/LINK_invent/BTK/process_docking_weight1_custom_product_contain_oxygen_bond_distance_aromatic_linkinvent_7_9_3/rearranged_h_0146.sdf

> <i_m_source_file_index>
64

> <r_mmod_Potential_Energy-OPLS-2005>
459.89501953125

> <r_mmod_Stretch_Energy-OPLS-2005>
69.3588333129883

> <r_mmod_Bend_Energy-OPLS-2005>
471.636779785156

> <r_mmod_Torsional_Energy-OPLS-2005>
281.918304443359

> <r_mmod_Improper_Torsional_Energy-OPLS-2005>
23.2278861999512

> <r_mmod_Van_der_Waal_Energy-OPLS-2005>
156.799331665039

> <r_mmod_Electrostatic_Energy-OPLS-2005>
-359.735900878906

> <r_mmod_Solvation_Energy-OPLS-2005>
-216.800369262695

> <b_mmod_Minimization_Converged-OPLS-2005>
0

> <r_mmod_RMS_Derivative-OPLS-2005>
2.1914234161377

$$$$
64
                    3D
 Structure written by MMmdl.
161169  0  0  1  0            999 V2000
  -30.6950  -14.4170   20.6246 C   0  0  0  0  0  0
  -30.4346  -12.2890   19.4009 C   0  0  0  0  0  0
  -29.4997  -12.5181   18.1949 C   0  0  0  0  0  0
  -28.0179  -12.3821   18.6027 C   0  0  0  0  0  0
  -27.6717  -13.1942   19.8795 C   0  0  2  0  0  0
  -28.7078  -12.9116   20.9900 C   0  0  0  0  0  0
  -25.2650  -13.8145   20.5659 C   0  0  0  0  0  0
  -24.1872  -13.0445   20.9153 C   0  0  0  0  0  0
  -24.6393  -11.6900   20.8699 C   0  0  0  0  0  0
  -23.9045  -10.4300   21.0378 C   0  0  0  0  0  0
  -24.3604   -9.4221   21.9162 C   0  0  0  0  0  0
  -23.6296   -8.2248   22.0739 C   0  0  0  0  0  0
  -22.4278   -8.0280   21.3533 C   0  0  0  0  0  0
  -21.9899   -9.0247   20.4638 C   0  0  0  0  0  0
  -22.7210  -10.2133   20.3037 C   0  0  0  0  0  0
  -21.6850   -6.0739   22.5284 C   0  0  0  0  0  0
  -21.4006   -6.5641   23.8220 C   0  0  0  0  0  0
  -21.3657   -5.6784   24.9179 C   0  0  0  0  0  0
  -21.6050   -4.3051   24.7218 C   0  0  0  0  0  0
  -21.8819   -3.8148   23.4333 C   0  0  0  0  0  0
  -21.9191   -4.6971   22.3401 C   0  0  0  0  0  0
  -22.7900  -13.5263   21.1818 C   0  0  0  0  0  0
  -22.1663   -4.2155   21.0975 F   0  0  0  0  0  0
  -21.5628   -3.4532   25.7729 F   0  0  0  0  0  0
  -30.0506  -13.2306   20.4627 N   0  0  0  0  0  0
  -26.3072  -12.9284   20.3339 N   0  0  0  0  0  0
  -25.9313  -11.6450   20.5705 N   0  0  0  0  0  0
  -22.0507  -12.8281   22.0377 N   0  0  0  0  0  0
  -25.4417  -15.1862   20.4115 N   0  0  0  0  0  0
  -31.7640  -14.6940   20.0692 O   0  0  0  0  0  0
  -21.6632   -6.8886   21.4247 O   0  0  0  0  0  0
  -22.3605  -14.5576   20.6664 O   0  0  0  0  0  0
  -24.6111  -31.8692   23.2110 C   0  0  0  0  0  0
  -25.9017  -32.4827   23.8392 C   0  0  1  0  0  0
  -27.2483  -27.4632   20.0735 C   0  0  0  0  0  0
  -25.5889  -33.8630   24.2324 N   0  0  0  0  0  0
  -23.3980  -30.4905   21.5514 C   0  0  2  0  0  0
  -24.8454  -28.9550   20.1175 C   0  0  0  0  0  0
  -22.7387  -29.4653   22.5010 C   0  0  0  0  0  0
  -18.0263  -28.1380   22.8492 C   0  0  0  0  0  0
  -24.1489  -36.7320   23.2642 C   0  0  0  0  0  0
  -25.9240  -30.8377   21.3632 C   0  0  0  0  0  0
  -26.0009  -29.4719   20.7144 C   0  0  0  0  0  0
  -27.1985  -28.7260   20.7021 C   0  0  0  0  0  0
  -26.0679  -26.9419   19.4965 C   0  0  0  0  0  0
  -24.8702  -27.6849   19.5141 C   0  0  0  0  0  0
  -23.6057  -29.8192   20.1663 C   0  0  0  0  0  0
  -25.4111  -36.3120   24.0337 C   0  0  1  0  0  0
  -20.5849  -28.3652   23.1345 C   0  0  2  0  0  0
  -20.6757  -26.9396   22.5434 C   0  0  0  0  0  0
  -19.5745  -26.6388   21.5221 C   0  0  0  0  0  0
  -18.1916  -26.7927   22.1617 C   0  0  0  0  0  0
  -19.1511  -28.8831   23.2913 C   0  0  0  0  0  0
  -18.9439  -30.1441   23.8914 C   0  0  0  0  0  0
  -17.6445  -30.6589   24.0567 C   0  0  0  0  0  0
  -25.9027  -34.9484   23.5122 C   0  0  0  0  0  0
  -16.5335  -29.9092   23.6334 C   0  0  0  0  0  0
  -16.7252  -28.6515   23.0344 C   0  0  0  0  0  0
  -26.4468  -31.6607   25.0713 C   0  0  0  0  0  0
  -25.3752  -31.3722   26.1481 C   0  0  0  0  0  0
  -27.0287  -30.3046   24.6079 C   0  0  0  0  0  0
  -27.6053  -32.4331   25.7459 C   0  0  0  0  0  0
  -27.5581  -37.1814   24.8465 C   0  0  0  0  0  0
  -21.4118  -29.3021   22.3752 N   0  0  0  0  0  0
  -26.4301  -37.3795   23.9400 N   0  0  0  0  0  0
  -24.6621  -31.0800   22.1007 N   0  0  0  0  0  0
  -23.4173  -28.8214   23.3055 O   0  0  0  0  0  0
  -28.4517  -26.7910   20.0761 O   0  0  0  0  0  0
  -26.5588  -34.8932   22.4682 O   0  0  0  0  0  0
  -23.5312  -32.1444   23.7519 O   0  0  0  0  0  0
  -30.5560  -17.5581   20.4145 C   0  0  0  0  0  0
  -28.6245  -17.1965   21.7006 C   0  0  0  0  0  0
  -29.7653  -16.6427   21.1841 C   0  0  0  0  0  0
  -29.9797  -18.8081   20.3335 C   0  0  0  0  0  0
  -30.5712  -22.4254   19.9300 C   0  0  0  0  0  0
  -31.5494  -24.7060   19.5545 C   0  0  0  0  0  0
  -30.4641  -23.5266   17.6372 C   0  0  0  0  0  0
  -29.7355  -21.1913   19.5384 C   0  0  0  0  0  0
  -28.7694  -25.8864   19.0162 C   0  0  0  0  0  0
  -29.0039  -24.4485   19.5679 C   0  0  2  0  0  0
  -30.3662  -23.7724   19.1648 C   0  0  0  0  0  0
  -30.0517  -15.2735   21.4342 N   0  0  0  0  0  0
  -30.4818  -19.9275   19.6604 N   0  0  0  0  0  0
  -31.3906  -22.3241   20.8521 O   0  0  0  0  0  0
  -27.8819  -23.6701   19.1724 O   0  0  0  0  0  0
  -28.4681  -18.8597   21.2214 S   0  0  0  0  0  0
  -31.4787  -12.4046   19.1020 H   0  0  0  0  0  0
  -30.3450  -11.2642   19.7620 H   0  0  0  0  0  0
  -29.7344  -11.8064   17.4025 H   0  0  0  0  0  0
  -29.6751  -13.5104   17.7759 H   0  0  0  0  0  0
  -27.8153  -11.3242   18.7711 H   0  0  0  0  0  0
  -27.3728  -12.6846   17.7774 H   0  0  0  0  0  0
  -27.7370  -14.2507   19.6181 H   0  0  0  0  0  0
  -28.6742  -11.8574   21.2695 H   0  0  0  0  0  0
  -28.4535  -13.4496   21.9033 H   0  0  0  0  0  0
  -25.2741   -9.5711   22.4742 H   0  0  0  0  0  0
  -24.0009   -7.4645   22.7458 H   0  0  0  0  0  0
  -21.0822   -8.8755   19.8957 H   0  0  0  0  0  0
  -22.3650  -10.9670   19.6153 H   0  0  0  0  0  0
  -21.1992   -7.6149   23.9728 H   0  0  0  0  0  0
  -21.1484   -6.0510   25.9087 H   0  0  0  0  0  0
  -22.0603   -2.7612   23.2820 H   0  0  0  0  0  0
  -22.4079  -11.9961   22.4827 H   0  0  0  0  0  0
  -21.1116  -13.1332   22.2518 H   0  0  0  0  0  0
  -24.6793  -15.8443   20.5273 H   0  0  0  0  0  0
  -26.2996  -15.6239   20.0986 H   0  0  0  0  0  0
  -26.7081  -32.5552   23.1153 H   0  0  0  0  0  0
  -25.0046  -33.9794   25.0473 H   0  0  0  0  0  0
  -22.6856  -31.3065   21.4118 H   0  0  0  0  0  0
  -23.3737  -35.9669   23.3339 H   0  0  0  0  0  0
  -24.3576  -36.8894   22.2048 H   0  0  0  0  0  0
  -23.7263  -37.6545   23.6630 H   0  0  0  0  0  0
  -26.0316  -31.6030   20.5930 H   0  0  0  0  0  0
  -26.8136  -30.8929   21.9787 H   0  0  0  0  0  0
  -28.0927  -29.1242   21.1607 H   0  0  0  0  0  0
  -26.0560  -25.9609   19.0453 H   0  0  0  0  0  0
  -23.9776  -27.2727   19.0651 H   0  0  0  0  0  0
  -23.7131  -30.5923   19.4044 H   0  0  0  0  0  0
  -22.7302  -29.2363   19.8734 H   0  0  0  0  0  0
  -25.1292  -36.1982   25.0831 H   0  0  0  0  0  0
  -20.9934  -28.3215   24.1468 H   0  0  0  0  0  0
  -20.5673  -26.2251   23.3610 H   0  0  0  0  0  0
  -21.6631  -26.7462   22.1223 H   0  0  0  0  0  0
  -19.6909  -25.6305   21.1236 H   0  0  0  0  0  0
  -19.6697  -27.3209   20.6763 H   0  0  0  0  0  0
  -17.4200  -26.6692   21.4006 H   0  0  0  0  0  0
  -18.0297  -26.0063   22.9004 H   0  0  0  0  0  0
  -19.7917  -30.7252   24.2290 H   0  0  0  0  0  0
  -17.5005  -31.6272   24.5164 H   0  0  0  0  0  0
  -15.5336  -30.3000   23.7656 H   0  0  0  0  0  0
  -15.8651  -28.0851   22.7037 H   0  0  0  0  0  0
  -24.5905  -30.7078   25.7839 H   0  0  0  0  0  0
  -24.8964  -32.2885   26.4948 H   0  0  0  0  0  0
  -25.8122  -30.8887   27.0226 H   0  0  0  0  0  0
  -26.2810  -29.6802   24.1167 H   0  0  0  0  0  0
  -27.4093  -29.7286   25.4525 H   0  0  0  0  0  0
  -27.8637  -30.4357   23.9189 H   0  0  0  0  0  0
  -27.2666  -33.3608   26.2087 H   0  0  0  0  0  0
  -28.3826  -32.6934   25.0261 H   0  0  0  0  0  0
  -28.0767  -31.8432   26.5331 H   0  0  0  0  0  0
  -28.2631  -38.0081   24.7480 H   0  0  0  0  0  0
  -28.1043  -36.2612   24.6326 H   0  0  0  0  0  0
  -27.2299  -37.1519   25.8870 H   0  0  0  0  0  0
  -20.9270  -29.8722   21.6963 H   0  0  0  0  0  0
  -26.0193  -38.2877   24.1385 H   0  0  0  0  0  0
  -31.4915  -17.2813   19.9506 H   0  0  0  0  0  0
  -27.8504  -16.7467   22.3110 H   0  0  0  0  0  0
  -32.5093  -24.1885   19.5086 H   0  0  0  0  0  0
  -31.4331  -25.0908   20.5689 H   0  0  0  0  0  0
  -31.6558  -25.5643   18.8928 H   0  0  0  0  0  0
  -31.3118  -22.8851   17.3931 H   0  0  0  0  0  0
  -30.6046  -24.4551   17.0848 H   0  0  0  0  0  0
  -29.5739  -23.0521   17.2263 H   0  0  0  0  0  0
  -29.3791  -21.2924   18.5136 H   0  0  0  0  0  0
  -28.8458  -21.2095   20.1644 H   0  0  0  0  0  0
  -28.0640  -25.9051   18.1847 H   0  0  0  0  0  0
  -29.6758  -26.2873   18.5705 H   0  0  0  0  0  0
  -28.9782  -24.4997   20.6587 H   0  0  0  0  0  0
  -29.3562  -14.8049   21.9940 H   0  0  0  0  0  0
  -31.4323  -19.9521   19.2992 H   0  0  0  0  0  0
  -27.7676  -23.7799   18.2343 H   0  0  0  0  0  0
  1 25  1  0  0  0
  1 30  2  0  0  0
  1 82  1  0  0  0
  2  3  1  0  0  0
  2 25  1  0  0  0
  2 87  1  0  0  0
  2 88  1  0  0  0
  3  4  1  0  0  0
  3 89  1  0  0  0
  3 90  1  0  0  0
  4  5  1  0  0  0
  4 91  1  0  0  0
  4 92  1  0  0  0
  5  6  1  0  0  0
  5 26  1  0  0  0
  5 93  1  0  0  0
  6 25  1  0  0  0
  6 94  1  0  0  0
  6 95  1  0  0  0
  7  8  2  0  0  0
  7 26  1  0  0  0
  7 29  1  0  0  0
  8  9  1  0  0  0
  8 22  1  0  0  0
  9 10  1  0  0  0
  9 27  2  0  0  0
 10 11  2  0  0  0
 10 15  1  0  0  0
 11 12  1  0  0  0
 11 96  1  0  0  0
 12 13  2  0  0  0
 12 97  1  0  0  0
 13 14  1  0  0  0
 13 31  1  0  0  0
 14 15  2  0  0  0
 14 98  1  0  0  0
 15 99  1  0  0  0
 16 17  2  0  0  0
 16 21  1  0  0  0
 16 31  1  0  0  0
 17 18  1  0  0  0
 17100  1  0  0  0
 18 19  2  0  0  0
 18101  1  0  0  0
 19 20  1  0  0  0
 19 24  1  0  0  0
 20 21  2  0  0  0
 20102  1  0  0  0
 21 23  1  0  0  0
 22 28  1  0  0  0
 22 32  2  0  0  0
 26 27  1  0  0  0
 28103  1  0  0  0
 28104  1  0  0  0
 29105  1  0  0  0
 29106  1  0  0  0
 33 34  1  0  0  0
 33 66  1  0  0  0
 33 70  2  0  0  0
 34 36  1  0  0  0
 34 59  1  0  0  0
 34107  1  0  0  0
 35 44  2  0  0  0
 35 45  1  0  0  0
 35 68  1  0  0  0
 36 56  1  0  0  0
 36108  1  0  0  0
 37 39  1  0  0  0
 37 47  1  0  0  0
 37 66  1  0  0  0
 37109  1  0  0  0
 38 43  2  0  0  0
 38 46  1  0  0  0
 38 47  1  0  0  0
 39 64  1  0  0  0
 39 67  2  0  0  0
 40 52  1  0  0  0
 40 53  2  0  0  0
 40 58  1  0  0  0
 41110  1  0  0  0
 41111  1  0  0  0
 41112  1  0  0  0
 41 48  1  0  0  0
 42 43  1  0  0  0
 42 66  1  0  0  0
 42113  1  0  0  0
 42114  1  0  0  0
 43 44  1  0  0  0
 44115  1  0  0  0
 45 46  2  0  0  0
 45116  1  0  0  0
 46117  1  0  0  0
 47118  1  0  0  0
 47119  1  0  0  0
 48 56  1  0  0  0
 48 65  1  0  0  0
 48120  1  0  0  0
 49 50  1  0  0  0
 49 53  1  0  0  0
 49 64  1  0  0  0
 49121  1  0  0  0
 50 51  1  0  0  0
 50122  1  0  0  0
 50123  1  0  0  0
 51 52  1  0  0  0
 51124  1  0  0  0
 51125  1  0  0  0
 52126  1  0  0  0
 52127  1  0  0  0
 53 54  1  0  0  0
 54 55  2  0  0  0
 54128  1  0  0  0
 55 57  1  0  0  0
 55129  1  0  0  0
 56 69  2  0  0  0
 57 58  2  0  0  0
 57130  1  0  0  0
 58131  1  0  0  0
 59 60  1  0  0  0
 59 61  1  0  0  0
 59 62  1  0  0  0
 60132  1  0  0  0
 60133  1  0  0  0
 60134  1  0  0  0
 61135  1  0  0  0
 61136  1  0  0  0
 61137  1  0  0  0
 62138  1  0  0  0
 62139  1  0  0  0
 62140  1  0  0  0
 63 65  1  0  0  0
 63141  1  0  0  0
 63142  1  0  0  0
 63143  1  0  0  0
 64144  1  0  0  0
 65145  1  0  0  0
 68 79  1  0  0  0
 71 73  1  0  0  0
 71 74  2  0  0  0
 71146  1  0  0  0
 72 73  2  0  0  0
 72 86  1  0  0  0
 72147  1  0  0  0
 73 82  1  0  0  0
 74 83  1  0  0  0
 74 86  1  0  0  0
 75 78  1  0  0  0
 75 81  1  0  0  0
 75 84  2  0  0  0
 76148  1  0  0  0
 76149  1  0  0  0
 76150  1  0  0  0
 76 81  1  0  0  0
 77 81  1  0  0  0
 77151  1  0  0  0
 77152  1  0  0  0
 77153  1  0  0  0
 78 83  1  0  0  0
 78154  1  0  0  0
 78155  1  0  0  0
 79 80  1  0  0  0
 79156  1  0  0  0
 79157  1  0  0  0
 80 81  1  0  0  0
 80 85  1  0  0  0
 80158  1  0  0  0
 82159  1  0  0  0
 83160  1  0  0  0
 85161  1  0  0  0
M  ISO  4   1 100  68 101  79 101  82 100
M  END
> <chiral flag>
0

> <version>
0

> <s_m_source_file>
/data/baiqing/PycharmProjects/Reinvent-master-3.2/result/LINK_invent/BTK/process_docking_weight1_custom_product_contain_oxygen_bond_distance_aromatic_linkinvent_7_9_3/rearranged_h_0146.sdf

> <i_m_source_file_index>
65

> <r_mmod_Potential_Energy-OPLS-2005>
25.9553375244141

> <r_mmod_Stretch_Energy-OPLS-2005>
40.1272659301758

> <r_mmod_Bend_Energy-OPLS-2005>
120.497703552246

> <r_mmod_Torsional_Energy-OPLS-2005>
234.152267456055

> <r_mmod_Improper_Torsional_Energy-OPLS-2005>
4.52915143966675

> <r_mmod_Van_der_Waal_Energy-OPLS-2005>
146.527481079102

> <r_mmod_Electrostatic_Energy-OPLS-2005>
-276.716430664062

> <r_mmod_Solvation_Energy-OPLS-2005>
-252.170532226562

> <b_mmod_Minimization_Converged-OPLS-2005>
0

> <r_mmod_RMS_Derivative-OPLS-2005>
1.76285207271576

$$$$
65
                    3D
 Structure written by MMmdl.
161170  0  0  1  0            999 V2000
  -30.6874  -14.5363   20.4964 C   0  0  0  0  0  0
  -30.4153  -12.3257   19.4550 C   0  0  0  0  0  0
  -29.4906  -12.4744   18.2269 C   0  0  0  0  0  0
  -28.0146  -12.3401   18.6413 C   0  0  0  0  0  0
  -27.6507  -13.2120   19.8716 C   0  0  2  0  0  0
  -28.6940  -13.0693   21.0019 C   0  0  0  0  0  0
  -25.2520  -13.8174   20.5691 C   0  0  0  0  0  0
  -24.1795  -13.0452   20.9194 C   0  0  0  0  0  0
  -24.6364  -11.6911   20.8762 C   0  0  0  0  0  0
  -23.9049  -10.4296   21.0429 C   0  0  0  0  0  0
  -24.3621   -9.4207   21.9187 C   0  0  0  0  0  0
  -23.6309   -8.2236   22.0750 C   0  0  0  0  0  0
  -22.4291   -8.0272   21.3542 C   0  0  0  0  0  0
  -21.9932   -9.0244   20.4644 C   0  0  0  0  0  0
  -22.7236  -10.2131   20.3063 C   0  0  0  0  0  0
  -21.6850   -6.0744   22.5284 C   0  0  0  0  0  0
  -21.4004   -6.5647   23.8214 C   0  0  0  0  0  0
  -21.3661   -5.6796   24.9173 C   0  0  0  0  0  0
  -21.6055   -4.3062   24.7225 C   0  0  0  0  0  0
  -21.8809   -3.8158   23.4342 C   0  0  0  0  0  0
  -21.9188   -4.6977   22.3404 C   0  0  0  0  0  0
  -22.7809  -13.5229   21.1870 C   0  0  0  0  0  0
  -22.1645   -4.2165   21.0982 F   0  0  0  0  0  0
  -21.5669   -3.4544   25.7737 F   0  0  0  0  0  0
  -30.0181  -13.3521   20.4330 N   0  0  0  0  0  0
  -26.2961  -12.9352   20.3391 N   0  0  0  0  0  0
  -25.9300  -11.6507   20.5841 N   0  0  0  0  0  0
  -22.0462  -12.8215   22.0428 N   0  0  0  0  0  0
  -25.4248  -15.1886   20.4069 N   0  0  0  0  0  0
  -31.8767  -14.6370   20.1839 O   0  0  0  0  0  0
  -21.6636   -6.8882   21.4245 O   0  0  0  0  0  0
  -22.3502  -14.5547   20.6735 O   0  0  0  0  0  0
  -24.6143  -31.8652   23.2105 C   0  0  0  0  0  0
  -25.9037  -32.4813   23.8389 C   0  0  1  0  0  0
  -27.2366  -27.4060   20.1163 C   0  0  0  0  0  0
  -25.5869  -33.8604   24.2314 N   0  0  0  0  0  0
  -23.4035  -30.4900   21.5497 C   0  0  2  0  0  0
  -24.8514  -28.9520   20.1155 C   0  0  0  0  0  0
  -22.7413  -29.4643   22.4974 C   0  0  0  0  0  0
  -18.0289  -28.1371   22.8514 C   0  0  0  0  0  0
  -24.1486  -36.7311   23.2642 C   0  0  0  0  0  0
  -25.9339  -30.8232   21.3686 C   0  0  0  0  0  0
  -26.0105  -29.4571   20.7144 C   0  0  0  0  0  0
  -27.2018  -28.6931   20.7089 C   0  0  0  0  0  0
  -26.0484  -26.9138   19.5236 C   0  0  0  0  0  0
  -24.8668  -27.6822   19.5147 C   0  0  0  0  0  0
  -23.6146  -29.8231   20.1638 C   0  0  0  0  0  0
  -25.4105  -36.3104   24.0338 C   0  0  1  0  0  0
  -20.5872  -28.3686   23.1334 C   0  0  2  0  0  0
  -20.6790  -26.9407   22.5465 C   0  0  0  0  0  0
  -19.5757  -26.6305   21.5303 C   0  0  0  0  0  0
  -18.1939  -26.7903   22.1688 C   0  0  0  0  0  0
  -19.1531  -28.8850   23.2899 C   0  0  0  0  0  0
  -18.9456  -30.1471   23.8866 C   0  0  0  0  0  0
  -17.6446  -30.6589   24.0546 C   0  0  0  0  0  0
  -25.9023  -34.9461   23.5126 C   0  0  0  0  0  0
  -16.5339  -29.9088   23.6321 C   0  0  0  0  0  0
  -16.7270  -28.6499   23.0353 C   0  0  0  0  0  0
  -26.4461  -31.6610   25.0724 C   0  0  0  0  0  0
  -25.3725  -31.3718   26.1469 C   0  0  0  0  0  0
  -27.0314  -30.3048   24.6147 C   0  0  0  0  0  0
  -27.6041  -32.4333   25.7476 C   0  0  0  0  0  0
  -27.5583  -37.1811   24.8464 C   0  0  0  0  0  0
  -21.4149  -29.3036   22.3711 N   0  0  0  0  0  0
  -26.4295  -37.3787   23.9405 N   0  0  0  0  0  0
  -24.6688  -31.0736   22.1016 N   0  0  0  0  0  0
  -23.4164  -28.8206   23.3054 O   0  0  0  0  0  0
  -28.4242  -26.6931   20.1612 O   0  0  0  0  0  0
  -26.5602  -34.8918   22.4697 O   0  0  0  0  0  0
  -23.5338  -32.1424   23.7497 O   0  0  0  0  0  0
  -29.2652  -19.2583   20.4743 C   0  0  0  0  0  0
  -27.3126  -20.0030   19.1928 C   0  0  0  0  0  0
  -29.2171  -18.0195   19.7703 C   0  0  0  0  0  0
  -28.3081  -17.8615   18.7227 C   0  0  0  0  0  0
  -27.3018  -18.8042   18.4570 C   0  0  0  0  0  0
  -28.3512  -20.3011   20.1139 C   0  0  0  0  0  0
  -28.2417  -22.7883   19.8986 C   0  0  0  0  0  0
  -28.7040  -16.7238   17.8256 C   0  0  0  0  0  0
  -30.1593  -16.4737   18.2545 C   0  0  0  0  0  0
  -30.2418  -16.8715   19.7545 C   0  0  2  0  0  0
  -26.2828  -18.6023   17.3521 C   0  0  0  0  0  0
  -28.2577  -24.1793   20.5862 C   0  0  0  0  0  0
  -28.5359  -25.3667   19.6019 C   0  0  0  0  0  0
  -28.4648  -21.6506   20.6186 N   0  0  0  0  0  0
  -29.9131  -15.6496   20.5378 N   0  0  0  0  0  0
  -28.0336  -22.7573   18.6833 O   0  0  0  0  0  0
  -31.4596  -12.4230   19.1528 H   0  0  0  0  0  0
  -30.3182  -11.3305   19.8929 H   0  0  0  0  0  0
  -29.7343  -11.7270   17.4715 H   0  0  0  0  0  0
  -29.6456  -13.4437   17.7547 H   0  0  0  0  0  0
  -27.8345  -11.2889   18.8711 H   0  0  0  0  0  0
  -27.3580  -12.5834   17.8041 H   0  0  0  0  0  0
  -27.6707  -14.2461   19.5335 H   0  0  0  0  0  0
  -28.6774  -12.0583   21.4114 H   0  0  0  0  0  0
  -28.4634  -13.7405   21.8320 H   0  0  0  0  0  0
  -25.2756   -9.5702   22.4771 H   0  0  0  0  0  0
  -24.0015   -7.4624   22.7459 H   0  0  0  0  0  0
  -21.0876   -8.8763   19.8949 H   0  0  0  0  0  0
  -22.3676  -10.9682   19.6199 H   0  0  0  0  0  0
  -21.1963   -7.6150   23.9718 H   0  0  0  0  0  0
  -21.1504   -6.0532   25.9078 H   0  0  0  0  0  0
  -22.0584   -2.7628   23.2830 H   0  0  0  0  0  0
  -22.4071  -11.9876   22.4822 H   0  0  0  0  0  0
  -21.1084  -13.1246   22.2636 H   0  0  0  0  0  0
  -24.6586  -15.8434   20.5107 H   0  0  0  0  0  0
  -26.2787  -15.6300   20.0944 H   0  0  0  0  0  0
  -26.7105  -32.5511   23.1152 H   0  0  0  0  0  0
  -25.0023  -33.9754   25.0462 H   0  0  0  0  0  0
  -22.6928  -31.3070   21.4104 H   0  0  0  0  0  0
  -23.3748  -35.9646   23.3321 H   0  0  0  0  0  0
  -24.3595  -36.8904   22.2054 H   0  0  0  0  0  0
  -23.7226  -37.6513   23.6653 H   0  0  0  0  0  0
  -26.0564  -31.5939   20.6058 H   0  0  0  0  0  0
  -26.8173  -30.8712   21.9934 H   0  0  0  0  0  0
  -28.0960  -29.0820   21.1775 H   0  0  0  0  0  0
  -25.9993  -25.9324   19.0798 H   0  0  0  0  0  0
  -23.9736  -27.2836   19.0553 H   0  0  0  0  0  0
  -23.7267  -30.5998   19.4051 H   0  0  0  0  0  0
  -22.7387  -29.2467   19.8650 H   0  0  0  0  0  0
  -25.1291  -36.1981   25.0834 H   0  0  0  0  0  0
  -20.9968  -28.3266   24.1460 H   0  0  0  0  0  0
  -20.5755  -26.2338   23.3702 H   0  0  0  0  0  0
  -21.6649  -26.7440   22.1241 H   0  0  0  0  0  0
  -19.6889  -25.6160   21.1453 H   0  0  0  0  0  0
  -19.6717  -27.3004   20.6746 H   0  0  0  0  0  0
  -17.4220  -26.6645   21.4093 H   0  0  0  0  0  0
  -18.0317  -26.0089   22.9127 H   0  0  0  0  0  0
  -19.7924  -30.7319   24.2192 H   0  0  0  0  0  0
  -17.4983  -31.6281   24.5095 H   0  0  0  0  0  0
  -15.5339  -30.3001   23.7604 H   0  0  0  0  0  0
  -15.8664  -28.0809   22.7071 H   0  0  0  0  0  0
  -24.5881  -30.7093   25.7802 H   0  0  0  0  0  0
  -24.8935  -32.2876   26.4940 H   0  0  0  0  0  0
  -25.8048  -30.8856   27.0223 H   0  0  0  0  0  0
  -26.2887  -29.6777   24.1207 H   0  0  0  0  0  0
  -27.4083  -29.7310   25.4628 H   0  0  0  0  0  0
  -27.8723  -30.4362   23.9332 H   0  0  0  0  0  0
  -27.2670  -33.3626   26.2089 H   0  0  0  0  0  0
  -28.3827  -32.6908   25.0278 H   0  0  0  0  0  0
  -28.0763  -31.8443   26.5354 H   0  0  0  0  0  0
  -28.2616  -38.0102   24.7517 H   0  0  0  0  0  0
  -28.1072  -36.2627   24.6305 H   0  0  0  0  0  0
  -27.2309  -37.1479   25.8875 H   0  0  0  0  0  0
  -20.9323  -29.8729   21.6904 H   0  0  0  0  0  0
  -26.0196  -38.2871   24.1408 H   0  0  0  0  0  0
  -30.0607  -19.4385   21.1853 H   0  0  0  0  0  0
  -26.5660  -20.7489   18.9608 H   0  0  0  0  0  0
  -28.6499  -16.9916   16.7720 H   0  0  0  0  0  0
  -28.0605  -15.8627   18.0022 H   0  0  0  0  0  0
  -30.7900  -17.1709   17.7016 H   0  0  0  0  0  0
  -30.5232  -15.4850   17.9890 H   0  0  0  0  0  0
  -31.2374  -17.2392   20.0149 H   0  0  0  0  0  0
  -25.8523  -19.5552   17.0435 H   0  0  0  0  0  0
  -25.4752  -17.9565   17.6948 H   0  0  0  0  0  0
  -26.7287  -18.1485   16.4689 H   0  0  0  0  0  0
  -29.0014  -24.1810   21.3832 H   0  0  0  0  0  0
  -27.2871  -24.3228   21.0609 H   0  0  0  0  0  0
  -27.9705  -25.2852   18.6740 H   0  0  0  0  0  0
  -29.5762  -25.2767   19.2853 H   0  0  0  0  0  0
  -28.7750  -21.7613   21.5753 H   0  0  0  0  0  0
  -28.9492  -15.5301   20.8055 H   0  0  0  0  0  0
  1 25  1  0  0  0
  1 30  2  0  0  0
  1 85  1  0  0  0
  2  3  1  0  0  0
  2 25  1  0  0  0
  2 87  1  0  0  0
  2 88  1  0  0  0
  3  4  1  0  0  0
  3 89  1  0  0  0
  3 90  1  0  0  0
  4  5  1  0  0  0
  4 91  1  0  0  0
  4 92  1  0  0  0
  5  6  1  0  0  0
  5 26  1  0  0  0
  5 93  1  0  0  0
  6 25  1  0  0  0
  6 94  1  0  0  0
  6 95  1  0  0  0
  7  8  2  0  0  0
  7 26  1  0  0  0
  7 29  1  0  0  0
  8  9  1  0  0  0
  8 22  1  0  0  0
  9 10  1  0  0  0
  9 27  2  0  0  0
 10 11  2  0  0  0
 10 15  1  0  0  0
 11 12  1  0  0  0
 11 96  1  0  0  0
 12 13  2  0  0  0
 12 97  1  0  0  0
 13 14  1  0  0  0
 13 31  1  0  0  0
 14 15  2  0  0  0
 14 98  1  0  0  0
 15 99  1  0  0  0
 16 17  2  0  0  0
 16 21  1  0  0  0
 16 31  1  0  0  0
 17 18  1  0  0  0
 17100  1  0  0  0
 18 19  2  0  0  0
 18101  1  0  0  0
 19 20  1  0  0  0
 19 24  1  0  0  0
 20 21  2  0  0  0
 20102  1  0  0  0
 21 23  1  0  0  0
 22 28  1  0  0  0
 22 32  2  0  0  0
 26 27  1  0  0  0
 28103  1  0  0  0
 28104  1  0  0  0
 29105  1  0  0  0
 29106  1  0  0  0
 33 34  1  0  0  0
 33 66  1  0  0  0
 33 70  2  0  0  0
 34 36  1  0  0  0
 34 59  1  0  0  0
 34107  1  0  0  0
 35 44  2  0  0  0
 35 45  1  0  0  0
 35 68  1  0  0  0
 36 56  1  0  0  0
 36108  1  0  0  0
 37 39  1  0  0  0
 37 47  1  0  0  0
 37 66  1  0  0  0
 37109  1  0  0  0
 38 43  2  0  0  0
 38 46  1  0  0  0
 38 47  1  0  0  0
 39 64  1  0  0  0
 39 67  2  0  0  0
 40 52  1  0  0  0
 40 53  2  0  0  0
 40 58  1  0  0  0
 41110  1  0  0  0
 41111  1  0  0  0
 41112  1  0  0  0
 41 48  1  0  0  0
 42 43  1  0  0  0
 42 66  1  0  0  0
 42113  1  0  0  0
 42114  1  0  0  0
 43 44  1  0  0  0
 44115  1  0  0  0
 45 46  2  0  0  0
 45116  1  0  0  0
 46117  1  0  0  0
 47118  1  0  0  0
 47119  1  0  0  0
 48 56  1  0  0  0
 48 65  1  0  0  0
 48120  1  0  0  0
 49 50  1  0  0  0
 49 53  1  0  0  0
 49 64  1  0  0  0
 49121  1  0  0  0
 50 51  1  0  0  0
 50122  1  0  0  0
 50123  1  0  0  0
 51 52  1  0  0  0
 51124  1  0  0  0
 51125  1  0  0  0
 52126  1  0  0  0
 52127  1  0  0  0
 53 54  1  0  0  0
 54 55  2  0  0  0
 54128  1  0  0  0
 55 57  1  0  0  0
 55129  1  0  0  0
 56 69  2  0  0  0
 57 58  2  0  0  0
 57130  1  0  0  0
 58131  1  0  0  0
 59 60  1  0  0  0
 59 61  1  0  0  0
 59 62  1  0  0  0
 60132  1  0  0  0
 60133  1  0  0  0
 60134  1  0  0  0
 61135  1  0  0  0
 61136  1  0  0  0
 61137  1  0  0  0
 62138  1  0  0  0
 62139  1  0  0  0
 62140  1  0  0  0
 63 65  1  0  0  0
 63141  1  0  0  0
 63142  1  0  0  0
 63143  1  0  0  0
 64144  1  0  0  0
 65145  1  0  0  0
 68 83  1  0  0  0
 71 73  2  0  0  0
 71 76  1  0  0  0
 71146  1  0  0  0
 72 75  1  0  0  0
 72 76  2  0  0  0
 72147  1  0  0  0
 73 74  1  0  0  0
 73 80  1  0  0  0
 74 75  2  0  0  0
 74 78  1  0  0  0
 75 81  1  0  0  0
 76 84  1  0  0  0
 77 82  1  0  0  0
 77 84  1  0  0  0
 77 86  2  0  0  0
 78 79  1  0  0  0
 78148  1  0  0  0
 78149  1  0  0  0
 79 80  1  0  0  0
 79150  1  0  0  0
 79151  1  0  0  0
 80 85  1  0  0  0
 80152  1  0  0  0
 81153  1  0  0  0
 81154  1  0  0  0
 81155  1  0  0  0
 82 83  1  0  0  0
 82156  1  0  0  0
 82157  1  0  0  0
 83158  1  0  0  0
 83159  1  0  0  0
 84160  1  0  0  0
 85161  1  0  0  0
M  ISO  4   1 100  68 101  83 101  85 100
M  END
> <chiral flag>
0

> <version>
0

> <s_m_source_file>
/data/baiqing/PycharmProjects/Reinvent-master-3.2/result/LINK_invent/BTK/process_docking_weight1_custom_product_contain_oxygen_bond_distance_aromatic_linkinvent_7_9_3/rearranged_h_0146.sdf

> <i_m_source_file_index>
66

> <r_mmod_Potential_Energy-OPLS-2005>
-35.1596565246582

> <r_mmod_Stretch_Energy-OPLS-2005>
48.5097579956055

> <r_mmod_Bend_Energy-OPLS-2005>
166.099990844727

> <r_mmod_Torsional_Energy-OPLS-2005>
250.130615234375

> <r_mmod_Improper_Torsional_Energy-OPLS-2005>
15.2522592544556

> <r_mmod_Van_der_Waal_Energy-OPLS-2005>
153.643035888672

> <r_mmod_Electrostatic_Energy-OPLS-2005>
-469.872039794922

> <r_mmod_Solvation_Energy-OPLS-2005>
-224.383758544922

> <b_mmod_Minimization_Converged-OPLS-2005>
0

> <r_mmod_RMS_Derivative-OPLS-2005>
3.13554930686951

$$$$
66
                    3D
 Structure written by MMmdl.
167176  0  0  1  0            999 V2000
  -30.6942  -14.5325   20.5952 C   0  0  0  0  0  0
  -30.4404  -12.3486   19.4517 C   0  0  0  0  0  0
  -29.5078  -12.4804   18.2323 C   0  0  0  0  0  0
  -28.0349  -12.3134   18.6503 C   0  0  0  0  0  0
  -27.6580  -13.2012   19.8659 C   0  0  2  0  0  0
  -28.6922  -13.0522   21.0030 C   0  0  0  0  0  0
  -25.2601  -13.8187   20.5648 C   0  0  0  0  0  0
  -24.1834  -13.0451   20.9172 C   0  0  0  0  0  0
  -24.6382  -11.6926   20.8758 C   0  0  0  0  0  0
  -23.9042  -10.4320   21.0427 C   0  0  0  0  0  0
  -24.3603   -9.4221   21.9190 C   0  0  0  0  0  0
  -23.6291   -8.2252   22.0749 C   0  0  0  0  0  0
  -22.4276   -8.0303   21.3547 C   0  0  0  0  0  0
  -21.9917   -9.0269   20.4645 C   0  0  0  0  0  0
  -22.7227  -10.2157   20.3059 C   0  0  0  0  0  0
  -21.6856   -6.0772   22.5300 C   0  0  0  0  0  0
  -21.4016   -6.5657   23.8238 C   0  0  0  0  0  0
  -21.3629   -5.6788   24.9184 C   0  0  0  0  0  0
  -21.6017   -4.3063   24.7224 C   0  0  0  0  0  0
  -21.8822   -3.8170   23.4345 C   0  0  0  0  0  0
  -21.9199   -4.7003   22.3403 C   0  0  0  0  0  0
  -22.7884  -13.5283   21.1835 C   0  0  0  0  0  0
  -22.1689   -4.2194   21.0993 F   0  0  0  0  0  0
  -21.5567   -3.4518   25.7718 F   0  0  0  0  0  0
  -30.0232  -13.3517   20.4497 N   0  0  0  0  0  0
  -26.3005  -12.9314   20.3316 N   0  0  0  0  0  0
  -25.9302  -11.6502   20.5799 N   0  0  0  0  0  0
  -22.0507  -12.8284   22.0429 N   0  0  0  0  0  0
  -25.4320  -15.1908   20.4069 N   0  0  0  0  0  0
  -31.8358  -14.6957   20.1491 O   0  0  0  0  0  0
  -21.6621   -6.8924   21.4267 O   0  0  0  0  0  0
  -22.3558  -14.5597   20.6718 O   0  0  0  0  0  0
  -24.6210  -31.8578   23.2020 C   0  0  0  0  0  0
  -25.9059  -32.4796   23.8330 C   0  0  1  0  0  0
  -27.2217  -27.3397   20.1612 C   0  0  0  0  0  0
  -25.5864  -33.8604   24.2231 N   0  0  0  0  0  0
  -23.4172  -30.4795   21.5437 C   0  0  2  0  0  0
  -24.8647  -28.9395   20.1144 C   0  0  0  0  0  0
  -22.7472  -29.4595   22.4938 C   0  0  0  0  0  0
  -18.0341  -28.1395   22.8507 C   0  0  0  0  0  0
  -24.1500  -36.7328   23.2632 C   0  0  0  0  0  0
  -25.9493  -30.8058   21.3627 C   0  0  0  0  0  0
  -26.0271  -29.4308   20.7209 C   0  0  0  0  0  0
  -27.2050  -28.6408   20.7362 C   0  0  0  0  0  0
  -26.0451  -26.8970   19.5135 C   0  0  0  0  0  0
  -24.8727  -27.6757   19.5087 C   0  0  0  0  0  0
  -23.6306  -29.8156   20.1576 C   0  0  0  0  0  0
  -25.4126  -36.3114   24.0320 C   0  0  1  0  0  0
  -20.5898  -28.3743   23.1410 C   0  0  2  0  0  0
  -20.6828  -26.9413   22.5638 C   0  0  0  0  0  0
  -19.5930  -26.6474   21.5285 C   0  0  0  0  0  0
  -18.2055  -26.7965   22.1600 C   0  0  0  0  0  0
  -19.1539  -28.8897   23.2941 C   0  0  0  0  0  0
  -18.9385  -30.1499   23.8918 C   0  0  0  0  0  0
  -17.6367  -30.6609   24.0538 C   0  0  0  0  0  0
  -25.9056  -34.9484   23.5095 C   0  0  0  0  0  0
  -16.5310  -29.9028   23.6332 C   0  0  0  0  0  0
  -16.7310  -28.6432   23.0385 C   0  0  0  0  0  0
  -26.4482  -31.6627   25.0696 C   0  0  0  0  0  0
  -25.3735  -31.3736   26.1421 C   0  0  0  0  0  0
  -27.0288  -30.3056   24.6125 C   0  0  0  0  0  0
  -27.6072  -32.4314   25.7448 C   0  0  0  0  0  0
  -27.5590  -37.1811   24.8448 C   0  0  0  0  0  0
  -21.4169  -29.3024   22.3707 N   0  0  0  0  0  0
  -26.4306  -37.3801   23.9389 N   0  0  0  0  0  0
  -24.6804  -31.0658   22.0922 N   0  0  0  0  0  0
  -23.4183  -28.8081   23.2984 O   0  0  0  0  0  0
  -28.3629  -26.5488   20.2762 O   0  0  0  0  0  0
  -26.5660  -34.8955   22.4671 O   0  0  0  0  0  0
  -23.5382  -32.1279   23.7422 O   0  0  0  0  0  0
  -29.6413  -20.0395   22.8541 C   0  0  0  0  0  0
  -28.9745  -19.2111   20.6550 C   0  0  0  0  0  0
  -30.0765  -18.7351   23.2393 C   0  0  0  0  0  0
  -29.4561  -17.9303   21.0250 C   0  0  0  0  0  0
  -29.9756  -17.6878   22.2828 C   0  0  0  0  0  0
  -29.0717  -20.2952   21.5714 C   0  0  0  0  0  0
  -30.5636  -18.4868   24.6207 C   0  0  0  0  0  0
  -28.8602  -22.8453   21.4064 C   0  0  0  0  0  0
  -29.4808  -16.6521   20.2081 C   0  0  0  0  0  0
  -30.3567  -16.2115   22.3953 C   0  0  0  0  0  0
  -31.6681  -19.3823   25.1452 C   0  0  0  0  0  0
  -27.5552  -24.7287   22.4158 C   0  0  0  0  0  0
  -26.5184  -23.4246   20.5196 C   0  0  0  0  0  0
  -28.3753  -25.1009   20.0014 C   0  0  0  0  0  0
  -27.8451  -24.0258   21.0664 C   0  0  0  0  0  0
  -30.1048  -17.5618   25.3520 N   0  0  0  0  0  0
  -29.9828  -15.5781   21.1048 N   0  0  0  0  0  0
  -28.4627  -21.5556   21.2100 N   0  0  0  0  0  0
  -29.9709  -23.1115   21.8749 O   0  0  0  0  0  0
  -31.4746  -12.4840   19.1313 H   0  0  0  0  0  0
  -30.3960  -11.3452   19.8766 H   0  0  0  0  0  0
  -29.7739  -11.7325   17.4835 H   0  0  0  0  0  0
  -29.6504  -13.4543   17.7620 H   0  0  0  0  0  0
  -27.8887  -11.2668   18.9145 H   0  0  0  0  0  0
  -27.3744  -12.5103   17.8043 H   0  0  0  0  0  0
  -27.6862  -14.2319   19.5176 H   0  0  0  0  0  0
  -28.6789  -12.0432   21.4170 H   0  0  0  0  0  0
  -28.4292  -13.7143   21.8292 H   0  0  0  0  0  0
  -25.2744   -9.5682   22.4771 H   0  0  0  0  0  0
  -23.9979   -7.4642   22.7467 H   0  0  0  0  0  0
  -21.0847   -8.8792   19.8974 H   0  0  0  0  0  0
  -22.3685  -10.9687   19.6174 H   0  0  0  0  0  0
  -21.2042   -7.6170   23.9755 H   0  0  0  0  0  0
  -21.1419   -6.0520   25.9083 H   0  0  0  0  0  0
  -22.0633   -2.7638   23.2816 H   0  0  0  0  0  0
  -22.4062  -11.9918   22.4807 H   0  0  0  0  0  0
  -21.1129  -13.1362   22.2601 H   0  0  0  0  0  0
  -24.6689  -15.8504   20.5142 H   0  0  0  0  0  0
  -26.3030  -15.6346   20.1457 H   0  0  0  0  0  0
  -26.7135  -32.5505   23.1083 H   0  0  0  0  0  0
  -24.9990  -33.9742   25.0366 H   0  0  0  0  0  0
  -22.7040  -31.2942   21.4061 H   0  0  0  0  0  0
  -23.3779  -35.9652   23.3311 H   0  0  0  0  0  0
  -24.3590  -36.8916   22.2042 H   0  0  0  0  0  0
  -23.7250  -37.6526   23.6663 H   0  0  0  0  0  0
  -26.0698  -31.5591   20.5828 H   0  0  0  0  0  0
  -26.8339  -30.8636   21.9880 H   0  0  0  0  0  0
  -28.0988  -29.0053   21.2235 H   0  0  0  0  0  0
  -26.0041  -25.9429   19.0159 H   0  0  0  0  0  0
  -23.9730  -27.2886   19.0525 H   0  0  0  0  0  0
  -23.7578  -30.5897   19.3987 H   0  0  0  0  0  0
  -22.7512  -29.2431   19.8568 H   0  0  0  0  0  0
  -25.1324  -36.1969   25.0825 H   0  0  0  0  0  0
  -20.9970  -28.3463   24.1546 H   0  0  0  0  0  0
  -20.5491  -26.2352   23.3830 H   0  0  0  0  0  0
  -21.6758  -26.7337   22.1595 H   0  0  0  0  0  0
  -19.7205  -25.6449   21.1170 H   0  0  0  0  0  0
  -19.6987  -27.3370   20.6916 H   0  0  0  0  0  0
  -17.4405  -26.6698   21.3937 H   0  0  0  0  0  0
  -18.0436  -26.0093   22.8995 H   0  0  0  0  0  0
  -19.7797  -30.7380   24.2275 H   0  0  0  0  0  0
  -17.4850  -31.6355   24.4969 H   0  0  0  0  0  0
  -15.5266  -30.2843   23.7701 H   0  0  0  0  0  0
  -15.8748  -28.0698   22.7120 H   0  0  0  0  0  0
  -24.5932  -30.7063   25.7725 H   0  0  0  0  0  0
  -24.8947  -32.2925   26.4840 H   0  0  0  0  0  0
  -25.8088  -30.8895   27.0183 H   0  0  0  0  0  0
  -26.2839  -29.6799   24.1208 H   0  0  0  0  0  0
  -27.4025  -29.7303   25.4602 H   0  0  0  0  0  0
  -27.8707  -30.4302   23.9313 H   0  0  0  0  0  0
  -27.2716  -33.3590   26.2103 H   0  0  0  0  0  0
  -28.3889  -32.6867   25.0279 H   0  0  0  0  0  0
  -28.0787  -31.8379   26.5285 H   0  0  0  0  0  0
  -28.2613  -38.0098   24.7540 H   0  0  0  0  0  0
  -28.1071  -36.2642   24.6259 H   0  0  0  0  0  0
  -27.2325  -37.1470   25.8846 H   0  0  0  0  0  0
  -20.9323  -29.8624   21.6846 H   0  0  0  0  0  0
  -26.0196  -38.2874   24.1399 H   0  0  0  0  0  0
  -29.6919  -20.8314   23.5846 H   0  0  0  0  0  0
  -28.5211  -19.3616   19.6839 H   0  0  0  0  0  0
  -30.1349  -16.7905   19.3446 H   0  0  0  0  0  0
  -28.4812  -16.4187   19.8455 H   0  0  0  0  0  0
  -29.8036  -15.7255   23.1997 H   0  0  0  0  0  0
  -31.4214  -16.1035   22.6090 H   0  0  0  0  0  0
  -31.3635  -20.4281   25.1280 H   0  0  0  0  0  0
  -32.5611  -19.2735   24.5305 H   0  0  0  0  0  0
  -31.9228  -19.1330   26.1784 H   0  0  0  0  0  0
  -27.3783  -24.0088   23.2187 H   0  0  0  0  0  0
  -26.6811  -25.3730   22.3560 H   0  0  0  0  0  0
  -28.3962  -25.3484   22.7312 H   0  0  0  0  0  0
  -26.6962  -22.8170   19.6284 H   0  0  0  0  0  0
  -25.8141  -24.2039   20.2389 H   0  0  0  0  0  0
  -25.9992  -22.7901   21.2386 H   0  0  0  0  0  0
  -27.9223  -24.9250   19.0257 H   0  0  0  0  0  0
  -29.4251  -24.8793   19.8142 H   0  0  0  0  0  0
  -29.3657  -17.0528   24.8781 H   0  0  0  0  0  0
  -27.5889  -21.4743   20.7070 H   0  0  0  0  0  0
  1 25  1  0  0  0
  1 30  2  0  0  0
  1 87  1  0  0  0
  2  3  1  0  0  0
  2 25  1  0  0  0
  2 90  1  0  0  0
  2 91  1  0  0  0
  3  4  1  0  0  0
  3 92  1  0  0  0
  3 93  1  0  0  0
  4  5  1  0  0  0
  4 94  1  0  0  0
  4 95  1  0  0  0
  5  6  1  0  0  0
  5 26  1  0  0  0
  5 96  1  0  0  0
  6 25  1  0  0  0
  6 97  1  0  0  0
  6 98  1  0  0  0
  7  8  2  0  0  0
  7 26  1  0  0  0
  7 29  1  0  0  0
  8  9  1  0  0  0
  8 22  1  0  0  0
  9 10  1  0  0  0
  9 27  2  0  0  0
 10 11  2  0  0  0
 10 15  1  0  0  0
 11 12  1  0  0  0
 11 99  1  0  0  0
 12 13  2  0  0  0
 12100  1  0  0  0
 13 14  1  0  0  0
 13 31  1  0  0  0
 14 15  2  0  0  0
 14101  1  0  0  0
 15102  1  0  0  0
 16 17  2  0  0  0
 16 21  1  0  0  0
 16 31  1  0  0  0
 17 18  1  0  0  0
 17103  1  0  0  0
 18 19  2  0  0  0
 18104  1  0  0  0
 19 20  1  0  0  0
 19 24  1  0  0  0
 20 21  2  0  0  0
 20105  1  0  0  0
 21 23  1  0  0  0
 22 28  1  0  0  0
 22 32  2  0  0  0
 26 27  1  0  0  0
 28106  1  0  0  0
 28107  1  0  0  0
 29108  1  0  0  0
 29109  1  0  0  0
 33 34  1  0  0  0
 33 66  1  0  0  0
 33 70  2  0  0  0
 34 36  1  0  0  0
 34 59  1  0  0  0
 34110  1  0  0  0
 35 44  2  0  0  0
 35 45  1  0  0  0
 35 68  1  0  0  0
 36 56  1  0  0  0
 36111  1  0  0  0
 37 39  1  0  0  0
 37 47  1  0  0  0
 37 66  1  0  0  0
 37112  1  0  0  0
 38 43  2  0  0  0
 38 46  1  0  0  0
 38 47  1  0  0  0
 39 64  1  0  0  0
 39 67  2  0  0  0
 40 52  1  0  0  0
 40 53  2  0  0  0
 40 58  1  0  0  0
 41113  1  0  0  0
 41114  1  0  0  0
 41115  1  0  0  0
 41 48  1  0  0  0
 42 43  1  0  0  0
 42 66  1  0  0  0
 42116  1  0  0  0
 42117  1  0  0  0
 43 44  1  0  0  0
 44118  1  0  0  0
 45 46  2  0  0  0
 45119  1  0  0  0
 46120  1  0  0  0
 47121  1  0  0  0
 47122  1  0  0  0
 48 56  1  0  0  0
 48 65  1  0  0  0
 48123  1  0  0  0
 49 50  1  0  0  0
 49 53  1  0  0  0
 49 64  1  0  0  0
 49124  1  0  0  0
 50 51  1  0  0  0
 50125  1  0  0  0
 50126  1  0  0  0
 51 52  1  0  0  0
 51127  1  0  0  0
 51128  1  0  0  0
 52129  1  0  0  0
 52130  1  0  0  0
 53 54  1  0  0  0
 54 55  2  0  0  0
 54131  1  0  0  0
 55 57  1  0  0  0
 55132  1  0  0  0
 56 69  2  0  0  0
 57 58  2  0  0  0
 57133  1  0  0  0
 58134  1  0  0  0
 59 60  1  0  0  0
 59 61  1  0  0  0
 59 62  1  0  0  0
 60135  1  0  0  0
 60136  1  0  0  0
 60137  1  0  0  0
 61138  1  0  0  0
 61139  1  0  0  0
 61140  1  0  0  0
 62141  1  0  0  0
 62142  1  0  0  0
 62143  1  0  0  0
 63 65  1  0  0  0
 63144  1  0  0  0
 63145  1  0  0  0
 63146  1  0  0  0
 64147  1  0  0  0
 65148  1  0  0  0
 68 84  1  0  0  0
 71 73  2  0  0  0
 71 76  1  0  0  0
 71149  1  0  0  0
 72 74  1  0  0  0
 72 76  2  0  0  0
 72150  1  0  0  0
 73 75  1  0  0  0
 73 77  1  0  0  0
 74 75  2  0  0  0
 74 79  1  0  0  0
 75 80  1  0  0  0
 76 88  1  0  0  0
 77 81  1  0  0  0
 77 86  2  0  0  0
 78 85  1  0  0  0
 78 88  1  0  0  0
 78 89  2  0  0  0
 79 87  1  0  0  0
 79151  1  0  0  0
 79152  1  0  0  0
 80 87  1  0  0  0
 80153  1  0  0  0
 80154  1  0  0  0
 81155  1  0  0  0
 81156  1  0  0  0
 81157  1  0  0  0
 82158  1  0  0  0
 82159  1  0  0  0
 82160  1  0  0  0
 82 85  1  0  0  0
 83 85  1  0  0  0
 83161  1  0  0  0
 83162  1  0  0  0
 83163  1  0  0  0
 84 85  1  0  0  0
 84164  1  0  0  0
 84165  1  0  0  0
 86166  1  0  0  0
 88167  1  0  0  0
M  ISO  4   1 100  68 101  84 101  87 100
M  END
> <chiral flag>
0

> <version>
0

> <s_m_source_file>
/data/baiqing/PycharmProjects/Reinvent-master-3.2/result/LINK_invent/BTK/process_docking_weight1_custom_product_contain_oxygen_bond_distance_aromatic_linkinvent_7_9_3/rearranged_h_0146.sdf

> <i_m_source_file_index>
67

> <r_mmod_Potential_Energy-OPLS-2005>
137.47102355957

> <r_mmod_Stretch_Energy-OPLS-2005>
69.5195770263672

> <r_mmod_Bend_Energy-OPLS-2005>
179.603530883789

> <r_mmod_Torsional_Energy-OPLS-2005>
320.796020507812

> <r_mmod_Improper_Torsional_Energy-OPLS-2005>
7.56531047821045

> <r_mmod_Van_der_Waal_Energy-OPLS-2005>
141.765808105469

> <r_mmod_Electrostatic_Energy-OPLS-2005>
-387.160430908203

> <r_mmod_Solvation_Energy-OPLS-2005>
-229.208206176758

> <b_mmod_Minimization_Converged-OPLS-2005>
0

> <r_mmod_RMS_Derivative-OPLS-2005>
6.2338752746582

$$$$
67
                    3D
 Structure written by MMmdl.
164173  0  0  1  0            999 V2000
  -30.6764  -14.8304   20.3246 C   0  0  0  0  0  0
  -30.4434  -12.5175   19.4334 C   0  0  0  0  0  0
  -29.4941  -12.4559   18.2157 C   0  0  0  0  0  0
  -28.0428  -12.2493   18.6754 C   0  0  0  0  0  0
  -27.6304  -13.2336   19.8045 C   0  0  2  0  0  0
  -28.6954  -13.3043   20.9183 C   0  0  0  0  0  0
  -25.2569  -13.8214   20.5729 C   0  0  0  0  0  0
  -24.1808  -13.0472   20.9226 C   0  0  0  0  0  0
  -24.6360  -11.6947   20.8769 C   0  0  0  0  0  0
  -23.9054  -10.4302   21.0425 C   0  0  0  0  0  0
  -24.3621   -9.4212   21.9187 C   0  0  0  0  0  0
  -23.6319   -8.2214   22.0733 C   0  0  0  0  0  0
  -22.4290   -8.0274   21.3488 C   0  0  0  0  0  0
  -21.9906   -9.0263   20.4606 C   0  0  0  0  0  0
  -22.7241  -10.2151   20.3036 C   0  0  0  0  0  0
  -21.6849   -6.0761   22.5294 C   0  0  0  0  0  0
  -21.4026   -6.5653   23.8230 C   0  0  0  0  0  0
  -21.3617   -5.6782   24.9174 C   0  0  0  0  0  0
  -21.6005   -4.3040   24.7209 C   0  0  0  0  0  0
  -21.8827   -3.8163   23.4322 C   0  0  0  0  0  0
  -21.9186   -4.6990   22.3393 C   0  0  0  0  0  0
  -22.7815  -13.5296   21.1820 C   0  0  0  0  0  0
  -22.1663   -4.2188   21.0970 F   0  0  0  0  0  0
  -21.5593   -3.4524   25.7718 F   0  0  0  0  0  0
  -29.9786  -13.6393   20.2740 N   0  0  0  0  0  0
  -26.2957  -12.9411   20.3204 N   0  0  0  0  0  0
  -25.9303  -11.6559   20.5742 N   0  0  0  0  0  0
  -22.0319  -12.8429   22.0339 N   0  0  0  0  0  0
  -25.4333  -15.1934   20.4096 N   0  0  0  0  0  0
  -31.9008  -14.7653   20.4780 O   0  0  0  0  0  0
  -21.6614   -6.8913   21.4246 O   0  0  0  0  0  0
  -22.3530  -14.5555   20.6544 O   0  0  0  0  0  0
  -24.6349  -31.8556   23.1928 C   0  0  0  0  0  0
  -25.9173  -32.4761   23.8293 C   0  0  1  0  0  0
  -27.2350  -27.2605   20.1212 C   0  0  0  0  0  0
  -25.5970  -33.8559   24.2234 N   0  0  0  0  0  0
  -23.4311  -30.4734   21.5428 C   0  0  2  0  0  0
  -24.8771  -28.9051   20.1201 C   0  0  0  0  0  0
  -22.7513  -29.4607   22.4950 C   0  0  0  0  0  0
  -18.0302  -28.1369   22.8507 C   0  0  0  0  0  0
  -24.1498  -36.7261   23.2637 C   0  0  0  0  0  0
  -25.9752  -30.7605   21.3754 C   0  0  0  0  0  0
  -26.0487  -29.3802   20.7228 C   0  0  0  0  0  0
  -27.2282  -28.5693   20.7158 C   0  0  0  0  0  0
  -26.0425  -26.8480   19.4914 C   0  0  0  0  0  0
  -24.8761  -27.6426   19.5030 C   0  0  0  0  0  0
  -23.6500  -29.7984   20.1630 C   0  0  0  0  0  0
  -25.4125  -36.3068   24.0328 C   0  0  1  0  0  0
  -20.5904  -28.3694   23.1289 C   0  0  2  0  0  0
  -20.6804  -26.9417   22.5414 C   0  0  0  0  0  0
  -19.5762  -26.6374   21.5238 C   0  0  0  0  0  0
  -18.1938  -26.7920   22.1631 C   0  0  0  0  0  0
  -19.1557  -28.8849   23.2891 C   0  0  0  0  0  0
  -18.9469  -30.1453   23.8894 C   0  0  0  0  0  0
  -17.6466  -30.6575   24.0562 C   0  0  0  0  0  0
  -25.9085  -34.9455   23.5081 C   0  0  0  0  0  0
  -16.5362  -29.9062   23.6335 C   0  0  0  0  0  0
  -16.7293  -28.6482   23.0366 C   0  0  0  0  0  0
  -26.4504  -31.6600   25.0698 C   0  0  0  0  0  0
  -25.3676  -31.3802   26.1397 C   0  0  0  0  0  0
  -27.0370  -30.3023   24.6194 C   0  0  0  0  0  0
  -27.6056  -32.4326   25.7477 C   0  0  0  0  0  0
  -27.5582  -37.1781   24.8461 C   0  0  0  0  0  0
  -21.4218  -29.3050   22.3685 N   0  0  0  0  0  0
  -26.4284  -37.3774   23.9424 N   0  0  0  0  0  0
  -24.7000  -31.0473   22.0939 N   0  0  0  0  0  0
  -23.4209  -28.8175   23.3081 O   0  0  0  0  0  0
  -28.3557  -26.3984   20.1000 O   0  0  0  0  0  0
  -26.5641  -34.8942   22.4641 O   0  0  0  0  0  0
  -23.5493  -32.1434   23.7190 O   0  0  0  0  0  0
  -31.2066  -20.1266   19.3054 C   0  0  0  0  0  0
  -29.5535  -18.4765   20.0693 C   0  0  0  0  0  0
  -31.5502  -17.7577   18.9220 C   0  0  0  0  0  0
  -32.0096  -19.0827   18.8045 C   0  0  0  0  0  0
  -30.4227  -17.3706   19.6681 C   0  0  0  0  0  0
  -29.9224  -19.8834   19.8502 C   0  0  0  0  0  0
  -29.3688  -22.3703   20.3522 C   0  0  0  0  0  0
  -32.0178  -16.6308   18.0620 C   0  0  0  0  0  0
  -30.8244  -15.6672   18.1708 C   0  0  0  0  0  0
  -33.2940  -19.4073   18.0523 C   0  0  0  0  0  0
  -28.1799  -23.4666   18.2957 C   0  0  0  0  0  0
  -30.3256  -24.3609   19.1741 C   0  0  0  0  0  0
  -28.2209  -24.9331   20.4493 C   0  0  0  0  0  0
  -28.9657  -23.7535   19.5970 C   0  0  0  0  0  0
  -30.2175  -15.8879   19.5138 N   0  0  0  0  0  0
  -29.0460  -21.0900   19.9076 N   0  0  0  0  0  0
  -30.0378  -22.4785   21.3820 O   0  0  0  0  0  0
  -31.4702  -12.6730   19.0962 H   0  0  0  0  0  0
  -30.4547  -11.5875   20.0024 H   0  0  0  0  0  0
  -29.8100  -11.6693   17.5296 H   0  0  0  0  0  0
  -29.5238  -13.3734   17.6320 H   0  0  0  0  0  0
  -27.9711  -11.2223   19.0340 H   0  0  0  0  0  0
  -27.3567  -12.3229   17.8340 H   0  0  0  0  0  0
  -27.5805  -14.2206   19.3416 H   0  0  0  0  0  0
  -28.7461  -12.3600   21.4606 H   0  0  0  0  0  0
  -28.4352  -14.0777   21.6418 H   0  0  0  0  0  0
  -25.2753   -9.5712   22.4819 H   0  0  0  0  0  0
  -23.9995   -7.4607   22.7476 H   0  0  0  0  0  0
  -21.0796   -8.8822   19.8953 H   0  0  0  0  0  0
  -22.3696  -10.9716   19.6164 H   0  0  0  0  0  0
  -21.2059   -7.6153   23.9788 H   0  0  0  0  0  0
  -21.1408   -6.0455   25.9089 H   0  0  0  0  0  0
  -22.0643   -2.7621   23.2785 H   0  0  0  0  0  0
  -22.3785  -12.0171   22.5000 H   0  0  0  0  0  0
  -21.0878  -13.1538   22.2246 H   0  0  0  0  0  0
  -24.6775  -15.8634   20.5072 H   0  0  0  0  0  0
  -26.3042  -15.6185   20.1181 H   0  0  0  0  0  0
  -26.7244  -32.5393   23.1038 H   0  0  0  0  0  0
  -25.0169  -33.9698   25.0416 H   0  0  0  0  0  0
  -22.7309  -31.2972   21.3938 H   0  0  0  0  0  0
  -23.3789  -35.9558   23.3279 H   0  0  0  0  0  0
  -24.3596  -36.8904   22.2053 H   0  0  0  0  0  0
  -23.7233  -37.6447   23.6675 H   0  0  0  0  0  0
  -26.1122  -31.5143   20.5987 H   0  0  0  0  0  0
  -26.8540  -30.8123   22.0065 H   0  0  0  0  0  0
  -28.1241  -28.9327   21.2010 H   0  0  0  0  0  0
  -26.0093  -25.8916   18.9871 H   0  0  0  0  0  0
  -23.9752  -27.2690   19.0360 H   0  0  0  0  0  0
  -23.7842  -30.5743   19.4081 H   0  0  0  0  0  0
  -22.7667  -29.2370   19.8555 H   0  0  0  0  0  0
  -25.1305  -36.1892   25.0815 H   0  0  0  0  0  0
  -20.9986  -28.3271   24.1412 H   0  0  0  0  0  0
  -20.5765  -26.2295   23.3620 H   0  0  0  0  0  0
  -21.6676  -26.7477   22.1184 H   0  0  0  0  0  0
  -19.6933  -25.6286   21.1273 H   0  0  0  0  0  0
  -19.6693  -27.3196   20.6772 H   0  0  0  0  0  0
  -17.4233  -26.6719   21.3999 H   0  0  0  0  0  0
  -18.0284  -26.0040   22.8989 H   0  0  0  0  0  0
  -19.7951  -30.7281   24.2255 H   0  0  0  0  0  0
  -17.5022  -31.6266   24.5138 H   0  0  0  0  0  0
  -15.5367  -30.2958   23.7645 H   0  0  0  0  0  0
  -15.8699  -28.0795   22.7067 H   0  0  0  0  0  0
  -24.5795  -30.7231   25.7710 H   0  0  0  0  0  0
  -24.8916  -32.2999   26.4798 H   0  0  0  0  0  0
  -25.7901  -30.8965   27.0206 H   0  0  0  0  0  0
  -26.2978  -29.6749   24.1189 H   0  0  0  0  0  0
  -27.4075  -29.7310   25.4717 H   0  0  0  0  0  0
  -27.8835  -30.4363   23.9450 H   0  0  0  0  0  0
  -27.2681  -33.3619   26.2088 H   0  0  0  0  0  0
  -28.3834  -32.6905   25.0272 H   0  0  0  0  0  0
  -28.0771  -31.8429   26.5359 H   0  0  0  0  0  0
  -28.2588  -38.0093   24.7542 H   0  0  0  0  0  0
  -28.1087  -36.2624   24.6228 H   0  0  0  0  0  0
  -27.2307  -37.1374   25.8867 H   0  0  0  0  0  0
  -20.9394  -29.8759   21.6870 H   0  0  0  0  0  0
  -26.0160  -38.2843   24.1417 H   0  0  0  0  0  0
  -31.5251  -21.1435   19.1235 H   0  0  0  0  0  0
  -28.5676  -18.2383   20.4423 H   0  0  0  0  0  0
  -32.9441  -16.1989   18.4528 H   0  0  0  0  0  0
  -32.1806  -16.9401   17.0288 H   0  0  0  0  0  0
  -31.1779  -14.6674   17.9233 H   0  0  0  0  0  0
  -30.0598  -15.9203   17.4343 H   0  0  0  0  0  0
  -33.5676  -20.4569   18.1457 H   0  0  0  0  0  0
  -33.1988  -19.1842   16.9895 H   0  0  0  0  0  0
  -34.1289  -18.8251   18.4442 H   0  0  0  0  0  0
  -28.6126  -22.6498   17.7151 H   0  0  0  0  0  0
  -28.2000  -24.3385   17.6411 H   0  0  0  0  0  0
  -27.1336  -23.2270   18.4866 H   0  0  0  0  0  0
  -30.9071  -23.6844   18.5464 H   0  0  0  0  0  0
  -30.9400  -24.6087   20.0402 H   0  0  0  0  0  0
  -30.1880  -25.2817   18.6091 H   0  0  0  0  0  0
  -28.6000  -24.8728   21.4692 H   0  0  0  0  0  0
  -27.1704  -24.6643   20.5487 H   0  0  0  0  0  0
  -28.2692  -21.0648   19.2587 H   0  0  0  0  0  0
  1 25  1  0  0  0
  1 30  2  0  0  0
  1 85  1  0  0  0
  2  3  1  0  0  0
  2 25  1  0  0  0
  2 88  1  0  0  0
  2 89  1  0  0  0
  3  4  1  0  0  0
  3 90  1  0  0  0
  3 91  1  0  0  0
  4  5  1  0  0  0
  4 92  1  0  0  0
  4 93  1  0  0  0
  5  6  1  0  0  0
  5 26  1  0  0  0
  5 94  1  0  0  0
  6 25  1  0  0  0
  6 95  1  0  0  0
  6 96  1  0  0  0
  7  8  2  0  0  0
  7 26  1  0  0  0
  7 29  1  0  0  0
  8  9  1  0  0  0
  8 22  1  0  0  0
  9 10  1  0  0  0
  9 27  2  0  0  0
 10 11  2  0  0  0
 10 15  1  0  0  0
 11 12  1  0  0  0
 11 97  1  0  0  0
 12 13  2  0  0  0
 12 98  1  0  0  0
 13 14  1  0  0  0
 13 31  1  0  0  0
 14 15  2  0  0  0
 14 99  1  0  0  0
 15100  1  0  0  0
 16 17  2  0  0  0
 16 21  1  0  0  0
 16 31  1  0  0  0
 17 18  1  0  0  0
 17101  1  0  0  0
 18 19  2  0  0  0
 18102  1  0  0  0
 19 20  1  0  0  0
 19 24  1  0  0  0
 20 21  2  0  0  0
 20103  1  0  0  0
 21 23  1  0  0  0
 22 28  1  0  0  0
 22 32  2  0  0  0
 26 27  1  0  0  0
 28104  1  0  0  0
 28105  1  0  0  0
 29106  1  0  0  0
 29107  1  0  0  0
 33 34  1  0  0  0
 33 66  1  0  0  0
 33 70  2  0  0  0
 34 36  1  0  0  0
 34 59  1  0  0  0
 34108  1  0  0  0
 35 44  2  0  0  0
 35 45  1  0  0  0
 35 68  1  0  0  0
 36 56  1  0  0  0
 36109  1  0  0  0
 37 39  1  0  0  0
 37 47  1  0  0  0
 37 66  1  0  0  0
 37110  1  0  0  0
 38 43  2  0  0  0
 38 46  1  0  0  0
 38 47  1  0  0  0
 39 64  1  0  0  0
 39 67  2  0  0  0
 40 52  1  0  0  0
 40 53  2  0  0  0
 40 58  1  0  0  0
 41111  1  0  0  0
 41112  1  0  0  0
 41113  1  0  0  0
 41 48  1  0  0  0
 42 43  1  0  0  0
 42 66  1  0  0  0
 42114  1  0  0  0
 42115  1  0  0  0
 43 44  1  0  0  0
 44116  1  0  0  0
 45 46  2  0  0  0
 45117  1  0  0  0
 46118  1  0  0  0
 47119  1  0  0  0
 47120  1  0  0  0
 48 56  1  0  0  0
 48 65  1  0  0  0
 48121  1  0  0  0
 49 50  1  0  0  0
 49 53  1  0  0  0
 49 64  1  0  0  0
 49122  1  0  0  0
 50 51  1  0  0  0
 50123  1  0  0  0
 50124  1  0  0  0
 51 52  1  0  0  0
 51125  1  0  0  0
 51126  1  0  0  0
 52127  1  0  0  0
 52128  1  0  0  0
 53 54  1  0  0  0
 54 55  2  0  0  0
 54129  1  0  0  0
 55 57  1  0  0  0
 55130  1  0  0  0
 56 69  2  0  0  0
 57 58  2  0  0  0
 57131  1  0  0  0
 58132  1  0  0  0
 59 60  1  0  0  0
 59 61  1  0  0  0
 59 62  1  0  0  0
 60133  1  0  0  0
 60134  1  0  0  0
 60135  1  0  0  0
 61136  1  0  0  0
 61137  1  0  0  0
 61138  1  0  0  0
 62139  1  0  0  0
 62140  1  0  0  0
 62141  1  0  0  0
 63 65  1  0  0  0
 63142  1  0  0  0
 63143  1  0  0  0
 63144  1  0  0  0
 64145  1  0  0  0
 65146  1  0  0  0
 68 83  1  0  0  0
 71 74  2  0  0  0
 71 76  1  0  0  0
 71147  1  0  0  0
 72 75  1  0  0  0
 72 76  2  0  0  0
 72148  1  0  0  0
 73 74  1  0  0  0
 73 75  2  0  0  0
 73 78  1  0  0  0
 74 80  1  0  0  0
 75 85  1  0  0  0
 76 86  1  0  0  0
 77 84  1  0  0  0
 77 86  1  0  0  0
 77 87  2  0  0  0
 78 79  1  0  0  0
 78149  1  0  0  0
 78150  1  0  0  0
 79 85  1  0  0  0
 79151  1  0  0  0
 79152  1  0  0  0
 80153  1  0  0  0
 80154  1  0  0  0
 80155  1  0  0  0
 81156  1  0  0  0
 81157  1  0  0  0
 81158  1  0  0  0
 81 84  1  0  0  0
 82 84  1  0  0  0
 82159  1  0  0  0
 82160  1  0  0  0
 82161  1  0  0  0
 83 84  1  0  0  0
 83162  1  0  0  0
 83163  1  0  0  0
 86164  1  0  0  0
M  ISO  4   1 100  68 101  83 101  85 100
M  END
> <chiral flag>
0

> <version>
0

> <s_m_source_file>
/data/baiqing/PycharmProjects/Reinvent-master-3.2/result/LINK_invent/BTK/process_docking_weight1_custom_product_contain_oxygen_bond_distance_aromatic_linkinvent_7_9_3/rearranged_h_0146.sdf

> <i_m_source_file_index>
68

> <r_mmod_Potential_Energy-OPLS-2005>
644.309814453125

> <r_mmod_Stretch_Energy-OPLS-2005>
152.704895019531

> <r_mmod_Bend_Energy-OPLS-2005>
283.484619140625

> <r_mmod_Torsional_Energy-OPLS-2005>
423.28271484375

> <r_mmod_Improper_Torsional_Energy-OPLS-2005>
44.3626899719238

> <r_mmod_Van_der_Waal_Energy-OPLS-2005>
143.896942138672

> <r_mmod_Electrostatic_Energy-OPLS-2005>
-326.380432128906

> <r_mmod_Solvation_Energy-OPLS-2005>
-215.081466674805

> <b_mmod_Minimization_Converged-OPLS-2005>
0

> <r_mmod_RMS_Derivative-OPLS-2005>
6.23597717285156

$$$$
68
                    3D
 Structure written by MMmdl.
159168  0  0  1  0            999 V2000
  -30.5172  -15.0365   20.4053 C   0  0  0  0  0  0
  -30.4387  -12.6515   19.4917 C   0  0  0  0  0  0
  -29.5194  -12.5443   18.2521 C   0  0  0  0  0  0
  -28.0557  -12.3161   18.6748 C   0  0  0  0  0  0
  -27.6209  -13.2588   19.8266 C   0  0  2  0  0  0
  -28.6654  -13.3336   20.9591 C   0  0  0  0  0  0
  -25.2435  -13.8239   20.5723 C   0  0  0  0  0  0
  -24.1771  -13.0442   20.9250 C   0  0  0  0  0  0
  -24.6408  -11.6932   20.8767 C   0  0  0  0  0  0
  -23.9098  -10.4297   21.0420 C   0  0  0  0  0  0
  -24.3642   -9.4207   21.9194 C   0  0  0  0  0  0
  -23.6309   -8.2245   22.0763 C   0  0  0  0  0  0
  -22.4286   -8.0293   21.3552 C   0  0  0  0  0  0
  -21.9933   -9.0269   20.4647 C   0  0  0  0  0  0
  -22.7276  -10.2141   20.3062 C   0  0  0  0  0  0
  -21.6850   -6.0752   22.5288 C   0  0  0  0  0  0
  -21.4016   -6.5653   23.8224 C   0  0  0  0  0  0
  -21.3659   -5.6800   24.9182 C   0  0  0  0  0  0
  -21.6043   -4.3064   24.7224 C   0  0  0  0  0  0
  -21.8819   -3.8162   23.4343 C   0  0  0  0  0  0
  -21.9192   -4.6982   22.3404 C   0  0  0  0  0  0
  -22.7787  -13.5208   21.1887 C   0  0  0  0  0  0
  -22.1662   -4.2175   21.0978 F   0  0  0  0  0  0
  -21.5619   -3.4541   25.7730 F   0  0  0  0  0  0
  -29.9249  -13.7684   20.3420 N   0  0  0  0  0  0
  -26.2857  -12.9489   20.3222 N   0  0  0  0  0  0
  -25.9341  -11.6607   20.5733 N   0  0  0  0  0  0
  -22.0427  -12.8201   22.0432 N   0  0  0  0  0  0
  -25.4067  -15.1970   20.4137 N   0  0  0  0  0  0
  -31.7365  -15.0697   20.1964 O   0  0  0  0  0  0
  -21.6641   -6.8896   21.4250 O   0  0  0  0  0  0
  -22.3476  -14.5504   20.6717 O   0  0  0  0  0  0
  -24.6503  -31.8376   23.1817 C   0  0  0  0  0  0
  -25.9241  -32.4670   23.8239 C   0  0  1  0  0  0
  -27.2149  -27.0687   20.1725 C   0  0  0  0  0  0
  -25.5961  -33.8477   24.2158 N   0  0  0  0  0  0
  -23.4569  -30.4538   21.5301 C   0  0  2  0  0  0
  -24.9070  -28.8603   20.1199 C   0  0  0  0  0  0
  -22.7599  -29.4519   22.4853 C   0  0  0  0  0  0
  -18.0310  -28.1388   22.8459 C   0  0  0  0  0  0
  -24.1491  -36.7238   23.2644 C   0  0  0  0  0  0
  -26.0171  -30.6909   21.3885 C   0  0  0  0  0  0
  -26.0883  -29.2922   20.7364 C   0  0  0  0  0  0
  -27.2458  -28.4159   20.7362 C   0  0  0  0  0  0
  -26.0050  -26.7452   19.5258 C   0  0  0  0  0  0
  -24.8803  -27.6024   19.4972 C   0  0  0  0  0  0
  -23.6884  -29.7734   20.1539 C   0  0  0  0  0  0
  -25.4127  -36.3018   24.0318 C   0  0  1  0  0  0
  -20.5929  -28.3707   23.1205 C   0  0  2  0  0  0
  -20.6798  -26.9423   22.5329 C   0  0  0  0  0  0
  -19.5758  -26.6423   21.5141 C   0  0  0  0  0  0
  -18.1949  -26.7940   22.1579 C   0  0  0  0  0  0
  -19.1575  -28.8860   23.2839 C   0  0  0  0  0  0
  -18.9500  -30.1443   23.8884 C   0  0  0  0  0  0
  -17.6502  -30.6565   24.0584 C   0  0  0  0  0  0
  -25.9082  -34.9396   23.5048 C   0  0  0  0  0  0
  -16.5387  -29.9071   23.6371 C   0  0  0  0  0  0
  -16.7295  -28.6496   23.0365 C   0  0  0  0  0  0
  -26.4529  -31.6559   25.0706 C   0  0  0  0  0  0
  -25.3691  -31.3761   26.1383 C   0  0  0  0  0  0
  -27.0412  -30.2956   24.6319 C   0  0  0  0  0  0
  -27.6048  -32.4334   25.7504 C   0  0  0  0  0  0
  -27.5574  -37.1778   24.8471 C   0  0  0  0  0  0
  -21.4279  -29.3073   22.3617 N   0  0  0  0  0  0
  -26.4284  -37.3742   23.9409 N   0  0  0  0  0  0
  -24.7285  -31.0173   22.0883 N   0  0  0  0  0  0
  -23.4216  -28.8042   23.3005 O   0  0  0  0  0  0
  -28.2659  -26.0625   20.1518 O   0  0  0  0  0  0
  -26.5667  -34.8910   22.4628 O   0  0  0  0  0  0
  -23.5603  -32.1284   23.6996 O   0  0  0  0  0  0
  -28.6500  -18.6846   22.1888 C   0  0  0  0  0  0
  -29.2352  -18.8883   20.9051 C   0  0  0  0  0  0
  -29.5825  -18.1163   23.0236 C   0  0  0  0  0  0
  -30.0191  -17.6561   20.6893 C   0  0  0  0  0  0
  -29.9166  -22.6090   19.5835 C   0  0  0  0  0  0
  -30.0290  -21.0222   19.4544 C   0  0  0  0  0  0
  -28.5042  -22.9844   20.1034 C   0  0  1  0  0  0
  -28.3906  -21.5886   21.0045 C   0  0  2  0  0  0
  -29.5456  -17.9995   24.5092 C   0  0  0  0  0  0
  -28.8999  -21.9064   22.4279 C   0  0  0  0  0  0
  -28.1053  -24.5769   20.6796 C   0  0  0  0  0  0
  -29.1348  -20.3545   20.4148 N   0  0  0  0  0  0
  -29.7328  -16.2481   20.4360 N   0  0  0  0  0  0
  -31.0192  -17.7187   22.1101 S   0  0  0  0  0  0
  -31.4672  -12.8246   19.1716 H   0  0  0  0  0  0
  -30.4532  -11.7142   20.0498 H   0  0  0  0  0  0
  -29.8517  -11.7372   17.5982 H   0  0  0  0  0  0
  -29.5916  -13.4628   17.6669 H   0  0  0  0  0  0
  -27.9633  -11.2768   18.9921 H   0  0  0  0  0  0
  -27.3909  -12.4319   17.8185 H   0  0  0  0  0  0
  -27.5648  -14.2518   19.3787 H   0  0  0  0  0  0
  -28.7744  -12.3733   21.4651 H   0  0  0  0  0  0
  -28.3523  -14.0533   21.7173 H   0  0  0  0  0  0
  -25.2784   -9.5680   22.4775 H   0  0  0  0  0  0
  -24.0012   -7.4638   22.7488 H   0  0  0  0  0  0
  -21.0867   -8.8807   19.8946 H   0  0  0  0  0  0
  -22.3756  -10.9688   19.6171 H   0  0  0  0  0  0
  -21.2013   -7.6161   23.9742 H   0  0  0  0  0  0
  -21.1475   -6.0520   25.9086 H   0  0  0  0  0  0
  -22.0590   -2.7626   23.2834 H   0  0  0  0  0  0
  -22.4047  -11.9869   22.4841 H   0  0  0  0  0  0
  -21.1039  -13.1228   22.2603 H   0  0  0  0  0  0
  -24.6301  -15.8396   20.5230 H   0  0  0  0  0  0
  -26.2374  -15.6424   20.0479 H   0  0  0  0  0  0
  -26.7304  -32.5260   23.0962 H   0  0  0  0  0  0
  -25.0112  -33.9578   25.0307 H   0  0  0  0  0  0
  -22.7633  -31.2813   21.3670 H   0  0  0  0  0  0
  -23.3774  -35.9549   23.3293 H   0  0  0  0  0  0
  -24.3570  -36.8884   22.2061 H   0  0  0  0  0  0
  -23.7232  -37.6422   23.6692 H   0  0  0  0  0  0
  -26.1779  -31.4383   20.6104 H   0  0  0  0  0  0
  -26.8859  -30.7479   22.0325 H   0  0  0  0  0  0
  -28.1532  -28.7479   21.2207 H   0  0  0  0  0  0
  -25.9175  -25.7808   19.0464 H   0  0  0  0  0  0
  -23.9784  -27.2667   19.0040 H   0  0  0  0  0  0
  -23.8353  -30.5426   19.3952 H   0  0  0  0  0  0
  -22.8008  -29.2211   19.8402 H   0  0  0  0  0  0
  -25.1320  -36.1838   25.0813 H   0  0  0  0  0  0
  -21.0014  -28.3251   24.1326 H   0  0  0  0  0  0
  -20.5688  -26.2308   23.3523 H   0  0  0  0  0  0
  -21.6652  -26.7443   22.1089 H   0  0  0  0  0  0
  -19.6924  -25.6355   21.1119 H   0  0  0  0  0  0
  -19.6681  -27.3261   20.6694 H   0  0  0  0  0  0
  -17.4207  -26.6675   21.3998 H   0  0  0  0  0  0
  -18.0387  -26.0064   22.8962 H   0  0  0  0  0  0
  -19.7980  -30.7247   24.2249 H   0  0  0  0  0  0
  -17.5078  -31.6237   24.5214 H   0  0  0  0  0  0
  -15.5390  -30.2965   23.7738 H   0  0  0  0  0  0
  -15.8683  -28.0816   22.7106 H   0  0  0  0  0  0
  -24.5872  -30.7114   25.7685 H   0  0  0  0  0  0
  -24.8878  -32.2949   26.4745 H   0  0  0  0  0  0
  -25.7947  -30.8963   27.0205 H   0  0  0  0  0  0
  -26.3049  -29.6661   24.1313 H   0  0  0  0  0  0
  -27.4000  -29.7275   25.4909 H   0  0  0  0  0  0
  -27.8961  -30.4190   23.9670 H   0  0  0  0  0  0
  -27.2636  -33.3656   26.2018 H   0  0  0  0  0  0
  -28.3900  -32.6857   25.0367 H   0  0  0  0  0  0
  -28.0672  -31.8502   26.5475 H   0  0  0  0  0  0
  -28.2589  -38.0075   24.7519 H   0  0  0  0  0  0
  -28.1071  -36.2607   24.6305 H   0  0  0  0  0  0
  -27.2284  -37.1435   25.8871 H   0  0  0  0  0  0
  -20.9503  -29.8822   21.6817 H   0  0  0  0  0  0
  -26.0150  -38.2807   24.1417 H   0  0  0  0  0  0
  -27.7836  -19.2179   22.5513 H   0  0  0  0  0  0
  -30.1388  -23.1030   18.6362 H   0  0  0  0  0  0
  -30.6635  -22.9620   20.2960 H   0  0  0  0  0  0
  -31.0603  -20.6901   19.5901 H   0  0  0  0  0  0
  -29.7292  -20.7138   18.4517 H   0  0  0  0  0  0
  -27.8342  -22.8371   19.2547 H   0  0  0  0  0  0
  -27.3340  -21.3282   21.0839 H   0  0  0  0  0  0
  -28.6020  -17.5679   24.8447 H   0  0  0  0  0  0
  -29.6573  -18.9797   24.9740 H   0  0  0  0  0  0
  -30.3530  -17.3628   24.8731 H   0  0  0  0  0  0
  -28.3403  -22.7340   22.8626 H   0  0  0  0  0  0
  -29.9542  -22.1835   22.4287 H   0  0  0  0  0  0
  -28.7876  -21.0836   23.1268 H   0  0  0  0  0  0
  -28.6160  -24.6447   21.6391 H   0  0  0  0  0  0
  -27.0544  -24.5019   20.9604 H   0  0  0  0  0  0
  -28.7449  -16.0546   20.3791 H   0  0  0  0  0  0
  1 25  1  0  0  0
  1 30  2  0  0  0
  1 83  1  0  0  0
  2  3  1  0  0  0
  2 25  1  0  0  0
  2 85  1  0  0  0
  2 86  1  0  0  0
  3  4  1  0  0  0
  3 87  1  0  0  0
  3 88  1  0  0  0
  4  5  1  0  0  0
  4 89  1  0  0  0
  4 90  1  0  0  0
  5  6  1  0  0  0
  5 26  1  0  0  0
  5 91  1  0  0  0
  6 25  1  0  0  0
  6 92  1  0  0  0
  6 93  1  0  0  0
  7  8  2  0  0  0
  7 26  1  0  0  0
  7 29  1  0  0  0
  8  9  1  0  0  0
  8 22  1  0  0  0
  9 10  1  0  0  0
  9 27  2  0  0  0
 10 11  2  0  0  0
 10 15  1  0  0  0
 11 12  1  0  0  0
 11 94  1  0  0  0
 12 13  2  0  0  0
 12 95  1  0  0  0
 13 14  1  0  0  0
 13 31  1  0  0  0
 14 15  2  0  0  0
 14 96  1  0  0  0
 15 97  1  0  0  0
 16 17  2  0  0  0
 16 21  1  0  0  0
 16 31  1  0  0  0
 17 18  1  0  0  0
 17 98  1  0  0  0
 18 19  2  0  0  0
 18 99  1  0  0  0
 19 20  1  0  0  0
 19 24  1  0  0  0
 20 21  2  0  0  0
 20100  1  0  0  0
 21 23  1  0  0  0
 22 28  1  0  0  0
 22 32  2  0  0  0
 26 27  1  0  0  0
 28101  1  0  0  0
 28102  1  0  0  0
 29103  1  0  0  0
 29104  1  0  0  0
 33 34  1  0  0  0
 33 66  1  0  0  0
 33 70  2  0  0  0
 34 36  1  0  0  0
 34 59  1  0  0  0
 34105  1  0  0  0
 35 44  2  0  0  0
 35 45  1  0  0  0
 35 68  1  0  0  0
 36 56  1  0  0  0
 36106  1  0  0  0
 37 39  1  0  0  0
 37 47  1  0  0  0
 37 66  1  0  0  0
 37107  1  0  0  0
 38 43  2  0  0  0
 38 46  1  0  0  0
 38 47  1  0  0  0
 39 64  1  0  0  0
 39 67  2  0  0  0
 40 52  1  0  0  0
 40 53  2  0  0  0
 40 58  1  0  0  0
 41108  1  0  0  0
 41109  1  0  0  0
 41110  1  0  0  0
 41 48  1  0  0  0
 42 43  1  0  0  0
 42 66  1  0  0  0
 42111  1  0  0  0
 42112  1  0  0  0
 43 44  1  0  0  0
 44113  1  0  0  0
 45 46  2  0  0  0
 45114  1  0  0  0
 46115  1  0  0  0
 47116  1  0  0  0
 47117  1  0  0  0
 48 56  1  0  0  0
 48 65  1  0  0  0
 48118  1  0  0  0
 49 50  1  0  0  0
 49 53  1  0  0  0
 49 64  1  0  0  0
 49119  1  0  0  0
 50 51  1  0  0  0
 50120  1  0  0  0
 50121  1  0  0  0
 51 52  1  0  0  0
 51122  1  0  0  0
 51123  1  0  0  0
 52124  1  0  0  0
 52125  1  0  0  0
 53 54  1  0  0  0
 54 55  2  0  0  0
 54126  1  0  0  0
 55 57  1  0  0  0
 55127  1  0  0  0
 56 69  2  0  0  0
 57 58  2  0  0  0
 57128  1  0  0  0
 58129  1  0  0  0
 59 60  1  0  0  0
 59 61  1  0  0  0
 59 62  1  0  0  0
 60130  1  0  0  0
 60131  1  0  0  0
 60132  1  0  0  0
 61133  1  0  0  0
 61134  1  0  0  0
 61135  1  0  0  0
 62136  1  0  0  0
 62137  1  0  0  0
 62138  1  0  0  0
 63 65  1  0  0  0
 63139  1  0  0  0
 63140  1  0  0  0
 63141  1  0  0  0
 64142  1  0  0  0
 65143  1  0  0  0
 68 81  1  0  0  0
 71 72  1  0  0  0
 71 73  2  0  0  0
 71144  1  0  0  0
 72 74  2  0  0  0
 72 82  1  0  0  0
 73 79  1  0  0  0
 73 84  1  0  0  0
 74 83  1  0  0  0
 74 84  1  0  0  0
 75 76  1  0  0  0
 75 77  1  0  0  0
 75145  1  0  0  0
 75146  1  0  0  0
 76 82  1  0  0  0
 76147  1  0  0  0
 76148  1  0  0  0
 77 78  1  0  0  0
 77 81  1  0  0  0
 77149  1  0  0  0
 78 80  1  0  0  0
 78 82  1  0  0  0
 78150  1  0  0  0
 79151  1  0  0  0
 79152  1  0  0  0
 79153  1  0  0  0
 80154  1  0  0  0
 80155  1  0  0  0
 80156  1  0  0  0
 81157  1  0  0  0
 81158  1  0  0  0
 83159  1  0  0  0
M  ISO  4   1 100  68 101  81 101  83 100
M  END
> <chiral flag>
0

> <version>
0

> <s_m_source_file>
/data/baiqing/PycharmProjects/Reinvent-master-3.2/result/LINK_invent/BTK/process_docking_weight1_custom_product_contain_oxygen_bond_distance_aromatic_linkinvent_7_9_3/rearranged_h_0146.sdf

> <i_m_source_file_index>
69

> <r_mmod_Potential_Energy-OPLS-2005>
973.085876464844

> <r_mmod_Stretch_Energy-OPLS-2005>
322.329803466797

> <r_mmod_Bend_Energy-OPLS-2005>
391.739624023438

> <r_mmod_Torsional_Energy-OPLS-2005>
505.530059814453

> <r_mmod_Improper_Torsional_Energy-OPLS-2005>
24.8908958435059

> <r_mmod_Van_der_Waal_Energy-OPLS-2005>
105.965682983398

> <r_mmod_Electrostatic_Energy-OPLS-2005>
-409.61865234375

> <r_mmod_Solvation_Energy-OPLS-2005>
-222.944976806641

> <b_mmod_Minimization_Converged-OPLS-2005>
0

> <r_mmod_RMS_Derivative-OPLS-2005>
1.68531596660614

$$$$
69
                    3D
 Structure written by MMmdl.
170179  0  0  1  0            999 V2000
  -30.6757  -14.4942   20.5664 C   0  0  0  0  0  0
  -30.4471  -12.3092   19.4240 C   0  0  0  0  0  0
  -29.5234  -12.5272   18.2071 C   0  0  0  0  0  0
  -28.0349  -12.3915   18.6071 C   0  0  0  0  0  0
  -27.6784  -13.2047   19.8840 C   0  0  2  0  0  0
  -28.7208  -12.9446   20.9946 C   0  0  0  0  0  0
  -25.2697  -13.8111   20.5672 C   0  0  0  0  0  0
  -24.1908  -13.0421   20.9211 C   0  0  0  0  0  0
  -24.6435  -11.6892   20.8740 C   0  0  0  0  0  0
  -23.9039  -10.4307   21.0364 C   0  0  0  0  0  0
  -24.3560   -9.4230   21.9163 C   0  0  0  0  0  0
  -23.6237   -8.2263   22.0756 C   0  0  0  0  0  0
  -22.4234   -8.0286   21.3541 C   0  0  0  0  0  0
  -21.9862   -9.0244   20.4640 C   0  0  0  0  0  0
  -22.7177  -10.2143   20.3039 C   0  0  0  0  0  0
  -21.6849   -6.0701   22.5260 C   0  0  0  0  0  0
  -21.4011   -6.5616   23.8191 C   0  0  0  0  0  0
  -21.3694   -5.6767   24.9156 C   0  0  0  0  0  0
  -21.6066   -4.3028   24.7199 C   0  0  0  0  0  0
  -21.8812   -3.8118   23.4309 C   0  0  0  0  0  0
  -21.9175   -4.6932   22.3371 C   0  0  0  0  0  0
  -22.7894  -13.5211   21.1801 C   0  0  0  0  0  0
  -22.1621   -4.2107   21.0951 F   0  0  0  0  0  0
  -21.5691   -3.4529   25.7717 F   0  0  0  0  0  0
  -30.0561  -13.2786   20.4627 N   0  0  0  0  0  0
  -26.3149  -12.9281   20.3380 N   0  0  0  0  0  0
  -25.9380  -11.6432   20.5750 N   0  0  0  0  0  0
  -22.0377  -12.8329   22.0360 N   0  0  0  0  0  0
  -25.4632  -15.1779   20.4067 N   0  0  0  0  0  0
  -31.7575  -14.7350   20.0262 O   0  0  0  0  0  0
  -21.6618   -6.8864   21.4237 O   0  0  0  0  0  0
  -22.3642  -14.5495   20.6576 O   0  0  0  0  0  0
  -24.6208  -31.8680   23.2125 C   0  0  0  0  0  0
  -25.9093  -32.4822   23.8412 C   0  0  1  0  0  0
  -27.1914  -27.3413   20.0955 C   0  0  0  0  0  0
  -25.5959  -33.8627   24.2357 N   0  0  0  0  0  0
  -23.4100  -30.4984   21.5555 C   0  0  2  0  0  0
  -24.8463  -28.9563   20.1237 C   0  0  0  0  0  0
  -22.7431  -29.4712   22.5020 C   0  0  0  0  0  0
  -18.0258  -28.1373   22.8458 C   0  0  0  0  0  0
  -24.1496  -36.7314   23.2650 C   0  0  0  0  0  0
  -25.9536  -30.7907   21.3898 C   0  0  0  0  0  0
  -26.0186  -29.4264   20.7260 C   0  0  0  0  0  0
  -27.1977  -28.6249   20.7117 C   0  0  0  0  0  0
  -25.9863  -26.9188   19.4813 C   0  0  0  0  0  0
  -24.8265  -27.7039   19.5054 C   0  0  0  0  0  0
  -23.6167  -29.8328   20.1726 C   0  0  0  0  0  0
  -25.4127  -36.3142   24.0353 C   0  0  1  0  0  0
  -20.5854  -28.3688   23.1290 C   0  0  2  0  0  0
  -20.6761  -26.9427   22.5399 C   0  0  0  0  0  0
  -19.5749  -26.6352   21.5201 C   0  0  0  0  0  0
  -18.1922  -26.7914   22.1597 C   0  0  0  0  0  0
  -19.1523  -28.8846   23.2847 C   0  0  0  0  0  0
  -18.9459  -30.1450   23.8859 C   0  0  0  0  0  0
  -17.6476  -30.6606   24.0523 C   0  0  0  0  0  0
  -25.9046  -34.9490   23.5149 C   0  0  0  0  0  0
  -16.5350  -29.9094   23.6344 C   0  0  0  0  0  0
  -16.7252  -28.6501   23.0370 C   0  0  0  0  0  0
  -26.4437  -31.6632   25.0797 C   0  0  0  0  0  0
  -25.3658  -31.3758   26.1526 C   0  0  0  0  0  0
  -27.0316  -30.3081   24.6287 C   0  0  0  0  0  0
  -27.6033  -32.4342   25.7529 C   0  0  0  0  0  0
  -27.5606  -37.1835   24.8462 C   0  0  0  0  0  0
  -21.4167  -29.3072   22.3732 N   0  0  0  0  0  0
  -26.4329  -37.3822   23.9398 N   0  0  0  0  0  0
  -24.6801  -31.0690   22.1069 N   0  0  0  0  0  0
  -23.4169  -28.8238   23.3078 O   0  0  0  0  0  0
  -28.3064  -26.4953   20.1256 O   0  0  0  0  0  0
  -26.5589  -34.8938   22.4695 O   0  0  0  0  0  0
  -23.5390  -32.1477   23.7468 O   0  0  0  0  0  0
  -30.2820  -17.6622   19.9811 C   0  0  0  0  0  0
  -29.9231  -16.8524   21.1130 C   0  0  0  0  0  0
  -29.8253  -18.9359   20.2554 C   0  0  0  0  0  0
  -29.3249  -17.6865   22.0266 C   0  0  0  0  0  0
  -30.3613  -24.3567   20.6995 C   0  0  0  0  0  0
  -29.1468  -24.0366   20.2215 C   0  0  0  0  0  0
  -31.4705  -23.3350   20.8897 C   0  0  0  0  0  0
  -28.8299  -22.5803   19.7769 C   0  0  0  0  0  0
  -31.2467  -22.0405   20.0760 C   0  0  0  0  0  0
  -29.1543  -18.6237   24.3253 C   0  0  0  0  0  0
  -28.8730  -16.1530   24.0147 C   0  0  0  0  0  0
  -27.1186  -17.6846   23.1554 C   0  0  0  0  0  0
  -29.6694  -20.2196   19.4406 C   0  0  0  0  0  0
  -27.9974  -25.0596   20.0679 C   0  0  0  0  0  0
  -28.6388  -17.5324   23.3627 C   0  0  0  0  0  0
  -29.9972  -15.4241   21.2721 N   0  0  0  0  0  0
  -29.8484  -21.5309   20.1623 N   0  3  2  0  0  0
  -29.2651  -18.9520   21.5001 O   0  0  0  0  0  0
  -31.4930  -12.4141   19.1271 H   0  0  0  0  0  0
  -30.3462  -11.2841   19.7854 H   0  0  0  0  0  0
  -29.7688  -11.8130   17.4200 H   0  0  0  0  0  0
  -29.7111  -13.5149   17.7852 H   0  0  0  0  0  0
  -27.8357  -11.3328   18.7802 H   0  0  0  0  0  0
  -27.3905  -12.6848   17.7751 H   0  0  0  0  0  0
  -27.7387  -14.2620   19.6214 H   0  0  0  0  0  0
  -28.6998  -11.8921   21.2811 H   0  0  0  0  0  0
  -28.4709  -13.4963   21.9013 H   0  0  0  0  0  0
  -25.2664   -9.5727   22.4767 H   0  0  0  0  0  0
  -23.9948   -7.4668   22.7504 H   0  0  0  0  0  0
  -21.0773   -8.8701   19.8973 H   0  0  0  0  0  0
  -22.3532  -10.9653   19.6171 H   0  0  0  0  0  0
  -21.1993   -7.6109   23.9699 H   0  0  0  0  0  0
  -21.1548   -6.0474   25.9065 H   0  0  0  0  0  0
  -22.0567   -2.7566   23.2792 H   0  0  0  0  0  0
  -22.3711  -11.9966   22.4914 H   0  0  0  0  0  0
  -21.1047  -13.1629   22.2449 H   0  0  0  0  0  0
  -24.7230  -15.8668   20.4804 H   0  0  0  0  0  0
  -26.3377  -15.5680   20.0792 H   0  0  0  0  0  0
  -26.7142  -32.5438   23.1124 H   0  0  0  0  0  0
  -25.0102  -33.9739   25.0511 H   0  0  0  0  0  0
  -22.7035  -31.3190   21.4158 H   0  0  0  0  0  0
  -23.3802  -35.9607   23.3315 H   0  0  0  0  0  0
  -24.3578  -36.8913   22.2062 H   0  0  0  0  0  0
  -23.7178  -37.6506   23.6623 H   0  0  0  0  0  0
  -26.1002  -31.5560   20.6270 H   0  0  0  0  0  0
  -26.8292  -30.8207   22.0268 H   0  0  0  0  0  0
  -28.0959  -28.9634   21.2074 H   0  0  0  0  0  0
  -25.8733  -25.9748   18.9731 H   0  0  0  0  0  0
  -23.9172  -27.3328   19.0580 H   0  0  0  0  0  0
  -23.7294  -30.5967   19.4032 H   0  0  0  0  0  0
  -22.7324  -29.2593   19.8859 H   0  0  0  0  0  0
  -25.1305  -36.2033   25.0854 H   0  0  0  0  0  0
  -20.9893  -28.3234   24.1432 H   0  0  0  0  0  0
  -20.5653  -26.2317   23.3597 H   0  0  0  0  0  0
  -21.6632  -26.7460   22.1208 H   0  0  0  0  0  0
  -19.6913  -25.6240   21.1295 H   0  0  0  0  0  0
  -19.6709  -27.3086   20.6682 H   0  0  0  0  0  0
  -17.4204  -26.6660   21.3978 H   0  0  0  0  0  0
  -18.0318  -26.0034   22.8979 H   0  0  0  0  0  0
  -19.7960  -30.7239   24.2222 H   0  0  0  0  0  0
  -17.5066  -31.6296   24.5106 H   0  0  0  0  0  0
  -15.5362  -30.2993   23.7733 H   0  0  0  0  0  0
  -15.8628  -28.0803   22.7150 H   0  0  0  0  0  0
  -24.5781  -30.7179   25.7817 H   0  0  0  0  0  0
  -24.8881  -32.2916   26.5036 H   0  0  0  0  0  0
  -25.7948  -30.8830   27.0267 H   0  0  0  0  0  0
  -26.2929  -29.6831   24.1263 H   0  0  0  0  0  0
  -27.3970  -29.7346   25.4820 H   0  0  0  0  0  0
  -27.8803  -30.4427   23.9581 H   0  0  0  0  0  0
  -27.2704  -33.3638   26.2158 H   0  0  0  0  0  0
  -28.3796  -32.6919   25.0310 H   0  0  0  0  0  0
  -28.0762  -31.8435   26.5386 H   0  0  0  0  0  0
  -28.2653  -38.0117   24.7555 H   0  0  0  0  0  0
  -28.1092  -36.2663   24.6264 H   0  0  0  0  0  0
  -27.2318  -37.1441   25.8865 H   0  0  0  0  0  0
  -20.9381  -29.8825   21.6950 H   0  0  0  0  0  0
  -26.0251  -38.2934   24.1359 H   0  0  0  0  0  0
  -30.7169  -17.3372   19.0444 H   0  0  0  0  0  0
  -30.5772  -25.3748   21.0005 H   0  0  0  0  0  0
  -31.5376  -23.0959   21.9529 H   0  0  0  0  0  0
  -32.4261  -23.7871   20.6101 H   0  0  0  0  0  0
  -28.7258  -22.5967   18.6903 H   0  0  0  0  0  0
  -27.8494  -22.2770   20.1555 H   0  0  0  0  0  0
  -31.9375  -21.2815   20.4483 H   0  0  0  0  0  0
  -31.5116  -22.2130   19.0293 H   0  0  0  0  0  0
  -30.2283  -18.5244   24.4889 H   0  0  0  0  0  0
  -28.6608  -18.5952   25.2960 H   0  0  0  0  0  0
  -28.9752  -19.6216   23.9280 H   0  0  0  0  0  0
  -29.9325  -15.8975   24.0695 H   0  0  0  0  0  0
  -28.3547  -15.3607   23.4744 H   0  0  0  0  0  0
  -28.4958  -16.1211   25.0372 H   0  0  0  0  0  0
  -26.8660  -18.6767   22.7873 H   0  0  0  0  0  0
  -26.5595  -17.5184   24.0773 H   0  0  0  0  0  0
  -26.7466  -16.9684   22.4193 H   0  0  0  0  0  0
  -28.6610  -20.1870   19.0284 H   0  0  0  0  0  0
  -30.3233  -20.1867   18.5685 H   0  0  0  0  0  0
  -27.2585  -24.8271   20.8419 H   0  0  0  0  0  0
  -27.5516  -24.8086   19.1063 H   0  0  0  0  0  0
  -29.2943  -15.0321   21.8799 H   0  0  0  0  0  0
  -29.6802  -21.3146   21.1329 H   0  0  0  0  0  0
  1 25  1  0  0  0
  1 30  2  0  0  0
  1 86  1  0  0  0
  2  3  1  0  0  0
  2 25  1  0  0  0
  2 89  1  0  0  0
  2 90  1  0  0  0
  3  4  1  0  0  0
  3 91  1  0  0  0
  3 92  1  0  0  0
  4  5  1  0  0  0
  4 93  1  0  0  0
  4 94  1  0  0  0
  5  6  1  0  0  0
  5 26  1  0  0  0
  5 95  1  0  0  0
  6 25  1  0  0  0
  6 96  1  0  0  0
  6 97  1  0  0  0
  7  8  2  0  0  0
  7 26  1  0  0  0
  7 29  1  0  0  0
  8  9  1  0  0  0
  8 22  1  0  0  0
  9 10  1  0  0  0
  9 27  2  0  0  0
 10 11  2  0  0  0
 10 15  1  0  0  0
 11 12  1  0  0  0
 11 98  1  0  0  0
 12 13  2  0  0  0
 12 99  1  0  0  0
 13 14  1  0  0  0
 13 31  1  0  0  0
 14 15  2  0  0  0
 14100  1  0  0  0
 15101  1  0  0  0
 16 17  2  0  0  0
 16 21  1  0  0  0
 16 31  1  0  0  0
 17 18  1  0  0  0
 17102  1  0  0  0
 18 19  2  0  0  0
 18103  1  0  0  0
 19 20  1  0  0  0
 19 24  1  0  0  0
 20 21  2  0  0  0
 20104  1  0  0  0
 21 23  1  0  0  0
 22 28  1  0  0  0
 22 32  2  0  0  0
 26 27  1  0  0  0
 28105  1  0  0  0
 28106  1  0  0  0
 29107  1  0  0  0
 29108  1  0  0  0
 33 34  1  0  0  0
 33 66  1  0  0  0
 33 70  2  0  0  0
 34 36  1  0  0  0
 34 59  1  0  0  0
 34109  1  0  0  0
 35 44  2  0  0  0
 35 45  1  0  0  0
 35 68  1  0  0  0
 36 56  1  0  0  0
 36110  1  0  0  0
 37 39  1  0  0  0
 37 47  1  0  0  0
 37 66  1  0  0  0
 37111  1  0  0  0
 38 43  2  0  0  0
 38 46  1  0  0  0
 38 47  1  0  0  0
 39 64  1  0  0  0
 39 67  2  0  0  0
 40 52  1  0  0  0
 40 53  2  0  0  0
 40 58  1  0  0  0
 41112  1  0  0  0
 41113  1  0  0  0
 41114  1  0  0  0
 41 48  1  0  0  0
 42 43  1  0  0  0
 42 66  1  0  0  0
 42115  1  0  0  0
 42116  1  0  0  0
 43 44  1  0  0  0
 44117  1  0  0  0
 45 46  2  0  0  0
 45118  1  0  0  0
 46119  1  0  0  0
 47120  1  0  0  0
 47121  1  0  0  0
 48 56  1  0  0  0
 48 65  1  0  0  0
 48122  1  0  0  0
 49 50  1  0  0  0
 49 53  1  0  0  0
 49 64  1  0  0  0
 49123  1  0  0  0
 50 51  1  0  0  0
 50124  1  0  0  0
 50125  1  0  0  0
 51 52  1  0  0  0
 51126  1  0  0  0
 51127  1  0  0  0
 52128  1  0  0  0
 52129  1  0  0  0
 53 54  1  0  0  0
 54 55  2  0  0  0
 54130  1  0  0  0
 55 57  1  0  0  0
 55131  1  0  0  0
 56 69  2  0  0  0
 57 58  2  0  0  0
 57132  1  0  0  0
 58133  1  0  0  0
 59 60  1  0  0  0
 59 61  1  0  0  0
 59 62  1  0  0  0
 60134  1  0  0  0
 60135  1  0  0  0
 60136  1  0  0  0
 61137  1  0  0  0
 61138  1  0  0  0
 61139  1  0  0  0
 62140  1  0  0  0
 62141  1  0  0  0
 62142  1  0  0  0
 63 65  1  0  0  0
 63143  1  0  0  0
 63144  1  0  0  0
 63145  1  0  0  0
 64146  1  0  0  0
 65147  1  0  0  0
 68 84  1  0  0  0
 71 72  1  0  0  0
 71 73  2  0  0  0
 71148  1  0  0  0
 72 74  2  0  0  0
 72 86  1  0  0  0
 73 83  1  0  0  0
 73 88  1  0  0  0
 74 85  1  0  0  0
 74 88  1  0  0  0
 75 76  2  0  0  0
 75 77  1  0  0  0
 75149  1  0  0  0
 76 78  1  0  0  0
 76 84  1  0  0  0
 77 79  1  0  0  0
 77150  1  0  0  0
 77151  1  0  0  0
 78 87  1  0  0  0
 78152  1  0  0  0
 78153  1  0  0  0
 79 87  1  0  0  0
 79154  1  0  0  0
 79155  1  0  0  0
 80156  1  0  0  0
 80157  1  0  0  0
 80158  1  0  0  0
 80 85  1  0  0  0
 81 85  1  0  0  0
 81159  1  0  0  0
 81160  1  0  0  0
 81161  1  0  0  0
 82 85  1  0  0  0
 82162  1  0  0  0
 82163  1  0  0  0
 82164  1  0  0  0
 83165  1  0  0  0
 83166  1  0  0  0
 83 87  1  0  0  0
 84167  1  0  0  0
 84168  1  0  0  0
 86169  1  0  0  0
 87170  1  0  0  0
M  CHG  1  87   1
M  ISO  4   1 100  68 101  84 101  86 100
M  END
> <chiral flag>
0

> <version>
0

> <s_m_source_file>
/data/baiqing/PycharmProjects/Reinvent-master-3.2/result/LINK_invent/BTK/process_docking_weight1_custom_product_contain_oxygen_bond_distance_aromatic_linkinvent_7_9_3/rearranged_h_0146.sdf

> <i_m_source_file_index>
70

> <r_mmod_Potential_Energy-OPLS-2005>
-136.355209350586

> <r_mmod_Stretch_Energy-OPLS-2005>
57.6469421386719

> <r_mmod_Bend_Energy-OPLS-2005>
135.404205322266

> <r_mmod_Torsional_Energy-OPLS-2005>
233.948226928711

> <r_mmod_Improper_Torsional_Energy-OPLS-2005>
4.64604234695435

> <r_mmod_Van_der_Waal_Energy-OPLS-2005>
133.031585693359

> <r_mmod_Electrostatic_Energy-OPLS-2005>
-309.204864501953

> <r_mmod_Solvation_Energy-OPLS-2005>
-420.669067382812

> <b_mmod_Minimization_Converged-OPLS-2005>
0

> <r_mmod_RMS_Derivative-OPLS-2005>
6.64187908172607

$$$$
70
                    3D
 Structure written by MMmdl.
181190  0  0  1  0            999 V2000
  -30.7955  -14.3074   20.7481 C   0  0  0  0  0  0
  -30.4197  -12.2931   19.3711 C   0  0  0  0  0  0
  -29.4790  -12.5439   18.1806 C   0  0  0  0  0  0
  -28.0067  -12.3849   18.6020 C   0  0  0  0  0  0
  -27.6681  -13.1979   19.8775 C   0  0  2  0  0  0
  -28.7042  -12.9220   20.9874 C   0  0  0  0  0  0
  -25.2620  -13.8148   20.5660 C   0  0  0  0  0  0
  -24.1862  -13.0441   20.9153 C   0  0  0  0  0  0
  -24.6394  -11.6899   20.8713 C   0  0  0  0  0  0
  -23.9055  -10.4291   21.0396 C   0  0  0  0  0  0
  -24.3610   -9.4208   21.9175 C   0  0  0  0  0  0
  -23.6289   -8.2245   22.0751 C   0  0  0  0  0  0
  -22.4273   -8.0282   21.3544 C   0  0  0  0  0  0
  -21.9900   -9.0257   20.4647 C   0  0  0  0  0  0
  -22.7224  -10.2132   20.3051 C   0  0  0  0  0  0
  -21.6857   -6.0740   22.5280 C   0  0  0  0  0  0
  -21.4010   -6.5639   23.8213 C   0  0  0  0  0  0
  -21.3661   -5.6793   24.9175 C   0  0  0  0  0  0
  -21.6044   -4.3057   24.7225 C   0  0  0  0  0  0
  -21.8821   -3.8145   23.4346 C   0  0  0  0  0  0
  -21.9189   -4.6964   22.3400 C   0  0  0  0  0  0
  -22.7884  -13.5242   21.1824 C   0  0  0  0  0  0
  -22.1662   -4.2148   21.0980 F   0  0  0  0  0  0
  -21.5629   -3.4536   25.7740 F   0  0  0  0  0  0
  -30.0546  -13.2086   20.4596 N   0  0  0  0  0  0
  -26.3052  -12.9299   20.3356 N   0  0  0  0  0  0
  -25.9314  -11.6461   20.5727 N   0  0  0  0  0  0
  -22.0523  -12.8250   22.0388 N   0  0  0  0  0  0
  -25.4365  -15.1865   20.4089 N   0  0  0  0  0  0
  -31.7472  -14.6876   20.0573 O   0  0  0  0  0  0
  -21.6642   -6.8878   21.4244 O   0  0  0  0  0  0
  -22.3570  -14.5560   20.6689 O   0  0  0  0  0  0
  -24.6105  -31.8698   23.2143 C   0  0  0  0  0  0
  -25.9017  -32.4825   23.8424 C   0  0  1  0  0  0
  -27.2366  -27.4624   20.0799 C   0  0  0  0  0  0
  -25.5873  -33.8625   24.2344 N   0  0  0  0  0  0
  -23.3957  -30.4921   21.5541 C   0  0  2  0  0  0
  -24.8389  -28.9605   20.1173 C   0  0  0  0  0  0
  -22.7368  -29.4661   22.5032 C   0  0  0  0  0  0
  -18.0263  -28.1358   22.8491 C   0  0  0  0  0  0
  -24.1492  -36.7342   23.2631 C   0  0  0  0  0  0
  -25.9204  -30.8409   21.3618 C   0  0  0  0  0  0
  -25.9964  -29.4773   20.7092 C   0  0  0  0  0  0
  -27.1946  -28.7349   20.6886 C   0  0  0  0  0  0
  -26.0592  -26.9542   19.4795 C   0  0  0  0  0  0
  -24.8641  -27.6971   19.5025 C   0  0  0  0  0  0
  -23.5990  -29.8224   20.1686 C   0  0  0  0  0  0
  -25.4107  -36.3118   24.0334 C   0  0  1  0  0  0
  -20.5838  -28.3642   23.1333 C   0  0  2  0  0  0
  -20.6742  -26.9386   22.5414 C   0  0  0  0  0  0
  -19.5735  -26.6381   21.5197 C   0  0  0  0  0  0
  -18.1914  -26.7915   22.1616 C   0  0  0  0  0  0
  -19.1504  -28.8819   23.2912 C   0  0  0  0  0  0
  -18.9433  -30.1427   23.8924 C   0  0  0  0  0  0
  -17.6431  -30.6575   24.0551 C   0  0  0  0  0  0
  -25.9022  -34.9477   23.5138 C   0  0  0  0  0  0
  -16.5325  -29.9071   23.6313 C   0  0  0  0  0  0
  -16.7249  -28.6478   23.0350 C   0  0  0  0  0  0
  -26.4460  -31.6593   25.0740 C   0  0  0  0  0  0
  -25.3737  -31.3692   26.1499 C   0  0  0  0  0  0
  -27.0245  -30.3022   24.6094 C   0  0  0  0  0  0
  -27.6075  -32.4283   25.7478 C   0  0  0  0  0  0
  -27.5594  -37.1815   24.8453 C   0  0  0  0  0  0
  -21.4099  -29.3025   22.3763 N   0  0  0  0  0  0
  -26.4299  -37.3799   23.9412 N   0  0  0  0  0  0
  -24.6605  -31.0801   22.1039 N   0  0  0  0  0  0
  -23.4160  -28.8214   23.3069 O   0  0  0  0  0  0
  -28.4417  -26.7944   20.0947 O   0  0  0  0  0  0
  -26.5588  -34.8924   22.4703 O   0  0  0  0  0  0
  -23.5301  -32.1449   23.7545 O   0  0  0  0  0  0
  -31.1525  -22.5386   24.1502 C   0  0  0  0  0  0
  -28.8966  -22.5212   25.0505 C   0  0  0  0  0  0
  -30.7540  -23.4522   23.1545 C   0  0  0  0  0  0
  -28.5028  -23.4483   24.0679 C   0  0  0  0  0  0
  -32.2751  -17.6335   23.4819 C   0  0  0  0  0  0
  -30.2295  -22.0466   25.1070 C   0  0  0  0  0  0
  -32.2405  -16.3874   22.7781 C   0  0  0  0  0  0
  -29.4229  -23.9162   23.1115 C   0  0  0  0  0  0
  -31.0398  -18.1524   23.7838 C   0  0  0  0  0  0
  -30.9470  -15.9926   22.4985 C   0  0  0  0  0  0
  -31.3768  -19.8246   25.5025 C   0  0  0  0  0  0
  -34.6604  -15.7927   23.3810 C   0  0  0  0  0  0
  -31.1872  -23.0308   27.8359 C   0  0  0  0  0  0
  -28.9171  -25.2126   18.3513 C   0  0  0  0  0  0
  -29.5280  -20.4609   27.0274 C   0  0  0  0  0  0
  -33.4766  -15.5958   22.4225 C   0  0  0  0  0  0
  -31.6957  -21.7419   27.1603 C   0  0  0  0  0  0
  -29.5119  -24.7909   20.8042 C   0  0  0  0  0  0
  -28.4987  -25.3962   19.8142 C   0  0  2  0  0  0
  -30.6963  -21.0434   26.1898 C   0  0  2  0  0  0
  -28.9827  -24.8437   22.1626 N   0  0  0  0  0  0
  -30.7091  -19.2689   24.4771 N   0  0  0  0  0  0
  -30.4756  -14.8599   21.9257 N   0  0  0  0  0  0
  -32.4633  -19.3956   25.9073 O   0  0  0  0  0  0
  -29.7934  -17.1417   23.1226 S   0  0  0  0  0  0
  -31.4602  -12.4109   19.0620 H   0  0  0  0  0  0
  -30.3302  -11.2624   19.7169 H   0  0  0  0  0  0
  -29.7124  -11.8580   17.3656 H   0  0  0  0  0  0
  -29.6428  -13.5499   17.7898 H   0  0  0  0  0  0
  -27.8194  -11.3245   18.7754 H   0  0  0  0  0  0
  -27.3487  -12.6794   17.7840 H   0  0  0  0  0  0
  -27.7328  -14.2547   19.6162 H   0  0  0  0  0  0
  -28.6599  -11.8753   21.2919 H   0  0  0  0  0  0
  -28.4372  -13.4909   21.8781 H   0  0  0  0  0  0
  -25.2764   -9.5688   22.4737 H   0  0  0  0  0  0
  -24.0005   -7.4638   22.7466 H   0  0  0  0  0  0
  -21.0829   -8.8770   19.8957 H   0  0  0  0  0  0
  -22.3684  -10.9669   19.6155 H   0  0  0  0  0  0
  -21.2006   -7.6145   23.9715 H   0  0  0  0  0  0
  -21.1482   -6.0522   25.9077 H   0  0  0  0  0  0
  -22.0597   -2.7607   23.2846 H   0  0  0  0  0  0
  -22.4131  -11.9905   22.4780 H   0  0  0  0  0  0
  -21.1138  -13.1282   22.2598 H   0  0  0  0  0  0
  -24.6751  -15.8463   20.5231 H   0  0  0  0  0  0
  -26.2996  -15.6242   20.1115 H   0  0  0  0  0  0
  -26.7080  -32.5531   23.1184 H   0  0  0  0  0  0
  -25.0005  -33.9810   25.0470 H   0  0  0  0  0  0
  -22.6828  -31.3087   21.4169 H   0  0  0  0  0  0
  -23.3734  -35.9693   23.3283 H   0  0  0  0  0  0
  -24.3584  -36.8970   22.2045 H   0  0  0  0  0  0
  -23.7270  -37.6560   23.6645 H   0  0  0  0  0  0
  -26.0229  -31.6070   20.5919 H   0  0  0  0  0  0
  -26.8120  -30.8944   21.9756 H   0  0  0  0  0  0
  -28.0912  -29.1356   21.1410 H   0  0  0  0  0  0
  -26.0422  -26.0001   18.9742 H   0  0  0  0  0  0
  -23.9746  -27.2970   19.0357 H   0  0  0  0  0  0
  -23.6993  -30.5955   19.4049 H   0  0  0  0  0  0
  -22.7247  -29.2359   19.8800 H   0  0  0  0  0  0
  -25.1270  -36.1991   25.0822 H   0  0  0  0  0  0
  -20.9930  -28.3190   24.1455 H   0  0  0  0  0  0
  -20.5614  -26.2255   23.3593 H   0  0  0  0  0  0
  -21.6619  -26.7417   22.1228 H   0  0  0  0  0  0
  -19.6890  -25.6294   21.1228 H   0  0  0  0  0  0
  -19.6678  -27.3182   20.6717 H   0  0  0  0  0  0
  -17.4186  -26.6670   21.4016 H   0  0  0  0  0  0
  -18.0315  -26.0036   22.8986 H   0  0  0  0  0  0
  -19.7900  -30.7225   24.2335 H   0  0  0  0  0  0
  -17.4980  -31.6261   24.5136 H   0  0  0  0  0  0
  -15.5324  -30.2972   23.7625 H   0  0  0  0  0  0
  -15.8652  -28.0790   22.7076 H   0  0  0  0  0  0
  -24.5925  -30.7011   25.7857 H   0  0  0  0  0  0
  -24.8898  -32.2826   26.4956 H   0  0  0  0  0  0
  -25.8099  -30.8875   27.0258 H   0  0  0  0  0  0
  -26.2755  -29.6830   24.1134 H   0  0  0  0  0  0
  -27.3977  -29.7217   25.4546 H   0  0  0  0  0  0
  -27.8623  -30.4323   23.9242 H   0  0  0  0  0  0
  -27.2740  -33.3584   26.2098 H   0  0  0  0  0  0
  -28.3856  -32.6839   25.0268 H   0  0  0  0  0  0
  -28.0769  -31.8363   26.5349 H   0  0  0  0  0  0
  -28.2601  -38.0121   24.7485 H   0  0  0  0  0  0
  -28.1094  -36.2646   24.6263 H   0  0  0  0  0  0
  -27.2308  -37.1454   25.8857 H   0  0  0  0  0  0
  -20.9271  -29.8751   21.6980 H   0  0  0  0  0  0
  -26.0184  -38.2882   24.1397 H   0  0  0  0  0  0
  -32.1831  -22.2143   24.1710 H   0  0  0  0  0  0
  -28.1498  -22.1968   25.7591 H   0  0  0  0  0  0
  -31.4881  -23.8020   22.4424 H   0  0  0  0  0  0
  -27.4779  -23.7914   24.0575 H   0  0  0  0  0  0
  -33.2061  -18.0959   23.7734 H   0  0  0  0  0  0
  -35.4869  -15.1381   23.1051 H   0  0  0  0  0  0
  -34.3813  -15.5549   24.4077 H   0  0  0  0  0  0
  -35.0393  -16.8143   23.3577 H   0  0  0  0  0  0
  -31.9484  -23.4362   28.5025 H   0  0  0  0  0  0
  -30.2976  -22.8528   28.4390 H   0  0  0  0  0  0
  -30.9508  -23.8068   27.1088 H   0  0  0  0  0  0
  -28.2289  -25.7241   17.6778 H   0  0  0  0  0  0
  -28.9263  -24.1581   18.0739 H   0  0  0  0  0  0
  -29.9144  -25.6150   18.1764 H   0  0  0  0  0  0
  -28.7846  -19.9648   26.4010 H   0  0  0  0  0  0
  -29.0053  -21.2230   27.6028 H   0  0  0  0  0  0
  -29.8880  -19.7204   27.7436 H   0  0  0  0  0  0
  -33.7937  -15.8465   21.4096 H   0  0  0  0  0  0
  -33.2403  -14.5314   22.4064 H   0  0  0  0  0  0
  -31.9993  -21.0409   27.9392 H   0  0  0  0  0  0
  -32.6110  -21.9910   26.6220 H   0  0  0  0  0  0
  -30.4576  -25.3329   20.7564 H   0  0  0  0  0  0
  -29.7222  -23.7552   20.5299 H   0  0  0  0  0  0
  -27.5475  -24.8902   19.9807 H   0  0  0  0  0  0
  -28.0157  -25.1470   22.2289 H   0  0  0  0  0  0
  -29.7997  -19.6699   24.2886 H   0  0  0  0  0  0
  -29.6497  -14.4635   22.3486 H   0  0  0  0  0  0
  1 25  1  0  0  0
  1 30  2  0  0  0
  1 93  1  0  0  0
  2  3  1  0  0  0
  2 25  1  0  0  0
  2 96  1  0  0  0
  2 97  1  0  0  0
  3  4  1  0  0  0
  3 98  1  0  0  0
  3 99  1  0  0  0
  4  5  1  0  0  0
  4100  1  0  0  0
  4101  1  0  0  0
  5  6  1  0  0  0
  5 26  1  0  0  0
  5102  1  0  0  0
  6 25  1  0  0  0
  6103  1  0  0  0
  6104  1  0  0  0
  7  8  2  0  0  0
  7 26  1  0  0  0
  7 29  1  0  0  0
  8  9  1  0  0  0
  8 22  1  0  0  0
  9 10  1  0  0  0
  9 27  2  0  0  0
 10 11  2  0  0  0
 10 15  1  0  0  0
 11 12  1  0  0  0
 11105  1  0  0  0
 12 13  2  0  0  0
 12106  1  0  0  0
 13 14  1  0  0  0
 13 31  1  0  0  0
 14 15  2  0  0  0
 14107  1  0  0  0
 15108  1  0  0  0
 16 17  2  0  0  0
 16 21  1  0  0  0
 16 31  1  0  0  0
 17 18  1  0  0  0
 17109  1  0  0  0
 18 19  2  0  0  0
 18110  1  0  0  0
 19 20  1  0  0  0
 19 24  1  0  0  0
 20 21  2  0  0  0
 20111  1  0  0  0
 21 23  1  0  0  0
 22 28  1  0  0  0
 22 32  2  0  0  0
 26 27  1  0  0  0
 28112  1  0  0  0
 28113  1  0  0  0
 29114  1  0  0  0
 29115  1  0  0  0
 33 34  1  0  0  0
 33 66  1  0  0  0
 33 70  2  0  0  0
 34 36  1  0  0  0
 34 59  1  0  0  0
 34116  1  0  0  0
 35 44  2  0  0  0
 35 45  1  0  0  0
 35 68  1  0  0  0
 36 56  1  0  0  0
 36117  1  0  0  0
 37 39  1  0  0  0
 37 47  1  0  0  0
 37 66  1  0  0  0
 37118  1  0  0  0
 38 43  2  0  0  0
 38 46  1  0  0  0
 38 47  1  0  0  0
 39 64  1  0  0  0
 39 67  2  0  0  0
 40 52  1  0  0  0
 40 53  2  0  0  0
 40 58  1  0  0  0
 41119  1  0  0  0
 41120  1  0  0  0
 41121  1  0  0  0
 41 48  1  0  0  0
 42 43  1  0  0  0
 42 66  1  0  0  0
 42122  1  0  0  0
 42123  1  0  0  0
 43 44  1  0  0  0
 44124  1  0  0  0
 45 46  2  0  0  0
 45125  1  0  0  0
 46126  1  0  0  0
 47127  1  0  0  0
 47128  1  0  0  0
 48 56  1  0  0  0
 48 65  1  0  0  0
 48129  1  0  0  0
 49 50  1  0  0  0
 49 53  1  0  0  0
 49 64  1  0  0  0
 49130  1  0  0  0
 50 51  1  0  0  0
 50131  1  0  0  0
 50132  1  0  0  0
 51 52  1  0  0  0
 51133  1  0  0  0
 51134  1  0  0  0
 52135  1  0  0  0
 52136  1  0  0  0
 53 54  1  0  0  0
 54 55  2  0  0  0
 54137  1  0  0  0
 55 57  1  0  0  0
 55138  1  0  0  0
 56 69  2  0  0  0
 57 58  2  0  0  0
 57139  1  0  0  0
 58140  1  0  0  0
 59 60  1  0  0  0
 59 61  1  0  0  0
 59 62  1  0  0  0
 60141  1  0  0  0
 60142  1  0  0  0
 60143  1  0  0  0
 61144  1  0  0  0
 61145  1  0  0  0
 61146  1  0  0  0
 62147  1  0  0  0
 62148  1  0  0  0
 62149  1  0  0  0
 63 65  1  0  0  0
 63150  1  0  0  0
 63151  1  0  0  0
 63152  1  0  0  0
 64153  1  0  0  0
 65154  1  0  0  0
 68 89  1  0  0  0
 71 73  2  0  0  0
 71 76  1  0  0  0
 71155  1  0  0  0
 72 74  1  0  0  0
 72 76  2  0  0  0
 72156  1  0  0  0
 73 78  1  0  0  0
 73157  1  0  0  0
 74 78  2  0  0  0
 74158  1  0  0  0
 75 77  1  0  0  0
 75 79  2  0  0  0
 75159  1  0  0  0
 76 90  1  0  0  0
 77 80  2  0  0  0
 77 86  1  0  0  0
 78 91  1  0  0  0
 79 92  1  0  0  0
 79 95  1  0  0  0
 80 93  1  0  0  0
 80 95  1  0  0  0
 81 92  1  0  0  0
 81 94  2  0  0  0
 81 90  1  0  0  0
 82 86  1  0  0  0
 82160  1  0  0  0
 82161  1  0  0  0
 82162  1  0  0  0
 83 87  1  0  0  0
 83163  1  0  0  0
 83164  1  0  0  0
 83165  1  0  0  0
 84166  1  0  0  0
 84167  1  0  0  0
 84168  1  0  0  0
 84 89  1  0  0  0
 85169  1  0  0  0
 85170  1  0  0  0
 85171  1  0  0  0
 85 90  1  0  0  0
 86172  1  0  0  0
 86173  1  0  0  0
 87 90  1  0  0  0
 87174  1  0  0  0
 87175  1  0  0  0
 88 89  1  0  0  0
 88 91  1  0  0  0
 88176  1  0  0  0
 88177  1  0  0  0
 89178  1  0  0  0
 91179  1  0  0  0
 92180  1  0  0  0
 93181  1  0  0  0
M  ISO  4   1 100  68 101  89 101  93 100
M  END
> <chiral flag>
0

> <version>
0

> <s_m_source_file>
/data/baiqing/PycharmProjects/Reinvent-master-3.2/result/LINK_invent/BTK/process_docking_weight1_custom_product_contain_oxygen_bond_distance_aromatic_linkinvent_7_9_3/rearranged_h_0146.sdf

> <i_m_source_file_index>
71

> <r_mmod_Potential_Energy-OPLS-2005>
-50.4518508911133

> <r_mmod_Stretch_Energy-OPLS-2005>
37.9482688903809

> <r_mmod_Bend_Energy-OPLS-2005>
125.838836669922

> <r_mmod_Torsional_Energy-OPLS-2005>
249.51399230957

> <r_mmod_Improper_Torsional_Energy-OPLS-2005>
6.07738733291626

> <r_mmod_Van_der_Waal_Energy-OPLS-2005>
168.671691894531

> <r_mmod_Electrostatic_Energy-OPLS-2005>
-429.709899902344

> <r_mmod_Solvation_Energy-OPLS-2005>
-217.966049194336

> <b_mmod_Minimization_Converged-OPLS-2005>
0

> <r_mmod_RMS_Derivative-OPLS-2005>
1.9571932554245

$$$$
71
                    3D
 Structure written by MMmdl.
178186  0  0  1  0            999 V2000
  -30.6568  -14.4544   20.4720 C   0  0  0  0  0  0
  -30.4371  -12.2458   19.4296 C   0  0  0  0  0  0
  -29.5030  -12.3816   18.2072 C   0  0  0  0  0  0
  -28.0091  -12.3546   18.6024 C   0  0  0  0  0  0
  -27.6665  -13.1878   19.8699 C   0  0  2  0  0  0
  -28.7087  -12.9447   20.9828 C   0  0  0  0  0  0
  -25.2647  -13.8152   20.5692 C   0  0  0  0  0  0
  -24.1850  -13.0442   20.9209 C   0  0  0  0  0  0
  -24.6356  -11.6917   20.8742 C   0  0  0  0  0  0
  -23.9009  -10.4296   21.0401 C   0  0  0  0  0  0
  -24.3576   -9.4207   21.9156 C   0  0  0  0  0  0
  -23.6286   -8.2221   22.0718 C   0  0  0  0  0  0
  -22.4272   -8.0239   21.3514 C   0  0  0  0  0  0
  -21.9904   -9.0204   20.4620 C   0  0  0  0  0  0
  -22.7200  -10.2110   20.3033 C   0  0  0  0  0  0
  -21.6832   -6.0726   22.5276 C   0  0  0  0  0  0
  -21.4010   -6.5629   23.8220 C   0  0  0  0  0  0
  -21.3674   -5.6777   24.9180 C   0  0  0  0  0  0
  -21.6062   -4.3036   24.7222 C   0  0  0  0  0  0
  -21.8823   -3.8140   23.4338 C   0  0  0  0  0  0
  -21.9192   -4.6961   22.3406 C   0  0  0  0  0  0
  -22.7869  -13.5250   21.1846 C   0  0  0  0  0  0
  -22.1625   -4.2164   21.0977 F   0  0  0  0  0  0
  -21.5672   -3.4495   25.7723 F   0  0  0  0  0  0
  -30.0415  -13.2442   20.4290 N   0  0  0  0  0  0
  -26.3052  -12.9270   20.3364 N   0  0  0  0  0  0
  -25.9288  -11.6467   20.5783 N   0  0  0  0  0  0
  -22.0495  -12.8215   22.0407 N   0  0  0  0  0  0
  -25.4409  -15.1837   20.4070 N   0  0  0  0  0  0
  -31.8092  -14.6574   20.0805 O   0  0  0  0  0  0
  -21.6621   -6.8845   21.4228 O   0  0  0  0  0  0
  -22.3556  -14.5526   20.6666 O   0  0  0  0  0  0
  -24.6158  -31.8729   23.2104 C   0  0  0  0  0  0
  -25.9033  -32.4877   23.8391 C   0  0  1  0  0  0
  -27.2120  -27.4173   20.1009 C   0  0  0  0  0  0
  -25.5915  -33.8667   24.2370 N   0  0  0  0  0  0
  -23.4050  -30.4969   21.5535 C   0  0  2  0  0  0
  -24.8448  -28.9655   20.1088 C   0  0  0  0  0  0
  -22.7410  -29.4674   22.4983 C   0  0  0  0  0  0
  -18.0290  -28.1445   22.8511 C   0  0  0  0  0  0
  -24.1493  -36.7297   23.2629 C   0  0  0  0  0  0
  -25.9365  -30.8361   21.3637 C   0  0  0  0  0  0
  -26.0063  -29.4684   20.7098 C   0  0  0  0  0  0
  -27.1940  -28.7019   20.6965 C   0  0  0  0  0  0
  -26.0361  -26.9389   19.4784 C   0  0  0  0  0  0
  -24.8564  -27.7070   19.4843 C   0  0  0  0  0  0
  -23.6127  -29.8423   20.1632 C   0  0  0  0  0  0
  -25.4134  -36.3149   24.0327 C   0  0  1  0  0  0
  -20.5888  -28.3647   23.1349 C   0  0  2  0  0  0
  -20.6783  -26.9411   22.5382 C   0  0  0  0  0  0
  -19.5713  -26.6410   21.5218 C   0  0  0  0  0  0
  -18.1925  -26.7972   22.1688 C   0  0  0  0  0  0
  -19.1549  -28.8852   23.2949 C   0  0  0  0  0  0
  -18.9503  -30.1485   23.8931 C   0  0  0  0  0  0
  -17.6518  -30.6636   24.0617 C   0  0  0  0  0  0
  -25.9032  -34.9506   23.5147 C   0  0  0  0  0  0
  -16.5398  -29.9168   23.6367 C   0  0  0  0  0  0
  -16.7288  -28.6610   23.0316 C   0  0  0  0  0  0
  -26.4468  -31.6621   25.0671 C   0  0  0  0  0  0
  -25.3721  -31.3621   26.1378 C   0  0  0  0  0  0
  -27.0244  -30.3085   24.5972 C   0  0  0  0  0  0
  -27.6109  -32.4249   25.7412 C   0  0  0  0  0  0
  -27.5611  -37.1818   24.8469 C   0  0  0  0  0  0
  -21.4125  -29.3037   22.3733 N   0  0  0  0  0  0
  -26.4338  -37.3821   23.9394 N   0  0  0  0  0  0
  -24.6737  -31.0790   22.1040 N   0  0  0  0  0  0
  -23.4194  -28.8207   23.3018 O   0  0  0  0  0  0
  -28.3793  -26.6837   20.1250 O   0  0  0  0  0  0
  -26.5556  -34.8929   22.4687 O   0  0  0  0  0  0
  -23.5335  -32.1515   23.7461 O   0  0  0  0  0  0
  -29.1786  -19.4285   19.5679 C   0  0  0  0  0  0
  -29.6910  -17.7882   21.2679 C   0  0  0  0  0  0
  -29.3772  -19.1228   20.9314 C   0  0  0  0  0  0
  -29.2206  -18.4381   18.5718 C   0  0  0  0  0  0
  -29.5202  -17.0927   18.9209 C   0  0  0  0  0  0
  -29.7571  -16.7746   20.2927 C   0  0  0  0  0  0
  -27.8398  -20.9390   21.8013 C   0  0  0  0  0  0
  -28.0913  -24.7784   21.6732 C   0  0  0  0  0  0
  -29.5093  -16.0078   17.8453 C   0  0  0  0  0  0
  -30.0674  -19.2178   16.2948 C   0  0  0  0  0  0
  -29.2208  -19.6477   23.4504 C   0  0  0  0  0  0
  -30.4117  -21.1876   21.9075 C   0  0  0  0  0  0
  -25.7688  -23.8329   21.5114 C   0  0  0  0  0  0
  -27.1769  -23.2541   23.4812 C   0  0  0  0  0  0
  -28.8501  -18.8737   17.1576 C   0  0  0  0  0  0
  -27.7789  -22.3157   21.1101 C   0  0  0  0  0  0
  -28.2791  -25.2462   20.2140 C   0  0  0  0  0  0
  -29.2107  -20.2198   22.0047 C   0  0  0  0  0  0
  -27.2194  -23.5207   21.9457 C   0  0  0  0  0  0
  -29.8210  -15.4490   20.8042 N   0  0  0  0  0  0
  -26.7865  -20.3846   22.1331 O   0  0  0  0  0  0
  -28.6384  -25.3906   22.5975 O   0  0  0  0  0  0
  -31.4782  -12.3650   19.1227 H   0  0  0  0  0  0
  -30.3698  -11.2434   19.8563 H   0  0  0  0  0  0
  -29.7009  -11.5580   17.5183 H   0  0  0  0  0  0
  -29.7432  -13.2838   17.6531 H   0  0  0  0  0  0
  -27.7485  -11.3119   18.7771 H   0  0  0  0  0  0
  -27.3903  -12.6723   17.7617 H   0  0  0  0  0  0
  -27.7112  -14.2356   19.5876 H   0  0  0  0  0  0
  -28.6762  -11.9056   21.3092 H   0  0  0  0  0  0
  -28.4844  -13.5390   21.8689 H   0  0  0  0  0  0
  -25.2712   -9.5689   22.4729 H   0  0  0  0  0  0
  -24.0023   -7.4612   22.7410 H   0  0  0  0  0  0
  -21.0843   -8.8670   19.8921 H   0  0  0  0  0  0
  -22.3606  -10.9622   19.6129 H   0  0  0  0  0  0
  -21.1962   -7.6119   23.9739 H   0  0  0  0  0  0
  -21.1498   -6.0473   25.9088 H   0  0  0  0  0  0
  -22.0603   -2.7600   23.2805 H   0  0  0  0  0  0
  -22.4098  -11.9869   22.4776 H   0  0  0  0  0  0
  -21.1099  -13.1204   22.2636 H   0  0  0  0  0  0
  -24.6955  -15.8554   20.5559 H   0  0  0  0  0  0
  -26.2936  -15.6115   20.0653 H   0  0  0  0  0  0
  -26.7069  -32.5602   23.1119 H   0  0  0  0  0  0
  -25.0116  -33.9867   25.0555 H   0  0  0  0  0  0
  -22.6971  -31.3170   21.4211 H   0  0  0  0  0  0
  -23.3790  -35.9594   23.3335 H   0  0  0  0  0  0
  -24.3573  -36.8877   22.2032 H   0  0  0  0  0  0
  -23.7193  -37.6492   23.6613 H   0  0  0  0  0  0
  -26.0333  -31.6019   20.5934 H   0  0  0  0  0  0
  -26.8332  -30.9059   21.9668 H   0  0  0  0  0  0
  -28.0938  -29.0818   21.1588 H   0  0  0  0  0  0
  -26.0020  -25.9863   18.9703 H   0  0  0  0  0  0
  -23.9648  -27.3388   18.9930 H   0  0  0  0  0  0
  -23.7305  -30.6355   19.4220 H   0  0  0  0  0  0
  -22.7336  -29.2733   19.8483 H   0  0  0  0  0  0
  -25.1331  -36.2038   25.0816 H   0  0  0  0  0  0
  -21.0013  -28.3196   24.1462 H   0  0  0  0  0  0
  -20.5790  -26.2206   23.3511 H   0  0  0  0  0  0
  -21.6638  -26.7515   22.1107 H   0  0  0  0  0  0
  -19.6846  -25.6304   21.1256 H   0  0  0  0  0  0
  -19.6650  -27.3192   20.6731 H   0  0  0  0  0  0
  -17.4133  -26.6615   21.4181 H   0  0  0  0  0  0
  -18.0432  -26.0195   22.9172 H   0  0  0  0  0  0
  -19.7972  -30.7334   24.2296 H   0  0  0  0  0  0
  -17.5082  -31.6312   24.5214 H   0  0  0  0  0  0
  -15.5407  -30.3094   23.7721 H   0  0  0  0  0  0
  -15.8679  -28.0992   22.6944 H   0  0  0  0  0  0
  -24.6033  -30.6845   25.7655 H   0  0  0  0  0  0
  -24.8687  -32.2671   26.4760 H   0  0  0  0  0  0
  -25.8057  -30.8844   27.0169 H   0  0  0  0  0  0
  -26.2717  -29.6868   24.1101 H   0  0  0  0  0  0
  -27.4142  -29.7293   25.4359 H   0  0  0  0  0  0
  -27.8516  -30.4427   23.8994 H   0  0  0  0  0  0
  -27.2891  -33.3623   26.1932 H   0  0  0  0  0  0
  -28.3935  -32.6660   25.0207 H   0  0  0  0  0  0
  -28.0740  -31.8352   26.5329 H   0  0  0  0  0  0
  -28.2645  -38.0107   24.7561 H   0  0  0  0  0  0
  -28.1115  -36.2648   24.6302 H   0  0  0  0  0  0
  -27.2302  -37.1443   25.8864 H   0  0  0  0  0  0
  -20.9267  -29.8705   21.6920 H   0  0  0  0  0  0
  -26.0254  -38.2916   24.1401 H   0  0  0  0  0  0
  -28.9355  -20.4405   19.2784 H   0  0  0  0  0  0
  -29.8364  -17.4995   22.2951 H   0  0  0  0  0  0
  -29.5501  -16.3837   16.8238 H   0  0  0  0  0  0
  -28.6073  -15.4055   17.9246 H   0  0  0  0  0  0
  -30.3745  -15.3599   17.9404 H   0  0  0  0  0  0
  -29.7509  -19.5336   15.3011 H   0  0  0  0  0  0
  -30.7167  -18.3520   16.1680 H   0  0  0  0  0  0
  -30.6543  -20.0275   16.7308 H   0  0  0  0  0  0
  -28.4805  -18.8613   23.5999 H   0  0  0  0  0  0
  -29.0142  -20.4249   24.1876 H   0  0  0  0  0  0
  -30.1904  -19.2297   23.7177 H   0  0  0  0  0  0
  -30.5770  -21.5483   20.8906 H   0  0  0  0  0  0
  -31.3339  -20.6878   22.2069 H   0  0  0  0  0  0
  -30.2896  -22.0529   22.5598 H   0  0  0  0  0  0
  -25.0780  -23.0406   21.7993 H   0  0  0  0  0  0
  -25.6844  -23.9566   20.4349 H   0  0  0  0  0  0
  -25.4016  -24.7571   21.9601 H   0  0  0  0  0  0
  -26.8916  -24.1443   24.0457 H   0  0  0  0  0  0
  -28.1427  -22.9313   23.8685 H   0  0  0  0  0  0
  -26.4421  -22.4907   23.7469 H   0  0  0  0  0  0
  -28.1986  -19.7445   17.2185 H   0  0  0  0  0  0
  -28.2427  -18.1186   16.6606 H   0  0  0  0  0  0
  -27.1517  -22.1773   20.2288 H   0  0  0  0  0  0
  -28.7554  -22.5509   20.6964 H   0  0  0  0  0  0
  -27.5266  -24.7963   19.5693 H   0  0  0  0  0  0
  -29.2317  -24.8469   19.8670 H   0  0  0  0  0  0
  -28.9784  -15.1404   21.2641 H   0  0  0  0  0  0
  1 25  1  0  0  0
  1 30  2  0  0  0
  1 90  1  0  0  0
  2  3  1  0  0  0
  2 25  1  0  0  0
  2 93  1  0  0  0
  2 94  1  0  0  0
  3  4  1  0  0  0
  3 95  1  0  0  0
  3 96  1  0  0  0
  4  5  1  0  0  0
  4 97  1  0  0  0
  4 98  1  0  0  0
  5  6  1  0  0  0
  5 26  1  0  0  0
  5 99  1  0  0  0
  6 25  1  0  0  0
  6100  1  0  0  0
  6101  1  0  0  0
  7  8  2  0  0  0
  7 26  1  0  0  0
  7 29  1  0  0  0
  8  9  1  0  0  0
  8 22  1  0  0  0
  9 10  1  0  0  0
  9 27  2  0  0  0
 10 11  2  0  0  0
 10 15  1  0  0  0
 11 12  1  0  0  0
 11102  1  0  0  0
 12 13  2  0  0  0
 12103  1  0  0  0
 13 14  1  0  0  0
 13 31  1  0  0  0
 14 15  2  0  0  0
 14104  1  0  0  0
 15105  1  0  0  0
 16 17  2  0  0  0
 16 21  1  0  0  0
 16 31  1  0  0  0
 17 18  1  0  0  0
 17106  1  0  0  0
 18 19  2  0  0  0
 18107  1  0  0  0
 19 20  1  0  0  0
 19 24  1  0  0  0
 20 21  2  0  0  0
 20108  1  0  0  0
 21 23  1  0  0  0
 22 28  1  0  0  0
 22 32  2  0  0  0
 26 27  1  0  0  0
 28109  1  0  0  0
 28110  1  0  0  0
 29111  1  0  0  0
 29112  1  0  0  0
 33 34  1  0  0  0
 33 66  1  0  0  0
 33 70  2  0  0  0
 34 36  1  0  0  0
 34 59  1  0  0  0
 34113  1  0  0  0
 35 44  2  0  0  0
 35 45  1  0  0  0
 35 68  1  0  0  0
 36 56  1  0  0  0
 36114  1  0  0  0
 37 39  1  0  0  0
 37 47  1  0  0  0
 37 66  1  0  0  0
 37115  1  0  0  0
 38 43  2  0  0  0
 38 46  1  0  0  0
 38 47  1  0  0  0
 39 64  1  0  0  0
 39 67  2  0  0  0
 40 52  1  0  0  0
 40 53  2  0  0  0
 40 58  1  0  0  0
 41116  1  0  0  0
 41117  1  0  0  0
 41118  1  0  0  0
 41 48  1  0  0  0
 42 43  1  0  0  0
 42 66  1  0  0  0
 42119  1  0  0  0
 42120  1  0  0  0
 43 44  1  0  0  0
 44121  1  0  0  0
 45 46  2  0  0  0
 45122  1  0  0  0
 46123  1  0  0  0
 47124  1  0  0  0
 47125  1  0  0  0
 48 56  1  0  0  0
 48 65  1  0  0  0
 48126  1  0  0  0
 49 50  1  0  0  0
 49 53  1  0  0  0
 49 64  1  0  0  0
 49127  1  0  0  0
 50 51  1  0  0  0
 50128  1  0  0  0
 50129  1  0  0  0
 51 52  1  0  0  0
 51130  1  0  0  0
 51131  1  0  0  0
 52132  1  0  0  0
 52133  1  0  0  0
 53 54  1  0  0  0
 54 55  2  0  0  0
 54134  1  0  0  0
 55 57  1  0  0  0
 55135  1  0  0  0
 56 69  2  0  0  0
 57 58  2  0  0  0
 57136  1  0  0  0
 58137  1  0  0  0
 59 60  1  0  0  0
 59 61  1  0  0  0
 59 62  1  0  0  0
 60138  1  0  0  0
 60139  1  0  0  0
 60140  1  0  0  0
 61141  1  0  0  0
 61142  1  0  0  0
 61143  1  0  0  0
 62144  1  0  0  0
 62145  1  0  0  0
 62146  1  0  0  0
 63 65  1  0  0  0
 63147  1  0  0  0
 63148  1  0  0  0
 63149  1  0  0  0
 64150  1  0  0  0
 65151  1  0  0  0
 68 87  1  0  0  0
 71 73  2  0  0  0
 71 74  1  0  0  0
 71152  1  0  0  0
 72 73  1  0  0  0
 72 76  2  0  0  0
 72153  1  0  0  0
 73 88  1  0  0  0
 74 75  2  0  0  0
 74 85  1  0  0  0
 75 76  1  0  0  0
 75 79  1  0  0  0
 76 90  1  0  0  0
 77 86  1  0  0  0
 77 88  1  0  0  0
 77 91  2  0  0  0
 78 87  1  0  0  0
 78 89  1  0  0  0
 78 92  2  0  0  0
 79154  1  0  0  0
 79155  1  0  0  0
 79156  1  0  0  0
 80 85  1  0  0  0
 80157  1  0  0  0
 80158  1  0  0  0
 80159  1  0  0  0
 81160  1  0  0  0
 81161  1  0  0  0
 81162  1  0  0  0
 81 88  1  0  0  0
 82 88  1  0  0  0
 82163  1  0  0  0
 82164  1  0  0  0
 82165  1  0  0  0
 83166  1  0  0  0
 83167  1  0  0  0
 83168  1  0  0  0
 83 89  1  0  0  0
 84 89  1  0  0  0
 84169  1  0  0  0
 84170  1  0  0  0
 84171  1  0  0  0
 85172  1  0  0  0
 85173  1  0  0  0
 86 89  1  0  0  0
 86174  1  0  0  0
 86175  1  0  0  0
 87176  1  0  0  0
 87177  1  0  0  0
 90178  1  0  0  0
M  ISO  4   1 100  68 101  87 101  90 100
M  END
> <chiral flag>
0

> <version>
0

> <s_m_source_file>
/data/baiqing/PycharmProjects/Reinvent-master-3.2/result/LINK_invent/BTK/process_docking_weight1_custom_product_contain_oxygen_bond_distance_aromatic_linkinvent_7_9_3/rearranged_h_0146.sdf

> <i_m_source_file_index>
72

> <r_mmod_Potential_Energy-OPLS-2005>
64.6646118164062

> <r_mmod_Stretch_Energy-OPLS-2005>
46.3446006774902

> <r_mmod_Bend_Energy-OPLS-2005>
119.650299072266

> <r_mmod_Torsional_Energy-OPLS-2005>
277.595184326172

> <r_mmod_Improper_Torsional_Energy-OPLS-2005>
7.36698579788208

> <r_mmod_Van_der_Waal_Energy-OPLS-2005>
172.276596069336

> <r_mmod_Electrostatic_Energy-OPLS-2005>
-350.83154296875

> <r_mmod_Solvation_Energy-OPLS-2005>
-226.722839355469

> <b_mmod_Minimization_Converged-OPLS-2005>
0

> <r_mmod_RMS_Derivative-OPLS-2005>
5.71985530853271

$$$$
72
                    3D
 Structure written by MMmdl.
162171  0  0  1  0            999 V2000
  -30.5898  -14.8065   20.4437 C   0  0  0  0  0  0
  -30.4240  -12.4876   19.4883 C   0  0  0  0  0  0
  -29.5164  -12.5322   18.2407 C   0  0  0  0  0  0
  -28.0337  -12.3659   18.6311 C   0  0  0  0  0  0
  -27.6319  -13.2484   19.8458 C   0  0  2  0  0  0
  -28.6749  -13.1983   20.9829 C   0  0  0  0  0  0
  -25.2424  -13.8215   20.5702 C   0  0  0  0  0  0
  -24.1741  -13.0429   20.9215 C   0  0  0  0  0  0
  -24.6380  -11.6921   20.8750 C   0  0  0  0  0  0
  -23.9077  -10.4284   21.0408 C   0  0  0  0  0  0
  -24.3635   -9.4198   21.9177 C   0  0  0  0  0  0
  -23.6304   -8.2236   22.0753 C   0  0  0  0  0  0
  -22.4289   -8.0285   21.3545 C   0  0  0  0  0  0
  -21.9945   -9.0246   20.4628 C   0  0  0  0  0  0
  -22.7274  -10.2117   20.3036 C   0  0  0  0  0  0
  -21.6849   -6.0740   22.5286 C   0  0  0  0  0  0
  -21.4013   -6.5644   23.8225 C   0  0  0  0  0  0
  -21.3663   -5.6793   24.9185 C   0  0  0  0  0  0
  -21.6054   -4.3062   24.7219 C   0  0  0  0  0  0
  -21.8808   -3.8144   23.4337 C   0  0  0  0  0  0
  -21.9180   -4.6961   22.3394 C   0  0  0  0  0  0
  -22.7743  -13.5178   21.1869 C   0  0  0  0  0  0
  -22.1652   -4.2162   21.0965 F   0  0  0  0  0  0
  -21.5637   -3.4546   25.7730 F   0  0  0  0  0  0
  -29.9711  -13.5676   20.3996 N   0  0  0  0  0  0
  -26.2881  -12.9454   20.3258 N   0  0  0  0  0  0
  -25.9321  -11.6578   20.5748 N   0  0  0  0  0  0
  -22.0396  -12.8154   22.0410 N   0  0  0  0  0  0
  -25.4011  -15.1953   20.4089 N   0  0  0  0  0  0
  -31.7896  -14.8726   20.1554 O   0  0  0  0  0  0
  -21.6632   -6.8897   21.4251 O   0  0  0  0  0  0
  -22.3428  -14.5495   20.6740 O   0  0  0  0  0  0
  -24.6385  -31.8510   23.1981 C   0  0  0  0  0  0
  -25.9192  -32.4726   23.8335 C   0  0  1  0  0  0
  -27.2233  -27.2203   20.1278 C   0  0  0  0  0  0
  -25.5972  -33.8536   24.2258 N   0  0  0  0  0  0
  -23.4351  -30.4732   21.5419 C   0  0  2  0  0  0
  -24.8831  -28.9136   20.1148 C   0  0  0  0  0  0
  -22.7521  -29.4583   22.4925 C   0  0  0  0  0  0
  -18.0289  -28.1396   22.8473 C   0  0  0  0  0  0
  -24.1485  -36.7255   23.2640 C   0  0  0  0  0  0
  -25.9868  -30.7498   21.3825 C   0  0  0  0  0  0
  -26.0591  -29.3686   20.7252 C   0  0  0  0  0  0
  -27.2322  -28.5381   20.7156 C   0  0  0  0  0  0
  -26.0223  -26.8533   19.4786 C   0  0  0  0  0  0
  -24.8724  -27.6653   19.4794 C   0  0  0  0  0  0
  -23.6547  -29.8032   20.1599 C   0  0  0  0  0  0
  -25.4117  -36.3057   24.0328 C   0  0  1  0  0  0
  -20.5899  -28.3708   23.1267 C   0  0  2  0  0  0
  -20.6776  -26.9431   22.5414 C   0  0  0  0  0  0
  -19.5762  -26.6384   21.5213 C   0  0  0  0  0  0
  -18.1925  -26.7950   22.1604 C   0  0  0  0  0  0
  -19.1542  -28.8866   23.2844 C   0  0  0  0  0  0
  -18.9466  -30.1470   23.8867 C   0  0  0  0  0  0
  -17.6456  -30.6579   24.0570 C   0  0  0  0  0  0
  -25.9062  -34.9428   23.5085 C   0  0  0  0  0  0
  -16.5345  -29.9070   23.6358 C   0  0  0  0  0  0
  -16.7276  -28.6499   23.0363 C   0  0  0  0  0  0
  -26.4540  -31.6560   25.0728 C   0  0  0  0  0  0
  -25.3746  -31.3694   26.1420 C   0  0  0  0  0  0
  -27.0430  -30.2988   24.6248 C   0  0  0  0  0  0
  -27.6057  -32.4328   25.7518 C   0  0  0  0  0  0
  -27.5587  -37.1766   24.8446 C   0  0  0  0  0  0
  -21.4228  -29.3046   22.3648 N   0  0  0  0  0  0
  -26.4268  -37.3767   23.9441 N   0  0  0  0  0  0
  -24.7050  -31.0426   22.0966 N   0  0  0  0  0  0
  -23.4192  -28.8133   23.3044 O   0  0  0  0  0  0
  -28.3041  -26.2892   20.1538 O   0  0  0  0  0  0
  -26.5626  -34.8910   22.4645 O   0  0  0  0  0  0
  -23.5523  -32.1375   23.7244 O   0  0  0  0  0  0
  -31.2366  -19.3398   20.4142 C   0  0  0  0  0  0
  -31.3683  -17.9084   20.5331 C   0  0  0  0  0  0
  -29.9020  -19.6594   20.3442 C   0  0  0  0  0  0
  -30.1110  -17.3520   20.5120 C   0  0  0  0  0  0
  -29.2899  -23.1178   18.7476 C   0  0  0  0  0  0
  -29.8814  -21.6762   18.7776 C   0  0  0  0  0  0
  -29.0620  -23.5456   20.2135 C   0  0  1  0  0  0
  -28.6708  -22.0514   20.7858 C   0  0  0  0  0  0
  -30.4132  -24.0255   20.7879 C   0  0  0  0  0  0
  -27.1586  -21.8099   20.5936 C   0  0  0  0  0  0
  -28.9814  -21.9065   22.2875 C   0  0  0  0  0  0
  -28.0106  -24.8071   20.3832 C   0  0  0  0  0  0
  -29.3913  -20.9956   19.9783 N   0  0  0  0  0  0
  -29.8065  -15.9628   20.5861 N   0  0  0  0  0  0
  -29.1779  -18.4352   20.4044 O   0  0  0  0  0  0
  -31.4687  -12.6047   19.2005 H   0  0  0  0  0  0
  -30.3522  -11.5153   19.9797 H   0  0  0  0  0  0
  -29.8080  -11.7624   17.5243 H   0  0  0  0  0  0
  -29.6575  -13.4860   17.7283 H   0  0  0  0  0  0
  -27.8636  -11.3114   18.8532 H   0  0  0  0  0  0
  -27.4016  -12.5981   17.7715 H   0  0  0  0  0  0
  -27.6125  -14.2710   19.4699 H   0  0  0  0  0  0
  -28.7146  -12.2003   21.4259 H   0  0  0  0  0  0
  -28.4010  -13.8787   21.7902 H   0  0  0  0  0  0
  -25.2792   -9.5675   22.4743 H   0  0  0  0  0  0
  -23.9991   -7.4639   22.7485 H   0  0  0  0  0  0
  -21.0879   -8.8772   19.8940 H   0  0  0  0  0  0
  -22.3751  -10.9638   19.6133 H   0  0  0  0  0  0
  -21.2012   -7.6152   23.9738 H   0  0  0  0  0  0
  -21.1517   -6.0523   25.9087 H   0  0  0  0  0  0
  -22.0582   -2.7599   23.2851 H   0  0  0  0  0  0
  -22.4044  -11.9827   22.4775 H   0  0  0  0  0  0
  -21.1014  -13.1183   22.2626 H   0  0  0  0  0  0
  -24.6101  -15.8273   20.4838 H   0  0  0  0  0  0
  -26.2180  -15.6431   20.0157 H   0  0  0  0  0  0
  -26.7236  -32.5370   23.1050 H   0  0  0  0  0  0
  -25.0173  -33.9662   25.0445 H   0  0  0  0  0  0
  -22.7341  -31.2966   21.3922 H   0  0  0  0  0  0
  -23.3786  -35.9529   23.3218 H   0  0  0  0  0  0
  -24.3592  -36.8985   22.2080 H   0  0  0  0  0  0
  -23.7175  -37.6393   23.6732 H   0  0  0  0  0  0
  -26.1328  -31.5109   20.6143 H   0  0  0  0  0  0
  -26.8607  -30.7997   22.0194 H   0  0  0  0  0  0
  -28.1317  -28.8851   21.2051 H   0  0  0  0  0  0
  -25.9435  -25.9189   18.9484 H   0  0  0  0  0  0
  -23.9771  -27.3187   18.9818 H   0  0  0  0  0  0
  -23.7787  -30.5770   19.4014 H   0  0  0  0  0  0
  -22.7727  -29.2322   19.8588 H   0  0  0  0  0  0
  -25.1295  -36.1878   25.0812 H   0  0  0  0  0  0
  -20.9978  -28.3290   24.1392 H   0  0  0  0  0  0
  -20.5688  -26.2321   23.3615 H   0  0  0  0  0  0
  -21.6638  -26.7429   22.1219 H   0  0  0  0  0  0
  -19.6916  -25.6282   21.1263 H   0  0  0  0  0  0
  -19.6712  -27.3170   20.6730 H   0  0  0  0  0  0
  -17.4215  -26.6741   21.3967 H   0  0  0  0  0  0
  -18.0267  -26.0060   22.8970 H   0  0  0  0  0  0
  -19.7931  -30.7314   24.2218 H   0  0  0  0  0  0
  -17.5001  -31.6276   24.5166 H   0  0  0  0  0  0
  -15.5352  -30.2964   23.7692 H   0  0  0  0  0  0
  -15.8678  -28.0810   22.7098 H   0  0  0  0  0  0
  -24.5946  -30.7022   25.7729 H   0  0  0  0  0  0
  -24.8906  -32.2852   26.4821 H   0  0  0  0  0  0
  -25.8060  -30.8887   27.0212 H   0  0  0  0  0  0
  -26.3043  -29.6684   24.1283 H   0  0  0  0  0  0
  -27.4131  -29.7297   25.4791 H   0  0  0  0  0  0
  -27.8904  -30.4279   23.9511 H   0  0  0  0  0  0
  -27.2625  -33.3605   26.2108 H   0  0  0  0  0  0
  -28.3857  -32.6944   25.0352 H   0  0  0  0  0  0
  -28.0742  -31.8471   26.5436 H   0  0  0  0  0  0
  -28.2522  -38.0153   24.7615 H   0  0  0  0  0  0
  -28.1180  -36.2687   24.6104 H   0  0  0  0  0  0
  -27.2333  -37.1206   25.8852 H   0  0  0  0  0  0
  -20.9446  -29.8755   21.6841 H   0  0  0  0  0  0
  -26.0144  -38.2817   24.1508 H   0  0  0  0  0  0
  -32.0491  -20.0509   20.3529 H   0  0  0  0  0  0
  -32.3021  -17.3635   20.5940 H   0  0  0  0  0  0
  -28.3384  -23.1035   18.2142 H   0  0  0  0  0  0
  -29.9338  -23.8080   18.2025 H   0  0  0  0  0  0
  -30.9708  -21.7285   18.8192 H   0  0  0  0  0  0
  -29.6116  -21.1242   17.8769 H   0  0  0  0  0  0
  -31.1790  -23.2508   20.7356 H   0  0  0  0  0  0
  -30.3198  -24.3290   21.8299 H   0  0  0  0  0  0
  -30.7903  -24.8873   20.2349 H   0  0  0  0  0  0
  -26.5592  -22.5473   21.1262 H   0  0  0  0  0  0
  -26.8624  -20.8282   20.9614 H   0  0  0  0  0  0
  -26.8700  -21.8549   19.5452 H   0  0  0  0  0  0
  -28.5561  -22.7350   22.8522 H   0  0  0  0  0  0
  -30.0528  -21.8904   22.4828 H   0  0  0  0  0  0
  -28.5634  -20.9878   22.7007 H   0  0  0  0  0  0
  -27.6588  -24.7664   21.4153 H   0  0  0  0  0  0
  -27.1459  -24.5181   19.7943 H   0  0  0  0  0  0
  -28.8279  -15.7586   20.7167 H   0  0  0  0  0  0
  1 25  1  0  0  0
  1 30  2  0  0  0
  1 84  1  0  0  0
  2  3  1  0  0  0
  2 25  1  0  0  0
  2 86  1  0  0  0
  2 87  1  0  0  0
  3  4  1  0  0  0
  3 88  1  0  0  0
  3 89  1  0  0  0
  4  5  1  0  0  0
  4 90  1  0  0  0
  4 91  1  0  0  0
  5  6  1  0  0  0
  5 26  1  0  0  0
  5 92  1  0  0  0
  6 25  1  0  0  0
  6 93  1  0  0  0
  6 94  1  0  0  0
  7  8  2  0  0  0
  7 26  1  0  0  0
  7 29  1  0  0  0
  8  9  1  0  0  0
  8 22  1  0  0  0
  9 10  1  0  0  0
  9 27  2  0  0  0
 10 11  2  0  0  0
 10 15  1  0  0  0
 11 12  1  0  0  0
 11 95  1  0  0  0
 12 13  2  0  0  0
 12 96  1  0  0  0
 13 14  1  0  0  0
 13 31  1  0  0  0
 14 15  2  0  0  0
 14 97  1  0  0  0
 15 98  1  0  0  0
 16 17  2  0  0  0
 16 21  1  0  0  0
 16 31  1  0  0  0
 17 18  1  0  0  0
 17 99  1  0  0  0
 18 19  2  0  0  0
 18100  1  0  0  0
 19 20  1  0  0  0
 19 24  1  0  0  0
 20 21  2  0  0  0
 20101  1  0  0  0
 21 23  1  0  0  0
 22 28  1  0  0  0
 22 32  2  0  0  0
 26 27  1  0  0  0
 28102  1  0  0  0
 28103  1  0  0  0
 29104  1  0  0  0
 29105  1  0  0  0
 33 34  1  0  0  0
 33 66  1  0  0  0
 33 70  2  0  0  0
 34 36  1  0  0  0
 34 59  1  0  0  0
 34106  1  0  0  0
 35 44  2  0  0  0
 35 45  1  0  0  0
 35 68  1  0  0  0
 36 56  1  0  0  0
 36107  1  0  0  0
 37 39  1  0  0  0
 37 47  1  0  0  0
 37 66  1  0  0  0
 37108  1  0  0  0
 38 43  2  0  0  0
 38 46  1  0  0  0
 38 47  1  0  0  0
 39 64  1  0  0  0
 39 67  2  0  0  0
 40 52  1  0  0  0
 40 53  2  0  0  0
 40 58  1  0  0  0
 41109  1  0  0  0
 41110  1  0  0  0
 41111  1  0  0  0
 41 48  1  0  0  0
 42 43  1  0  0  0
 42 66  1  0  0  0
 42112  1  0  0  0
 42113  1  0  0  0
 43 44  1  0  0  0
 44114  1  0  0  0
 45 46  2  0  0  0
 45115  1  0  0  0
 46116  1  0  0  0
 47117  1  0  0  0
 47118  1  0  0  0
 48 56  1  0  0  0
 48 65  1  0  0  0
 48119  1  0  0  0
 49 50  1  0  0  0
 49 53  1  0  0  0
 49 64  1  0  0  0
 49120  1  0  0  0
 50 51  1  0  0  0
 50121  1  0  0  0
 50122  1  0  0  0
 51 52  1  0  0  0
 51123  1  0  0  0
 51124  1  0  0  0
 52125  1  0  0  0
 52126  1  0  0  0
 53 54  1  0  0  0
 54 55  2  0  0  0
 54127  1  0  0  0
 55 57  1  0  0  0
 55128  1  0  0  0
 56 69  2  0  0  0
 57 58  2  0  0  0
 57129  1  0  0  0
 58130  1  0  0  0
 59 60  1  0  0  0
 59 61  1  0  0  0
 59 62  1  0  0  0
 60131  1  0  0  0
 60132  1  0  0  0
 60133  1  0  0  0
 61134  1  0  0  0
 61135  1  0  0  0
 61136  1  0  0  0
 62137  1  0  0  0
 62138  1  0  0  0
 62139  1  0  0  0
 63 65  1  0  0  0
 63140  1  0  0  0
 63141  1  0  0  0
 63142  1  0  0  0
 64143  1  0  0  0
 65144  1  0  0  0
 68 82  1  0  0  0
 71 72  1  0  0  0
 71 73  2  0  0  0
 71145  1  0  0  0
 72 74  2  0  0  0
 72146  1  0  0  0
 73 83  1  0  0  0
 73 85  1  0  0  0
 74 84  1  0  0  0
 74 85  1  0  0  0
 75 76  1  0  0  0
 75 77  1  0  0  0
 75147  1  0  0  0
 75148  1  0  0  0
 76 83  1  0  0  0
 76149  1  0  0  0
 76150  1  0  0  0
 77 78  1  0  0  0
 77 79  1  0  0  0
 77 82  1  0  0  0
 78 80  1  0  0  0
 78 81  1  0  0  0
 78 83  1  0  0  0
 79151  1  0  0  0
 79152  1  0  0  0
 79153  1  0  0  0
 80154  1  0  0  0
 80155  1  0  0  0
 80156  1  0  0  0
 81157  1  0  0  0
 81158  1  0  0  0
 81159  1  0  0  0
 82160  1  0  0  0
 82161  1  0  0  0
 84162  1  0  0  0
M  ISO  4   1 100  68 101  82 101  84 100
M  END
> <chiral flag>
0

> <version>
0

> <s_m_source_file>
/data/baiqing/PycharmProjects/Reinvent-master-3.2/result/LINK_invent/BTK/process_docking_weight1_custom_product_contain_oxygen_bond_distance_aromatic_linkinvent_7_9_3/rearranged_h_0146.sdf

> <i_m_source_file_index>
73

> <r_mmod_Potential_Energy-OPLS-2005>
361.945953369141

> <r_mmod_Stretch_Energy-OPLS-2005>
160.738876342773

> <r_mmod_Bend_Energy-OPLS-2005>
242.756225585938

> <r_mmod_Torsional_Energy-OPLS-2005>
351.345458984375

> <r_mmod_Improper_Torsional_Energy-OPLS-2005>
7.84371709823608

> <r_mmod_Van_der_Waal_Energy-OPLS-2005>
120.245330810547

> <r_mmod_Electrostatic_Energy-OPLS-2005>
-427.728302001953

> <r_mmod_Solvation_Energy-OPLS-2005>
-204.918182373047

> <b_mmod_Minimization_Converged-OPLS-2005>
0

> <r_mmod_RMS_Derivative-OPLS-2005>
4.23038864135742

$$$$
73
                    3D
 Structure written by MMmdl.
175184  0  0  1  0            999 V2000
  -30.7001  -14.4779   20.4884 C   0  0  0  0  0  0
  -30.4119  -12.2853   19.4370 C   0  0  0  0  0  0
  -29.4953  -12.4846   18.2121 C   0  0  0  0  0  0
  -28.0154  -12.3519   18.6218 C   0  0  0  0  0  0
  -27.6560  -13.2096   19.8652 C   0  0  2  0  0  0
  -28.6978  -13.0307   20.9936 C   0  0  0  0  0  0
  -25.2576  -13.8170   20.5677 C   0  0  0  0  0  0
  -24.1833  -13.0444   20.9181 C   0  0  0  0  0  0
  -24.6388  -11.6911   20.8735 C   0  0  0  0  0  0
  -23.9059  -10.4293   21.0405 C   0  0  0  0  0  0
  -24.3613   -9.4209   21.9182 C   0  0  0  0  0  0
  -23.6288   -8.2246   22.0755 C   0  0  0  0  0  0
  -22.4270   -8.0281   21.3545 C   0  0  0  0  0  0
  -21.9906   -9.0253   20.4646 C   0  0  0  0  0  0
  -22.7233  -10.2132   20.3053 C   0  0  0  0  0  0
  -21.6853   -6.0734   22.5277 C   0  0  0  0  0  0
  -21.4014   -6.5637   23.8210 C   0  0  0  0  0  0
  -21.3660   -5.6791   24.9172 C   0  0  0  0  0  0
  -21.6043   -4.3052   24.7224 C   0  0  0  0  0  0
  -21.8820   -3.8145   23.4344 C   0  0  0  0  0  0
  -21.9194   -4.6962   22.3401 C   0  0  0  0  0  0
  -22.7856  -13.5241   21.1845 C   0  0  0  0  0  0
  -22.1662   -4.2148   21.0979 F   0  0  0  0  0  0
  -21.5630   -3.4537   25.7738 F   0  0  0  0  0  0
  -30.0293  -13.2982   20.4318 N   0  0  0  0  0  0
  -26.2999  -12.9339   20.3327 N   0  0  0  0  0  0
  -25.9313  -11.6499   20.5762 N   0  0  0  0  0  0
  -22.0496  -12.8230   22.0399 N   0  0  0  0  0  0
  -25.4302  -15.1889   20.4079 N   0  0  0  0  0  0
  -31.8884  -14.5740   20.1752 O   0  0  0  0  0  0
  -21.6639   -6.8876   21.4237 O   0  0  0  0  0  0
  -22.3543  -14.5551   20.6700 O   0  0  0  0  0  0
  -24.6107  -31.8692   23.2106 C   0  0  0  0  0  0
  -25.9013  -32.4831   23.8395 C   0  0  1  0  0  0
  -27.2444  -27.4519   20.1260 C   0  0  0  0  0  0
  -25.5879  -33.8627   24.2338 N   0  0  0  0  0  0
  -23.3972  -30.4906   21.5507 C   0  0  2  0  0  0
  -24.8460  -28.9534   20.1220 C   0  0  0  0  0  0
  -22.7381  -29.4670   22.5018 C   0  0  0  0  0  0
  -18.0259  -28.1374   22.8501 C   0  0  0  0  0  0
  -24.1486  -36.7314   23.2642 C   0  0  0  0  0  0
  -25.9204  -30.8478   21.3548 C   0  0  0  0  0  0
  -26.0012  -29.4809   20.7099 C   0  0  0  0  0  0
  -27.2043  -28.7461   20.6950 C   0  0  0  0  0  0
  -26.0778  -26.9422   19.5195 C   0  0  0  0  0  0
  -24.8786  -27.6827   19.5197 C   0  0  0  0  0  0
  -23.6047  -29.8150   20.1679 C   0  0  0  0  0  0
  -25.4106  -36.3116   24.0347 C   0  0  1  0  0  0
  -20.5847  -28.3653   23.1335 C   0  0  2  0  0  0
  -20.6754  -26.9395   22.5423 C   0  0  0  0  0  0
  -19.5738  -26.6383   21.5215 C   0  0  0  0  0  0
  -18.1911  -26.7928   22.1618 C   0  0  0  0  0  0
  -19.1507  -28.8830   23.2918 C   0  0  0  0  0  0
  -18.9441  -30.1438   23.8929 C   0  0  0  0  0  0
  -17.6446  -30.6590   24.0565 C   0  0  0  0  0  0
  -25.9027  -34.9481   23.5143 C   0  0  0  0  0  0
  -16.5336  -29.9093   23.6327 C   0  0  0  0  0  0
  -16.7248  -28.6502   23.0360 C   0  0  0  0  0  0
  -26.4461  -31.6594   25.0703 C   0  0  0  0  0  0
  -25.3742  -31.3670   26.1459 C   0  0  0  0  0  0
  -27.0285  -30.3046   24.6038 C   0  0  0  0  0  0
  -27.6046  -32.4304   25.7463 C   0  0  0  0  0  0
  -27.5589  -37.1805   24.8464 C   0  0  0  0  0  0
  -21.4110  -29.3027   22.3748 N   0  0  0  0  0  0
  -26.4295  -37.3797   23.9418 N   0  0  0  0  0  0
  -24.6609  -31.0832   22.0982 N   0  0  0  0  0  0
  -23.4165  -28.8222   23.3057 O   0  0  0  0  0  0
  -28.3973  -26.6956   20.0539 O   0  0  0  0  0  0
  -26.5588  -34.8930   22.4704 O   0  0  0  0  0  0
  -23.5310  -32.1420   23.7530 O   0  0  0  0  0  0
  -31.1358  -18.4026   18.4947 C   0  0  0  0  0  0
  -31.0031  -17.1225   19.0534 C   0  0  0  0  0  0
  -29.3360  -17.9692   20.6104 C   0  0  0  0  0  0
  -30.3687  -19.4734   18.9832 C   0  0  0  0  0  0
  -29.4541  -19.2677   20.0435 C   0  0  0  0  0  0
  -30.1146  -16.8813   20.1329 C   0  0  0  0  0  0
  -30.5519  -20.8480   18.3698 C   0  0  0  0  0  0
  -28.5768  -20.4301   20.5469 C   0  0  0  0  0  0
  -29.3537  -21.7617   18.6332 C   0  0  0  0  0  0
  -27.2270  -22.8839   22.7807 C   0  0  0  0  0  0
  -29.6810  -23.1308   22.5094 C   0  0  0  0  0  0
  -30.3431  -25.6216   20.7040 C   0  0  0  0  0  0
  -29.3509  -27.2236   22.2869 C   0  0  0  0  0  0
  -28.0601  -25.0566   21.9168 C   0  0  0  0  0  0
  -28.1259  -22.9215   20.4318 C   0  0  0  0  0  0
  -28.3170  -23.5034   21.8710 C   0  0  0  0  0  0
  -28.9966  -26.1377   21.2450 C   0  0  0  0  0  0
  -29.9361  -15.5722   20.7024 N   0  0  0  0  0  0
  -29.0253  -21.7790   20.0790 N   0  3  1  0  0  0
  -31.4605  -12.3576   19.1421 H   0  0  0  0  0  0
  -30.2871  -11.2840   19.8527 H   0  0  0  0  0  0
  -29.7356  -11.7543   17.4383 H   0  0  0  0  0  0
  -29.6700  -13.4674   17.7709 H   0  0  0  0  0  0
  -27.8277  -11.2983   18.8327 H   0  0  0  0  0  0
  -27.3666  -12.6128   17.7849 H   0  0  0  0  0  0
  -27.6879  -14.2501   19.5418 H   0  0  0  0  0  0
  -28.6642  -12.0146   21.3893 H   0  0  0  0  0  0
  -28.4763  -13.6871   21.8366 H   0  0  0  0  0  0
  -25.2759   -9.5686   22.4754 H   0  0  0  0  0  0
  -23.9999   -7.4639   22.7474 H   0  0  0  0  0  0
  -21.0841   -8.8766   19.8950 H   0  0  0  0  0  0
  -22.3691  -10.9668   19.6160 H   0  0  0  0  0  0
  -21.2003   -7.6145   23.9714 H   0  0  0  0  0  0
  -21.1481   -6.0520   25.9075 H   0  0  0  0  0  0
  -22.0599   -2.7606   23.2845 H   0  0  0  0  0  0
  -22.4110  -11.9888   22.4782 H   0  0  0  0  0  0
  -21.1112  -13.1250   22.2601 H   0  0  0  0  0  0
  -24.6618  -15.8429   20.5096 H   0  0  0  0  0  0
  -26.2775  -15.6248   20.0669 H   0  0  0  0  0  0
  -26.7088  -32.5563   23.1167 H   0  0  0  0  0  0
  -25.0033  -33.9790   25.0486 H   0  0  0  0  0  0
  -22.6844  -31.3056   21.4092 H   0  0  0  0  0  0
  -23.3751  -35.9643   23.3306 H   0  0  0  0  0  0
  -24.3582  -36.8920   22.2055 H   0  0  0  0  0  0
  -23.7232  -37.6520   23.6646 H   0  0  0  0  0  0
  -26.0230  -31.6127   20.5839 H   0  0  0  0  0  0
  -26.8112  -30.9070   21.9684 H   0  0  0  0  0  0
  -28.0967  -29.1895   21.1098 H   0  0  0  0  0  0
  -26.0995  -25.9676   19.0527 H   0  0  0  0  0  0
  -23.9920  -27.2708   19.0578 H   0  0  0  0  0  0
  -23.7068  -30.5842   19.4017 H   0  0  0  0  0  0
  -22.7312  -29.2282   19.8783 H   0  0  0  0  0  0
  -25.1282  -36.1985   25.0840 H   0  0  0  0  0  0
  -20.9930  -28.3214   24.1459 H   0  0  0  0  0  0
  -20.5656  -26.2261   23.3602 H   0  0  0  0  0  0
  -21.6627  -26.7452   22.1214 H   0  0  0  0  0  0
  -19.6894  -25.6294   21.1240 H   0  0  0  0  0  0
  -19.6684  -27.3203   20.6752 H   0  0  0  0  0  0
  -17.4183  -26.6682   21.4018 H   0  0  0  0  0  0
  -18.0307  -26.0062   22.9003 H   0  0  0  0  0  0
  -19.7920  -30.7237   24.2321 H   0  0  0  0  0  0
  -17.5007  -31.6277   24.5151 H   0  0  0  0  0  0
  -15.5341  -30.3005   23.7646 H   0  0  0  0  0  0
  -15.8640  -28.0826   22.7083 H   0  0  0  0  0  0
  -24.5912  -30.7031   25.7780 H   0  0  0  0  0  0
  -24.8939  -32.2813   26.4957 H   0  0  0  0  0  0
  -25.8108  -30.8791   27.0184 H   0  0  0  0  0  0
  -26.2809  -29.6812   24.1121 H   0  0  0  0  0  0
  -27.4105  -29.7274   25.4469 H   0  0  0  0  0  0
  -27.8620  -30.4378   23.9136 H   0  0  0  0  0  0
  -27.2674  -33.3584   26.2091 H   0  0  0  0  0  0
  -28.3827  -32.6896   25.0272 H   0  0  0  0  0  0
  -28.0745  -31.8396   26.5334 H   0  0  0  0  0  0
  -28.2598  -38.0113   24.7531 H   0  0  0  0  0  0
  -28.1095  -36.2647   24.6258 H   0  0  0  0  0  0
  -27.2309  -37.1415   25.8866 H   0  0  0  0  0  0
  -20.9268  -29.8722   21.6948 H   0  0  0  0  0  0
  -26.0188  -38.2877   24.1423 H   0  0  0  0  0  0
  -31.8293  -18.5564   17.6792 H   0  0  0  0  0  0
  -31.5996  -16.3383   18.6124 H   0  0  0  0  0  0
  -28.6320  -17.8086   21.4156 H   0  0  0  0  0  0
  -30.7089  -20.7554   17.2941 H   0  0  0  0  0  0
  -31.4612  -21.2915   18.7777 H   0  0  0  0  0  0
  -28.5600  -20.3983   21.6351 H   0  0  0  0  0  0
  -27.5552  -20.2494   20.2094 H   0  0  0  0  0  0
  -28.4851  -21.4245   18.0654 H   0  0  0  0  0  0
  -29.5996  -22.7596   18.2682 H   0  0  0  0  0  0
  -27.3103  -23.2453   23.8069 H   0  0  0  0  0  0
  -27.2849  -21.7978   22.8283 H   0  0  0  0  0  0
  -26.2223  -23.1343   22.4360 H   0  0  0  0  0  0
  -29.8940  -23.7578   23.3763 H   0  0  0  0  0  0
  -30.5220  -23.2218   21.8252 H   0  0  0  0  0  0
  -29.6944  -22.1011   22.8687 H   0  0  0  0  0  0
  -31.0105  -25.3076   21.5053 H   0  0  0  0  0  0
  -30.8704  -26.4173   20.1762 H   0  0  0  0  0  0
  -30.2354  -24.8025   19.9969 H   0  0  0  0  0  0
  -28.4656  -27.6453   22.7638 H   0  0  0  0  0  0
  -29.9250  -28.0375   21.8431 H   0  0  0  0  0  0
  -29.9590  -26.8084   23.0919 H   0  0  0  0  0  0
  -28.0052  -25.3120   22.9764 H   0  0  0  0  0  0
  -27.0397  -25.2323   21.5766 H   0  0  0  0  0  0
  -28.2963  -23.7338   19.7261 H   0  0  0  0  0  0
  -27.0865  -22.6431   20.2490 H   0  0  0  0  0  0
  -29.0368  -15.3909   21.1210 H   0  0  0  0  0  0
  -29.8944  -21.9667   20.5549 H   0  0  0  0  0  0
  1 25  1  0  0  0
  1 30  2  0  0  0
  1 88  1  0  0  0
  2  3  1  0  0  0
  2 25  1  0  0  0
  2 90  1  0  0  0
  2 91  1  0  0  0
  3  4  1  0  0  0
  3 92  1  0  0  0
  3 93  1  0  0  0
  4  5  1  0  0  0
  4 94  1  0  0  0
  4 95  1  0  0  0
  5  6  1  0  0  0
  5 26  1  0  0  0
  5 96  1  0  0  0
  6 25  1  0  0  0
  6 97  1  0  0  0
  6 98  1  0  0  0
  7  8  2  0  0  0
  7 26  1  0  0  0
  7 29  1  0  0  0
  8  9  1  0  0  0
  8 22  1  0  0  0
  9 10  1  0  0  0
  9 27  2  0  0  0
 10 11  2  0  0  0
 10 15  1  0  0  0
 11 12  1  0  0  0
 11 99  1  0  0  0
 12 13  2  0  0  0
 12100  1  0  0  0
 13 14  1  0  0  0
 13 31  1  0  0  0
 14 15  2  0  0  0
 14101  1  0  0  0
 15102  1  0  0  0
 16 17  2  0  0  0
 16 21  1  0  0  0
 16 31  1  0  0  0
 17 18  1  0  0  0
 17103  1  0  0  0
 18 19  2  0  0  0
 18104  1  0  0  0
 19 20  1  0  0  0
 19 24  1  0  0  0
 20 21  2  0  0  0
 20105  1  0  0  0
 21 23  1  0  0  0
 22 28  1  0  0  0
 22 32  2  0  0  0
 26 27  1  0  0  0
 28106  1  0  0  0
 28107  1  0  0  0
 29108  1  0  0  0
 29109  1  0  0  0
 33 34  1  0  0  0
 33 66  1  0  0  0
 33 70  2  0  0  0
 34 36  1  0  0  0
 34 59  1  0  0  0
 34110  1  0  0  0
 35 44  2  0  0  0
 35 45  1  0  0  0
 35 68  1  0  0  0
 36 56  1  0  0  0
 36111  1  0  0  0
 37 39  1  0  0  0
 37 47  1  0  0  0
 37 66  1  0  0  0
 37112  1  0  0  0
 38 43  2  0  0  0
 38 46  1  0  0  0
 38 47  1  0  0  0
 39 64  1  0  0  0
 39 67  2  0  0  0
 40 52  1  0  0  0
 40 53  2  0  0  0
 40 58  1  0  0  0
 41113  1  0  0  0
 41114  1  0  0  0
 41115  1  0  0  0
 41 48  1  0  0  0
 42 43  1  0  0  0
 42 66  1  0  0  0
 42116  1  0  0  0
 42117  1  0  0  0
 43 44  1  0  0  0
 44118  1  0  0  0
 45 46  2  0  0  0
 45119  1  0  0  0
 46120  1  0  0  0
 47121  1  0  0  0
 47122  1  0  0  0
 48 56  1  0  0  0
 48 65  1  0  0  0
 48123  1  0  0  0
 49 50  1  0  0  0
 49 53  1  0  0  0
 49 64  1  0  0  0
 49124  1  0  0  0
 50 51  1  0  0  0
 50125  1  0  0  0
 50126  1  0  0  0
 51 52  1  0  0  0
 51127  1  0  0  0
 51128  1  0  0  0
 52129  1  0  0  0
 52130  1  0  0  0
 53 54  1  0  0  0
 54 55  2  0  0  0
 54131  1  0  0  0
 55 57  1  0  0  0
 55132  1  0  0  0
 56 69  2  0  0  0
 57 58  2  0  0  0
 57133  1  0  0  0
 58134  1  0  0  0
 59 60  1  0  0  0
 59 61  1  0  0  0
 59 62  1  0  0  0
 60135  1  0  0  0
 60136  1  0  0  0
 60137  1  0  0  0
 61138  1  0  0  0
 61139  1  0  0  0
 61140  1  0  0  0
 62141  1  0  0  0
 62142  1  0  0  0
 62143  1  0  0  0
 63 65  1  0  0  0
 63144  1  0  0  0
 63145  1  0  0  0
 63146  1  0  0  0
 64147  1  0  0  0
 65148  1  0  0  0
 68 87  1  0  0  0
 71 72  2  0  0  0
 71 74  1  0  0  0
 71149  1  0  0  0
 72 76  1  0  0  0
 72150  1  0  0  0
 73 75  1  0  0  0
 73 76  2  0  0  0
 73151  1  0  0  0
 74 75  2  0  0  0
 74 77  1  0  0  0
 75 78  1  0  0  0
 76 88  1  0  0  0
 77 79  1  0  0  0
 77152  1  0  0  0
 77153  1  0  0  0
 78 89  1  0  0  0
 78154  1  0  0  0
 78155  1  0  0  0
 79 89  1  0  0  0
 79156  1  0  0  0
 79157  1  0  0  0
 80158  1  0  0  0
 80159  1  0  0  0
 80160  1  0  0  0
 80 86  1  0  0  0
 81 86  1  0  0  0
 81161  1  0  0  0
 81162  1  0  0  0
 81163  1  0  0  0
 82164  1  0  0  0
 82165  1  0  0  0
 82166  1  0  0  0
 82 87  1  0  0  0
 83 87  1  0  0  0
 83167  1  0  0  0
 83168  1  0  0  0
 83169  1  0  0  0
 84 86  1  0  0  0
 84 87  1  0  0  0
 84170  1  0  0  0
 84171  1  0  0  0
 85 86  1  0  0  0
 85172  1  0  0  0
 85173  1  0  0  0
 85 89  1  0  0  0
 88174  1  0  0  0
 89175  1  0  0  0
M  CHG  1  89   1
M  ISO  4   1 100  68 101  87 101  88 100
M  END
> <chiral flag>
0

> <version>
0

> <s_m_source_file>
/data/baiqing/PycharmProjects/Reinvent-master-3.2/result/LINK_invent/BTK/process_docking_weight1_custom_product_contain_oxygen_bond_distance_aromatic_linkinvent_7_9_3/rearranged_h_0146.sdf

> <i_m_source_file_index>
74

> <r_mmod_Potential_Energy-OPLS-2005>
-50.6857833862305

> <r_mmod_Stretch_Energy-OPLS-2005>
47.5506591796875

> <r_mmod_Bend_Energy-OPLS-2005>
136.805801391602

> <r_mmod_Torsional_Energy-OPLS-2005>
308.176086425781

> <r_mmod_Improper_Torsional_Energy-OPLS-2005>
5.79132223129272

> <r_mmod_Van_der_Waal_Energy-OPLS-2005>
171.85302734375

> <r_mmod_Electrostatic_Energy-OPLS-2005>
-313.588531494141

> <r_mmod_Solvation_Energy-OPLS-2005>
-424.117492675781

> <b_mmod_Minimization_Converged-OPLS-2005>
0

> <r_mmod_RMS_Derivative-OPLS-2005>
0.727785468101501

$$$$
74
                    3D
 Structure written by MMmdl.
174184  0  0  1  0            999 V2000
  -30.5776  -14.8264   20.3971 C   0  0  0  0  0  0
  -30.4325  -12.5050   19.4812 C   0  0  0  0  0  0
  -29.5171  -12.4887   18.2369 C   0  0  0  0  0  0
  -28.0492  -12.2844   18.6638 C   0  0  0  0  0  0
  -27.6282  -13.2272   19.8198 C   0  0  2  0  0  0
  -28.6681  -13.2387   20.9603 C   0  0  0  0  0  0
  -25.2486  -13.8175   20.5658 C   0  0  0  0  0  0
  -24.1767  -13.0451   20.9207 C   0  0  0  0  0  0
  -24.6347  -11.6912   20.8701 C   0  0  0  0  0  0
  -23.9027  -10.4300   21.0416 C   0  0  0  0  0  0
  -24.3598   -9.4197   21.9181 C   0  0  0  0  0  0
  -23.6282   -8.2224   22.0774 C   0  0  0  0  0  0
  -22.4248   -8.0276   21.3558 C   0  0  0  0  0  0
  -21.9861   -9.0247   20.4666 C   0  0  0  0  0  0
  -22.7186  -10.2133   20.3050 C   0  0  0  0  0  0
  -21.6834   -6.0722   22.5277 C   0  0  0  0  0  0
  -21.4008   -6.5641   23.8205 C   0  0  0  0  0  0
  -21.3673   -5.6769   24.9160 C   0  0  0  0  0  0
  -21.6029   -4.3023   24.7212 C   0  0  0  0  0  0
  -21.8811   -3.8145   23.4319 C   0  0  0  0  0  0
  -21.9193   -4.6957   22.3395 C   0  0  0  0  0  0
  -22.7808  -13.5254   21.1861 C   0  0  0  0  0  0
  -22.1647   -4.2157   21.0963 F   0  0  0  0  0  0
  -21.5673   -3.4514   25.7742 F   0  0  0  0  0  0
  -29.9576  -13.5960   20.3611 N   0  0  0  0  0  0
  -26.2851  -12.9374   20.3096 N   0  0  0  0  0  0
  -25.9258  -11.6525   20.5638 N   0  0  0  0  0  0
  -22.0408  -12.8299   22.0430 N   0  0  0  0  0  0
  -25.4209  -15.1901   20.4141 N   0  0  0  0  0  0
  -31.7871  -14.8836   20.1548 O   0  0  0  0  0  0
  -21.6629   -6.8859   21.4245 O   0  0  0  0  0  0
  -22.3445  -14.5535   20.6650 O   0  0  0  0  0  0
  -24.6289  -31.8626   23.2052 C   0  0  0  0  0  0
  -25.9103  -32.4810   23.8401 C   0  0  1  0  0  0
  -27.1930  -27.2758   20.1292 C   0  0  0  0  0  0
  -25.5932  -33.8619   24.2316 N   0  0  0  0  0  0
  -23.4212  -30.4933   21.5431 C   0  0  2  0  0  0
  -24.8649  -28.9537   20.0971 C   0  0  0  0  0  0
  -22.7462  -29.4665   22.4834 C   0  0  0  0  0  0
  -18.0303  -28.1428   22.8445 C   0  0  0  0  0  0
  -24.1496  -36.7327   23.2633 C   0  0  0  0  0  0
  -25.9638  -30.7851   21.3802 C   0  0  0  0  0  0
  -26.0317  -29.4095   20.7204 C   0  0  0  0  0  0
  -27.1902  -28.5715   20.7443 C   0  0  0  0  0  0
  -26.0169  -26.8988   19.4534 C   0  0  0  0  0  0
  -24.8601  -27.7032   19.4594 C   0  0  0  0  0  0
  -23.6383  -29.8452   20.1502 C   0  0  0  0  0  0
  -25.4109  -36.3106   24.0331 C   0  0  1  0  0  0
  -20.5903  -28.3760   23.1241 C   0  0  2  0  0  0
  -20.6806  -26.9474   22.5413 C   0  0  0  0  0  0
  -19.5791  -26.6411   21.5208 C   0  0  0  0  0  0
  -18.1948  -26.7971   22.1589 C   0  0  0  0  0  0
  -19.1553  -28.8893   23.2855 C   0  0  0  0  0  0
  -18.9476  -30.1480   23.8899 C   0  0  0  0  0  0
  -17.6485  -30.6616   24.0581 C   0  0  0  0  0  0
  -25.9043  -34.9480   23.5113 C   0  0  0  0  0  0
  -16.5381  -29.9130   23.6335 C   0  0  0  0  0  0
  -16.7282  -28.6563   23.0310 C   0  0  0  0  0  0
  -26.4493  -31.6620   25.0768 C   0  0  0  0  0  0
  -25.3752  -31.3835   26.1538 C   0  0  0  0  0  0
  -27.0273  -30.3001   24.6232 C   0  0  0  0  0  0
  -27.6063  -32.4347   25.7543 C   0  0  0  0  0  0
  -27.5583  -37.1824   24.8448 C   0  0  0  0  0  0
  -21.4165  -29.3123   22.3606 N   0  0  0  0  0  0
  -26.4289  -37.3789   23.9409 N   0  0  0  0  0  0
  -24.6902  -31.0617   22.1016 N   0  0  0  0  0  0
  -23.4184  -28.8198   23.2909 O   0  0  0  0  0  0
  -28.2557  -26.3669   20.3006 O   0  0  0  0  0  0
  -26.5599  -34.8935   22.4669 O   0  0  0  0  0  0
  -23.5438  -32.1436   23.7372 O   0  0  0  0  0  0
  -31.8636  -19.0693   21.2436 C   0  0  0  0  0  0
  -31.4069  -17.7474   21.1265 C   0  0  0  0  0  0
  -29.4161  -18.6026   20.0555 C   0  0  0  0  0  0
  -31.1620  -20.1923   20.7341 C   0  0  0  0  0  0
  -29.8656  -19.9984   20.1601 C   0  0  0  0  0  0
  -30.1847  -17.4352   20.5026 C   0  0  0  0  0  0
  -28.8195  -21.9880   17.2749 C   0  0  0  0  0  0
  -28.9832  -23.3859   17.8629 C   0  0  0  0  0  0
  -28.5949  -20.8472   18.2664 C   0  0  0  0  0  0
  -33.3495  -21.7078   21.0729 C   0  0  0  0  0  0
  -32.3389  -22.1402   22.1025 C   0  0  0  0  0  0
  -31.8586  -21.5466   20.7904 C   0  0  0  0  0  0
  -28.5556  -22.4184   20.2111 C   0  0  2  0  0  0
  -28.2097  -23.6682   19.1872 C   0  0  2  0  0  0
  -26.6960  -23.5601   18.8840 C   0  0  0  0  0  0
  -28.8810  -21.8849   22.7506 C   0  0  0  0  0  0
  -29.0324  -22.8978   21.5968 C   0  0  0  0  0  0
  -28.6208  -25.2584   19.3781 C   0  0  0  0  0  0
  -29.1556  -21.1467   19.5868 N   0  0  0  0  0  0
  -29.7954  -15.9900   20.4221 N   0  0  0  0  0  0
  -28.8804  -21.7966   16.0602 O   0  0  0  0  0  0
  -31.4716  -12.6450   19.1811 H   0  0  0  0  0  0
  -30.4007  -11.5523   20.0111 H   0  0  0  0  0  0
  -29.8307  -11.6950   17.5566 H   0  0  0  0  0  0
  -29.6132  -13.4238   17.6799 H   0  0  0  0  0  0
  -27.9455  -11.2467   18.9878 H   0  0  0  0  0  0
  -27.3826  -12.3992   17.8091 H   0  0  0  0  0  0
  -27.5981  -14.2246   19.3820 H   0  0  0  0  0  0
  -28.7263  -12.2691   21.4552 H   0  0  0  0  0  0
  -28.3872  -13.9606   21.7262 H   0  0  0  0  0  0
  -25.2767   -9.5722   22.4706 H   0  0  0  0  0  0
  -24.0046   -7.4603   22.7467 H   0  0  0  0  0  0
  -21.0819   -8.8727   19.8947 H   0  0  0  0  0  0
  -22.3652  -10.9650   19.6136 H   0  0  0  0  0  0
  -21.1966   -7.6121   23.9716 H   0  0  0  0  0  0
  -21.1513   -6.0494   25.9072 H   0  0  0  0  0  0
  -22.0588   -2.7603   23.2804 H   0  0  0  0  0  0
  -22.4013  -11.9998   22.4880 H   0  0  0  0  0  0
  -21.1015  -13.1372   22.2558 H   0  0  0  0  0  0
  -24.6575  -15.8464   20.5411 H   0  0  0  0  0  0
  -26.2703  -15.6303   20.0884 H   0  0  0  0  0  0
  -26.7163  -32.5466   23.1151 H   0  0  0  0  0  0
  -25.0130  -33.9798   25.0493 H   0  0  0  0  0  0
  -22.7168  -31.3180   21.4089 H   0  0  0  0  0  0
  -23.3764  -35.9646   23.3244 H   0  0  0  0  0  0
  -24.3598  -36.9006   22.2057 H   0  0  0  0  0  0
  -23.7261  -37.6517   23.6691 H   0  0  0  0  0  0
  -26.0829  -31.5489   20.6105 H   0  0  0  0  0  0
  -26.8479  -30.8441   22.0029 H   0  0  0  0  0  0
  -28.0723  -28.8957   21.2764 H   0  0  0  0  0  0
  -25.9465  -25.9533   18.9533 H   0  0  0  0  0  0
  -23.9588  -27.3496   18.9791 H   0  0  0  0  0  0
  -23.7767  -30.6374   19.4129 H   0  0  0  0  0  0
  -22.7497  -29.2996   19.8289 H   0  0  0  0  0  0
  -25.1288  -36.1957   25.0823 H   0  0  0  0  0  0
  -21.0003  -28.3403   24.1361 H   0  0  0  0  0  0
  -20.5722  -26.2383   23.3635 H   0  0  0  0  0  0
  -21.6683  -26.7527   22.1228 H   0  0  0  0  0  0
  -19.6973  -25.6310   21.1268 H   0  0  0  0  0  0
  -19.6751  -27.3199   20.6715 H   0  0  0  0  0  0
  -17.4237  -26.6707   21.3969 H   0  0  0  0  0  0
  -18.0343  -26.0126   22.9001 H   0  0  0  0  0  0
  -19.7956  -30.7278   24.2269 H   0  0  0  0  0  0
  -17.5060  -31.6288   24.5229 H   0  0  0  0  0  0
  -15.5380  -30.3056   23.7665 H   0  0  0  0  0  0
  -15.8671  -28.0919   22.6990 H   0  0  0  0  0  0
  -24.5740  -30.7395   25.7897 H   0  0  0  0  0  0
  -24.9193  -32.3064   26.5127 H   0  0  0  0  0  0
  -25.8066  -30.8844   27.0216 H   0  0  0  0  0  0
  -26.2814  -29.6809   24.1213 H   0  0  0  0  0  0
  -27.3856  -29.7231   25.4770 H   0  0  0  0  0  0
  -27.8766  -30.4224   23.9504 H   0  0  0  0  0  0
  -27.2632  -33.3604   26.2176 H   0  0  0  0  0  0
  -28.3852  -32.6970   25.0378 H   0  0  0  0  0  0
  -28.0731  -31.8438   26.5429 H   0  0  0  0  0  0
  -28.2608  -38.0112   24.7457 H   0  0  0  0  0  0
  -28.1062  -36.2640   24.6277 H   0  0  0  0  0  0
  -27.2304  -37.1517   25.8853 H   0  0  0  0  0  0
  -20.9302  -29.8879   21.6864 H   0  0  0  0  0  0
  -26.0165  -38.2859   24.1405 H   0  0  0  0  0  0
  -32.8138  -19.1870   21.7371 H   0  0  0  0  0  0
  -32.0376  -16.9678   21.5286 H   0  0  0  0  0  0
  -28.4527  -18.4228   19.5961 H   0  0  0  0  0  0
  -28.6823  -24.0934   17.0917 H   0  0  0  0  0  0
  -30.0502  -23.5447   18.0222 H   0  0  0  0  0  0
  -29.0234  -19.9454   17.8298 H   0  0  0  0  0  0
  -27.5214  -20.6856   18.3546 H   0  0  0  0  0  0
  -33.9766  -20.8618   21.3413 H   0  0  0  0  0  0
  -33.8801  -22.5140   20.5721 H   0  0  0  0  0  0
  -32.2605  -23.2146   22.2496 H   0  0  0  0  0  0
  -32.2337  -21.5461   23.0073 H   0  0  0  0  0  0
  -31.4735  -22.2319   20.0365 H   0  0  0  0  0  0
  -27.5794  -22.0102   20.4824 H   0  0  0  0  0  0
  -26.3826  -22.5339   18.6916 H   0  0  0  0  0  0
  -26.4206  -24.1207   17.9927 H   0  0  0  0  0  0
  -26.0989  -23.9048   19.7277 H   0  0  0  0  0  0
  -29.0882  -22.3628   23.7098 H   0  0  0  0  0  0
  -29.5588  -21.0387   22.6696 H   0  0  0  0  0  0
  -27.8668  -21.4860   22.8068 H   0  0  0  0  0  0
  -28.3819  -23.7306   21.8658 H   0  0  0  0  0  0
  -30.0226  -23.3367   21.5599 H   0  0  0  0  0  0
  -28.4615  -25.7352   18.4099 H   0  0  0  0  0  0
  -29.7058  -25.2472   19.4830 H   0  0  0  0  0  0
  -28.7995  -15.8251   20.3962 H   0  0  0  0  0  0
  1 25  1  0  0  0
  1 30  2  0  0  0
  1 90  1  0  0  0
  2  3  1  0  0  0
  2 25  1  0  0  0
  2 92  1  0  0  0
  2 93  1  0  0  0
  3  4  1  0  0  0
  3 94  1  0  0  0
  3 95  1  0  0  0
  4  5  1  0  0  0
  4 96  1  0  0  0
  4 97  1  0  0  0
  5  6  1  0  0  0
  5 26  1  0  0  0
  5 98  1  0  0  0
  6 25  1  0  0  0
  6 99  1  0  0  0
  6100  1  0  0  0
  7  8  2  0  0  0
  7 26  1  0  0  0
  7 29  1  0  0  0
  8  9  1  0  0  0
  8 22  1  0  0  0
  9 10  1  0  0  0
  9 27  2  0  0  0
 10 11  2  0  0  0
 10 15  1  0  0  0
 11 12  1  0  0  0
 11101  1  0  0  0
 12 13  2  0  0  0
 12102  1  0  0  0
 13 14  1  0  0  0
 13 31  1  0  0  0
 14 15  2  0  0  0
 14103  1  0  0  0
 15104  1  0  0  0
 16 17  2  0  0  0
 16 21  1  0  0  0
 16 31  1  0  0  0
 17 18  1  0  0  0
 17105  1  0  0  0
 18 19  2  0  0  0
 18106  1  0  0  0
 19 20  1  0  0  0
 19 24  1  0  0  0
 20 21  2  0  0  0
 20107  1  0  0  0
 21 23  1  0  0  0
 22 28  1  0  0  0
 22 32  2  0  0  0
 26 27  1  0  0  0
 28108  1  0  0  0
 28109  1  0  0  0
 29110  1  0  0  0
 29111  1  0  0  0
 33 34  1  0  0  0
 33 66  1  0  0  0
 33 70  2  0  0  0
 34 36  1  0  0  0
 34 59  1  0  0  0
 34112  1  0  0  0
 35 44  2  0  0  0
 35 45  1  0  0  0
 35 68  1  0  0  0
 36 56  1  0  0  0
 36113  1  0  0  0
 37 39  1  0  0  0
 37 47  1  0  0  0
 37 66  1  0  0  0
 37114  1  0  0  0
 38 43  2  0  0  0
 38 46  1  0  0  0
 38 47  1  0  0  0
 39 64  1  0  0  0
 39 67  2  0  0  0
 40 52  1  0  0  0
 40 53  2  0  0  0
 40 58  1  0  0  0
 41115  1  0  0  0
 41116  1  0  0  0
 41117  1  0  0  0
 41 48  1  0  0  0
 42 43  1  0  0  0
 42 66  1  0  0  0
 42118  1  0  0  0
 42119  1  0  0  0
 43 44  1  0  0  0
 44120  1  0  0  0
 45 46  2  0  0  0
 45121  1  0  0  0
 46122  1  0  0  0
 47123  1  0  0  0
 47124  1  0  0  0
 48 56  1  0  0  0
 48 65  1  0  0  0
 48125  1  0  0  0
 49 50  1  0  0  0
 49 53  1  0  0  0
 49 64  1  0  0  0
 49126  1  0  0  0
 50 51  1  0  0  0
 50127  1  0  0  0
 50128  1  0  0  0
 51 52  1  0  0  0
 51129  1  0  0  0
 51130  1  0  0  0
 52131  1  0  0  0
 52132  1  0  0  0
 53 54  1  0  0  0
 54 55  2  0  0  0
 54133  1  0  0  0
 55 57  1  0  0  0
 55134  1  0  0  0
 56 69  2  0  0  0
 57 58  2  0  0  0
 57135  1  0  0  0
 58136  1  0  0  0
 59 60  1  0  0  0
 59 61  1  0  0  0
 59 62  1  0  0  0
 60137  1  0  0  0
 60138  1  0  0  0
 60139  1  0  0  0
 61140  1  0  0  0
 61141  1  0  0  0
 61142  1  0  0  0
 62143  1  0  0  0
 62144  1  0  0  0
 62145  1  0  0  0
 63 65  1  0  0  0
 63146  1  0  0  0
 63147  1  0  0  0
 63148  1  0  0  0
 64149  1  0  0  0
 65150  1  0  0  0
 68 88  1  0  0  0
 71 72  2  0  0  0
 71 74  1  0  0  0
 71151  1  0  0  0
 72 76  1  0  0  0
 72152  1  0  0  0
 73 75  1  0  0  0
 73 76  2  0  0  0
 73153  1  0  0  0
 74 75  2  0  0  0
 74 82  1  0  0  0
 75 89  1  0  0  0
 76 90  1  0  0  0
 77 78  1  0  0  0
 77 79  1  0  0  0
 77 91  2  0  0  0
 78 84  1  0  0  0
 78154  1  0  0  0
 78155  1  0  0  0
 79 89  1  0  0  0
 79156  1  0  0  0
 79157  1  0  0  0
 80 81  1  0  0  0
 80 82  1  0  0  0
 80158  1  0  0  0
 80159  1  0  0  0
 81 82  1  0  0  0
 81160  1  0  0  0
 81161  1  0  0  0
 82162  1  0  0  0
 83 84  1  0  0  0
 83 87  1  0  0  0
 83 89  1  0  0  0
 83163  1  0  0  0
 84 85  1  0  0  0
 84 88  1  0  0  0
 85164  1  0  0  0
 85165  1  0  0  0
 85166  1  0  0  0
 86 87  1  0  0  0
 86167  1  0  0  0
 86168  1  0  0  0
 86169  1  0  0  0
 87170  1  0  0  0
 87171  1  0  0  0
 88172  1  0  0  0
 88173  1  0  0  0
 90174  1  0  0  0
M  ISO  4   1 100  68 101  88 101  90 100
M  END
> <chiral flag>
0

> <version>
0

> <s_m_source_file>
/data/baiqing/PycharmProjects/Reinvent-master-3.2/result/LINK_invent/BTK/process_docking_weight1_custom_product_contain_oxygen_bond_distance_aromatic_linkinvent_7_9_3/rearranged_h_0146.sdf

> <i_m_source_file_index>
75

> <r_mmod_Potential_Energy-OPLS-2005>
498.419738769531

> <r_mmod_Stretch_Energy-OPLS-2005>
155.140151977539

> <r_mmod_Bend_Energy-OPLS-2005>
305.902923583984

> <r_mmod_Torsional_Energy-OPLS-2005>
318.4033203125

> <r_mmod_Improper_Torsional_Energy-OPLS-2005>
8.59424114227295

> <r_mmod_Van_der_Waal_Energy-OPLS-2005>
160.43212890625

> <r_mmod_Electrostatic_Energy-OPLS-2005>
-347.998199462891

> <r_mmod_Solvation_Energy-OPLS-2005>
-220.414825439453

> <b_mmod_Minimization_Converged-OPLS-2005>
0

> <r_mmod_RMS_Derivative-OPLS-2005>
6.15473031997681

$$$$
75
                    3D
 Structure written by MMmdl.
156165  0  0  1  0            999 V2000
  -30.6234  -14.6961   20.4592 C   0  0  0  0  0  0
  -30.4308  -12.4168   19.4795 C   0  0  0  0  0  0
  -29.5162  -12.5134   18.2367 C   0  0  0  0  0  0
  -28.0411  -12.3448   18.6449 C   0  0  0  0  0  0
  -27.6543  -13.2268   19.8629 C   0  0  2  0  0  0
  -28.6965  -13.1277   21.0026 C   0  0  0  0  0  0
  -25.2562  -13.8155   20.5635 C   0  0  0  0  0  0
  -24.1833  -13.0411   20.9174 C   0  0  0  0  0  0
  -24.6421  -11.6895   20.8712 C   0  0  0  0  0  0
  -23.9081  -10.4282   21.0403 C   0  0  0  0  0  0
  -24.3629   -9.4197   21.9184 C   0  0  0  0  0  0
  -23.6304   -8.2228   22.0752 C   0  0  0  0  0  0
  -22.4288   -8.0277   21.3540 C   0  0  0  0  0  0
  -21.9923   -9.0251   20.4637 C   0  0  0  0  0  0
  -22.7248  -10.2125   20.3057 C   0  0  0  0  0  0
  -21.6855   -6.0730   22.5285 C   0  0  0  0  0  0
  -21.4015   -6.5635   23.8215 C   0  0  0  0  0  0
  -21.3655   -5.6797   24.9174 C   0  0  0  0  0  0
  -21.6048   -4.3056   24.7231 C   0  0  0  0  0  0
  -21.8815   -3.8140   23.4359 C   0  0  0  0  0  0
  -21.9183   -4.6961   22.3407 C   0  0  0  0  0  0
  -22.7870  -13.5207   21.1840 C   0  0  0  0  0  0
  -22.1656   -4.2139   21.0993 F   0  0  0  0  0  0
  -21.5633   -3.4541   25.7744 F   0  0  0  0  0  0
  -30.0083  -13.4654   20.4366 N   0  0  0  0  0  0
  -26.3006  -12.9355   20.3306 N   0  0  0  0  0  0
  -25.9358  -11.6508   20.5768 N   0  0  0  0  0  0
  -22.0509  -12.8211   22.0410 N   0  0  0  0  0  0
  -25.4267  -15.1867   20.4029 N   0  0  0  0  0  0
  -31.7807  -14.8137   20.0458 O   0  0  0  0  0  0
  -21.6643   -6.8878   21.4255 O   0  0  0  0  0  0
  -22.3582  -14.5521   20.6701 O   0  0  0  0  0  0
  -24.6308  -31.8590   23.2003 C   0  0  0  0  0  0
  -25.9138  -32.4780   23.8343 C   0  0  1  0  0  0
  -27.2237  -27.2798   20.1215 C   0  0  0  0  0  0
  -25.5961  -33.8586   24.2286 N   0  0  0  0  0  0
  -23.4263  -30.4808   21.5438 C   0  0  2  0  0  0
  -24.8746  -28.9280   20.1091 C   0  0  0  0  0  0
  -22.7493  -29.4634   22.4931 C   0  0  0  0  0  0
  -18.0293  -28.1401   22.8493 C   0  0  0  0  0  0
  -24.1484  -36.7255   23.2640 C   0  0  0  0  0  0
  -25.9705  -30.7718   21.3792 C   0  0  0  0  0  0
  -26.0445  -29.3955   20.7226 C   0  0  0  0  0  0
  -27.2230  -28.5828   20.7205 C   0  0  0  0  0  0
  -26.0440  -26.8911   19.4543 C   0  0  0  0  0  0
  -24.8762  -27.6797   19.4700 C   0  0  0  0  0  0
  -23.6429  -29.8129   20.1596 C   0  0  0  0  0  0
  -25.4115  -36.3112   24.0347 C   0  0  1  0  0  0
  -20.5906  -28.3715   23.1279 C   0  0  2  0  0  0
  -20.6795  -26.9431   22.5426 C   0  0  0  0  0  0
  -19.5767  -26.6403   21.5235 C   0  0  0  0  0  0
  -18.1933  -26.7960   22.1626 C   0  0  0  0  0  0
  -19.1559  -28.8864   23.2888 C   0  0  0  0  0  0
  -18.9489  -30.1472   23.8898 C   0  0  0  0  0  0
  -17.6489  -30.6606   24.0573 C   0  0  0  0  0  0
  -25.9053  -34.9470   23.5120 C   0  0  0  0  0  0
  -16.5374  -29.9111   23.6345 C   0  0  0  0  0  0
  -16.7283  -28.6533   23.0362 C   0  0  0  0  0  0
  -26.4500  -31.6602   25.0740 C   0  0  0  0  0  0
  -25.3711  -31.3767   26.1456 C   0  0  0  0  0  0
  -27.0330  -30.3023   24.6211 C   0  0  0  0  0  0
  -27.6053  -32.4326   25.7521 C   0  0  0  0  0  0
  -27.5586  -37.1800   24.8478 C   0  0  0  0  0  0
  -21.4209  -29.3042   22.3655 N   0  0  0  0  0  0
  -26.4314  -37.3802   23.9414 N   0  0  0  0  0  0
  -24.6951  -31.0564   22.0972 N   0  0  0  0  0  0
  -23.4201  -28.8169   23.3017 O   0  0  0  0  0  0
  -28.3235  -26.3926   20.1139 O   0  0  0  0  0  0
  -26.5614  -34.8948   22.4690 O   0  0  0  0  0  0
  -23.5461  -32.1374   23.7317 O   0  0  0  0  0  0
  -30.4076  -20.6577   20.2396 C   0  0  0  0  0  0
  -30.5146  -19.2104   20.2695 C   0  0  0  0  0  0
  -29.3168  -18.4641   20.5186 C   0  0  0  0  0  0
  -29.0776  -21.0725   20.3738 C   0  0  0  0  0  0
  -31.2858  -17.9455   19.9638 C   0  0  0  0  0  0
  -29.8933  -17.1393   19.9675 C   0  0  1  0  0  0
  -29.1856  -25.2691   21.9962 C   0  0  0  0  0  0
  -26.8751  -24.6778   21.3297 C   0  0  0  0  0  0
  -28.8855  -23.7386   19.9950 C   0  0  0  0  0  0
  -28.2797  -25.0360   20.7799 C   0  0  0  0  0  0
  -28.4593  -22.3777   20.5037 N   0  0  0  0  0  0
  -29.8514  -15.8123   20.7149 N   0  0  0  0  0  0
  -27.9906  -19.6110   20.3482 S   0  0  0  0  0  0
  -31.4784  -12.5118   19.1900 H   0  0  0  0  0  0
  -30.3410  -11.4302   19.9378 H   0  0  0  0  0  0
  -29.7894  -11.7518   17.5057 H   0  0  0  0  0  0
  -29.6585  -13.4768   17.7444 H   0  0  0  0  0  0
  -27.8882  -11.2930   18.8911 H   0  0  0  0  0  0
  -27.3844  -12.5584   17.8002 H   0  0  0  0  0  0
  -27.6610  -14.2575   19.5054 H   0  0  0  0  0  0
  -28.7186  -12.1204   21.4222 H   0  0  0  0  0  0
  -28.4366  -13.7915   21.8278 H   0  0  0  0  0  0
  -25.2767   -9.5666   22.4753 H   0  0  0  0  0  0
  -23.9986   -7.4633   22.7487 H   0  0  0  0  0  0
  -21.0831   -8.8773   19.8975 H   0  0  0  0  0  0
  -22.3694  -10.9665   19.6162 H   0  0  0  0  0  0
  -21.2020   -7.6140   23.9718 H   0  0  0  0  0  0
  -21.1485   -6.0521   25.9075 H   0  0  0  0  0  0
  -22.0600   -2.7602   23.2864 H   0  0  0  0  0  0
  -22.4104  -11.9874   22.4806 H   0  0  0  0  0  0
  -21.1145  -13.1277   22.2605 H   0  0  0  0  0  0
  -24.6562  -15.8371   20.5103 H   0  0  0  0  0  0
  -26.2717  -15.6274   20.0614 H   0  0  0  0  0  0
  -26.7207  -32.5432   23.1083 H   0  0  0  0  0  0
  -25.0167  -33.9727   25.0475 H   0  0  0  0  0  0
  -22.7220  -31.3028   21.3974 H   0  0  0  0  0  0
  -23.3794  -35.9545   23.3331 H   0  0  0  0  0  0
  -24.3545  -36.8829   22.2042 H   0  0  0  0  0  0
  -23.7212  -37.6462   23.6614 H   0  0  0  0  0  0
  -26.1149  -31.5344   20.6126 H   0  0  0  0  0  0
  -26.8451  -30.8144   22.0156 H   0  0  0  0  0  0
  -28.1223  -28.9398   21.2024 H   0  0  0  0  0  0
  -26.0162  -25.9442   18.9329 H   0  0  0  0  0  0
  -23.9842  -27.3163   18.9799 H   0  0  0  0  0  0
  -23.7689  -30.5878   19.4028 H   0  0  0  0  0  0
  -22.7588  -29.2471   19.8563 H   0  0  0  0  0  0
  -25.1311  -36.1950   25.0848 H   0  0  0  0  0  0
  -21.0010  -28.3298   24.1396 H   0  0  0  0  0  0
  -20.5732  -26.2311   23.3627 H   0  0  0  0  0  0
  -21.6664  -26.7476   22.1202 H   0  0  0  0  0  0
  -19.6936  -25.6317   21.1249 H   0  0  0  0  0  0
  -19.6719  -27.3231   20.6779 H   0  0  0  0  0  0
  -17.4230  -26.6735   21.4003 H   0  0  0  0  0  0
  -18.0303  -26.0096   22.9004 H   0  0  0  0  0  0
  -19.7963  -30.7297   24.2258 H   0  0  0  0  0  0
  -17.5045  -31.6285   24.5201 H   0  0  0  0  0  0
  -15.5377  -30.3016   23.7693 H   0  0  0  0  0  0
  -15.8680  -28.0861   22.7079 H   0  0  0  0  0  0
  -24.5931  -30.7060   25.7799 H   0  0  0  0  0  0
  -24.8858  -32.2937   26.4804 H   0  0  0  0  0  0
  -25.8046  -30.9034   27.0274 H   0  0  0  0  0  0
  -26.2949  -29.6824   24.1126 H   0  0  0  0  0  0
  -27.3889  -29.7242   25.4738 H   0  0  0  0  0  0
  -27.8866  -30.4300   23.9556 H   0  0  0  0  0  0
  -27.2690  -33.3649   26.2060 H   0  0  0  0  0  0
  -28.3911  -32.6830   25.0386 H   0  0  0  0  0  0
  -28.0654  -31.8459   26.5475 H   0  0  0  0  0  0
  -28.2649  -38.0066   24.7531 H   0  0  0  0  0  0
  -28.1061  -36.2602   24.6327 H   0  0  0  0  0  0
  -27.2278  -37.1461   25.8882 H   0  0  0  0  0  0
  -20.9401  -29.8745   21.6846 H   0  0  0  0  0  0
  -26.0191  -38.2893   24.1403 H   0  0  0  0  0  0
  -31.2643  -21.3007   20.0805 H   0  0  0  0  0  0
  -31.7883  -17.9408   18.9956 H   0  0  0  0  0  0
  -31.9646  -17.6638   20.7700 H   0  0  0  0  0  0
  -29.5442  -17.0027   18.9409 H   0  0  0  0  0  0
  -29.3377  -24.3479   22.5604 H   0  0  0  0  0  0
  -28.7588  -26.0082   22.6746 H   0  0  0  0  0  0
  -30.1659  -25.6332   21.6899 H   0  0  0  0  0  0
  -26.9237  -23.8488   22.0364 H   0  0  0  0  0  0
  -26.1932  -24.3846   20.5333 H   0  0  0  0  0  0
  -26.4256  -25.4997   21.8871 H   0  0  0  0  0  0
  -28.5573  -23.7983   18.9569 H   0  0  0  0  0  0
  -29.9749  -23.8005   19.9537 H   0  0  0  0  0  0
  -27.4739  -22.3567   20.7501 H   0  0  0  0  0  0
  -28.9716  -15.6112   21.1696 H   0  0  0  0  0  0
  1 25  1  0  0  0
  1 30  2  0  0  0
  1 82  1  0  0  0
  2  3  1  0  0  0
  2 25  1  0  0  0
  2 84  1  0  0  0
  2 85  1  0  0  0
  3  4  1  0  0  0
  3 86  1  0  0  0
  3 87  1  0  0  0
  4  5  1  0  0  0
  4 88  1  0  0  0
  4 89  1  0  0  0
  5  6  1  0  0  0
  5 26  1  0  0  0
  5 90  1  0  0  0
  6 25  1  0  0  0
  6 91  1  0  0  0
  6 92  1  0  0  0
  7  8  2  0  0  0
  7 26  1  0  0  0
  7 29  1  0  0  0
  8  9  1  0  0  0
  8 22  1  0  0  0
  9 10  1  0  0  0
  9 27  2  0  0  0
 10 11  2  0  0  0
 10 15  1  0  0  0
 11 12  1  0  0  0
 11 93  1  0  0  0
 12 13  2  0  0  0
 12 94  1  0  0  0
 13 14  1  0  0  0
 13 31  1  0  0  0
 14 15  2  0  0  0
 14 95  1  0  0  0
 15 96  1  0  0  0
 16 17  2  0  0  0
 16 21  1  0  0  0
 16 31  1  0  0  0
 17 18  1  0  0  0
 17 97  1  0  0  0
 18 19  2  0  0  0
 18 98  1  0  0  0
 19 20  1  0  0  0
 19 24  1  0  0  0
 20 21  2  0  0  0
 20 99  1  0  0  0
 21 23  1  0  0  0
 22 28  1  0  0  0
 22 32  2  0  0  0
 26 27  1  0  0  0
 28100  1  0  0  0
 28101  1  0  0  0
 29102  1  0  0  0
 29103  1  0  0  0
 33 34  1  0  0  0
 33 66  1  0  0  0
 33 70  2  0  0  0
 34 36  1  0  0  0
 34 59  1  0  0  0
 34104  1  0  0  0
 35 44  2  0  0  0
 35 45  1  0  0  0
 35 68  1  0  0  0
 36 56  1  0  0  0
 36105  1  0  0  0
 37 39  1  0  0  0
 37 47  1  0  0  0
 37 66  1  0  0  0
 37106  1  0  0  0
 38 43  2  0  0  0
 38 46  1  0  0  0
 38 47  1  0  0  0
 39 64  1  0  0  0
 39 67  2  0  0  0
 40 52  1  0  0  0
 40 53  2  0  0  0
 40 58  1  0  0  0
 41107  1  0  0  0
 41108  1  0  0  0
 41109  1  0  0  0
 41 48  1  0  0  0
 42 43  1  0  0  0
 42 66  1  0  0  0
 42110  1  0  0  0
 42111  1  0  0  0
 43 44  1  0  0  0
 44112  1  0  0  0
 45 46  2  0  0  0
 45113  1  0  0  0
 46114  1  0  0  0
 47115  1  0  0  0
 47116  1  0  0  0
 48 56  1  0  0  0
 48 65  1  0  0  0
 48117  1  0  0  0
 49 50  1  0  0  0
 49 53  1  0  0  0
 49 64  1  0  0  0
 49118  1  0  0  0
 50 51  1  0  0  0
 50119  1  0  0  0
 50120  1  0  0  0
 51 52  1  0  0  0
 51121  1  0  0  0
 51122  1  0  0  0
 52123  1  0  0  0
 52124  1  0  0  0
 53 54  1  0  0  0
 54 55  2  0  0  0
 54125  1  0  0  0
 55 57  1  0  0  0
 55126  1  0  0  0
 56 69  2  0  0  0
 57 58  2  0  0  0
 57127  1  0  0  0
 58128  1  0  0  0
 59 60  1  0  0  0
 59 61  1  0  0  0
 59 62  1  0  0  0
 60129  1  0  0  0
 60130  1  0  0  0
 60131  1  0  0  0
 61132  1  0  0  0
 61133  1  0  0  0
 61134  1  0  0  0
 62135  1  0  0  0
 62136  1  0  0  0
 62137  1  0  0  0
 63 65  1  0  0  0
 63138  1  0  0  0
 63139  1  0  0  0
 63140  1  0  0  0
 64141  1  0  0  0
 65142  1  0  0  0
 68 80  1  0  0  0
 71 72  1  0  0  0
 71 74  2  0  0  0
 71143  1  0  0  0
 72 73  2  0  0  0
 72 75  1  0  0  0
 73 76  1  0  0  0
 73 83  1  0  0  0
 74 81  1  0  0  0
 74 83  1  0  0  0
 75 76  1  0  0  0
 75144  1  0  0  0
 75145  1  0  0  0
 76 82  1  0  0  0
 76146  1  0  0  0
 77147  1  0  0  0
 77148  1  0  0  0
 77149  1  0  0  0
 77 80  1  0  0  0
 78 80  1  0  0  0
 78150  1  0  0  0
 78151  1  0  0  0
 78152  1  0  0  0
 79 80  1  0  0  0
 79 81  1  0  0  0
 79153  1  0  0  0
 79154  1  0  0  0
 81155  1  0  0  0
 82156  1  0  0  0
M  ISO  4   1 100  68 101  80 101  82 100
M  END
> <chiral flag>
0

> <version>
0

> <s_m_source_file>
/data/baiqing/PycharmProjects/Reinvent-master-3.2/result/LINK_invent/BTK/process_docking_weight1_custom_product_contain_oxygen_bond_distance_aromatic_linkinvent_7_9_3/rearranged_h_0146.sdf

> <i_m_source_file_index>
76

> <r_mmod_Potential_Energy-OPLS-2005>
559.455505371094

> <r_mmod_Stretch_Energy-OPLS-2005>
122.531120300293

> <r_mmod_Bend_Energy-OPLS-2005>
570.592407226562

> <r_mmod_Torsional_Energy-OPLS-2005>
293.372497558594

> <r_mmod_Improper_Torsional_Energy-OPLS-2005>
34.8251037597656

> <r_mmod_Van_der_Waal_Energy-OPLS-2005>
121.104568481445

> <r_mmod_Electrostatic_Energy-OPLS-2005>
-440.788146972656

> <r_mmod_Solvation_Energy-OPLS-2005>
-209.529052734375

> <b_mmod_Minimization_Converged-OPLS-2005>
0

> <r_mmod_RMS_Derivative-OPLS-2005>
3.94180679321289

$$$$
76
                    3D
 Structure written by MMmdl.
155164  0  0  1  0            999 V2000
  -30.7156  -14.3903   20.5821 C   0  0  0  0  0  0
  -30.4185  -12.2576   19.4109 C   0  0  0  0  0  0
  -29.4948  -12.5067   18.2012 C   0  0  0  0  0  0
  -28.0129  -12.3817   18.6084 C   0  0  0  0  0  0
  -27.6683  -13.1996   19.8825 C   0  0  2  0  0  0
  -28.7050  -12.9325   20.9976 C   0  0  0  0  0  0
  -25.2616  -13.8144   20.5672 C   0  0  0  0  0  0
  -24.1850  -13.0434   20.9154 C   0  0  0  0  0  0
  -24.6387  -11.6894   20.8710 C   0  0  0  0  0  0
  -23.9049  -10.4286   21.0389 C   0  0  0  0  0  0
  -24.3600   -9.4210   21.9176 C   0  0  0  0  0  0
  -23.6279   -8.2245   22.0753 C   0  0  0  0  0  0
  -22.4261   -8.0280   21.3547 C   0  0  0  0  0  0
  -21.9890   -9.0251   20.4651 C   0  0  0  0  0  0
  -22.7222  -10.2125   20.3043 C   0  0  0  0  0  0
  -21.6853   -6.0728   22.5275 C   0  0  0  0  0  0
  -21.4014   -6.5626   23.8207 C   0  0  0  0  0  0
  -21.3654   -5.6784   24.9169 C   0  0  0  0  0  0
  -21.6040   -4.3047   24.7220 C   0  0  0  0  0  0
  -21.8823   -3.8139   23.4343 C   0  0  0  0  0  0
  -21.9197   -4.6958   22.3401 C   0  0  0  0  0  0
  -22.7876  -13.5247   21.1815 C   0  0  0  0  0  0
  -22.1670   -4.2147   21.0976 F   0  0  0  0  0  0
  -21.5627   -3.4531   25.7733 F   0  0  0  0  0  0
  -30.0475  -13.2179   20.4580 N   0  0  0  0  0  0
  -26.3050  -12.9306   20.3379 N   0  0  0  0  0  0
  -25.9312  -11.6466   20.5740 N   0  0  0  0  0  0
  -22.0501  -12.8257   22.0374 N   0  0  0  0  0  0
  -25.4349  -15.1860   20.4105 N   0  0  0  0  0  0
  -31.8344  -14.5922   20.0985 O   0  0  0  0  0  0
  -21.6636   -6.8869   21.4238 O   0  0  0  0  0  0
  -22.3576  -14.5564   20.6675 O   0  0  0  0  0  0
  -24.6099  -31.8709   23.2132 C   0  0  0  0  0  0
  -25.9012  -32.4840   23.8412 C   0  0  1  0  0  0
  -27.2353  -27.4821   20.0905 C   0  0  0  0  0  0
  -25.5885  -33.8637   24.2355 N   0  0  0  0  0  0
  -23.3952  -30.4942   21.5527 C   0  0  2  0  0  0
  -24.8420  -28.9636   20.1161 C   0  0  0  0  0  0
  -22.7382  -29.4666   22.5009 C   0  0  0  0  0  0
  -18.0262  -28.1371   22.8485 C   0  0  0  0  0  0
  -24.1482  -36.7319   23.2638 C   0  0  0  0  0  0
  -25.9183  -30.8516   21.3575 C   0  0  0  0  0  0
  -25.9982  -29.4878   20.7088 C   0  0  0  0  0  0
  -27.2002  -28.7530   20.6944 C   0  0  0  0  0  0
  -26.0690  -26.9566   19.4967 C   0  0  0  0  0  0
  -24.8691  -27.6943   19.5095 C   0  0  0  0  0  0
  -23.6012  -29.8251   20.1665 C   0  0  0  0  0  0
  -25.4097  -36.3124   24.0349 C   0  0  1  0  0  0
  -20.5851  -28.3645   23.1335 C   0  0  2  0  0  0
  -20.6759  -26.9389   22.5422 C   0  0  0  0  0  0
  -19.5745  -26.6380   21.5206 C   0  0  0  0  0  0
  -18.1915  -26.7920   22.1604 C   0  0  0  0  0  0
  -19.1511  -28.8818   23.2911 C   0  0  0  0  0  0
  -18.9443  -30.1428   23.8922 C   0  0  0  0  0  0
  -17.6449  -30.6581   24.0560 C   0  0  0  0  0  0
  -25.9026  -34.9485   23.5150 C   0  0  0  0  0  0
  -16.5339  -29.9086   23.6318 C   0  0  0  0  0  0
  -16.7255  -28.6501   23.0339 C   0  0  0  0  0  0
  -26.4462  -31.6600   25.0715 C   0  0  0  0  0  0
  -25.3750  -31.3687   26.1478 C   0  0  0  0  0  0
  -27.0276  -30.3054   24.6043 C   0  0  0  0  0  0
  -27.6061  -32.4291   25.7470 C   0  0  0  0  0  0
  -27.5582  -37.1805   24.8460 C   0  0  0  0  0  0
  -21.4114  -29.3020   22.3746 N   0  0  0  0  0  0
  -26.4286  -37.3805   23.9418 N   0  0  0  0  0  0
  -24.6594  -31.0852   22.1009 N   0  0  0  0  0  0
  -23.4175  -28.8204   23.3030 O   0  0  0  0  0  0
  -28.4084  -26.7786   20.0636 O   0  0  0  0  0  0
  -26.5583  -34.8931   22.4709 O   0  0  0  0  0  0
  -23.5307  -32.1428   23.7566 O   0  0  0  0  0  0
  -29.3898  -17.6377   21.7316 C   0  0  0  0  0  0
  -30.4830  -17.1941   19.5375 C   0  0  0  0  0  0
  -29.3423  -18.9638   21.3002 C   0  0  0  0  0  0
  -29.8368  -19.4420   20.0350 C   0  0  0  0  0  0
  -29.9893  -16.7367   20.8106 C   0  0  0  0  0  0
  -30.4250  -18.5519   19.1353 C   0  0  0  0  0  0
  -29.8633  -22.0689   20.1073 C   0  0  0  0  0  0
  -28.9308  -20.3349   21.7372 C   0  0  0  0  0  0
  -29.2853  -23.2216   20.9276 C   0  0  0  0  0  0
  -29.1992  -24.5246   20.1181 C   0  0  0  0  0  0
  -28.3965  -25.5970   20.8514 C   0  0  0  0  0  0
  -29.4287  -20.7878   20.4009 N   0  0  0  0  0  0
  -30.0198  -15.3653   21.1822 N   0  0  0  0  0  0
  -30.7311  -22.2608   19.2533 O   0  0  0  0  0  0
  -30.9012  -18.9603   17.9345 F   0  0  0  0  0  0
  -31.4658  -12.3417   19.1128 H   0  0  0  0  0  0
  -30.2974  -11.2393   19.7826 H   0  0  0  0  0  0
  -29.7233  -11.8003   17.4020 H   0  0  0  0  0  0
  -29.6822  -13.5018   17.7934 H   0  0  0  0  0  0
  -27.8042  -11.3250   18.7801 H   0  0  0  0  0  0
  -27.3705  -12.6879   17.7818 H   0  0  0  0  0  0
  -27.7289  -14.2545   19.6132 H   0  0  0  0  0  0
  -28.6589  -11.8886   21.3116 H   0  0  0  0  0  0
  -28.4720  -13.5091   21.8935 H   0  0  0  0  0  0
  -25.2740   -9.5699   22.4749 H   0  0  0  0  0  0
  -23.9998   -7.4642   22.7469 H   0  0  0  0  0  0
  -21.0821   -8.8767   19.8956 H   0  0  0  0  0  0
  -22.3681  -10.9657   19.6144 H   0  0  0  0  0  0
  -21.1999   -7.6130   23.9710 H   0  0  0  0  0  0
  -21.1471   -6.0506   25.9074 H   0  0  0  0  0  0
  -22.0603   -2.7600   23.2846 H   0  0  0  0  0  0
  -22.4098  -11.9905   22.4753 H   0  0  0  0  0  0
  -21.1128  -13.1316   22.2574 H   0  0  0  0  0  0
  -24.6706  -15.8434   20.5234 H   0  0  0  0  0  0
  -26.2944  -15.6249   20.1051 H   0  0  0  0  0  0
  -26.7082  -32.5580   23.1180 H   0  0  0  0  0  0
  -25.0057  -33.9803   25.0518 H   0  0  0  0  0  0
  -22.6810  -31.3089   21.4160 H   0  0  0  0  0  0
  -23.3742  -35.9654   23.3317 H   0  0  0  0  0  0
  -24.3588  -36.8913   22.2050 H   0  0  0  0  0  0
  -23.7231  -37.6530   23.6640 H   0  0  0  0  0  0
  -26.0193  -31.6173   20.5871 H   0  0  0  0  0  0
  -26.8103  -30.9105   21.9689 H   0  0  0  0  0  0
  -28.0964  -29.1537   21.1465 H   0  0  0  0  0  0
  -26.0919  -25.9856   19.0219 H   0  0  0  0  0  0
  -23.9806  -27.2852   19.0490 H   0  0  0  0  0  0
  -23.7076  -30.5987   19.4051 H   0  0  0  0  0  0
  -22.7252  -29.2430   19.8735 H   0  0  0  0  0  0
  -25.1261  -36.2000   25.0839 H   0  0  0  0  0  0
  -20.9941  -28.3214   24.1457 H   0  0  0  0  0  0
  -20.5663  -26.2241   23.3596 H   0  0  0  0  0  0
  -21.6638  -26.7451   22.1219 H   0  0  0  0  0  0
  -19.6918  -25.6295   21.1223 H   0  0  0  0  0  0
  -19.6697  -27.3201   20.6744 H   0  0  0  0  0  0
  -17.4192  -26.6664   21.4000 H   0  0  0  0  0  0
  -18.0315  -26.0062   22.8997 H   0  0  0  0  0  0
  -19.7924  -30.7222   24.2313 H   0  0  0  0  0  0
  -17.5015  -31.6269   24.5151 H   0  0  0  0  0  0
  -15.5341  -30.2997   23.7640 H   0  0  0  0  0  0
  -15.8645  -28.0832   22.7053 H   0  0  0  0  0  0
  -24.5924  -30.7031   25.7822 H   0  0  0  0  0  0
  -24.8938  -32.2834   26.4952 H   0  0  0  0  0  0
  -25.8124  -30.8841   27.0215 H   0  0  0  0  0  0
  -26.2786  -29.6825   24.1138 H   0  0  0  0  0  0
  -27.4113  -29.7279   25.4462 H   0  0  0  0  0  0
  -27.8595  -30.4389   23.9123 H   0  0  0  0  0  0
  -27.2713  -33.3583   26.2092 H   0  0  0  0  0  0
  -28.3852  -32.6852   25.0280 H   0  0  0  0  0  0
  -28.0749  -31.8380   26.5348 H   0  0  0  0  0  0
  -28.2594  -38.0108   24.7536 H   0  0  0  0  0  0
  -28.1080  -36.2647   24.6237 H   0  0  0  0  0  0
  -27.2313  -37.1413   25.8865 H   0  0  0  0  0  0
  -20.9260  -29.8725   21.6965 H   0  0  0  0  0  0
  -26.0184  -38.2884   24.1432 H   0  0  0  0  0  0
  -29.0040  -17.3330   22.6951 H   0  0  0  0  0  0
  -30.9114  -16.5035   18.8277 H   0  0  0  0  0  0
  -29.5144  -20.6981   22.5848 H   0  0  0  0  0  0
  -27.8551  -20.4522   21.8756 H   0  0  0  0  0  0
  -29.8987  -23.3636   21.8173 H   0  0  0  0  0  0
  -28.2867  -22.9490   21.2702 H   0  0  0  0  0  0
  -28.7325  -24.3326   19.1502 H   0  0  0  0  0  0
  -30.2031  -24.8978   19.9105 H   0  0  0  0  0  0
  -28.8491  -25.8169   21.8189 H   0  0  0  0  0  0
  -27.3884  -25.2284   21.0520 H   0  0  0  0  0  0
  -29.2522  -15.0485   21.7554 H   0  0  0  0  0  0
  1 25  1  0  0  0
  1 30  2  0  0  0
  1 83  1  0  0  0
  2  3  1  0  0  0
  2 25  1  0  0  0
  2 86  1  0  0  0
  2 87  1  0  0  0
  3  4  1  0  0  0
  3 88  1  0  0  0
  3 89  1  0  0  0
  4  5  1  0  0  0
  4 90  1  0  0  0
  4 91  1  0  0  0
  5  6  1  0  0  0
  5 26  1  0  0  0
  5 92  1  0  0  0
  6 25  1  0  0  0
  6 93  1  0  0  0
  6 94  1  0  0  0
  7  8  2  0  0  0
  7 26  1  0  0  0
  7 29  1  0  0  0
  8  9  1  0  0  0
  8 22  1  0  0  0
  9 10  1  0  0  0
  9 27  2  0  0  0
 10 11  2  0  0  0
 10 15  1  0  0  0
 11 12  1  0  0  0
 11 95  1  0  0  0
 12 13  2  0  0  0
 12 96  1  0  0  0
 13 14  1  0  0  0
 13 31  1  0  0  0
 14 15  2  0  0  0
 14 97  1  0  0  0
 15 98  1  0  0  0
 16 17  2  0  0  0
 16 21  1  0  0  0
 16 31  1  0  0  0
 17 18  1  0  0  0
 17 99  1  0  0  0
 18 19  2  0  0  0
 18100  1  0  0  0
 19 20  1  0  0  0
 19 24  1  0  0  0
 20 21  2  0  0  0
 20101  1  0  0  0
 21 23  1  0  0  0
 22 28  1  0  0  0
 22 32  2  0  0  0
 26 27  1  0  0  0
 28102  1  0  0  0
 28103  1  0  0  0
 29104  1  0  0  0
 29105  1  0  0  0
 33 34  1  0  0  0
 33 66  1  0  0  0
 33 70  2  0  0  0
 34 36  1  0  0  0
 34 59  1  0  0  0
 34106  1  0  0  0
 35 44  2  0  0  0
 35 45  1  0  0  0
 35 68  1  0  0  0
 36 56  1  0  0  0
 36107  1  0  0  0
 37 39  1  0  0  0
 37 47  1  0  0  0
 37 66  1  0  0  0
 37108  1  0  0  0
 38 43  2  0  0  0
 38 46  1  0  0  0
 38 47  1  0  0  0
 39 64  1  0  0  0
 39 67  2  0  0  0
 40 52  1  0  0  0
 40 53  2  0  0  0
 40 58  1  0  0  0
 41109  1  0  0  0
 41110  1  0  0  0
 41111  1  0  0  0
 41 48  1  0  0  0
 42 43  1  0  0  0
 42 66  1  0  0  0
 42112  1  0  0  0
 42113  1  0  0  0
 43 44  1  0  0  0
 44114  1  0  0  0
 45 46  2  0  0  0
 45115  1  0  0  0
 46116  1  0  0  0
 47117  1  0  0  0
 47118  1  0  0  0
 48 56  1  0  0  0
 48 65  1  0  0  0
 48119  1  0  0  0
 49 50  1  0  0  0
 49 53  1  0  0  0
 49 64  1  0  0  0
 49120  1  0  0  0
 50 51  1  0  0  0
 50121  1  0  0  0
 50122  1  0  0  0
 51 52  1  0  0  0
 51123  1  0  0  0
 51124  1  0  0  0
 52125  1  0  0  0
 52126  1  0  0  0
 53 54  1  0  0  0
 54 55  2  0  0  0
 54127  1  0  0  0
 55 57  1  0  0  0
 55128  1  0  0  0
 56 69  2  0  0  0
 57 58  2  0  0  0
 57129  1  0  0  0
 58130  1  0  0  0
 59 60  1  0  0  0
 59 61  1  0  0  0
 59 62  1  0  0  0
 60131  1  0  0  0
 60132  1  0  0  0
 60133  1  0  0  0
 61134  1  0  0  0
 61135  1  0  0  0
 61136  1  0  0  0
 62137  1  0  0  0
 62138  1  0  0  0
 62139  1  0  0  0
 63 65  1  0  0  0
 63140  1  0  0  0
 63141  1  0  0  0
 63142  1  0  0  0
 64143  1  0  0  0
 65144  1  0  0  0
 68 81  1  0  0  0
 71 73  2  0  0  0
 71 75  1  0  0  0
 71145  1  0  0  0
 72 75  2  0  0  0
 72 76  1  0  0  0
 72146  1  0  0  0
 73 74  1  0  0  0
 73 78  1  0  0  0
 74 76  2  0  0  0
 74 82  1  0  0  0
 75 83  1  0  0  0
 76 85  1  0  0  0
 77 79  1  0  0  0
 77 82  1  0  0  0
 77 84  2  0  0  0
 78 82  1  0  0  0
 78147  1  0  0  0
 78148  1  0  0  0
 79 80  1  0  0  0
 79149  1  0  0  0
 79150  1  0  0  0
 80 81  1  0  0  0
 80151  1  0  0  0
 80152  1  0  0  0
 81153  1  0  0  0
 81154  1  0  0  0
 83155  1  0  0  0
M  ISO  4   1 100  68 101  81 101  83 100
M  END
> <chiral flag>
0

> <version>
0

> <s_m_source_file>
/data/baiqing/PycharmProjects/Reinvent-master-3.2/result/LINK_invent/BTK/process_docking_weight1_custom_product_contain_oxygen_bond_distance_aromatic_linkinvent_7_9_3/rearranged_h_0146.sdf

> <i_m_source_file_index>
77

> <r_mmod_Potential_Energy-OPLS-2005>
263.496917724609

> <r_mmod_Stretch_Energy-OPLS-2005>
42.2920188903809

> <r_mmod_Bend_Energy-OPLS-2005>
445.803771972656

> <r_mmod_Torsional_Energy-OPLS-2005>
257.274658203125

> <r_mmod_Improper_Torsional_Energy-OPLS-2005>
7.40016078948975

> <r_mmod_Van_der_Waal_Energy-OPLS-2005>
154.466827392578

> <r_mmod_Electrostatic_Energy-OPLS-2005>
-419.357391357422

> <r_mmod_Solvation_Energy-OPLS-2005>
-232.757019042969

> <b_mmod_Minimization_Converged-OPLS-2005>
0

> <r_mmod_RMS_Derivative-OPLS-2005>
1.31876218318939

$$$$
77
                    3D
 Structure written by MMmdl.
149157  0  0  1  0            999 V2000
  -30.4073  -15.4702   20.3449 C   0  0  0  0  0  0
  -30.4242  -12.9668   19.5232 C   0  0  0  0  0  0
  -29.5386  -12.6160   18.2998 C   0  0  0  0  0  0
  -28.1007  -12.3012   18.7393 C   0  0  0  0  0  0
  -27.5978  -13.2997   19.8095 C   0  0  2  0  0  0
  -28.6247  -13.5844   20.9282 C   0  0  0  0  0  0
  -25.2344  -13.8292   20.5795 C   0  0  0  0  0  0
  -24.1718  -13.0448   20.9276 C   0  0  0  0  0  0
  -24.6408  -11.6953   20.8762 C   0  0  0  0  0  0
  -23.9114  -10.4301   21.0400 C   0  0  0  0  0  0
  -24.3654   -9.4212   21.9179 C   0  0  0  0  0  0
  -23.6317   -8.2250   22.0748 C   0  0  0  0  0  0
  -22.4294   -8.0291   21.3543 C   0  0  0  0  0  0
  -21.9941   -9.0268   20.4640 C   0  0  0  0  0  0
  -22.7283  -10.2142   20.3051 C   0  0  0  0  0  0
  -21.6860   -6.0741   22.5278 C   0  0  0  0  0  0
  -21.4020   -6.5641   23.8214 C   0  0  0  0  0  0
  -21.3661   -5.6789   24.9175 C   0  0  0  0  0  0
  -21.6045   -4.3052   24.7222 C   0  0  0  0  0  0
  -21.8820   -3.8146   23.4342 C   0  0  0  0  0  0
  -21.9194   -4.6967   22.3400 C   0  0  0  0  0  0
  -22.7730  -13.5176   21.1911 C   0  0  0  0  0  0
  -22.1659   -4.2155   21.0977 F   0  0  0  0  0  0
  -21.5632   -3.4535   25.7733 F   0  0  0  0  0  0
  -29.8189  -14.1506   20.2686 N   0  0  0  0  0  0
  -26.2779  -12.9609   20.3220 N   0  0  0  0  0  0
  -25.9353  -11.6688   20.5696 N   0  0  0  0  0  0
  -22.0389  -12.8161   22.0471 N   0  0  0  0  0  0
  -25.3973  -15.2036   20.4277 N   0  0  0  0  0  0
  -31.6424  -15.3625   20.2335 O   0  0  0  0  0  0
  -21.6648   -6.8893   21.4244 O   0  0  0  0  0  0
  -22.3402  -14.5468   20.6734 O   0  0  0  0  0  0
  -24.6763  -31.8091   23.1596 C   0  0  0  0  0  0
  -25.9383  -32.4511   23.8112 C   0  0  1  0  0  0
  -27.2200  -26.7953   20.2037 C   0  0  0  0  0  0
  -25.5998  -33.8336   24.2007 N   0  0  0  0  0  0
  -23.4974  -30.4161   21.5104 C   0  0  2  0  0  0
  -24.9524  -28.7753   20.1168 C   0  0  0  0  0  0
  -22.7731  -29.4368   22.4729 C   0  0  0  0  0  0
  -18.0334  -28.1411   22.8458 C   0  0  0  0  0  0
  -24.1494  -36.7175   23.2651 C   0  0  0  0  0  0
  -26.0734  -30.5727   21.4096 C   0  0  0  0  0  0
  -26.1400  -29.1479   20.7579 C   0  0  0  0  0  0
  -27.2650  -28.1838   20.7702 C   0  0  0  0  0  0
  -26.0007  -26.6077   19.5099 C   0  0  0  0  0  0
  -24.9165  -27.5292   19.4697 C   0  0  0  0  0  0
  -23.7459  -29.7207   20.1423 C   0  0  0  0  0  0
  -25.4140  -36.2922   24.0290 C   0  0  1  0  0  0
  -20.5965  -28.3765   23.1155 C   0  0  2  0  0  0
  -20.6803  -26.9436   22.5398 C   0  0  0  0  0  0
  -19.5776  -26.6369   21.5213 C   0  0  0  0  0  0
  -18.1957  -26.7943   22.1616 C   0  0  0  0  0  0
  -19.1600  -28.8910   23.2791 C   0  0  0  0  0  0
  -18.9507  -30.1490   23.8844 C   0  0  0  0  0  0
  -17.6500  -30.6595   24.0557 C   0  0  0  0  0  0
  -25.9115  -34.9308   23.4975 C   0  0  0  0  0  0
  -16.5389  -29.9083   23.6348 C   0  0  0  0  0  0
  -16.7315  -28.6503   23.0372 C   0  0  0  0  0  0
  -26.4592  -31.6512   25.0699 C   0  0  0  0  0  0
  -25.3681  -31.3804   26.1331 C   0  0  0  0  0  0
  -27.0515  -30.2861   24.6539 C   0  0  0  0  0  0
  -27.6052  -32.4357   25.7514 C   0  0  0  0  0  0
  -27.5565  -37.1746   24.8466 C   0  0  0  0  0  0
  -21.4385  -29.3033   22.3486 N   0  0  0  0  0  0
  -26.4274  -37.3674   23.9407 N   0  0  0  0  0  0
  -24.7715  -30.9634   22.0793 N   0  0  0  0  0  0
  -23.4217  -28.7952   23.3030 O   0  0  0  0  0  0
  -28.1946  -25.6201   20.2662 O   0  0  0  0  0  0
  -26.5738  -34.8871   22.4582 O   0  0  0  0  0  0
  -23.5801  -32.1122   23.6612 O   0  0  0  0  0  0
  -28.9823  -22.4735   20.2585 C   0  0  0  0  0  0
  -28.9937  -19.4657   19.2609 C   0  0  0  0  0  0
  -29.6071  -19.6608   21.4474 C   0  0  0  0  0  0
  -28.8845  -17.7523   19.5126 C   0  0  0  0  0  0
  -30.3699  -18.1384   21.1606 C   0  0  0  0  0  0
  -28.7710  -20.6597   20.4013 C   0  0  0  0  0  0
  -27.8960  -23.9316   20.2104 C   0  0  0  0  0  0
  -29.7721  -16.8696   20.4632 N   0  0  0  0  0  0
  -30.1755  -22.7813   20.1852 O   0  0  0  0  0  0
  -31.4300  -13.1928   19.1668 H   0  0  0  0  0  0
  -30.5417  -12.1050   20.1809 H   0  0  0  0  0  0
  -29.9598  -11.7724   17.7513 H   0  0  0  0  0  0
  -29.5317  -13.4607   17.6083 H   0  0  0  0  0  0
  -28.0937  -11.2904   19.1491 H   0  0  0  0  0  0
  -27.4320  -12.2888   17.8778 H   0  0  0  0  0  0
  -27.4756  -14.2380   19.2664 H   0  0  0  0  0  0
  -28.8508  -12.6893   21.5097 H   0  0  0  0  0  0
  -28.2231  -14.3191   21.6282 H   0  0  0  0  0  0
  -25.2798   -9.5682   22.4762 H   0  0  0  0  0  0
  -24.0018   -7.4639   22.7470 H   0  0  0  0  0  0
  -21.0869   -8.8799   19.8945 H   0  0  0  0  0  0
  -22.3744  -10.9685   19.6161 H   0  0  0  0  0  0
  -21.2015   -7.6151   23.9721 H   0  0  0  0  0  0
  -21.1481   -6.0515   25.9078 H   0  0  0  0  0  0
  -22.0599   -2.7609   23.2838 H   0  0  0  0  0  0
  -22.4017  -11.9848   22.4900 H   0  0  0  0  0  0
  -21.0989  -13.1158   22.2641 H   0  0  0  0  0  0
  -24.6321  -15.8572   20.5564 H   0  0  0  0  0  0
  -26.2546  -15.6496   20.1289 H   0  0  0  0  0  0
  -26.7461  -32.5012   23.0826 H   0  0  0  0  0  0
  -25.0089  -33.9388   25.0121 H   0  0  0  0  0  0
  -22.8175  -31.2509   21.3279 H   0  0  0  0  0  0
  -23.3770  -35.9490   23.3272 H   0  0  0  0  0  0
  -24.3567  -36.8872   22.2073 H   0  0  0  0  0  0
  -23.7236  -37.6341   23.6746 H   0  0  0  0  0  0
  -26.2693  -31.3045   20.6244 H   0  0  0  0  0  0
  -26.9278  -30.6351   22.0714 H   0  0  0  0  0  0
  -28.1615  -28.4736   21.2999 H   0  0  0  0  0  0
  -25.8496  -25.6612   19.0113 H   0  0  0  0  0  0
  -24.0180  -27.2370   18.9439 H   0  0  0  0  0  0
  -23.9169  -30.4837   19.3819 H   0  0  0  0  0  0
  -22.8530  -29.1835   19.8193 H   0  0  0  0  0  0
  -25.1344  -36.1701   25.0780 H   0  0  0  0  0  0
  -21.0049  -28.3381   24.1277 H   0  0  0  0  0  0
  -21.6664  -26.7384   22.1213 H   0  0  0  0  0  0
  -20.5668  -26.2390   23.3653 H   0  0  0  0  0  0
  -19.6933  -25.6262   21.1284 H   0  0  0  0  0  0
  -19.6717  -27.3143   20.6713 H   0  0  0  0  0  0
  -17.4229  -26.6687   21.4019 H   0  0  0  0  0  0
  -18.0346  -26.0094   22.9021 H   0  0  0  0  0  0
  -19.7983  -30.7313   24.2195 H   0  0  0  0  0  0
  -17.5055  -31.6270   24.5167 H   0  0  0  0  0  0
  -15.5388  -30.2974   23.7702 H   0  0  0  0  0  0
  -15.8711  -28.0801   22.7129 H   0  0  0  0  0  0
  -24.5884  -30.7132   25.7638 H   0  0  0  0  0  0
  -24.8850  -32.3016   26.4595 H   0  0  0  0  0  0
  -25.7882  -30.9074   27.0214 H   0  0  0  0  0  0
  -26.3213  -29.6492   24.1531 H   0  0  0  0  0  0
  -27.3974  -29.7289   25.5256 H   0  0  0  0  0  0
  -27.9184  -30.4012   24.0030 H   0  0  0  0  0  0
  -27.2599  -33.3715   26.1923 H   0  0  0  0  0  0
  -28.3954  -32.6826   25.0412 H   0  0  0  0  0  0
  -28.0621  -31.8596   26.5572 H   0  0  0  0  0  0
  -28.2555  -38.0068   24.7514 H   0  0  0  0  0  0
  -28.1087  -36.2587   24.6290 H   0  0  0  0  0  0
  -27.2279  -37.1382   25.8870 H   0  0  0  0  0  0
  -20.9670  -29.8717   21.6589 H   0  0  0  0  0  0
  -26.0108  -38.2726   24.1417 H   0  0  0  0  0  0
  -28.2921  -19.6956   18.4579 H   0  0  0  0  0  0
  -29.9675  -19.6548   18.8052 H   0  0  0  0  0  0
  -30.3711  -20.2919   21.9027 H   0  0  0  0  0  0
  -28.9119  -19.4773   22.2672 H   0  0  0  0  0  0
  -27.8556  -17.5421   19.8058 H   0  0  0  0  0  0
  -28.9836  -17.2895   18.5301 H   0  0  0  0  0  0
  -31.2921  -18.3484   20.6153 H   0  0  0  0  0  0
  -30.7198  -17.7846   22.1314 H   0  0  0  0  0  0
  -27.7216  -20.5853   20.6893 H   0  0  0  0  0  0
  -27.3216  -23.7908   19.2948 H   0  0  0  0  0  0
  -27.1735  -23.7545   21.0067 H   0  0  0  0  0  0
  1 25  1  0  0  0
  1 30  2  0  0  0
  1 78  1  0  0  0
  2  3  1  0  0  0
  2 25  1  0  0  0
  2 80  1  0  0  0
  2 81  1  0  0  0
  3  4  1  0  0  0
  3 82  1  0  0  0
  3 83  1  0  0  0
  4  5  1  0  0  0
  4 84  1  0  0  0
  4 85  1  0  0  0
  5  6  1  0  0  0
  5 26  1  0  0  0
  5 86  1  0  0  0
  6 25  1  0  0  0
  6 87  1  0  0  0
  6 88  1  0  0  0
  7  8  2  0  0  0
  7 26  1  0  0  0
  7 29  1  0  0  0
  8  9  1  0  0  0
  8 22  1  0  0  0
  9 10  1  0  0  0
  9 27  2  0  0  0
 10 11  2  0  0  0
 10 15  1  0  0  0
 11 12  1  0  0  0
 11 89  1  0  0  0
 12 13  2  0  0  0
 12 90  1  0  0  0
 13 14  1  0  0  0
 13 31  1  0  0  0
 14 15  2  0  0  0
 14 91  1  0  0  0
 15 92  1  0  0  0
 16 17  2  0  0  0
 16 21  1  0  0  0
 16 31  1  0  0  0
 17 18  1  0  0  0
 17 93  1  0  0  0
 18 19  2  0  0  0
 18 94  1  0  0  0
 19 20  1  0  0  0
 19 24  1  0  0  0
 20 21  2  0  0  0
 20 95  1  0  0  0
 21 23  1  0  0  0
 22 28  1  0  0  0
 22 32  2  0  0  0
 26 27  1  0  0  0
 28 96  1  0  0  0
 28 97  1  0  0  0
 29 98  1  0  0  0
 29 99  1  0  0  0
 33 34  1  0  0  0
 33 66  1  0  0  0
 33 70  2  0  0  0
 34 36  1  0  0  0
 34 59  1  0  0  0
 34100  1  0  0  0
 35 44  2  0  0  0
 35 45  1  0  0  0
 35 68  1  0  0  0
 36 56  1  0  0  0
 36101  1  0  0  0
 37 39  1  0  0  0
 37 47  1  0  0  0
 37 66  1  0  0  0
 37102  1  0  0  0
 38 43  2  0  0  0
 38 46  1  0  0  0
 38 47  1  0  0  0
 39 64  1  0  0  0
 39 67  2  0  0  0
 40 52  1  0  0  0
 40 53  2  0  0  0
 40 58  1  0  0  0
 41103  1  0  0  0
 41104  1  0  0  0
 41105  1  0  0  0
 41 48  1  0  0  0
 42 43  1  0  0  0
 42 66  1  0  0  0
 42106  1  0  0  0
 42107  1  0  0  0
 43 44  1  0  0  0
 44108  1  0  0  0
 45 46  2  0  0  0
 45109  1  0  0  0
 46110  1  0  0  0
 47111  1  0  0  0
 47112  1  0  0  0
 48 56  1  0  0  0
 48 65  1  0  0  0
 48113  1  0  0  0
 49 50  1  0  0  0
 49 53  1  0  0  0
 49 64  1  0  0  0
 49114  1  0  0  0
 50 51  1  0  0  0
 50115  1  0  0  0
 50116  1  0  0  0
 51 52  1  0  0  0
 51117  1  0  0  0
 51118  1  0  0  0
 52119  1  0  0  0
 52120  1  0  0  0
 53 54  1  0  0  0
 54 55  2  0  0  0
 54121  1  0  0  0
 55 57  1  0  0  0
 55122  1  0  0  0
 56 69  2  0  0  0
 57 58  2  0  0  0
 57123  1  0  0  0
 58124  1  0  0  0
 59 60  1  0  0  0
 59 61  1  0  0  0
 59 62  1  0  0  0
 60125  1  0  0  0
 60126  1  0  0  0
 60127  1  0  0  0
 61128  1  0  0  0
 61129  1  0  0  0
 61130  1  0  0  0
 62131  1  0  0  0
 62132  1  0  0  0
 62133  1  0  0  0
 63 65  1  0  0  0
 63134  1  0  0  0
 63135  1  0  0  0
 63136  1  0  0  0
 64137  1  0  0  0
 65138  1  0  0  0
 68 77  1  0  0  0
 71 77  1  0  0  0
 71 79  2  0  0  0
 71 76  1  0  0  0
 72 74  1  0  0  0
 72 76  1  0  0  0
 72139  1  0  0  0
 72140  1  0  0  0
 73 75  1  0  0  0
 73 76  1  0  0  0
 73141  1  0  0  0
 73142  1  0  0  0
 74 78  1  0  0  0
 74143  1  0  0  0
 74144  1  0  0  0
 75 78  1  0  0  0
 75145  1  0  0  0
 75146  1  0  0  0
 76147  1  0  0  0
 77148  1  0  0  0
 77149  1  0  0  0
M  ISO  4   1 100  68 101  77 101  78 100
M  END
> <chiral flag>
0

> <version>
0

> <s_m_source_file>
/data/baiqing/PycharmProjects/Reinvent-master-3.2/result/LINK_invent/BTK/process_docking_weight1_custom_product_contain_oxygen_bond_distance_aromatic_linkinvent_7_9_3/rearranged_h_0146.sdf

> <i_m_source_file_index>
78

> <r_mmod_Potential_Energy-OPLS-2005>
2107.31591796875

> <r_mmod_Stretch_Energy-OPLS-2005>
791.070495605469

> <r_mmod_Bend_Energy-OPLS-2005>
630.622497558594

> <r_mmod_Torsional_Energy-OPLS-2005>
342.614654541016

> <r_mmod_Improper_Torsional_Energy-OPLS-2005>
4.66442584991455

> <r_mmod_Van_der_Waal_Energy-OPLS-2005>
118.101135253906

> <r_mmod_Electrostatic_Energy-OPLS-2005>
-239.005294799805

> <r_mmod_Solvation_Energy-OPLS-2005>
-228.17008972168

> <b_mmod_Minimization_Converged-OPLS-2005>
0

> <r_mmod_RMS_Derivative-OPLS-2005>
0.974368691444397

$$$$
78
                    3D
 Structure written by MMmdl.
174183  0  0  1  0            999 V2000
  -30.3823  -13.4803   20.7370 C   0  0  0  0  0  0
  -30.9039  -11.7341   18.9147 C   0  0  0  0  0  0
  -29.9845  -12.5190   17.0280 C   0  0  0  0  0  0
  -28.5027  -14.1972   17.4182 C   0  0  0  0  0  0
  -27.6596  -14.3050   20.2732 C   0  0  2  0  0  0
  -28.7285  -12.9988   21.3782 C   0  0  0  0  0  0
  -25.0814  -14.1194   20.9019 C   0  0  0  0  0  0
  -24.0995  -13.1740   21.0595 C   0  0  0  0  0  0
  -24.6820  -11.8771   20.9902 C   0  0  0  0  0  0
  -24.0111  -10.5131   21.0557 C   0  0  0  0  0  0
  -24.4552   -9.4560   21.8951 C   0  0  0  0  0  0
  -23.7049   -8.2613   22.0415 C   0  0  0  0  0  0
  -22.4891   -8.0701   21.3462 C   0  0  0  0  0  0
  -22.0595   -9.0943   20.4860 C   0  0  0  0  0  0
  -22.8116  -10.2821   20.3358 C   0  0  0  0  0  0
  -21.7165   -6.0863   22.5042 C   0  0  0  0  0  0
  -21.4229   -6.5659   23.7972 C   0  0  0  0  0  0
  -21.3772   -5.6809   24.8959 C   0  0  0  0  0  0
  -21.6078   -4.3057   24.7064 C   0  0  0  0  0  0
  -21.8842   -3.8143   23.4185 C   0  0  0  0  0  0
  -21.9329   -4.7012   22.3233 C   0  0  0  0  0  0
  -22.6629  -13.5256   21.2229 C   0  0  0  0  0  0
  -22.1823   -4.2117   21.0857 F   0  0  0  0  0  0
  -21.5645   -3.4561   25.7605 F   0  0  0  0  0  0
  -30.2623  -12.2773   20.6656 N   0  0  0  0  0  0
  -26.2852  -13.5125   20.7663 N   0  0  0  0  0  0
  -26.0071  -12.0964   20.8535 N   0  0  0  0  0  0
  -21.9411  -12.7519   22.0201 N   0  0  0  0  0  0
  -25.0655  -15.4976   20.8152 N   0  0  0  0  0  0
  -31.4900  -14.0537   20.9866 O   0  0  0  0  0  0
  -21.7201   -6.9223   21.4069 O   0  0  0  0  0  0
  -22.2008  -14.5514   20.7236 O   0  0  0  0  0  0
  -24.6548  -31.8363   23.1764 C   0  0  0  0  0  0
  -25.9299  -32.4620   23.8180 C   0  0  1  0  0  0
  -27.0170  -27.0040   20.0670 C   0  0  0  0  0  0
  -25.6001  -33.8436   24.2111 N   0  0  0  0  0  0
  -23.4461  -30.4683   21.5383 C   0  0  2  0  0  0
  -24.8401  -28.8947   20.0773 C   0  0  0  0  0  0
  -22.7580  -29.4506   22.4855 C   0  0  0  0  0  0
  -18.0271  -28.1392   22.8440 C   0  0  0  0  0  0
  -24.1496  -36.7261   23.2639 C   0  0  0  0  0  0
  -26.0116  -30.6595   21.3757 C   0  0  0  0  0  0
  -26.0362  -29.2665   20.7051 C   0  0  0  0  0  0
  -27.1403  -28.3229   20.6956 C   0  0  0  0  0  0
  -25.8141  -26.7642   19.4032 C   0  0  0  0  0  0
  -24.7459  -27.6665   19.4199 C   0  0  0  0  0  0
  -23.6432  -29.8181   20.1481 C   0  0  0  0  0  0
  -25.4135  -36.3020   24.0311 C   0  0  1  0  0  0
  -20.5879  -28.3706   23.1253 C   0  0  2  0  0  0
  -20.6773  -26.9414   22.5396 C   0  0  0  0  0  0
  -19.5775  -26.6385   21.5185 C   0  0  0  0  0  0
  -18.1949  -26.7921   22.1586 C   0  0  0  0  0  0
  -19.1522  -28.8870   23.2829 C   0  0  0  0  0  0
  -18.9448  -30.1459   23.8878 C   0  0  0  0  0  0
  -17.6452  -30.6598   24.0542 C   0  0  0  0  0  0
  -25.9102  -34.9384   23.5028 C   0  0  0  0  0  0
  -16.5341  -29.9104   23.6314 C   0  0  0  0  0  0
  -16.7253  -28.6505   23.0357 C   0  0  0  0  0  0
  -26.4541  -31.6529   25.0667 C   0  0  0  0  0  0
  -25.3705  -31.3740   26.1351 C   0  0  0  0  0  0
  -27.0363  -30.2920   24.6259 C   0  0  0  0  0  0
  -27.6078  -32.4276   25.7444 C   0  0  0  0  0  0
  -27.5594  -37.1789   24.8470 C   0  0  0  0  0  0
  -21.4251  -29.3039   22.3644 N   0  0  0  0  0  0
  -26.4307  -37.3747   23.9397 N   0  0  0  0  0  0
  -24.7304  -31.0144   22.0823 N   0  0  0  0  0  0
  -23.4246  -28.8023   23.2963 O   0  0  0  0  0  0
  -27.8924  -25.8663   20.1392 O   0  0  0  0  0  0
  -26.5711  -34.8913   22.4618 O   0  0  0  0  0  0
  -23.5657  -32.1298   23.6985 O   0  0  0  0  0  0
  -26.6992  -15.8479   18.3708 C   0  0  0  0  0  0
  -26.2721  -14.3601   18.2616 C   0  0  0  0  0  0
  -25.8642  -16.9503   18.2377 C   0  0  0  0  0  0
  -24.9890  -14.7623   17.8736 C   0  0  0  0  0  0
  -26.7766  -23.0785   19.8196 C   0  0  0  0  0  0
  -30.4785  -14.1252   18.5523 C   0  0  0  0  0  0
  -28.7122  -12.4130   18.8951 C   0  0  0  0  0  0
  -29.9825  -15.0828   19.3639 C   0  0  0  0  0  0
  -27.5125  -12.7460   18.7316 C   0  0  1  0  0  0
  -23.8495  -12.5096   17.4896 C   0  0  0  0  0  0
  -26.8283  -19.4789   20.5876 C   0  0  0  0  0  0
  -24.6482  -20.2228   19.7732 C   0  0  0  0  0  0
  -26.0060  -18.6530   18.1805 C   0  0  0  0  0  0
  -23.7233  -14.0276   17.6104 C   0  0  0  0  0  0
  -26.7711  -21.5795   18.9851 C   0  0  0  0  0  0
  -27.7258  -24.4329   19.4290 C   0  0  0  0  0  0
  -26.1061  -19.9833   19.3314 C   0  0  0  0  0  0
  -29.5507  -13.5687   19.4174 N   0  0  0  0  0  0
  -26.0054  -23.2080   20.7742 O   0  0  0  0  0  0
  -24.7603  -16.2010   17.8583 O   0  0  0  0  0  0
  -31.9916  -11.8607   18.9053 H   0  0  0  0  0  0
  -30.8065  -10.6493   18.8919 H   0  0  0  0  0  0
  -29.5012  -11.7270   16.4572 H   0  0  0  0  0  0
  -30.7628  -12.7979   16.3243 H   0  0  0  0  0  0
  -27.7875  -13.8862   16.6405 H   0  0  0  0  0  0
  -28.7528  -15.1595   16.9676 H   0  0  0  0  0  0
  -27.7100  -15.3068   20.7046 H   0  0  0  0  0  0
  -28.1862  -12.0975   21.6508 H   0  0  0  0  0  0
  -28.8113  -13.4403   22.3880 H   0  0  0  0  0  0
  -25.3754   -9.5663   22.4538 H   0  0  0  0  0  0
  -24.0782   -7.4856   22.6950 H   0  0  0  0  0  0
  -21.1285   -8.9797   19.9513 H   0  0  0  0  0  0
  -22.4288  -11.0619   19.6966 H   0  0  0  0  0  0
  -21.2293   -7.6164   23.9462 H   0  0  0  0  0  0
  -21.1620   -6.0538   25.8855 H   0  0  0  0  0  0
  -22.0563   -2.7561   23.2665 H   0  0  0  0  0  0
  -22.3295  -11.9073   22.4166 H   0  0  0  0  0  0
  -20.9866  -13.0033   22.2282 H   0  0  0  0  0  0
  -24.1555  -15.9506   20.8202 H   0  0  0  0  0  0
  -25.5865  -15.8626   20.0197 H   0  0  0  0  0  0
  -26.7355  -32.5094   23.0871 H   0  0  0  0  0  0
  -25.0044  -33.9512   25.0194 H   0  0  0  0  0  0
  -22.7493  -31.2964   21.3960 H   0  0  0  0  0  0
  -23.3764  -35.9585   23.3277 H   0  0  0  0  0  0
  -24.3587  -36.8928   22.2057 H   0  0  0  0  0  0
  -23.7227  -37.6443   23.6692 H   0  0  0  0  0  0
  -26.1743  -31.4016   20.5922 H   0  0  0  0  0  0
  -26.8936  -30.7094   22.0066 H   0  0  0  0  0  0
  -28.0483  -28.5690   21.2283 H   0  0  0  0  0  0
  -25.6278  -25.8136   18.9237 H   0  0  0  0  0  0
  -23.8194  -27.3877   18.9374 H   0  0  0  0  0  0
  -23.7717  -30.5895   19.3888 H   0  0  0  0  0  0
  -22.7469  -29.2693   19.8510 H   0  0  0  0  0  0
  -25.1303  -36.1859   25.0809 H   0  0  0  0  0  0
  -20.9930  -28.3299   24.1395 H   0  0  0  0  0  0
  -20.5670  -26.2306   23.3603 H   0  0  0  0  0  0
  -21.6651  -26.7440   22.1200 H   0  0  0  0  0  0
  -19.6976  -25.6301   21.1236 H   0  0  0  0  0  0
  -19.6759  -27.3175   20.6716 H   0  0  0  0  0  0
  -17.4206  -26.6584   21.4011 H   0  0  0  0  0  0
  -18.0398  -26.0089   22.9017 H   0  0  0  0  0  0
  -19.7935  -30.7234   24.2306 H   0  0  0  0  0  0
  -17.5026  -31.6285   24.5130 H   0  0  0  0  0  0
  -15.5356  -30.3025   23.7678 H   0  0  0  0  0  0
  -15.8621  -28.0836   22.7147 H   0  0  0  0  0  0
  -24.5954  -30.6985   25.7707 H   0  0  0  0  0  0
  -24.8776  -32.2892   26.4645 H   0  0  0  0  0  0
  -25.7996  -30.9042   27.0218 H   0  0  0  0  0  0
  -26.2974  -29.6679   24.1218 H   0  0  0  0  0  0
  -27.3920  -29.7180   25.4830 H   0  0  0  0  0  0
  -27.8908  -30.4136   23.9601 H   0  0  0  0  0  0
  -27.2736  -33.3658   26.1897 H   0  0  0  0  0  0
  -28.3965  -32.6711   25.0304 H   0  0  0  0  0  0
  -28.0672  -31.8456   26.5450 H   0  0  0  0  0  0
  -28.2593  -38.0110   24.7522 H   0  0  0  0  0  0
  -28.1117  -36.2627   24.6283 H   0  0  0  0  0  0
  -27.2327  -37.1432   25.8888 H   0  0  0  0  0  0
  -20.9495  -29.8776   21.6813 H   0  0  0  0  0  0
  -26.0177  -38.2830   24.1363 H   0  0  0  0  0  0
  -27.6680  -16.1792   18.6369 H   0  0  0  0  0  0
  -30.6909  -14.6706   17.6098 H   0  0  0  0  0  0
  -31.5823  -13.9352   18.6073 H   0  0  0  0  0  0
  -28.5459  -11.5770   19.6110 H   0  0  0  0  0  0
  -28.6957  -11.4567   18.3328 H   0  0  0  0  0  0
  -29.5646  -15.8609   18.7361 H   0  0  0  0  0  0
  -30.9068  -15.6076   19.6249 H   0  0  0  0  0  0
  -26.9622  -11.7877   18.6563 H   0  0  0  0  0  0
  -24.4002  -12.0954   18.3287 H   0  0  0  0  0  0
  -24.4148  -12.2274   16.6023 H   0  0  0  0  0  0
  -22.8554  -12.0420   17.4939 H   0  0  0  0  0  0
  -26.4658  -18.4921   20.8676 H   0  0  0  0  0  0
  -26.6444  -20.1319   21.4447 H   0  0  0  0  0  0
  -27.9077  -19.4222   20.4469 H   0  0  0  0  0  0
  -24.1867  -19.2998   20.1307 H   0  0  0  0  0  0
  -24.0327  -20.6239   18.9686 H   0  0  0  0  0  0
  -24.5912  -20.9350   20.6004 H   0  0  0  0  0  0
  -25.2570  -18.9801   17.4672 H   0  0  0  0  0  0
  -26.9061  -18.7744   17.5891 H   0  0  0  0  0  0
  -23.0868  -14.2407   18.4651 H   0  0  0  0  0  0
  -23.2236  -14.4542   16.7357 H   0  0  0  0  0  0
  -27.8295  -21.4259   18.7920 H   0  0  0  0  0  0
  -26.3521  -21.8633   18.0232 H   0  0  0  0  0  0
  -27.7232  -24.5656   18.3493 H   0  0  0  0  0  0
  -28.7112  -24.0175   19.6327 H   0  0  0  0  0  0
  1 25  1  0  0  0
  1 30  2  0  0  0
  1 88  1  0  0  0
  2  3  1  0  0  0
  2 25  1  0  0  0
  2 91  1  0  0  0
  2 92  1  0  0  0
  3  4  1  0  0  0
  3 93  1  0  0  0
  3 94  1  0  0  0
  4  5  1  0  0  0
  4 95  1  0  0  0
  4 96  1  0  0  0
  5  6  1  0  0  0
  5 26  1  0  0  0
  5 97  1  0  0  0
  6 25  1  0  0  0
  6 98  1  0  0  0
  6 99  1  0  0  0
  7  8  2  0  0  0
  7 26  1  0  0  0
  7 29  1  0  0  0
  8  9  1  0  0  0
  8 22  1  0  0  0
  9 10  1  0  0  0
  9 27  2  0  0  0
 10 11  2  0  0  0
 10 15  1  0  0  0
 11 12  1  0  0  0
 11100  1  0  0  0
 12 13  2  0  0  0
 12101  1  0  0  0
 13 14  1  0  0  0
 13 31  1  0  0  0
 14 15  2  0  0  0
 14102  1  0  0  0
 15103  1  0  0  0
 16 17  2  0  0  0
 16 21  1  0  0  0
 16 31  1  0  0  0
 17 18  1  0  0  0
 17104  1  0  0  0
 18 19  2  0  0  0
 18105  1  0  0  0
 19 20  1  0  0  0
 19 24  1  0  0  0
 20 21  2  0  0  0
 20106  1  0  0  0
 21 23  1  0  0  0
 22 28  1  0  0  0
 22 32  2  0  0  0
 26 27  1  0  0  0
 28107  1  0  0  0
 28108  1  0  0  0
 29109  1  0  0  0
 29110  1  0  0  0
 33 34  1  0  0  0
 33 66  1  0  0  0
 33 70  2  0  0  0
 34 36  1  0  0  0
 34 59  1  0  0  0
 34111  1  0  0  0
 35 44  2  0  0  0
 35 45  1  0  0  0
 35 68  1  0  0  0
 36 56  1  0  0  0
 36112  1  0  0  0
 37 39  1  0  0  0
 37 47  1  0  0  0
 37 66  1  0  0  0
 37113  1  0  0  0
 38 43  2  0  0  0
 38 46  1  0  0  0
 38 47  1  0  0  0
 39 64  1  0  0  0
 39 67  2  0  0  0
 40 52  1  0  0  0
 40 53  2  0  0  0
 40 58  1  0  0  0
 41114  1  0  0  0
 41115  1  0  0  0
 41116  1  0  0  0
 41 48  1  0  0  0
 42 43  1  0  0  0
 42 66  1  0  0  0
 42117  1  0  0  0
 42118  1  0  0  0
 43 44  1  0  0  0
 44119  1  0  0  0
 45 46  2  0  0  0
 45120  1  0  0  0
 46121  1  0  0  0
 47122  1  0  0  0
 47123  1  0  0  0
 48 56  1  0  0  0
 48 65  1  0  0  0
 48124  1  0  0  0
 49 50  1  0  0  0
 49 53  1  0  0  0
 49 64  1  0  0  0
 49125  1  0  0  0
 50 51  1  0  0  0
 50126  1  0  0  0
 50127  1  0  0  0
 51 52  1  0  0  0
 51128  1  0  0  0
 51129  1  0  0  0
 52130  1  0  0  0
 52131  1  0  0  0
 53 54  1  0  0  0
 54 55  2  0  0  0
 54132  1  0  0  0
 55 57  1  0  0  0
 55133  1  0  0  0
 56 69  2  0  0  0
 57 58  2  0  0  0
 57134  1  0  0  0
 58135  1  0  0  0
 59 60  1  0  0  0
 59 61  1  0  0  0
 59 62  1  0  0  0
 60136  1  0  0  0
 60137  1  0  0  0
 60138  1  0  0  0
 61139  1  0  0  0
 61140  1  0  0  0
 61141  1  0  0  0
 62142  1  0  0  0
 62143  1  0  0  0
 62144  1  0  0  0
 63 65  1  0  0  0
 63145  1  0  0  0
 63146  1  0  0  0
 63147  1  0  0  0
 64148  1  0  0  0
 65149  1  0  0  0
 68 86  1  0  0  0
 71 72  1  0  0  0
 71 73  2  0  0  0
 71150  1  0  0  0
 72 74  2  0  0  0
 72 79  1  0  0  0
 73 83  1  0  0  0
 73 90  1  0  0  0
 74 84  1  0  0  0
 74 90  1  0  0  0
 75 85  1  0  0  0
 75 86  1  0  0  0
 75 89  2  0  0  0
 76 77  1  0  0  0
 76 78  1  0  0  0
 76151  1  0  0  0
 76152  1  0  0  0
 77 79  1  0  0  0
 77153  1  0  0  0
 77154  1  0  0  0
 78 88  1  0  0  0
 78155  1  0  0  0
 78156  1  0  0  0
 79 88  1  0  0  0
 79157  1  0  0  0
 80 84  1  0  0  0
 80158  1  0  0  0
 80159  1  0  0  0
 80160  1  0  0  0
 81161  1  0  0  0
 81162  1  0  0  0
 81163  1  0  0  0
 81 87  1  0  0  0
 82 87  1  0  0  0
 82164  1  0  0  0
 82165  1  0  0  0
 82166  1  0  0  0
 83 87  1  0  0  0
 83167  1  0  0  0
 83168  1  0  0  0
 84169  1  0  0  0
 84170  1  0  0  0
 85 87  1  0  0  0
 85171  1  0  0  0
 85172  1  0  0  0
 86173  1  0  0  0
 86174  1  0  0  0
M  ISO  4   1 100  68 101  86 101  88 100
M  END
> <chiral flag>
0

> <version>
0

> <s_m_source_file>
/data/baiqing/PycharmProjects/Reinvent-master-3.2/result/LINK_invent/BTK/process_docking_weight1_custom_product_contain_oxygen_bond_distance_aromatic_linkinvent_7_9_3/rearranged_h_0146.sdf

> <i_m_source_file_index>
79

> <r_mmod_Potential_Energy-OPLS-2005>
14612.0595703125

> <r_mmod_Stretch_Energy-OPLS-2005>
7641.3125

> <r_mmod_Bend_Energy-OPLS-2005>
2089.2197265625

> <r_mmod_Torsional_Energy-OPLS-2005>
364.136810302734

> <r_mmod_Improper_Torsional_Energy-OPLS-2005>
69.9155426025391

> <r_mmod_Van_der_Waal_Energy-OPLS-2005>
3380.21166992188

> <r_mmod_Electrostatic_Energy-OPLS-2005>
-268.930297851562

> <r_mmod_Solvation_Energy-OPLS-2005>
-206.886337280273

> <b_mmod_Minimization_Converged-OPLS-2005>
0

> <r_mmod_RMS_Derivative-OPLS-2005>
17.2825107574463

$$$$
79
                    3D
 Structure written by MMmdl.
162171  0  0  1  0            999 V2000
  -30.7091  -14.4706   20.5172 C   0  0  0  0  0  0
  -30.4154  -12.2854   19.4401 C   0  0  0  0  0  0
  -29.4985  -12.4878   18.2150 C   0  0  0  0  0  0
  -28.0171  -12.3628   18.6223 C   0  0  0  0  0  0
  -27.6621  -13.2131   19.8719 C   0  0  2  0  0  0
  -28.7028  -13.0163   21.0004 C   0  0  0  0  0  0
  -25.2586  -13.8175   20.5690 C   0  0  0  0  0  0
  -24.1839  -13.0445   20.9185 C   0  0  0  0  0  0
  -24.6398  -11.6916   20.8727 C   0  0  0  0  0  0
  -23.9055  -10.4303   21.0394 C   0  0  0  0  0  0
  -24.3612   -9.4219   21.9175 C   0  0  0  0  0  0
  -23.6303   -8.2245   22.0743 C   0  0  0  0  0  0
  -22.4279   -8.0276   21.3538 C   0  0  0  0  0  0
  -21.9910   -9.0251   20.4640 C   0  0  0  0  0  0
  -22.7224  -10.2139   20.3047 C   0  0  0  0  0  0
  -21.6858   -6.0736   22.5278 C   0  0  0  0  0  0
  -21.4017   -6.5641   23.8215 C   0  0  0  0  0  0
  -21.3664   -5.6793   24.9180 C   0  0  0  0  0  0
  -21.6047   -4.3060   24.7223 C   0  0  0  0  0  0
  -21.8813   -3.8147   23.4344 C   0  0  0  0  0  0
  -21.9192   -4.6964   22.3403 C   0  0  0  0  0  0
  -22.7854  -13.5236   21.1837 C   0  0  0  0  0  0
  -22.1656   -4.2149   21.0979 F   0  0  0  0  0  0
  -21.5636   -3.4538   25.7742 F   0  0  0  0  0  0
  -30.0381  -13.2906   20.4461 N   0  0  0  0  0  0
  -26.3028  -12.9365   20.3350 N   0  0  0  0  0  0
  -25.9330  -11.6515   20.5761 N   0  0  0  0  0  0
  -22.0478  -12.8254   22.0401 N   0  0  0  0  0  0
  -25.4305  -15.1893   20.4098 N   0  0  0  0  0  0
  -31.8629  -14.6144   20.1036 O   0  0  0  0  0  0
  -21.6641   -6.8870   21.4238 O   0  0  0  0  0  0
  -22.3544  -14.5541   20.6691 O   0  0  0  0  0  0
  -24.6148  -31.8698   23.2122 C   0  0  0  0  0  0
  -25.9039  -32.4833   23.8414 C   0  0  1  0  0  0
  -27.2180  -27.4297   20.0859 C   0  0  0  0  0  0
  -25.5886  -33.8632   24.2335 N   0  0  0  0  0  0
  -23.4012  -30.4984   21.5545 C   0  0  2  0  0  0
  -24.8422  -28.9734   20.1114 C   0  0  0  0  0  0
  -22.7409  -29.4675   22.4985 C   0  0  0  0  0  0
  -18.0274  -28.1387   22.8495 C   0  0  0  0  0  0
  -24.1483  -36.7322   23.2637 C   0  0  0  0  0  0
  -25.9346  -30.8347   21.3664 C   0  0  0  0  0  0
  -26.0089  -29.4739   20.7042 C   0  0  0  0  0  0
  -27.2021  -28.7121   20.6846 C   0  0  0  0  0  0
  -26.0279  -26.9563   19.4802 C   0  0  0  0  0  0
  -24.8474  -27.7143   19.4964 C   0  0  0  0  0  0
  -23.6066  -29.8403   20.1666 C   0  0  0  0  0  0
  -25.4103  -36.3117   24.0336 C   0  0  1  0  0  0
  -20.5865  -28.3671   23.1315 C   0  0  2  0  0  0
  -20.6761  -26.9405   22.5413 C   0  0  0  0  0  0
  -19.5739  -26.6391   21.5210 C   0  0  0  0  0  0
  -18.1920  -26.7930   22.1629 C   0  0  0  0  0  0
  -19.1526  -28.8844   23.2903 C   0  0  0  0  0  0
  -18.9452  -30.1450   23.8917 C   0  0  0  0  0  0
  -17.6456  -30.6594   24.0568 C   0  0  0  0  0  0
  -25.9036  -34.9481   23.5137 C   0  0  0  0  0  0
  -16.5345  -29.9101   23.6321 C   0  0  0  0  0  0
  -16.7264  -28.6514   23.0344 C   0  0  0  0  0  0
  -26.4462  -31.6611   25.0747 C   0  0  0  0  0  0
  -25.3725  -31.3732   26.1499 C   0  0  0  0  0  0
  -27.0279  -30.3042   24.6135 C   0  0  0  0  0  0
  -27.6040  -32.4334   25.7501 C   0  0  0  0  0  0
  -27.5583  -37.1808   24.8463 C   0  0  0  0  0  0
  -21.4136  -29.3042   22.3723 N   0  0  0  0  0  0
  -26.4293  -37.3800   23.9414 N   0  0  0  0  0  0
  -24.6692  -31.0798   22.1027 N   0  0  0  0  0  0
  -23.4179  -28.8203   23.3017 O   0  0  0  0  0  0
  -28.3628  -26.6503   20.1255 O   0  0  0  0  0  0
  -26.5607  -34.8925   22.4705 O   0  0  0  0  0  0
  -23.5337  -32.1452   23.7516 O   0  0  0  0  0  0
  -29.9551  -18.0250   20.8952 C   0  0  0  0  0  0
  -30.0090  -19.2659   18.7950 C   0  0  0  0  0  0
  -30.0540  -16.8309   18.7714 C   0  0  0  0  0  0
  -29.9472  -19.2706   20.2088 C   0  0  0  0  0  0
  -30.0171  -16.7979   20.1870 C   0  0  0  0  0  0
  -30.0546  -18.0560   18.0835 C   0  0  0  0  0  0
  -29.8997  -20.5590   20.9749 C   0  0  0  0  0  0
  -30.8233  -22.6628   19.7773 C   0  0  0  0  0  0
  -30.3119  -24.0935   19.5670 C   0  0  0  0  0  0
  -28.7408  -22.9029   20.9968 C   0  0  0  0  0  0
  -29.5806  -21.8719   20.2087 C   0  0  2  0  0  0
  -29.2763  -24.3312   20.6826 C   0  0  1  0  0  0
  -29.9556  -24.9151   21.9369 C   0  0  0  0  0  0
  -28.1033  -25.2359   20.2242 C   0  0  0  0  0  0
  -29.9809  -15.5448   20.8786 N   0  0  0  0  0  0
  -30.0928  -20.6024   22.1945 O   0  0  0  0  0  0
  -30.0939  -18.0717   16.7302 F   0  0  0  0  0  0
  -31.4644  -12.3557   19.1472 H   0  0  0  0  0  0
  -30.2878  -11.2822   19.8506 H   0  0  0  0  0  0
  -29.7356  -11.7554   17.4412 H   0  0  0  0  0  0
  -29.6771  -13.4670   17.7695 H   0  0  0  0  0  0
  -27.8187  -11.3104   18.8251 H   0  0  0  0  0  0
  -27.3704  -12.6341   17.7869 H   0  0  0  0  0  0
  -27.7020  -14.2574   19.5594 H   0  0  0  0  0  0
  -28.6665  -11.9941   21.3831 H   0  0  0  0  0  0
  -28.4783  -13.6593   21.8538 H   0  0  0  0  0  0
  -25.2744   -9.5731   22.4749 H   0  0  0  0  0  0
  -24.0022   -7.4651   22.7470 H   0  0  0  0  0  0
  -21.0838   -8.8780   19.8952 H   0  0  0  0  0  0
  -22.3671  -10.9686   19.6171 H   0  0  0  0  0  0
  -21.2011   -7.6152   23.9733 H   0  0  0  0  0  0
  -21.1487   -6.0513   25.9087 H   0  0  0  0  0  0
  -22.0588   -2.7602   23.2846 H   0  0  0  0  0  0
  -22.4086  -11.9937   22.4840 H   0  0  0  0  0  0
  -21.1089  -13.1295   22.2560 H   0  0  0  0  0  0
  -24.6669  -15.8460   20.5253 H   0  0  0  0  0  0
  -26.2889  -15.6270   20.0987 H   0  0  0  0  0  0
  -26.7113  -32.5532   23.1178 H   0  0  0  0  0  0
  -24.9988  -33.9806   25.0443 H   0  0  0  0  0  0
  -22.6899  -31.3165   21.4222 H   0  0  0  0  0  0
  -23.3740  -35.9661   23.3300 H   0  0  0  0  0  0
  -24.3576  -36.8937   22.2052 H   0  0  0  0  0  0
  -23.7241  -37.6528   23.6654 H   0  0  0  0  0  0
  -26.0532  -31.6061   20.6043 H   0  0  0  0  0  0
  -26.8201  -30.8790   21.9888 H   0  0  0  0  0  0
  -28.1009  -29.0920   21.1491 H   0  0  0  0  0  0
  -25.9767  -25.9959   18.9898 H   0  0  0  0  0  0
  -23.9494  -27.3261   19.0354 H   0  0  0  0  0  0
  -23.7118  -30.6204   19.4118 H   0  0  0  0  0  0
  -22.7291  -29.2628   19.8697 H   0  0  0  0  0  0
  -25.1273  -36.1983   25.0829 H   0  0  0  0  0  0
  -20.9968  -28.3237   24.1429 H   0  0  0  0  0  0
  -20.5665  -26.2278   23.3602 H   0  0  0  0  0  0
  -21.6632  -26.7449   22.1205 H   0  0  0  0  0  0
  -19.6898  -25.6304   21.1237 H   0  0  0  0  0  0
  -19.6679  -27.3205   20.6742 H   0  0  0  0  0  0
  -17.4183  -26.6674   21.4036 H   0  0  0  0  0  0
  -18.0330  -26.0077   22.9035 H   0  0  0  0  0  0
  -19.7931  -30.7258   24.2292 H   0  0  0  0  0  0
  -17.5017  -31.6278   24.5170 H   0  0  0  0  0  0
  -15.5348  -30.3014   23.7638 H   0  0  0  0  0  0
  -15.8661  -28.0850   22.7040 H   0  0  0  0  0  0
  -24.5877  -30.7102   25.7840 H   0  0  0  0  0  0
  -24.8940  -32.2895   26.4964 H   0  0  0  0  0  0
  -25.8069  -30.8884   27.0249 H   0  0  0  0  0  0
  -26.2827  -29.6833   24.1148 H   0  0  0  0  0  0
  -27.3982  -29.7256   25.4608 H   0  0  0  0  0  0
  -27.8697  -30.4343   23.9331 H   0  0  0  0  0  0
  -27.2651  -33.3613   26.2122 H   0  0  0  0  0  0
  -28.3815  -32.6934   25.0308 H   0  0  0  0  0  0
  -28.0748  -31.8441   26.5379 H   0  0  0  0  0  0
  -28.2598  -38.0109   24.7508 H   0  0  0  0  0  0
  -28.1077  -36.2635   24.6274 H   0  0  0  0  0  0
  -27.2305  -37.1451   25.8869 H   0  0  0  0  0  0
  -20.9284  -29.8769   21.6960 H   0  0  0  0  0  0
  -26.0175  -38.2877   24.1421 H   0  0  0  0  0  0
  -29.9205  -18.0135   21.9769 H   0  0  0  0  0  0
  -30.0234  -20.1801   18.2224 H   0  0  0  0  0  0
  -30.0801  -15.9194   18.1940 H   0  0  0  0  0  0
  -31.5791  -22.6463   20.5636 H   0  0  0  0  0  0
  -31.2810  -22.2572   18.8741 H   0  0  0  0  0  0
  -29.8361  -24.1506   18.5871 H   0  0  0  0  0  0
  -31.1157  -24.8316   19.5684 H   0  0  0  0  0  0
  -28.7430  -22.7161   22.0719 H   0  0  0  0  0  0
  -27.7000  -22.7946   20.6889 H   0  0  0  0  0  0
  -29.0026  -21.6312   19.3176 H   0  0  0  0  0  0
  -30.7914  -24.2936   22.2608 H   0  0  0  0  0  0
  -29.2602  -24.9820   22.7738 H   0  0  0  0  0  0
  -30.3425  -25.9181   21.7533 H   0  0  0  0  0  0
  -27.2894  -25.0912   20.9387 H   0  0  0  0  0  0
  -27.7501  -24.8620   19.2623 H   0  0  0  0  0  0
  -29.1417  -15.3553   21.4058 H   0  0  0  0  0  0
  1 25  1  0  0  0
  1 30  2  0  0  0
  1 85  1  0  0  0
  2  3  1  0  0  0
  2 25  1  0  0  0
  2 88  1  0  0  0
  2 89  1  0  0  0
  3  4  1  0  0  0
  3 90  1  0  0  0
  3 91  1  0  0  0
  4  5  1  0  0  0
  4 92  1  0  0  0
  4 93  1  0  0  0
  5  6  1  0  0  0
  5 26  1  0  0  0
  5 94  1  0  0  0
  6 25  1  0  0  0
  6 95  1  0  0  0
  6 96  1  0  0  0
  7  8  2  0  0  0
  7 26  1  0  0  0
  7 29  1  0  0  0
  8  9  1  0  0  0
  8 22  1  0  0  0
  9 10  1  0  0  0
  9 27  2  0  0  0
 10 11  2  0  0  0
 10 15  1  0  0  0
 11 12  1  0  0  0
 11 97  1  0  0  0
 12 13  2  0  0  0
 12 98  1  0  0  0
 13 14  1  0  0  0
 13 31  1  0  0  0
 14 15  2  0  0  0
 14 99  1  0  0  0
 15100  1  0  0  0
 16 17  2  0  0  0
 16 21  1  0  0  0
 16 31  1  0  0  0
 17 18  1  0  0  0
 17101  1  0  0  0
 18 19  2  0  0  0
 18102  1  0  0  0
 19 20  1  0  0  0
 19 24  1  0  0  0
 20 21  2  0  0  0
 20103  1  0  0  0
 21 23  1  0  0  0
 22 28  1  0  0  0
 22 32  2  0  0  0
 26 27  1  0  0  0
 28104  1  0  0  0
 28105  1  0  0  0
 29106  1  0  0  0
 29107  1  0  0  0
 33 34  1  0  0  0
 33 66  1  0  0  0
 33 70  2  0  0  0
 34 36  1  0  0  0
 34 59  1  0  0  0
 34108  1  0  0  0
 35 44  2  0  0  0
 35 45  1  0  0  0
 35 68  1  0  0  0
 36 56  1  0  0  0
 36109  1  0  0  0
 37 39  1  0  0  0
 37 47  1  0  0  0
 37 66  1  0  0  0
 37110  1  0  0  0
 38 43  2  0  0  0
 38 46  1  0  0  0
 38 47  1  0  0  0
 39 64  1  0  0  0
 39 67  2  0  0  0
 40 52  1  0  0  0
 40 53  2  0  0  0
 40 58  1  0  0  0
 41111  1  0  0  0
 41112  1  0  0  0
 41113  1  0  0  0
 41 48  1  0  0  0
 42 43  1  0  0  0
 42 66  1  0  0  0
 42114  1  0  0  0
 42115  1  0  0  0
 43 44  1  0  0  0
 44116  1  0  0  0
 45 46  2  0  0  0
 45117  1  0  0  0
 46118  1  0  0  0
 47119  1  0  0  0
 47120  1  0  0  0
 48 56  1  0  0  0
 48 65  1  0  0  0
 48121  1  0  0  0
 49 50  1  0  0  0
 49 53  1  0  0  0
 49 64  1  0  0  0
 49122  1  0  0  0
 50 51  1  0  0  0
 50123  1  0  0  0
 50124  1  0  0  0
 51 52  1  0  0  0
 51125  1  0  0  0
 51126  1  0  0  0
 52127  1  0  0  0
 52128  1  0  0  0
 53 54  1  0  0  0
 54 55  2  0  0  0
 54129  1  0  0  0
 55 57  1  0  0  0
 55130  1  0  0  0
 56 69  2  0  0  0
 57 58  2  0  0  0
 57131  1  0  0  0
 58132  1  0  0  0
 59 60  1  0  0  0
 59 61  1  0  0  0
 59 62  1  0  0  0
 60133  1  0  0  0
 60134  1  0  0  0
 60135  1  0  0  0
 61136  1  0  0  0
 61137  1  0  0  0
 61138  1  0  0  0
 62139  1  0  0  0
 62140  1  0  0  0
 62141  1  0  0  0
 63 65  1  0  0  0
 63142  1  0  0  0
 63143  1  0  0  0
 63144  1  0  0  0
 64145  1  0  0  0
 65146  1  0  0  0
 68 84  1  0  0  0
 71 74  2  0  0  0
 71 75  1  0  0  0
 71147  1  0  0  0
 72 74  1  0  0  0
 72 76  2  0  0  0
 72148  1  0  0  0
 73 75  2  0  0  0
 73 76  1  0  0  0
 73149  1  0  0  0
 74 77  1  0  0  0
 75 85  1  0  0  0
 76 87  1  0  0  0
 77 86  2  0  0  0
 77 81  1  0  0  0
 78 79  1  0  0  0
 78 81  1  0  0  0
 78150  1  0  0  0
 78151  1  0  0  0
 79 82  1  0  0  0
 79152  1  0  0  0
 79153  1  0  0  0
 80 81  1  0  0  0
 80 82  1  0  0  0
 80154  1  0  0  0
 80155  1  0  0  0
 81156  1  0  0  0
 82 83  1  0  0  0
 82 84  1  0  0  0
 83157  1  0  0  0
 83158  1  0  0  0
 83159  1  0  0  0
 84160  1  0  0  0
 84161  1  0  0  0
 85162  1  0  0  0
M  ISO  4   1 100  68 101  84 101  85 100
M  END
> <chiral flag>
0

> <version>
0

> <s_m_source_file>
/data/baiqing/PycharmProjects/Reinvent-master-3.2/result/LINK_invent/BTK/process_docking_weight1_custom_product_contain_oxygen_bond_distance_aromatic_linkinvent_7_9_3/rearranged_h_0146.sdf

> <i_m_source_file_index>
80

> <r_mmod_Potential_Energy-OPLS-2005>
98.0834426879883

> <r_mmod_Stretch_Energy-OPLS-2005>
40.4820671081543

> <r_mmod_Bend_Energy-OPLS-2005>
116.993537902832

> <r_mmod_Torsional_Energy-OPLS-2005>
327.050201416016

> <r_mmod_Improper_Torsional_Energy-OPLS-2005>
6.06708478927612

> <r_mmod_Van_der_Waal_Energy-OPLS-2005>
162.494445800781

> <r_mmod_Electrostatic_Energy-OPLS-2005>
-360.986297607422

> <r_mmod_Solvation_Energy-OPLS-2005>
-211.091857910156

> <b_mmod_Minimization_Converged-OPLS-2005>
0

> <r_mmod_RMS_Derivative-OPLS-2005>
2.11979246139526

$$$$
80
                    3D
 Structure written by MMmdl.
150158  0  0  1  0            999 V2000
  -30.7184  -14.5397   20.4894 C   0  0  0  0  0  0
  -30.4043  -12.3263   19.4421 C   0  0  0  0  0  0
  -29.4903  -12.4834   18.2071 C   0  0  0  0  0  0
  -28.0084  -12.3584   18.6078 C   0  0  0  0  0  0
  -27.6466  -13.2226   19.8465 C   0  0  2  0  0  0
  -28.6934  -13.0857   20.9762 C   0  0  0  0  0  0
  -25.2542  -13.8237   20.5709 C   0  0  0  0  0  0
  -24.1818  -13.0481   20.9188 C   0  0  0  0  0  0
  -24.6394  -11.6945   20.8725 C   0  0  0  0  0  0
  -23.9051  -10.4308   21.0375 C   0  0  0  0  0  0
  -24.3597   -9.4236   21.9171 C   0  0  0  0  0  0
  -23.6279   -8.2277   22.0770 C   0  0  0  0  0  0
  -22.4269   -8.0293   21.3557 C   0  0  0  0  0  0
  -21.9891   -9.0250   20.4657 C   0  0  0  0  0  0
  -22.7206  -10.2135   20.3039 C   0  0  0  0  0  0
  -21.6860   -6.0750   22.5293 C   0  0  0  0  0  0
  -21.4013   -6.5645   23.8234 C   0  0  0  0  0  0
  -21.3648   -5.6795   24.9194 C   0  0  0  0  0  0
  -21.6048   -4.3062   24.7238 C   0  0  0  0  0  0
  -21.8807   -3.8153   23.4356 C   0  0  0  0  0  0
  -21.9193   -4.6976   22.3416 C   0  0  0  0  0  0
  -22.7822  -13.5250   21.1822 C   0  0  0  0  0  0
  -22.1653   -4.2169   21.0994 F   0  0  0  0  0  0
  -21.5618   -3.4534   25.7745 F   0  0  0  0  0  0
  -30.0150  -13.3717   20.4065 N   0  0  0  0  0  0
  -26.2949  -12.9420   20.3247 N   0  0  0  0  0  0
  -25.9310  -11.6563   20.5686 N   0  0  0  0  0  0
  -22.0447  -12.8268   22.0380 N   0  0  0  0  0  0
  -25.4230  -15.1974   20.4137 N   0  0  0  0  0  0
  -31.8989  -14.5751   20.1314 O   0  0  0  0  0  0
  -21.6643   -6.8885   21.4251 O   0  0  0  0  0  0
  -22.3500  -14.5537   20.6651 O   0  0  0  0  0  0
  -24.6226  -31.8622   23.2026 C   0  0  0  0  0  0
  -25.9130  -32.4770   23.8321 C   0  0  1  0  0  0
  -27.2330  -27.3851   20.0860 C   0  0  0  0  0  0
  -25.5972  -33.8559   24.2255 N   0  0  0  0  0  0
  -23.4098  -30.4887   21.5434 C   0  0  2  0  0  0
  -24.8534  -28.9420   20.1151 C   0  0  0  0  0  0
  -22.7409  -29.4729   22.4972 C   0  0  0  0  0  0
  -18.0272  -28.1397   22.8478 C   0  0  0  0  0  0
  -24.1495  -36.7266   23.2628 C   0  0  0  0  0  0
  -25.9451  -30.8138   21.3615 C   0  0  0  0  0  0
  -26.0189  -29.4458   20.7047 C   0  0  0  0  0  0
  -27.2091  -28.6744   20.6836 C   0  0  0  0  0  0
  -26.0371  -26.9078   19.4992 C   0  0  0  0  0  0
  -24.8605  -27.6775   19.5100 C   0  0  0  0  0  0
  -23.6174  -29.8112   20.1624 C   0  0  0  0  0  0
  -25.4130  -36.3044   24.0296 C   0  0  1  0  0  0
  -20.5867  -28.3751   23.1266 C   0  0  2  0  0  0
  -20.6808  -26.9500   22.5349 C   0  0  0  0  0  0
  -19.5746  -26.6390   21.5213 C   0  0  0  0  0  0
  -18.1959  -26.7907   22.1672 C   0  0  0  0  0  0
  -19.1513  -28.8890   23.2869 C   0  0  0  0  0  0
  -18.9395  -30.1499   23.8870 C   0  0  0  0  0  0
  -17.6374  -30.6602   24.0548 C   0  0  0  0  0  0
  -25.9083  -34.9434   23.5071 C   0  0  0  0  0  0
  -16.5299  -29.9073   23.6326 C   0  0  0  0  0  0
  -16.7258  -28.6501   23.0320 C   0  0  0  0  0  0
  -26.4529  -31.6568   25.0678 C   0  0  0  0  0  0
  -25.3753  -31.3731   26.1385 C   0  0  0  0  0  0
  -27.0391  -30.2988   24.6149 C   0  0  0  0  0  0
  -27.6059  -32.4318   25.7481 C   0  0  0  0  0  0
  -27.5573  -37.1782   24.8464 C   0  0  0  0  0  0
  -21.4146  -29.3101   22.3636 N   0  0  0  0  0  0
  -26.4295  -37.3748   23.9395 N   0  0  0  0  0  0
  -24.6766  -31.0715   22.0924 N   0  0  0  0  0  0
  -23.4112  -28.8335   23.3105 O   0  0  0  0  0  0
  -28.4096  -26.6458   20.1066 O   0  0  0  0  0  0
  -26.5624  -34.8904   22.4621 O   0  0  0  0  0  0
  -23.5427  -32.1407   23.7434 O   0  0  0  0  0  0
  -29.7770  -19.4722   20.7859 C   0  0  0  0  0  0
  -27.6400  -19.5891   21.6794 C   0  0  0  0  0  0
  -28.7093  -20.3245   21.2303 C   0  0  0  0  0  0
  -29.5481  -18.1193   20.9669 C   0  0  0  0  0  0
  -30.4793  -16.9565   20.7669 C   0  0  0  0  0  0
  -28.4831  -24.1752   20.6488 C   0  0  0  0  0  0
  -28.6237  -22.6859   20.1928 C   0  0  0  0  0  0
  -28.4781  -25.2917   19.5654 C   0  0  0  0  0  0
  -28.8235  -21.7406   21.3126 N   0  0  0  0  0  0
  -30.0142  -15.6720   20.7790 N   0  0  0  0  0  0
  -31.6660  -17.2544   20.5766 O   0  0  0  0  0  0
  -28.3825  -24.4499   21.8515 O   0  0  0  0  0  0
  -27.9512  -17.8617   21.6274 S   0  0  0  0  0  0
  -31.4533  -12.3941   19.1446 H   0  0  0  0  0  0
  -30.2898  -11.3341   19.8875 H   0  0  0  0  0  0
  -29.7306  -11.7280   17.4593 H   0  0  0  0  0  0
  -29.6612  -13.4492   17.7302 H   0  0  0  0  0  0
  -27.8052  -11.3071   18.8076 H   0  0  0  0  0  0
  -27.3687  -12.6322   17.7672 H   0  0  0  0  0  0
  -27.6630  -14.2563   19.4998 H   0  0  0  0  0  0
  -28.6772  -12.0750   21.3896 H   0  0  0  0  0  0
  -28.4590  -13.7552   21.8035 H   0  0  0  0  0  0
  -25.2726   -9.5752   22.4753 H   0  0  0  0  0  0
  -23.9998   -7.4696   22.7515 H   0  0  0  0  0  0
  -21.0815   -8.8735   19.8984 H   0  0  0  0  0  0
  -22.3616  -10.9666   19.6153 H   0  0  0  0  0  0
  -21.1995   -7.6152   23.9745 H   0  0  0  0  0  0
  -21.1477   -6.0526   25.9106 H   0  0  0  0  0  0
  -22.0590   -2.7614   23.2852 H   0  0  0  0  0  0
  -22.3973  -11.9879   22.4753 H   0  0  0  0  0  0
  -21.1104  -13.1381   22.2605 H   0  0  0  0  0  0
  -24.6513  -15.8467   20.5243 H   0  0  0  0  0  0
  -26.2627  -15.6426   20.0678 H   0  0  0  0  0  0
  -26.7214  -32.5444   23.1081 H   0  0  0  0  0  0
  -25.0154  -33.9700   25.0421 H   0  0  0  0  0  0
  -22.7037  -31.3066   21.3937 H   0  0  0  0  0  0
  -23.3754  -35.9612   23.3322 H   0  0  0  0  0  0
  -24.3566  -36.8871   22.2042 H   0  0  0  0  0  0
  -23.7284  -37.6477   23.6661 H   0  0  0  0  0  0
  -26.0740  -31.5823   20.5988 H   0  0  0  0  0  0
  -26.8249  -30.8548   21.9922 H   0  0  0  0  0  0
  -28.1115  -29.0606   21.1360 H   0  0  0  0  0  0
  -25.9693  -25.9388   19.0326 H   0  0  0  0  0  0
  -23.9628  -27.2814   19.0569 H   0  0  0  0  0  0
  -23.7222  -30.5724   19.3877 H   0  0  0  0  0  0
  -22.7420  -29.2234   19.8786 H   0  0  0  0  0  0
  -25.1330  -36.1875   25.0790 H   0  0  0  0  0  0
  -20.9961  -28.3368   24.1373 H   0  0  0  0  0  0
  -20.5871  -26.2345   23.3523 H   0  0  0  0  0  0
  -21.6690  -26.7688   22.1058 H   0  0  0  0  0  0
  -19.6926  -25.6304   21.1222 H   0  0  0  0  0  0
  -19.6564  -27.3223   20.6769 H   0  0  0  0  0  0
  -17.4208  -26.6549   21.4111 H   0  0  0  0  0  0
  -18.0413  -26.0119   22.9136 H   0  0  0  0  0  0
  -19.7812  -30.7403   24.2204 H   0  0  0  0  0  0
  -17.4917  -31.6279   24.5124 H   0  0  0  0  0  0
  -15.5295  -30.2944   23.7673 H   0  0  0  0  0  0
  -15.8677  -28.0823   22.6973 H   0  0  0  0  0  0
  -24.5905  -30.7127   25.7674 H   0  0  0  0  0  0
  -24.8995  -32.2941   26.4770 H   0  0  0  0  0  0
  -25.8036  -30.8887   27.0168 H   0  0  0  0  0  0
  -26.2974  -29.6688   24.1221 H   0  0  0  0  0  0
  -27.4150  -29.7292   25.4662 H   0  0  0  0  0  0
  -27.8808  -30.4255   23.9330 H   0  0  0  0  0  0
  -27.2614  -33.3593   26.2071 H   0  0  0  0  0  0
  -28.3878  -32.6918   25.0331 H   0  0  0  0  0  0
  -28.0729  -31.8443   26.5404 H   0  0  0  0  0  0
  -28.2590  -38.0067   24.7481 H   0  0  0  0  0  0
  -28.1058  -36.2595   24.6347 H   0  0  0  0  0  0
  -27.2258  -37.1489   25.8850 H   0  0  0  0  0  0
  -20.9394  -29.8578   21.6595 H   0  0  0  0  0  0
  -26.0161  -38.2808   24.1416 H   0  0  0  0  0  0
  -30.7101  -19.8734   20.4145 H   0  0  0  0  0  0
  -26.6957  -19.9387   22.0793 H   0  0  0  0  0  0
  -27.7203  -22.4069   19.6484 H   0  0  0  0  0  0
  -29.4549  -22.6231   19.4880 H   0  0  0  0  0  0
  -27.7141  -25.0697   18.8276 H   0  0  0  0  0  0
  -29.4203  -25.2120   19.0237 H   0  0  0  0  0  0
  -28.4083  -22.1453   22.1476 H   0  0  0  0  0  0
  -29.0365  -15.5505   20.9674 H   0  0  0  0  0  0
  1 25  1  0  0  0
  1 30  2  0  0  0
  1 80  1  0  0  0
  2  3  1  0  0  0
  2 25  1  0  0  0
  2 84  1  0  0  0
  2 85  1  0  0  0
  3  4  1  0  0  0
  3 86  1  0  0  0
  3 87  1  0  0  0
  4  5  1  0  0  0
  4 88  1  0  0  0
  4 89  1  0  0  0
  5  6  1  0  0  0
  5 26  1  0  0  0
  5 90  1  0  0  0
  6 25  1  0  0  0
  6 91  1  0  0  0
  6 92  1  0  0  0
  7  8  2  0  0  0
  7 26  1  0  0  0
  7 29  1  0  0  0
  8  9  1  0  0  0
  8 22  1  0  0  0
  9 10  1  0  0  0
  9 27  2  0  0  0
 10 11  2  0  0  0
 10 15  1  0  0  0
 11 12  1  0  0  0
 11 93  1  0  0  0
 12 13  2  0  0  0
 12 94  1  0  0  0
 13 14  1  0  0  0
 13 31  1  0  0  0
 14 15  2  0  0  0
 14 95  1  0  0  0
 15 96  1  0  0  0
 16 17  2  0  0  0
 16 21  1  0  0  0
 16 31  1  0  0  0
 17 18  1  0  0  0
 17 97  1  0  0  0
 18 19  2  0  0  0
 18 98  1  0  0  0
 19 20  1  0  0  0
 19 24  1  0  0  0
 20 21  2  0  0  0
 20 99  1  0  0  0
 21 23  1  0  0  0
 22 28  1  0  0  0
 22 32  2  0  0  0
 26 27  1  0  0  0
 28100  1  0  0  0
 28101  1  0  0  0
 29102  1  0  0  0
 29103  1  0  0  0
 33 34  1  0  0  0
 33 66  1  0  0  0
 33 70  2  0  0  0
 34 36  1  0  0  0
 34 59  1  0  0  0
 34104  1  0  0  0
 35 44  2  0  0  0
 35 45  1  0  0  0
 35 68  1  0  0  0
 36 56  1  0  0  0
 36105  1  0  0  0
 37 39  1  0  0  0
 37 47  1  0  0  0
 37 66  1  0  0  0
 37106  1  0  0  0
 38 43  2  0  0  0
 38 46  1  0  0  0
 38 47  1  0  0  0
 39 64  1  0  0  0
 39 67  2  0  0  0
 40 52  1  0  0  0
 40 53  2  0  0  0
 40 58  1  0  0  0
 41107  1  0  0  0
 41108  1  0  0  0
 41109  1  0  0  0
 41 48  1  0  0  0
 42 43  1  0  0  0
 42 66  1  0  0  0
 42110  1  0  0  0
 42111  1  0  0  0
 43 44  1  0  0  0
 44112  1  0  0  0
 45 46  2  0  0  0
 45113  1  0  0  0
 46114  1  0  0  0
 47115  1  0  0  0
 47116  1  0  0  0
 48 56  1  0  0  0
 48 65  1  0  0  0
 48117  1  0  0  0
 49 50  1  0  0  0
 49 53  1  0  0  0
 49 64  1  0  0  0
 49118  1  0  0  0
 50 51  1  0  0  0
 50119  1  0  0  0
 50120  1  0  0  0
 51 52  1  0  0  0
 51121  1  0  0  0
 51122  1  0  0  0
 52123  1  0  0  0
 52124  1  0  0  0
 53 54  1  0  0  0
 54 55  2  0  0  0
 54125  1  0  0  0
 55 57  1  0  0  0
 55126  1  0  0  0
 56 69  2  0  0  0
 57 58  2  0  0  0
 57127  1  0  0  0
 58128  1  0  0  0
 59 60  1  0  0  0
 59 61  1  0  0  0
 59 62  1  0  0  0
 60129  1  0  0  0
 60130  1  0  0  0
 60131  1  0  0  0
 61132  1  0  0  0
 61133  1  0  0  0
 61134  1  0  0  0
 62135  1  0  0  0
 62136  1  0  0  0
 62137  1  0  0  0
 63 65  1  0  0  0
 63138  1  0  0  0
 63139  1  0  0  0
 63140  1  0  0  0
 64141  1  0  0  0
 65142  1  0  0  0
 68 78  1  0  0  0
 71 73  1  0  0  0
 71 74  2  0  0  0
 71143  1  0  0  0
 72 73  2  0  0  0
 72 83  1  0  0  0
 72144  1  0  0  0
 73 79  1  0  0  0
 74 75  1  0  0  0
 74 83  1  0  0  0
 75 80  1  0  0  0
 75 81  2  0  0  0
 76 77  1  0  0  0
 76 78  1  0  0  0
 76 82  2  0  0  0
 77 79  1  0  0  0
 77145  1  0  0  0
 77146  1  0  0  0
 78147  1  0  0  0
 78148  1  0  0  0
 79149  1  0  0  0
 80150  1  0  0  0
M  ISO  4   1 100  68 101  78 101  80 100
M  END
> <chiral flag>
0

> <version>
0

> <s_m_source_file>
/data/baiqing/PycharmProjects/Reinvent-master-3.2/result/LINK_invent/BTK/process_docking_weight1_custom_product_contain_oxygen_bond_distance_aromatic_linkinvent_7_9_3/rearranged_h_0146.sdf

> <i_m_source_file_index>
81

> <r_mmod_Potential_Energy-OPLS-2005>
-109.255249023438

> <r_mmod_Stretch_Energy-OPLS-2005>
49.2789840698242

> <r_mmod_Bend_Energy-OPLS-2005>
122.848785400391

> <r_mmod_Torsional_Energy-OPLS-2005>
235.519927978516

> <r_mmod_Improper_Torsional_Energy-OPLS-2005>
9.02894020080566

> <r_mmod_Van_der_Waal_Energy-OPLS-2005>
133.514373779297

> <r_mmod_Electrostatic_Energy-OPLS-2005>
-427.396057128906

> <r_mmod_Solvation_Energy-OPLS-2005>
-259.884368896484

> <b_mmod_Minimization_Converged-OPLS-2005>
0

> <r_mmod_RMS_Derivative-OPLS-2005>
4.43153047561646

$$$$
81
                    3D
 Structure written by MMmdl.
166175  0  0  1  0            999 V2000
  -30.6999  -14.5606   20.4863 C   0  0  0  0  0  0
  -30.4100  -12.3385   19.4552 C   0  0  0  0  0  0
  -29.4944  -12.4844   18.2228 C   0  0  0  0  0  0
  -28.0169  -12.3453   18.6336 C   0  0  0  0  0  0
  -27.6495  -13.2222   19.8609 C   0  0  2  0  0  0
  -28.6933  -13.0945   20.9929 C   0  0  0  0  0  0
  -25.2536  -13.8200   20.5695 C   0  0  0  0  0  0
  -24.1808  -13.0451   20.9193 C   0  0  0  0  0  0
  -24.6386  -11.6922   20.8751 C   0  0  0  0  0  0
  -23.9066  -10.4292   21.0407 C   0  0  0  0  0  0
  -24.3617   -9.4205   21.9184 C   0  0  0  0  0  0
  -23.6291   -8.2244   22.0753 C   0  0  0  0  0  0
  -22.4274   -8.0278   21.3545 C   0  0  0  0  0  0
  -21.9915   -9.0247   20.4644 C   0  0  0  0  0  0
  -22.7241  -10.2130   20.3049 C   0  0  0  0  0  0
  -21.6858   -6.0731   22.5273 C   0  0  0  0  0  0
  -21.4015   -6.5634   23.8208 C   0  0  0  0  0  0
  -21.3660   -5.6786   24.9169 C   0  0  0  0  0  0
  -21.6047   -4.3048   24.7221 C   0  0  0  0  0  0
  -21.8819   -3.8142   23.4343 C   0  0  0  0  0  0
  -21.9195   -4.6961   22.3398 C   0  0  0  0  0  0
  -22.7831  -13.5233   21.1866 C   0  0  0  0  0  0
  -22.1663   -4.2141   21.0979 F   0  0  0  0  0  0
  -21.5630   -3.4532   25.7739 F   0  0  0  0  0  0
  -30.0149  -13.3811   20.4202 N   0  0  0  0  0  0
  -26.2965  -12.9394   20.3331 N   0  0  0  0  0  0
  -25.9322  -11.6542   20.5787 N   0  0  0  0  0  0
  -22.0499  -12.8188   22.0418 N   0  0  0  0  0  0
  -25.4256  -15.1920   20.4098 N   0  0  0  0  0  0
  -31.8840  -14.6117   20.1527 O   0  0  0  0  0  0
  -21.6645   -6.8870   21.4236 O   0  0  0  0  0  0
  -22.3498  -14.5541   20.6728 O   0  0  0  0  0  0
  -24.6186  -31.8646   23.2027 C   0  0  0  0  0  0
  -25.9060  -32.4811   23.8361 C   0  0  1  0  0  0
  -27.2283  -27.3704   20.1080 C   0  0  0  0  0  0
  -25.5896  -33.8608   24.2290 N   0  0  0  0  0  0
  -23.4084  -30.4868   21.5462 C   0  0  2  0  0  0
  -24.8532  -28.9437   20.1129 C   0  0  0  0  0  0
  -22.7435  -29.4641   22.4965 C   0  0  0  0  0  0
  -18.0283  -28.1387   22.8495 C   0  0  0  0  0  0
  -24.1491  -36.7287   23.2645 C   0  0  0  0  0  0
  -25.9435  -30.8094   21.3658 C   0  0  0  0  0  0
  -26.0166  -29.4403   20.7111 C   0  0  0  0  0  0
  -27.2020  -28.6622   20.7009 C   0  0  0  0  0  0
  -26.0373  -26.8997   19.5080 C   0  0  0  0  0  0
  -24.8627  -27.6761   19.5088 C   0  0  0  0  0  0
  -23.6174  -29.8152   20.1619 C   0  0  0  0  0  0
  -25.4115  -36.3096   24.0341 C   0  0  1  0  0  0
  -20.5874  -28.3667   23.1313 C   0  0  2  0  0  0
  -20.6767  -26.9401   22.5415 C   0  0  0  0  0  0
  -19.5736  -26.6374   21.5233 C   0  0  0  0  0  0
  -18.1912  -26.7928   22.1633 C   0  0  0  0  0  0
  -19.1536  -28.8845   23.2891 C   0  0  0  0  0  0
  -18.9470  -30.1453   23.8899 C   0  0  0  0  0  0
  -17.6476  -30.6593   24.0570 C   0  0  0  0  0  0
  -25.9052  -34.9471   23.5122 C   0  0  0  0  0  0
  -16.5359  -29.9094   23.6346 C   0  0  0  0  0  0
  -16.7271  -28.6514   23.0363 C   0  0  0  0  0  0
  -26.4463  -31.6594   25.0707 C   0  0  0  0  0  0
  -25.3705  -31.3706   26.1439 C   0  0  0  0  0  0
  -27.0318  -30.3042   24.6086 C   0  0  0  0  0  0
  -27.6027  -32.4326   25.7468 C   0  0  0  0  0  0
  -27.5583  -37.1789   24.8473 C   0  0  0  0  0  0
  -21.4155  -29.3030   22.3712 N   0  0  0  0  0  0
  -26.4297  -37.3781   23.9421 N   0  0  0  0  0  0
  -24.6759  -31.0694   22.0954 N   0  0  0  0  0  0
  -23.4192  -28.8188   23.3024 O   0  0  0  0  0  0
  -28.4084  -26.6319   20.1521 O   0  0  0  0  0  0
  -26.5616  -34.8928   22.4685 O   0  0  0  0  0  0
  -23.5367  -32.1434   23.7391 O   0  0  0  0  0  0
  -31.7862  -18.8238   19.5481 C   0  0  0  0  0  0
  -30.9479  -19.8474   20.0183 C   0  0  0  0  0  0
  -31.4718  -17.4730   19.7764 C   0  0  0  0  0  0
  -29.4528  -18.1508   20.9385 C   0  0  0  0  0  0
  -29.7555  -19.5370   20.7054 C   0  0  0  0  0  0
  -30.3097  -17.0897   20.4961 C   0  0  0  0  0  0
  -29.6633  -22.9500   20.3708 C   0  0  0  0  0  0
  -28.6648  -24.0842   20.7228 C   0  0  1  0  0  0
  -27.6010  -22.9264   20.7831 C   0  0  0  0  0  0
  -28.9964  -24.7797   22.0554 C   0  0  0  0  0  0
  -26.9333  -22.6574   22.1510 C   0  0  0  0  0  0
  -26.4800  -22.9087   19.7343 C   0  0  0  0  0  0
  -28.8636  -20.6863   21.2630 C   0  0  0  0  0  0
  -28.5247  -25.2594   19.6641 C   0  0  0  0  0  0
  -29.9780  -15.6901   20.7555 N   0  0  0  0  0  0
  -28.6297  -21.9100   20.3989 N   0  3  2  0  0  0
  -31.4566  -12.4094   19.1547 H   0  0  0  0  0  0
  -30.2983  -11.3502   19.9037 H   0  0  0  0  0  0
  -29.7461  -11.7307   17.4753 H   0  0  0  0  0  0
  -29.6543  -13.4540   17.7492 H   0  0  0  0  0  0
  -27.8365  -11.2941   18.8621 H   0  0  0  0  0  0
  -27.3669  -12.5861   17.7914 H   0  0  0  0  0  0
  -27.6667  -14.2554   19.5141 H   0  0  0  0  0  0
  -28.6816  -12.0903   21.4189 H   0  0  0  0  0  0
  -28.4583  -13.7735   21.8137 H   0  0  0  0  0  0
  -25.2766   -9.5687   22.4747 H   0  0  0  0  0  0
  -24.0004   -7.4639   22.7466 H   0  0  0  0  0  0
  -21.0854   -8.8761   19.8938 H   0  0  0  0  0  0
  -22.3704  -10.9664   19.6147 H   0  0  0  0  0  0
  -21.2003   -7.6138   23.9710 H   0  0  0  0  0  0
  -21.1483   -6.0514   25.9071 H   0  0  0  0  0  0
  -22.0600   -2.7601   23.2848 H   0  0  0  0  0  0
  -22.4133  -11.9828   22.4752 H   0  0  0  0  0  0
  -21.1123  -13.1193   22.2679 H   0  0  0  0  0  0
  -24.6589  -15.8477   20.5118 H   0  0  0  0  0  0
  -26.2717  -15.6274   20.0668 H   0  0  0  0  0  0
  -26.7120  -32.5496   23.1110 H   0  0  0  0  0  0
  -25.0055  -33.9779   25.0441 H   0  0  0  0  0  0
  -22.6990  -31.3038   21.4026 H   0  0  0  0  0  0
  -23.3775  -35.9599   23.3319 H   0  0  0  0  0  0
  -24.3576  -36.8897   22.2057 H   0  0  0  0  0  0
  -23.7221  -37.6483   23.6655 H   0  0  0  0  0  0
  -26.0677  -31.5751   20.5994 H   0  0  0  0  0  0
  -26.8266  -30.8577   21.9910 H   0  0  0  0  0  0
  -28.1001  -29.0421   21.1670 H   0  0  0  0  0  0
  -25.9723  -25.9305   19.0424 H   0  0  0  0  0  0
  -23.9656  -27.2849   19.0483 H   0  0  0  0  0  0
  -23.7227  -30.5879   19.3997 H   0  0  0  0  0  0
  -22.7415  -29.2334   19.8683 H   0  0  0  0  0  0
  -25.1291  -36.1955   25.0831 H   0  0  0  0  0  0
  -20.9960  -28.3236   24.1440 H   0  0  0  0  0  0
  -20.5709  -26.2268   23.3602 H   0  0  0  0  0  0
  -21.6626  -26.7454   22.1180 H   0  0  0  0  0  0
  -19.6899  -25.6288   21.1265 H   0  0  0  0  0  0
  -19.6692  -27.3187   20.6772 H   0  0  0  0  0  0
  -17.4189  -26.6722   21.4027 H   0  0  0  0  0  0
  -18.0283  -26.0059   22.9015 H   0  0  0  0  0  0
  -19.7954  -30.7267   24.2250 H   0  0  0  0  0  0
  -17.5040  -31.6281   24.5151 H   0  0  0  0  0  0
  -15.5362  -30.3004   23.7666 H   0  0  0  0  0  0
  -15.8669  -28.0837   22.7075 H   0  0  0  0  0  0
  -24.5892  -30.7046   25.7761 H   0  0  0  0  0  0
  -24.8882  -32.2872   26.4859 H   0  0  0  0  0  0
  -25.8043  -30.8894   27.0213 H   0  0  0  0  0  0
  -26.2875  -29.6792   24.1145 H   0  0  0  0  0  0
  -27.4126  -29.7285   25.4526 H   0  0  0  0  0  0
  -27.8679  -30.4403   23.9224 H   0  0  0  0  0  0
  -27.2639  -33.3639   26.2026 H   0  0  0  0  0  0
  -28.3836  -32.6874   25.0290 H   0  0  0  0  0  0
  -28.0679  -31.8461   26.5401 H   0  0  0  0  0  0
  -28.2589  -38.0095   24.7531 H   0  0  0  0  0  0
  -28.1096  -36.2630   24.6296 H   0  0  0  0  0  0
  -27.2297  -37.1410   25.8872 H   0  0  0  0  0  0
  -20.9311  -29.8758   21.6941 H   0  0  0  0  0  0
  -26.0200  -38.2868   24.1420 H   0  0  0  0  0  0
  -32.6911  -19.0766   19.0126 H   0  0  0  0  0  0
  -31.2497  -20.8690   19.8460 H   0  0  0  0  0  0
  -32.1683  -16.7579   19.3736 H   0  0  0  0  0  0
  -28.5570  -17.8991   21.4903 H   0  0  0  0  0  0
  -30.4396  -22.8021   21.1233 H   0  0  0  0  0  0
  -30.1056  -23.0406   19.3779 H   0  0  0  0  0  0
  -29.3109  -24.0753   22.8255 H   0  0  0  0  0  0
  -28.1380  -25.3256   22.4496 H   0  0  0  0  0  0
  -29.8162  -25.4913   21.9480 H   0  0  0  0  0  0
  -26.2874  -23.4885   22.4381 H   0  0  0  0  0  0
  -27.6489  -22.5296   22.9633 H   0  0  0  0  0  0
  -26.3011  -21.7691   22.1382 H   0  0  0  0  0  0
  -25.7469  -23.6930   19.9226 H   0  0  0  0  0  0
  -25.9364  -21.9630   19.7394 H   0  0  0  0  0  0
  -26.8477  -23.0460   18.7176 H   0  0  0  0  0  0
  -29.2672  -20.9918   22.2286 H   0  0  0  0  0  0
  -27.8926  -20.2340   21.4625 H   0  0  0  0  0  0
  -27.8079  -25.0309   18.8835 H   0  0  0  0  0  0
  -29.4582  -25.2948   19.1026 H   0  0  0  0  0  0
  -29.0430  -15.5156   21.0888 H   0  0  0  0  0  0
  -28.4511  -21.5983   19.4552 H   0  0  0  0  0  0
  1 25  1  0  0  0
  1 30  2  0  0  0
  1 85  1  0  0  0
  2  3  1  0  0  0
  2 25  1  0  0  0
  2 87  1  0  0  0
  2 88  1  0  0  0
  3  4  1  0  0  0
  3 89  1  0  0  0
  3 90  1  0  0  0
  4  5  1  0  0  0
  4 91  1  0  0  0
  4 92  1  0  0  0
  5  6  1  0  0  0
  5 26  1  0  0  0
  5 93  1  0  0  0
  6 25  1  0  0  0
  6 94  1  0  0  0
  6 95  1  0  0  0
  7  8  2  0  0  0
  7 26  1  0  0  0
  7 29  1  0  0  0
  8  9  1  0  0  0
  8 22  1  0  0  0
  9 10  1  0  0  0
  9 27  2  0  0  0
 10 11  2  0  0  0
 10 15  1  0  0  0
 11 12  1  0  0  0
 11 96  1  0  0  0
 12 13  2  0  0  0
 12 97  1  0  0  0
 13 14  1  0  0  0
 13 31  1  0  0  0
 14 15  2  0  0  0
 14 98  1  0  0  0
 15 99  1  0  0  0
 16 17  2  0  0  0
 16 21  1  0  0  0
 16 31  1  0  0  0
 17 18  1  0  0  0
 17100  1  0  0  0
 18 19  2  0  0  0
 18101  1  0  0  0
 19 20  1  0  0  0
 19 24  1  0  0  0
 20 21  2  0  0  0
 20102  1  0  0  0
 21 23  1  0  0  0
 22 28  1  0  0  0
 22 32  2  0  0  0
 26 27  1  0  0  0
 28103  1  0  0  0
 28104  1  0  0  0
 29105  1  0  0  0
 29106  1  0  0  0
 33 34  1  0  0  0
 33 66  1  0  0  0
 33 70  2  0  0  0
 34 36  1  0  0  0
 34 59  1  0  0  0
 34107  1  0  0  0
 35 44  2  0  0  0
 35 45  1  0  0  0
 35 68  1  0  0  0
 36 56  1  0  0  0
 36108  1  0  0  0
 37 39  1  0  0  0
 37 47  1  0  0  0
 37 66  1  0  0  0
 37109  1  0  0  0
 38 43  2  0  0  0
 38 46  1  0  0  0
 38 47  1  0  0  0
 39 64  1  0  0  0
 39 67  2  0  0  0
 40 52  1  0  0  0
 40 53  2  0  0  0
 40 58  1  0  0  0
 41110  1  0  0  0
 41111  1  0  0  0
 41112  1  0  0  0
 41 48  1  0  0  0
 42 43  1  0  0  0
 42 66  1  0  0  0
 42113  1  0  0  0
 42114  1  0  0  0
 43 44  1  0  0  0
 44115  1  0  0  0
 45 46  2  0  0  0
 45116  1  0  0  0
 46117  1  0  0  0
 47118  1  0  0  0
 47119  1  0  0  0
 48 56  1  0  0  0
 48 65  1  0  0  0
 48120  1  0  0  0
 49 50  1  0  0  0
 49 53  1  0  0  0
 49 64  1  0  0  0
 49121  1  0  0  0
 50 51  1  0  0  0
 50122  1  0  0  0
 50123  1  0  0  0
 51 52  1  0  0  0
 51124  1  0  0  0
 51125  1  0  0  0
 52126  1  0  0  0
 52127  1  0  0  0
 53 54  1  0  0  0
 54 55  2  0  0  0
 54128  1  0  0  0
 55 57  1  0  0  0
 55129  1  0  0  0
 56 69  2  0  0  0
 57 58  2  0  0  0
 57130  1  0  0  0
 58131  1  0  0  0
 59 60  1  0  0  0
 59 61  1  0  0  0
 59 62  1  0  0  0
 60132  1  0  0  0
 60133  1  0  0  0
 60134  1  0  0  0
 61135  1  0  0  0
 61136  1  0  0  0
 61137  1  0  0  0
 62138  1  0  0  0
 62139  1  0  0  0
 62140  1  0  0  0
 63 65  1  0  0  0
 63141  1  0  0  0
 63142  1  0  0  0
 63143  1  0  0  0
 64144  1  0  0  0
 65145  1  0  0  0
 68 84  1  0  0  0
 71 72  2  0  0  0
 71 73  1  0  0  0
 71146  1  0  0  0
 72 75  1  0  0  0
 72147  1  0  0  0
 73 76  2  0  0  0
 73148  1  0  0  0
 74 75  2  0  0  0
 74 76  1  0  0  0
 74149  1  0  0  0
 75 83  1  0  0  0
 76 85  1  0  0  0
 77 78  1  0  0  0
 77 86  1  0  0  0
 77150  1  0  0  0
 77151  1  0  0  0
 78 79  1  0  0  0
 78 80  1  0  0  0
 78 84  1  0  0  0
 79 81  1  0  0  0
 79 82  1  0  0  0
 79 86  1  0  0  0
 80152  1  0  0  0
 80153  1  0  0  0
 80154  1  0  0  0
 81155  1  0  0  0
 81156  1  0  0  0
 81157  1  0  0  0
 82158  1  0  0  0
 82159  1  0  0  0
 82160  1  0  0  0
 83161  1  0  0  0
 83162  1  0  0  0
 83 86  1  0  0  0
 84163  1  0  0  0
 84164  1  0  0  0
 85165  1  0  0  0
 86166  1  0  0  0
M  CHG  1  86   1
M  ISO  4   1 100  68 101  84 101  85 100
M  END
> <chiral flag>
0

> <version>
0

> <s_m_source_file>
/data/baiqing/PycharmProjects/Reinvent-master-3.2/result/LINK_invent/BTK/process_docking_weight1_custom_product_contain_oxygen_bond_distance_aromatic_linkinvent_7_9_3/rearranged_h_0146.sdf

> <i_m_source_file_index>
82

> <r_mmod_Potential_Energy-OPLS-2005>
32.2642784118652

> <r_mmod_Stretch_Energy-OPLS-2005>
68.716194152832

> <r_mmod_Bend_Energy-OPLS-2005>
158.079132080078

> <r_mmod_Torsional_Energy-OPLS-2005>
279.089965820312

> <r_mmod_Improper_Torsional_Energy-OPLS-2005>
4.23702669143677

> <r_mmod_Van_der_Waal_Energy-OPLS-2005>
160.408432006836

> <r_mmod_Electrostatic_Energy-OPLS-2005>
-225.555511474609

> <r_mmod_Solvation_Energy-OPLS-2005>
-443.687072753906

> <b_mmod_Minimization_Converged-OPLS-2005>
0

> <r_mmod_RMS_Derivative-OPLS-2005>
1.84962892532349

$$$$
82
                    3D
 Structure written by MMmdl.
168177  0  0  1  0            999 V2000
  -30.6894  -14.4358   20.5153 C   0  0  0  0  0  0
  -30.4198  -12.2639   19.4261 C   0  0  0  0  0  0
  -29.5013  -12.4948   18.2082 C   0  0  0  0  0  0
  -28.0155  -12.3724   18.6050 C   0  0  0  0  0  0
  -27.6619  -13.2011   19.8686 C   0  0  2  0  0  0
  -28.6988  -12.9687   20.9946 C   0  0  0  0  0  0
  -25.2576  -13.8151   20.5628 C   0  0  0  0  0  0
  -24.1809  -13.0419   20.9105 C   0  0  0  0  0  0
  -24.6329  -11.6883   20.8642 C   0  0  0  0  0  0
  -23.8989  -10.4279   21.0341 C   0  0  0  0  0  0
  -24.3535   -9.4222   21.9121 C   0  0  0  0  0  0
  -23.6245   -8.2224   22.0722 C   0  0  0  0  0  0
  -22.4235   -8.0232   21.3512 C   0  0  0  0  0  0
  -21.9846   -9.0204   20.4619 C   0  0  0  0  0  0
  -22.7141  -10.2104   20.3008 C   0  0  0  0  0  0
  -21.6847   -6.0687   22.5255 C   0  0  0  0  0  0
  -21.4004   -6.5606   23.8175 C   0  0  0  0  0  0
  -21.3668   -5.6760   24.9139 C   0  0  0  0  0  0
  -21.6066   -4.3019   24.7203 C   0  0  0  0  0  0
  -21.8825   -3.8103   23.4309 C   0  0  0  0  0  0
  -21.9185   -4.6922   22.3364 C   0  0  0  0  0  0
  -22.7823  -13.5241   21.1791 C   0  0  0  0  0  0
  -22.1673   -4.2097   21.0951 F   0  0  0  0  0  0
  -21.5642   -3.4529   25.7733 F   0  0  0  0  0  0
  -30.0364  -13.2478   20.4473 N   0  0  0  0  0  0
  -26.2993  -12.9302   20.3252 N   0  0  0  0  0  0
  -25.9257  -11.6473   20.5643 N   0  0  0  0  0  0
  -22.0420  -12.8292   22.0337 N   0  0  0  0  0  0
  -25.4316  -15.1860   20.4099 N   0  0  0  0  0  0
  -31.8536  -14.5926   20.1334 O   0  0  0  0  0  0
  -21.6600   -6.8831   21.4219 O   0  0  0  0  0  0
  -22.3538  -14.5551   20.6626 O   0  0  0  0  0  0
  -24.6205  -31.8687   23.2108 C   0  0  0  0  0  0
  -25.9106  -32.4807   23.8408 C   0  0  1  0  0  0
  -27.2073  -27.4141   20.0864 C   0  0  0  0  0  0
  -25.5970  -33.8598   24.2331 N   0  0  0  0  0  0
  -23.4073  -30.5027   21.5497 C   0  0  2  0  0  0
  -24.8455  -28.9798   20.1053 C   0  0  0  0  0  0
  -22.7458  -29.4707   22.4934 C   0  0  0  0  0  0
  -18.0290  -28.1411   22.8486 C   0  0  0  0  0  0
  -24.1495  -36.7302   23.2651 C   0  0  0  0  0  0
  -25.9421  -30.8293   21.3705 C   0  0  0  0  0  0
  -26.0121  -29.4676   20.7056 C   0  0  0  0  0  0
  -27.2000  -28.6955   20.6926 C   0  0  0  0  0  0
  -26.0261  -26.9704   19.4477 C   0  0  0  0  0  0
  -24.8485  -27.7309   19.4714 C   0  0  0  0  0  0
  -23.6136  -29.8534   20.1574 C   0  0  0  0  0  0
  -25.4110  -36.3081   24.0340 C   0  0  1  0  0  0
  -20.5902  -28.3718   23.1296 C   0  0  2  0  0  0
  -20.6781  -26.9452   22.5419 C   0  0  0  0  0  0
  -19.5743  -26.6417   21.5234 C   0  0  0  0  0  0
  -18.1918  -26.7945   22.1634 C   0  0  0  0  0  0
  -19.1555  -28.8878   23.2870 C   0  0  0  0  0  0
  -18.9464  -30.1474   23.8886 C   0  0  0  0  0  0
  -17.6473  -30.6591   24.0588 C   0  0  0  0  0  0
  -25.9043  -34.9460   23.5121 C   0  0  0  0  0  0
  -16.5358  -29.9107   23.6346 C   0  0  0  0  0  0
  -16.7285  -28.6538   23.0341 C   0  0  0  0  0  0
  -26.4487  -31.6567   25.0748 C   0  0  0  0  0  0
  -25.3745  -31.3738   26.1512 C   0  0  0  0  0  0
  -27.0327  -30.2979   24.6183 C   0  0  0  0  0  0
  -27.6043  -32.4307   25.7518 C   0  0  0  0  0  0
  -27.5575  -37.1826   24.8464 C   0  0  0  0  0  0
  -21.4189  -29.3075   22.3688 N   0  0  0  0  0  0
  -26.4283  -37.3775   23.9408 N   0  0  0  0  0  0
  -24.6741  -31.0826   22.0996 N   0  0  0  0  0  0
  -23.4233  -28.8258   23.2985 O   0  0  0  0  0  0
  -28.3163  -26.5853   20.1487 O   0  0  0  0  0  0
  -26.5575  -34.8921   22.4664 O   0  0  0  0  0  0
  -23.5386  -32.1452   23.7510 O   0  0  0  0  0  0
  -30.3626  -18.0190   18.0645 C   0  0  0  0  0  0
  -30.1701  -19.2240   18.7699 C   0  0  0  0  0  0
  -30.2629  -16.7852   18.7278 C   0  0  0  0  0  0
  -29.6781  -17.9460   20.7891 C   0  0  0  0  0  0
  -29.8282  -19.2051   20.1444 C   0  0  0  0  0  0
  -29.9540  -16.7364   20.1090 C   0  0  0  0  0  0
  -29.7694  -24.5423   22.1343 C   0  0  0  0  0  0
  -30.0653  -23.9916   19.6038 C   0  0  0  0  0  0
  -30.5801  -22.5543   19.7223 C   0  0  0  0  0  0
  -28.4882  -22.7222   20.8672 C   0  0  0  0  0  0
  -29.0869  -24.1773   20.7809 C   0  0  1  0  0  0
  -30.2900  -25.9527   22.3919 C   0  0  0  0  0  0
  -30.9782  -20.5632   21.9039 C   0  0  0  0  0  0
  -27.9715  -25.1969   20.4097 C   0  0  0  0  0  0
  -29.7331  -20.4855   20.9979 C   0  0  1  0  0  0
  -29.9145  -15.4946   20.8115 N   0  0  0  0  0  0
  -29.4385  -21.7564   20.2398 N   0  3  2  0  0  0
  -29.8973  -23.7082   23.0367 O   0  0  0  0  0  0
  -31.4681  -12.3494   19.1321 H   0  0  0  0  0  0
  -30.3005  -11.2475   19.8064 H   0  0  0  0  0  0
  -29.7411  -11.7904   17.4115 H   0  0  0  0  0  0
  -29.6847  -13.4873   17.7943 H   0  0  0  0  0  0
  -27.8004  -11.3186   18.7821 H   0  0  0  0  0  0
  -27.3821  -12.6783   17.7702 H   0  0  0  0  0  0
  -27.7097  -14.2481   19.5675 H   0  0  0  0  0  0
  -28.6553  -11.9347   21.3424 H   0  0  0  0  0  0
  -28.4724  -13.5822   21.8653 H   0  0  0  0  0  0
  -25.2677   -9.5754   22.4675 H   0  0  0  0  0  0
  -23.9984   -7.4652   22.7463 H   0  0  0  0  0  0
  -21.0759   -8.8698   19.8953 H   0  0  0  0  0  0
  -22.3561  -10.9610   19.6107 H   0  0  0  0  0  0
  -21.1991   -7.6108   23.9689 H   0  0  0  0  0  0
  -21.1507   -6.0459   25.9057 H   0  0  0  0  0  0
  -22.0598   -2.7560   23.2789 H   0  0  0  0  0  0
  -22.4043  -12.0008   22.4847 H   0  0  0  0  0  0
  -21.0999  -13.1317   22.2435 H   0  0  0  0  0  0
  -24.6649  -15.8379   20.5363 H   0  0  0  0  0  0
  -26.2920  -15.6361   20.1193 H   0  0  0  0  0  0
  -26.7226  -32.5494   23.1203 H   0  0  0  0  0  0
  -25.0129  -33.9732   25.0489 H   0  0  0  0  0  0
  -22.6961  -31.3214   21.4234 H   0  0  0  0  0  0
  -23.3723  -35.9673   23.3325 H   0  0  0  0  0  0
  -24.3606  -36.8885   22.2064 H   0  0  0  0  0  0
  -23.7275  -37.6533   23.6642 H   0  0  0  0  0  0
  -26.0847  -31.6035   20.6147 H   0  0  0  0  0  0
  -26.8182  -30.8575   22.0053 H   0  0  0  0  0  0
  -28.0919  -29.0665   21.1780 H   0  0  0  0  0  0
  -25.9787  -26.0344   18.9150 H   0  0  0  0  0  0
  -23.9594  -27.3584   18.9830 H   0  0  0  0  0  0
  -23.7374  -30.6376   19.4086 H   0  0  0  0  0  0
  -22.7316  -29.2892   19.8510 H   0  0  0  0  0  0
  -25.1280  -36.1943   25.0829 H   0  0  0  0  0  0
  -21.0003  -28.3302   24.1421 H   0  0  0  0  0  0
  -20.5742  -26.2343   23.3622 H   0  0  0  0  0  0
  -21.6640  -26.7505   22.1206 H   0  0  0  0  0  0
  -19.6899  -25.6337   21.1248 H   0  0  0  0  0  0
  -19.6655  -27.3235   20.6767 H   0  0  0  0  0  0
  -17.4220  -26.6758   21.3989 H   0  0  0  0  0  0
  -18.0253  -26.0069   22.9014 H   0  0  0  0  0  0
  -19.7945  -30.7294   24.2235 H   0  0  0  0  0  0
  -17.5036  -31.6261   24.5218 H   0  0  0  0  0  0
  -15.5357  -30.3021   23.7643 H   0  0  0  0  0  0
  -15.8690  -28.0866   22.7022 H   0  0  0  0  0  0
  -24.5905  -30.7068   25.7909 H   0  0  0  0  0  0
  -24.8960  -32.2932   26.4904 H   0  0  0  0  0  0
  -25.8107  -30.8985   27.0312 H   0  0  0  0  0  0
  -26.2914  -29.6740   24.1184 H   0  0  0  0  0  0
  -27.4001  -29.7202   25.4673 H   0  0  0  0  0  0
  -27.8792  -30.4235   23.9426 H   0  0  0  0  0  0
  -27.2627  -33.3618   26.2056 H   0  0  0  0  0  0
  -28.3873  -32.6851   25.0362 H   0  0  0  0  0  0
  -28.0697  -31.8476   26.5474 H   0  0  0  0  0  0
  -28.2602  -38.0110   24.7465 H   0  0  0  0  0  0
  -28.1049  -36.2640   24.6308 H   0  0  0  0  0  0
  -27.2321  -37.1504   25.8878 H   0  0  0  0  0  0
  -20.9373  -29.8831   21.6914 H   0  0  0  0  0  0
  -26.0152  -38.2864   24.1347 H   0  0  0  0  0  0
  -30.6210  -18.0359   17.0144 H   0  0  0  0  0  0
  -30.3166  -20.1416   18.2234 H   0  0  0  0  0  0
  -30.4525  -15.8820   18.1630 H   0  0  0  0  0  0
  -29.4243  -17.9144   21.8392 H   0  0  0  0  0  0
  -29.5180  -24.0668   18.6614 H   0  0  0  0  0  0
  -30.8601  -24.7369   19.5588 H   0  0  0  0  0  0
  -31.4374  -22.5651   20.3929 H   0  0  0  0  0  0
  -30.9227  -22.1795   18.7581 H   0  0  0  0  0  0
  -27.5686  -22.6549   20.2861 H   0  0  0  0  0  0
  -28.1827  -22.4309   21.8739 H   0  0  0  0  0  0
  -31.2483  -26.1114   21.9027 H   0  0  0  0  0  0
  -30.4411  -26.0916   23.4635 H   0  0  0  0  0  0
  -29.5828  -26.7096   22.0610 H   0  0  0  0  0  0
  -31.0351  -19.6909   22.5561 H   0  0  0  0  0  0
  -30.9656  -21.4405   22.5467 H   0  0  0  0  0  0
  -31.8990  -20.5721   21.3185 H   0  0  0  0  0  0
  -27.2144  -25.1680   21.1969 H   0  0  0  0  0  0
  -27.5035  -24.7900   19.5131 H   0  0  0  0  0  0
  -28.8756  -20.3150   21.6498 H   0  0  0  0  0  0
  -29.0810  -15.3028   21.3447 H   0  0  0  0  0  0
  -28.9271  -21.4293   19.4336 H   0  0  0  0  0  0
  1 25  1  0  0  0
  1 30  2  0  0  0
  1 86  1  0  0  0
  2  3  1  0  0  0
  2 25  1  0  0  0
  2 89  1  0  0  0
  2 90  1  0  0  0
  3  4  1  0  0  0
  3 91  1  0  0  0
  3 92  1  0  0  0
  4  5  1  0  0  0
  4 93  1  0  0  0
  4 94  1  0  0  0
  5  6  1  0  0  0
  5 26  1  0  0  0
  5 95  1  0  0  0
  6 25  1  0  0  0
  6 96  1  0  0  0
  6 97  1  0  0  0
  7  8  2  0  0  0
  7 26  1  0  0  0
  7 29  1  0  0  0
  8  9  1  0  0  0
  8 22  1  0  0  0
  9 10  1  0  0  0
  9 27  2  0  0  0
 10 11  2  0  0  0
 10 15  1  0  0  0
 11 12  1  0  0  0
 11 98  1  0  0  0
 12 13  2  0  0  0
 12 99  1  0  0  0
 13 14  1  0  0  0
 13 31  1  0  0  0
 14 15  2  0  0  0
 14100  1  0  0  0
 15101  1  0  0  0
 16 17  2  0  0  0
 16 21  1  0  0  0
 16 31  1  0  0  0
 17 18  1  0  0  0
 17102  1  0  0  0
 18 19  2  0  0  0
 18103  1  0  0  0
 19 20  1  0  0  0
 19 24  1  0  0  0
 20 21  2  0  0  0
 20104  1  0  0  0
 21 23  1  0  0  0
 22 28  1  0  0  0
 22 32  2  0  0  0
 26 27  1  0  0  0
 28105  1  0  0  0
 28106  1  0  0  0
 29107  1  0  0  0
 29108  1  0  0  0
 33 34  1  0  0  0
 33 66  1  0  0  0
 33 70  2  0  0  0
 34 36  1  0  0  0
 34 59  1  0  0  0
 34109  1  0  0  0
 35 44  2  0  0  0
 35 45  1  0  0  0
 35 68  1  0  0  0
 36 56  1  0  0  0
 36110  1  0  0  0
 37 39  1  0  0  0
 37 47  1  0  0  0
 37 66  1  0  0  0
 37111  1  0  0  0
 38 43  2  0  0  0
 38 46  1  0  0  0
 38 47  1  0  0  0
 39 64  1  0  0  0
 39 67  2  0  0  0
 40 52  1  0  0  0
 40 53  2  0  0  0
 40 58  1  0  0  0
 41112  1  0  0  0
 41113  1  0  0  0
 41114  1  0  0  0
 41 48  1  0  0  0
 42 43  1  0  0  0
 42 66  1  0  0  0
 42115  1  0  0  0
 42116  1  0  0  0
 43 44  1  0  0  0
 44117  1  0  0  0
 45 46  2  0  0  0
 45118  1  0  0  0
 46119  1  0  0  0
 47120  1  0  0  0
 47121  1  0  0  0
 48 56  1  0  0  0
 48 65  1  0  0  0
 48122  1  0  0  0
 49 50  1  0  0  0
 49 53  1  0  0  0
 49 64  1  0  0  0
 49123  1  0  0  0
 50 51  1  0  0  0
 50124  1  0  0  0
 50125  1  0  0  0
 51 52  1  0  0  0
 51126  1  0  0  0
 51127  1  0  0  0
 52128  1  0  0  0
 52129  1  0  0  0
 53 54  1  0  0  0
 54 55  2  0  0  0
 54130  1  0  0  0
 55 57  1  0  0  0
 55131  1  0  0  0
 56 69  2  0  0  0
 57 58  2  0  0  0
 57132  1  0  0  0
 58133  1  0  0  0
 59 60  1  0  0  0
 59 61  1  0  0  0
 59 62  1  0  0  0
 60134  1  0  0  0
 60135  1  0  0  0
 60136  1  0  0  0
 61137  1  0  0  0
 61138  1  0  0  0
 61139  1  0  0  0
 62140  1  0  0  0
 62141  1  0  0  0
 62142  1  0  0  0
 63 65  1  0  0  0
 63143  1  0  0  0
 63144  1  0  0  0
 63145  1  0  0  0
 64146  1  0  0  0
 65147  1  0  0  0
 68 84  1  0  0  0
 71 72  2  0  0  0
 71 73  1  0  0  0
 71148  1  0  0  0
 72 75  1  0  0  0
 72149  1  0  0  0
 73 76  2  0  0  0
 73150  1  0  0  0
 74 75  2  0  0  0
 74 76  1  0  0  0
 74151  1  0  0  0
 75 85  1  0  0  0
 76 86  1  0  0  0
 77 82  1  0  0  0
 77 88  2  0  0  0
 77 81  1  0  0  0
 78 79  1  0  0  0
 78 81  1  0  0  0
 78152  1  0  0  0
 78153  1  0  0  0
 79154  1  0  0  0
 79155  1  0  0  0
 79 87  1  0  0  0
 80 81  1  0  0  0
 80 87  1  0  0  0
 80156  1  0  0  0
 80157  1  0  0  0
 81 84  1  0  0  0
 82158  1  0  0  0
 82159  1  0  0  0
 82160  1  0  0  0
 83161  1  0  0  0
 83162  1  0  0  0
 83163  1  0  0  0
 83 85  1  0  0  0
 84164  1  0  0  0
 84165  1  0  0  0
 85 87  1  0  0  0
 85166  1  0  0  0
 86167  1  0  0  0
 87168  1  0  0  0
M  CHG  1  87   1
M  ISO  4   1 100  68 101  84 101  86 100
M  END
> <chiral flag>
0

> <version>
0

> <s_m_source_file>
/data/baiqing/PycharmProjects/Reinvent-master-3.2/result/LINK_invent/BTK/process_docking_weight1_custom_product_contain_oxygen_bond_distance_aromatic_linkinvent_7_9_3/rearranged_h_0146.sdf

> <i_m_source_file_index>
83

> <r_mmod_Potential_Energy-OPLS-2005>
-95.1802520751953

> <r_mmod_Stretch_Energy-OPLS-2005>
46.7473907470703

> <r_mmod_Bend_Energy-OPLS-2005>
140.088684082031

> <r_mmod_Torsional_Energy-OPLS-2005>
307.397888183594

> <r_mmod_Improper_Torsional_Energy-OPLS-2005>
6.66290903091431

> <r_mmod_Van_der_Waal_Energy-OPLS-2005>
168.205047607422

> <r_mmod_Electrostatic_Energy-OPLS-2005>
-337.373596191406

> <r_mmod_Solvation_Energy-OPLS-2005>
-447.446044921875

> <b_mmod_Minimization_Converged-OPLS-2005>
0

> <r_mmod_RMS_Derivative-OPLS-2005>
5.72164964675903

$$$$
83
                    3D
 Structure written by MMmdl.
156164  0  0  1  0            999 V2000
  -30.6987  -14.5747   20.5585 C   0  0  0  0  0  0
  -30.4215  -12.3591   19.4648 C   0  0  0  0  0  0
  -29.5029  -12.4866   18.2339 C   0  0  0  0  0  0
  -28.0287  -12.3363   18.6467 C   0  0  0  0  0  0
  -27.6544  -13.2187   19.8674 C   0  0  2  0  0  0
  -28.6938  -13.0826   21.0013 C   0  0  0  0  0  0
  -25.2555  -13.8194   20.5691 C   0  0  0  0  0  0
  -24.1822  -13.0464   20.9195 C   0  0  0  0  0  0
  -24.6389  -11.6930   20.8756 C   0  0  0  0  0  0
  -23.9067  -10.4310   21.0407 C   0  0  0  0  0  0
  -24.3603   -9.4216   21.9187 C   0  0  0  0  0  0
  -23.6282   -8.2253   22.0767 C   0  0  0  0  0  0
  -22.4266   -8.0288   21.3546 C   0  0  0  0  0  0
  -21.9902   -9.0267   20.4647 C   0  0  0  0  0  0
  -22.7239  -10.2143   20.3058 C   0  0  0  0  0  0
  -21.6853   -6.0732   22.5274 C   0  0  0  0  0  0
  -21.4010   -6.5635   23.8211 C   0  0  0  0  0  0
  -21.3659   -5.6792   24.9179 C   0  0  0  0  0  0
  -21.6050   -4.3058   24.7228 C   0  0  0  0  0  0
  -21.8820   -3.8142   23.4355 C   0  0  0  0  0  0
  -21.9188   -4.6956   22.3406 C   0  0  0  0  0  0
  -22.7838  -13.5248   21.1852 C   0  0  0  0  0  0
  -22.1657   -4.2137   21.0979 F   0  0  0  0  0  0
  -21.5629   -3.4547   25.7741 F   0  0  0  0  0  0
  -30.0174  -13.3912   20.4415 N   0  0  0  0  0  0
  -26.2985  -12.9382   20.3355 N   0  0  0  0  0  0
  -25.9317  -11.6526   20.5790 N   0  0  0  0  0  0
  -22.0483  -12.8233   22.0393 N   0  0  0  0  0  0
  -25.4302  -15.1928   20.4123 N   0  0  0  0  0  0
  -31.8185  -14.6834   20.0539 O   0  0  0  0  0  0
  -21.6637   -6.8870   21.4233 O   0  0  0  0  0  0
  -22.3536  -14.5564   20.6705 O   0  0  0  0  0  0
  -24.6201  -31.8636   23.2076 C   0  0  0  0  0  0
  -25.9070  -32.4804   23.8388 C   0  0  1  0  0  0
  -27.2216  -27.3377   20.1266 C   0  0  0  0  0  0
  -25.5904  -33.8610   24.2297 N   0  0  0  0  0  0
  -23.4157  -30.4859   21.5488 C   0  0  2  0  0  0
  -24.8686  -28.9486   20.1108 C   0  0  0  0  0  0
  -22.7452  -29.4615   22.4951 C   0  0  0  0  0  0
  -18.0274  -28.1350   22.8465 C   0  0  0  0  0  0
  -24.1493  -36.7336   23.2634 C   0  0  0  0  0  0
  -25.9529  -30.7938   21.3871 C   0  0  0  0  0  0
  -26.0286  -29.4176   20.7436 C   0  0  0  0  0  0
  -27.2063  -28.6148   20.7610 C   0  0  0  0  0  0
  -26.0633  -26.9461   19.4269 C   0  0  0  0  0  0
  -24.8869  -27.7155   19.4423 C   0  0  0  0  0  0
  -23.6337  -29.8242   20.1623 C   0  0  0  0  0  0
  -25.4105  -36.3101   24.0325 C   0  0  1  0  0  0
  -20.5859  -28.3676   23.1262 C   0  0  2  0  0  0
  -20.6783  -26.9413   22.5373 C   0  0  0  0  0  0
  -19.5761  -26.6381   21.5174 C   0  0  0  0  0  0
  -18.1938  -26.7899   22.1585 C   0  0  0  0  0  0
  -19.1523  -28.8825   23.2869 C   0  0  0  0  0  0
  -18.9460  -30.1426   23.8889 C   0  0  0  0  0  0
  -17.6465  -30.6564   24.0538 C   0  0  0  0  0  0
  -25.9036  -34.9466   23.5108 C   0  0  0  0  0  0
  -16.5355  -29.9053   23.6319 C   0  0  0  0  0  0
  -16.7259  -28.6473   23.0332 C   0  0  0  0  0  0
  -26.4465  -31.6603   25.0747 C   0  0  0  0  0  0
  -25.3698  -31.3741   26.1481 C   0  0  0  0  0  0
  -27.0332  -30.3030   24.6186 C   0  0  0  0  0  0
  -27.6027  -32.4342   25.7505 C   0  0  0  0  0  0
  -27.5589  -37.1813   24.8444 C   0  0  0  0  0  0
  -21.4162  -29.3047   22.3691 N   0  0  0  0  0  0
  -26.4289  -37.3775   23.9396 N   0  0  0  0  0  0
  -24.6805  -31.0639   22.1051 N   0  0  0  0  0  0
  -23.4170  -28.8142   23.3020 O   0  0  0  0  0  0
  -28.3270  -26.4854   20.1106 O   0  0  0  0  0  0
  -26.5599  -34.8933   22.4675 O   0  0  0  0  0  0
  -23.5357  -32.1453   23.7388 O   0  0  0  0  0  0
  -29.6031  -18.7351   22.2527 C   0  0  0  0  0  0
  -29.3529  -20.1358   22.0761 C   0  0  0  0  0  0
  -29.7175  -18.1556   21.0114 C   0  0  0  0  0  0
  -29.2800  -20.3318   20.7281 C   0  0  0  0  0  0
  -30.0596  -16.7938   20.5090 C   0  0  0  0  0  0
  -27.0077  -23.7749   19.6268 C   0  0  0  0  0  0
  -27.3251  -23.2830   22.0419 C   0  0  0  0  0  0
  -29.2601  -22.9068   20.5123 C   0  0  0  0  0  0
  -28.3717  -25.3965   21.1024 C   0  0  0  0  0  0
  -28.0162  -23.8589   20.7835 C   0  0  0  0  0  0
  -30.0260  -15.6648   21.1531 N   0  0  0  0  0  0
  -28.9637  -21.5249   20.0288 N   0  0  0  0  0  0
  -29.4968  -19.1441   20.0591 O   0  0  0  0  0  0
  -31.4663  -12.4403   19.1619 H   0  0  0  0  0  0
  -30.3282  -11.3680   19.9130 H   0  0  0  0  0  0
  -29.7614  -11.7244   17.4987 H   0  0  0  0  0  0
  -29.6562  -13.4515   17.7497 H   0  0  0  0  0  0
  -27.8680  -11.2859   18.8922 H   0  0  0  0  0  0
  -27.3736  -12.5570   17.8033 H   0  0  0  0  0  0
  -27.6787  -14.2532   19.5251 H   0  0  0  0  0  0
  -28.6877  -12.0713   21.4106 H   0  0  0  0  0  0
  -28.4419  -13.7440   21.8317 H   0  0  0  0  0  0
  -25.2735   -9.5704   22.4777 H   0  0  0  0  0  0
  -23.9989   -7.4646   22.7490 H   0  0  0  0  0  0
  -21.0839   -8.8783   19.8946 H   0  0  0  0  0  0
  -22.3689  -10.9685   19.6173 H   0  0  0  0  0  0
  -21.2001   -7.6149   23.9701 H   0  0  0  0  0  0
  -21.1481   -6.0531   25.9069 H   0  0  0  0  0  0
  -22.0596   -2.7606   23.2860 H   0  0  0  0  0  0
  -22.4078  -11.9880   22.4772 H   0  0  0  0  0  0
  -21.1109  -13.1263   22.2608 H   0  0  0  0  0  0
  -24.6782  -15.8618   20.5349 H   0  0  0  0  0  0
  -26.3015  -15.6212   20.1265 H   0  0  0  0  0  0
  -26.7154  -32.5501   23.1162 H   0  0  0  0  0  0
  -25.0052  -33.9760   25.0436 H   0  0  0  0  0  0
  -22.7094  -31.3049   21.4076 H   0  0  0  0  0  0
  -23.3742  -35.9684   23.3269 H   0  0  0  0  0  0
  -24.3584  -36.8980   22.2060 H   0  0  0  0  0  0
  -23.7295  -37.6541   23.6682 H   0  0  0  0  0  0
  -26.0739  -31.5534   20.6131 H   0  0  0  0  0  0
  -26.8362  -30.8537   22.0101 H   0  0  0  0  0  0
  -28.0921  -28.9599   21.2740 H   0  0  0  0  0  0
  -26.0637  -26.0530   18.8272 H   0  0  0  0  0  0
  -24.0152  -27.3710   18.9006 H   0  0  0  0  0  0
  -23.7435  -30.6022   19.4058 H   0  0  0  0  0  0
  -22.7576  -29.2455   19.8626 H   0  0  0  0  0  0
  -25.1292  -36.1952   25.0814 H   0  0  0  0  0  0
  -20.9944  -28.3261   24.1382 H   0  0  0  0  0  0
  -20.5691  -26.2292   23.3569 H   0  0  0  0  0  0
  -21.6657  -26.7456   22.1173 H   0  0  0  0  0  0
  -19.6944  -25.6306   21.1192 H   0  0  0  0  0  0
  -19.6689  -27.3209   20.6714 H   0  0  0  0  0  0
  -17.4206  -26.6624   21.3984 H   0  0  0  0  0  0
  -18.0339  -26.0030   22.8977 H   0  0  0  0  0  0
  -19.7955  -30.7206   24.2264 H   0  0  0  0  0  0
  -17.5038  -31.6239   24.5153 H   0  0  0  0  0  0
  -15.5358  -30.2941   23.7677 H   0  0  0  0  0  0
  -15.8660  -28.0794   22.7036 H   0  0  0  0  0  0
  -24.5855  -30.7109   25.7805 H   0  0  0  0  0  0
  -24.8917  -32.2926   26.4905 H   0  0  0  0  0  0
  -25.8025  -30.8919   27.0262 H   0  0  0  0  0  0
  -26.2925  -29.6752   24.1220 H   0  0  0  0  0  0
  -27.4053  -29.7289   25.4678 H   0  0  0  0  0  0
  -27.8767  -30.4303   23.9396 H   0  0  0  0  0  0
  -27.2622  -33.3638   26.2075 H   0  0  0  0  0  0
  -28.3832  -32.6905   25.0335 H   0  0  0  0  0  0
  -28.0697  -31.8486   26.5432 H   0  0  0  0  0  0
  -28.2558  -38.0161   24.7523 H   0  0  0  0  0  0
  -28.1141  -36.2684   24.6216 H   0  0  0  0  0  0
  -27.2300  -37.1367   25.8844 H   0  0  0  0  0  0
  -20.9331  -29.8827   21.6955 H   0  0  0  0  0  0
  -26.0179  -38.2847   24.1419 H   0  0  0  0  0  0
  -29.7225  -18.2119   23.1900 H   0  0  0  0  0  0
  -29.2223  -20.8874   22.8411 H   0  0  0  0  0  0
  -30.4146  -16.8099   19.4728 H   0  0  0  0  0  0
  -26.7535  -22.7515   19.3562 H   0  0  0  0  0  0
  -27.4010  -24.2636   18.7358 H   0  0  0  0  0  0
  -26.0690  -24.2498   19.9088 H   0  0  0  0  0  0
  -27.0867  -22.2263   21.9229 H   0  0  0  0  0  0
  -26.3924  -23.7999   22.2679 H   0  0  0  0  0  0
  -27.9682  -23.3711   22.9192 H   0  0  0  0  0  0
  -29.8860  -22.8442   21.4042 H   0  0  0  0  0  0
  -29.8937  -23.3732   19.7564 H   0  0  0  0  0  0
  -29.3822  -25.4074   21.5139 H   0  0  0  0  0  0
  -27.7597  -25.7281   21.9430 H   0  0  0  0  0  0
  -28.9023  -21.4369   19.0179 H   0  0  0  0  0  0
  1 25  1  0  0  0
  1 30  2  0  0  0
  1 81  1  0  0  0
  2  3  1  0  0  0
  2 25  1  0  0  0
  2 84  1  0  0  0
  2 85  1  0  0  0
  3  4  1  0  0  0
  3 86  1  0  0  0
  3 87  1  0  0  0
  4  5  1  0  0  0
  4 88  1  0  0  0
  4 89  1  0  0  0
  5  6  1  0  0  0
  5 26  1  0  0  0
  5 90  1  0  0  0
  6 25  1  0  0  0
  6 91  1  0  0  0
  6 92  1  0  0  0
  7  8  2  0  0  0
  7 26  1  0  0  0
  7 29  1  0  0  0
  8  9  1  0  0  0
  8 22  1  0  0  0
  9 10  1  0  0  0
  9 27  2  0  0  0
 10 11  2  0  0  0
 10 15  1  0  0  0
 11 12  1  0  0  0
 11 93  1  0  0  0
 12 13  2  0  0  0
 12 94  1  0  0  0
 13 14  1  0  0  0
 13 31  1  0  0  0
 14 15  2  0  0  0
 14 95  1  0  0  0
 15 96  1  0  0  0
 16 17  2  0  0  0
 16 21  1  0  0  0
 16 31  1  0  0  0
 17 18  1  0  0  0
 17 97  1  0  0  0
 18 19  2  0  0  0
 18 98  1  0  0  0
 19 20  1  0  0  0
 19 24  1  0  0  0
 20 21  2  0  0  0
 20 99  1  0  0  0
 21 23  1  0  0  0
 22 28  1  0  0  0
 22 32  2  0  0  0
 26 27  1  0  0  0
 28100  1  0  0  0
 28101  1  0  0  0
 29102  1  0  0  0
 29103  1  0  0  0
 33 34  1  0  0  0
 33 66  1  0  0  0
 33 70  2  0  0  0
 34 36  1  0  0  0
 34 59  1  0  0  0
 34104  1  0  0  0
 35 44  2  0  0  0
 35 45  1  0  0  0
 35 68  1  0  0  0
 36 56  1  0  0  0
 36105  1  0  0  0
 37 39  1  0  0  0
 37 47  1  0  0  0
 37 66  1  0  0  0
 37106  1  0  0  0
 38 43  2  0  0  0
 38 46  1  0  0  0
 38 47  1  0  0  0
 39 64  1  0  0  0
 39 67  2  0  0  0
 40 52  1  0  0  0
 40 53  2  0  0  0
 40 58  1  0  0  0
 41107  1  0  0  0
 41108  1  0  0  0
 41109  1  0  0  0
 41 48  1  0  0  0
 42 43  1  0  0  0
 42 66  1  0  0  0
 42110  1  0  0  0
 42111  1  0  0  0
 43 44  1  0  0  0
 44112  1  0  0  0
 45 46  2  0  0  0
 45113  1  0  0  0
 46114  1  0  0  0
 47115  1  0  0  0
 47116  1  0  0  0
 48 56  1  0  0  0
 48 65  1  0  0  0
 48117  1  0  0  0
 49 50  1  0  0  0
 49 53  1  0  0  0
 49 64  1  0  0  0
 49118  1  0  0  0
 50 51  1  0  0  0
 50119  1  0  0  0
 50120  1  0  0  0
 51 52  1  0  0  0
 51121  1  0  0  0
 51122  1  0  0  0
 52123  1  0  0  0
 52124  1  0  0  0
 53 54  1  0  0  0
 54 55  2  0  0  0
 54125  1  0  0  0
 55 57  1  0  0  0
 55126  1  0  0  0
 56 69  2  0  0  0
 57 58  2  0  0  0
 57127  1  0  0  0
 58128  1  0  0  0
 59 60  1  0  0  0
 59 61  1  0  0  0
 59 62  1  0  0  0
 60129  1  0  0  0
 60130  1  0  0  0
 60131  1  0  0  0
 61132  1  0  0  0
 61133  1  0  0  0
 61134  1  0  0  0
 62135  1  0  0  0
 62136  1  0  0  0
 62137  1  0  0  0
 63 65  1  0  0  0
 63138  1  0  0  0
 63139  1  0  0  0
 63140  1  0  0  0
 64141  1  0  0  0
 65142  1  0  0  0
 68 79  1  0  0  0
 71 72  1  0  0  0
 71 73  2  0  0  0
 71143  1  0  0  0
 72 74  2  0  0  0
 72144  1  0  0  0
 73 75  1  0  0  0
 73 83  1  0  0  0
 74 82  1  0  0  0
 74 83  1  0  0  0
 75 81  2  0  0  0
 75145  1  0  0  0
 76146  1  0  0  0
 76147  1  0  0  0
 76148  1  0  0  0
 76 80  1  0  0  0
 77 80  1  0  0  0
 77149  1  0  0  0
 77150  1  0  0  0
 77151  1  0  0  0
 78 80  1  0  0  0
 78 82  1  0  0  0
 78152  1  0  0  0
 78153  1  0  0  0
 79 80  1  0  0  0
 79154  1  0  0  0
 79155  1  0  0  0
 82156  1  0  0  0
M  ISO  4   1 100  68 101  79 101  81 100
M  END
> <chiral flag>
0

> <version>
0

> <s_m_source_file>
/data/baiqing/PycharmProjects/Reinvent-master-3.2/result/LINK_invent/BTK/process_docking_weight1_custom_product_contain_oxygen_bond_distance_aromatic_linkinvent_7_9_3/rearranged_h_0146.sdf

> <i_m_source_file_index>
84

> <r_mmod_Potential_Energy-OPLS-2005>
24.5633792877197

> <r_mmod_Stretch_Energy-OPLS-2005>
69.0013427734375

> <r_mmod_Bend_Energy-OPLS-2005>
145.111251831055

> <r_mmod_Torsional_Energy-OPLS-2005>
231.947967529297

> <r_mmod_Improper_Torsional_Energy-OPLS-2005>
4.59901762008667

> <r_mmod_Van_der_Waal_Energy-OPLS-2005>
133.793792724609

> <r_mmod_Electrostatic_Energy-OPLS-2005>
-410.143249511719

> <r_mmod_Solvation_Energy-OPLS-2005>
-186.442230224609

> <b_mmod_Minimization_Converged-OPLS-2005>
0

> <r_mmod_RMS_Derivative-OPLS-2005>
3.71372556686401

$$$$
84
                    3D
 Structure written by MMmdl.
160169  0  0  1  0            999 V2000
  -30.6524  -14.6213   20.4586 C   0  0  0  0  0  0
  -30.4272  -12.3692   19.4671 C   0  0  0  0  0  0
  -29.5091  -12.4923   18.2322 C   0  0  0  0  0  0
  -28.0284  -12.3502   18.6391 C   0  0  0  0  0  0
  -27.6530  -13.2241   19.8642 C   0  0  2  0  0  0
  -28.6963  -13.1022   20.9981 C   0  0  0  0  0  0
  -25.2559  -13.8210   20.5659 C   0  0  0  0  0  0
  -24.1826  -13.0462   20.9174 C   0  0  0  0  0  0
  -24.6404  -11.6936   20.8730 C   0  0  0  0  0  0
  -23.9049  -10.4317   21.0390 C   0  0  0  0  0  0
  -24.3604   -9.4233   21.9169 C   0  0  0  0  0  0
  -23.6302   -8.2252   22.0727 C   0  0  0  0  0  0
  -22.4278   -8.0285   21.3531 C   0  0  0  0  0  0
  -21.9905   -9.0250   20.4627 C   0  0  0  0  0  0
  -22.7229  -10.2141   20.3035 C   0  0  0  0  0  0
  -21.6862   -6.0729   22.5262 C   0  0  0  0  0  0
  -21.4015   -6.5627   23.8198 C   0  0  0  0  0  0
  -21.3670   -5.6776   24.9166 C   0  0  0  0  0  0
  -21.6060   -4.3044   24.7215 C   0  0  0  0  0  0
  -21.8836   -3.8140   23.4335 C   0  0  0  0  0  0
  -21.9182   -4.6953   22.3385 C   0  0  0  0  0  0
  -22.7855  -13.5247   21.1834 C   0  0  0  0  0  0
  -22.1658   -4.2130   21.0973 F   0  0  0  0  0  0
  -21.5644   -3.4528   25.7736 F   0  0  0  0  0  0
  -30.0140  -13.4105   20.4293 N   0  0  0  0  0  0
  -26.2995  -12.9401   20.3322 N   0  0  0  0  0  0
  -25.9337  -11.6553   20.5778 N   0  0  0  0  0  0
  -22.0501  -12.8216   22.0401 N   0  0  0  0  0  0
  -25.4297  -15.1920   20.4006 N   0  0  0  0  0  0
  -31.8302  -14.7250   20.1056 O   0  0  0  0  0  0
  -21.6648   -6.8876   21.4228 O   0  0  0  0  0  0
  -22.3519  -14.5540   20.6688 O   0  0  0  0  0  0
  -24.6261  -31.8623   23.2062 C   0  0  0  0  0  0
  -25.9128  -32.4783   23.8369 C   0  0  1  0  0  0
  -27.2145  -27.3289   20.0906 C   0  0  0  0  0  0
  -25.5956  -33.8581   24.2295 N   0  0  0  0  0  0
  -23.4175  -30.4898   21.5503 C   0  0  2  0  0  0
  -24.8576  -28.9524   20.1088 C   0  0  0  0  0  0
  -22.7477  -29.4651   22.4967 C   0  0  0  0  0  0
  -18.0284  -28.1410   22.8500 C   0  0  0  0  0  0
  -24.1493  -36.7291   23.2639 C   0  0  0  0  0  0
  -25.9587  -30.7948   21.3758 C   0  0  0  0  0  0
  -26.0279  -29.4250   20.7131 C   0  0  0  0  0  0
  -27.2057  -28.6222   20.7003 C   0  0  0  0  0  0
  -26.0074  -26.9010   19.4865 C   0  0  0  0  0  0
  -24.8481  -27.6949   19.4922 C   0  0  0  0  0  0
  -23.6284  -29.8331   20.1625 C   0  0  0  0  0  0
  -25.4114  -36.3072   24.0332 C   0  0  1  0  0  0
  -20.5883  -28.3704   23.1318 C   0  0  2  0  0  0
  -20.6788  -26.9435   22.5428 C   0  0  0  0  0  0
  -19.5755  -26.6411   21.5238 C   0  0  0  0  0  0
  -18.1929  -26.7964   22.1633 C   0  0  0  0  0  0
  -19.1531  -28.8873   23.2903 C   0  0  0  0  0  0
  -18.9445  -30.1481   23.8913 C   0  0  0  0  0  0
  -17.6441  -30.6606   24.0579 C   0  0  0  0  0  0
  -25.9058  -34.9448   23.5100 C   0  0  0  0  0  0
  -16.5336  -29.9104   23.6342 C   0  0  0  0  0  0
  -16.7269  -28.6524   23.0359 C   0  0  0  0  0  0
  -26.4502  -31.6600   25.0739 C   0  0  0  0  0  0
  -25.3738  -31.3736   26.1466 C   0  0  0  0  0  0
  -27.0333  -30.3027   24.6189 C   0  0  0  0  0  0
  -27.6067  -32.4334   25.7506 C   0  0  0  0  0  0
  -27.5581  -37.1794   24.8453 C   0  0  0  0  0  0
  -21.4193  -29.3053   22.3714 N   0  0  0  0  0  0
  -26.4279  -37.3776   23.9418 N   0  0  0  0  0  0
  -24.6868  -31.0647   22.1008 N   0  0  0  0  0  0
  -23.4212  -28.8194   23.3040 O   0  0  0  0  0  0
  -28.3526  -26.5096   20.1489 O   0  0  0  0  0  0
  -26.5610  -34.8916   22.4653 O   0  0  0  0  0  0
  -23.5435  -32.1425   23.7409 O   0  0  0  0  0  0
  -29.5441  -18.2404   20.4533 C   0  0  0  0  0  0
  -29.6711  -19.2969   19.4474 C   0  0  0  0  0  0
  -30.1638  -18.7532   18.2751 C   0  0  0  0  0  0
  -29.9618  -16.9598   20.0650 C   0  0  0  0  0  0
  -30.4540  -21.7999   19.2471 C   0  0  0  0  0  0
  -28.5261  -21.4107   20.7090 C   0  0  0  0  0  0
  -29.9569  -23.2276   18.8832 C   0  0  0  0  0  0
  -28.0078  -22.8805   20.4351 C   0  0  0  0  0  0
  -29.2815  -20.8138   19.4908 C   0  0  2  0  0  0
  -29.0710  -23.9309   19.9515 C   0  0  2  0  0  0
  -30.3995  -19.4049   16.9459 C   0  0  0  0  0  0
  -28.4813  -25.2843   19.3408 C   0  0  0  0  0  0
  -29.9018  -15.7382   20.7250 N   0  0  0  0  0  0
  -30.5316  -17.0551   18.4164 S   0  0  0  0  0  0
  -31.4722  -12.4677   19.1708 H   0  0  0  0  0  0
  -30.3413  -11.3798   19.9189 H   0  0  0  0  0  0
  -29.7666  -11.7323   17.4937 H   0  0  0  0  0  0
  -29.6719  -13.4565   17.7492 H   0  0  0  0  0  0
  -27.8509  -11.2999   18.8697 H   0  0  0  0  0  0
  -27.3771  -12.5894   17.7970 H   0  0  0  0  0  0
  -27.6683  -14.2550   19.5144 H   0  0  0  0  0  0
  -28.6959  -12.0971   21.4202 H   0  0  0  0  0  0
  -28.4554  -13.7755   21.8211 H   0  0  0  0  0  0
  -25.2755   -9.5725   22.4734 H   0  0  0  0  0  0
  -23.9990   -7.4631   22.7439 H   0  0  0  0  0  0
  -21.0826   -8.8779   19.8921 H   0  0  0  0  0  0
  -22.3689  -10.9668   19.6130 H   0  0  0  0  0  0
  -21.2012   -7.6130   23.9692 H   0  0  0  0  0  0
  -21.1482   -6.0507   25.9061 H   0  0  0  0  0  0
  -22.0602   -2.7594   23.2817 H   0  0  0  0  0  0
  -22.4144  -11.9860   22.4748 H   0  0  0  0  0  0
  -21.1115  -13.1215   22.2630 H   0  0  0  0  0  0
  -24.6663  -15.8520   20.4954 H   0  0  0  0  0  0
  -26.2759  -15.6148   20.0409 H   0  0  0  0  0  0
  -26.7198  -32.5442   23.1121 H   0  0  0  0  0  0
  -25.0128  -33.9734   25.0455 H   0  0  0  0  0  0
  -22.7087  -31.3093   21.4147 H   0  0  0  0  0  0
  -23.3759  -35.9618   23.3267 H   0  0  0  0  0  0
  -24.3599  -36.8943   22.2057 H   0  0  0  0  0  0
  -23.7235  -37.6480   23.6677 H   0  0  0  0  0  0
  -26.0887  -31.5613   20.6111 H   0  0  0  0  0  0
  -26.8404  -30.8385   22.0043 H   0  0  0  0  0  0
  -28.1041  -28.9813   21.1828 H   0  0  0  0  0  0
  -25.8850  -25.9336   19.0296 H   0  0  0  0  0  0
  -23.9458  -27.3224   19.0274 H   0  0  0  0  0  0
  -23.7503  -30.6152   19.4115 H   0  0  0  0  0  0
  -22.7472  -29.2657   19.8565 H   0  0  0  0  0  0
  -25.1295  -36.1912   25.0820 H   0  0  0  0  0  0
  -20.9953  -28.3261   24.1451 H   0  0  0  0  0  0
  -20.5743  -26.2293   23.3617 H   0  0  0  0  0  0
  -21.6650  -26.7517   22.1174 H   0  0  0  0  0  0
  -19.6913  -25.6321   21.1273 H   0  0  0  0  0  0
  -19.6713  -27.3224   20.6774 H   0  0  0  0  0  0
  -17.4222  -26.6742   21.4015 H   0  0  0  0  0  0
  -18.0298  -26.0103   22.9017 H   0  0  0  0  0  0
  -19.7910  -30.7309   24.2288 H   0  0  0  0  0  0
  -17.4986  -31.6286   24.5175 H   0  0  0  0  0  0
  -15.5334  -30.3006   23.7669 H   0  0  0  0  0  0
  -15.8667  -28.0849   22.7066 H   0  0  0  0  0  0
  -24.5927  -30.7069   25.7789 H   0  0  0  0  0  0
  -24.8909  -32.2895   26.4885 H   0  0  0  0  0  0
  -25.8067  -30.8922   27.0247 H   0  0  0  0  0  0
  -26.2892  -29.6798   24.1216 H   0  0  0  0  0  0
  -27.4019  -29.7275   25.4691 H   0  0  0  0  0  0
  -27.8772  -30.4302   23.9411 H   0  0  0  0  0  0
  -27.2671  -33.3634   26.2080 H   0  0  0  0  0  0
  -28.3877  -32.6900   25.0335 H   0  0  0  0  0  0
  -28.0741  -31.8468   26.5427 H   0  0  0  0  0  0
  -28.2563  -38.0122   24.7543 H   0  0  0  0  0  0
  -28.1109  -36.2662   24.6216 H   0  0  0  0  0  0
  -27.2315  -37.1360   25.8856 H   0  0  0  0  0  0
  -20.9381  -29.8740   21.6895 H   0  0  0  0  0  0
  -26.0154  -38.2841   24.1446 H   0  0  0  0  0  0
  -29.1349  -18.4627   21.4297 H   0  0  0  0  0  0
  -31.1096  -21.8321   20.1182 H   0  0  0  0  0  0
  -31.0827  -21.4583   18.4296 H   0  0  0  0  0  0
  -27.6750  -20.7735   20.9533 H   0  0  0  0  0  0
  -29.1730  -21.4010   21.5870 H   0  0  0  0  0  0
  -29.3953  -23.1626   17.9493 H   0  0  0  0  0  0
  -30.8214  -23.8551   18.6617 H   0  0  0  0  0  0
  -27.5150  -23.2606   21.3304 H   0  0  0  0  0  0
  -27.2248  -22.8158   19.6800 H   0  0  0  0  0  0
  -28.5882  -20.9459   18.6583 H   0  0  0  0  0  0
  -29.7152  -24.1831   20.7944 H   0  0  0  0  0  0
  -31.4389  -19.7195   16.8503 H   0  0  0  0  0  0
  -29.7648  -20.2761   16.7902 H   0  0  0  0  0  0
  -30.1912  -18.7132   16.1278 H   0  0  0  0  0  0
  -27.6052  -25.0099   18.7656 H   0  0  0  0  0  0
  -29.1711  -25.6066   18.5604 H   0  0  0  0  0  0
  -29.0532  -15.5717   21.2437 H   0  0  0  0  0  0
  1 25  1  0  0  0
  1 30  2  0  0  0
  1 83  1  0  0  0
  2  3  1  0  0  0
  2 25  1  0  0  0
  2 85  1  0  0  0
  2 86  1  0  0  0
  3  4  1  0  0  0
  3 87  1  0  0  0
  3 88  1  0  0  0
  4  5  1  0  0  0
  4 89  1  0  0  0
  4 90  1  0  0  0
  5  6  1  0  0  0
  5 26  1  0  0  0
  5 91  1  0  0  0
  6 25  1  0  0  0
  6 92  1  0  0  0
  6 93  1  0  0  0
  7  8  2  0  0  0
  7 26  1  0  0  0
  7 29  1  0  0  0
  8  9  1  0  0  0
  8 22  1  0  0  0
  9 10  1  0  0  0
  9 27  2  0  0  0
 10 11  2  0  0  0
 10 15  1  0  0  0
 11 12  1  0  0  0
 11 94  1  0  0  0
 12 13  2  0  0  0
 12 95  1  0  0  0
 13 14  1  0  0  0
 13 31  1  0  0  0
 14 15  2  0  0  0
 14 96  1  0  0  0
 15 97  1  0  0  0
 16 17  2  0  0  0
 16 21  1  0  0  0
 16 31  1  0  0  0
 17 18  1  0  0  0
 17 98  1  0  0  0
 18 19  2  0  0  0
 18 99  1  0  0  0
 19 20  1  0  0  0
 19 24  1  0  0  0
 20 21  2  0  0  0
 20100  1  0  0  0
 21 23  1  0  0  0
 22 28  1  0  0  0
 22 32  2  0  0  0
 26 27  1  0  0  0
 28101  1  0  0  0
 28102  1  0  0  0
 29103  1  0  0  0
 29104  1  0  0  0
 33 34  1  0  0  0
 33 66  1  0  0  0
 33 70  2  0  0  0
 34 36  1  0  0  0
 34 59  1  0  0  0
 34105  1  0  0  0
 35 44  2  0  0  0
 35 45  1  0  0  0
 35 68  1  0  0  0
 36 56  1  0  0  0
 36106  1  0  0  0
 37 39  1  0  0  0
 37 47  1  0  0  0
 37 66  1  0  0  0
 37107  1  0  0  0
 38 43  2  0  0  0
 38 46  1  0  0  0
 38 47  1  0  0  0
 39 64  1  0  0  0
 39 67  2  0  0  0
 40 52  1  0  0  0
 40 53  2  0  0  0
 40 58  1  0  0  0
 41108  1  0  0  0
 41109  1  0  0  0
 41110  1  0  0  0
 41 48  1  0  0  0
 42 43  1  0  0  0
 42 66  1  0  0  0
 42111  1  0  0  0
 42112  1  0  0  0
 43 44  1  0  0  0
 44113  1  0  0  0
 45 46  2  0  0  0
 45114  1  0  0  0
 46115  1  0  0  0
 47116  1  0  0  0
 47117  1  0  0  0
 48 56  1  0  0  0
 48 65  1  0  0  0
 48118  1  0  0  0
 49 50  1  0  0  0
 49 53  1  0  0  0
 49 64  1  0  0  0
 49119  1  0  0  0
 50 51  1  0  0  0
 50120  1  0  0  0
 50121  1  0  0  0
 51 52  1  0  0  0
 51122  1  0  0  0
 51123  1  0  0  0
 52124  1  0  0  0
 52125  1  0  0  0
 53 54  1  0  0  0
 54 55  2  0  0  0
 54126  1  0  0  0
 55 57  1  0  0  0
 55127  1  0  0  0
 56 69  2  0  0  0
 57 58  2  0  0  0
 57128  1  0  0  0
 58129  1  0  0  0
 59 60  1  0  0  0
 59 61  1  0  0  0
 59 62  1  0  0  0
 60130  1  0  0  0
 60131  1  0  0  0
 60132  1  0  0  0
 61133  1  0  0  0
 61134  1  0  0  0
 61135  1  0  0  0
 62136  1  0  0  0
 62137  1  0  0  0
 62138  1  0  0  0
 63 65  1  0  0  0
 63139  1  0  0  0
 63140  1  0  0  0
 63141  1  0  0  0
 64142  1  0  0  0
 65143  1  0  0  0
 68 82  1  0  0  0
 71 72  1  0  0  0
 71 74  2  0  0  0
 71144  1  0  0  0
 72 73  2  0  0  0
 72 79  1  0  0  0
 73 81  1  0  0  0
 73 84  1  0  0  0
 74 83  1  0  0  0
 74 84  1  0  0  0
 75 77  1  0  0  0
 75 79  1  0  0  0
 75145  1  0  0  0
 75146  1  0  0  0
 76 78  1  0  0  0
 76 79  1  0  0  0
 76147  1  0  0  0
 76148  1  0  0  0
 77 80  1  0  0  0
 77149  1  0  0  0
 77150  1  0  0  0
 78 80  1  0  0  0
 78151  1  0  0  0
 78152  1  0  0  0
 79153  1  0  0  0
 80 82  1  0  0  0
 80154  1  0  0  0
 81155  1  0  0  0
 81156  1  0  0  0
 81157  1  0  0  0
 82158  1  0  0  0
 82159  1  0  0  0
 83160  1  0  0  0
M  ISO  4   1 100  68 101  82 101  83 100
M  END
> <chiral flag>
0

> <version>
0

> <s_m_source_file>
/data/baiqing/PycharmProjects/Reinvent-master-3.2/result/LINK_invent/BTK/process_docking_weight1_custom_product_contain_oxygen_bond_distance_aromatic_linkinvent_7_9_3/rearranged_h_0146.sdf

> <i_m_source_file_index>
85

> <r_mmod_Potential_Energy-OPLS-2005>
108.15990447998

> <r_mmod_Stretch_Energy-OPLS-2005>
73.4755172729492

> <r_mmod_Bend_Energy-OPLS-2005>
161.788589477539

> <r_mmod_Torsional_Energy-OPLS-2005>
250.502151489258

> <r_mmod_Improper_Torsional_Energy-OPLS-2005>
5.30909729003906

> <r_mmod_Van_der_Waal_Energy-OPLS-2005>
134.316909790039

> <r_mmod_Electrostatic_Energy-OPLS-2005>
-358.233245849609

> <r_mmod_Solvation_Energy-OPLS-2005>
-203.753753662109

> <b_mmod_Minimization_Converged-OPLS-2005>
0

> <r_mmod_RMS_Derivative-OPLS-2005>
2.72310304641724

$$$$
85
                    3D
 Structure written by MMmdl.
164173  0  0  1  0            999 V2000
  -30.6685  -14.5850   20.4909 C   0  0  0  0  0  0
  -30.4365  -12.3524   19.4351 C   0  0  0  0  0  0
  -29.4957  -12.4683   18.2154 C   0  0  0  0  0  0
  -28.0261  -12.3065   18.6482 C   0  0  0  0  0  0
  -27.6551  -13.2037   19.8575 C   0  0  2  0  0  0
  -28.7088  -13.0839   20.9840 C   0  0  0  0  0  0
  -25.2617  -13.8162   20.5747 C   0  0  0  0  0  0
  -24.1870  -13.0437   20.9228 C   0  0  0  0  0  0
  -24.6415  -11.6909   20.8785 C   0  0  0  0  0  0
  -23.9095  -10.4286   21.0432 C   0  0  0  0  0  0
  -24.3643   -9.4205   21.9205 C   0  0  0  0  0  0
  -23.6315   -8.2248   22.0752 C   0  0  0  0  0  0
  -22.4293   -8.0288   21.3544 C   0  0  0  0  0  0
  -21.9936   -9.0273   20.4640 C   0  0  0  0  0  0
  -22.7271  -10.2152   20.3065 C   0  0  0  0  0  0
  -21.6847   -6.0754   22.5287 C   0  0  0  0  0  0
  -21.4011   -6.5659   23.8214 C   0  0  0  0  0  0
  -21.3659   -5.6816   24.9167 C   0  0  0  0  0  0
  -21.6020   -4.3077   24.7222 C   0  0  0  0  0  0
  -21.8821   -3.8170   23.4340 C   0  0  0  0  0  0
  -21.9192   -4.6982   22.3401 C   0  0  0  0  0  0
  -22.7889  -13.5241   21.1879 C   0  0  0  0  0  0
  -22.1667   -4.2168   21.0974 F   0  0  0  0  0  0
  -21.5621   -3.4561   25.7737 F   0  0  0  0  0  0
  -30.0259  -13.3856   20.3987 N   0  0  0  0  0  0
  -26.3026  -12.9312   20.3384 N   0  0  0  0  0  0
  -25.9328  -11.6485   20.5809 N   0  0  0  0  0  0
  -22.0537  -12.8202   22.0403 N   0  0  0  0  0  0
  -25.4354  -15.1874   20.4192 N   0  0  0  0  0  0
  -31.8612  -14.7272   20.2112 O   0  0  0  0  0  0
  -21.6632   -6.8906   21.4251 O   0  0  0  0  0  0
  -22.3595  -14.5568   20.6734 O   0  0  0  0  0  0
  -24.6185  -31.8652   23.2073 C   0  0  0  0  0  0
  -25.9058  -32.4796   23.8379 C   0  0  1  0  0  0
  -27.2467  -27.4082   20.0879 C   0  0  0  0  0  0
  -25.5901  -33.8593   24.2299 N   0  0  0  0  0  0
  -23.4079  -30.4899   21.5500 C   0  0  2  0  0  0
  -24.8537  -28.9458   20.1206 C   0  0  0  0  0  0
  -22.7433  -29.4667   22.4983 C   0  0  0  0  0  0
  -18.0309  -28.1389   22.8481 C   0  0  0  0  0  0
  -24.1494  -36.7320   23.2646 C   0  0  0  0  0  0
  -25.9410  -30.8228   21.3632 C   0  0  0  0  0  0
  -26.0194  -29.4543   20.7098 C   0  0  0  0  0  0
  -27.2190  -28.6979   20.6791 C   0  0  0  0  0  0
  -26.0535  -26.9109   19.5187 C   0  0  0  0  0  0
  -24.8671  -27.6708   19.5288 C   0  0  0  0  0  0
  -23.6187  -29.8191   20.1661 C   0  0  0  0  0  0
  -25.4109  -36.3085   24.0328 C   0  0  1  0  0  0
  -20.5893  -28.3680   23.1323 C   0  0  2  0  0  0
  -20.6797  -26.9404   22.5451 C   0  0  0  0  0  0
  -19.5806  -26.6388   21.5215 C   0  0  0  0  0  0
  -18.1962  -26.7946   22.1583 C   0  0  0  0  0  0
  -19.1548  -28.8848   23.2910 C   0  0  0  0  0  0
  -18.9458  -30.1450   23.8905 C   0  0  0  0  0  0
  -17.6468  -30.6582   24.0560 C   0  0  0  0  0  0
  -25.9035  -34.9452   23.5100 C   0  0  0  0  0  0
  -16.5358  -29.9076   23.6335 C   0  0  0  0  0  0
  -16.7291  -28.6504   23.0318 C   0  0  0  0  0  0
  -26.4483  -31.6593   25.0723 C   0  0  0  0  0  0
  -25.3764  -31.3697   26.1480 C   0  0  0  0  0  0
  -27.0330  -30.3033   24.6120 C   0  0  0  0  0  0
  -27.6044  -32.4327   25.7494 C   0  0  0  0  0  0
  -27.5578  -37.1814   24.8463 C   0  0  0  0  0  0
  -21.4157  -29.3050   22.3717 N   0  0  0  0  0  0
  -26.4288  -37.3776   23.9402 N   0  0  0  0  0  0
  -24.6747  -31.0731   22.0992 N   0  0  0  0  0  0
  -23.4191  -28.8206   23.3026 O   0  0  0  0  0  0
  -28.4208  -26.6718   20.0065 O   0  0  0  0  0  0
  -26.5613  -34.8911   22.4674 O   0  0  0  0  0  0
  -23.5353  -32.1392   23.7451 O   0  0  0  0  0  0
  -30.2209  -18.1478   20.3208 C   0  0  0  0  0  0
  -30.0305  -19.5537   22.3065 C   0  0  0  0  0  0
  -29.8604  -17.1284   22.5075 C   0  0  0  0  0  0
  -30.1901  -19.4552   20.9075 C   0  0  0  0  0  0
  -30.0448  -16.9689   21.1169 C   0  0  0  0  0  0
  -29.8723  -18.4041   23.0995 C   0  0  0  0  0  0
  -30.4386  -20.7362   20.1214 C   0  0  0  0  0  0
  -27.5152  -23.0418   20.2376 C   0  0  0  0  0  0
  -28.1371  -21.6360   20.3653 C   0  0  0  0  0  0
  -29.9244  -23.2253   20.1457 C   0  0  0  0  0  0
  -28.6225  -24.0493   19.8405 C   0  0  2  0  0  0
  -28.6410  -23.1895   17.3478 C   0  0  0  0  0  0
  -28.5918  -24.3841   18.3209 C   0  0  0  0  0  0
  -28.4660  -25.3914   20.6869 C   0  0  0  0  0  0
  -29.5836  -21.7904   20.2932 N   0  0  0  0  0  0
  -29.8338  -15.6525   20.5654 N   0  0  0  0  0  0
  -31.4675  -20.8277   19.4477 O   0  0  0  0  0  0
  -29.7098  -18.5314   24.4382 F   0  0  0  0  0  0
  -31.4787  -12.4576   19.1322 H   0  0  0  0  0  0
  -30.3522  -11.3636   19.8892 H   0  0  0  0  0  0
  -29.7414  -11.7004   17.4814 H   0  0  0  0  0  0
  -29.6354  -13.4301   17.7203 H   0  0  0  0  0  0
  -27.8852  -11.2569   18.9144 H   0  0  0  0  0  0
  -27.3552  -12.5001   17.8094 H   0  0  0  0  0  0
  -27.6678  -14.2265   19.4849 H   0  0  0  0  0  0
  -28.4736  -13.7634   21.8055 H   0  0  0  0  0  0
  -28.7119  -12.0822   21.4170 H   0  0  0  0  0  0
  -25.2789   -9.5669   22.4772 H   0  0  0  0  0  0
  -24.0002   -7.4636   22.7473 H   0  0  0  0  0  0
  -21.0864   -8.8813   19.8952 H   0  0  0  0  0  0
  -22.3755  -10.9700   19.6171 H   0  0  0  0  0  0
  -21.2014   -7.6167   23.9726 H   0  0  0  0  0  0
  -21.1473   -6.0539   25.9074 H   0  0  0  0  0  0
  -22.0598   -2.7631   23.2836 H   0  0  0  0  0  0
  -22.4159  -11.9809   22.4674 H   0  0  0  0  0  0
  -21.1158  -13.1204   22.2663 H   0  0  0  0  0  0
  -24.6757  -15.8457   20.5426 H   0  0  0  0  0  0
  -26.2790  -15.6299   20.0763 H   0  0  0  0  0  0
  -26.7134  -32.5467   23.1143 H   0  0  0  0  0  0
  -25.0032  -33.9774   25.0424 H   0  0  0  0  0  0
  -22.6962  -31.3057   21.4062 H   0  0  0  0  0  0
  -23.3724  -35.9691   23.3333 H   0  0  0  0  0  0
  -24.3581  -36.8913   22.2056 H   0  0  0  0  0  0
  -23.7294  -37.6546   23.6656 H   0  0  0  0  0  0
  -26.0595  -31.5921   20.5981 H   0  0  0  0  0  0
  -26.8259  -30.8699   21.9856 H   0  0  0  0  0  0
  -28.1242  -29.1044   21.1078 H   0  0  0  0  0  0
  -26.0368  -25.9387   19.0513 H   0  0  0  0  0  0
  -23.9698  -27.2684   19.0776 H   0  0  0  0  0  0
  -23.7304  -30.5927   19.4047 H   0  0  0  0  0  0
  -22.7396  -29.2444   19.8653 H   0  0  0  0  0  0
  -25.1298  -36.1946   25.0822 H   0  0  0  0  0  0
  -20.9986  -28.3288   24.1447 H   0  0  0  0  0  0
  -20.5651  -26.2311   23.3648 H   0  0  0  0  0  0
  -21.6680  -26.7426   22.1295 H   0  0  0  0  0  0
  -19.6959  -25.6298   21.1250 H   0  0  0  0  0  0
  -19.6764  -27.3213   20.6765 H   0  0  0  0  0  0
  -17.4268  -26.6741   21.3942 H   0  0  0  0  0  0
  -18.0294  -26.0060   22.8934 H   0  0  0  0  0  0
  -19.7929  -30.7267   24.2288 H   0  0  0  0  0  0
  -17.5020  -31.6253   24.5187 H   0  0  0  0  0  0
  -15.5369  -30.2977   23.7646 H   0  0  0  0  0  0
  -15.8698  -28.0832   22.6999 H   0  0  0  0  0  0
  -24.5893  -30.7103   25.7818 H   0  0  0  0  0  0
  -24.9021  -32.2854   26.5002 H   0  0  0  0  0  0
  -25.8121  -30.8796   27.0193 H   0  0  0  0  0  0
  -26.2875  -29.6763   24.1210 H   0  0  0  0  0  0
  -27.4137  -29.7299   25.4584 H   0  0  0  0  0  0
  -27.8697  -30.4352   23.9259 H   0  0  0  0  0  0
  -27.2635  -33.3587   26.2131 H   0  0  0  0  0  0
  -28.3826  -32.6948   25.0321 H   0  0  0  0  0  0
  -28.0750  -31.8427   26.5362 H   0  0  0  0  0  0
  -28.2608  -38.0102   24.7455 H   0  0  0  0  0  0
  -28.1063  -36.2613   24.6343 H   0  0  0  0  0  0
  -27.2294  -37.1537   25.8873 H   0  0  0  0  0  0
  -20.9328  -29.8744   21.6893 H   0  0  0  0  0  0
  -26.0169  -38.2860   24.1367 H   0  0  0  0  0  0
  -30.3424  -18.0644   19.2497 H   0  0  0  0  0  0
  -30.0360  -20.5215   22.7896 H   0  0  0  0  0  0
  -29.6776  -16.2709   23.1388 H   0  0  0  0  0  0
  -27.0801  -23.2882   21.2054 H   0  0  0  0  0  0
  -26.6816  -23.0555   19.5333 H   0  0  0  0  0  0
  -27.8092  -20.9966   19.5430 H   0  0  0  0  0  0
  -27.8384  -21.1504   21.2972 H   0  0  0  0  0  0
  -30.3922  -23.5451   21.0768 H   0  0  0  0  0  0
  -30.6862  -23.3769   19.3763 H   0  0  0  0  0  0
  -28.7145  -23.5406   16.3179 H   0  0  0  0  0  0
  -27.7407  -22.5806   17.4159 H   0  0  0  0  0  0
  -29.4966  -22.5380   17.5248 H   0  0  0  0  0  0
  -29.4326  -25.0408   18.0929 H   0  0  0  0  0  0
  -27.7034  -24.9676   18.0878 H   0  0  0  0  0  0
  -29.3123  -25.4724   21.3662 H   0  0  0  0  0  0
  -27.6102  -25.3332   21.3596 H   0  0  0  0  0  0
  -28.8687  -15.3685   20.5308 H   0  0  0  0  0  0
  1 25  1  0  0  0
  1 30  2  0  0  0
  1 86  1  0  0  0
  2  3  1  0  0  0
  2 25  1  0  0  0
  2 89  1  0  0  0
  2 90  1  0  0  0
  3  4  1  0  0  0
  3 91  1  0  0  0
  3 92  1  0  0  0
  4  5  1  0  0  0
  4 93  1  0  0  0
  4 94  1  0  0  0
  5  6  1  0  0  0
  5 26  1  0  0  0
  5 95  1  0  0  0
  6 25  1  0  0  0
  6 96  1  0  0  0
  6 97  1  0  0  0
  7  8  2  0  0  0
  7 26  1  0  0  0
  7 29  1  0  0  0
  8  9  1  0  0  0
  8 22  1  0  0  0
  9 10  1  0  0  0
  9 27  2  0  0  0
 10 11  2  0  0  0
 10 15  1  0  0  0
 11 12  1  0  0  0
 11 98  1  0  0  0
 12 13  2  0  0  0
 12 99  1  0  0  0
 13 14  1  0  0  0
 13 31  1  0  0  0
 14 15  2  0  0  0
 14100  1  0  0  0
 15101  1  0  0  0
 16 17  2  0  0  0
 16 21  1  0  0  0
 16 31  1  0  0  0
 17 18  1  0  0  0
 17102  1  0  0  0
 18 19  2  0  0  0
 18103  1  0  0  0
 19 20  1  0  0  0
 19 24  1  0  0  0
 20 21  2  0  0  0
 20104  1  0  0  0
 21 23  1  0  0  0
 22 28  1  0  0  0
 22 32  2  0  0  0
 26 27  1  0  0  0
 28105  1  0  0  0
 28106  1  0  0  0
 29107  1  0  0  0
 29108  1  0  0  0
 33 34  1  0  0  0
 33 66  1  0  0  0
 33 70  2  0  0  0
 34 36  1  0  0  0
 34 59  1  0  0  0
 34109  1  0  0  0
 35 44  2  0  0  0
 35 45  1  0  0  0
 35 68  1  0  0  0
 36 56  1  0  0  0
 36110  1  0  0  0
 37 39  1  0  0  0
 37 47  1  0  0  0
 37 66  1  0  0  0
 37111  1  0  0  0
 38 43  2  0  0  0
 38 46  1  0  0  0
 38 47  1  0  0  0
 39 64  1  0  0  0
 39 67  2  0  0  0
 40 52  1  0  0  0
 40 53  2  0  0  0
 40 58  1  0  0  0
 41112  1  0  0  0
 41113  1  0  0  0
 41114  1  0  0  0
 41 48  1  0  0  0
 42 43  1  0  0  0
 42 66  1  0  0  0
 42115  1  0  0  0
 42116  1  0  0  0
 43 44  1  0  0  0
 44117  1  0  0  0
 45 46  2  0  0  0
 45118  1  0  0  0
 46119  1  0  0  0
 47120  1  0  0  0
 47121  1  0  0  0
 48 56  1  0  0  0
 48 65  1  0  0  0
 48122  1  0  0  0
 49 50  1  0  0  0
 49 53  1  0  0  0
 49 64  1  0  0  0
 49123  1  0  0  0
 50 51  1  0  0  0
 50124  1  0  0  0
 50125  1  0  0  0
 51 52  1  0  0  0
 51126  1  0  0  0
 51127  1  0  0  0
 52128  1  0  0  0
 52129  1  0  0  0
 53 54  1  0  0  0
 54 55  2  0  0  0
 54130  1  0  0  0
 55 57  1  0  0  0
 55131  1  0  0  0
 56 69  2  0  0  0
 57 58  2  0  0  0
 57132  1  0  0  0
 58133  1  0  0  0
 59 60  1  0  0  0
 59 61  1  0  0  0
 59 62  1  0  0  0
 60134  1  0  0  0
 60135  1  0  0  0
 60136  1  0  0  0
 61137  1  0  0  0
 61138  1  0  0  0
 61139  1  0  0  0
 62140  1  0  0  0
 62141  1  0  0  0
 62142  1  0  0  0
 63 65  1  0  0  0
 63143  1  0  0  0
 63144  1  0  0  0
 63145  1  0  0  0
 64146  1  0  0  0
 65147  1  0  0  0
 68 84  1  0  0  0
 71 74  2  0  0  0
 71 75  1  0  0  0
 71148  1  0  0  0
 72 74  1  0  0  0
 72 76  2  0  0  0
 72149  1  0  0  0
 73 75  2  0  0  0
 73 76  1  0  0  0
 73150  1  0  0  0
 74 77  1  0  0  0
 75 86  1  0  0  0
 76 88  1  0  0  0
 77 85  1  0  0  0
 77 87  2  0  0  0
 78 79  1  0  0  0
 78 81  1  0  0  0
 78151  1  0  0  0
 78152  1  0  0  0
 79 85  1  0  0  0
 79153  1  0  0  0
 79154  1  0  0  0
 80 81  1  0  0  0
 80 85  1  0  0  0
 80155  1  0  0  0
 80156  1  0  0  0
 81 83  1  0  0  0
 81 84  1  0  0  0
 82 83  1  0  0  0
 82157  1  0  0  0
 82158  1  0  0  0
 82159  1  0  0  0
 83160  1  0  0  0
 83161  1  0  0  0
 84162  1  0  0  0
 84163  1  0  0  0
 86164  1  0  0  0
M  ISO  4   1 100  68 101  84 101  86 100
M  END
> <chiral flag>
0

> <version>
0

> <s_m_source_file>
/data/baiqing/PycharmProjects/Reinvent-master-3.2/result/LINK_invent/BTK/process_docking_weight1_custom_product_contain_oxygen_bond_distance_aromatic_linkinvent_7_9_3/rearranged_h_0146.sdf

> <i_m_source_file_index>
86

> <r_mmod_Potential_Energy-OPLS-2005>
212.733764648438

> <r_mmod_Stretch_Energy-OPLS-2005>
56.1488227844238

> <r_mmod_Bend_Energy-OPLS-2005>
131.502090454102

> <r_mmod_Torsional_Energy-OPLS-2005>
430.620269775391

> <r_mmod_Improper_Torsional_Energy-OPLS-2005>
13.149790763855

> <r_mmod_Van_der_Waal_Energy-OPLS-2005>
138.800979614258

> <r_mmod_Electrostatic_Energy-OPLS-2005>
-365.769378662109

> <r_mmod_Solvation_Energy-OPLS-2005>
-221.381912231445

> <b_mmod_Minimization_Converged-OPLS-2005>
0

> <r_mmod_RMS_Derivative-OPLS-2005>
4.3509087562561

$$$$
86
                    3D
 Structure written by MMmdl.
159168  0  0  1  0            999 V2000
  -30.6347  -14.7160   20.5176 C   0  0  0  0  0  0
  -30.4385  -12.4472   19.4642 C   0  0  0  0  0  0
  -29.5102  -12.5396   18.2316 C   0  0  0  0  0  0
  -28.0313  -12.3810   18.6413 C   0  0  0  0  0  0
  -27.6588  -13.2402   19.8788 C   0  0  2  0  0  0
  -28.7073  -13.1159   21.0038 C   0  0  0  0  0  0
  -25.2574  -13.8229   20.5701 C   0  0  0  0  0  0
  -24.1851  -13.0458   20.9160 C   0  0  0  0  0  0
  -24.6453  -11.6941   20.8754 C   0  0  0  0  0  0
  -23.9130  -10.4301   21.0398 C   0  0  0  0  0  0
  -24.3666   -9.4210   21.9174 C   0  0  0  0  0  0
  -23.6306   -8.2260   22.0755 C   0  0  0  0  0  0
  -22.4296   -8.0291   21.3551 C   0  0  0  0  0  0
  -21.9940   -9.0282   20.4673 C   0  0  0  0  0  0
  -22.7289  -10.2147   20.3065 C   0  0  0  0  0  0
  -21.6858   -6.0722   22.5270 C   0  0  0  0  0  0
  -21.4055   -6.5622   23.8213 C   0  0  0  0  0  0
  -21.3679   -5.6767   24.9170 C   0  0  0  0  0  0
  -21.6032   -4.3025   24.7219 C   0  0  0  0  0  0
  -21.8828   -3.8121   23.4345 C   0  0  0  0  0  0
  -21.9208   -4.6941   22.3396 C   0  0  0  0  0  0
  -22.7869  -13.5218   21.1811 C   0  0  0  0  0  0
  -22.1650   -4.2122   21.0977 F   0  0  0  0  0  0
  -21.5633   -3.4519   25.7747 F   0  0  0  0  0  0
  -30.0119  -13.4843   20.4355 N   0  0  0  0  0  0
  -26.3056  -12.9452   20.3431 N   0  0  0  0  0  0
  -25.9419  -11.6591   20.5828 N   0  0  0  0  0  0
  -22.0514  -12.8241   22.0395 N   0  0  0  0  0  0
  -25.4259  -15.1938   20.4110 N   0  0  0  0  0  0
  -31.7525  -14.8684   20.0147 O   0  0  0  0  0  0
  -21.6656   -6.8881   21.4241 O   0  0  0  0  0  0
  -22.3545  -14.5493   20.6608 O   0  0  0  0  0  0
  -24.6289  -31.8561   23.1965 C   0  0  0  0  0  0
  -25.9136  -32.4745   23.8283 C   0  0  1  0  0  0
  -27.2115  -27.2644   20.1136 C   0  0  0  0  0  0
  -25.5950  -33.8539   24.2206 N   0  0  0  0  0  0
  -23.4186  -30.4806   21.5425 C   0  0  2  0  0  0
  -24.8664  -28.9264   20.1098 C   0  0  0  0  0  0
  -22.7485  -29.4601   22.4924 C   0  0  0  0  0  0
  -18.0307  -28.1356   22.8523 C   0  0  0  0  0  0
  -24.1486  -36.7268   23.2632 C   0  0  0  0  0  0
  -25.9631  -30.7768   21.3627 C   0  0  0  0  0  0
  -26.0411  -29.3952   20.7085 C   0  0  0  0  0  0
  -27.2207  -28.5784   20.6940 C   0  0  0  0  0  0
  -26.0108  -26.8634   19.4898 C   0  0  0  0  0  0
  -24.8539  -27.6660   19.4922 C   0  0  0  0  0  0
  -23.6356  -29.8134   20.1585 C   0  0  0  0  0  0
  -25.4126  -36.3043   24.0297 C   0  0  1  0  0  0
  -20.5926  -28.3635   23.1309 C   0  0  2  0  0  0
  -20.6784  -26.9348   22.5432 C   0  0  0  0  0  0
  -19.5749  -26.6340   21.5234 C   0  0  0  0  0  0
  -18.1936  -26.7906   22.1628 C   0  0  0  0  0  0
  -19.1576  -28.8820   23.2904 C   0  0  0  0  0  0
  -18.9472  -30.1450   23.8871 C   0  0  0  0  0  0
  -17.6465  -30.6562   24.0554 C   0  0  0  0  0  0
  -25.9064  -34.9424   23.5047 C   0  0  0  0  0  0
  -16.5364  -29.9046   23.6324 C   0  0  0  0  0  0
  -16.7288  -28.6465   23.0345 C   0  0  0  0  0  0
  -26.4518  -31.6553   25.0643 C   0  0  0  0  0  0
  -25.3760  -31.3712   26.1383 C   0  0  0  0  0  0
  -27.0375  -30.2989   24.6054 C   0  0  0  0  0  0
  -27.6051  -32.4286   25.7453 C   0  0  0  0  0  0
  -27.5576  -37.1787   24.8465 C   0  0  0  0  0  0
  -21.4200  -29.2984   22.3696 N   0  0  0  0  0  0
  -26.4279  -37.3773   23.9428 N   0  0  0  0  0  0
  -24.6898  -31.0550   22.0914 N   0  0  0  0  0  0
  -23.4209  -28.8118   23.2990 O   0  0  0  0  0  0
  -28.3151  -26.3751   20.1139 O   0  0  0  0  0  0
  -26.5622  -34.8895   22.4604 O   0  0  0  0  0  0
  -23.5441  -32.1368   23.7276 O   0  0  0  0  0  0
  -29.8304  -21.2767   20.9397 C   0  0  0  0  0  0
  -29.5303  -19.9723   20.5392 C   0  0  0  0  0  0
  -29.0577  -22.2246   20.1536 C   0  0  0  0  0  0
  -30.6854  -17.1218   23.0023 C   0  0  0  0  0  0
  -30.0949  -18.4460   22.4990 C   0  0  0  0  0  0
  -29.8754  -15.9194   22.4941 C   0  0  0  0  0  0
  -29.5416  -17.1346   20.3522 C   0  0  0  0  0  0
  -30.0846  -18.5391   20.9620 C   0  0  1  0  0  0
  -28.1009  -24.9658   22.0249 C   0  0  0  0  0  0
  -29.1846  -23.8117   19.9631 C   0  0  0  0  0  0
  -28.1200  -24.9230   20.4886 C   0  0  2  0  0  0
  -28.3001  -21.4810   19.3413 N   0  0  0  0  0  0
  -29.9343  -15.8066   21.0316 N   0  0  0  0  0  0
  -28.5802  -20.1051   19.5680 O   0  0  0  0  0  0
  -31.4772  -12.5681   19.1536 H   0  0  0  0  0  0
  -30.3836  -11.4530   19.9105 H   0  0  0  0  0  0
  -29.7765  -11.7779   17.4997 H   0  0  0  0  0  0
  -29.6538  -13.5022   17.7402 H   0  0  0  0  0  0
  -27.8544  -11.3252   18.8479 H   0  0  0  0  0  0
  -27.3806  -12.6436   17.8056 H   0  0  0  0  0  0
  -27.6760  -14.2796   19.5522 H   0  0  0  0  0  0
  -28.7427  -12.0990   21.3941 H   0  0  0  0  0  0
  -28.4390  -13.7553   21.8432 H   0  0  0  0  0  0
  -25.2834   -9.5650   22.4717 H   0  0  0  0  0  0
  -24.0000   -7.4669   22.7500 H   0  0  0  0  0  0
  -21.0837   -8.8819   19.9011 H   0  0  0  0  0  0
  -22.3744  -10.9677   19.6153 H   0  0  0  0  0  0
  -21.2063   -7.6131   23.9704 H   0  0  0  0  0  0
  -21.1487   -6.0499   25.9066 H   0  0  0  0  0  0
  -22.0595   -2.7574   23.2854 H   0  0  0  0  0  0
  -22.4122  -11.9912   22.4817 H   0  0  0  0  0  0
  -21.1169  -13.1335   22.2666 H   0  0  0  0  0  0
  -24.6579  -15.8483   20.5222 H   0  0  0  0  0  0
  -26.2894  -15.6378   20.1257 H   0  0  0  0  0  0
  -26.7158  -32.5415   23.0986 H   0  0  0  0  0  0
  -25.0162  -33.9661   25.0394 H   0  0  0  0  0  0
  -22.7087  -31.2981   21.4015 H   0  0  0  0  0  0
  -23.3742  -35.9609   23.3297 H   0  0  0  0  0  0
  -24.3568  -36.8899   22.2044 H   0  0  0  0  0  0
  -23.7232  -37.6462   23.6672 H   0  0  0  0  0  0
  -26.0784  -31.5376   20.5916 H   0  0  0  0  0  0
  -26.8494  -30.8421   21.9826 H   0  0  0  0  0  0
  -28.1240  -28.9371   21.1622 H   0  0  0  0  0  0
  -25.9418  -25.9059   18.9942 H   0  0  0  0  0  0
  -23.9553  -27.3020   19.0152 H   0  0  0  0  0  0
  -23.7444  -30.5917   19.4027 H   0  0  0  0  0  0
  -22.7514  -29.2487   19.8583 H   0  0  0  0  0  0
  -25.1323  -36.1856   25.0790 H   0  0  0  0  0  0
  -21.0032  -28.3176   24.1417 H   0  0  0  0  0  0
  -20.5685  -26.2209   23.3614 H   0  0  0  0  0  0
  -21.6641  -26.7347   22.1217 H   0  0  0  0  0  0
  -19.6878  -25.6255   21.1234 H   0  0  0  0  0  0
  -19.6697  -27.3170   20.6798 H   0  0  0  0  0  0
  -17.4216  -26.6712   21.4018 H   0  0  0  0  0  0
  -18.0284  -26.0057   22.9018 H   0  0  0  0  0  0
  -19.7944  -30.7320   24.2157 H   0  0  0  0  0  0
  -17.4997  -31.6239   24.5159 H   0  0  0  0  0  0
  -15.5351  -30.2896   23.7680 H   0  0  0  0  0  0
  -15.8712  -28.0765   22.7032 H   0  0  0  0  0  0
  -24.5944  -30.7035   25.7724 H   0  0  0  0  0  0
  -24.8961  -32.2911   26.4756 H   0  0  0  0  0  0
  -25.8112  -30.8925   27.0173 H   0  0  0  0  0  0
  -26.2935  -29.6721   24.1128 H   0  0  0  0  0  0
  -27.4187  -29.7237   25.4508 H   0  0  0  0  0  0
  -27.8738  -30.4310   23.9183 H   0  0  0  0  0  0
  -27.2649  -33.3606   26.1997 H   0  0  0  0  0  0
  -28.3939  -32.6824   25.0349 H   0  0  0  0  0  0
  -28.0651  -31.8428   26.5437 H   0  0  0  0  0  0
  -28.2584  -38.0103   24.7541 H   0  0  0  0  0  0
  -28.1054  -36.2613   24.6247 H   0  0  0  0  0  0
  -27.2260  -37.1403   25.8858 H   0  0  0  0  0  0
  -20.9323  -29.8731   21.6980 H   0  0  0  0  0  0
  -26.0109  -38.2809   24.1523 H   0  0  0  0  0  0
  -30.5797  -21.5319   21.6755 H   0  0  0  0  0  0
  -30.6934  -17.1138   24.0942 H   0  0  0  0  0  0
  -31.7256  -17.0404   22.6839 H   0  0  0  0  0  0
  -30.6681  -19.2710   22.9259 H   0  0  0  0  0  0
  -29.0766  -18.5643   22.8711 H   0  0  0  0  0  0
  -28.8331  -16.0109   22.8001 H   0  0  0  0  0  0
  -30.2636  -15.0199   22.9767 H   0  0  0  0  0  0
  -28.4526  -17.1618   20.3988 H   0  0  0  0  0  0
  -29.7748  -17.0776   19.2872 H   0  0  0  0  0  0
  -31.1376  -18.5555   20.6684 H   0  0  0  0  0  0
  -27.9388  -23.9790   22.4634 H   0  0  0  0  0  0
  -27.3107  -25.6261   22.3875 H   0  0  0  0  0  0
  -29.0500  -25.3553   22.3992 H   0  0  0  0  0  0
  -29.2722  -23.9848   18.8911 H   0  0  0  0  0  0
  -30.1596  -24.1058   20.3517 H   0  0  0  0  0  0
  -27.1478  -24.5748   20.1471 H   0  0  0  0  0  0
  1 25  1  0  0  0
  1 30  2  0  0  0
  1 83  1  0  0  0
  2  3  1  0  0  0
  2 25  1  0  0  0
  2 85  1  0  0  0
  2 86  1  0  0  0
  3  4  1  0  0  0
  3 87  1  0  0  0
  3 88  1  0  0  0
  4  5  1  0  0  0
  4 89  1  0  0  0
  4 90  1  0  0  0
  5  6  1  0  0  0
  5 26  1  0  0  0
  5 91  1  0  0  0
  6 25  1  0  0  0
  6 92  1  0  0  0
  6 93  1  0  0  0
  7  8  2  0  0  0
  7 26  1  0  0  0
  7 29  1  0  0  0
  8  9  1  0  0  0
  8 22  1  0  0  0
  9 10  1  0  0  0
  9 27  2  0  0  0
 10 11  2  0  0  0
 10 15  1  0  0  0
 11 12  1  0  0  0
 11 94  1  0  0  0
 12 13  2  0  0  0
 12 95  1  0  0  0
 13 14  1  0  0  0
 13 31  1  0  0  0
 14 15  2  0  0  0
 14 96  1  0  0  0
 15 97  1  0  0  0
 16 17  2  0  0  0
 16 21  1  0  0  0
 16 31  1  0  0  0
 17 18  1  0  0  0
 17 98  1  0  0  0
 18 19  2  0  0  0
 18 99  1  0  0  0
 19 20  1  0  0  0
 19 24  1  0  0  0
 20 21  2  0  0  0
 20100  1  0  0  0
 21 23  1  0  0  0
 22 28  1  0  0  0
 22 32  2  0  0  0
 26 27  1  0  0  0
 28101  1  0  0  0
 28102  1  0  0  0
 29103  1  0  0  0
 29104  1  0  0  0
 33 34  1  0  0  0
 33 66  1  0  0  0
 33 70  2  0  0  0
 34 36  1  0  0  0
 34 59  1  0  0  0
 34105  1  0  0  0
 35 44  2  0  0  0
 35 45  1  0  0  0
 35 68  1  0  0  0
 36 56  1  0  0  0
 36106  1  0  0  0
 37 39  1  0  0  0
 37 47  1  0  0  0
 37 66  1  0  0  0
 37107  1  0  0  0
 38 43  2  0  0  0
 38 46  1  0  0  0
 38 47  1  0  0  0
 39 64  1  0  0  0
 39 67  2  0  0  0
 40 52  1  0  0  0
 40 53  2  0  0  0
 40 58  1  0  0  0
 41108  1  0  0  0
 41109  1  0  0  0
 41110  1  0  0  0
 41 48  1  0  0  0
 42 43  1  0  0  0
 42 66  1  0  0  0
 42111  1  0  0  0
 42112  1  0  0  0
 43 44  1  0  0  0
 44113  1  0  0  0
 45 46  2  0  0  0
 45114  1  0  0  0
 46115  1  0  0  0
 47116  1  0  0  0
 47117  1  0  0  0
 48 56  1  0  0  0
 48 65  1  0  0  0
 48118  1  0  0  0
 49 50  1  0  0  0
 49 53  1  0  0  0
 49 64  1  0  0  0
 49119  1  0  0  0
 50 51  1  0  0  0
 50120  1  0  0  0
 50121  1  0  0  0
 51 52  1  0  0  0
 51122  1  0  0  0
 51123  1  0  0  0
 52124  1  0  0  0
 52125  1  0  0  0
 53 54  1  0  0  0
 54 55  2  0  0  0
 54126  1  0  0  0
 55 57  1  0  0  0
 55127  1  0  0  0
 56 69  2  0  0  0
 57 58  2  0  0  0
 57128  1  0  0  0
 58129  1  0  0  0
 59 60  1  0  0  0
 59 61  1  0  0  0
 59 62  1  0  0  0
 60130  1  0  0  0
 60131  1  0  0  0
 60132  1  0  0  0
 61133  1  0  0  0
 61134  1  0  0  0
 61135  1  0  0  0
 62136  1  0  0  0
 62137  1  0  0  0
 62138  1  0  0  0
 63 65  1  0  0  0
 63139  1  0  0  0
 63140  1  0  0  0
 63141  1  0  0  0
 64142  1  0  0  0
 65143  1  0  0  0
 68 81  1  0  0  0
 71 72  2  0  0  0
 71 73  1  0  0  0
 71144  1  0  0  0
 72 84  1  0  0  0
 72 78  1  0  0  0
 73 80  1  0  0  0
 73 82  2  0  0  0
 74 75  1  0  0  0
 74 76  1  0  0  0
 74145  1  0  0  0
 74146  1  0  0  0
 75 78  1  0  0  0
 75147  1  0  0  0
 75148  1  0  0  0
 76 83  1  0  0  0
 76149  1  0  0  0
 76150  1  0  0  0
 77 78  1  0  0  0
 77 83  1  0  0  0
 77151  1  0  0  0
 77152  1  0  0  0
 78153  1  0  0  0
 79154  1  0  0  0
 79155  1  0  0  0
 79156  1  0  0  0
 79 81  1  0  0  0
 80 81  1  0  0  0
 80157  1  0  0  0
 80158  1  0  0  0
 81159  1  0  0  0
 82 84  1  0  0  0
M  ISO  4   1 100  68 101  81 101  83 100
M  END
> <chiral flag>
0

> <version>
0

> <s_m_source_file>
/data/baiqing/PycharmProjects/Reinvent-master-3.2/result/LINK_invent/BTK/process_docking_weight1_custom_product_contain_oxygen_bond_distance_aromatic_linkinvent_7_9_3/rearranged_h_0146.sdf

> <i_m_source_file_index>
87

> <r_mmod_Potential_Energy-OPLS-2005>
360.330047607422

> <r_mmod_Stretch_Energy-OPLS-2005>
133.541656494141

> <r_mmod_Bend_Energy-OPLS-2005>
184.880035400391

> <r_mmod_Torsional_Energy-OPLS-2005>
344.055786132812

> <r_mmod_Improper_Torsional_Energy-OPLS-2005>
5.2386360168457

> <r_mmod_Van_der_Waal_Energy-OPLS-2005>
115.061653137207

> <r_mmod_Electrostatic_Energy-OPLS-2005>
-287.435943603516

> <r_mmod_Solvation_Energy-OPLS-2005>
-207.291259765625

> <b_mmod_Minimization_Converged-OPLS-2005>
0

> <r_mmod_RMS_Derivative-OPLS-2005>
5.16590261459351

$$$$
87
                    3D
 Structure written by MMmdl.
166175  0  0  1  0            999 V2000
  -30.5262  -14.7452   20.5926 C   0  0  0  0  0  0
  -30.4466  -12.4919   19.4550 C   0  0  0  0  0  0
  -29.4968  -12.5199   18.2281 C   0  0  0  0  0  0
  -28.0179  -12.3519   18.6651 C   0  0  0  0  0  0
  -27.6440  -13.1957   19.9168 C   0  0  2  0  0  0
  -28.7150  -12.9342   21.0065 C   0  0  0  0  0  0
  -25.2255  -13.7877   20.4871 C   0  0  0  0  0  0
  -24.1688  -13.0232   20.9132 C   0  0  0  0  0  0
  -24.6412  -11.6804   20.8942 C   0  0  0  0  0  0
  -23.9063  -10.4222   21.0553 C   0  0  0  0  0  0
  -24.3581   -9.4147   21.9302 C   0  0  0  0  0  0
  -23.6275   -8.2169   22.0814 C   0  0  0  0  0  0
  -22.4257   -8.0235   21.3564 C   0  0  0  0  0  0
  -21.9903   -9.0247   20.4678 C   0  0  0  0  0  0
  -22.7263  -10.2123   20.3178 C   0  0  0  0  0  0
  -21.6836   -6.0702   22.5304 C   0  0  0  0  0  0
  -21.3991   -6.5633   23.8211 C   0  0  0  0  0  0
  -21.3648   -5.6782   24.9185 C   0  0  0  0  0  0
  -21.6050   -4.3059   24.7219 C   0  0  0  0  0  0
  -21.8828   -3.8135   23.4359 C   0  0  0  0  0  0
  -21.9190   -4.6948   22.3396 C   0  0  0  0  0  0
  -22.7777  -13.5192   21.1691 C   0  0  0  0  0  0
  -22.1670   -4.2146   21.0981 F   0  0  0  0  0  0
  -21.5626   -3.4536   25.7737 F   0  0  0  0  0  0
  -29.9509  -13.4870   20.4521 N   0  0  0  0  0  0
  -26.2879  -12.9151   20.3524 N   0  0  0  0  0  0
  -25.9400  -11.6351   20.6287 N   0  0  0  0  0  0
  -22.0463  -12.8196   22.0365 N   0  0  0  0  0  0
  -25.3224  -15.1189   20.1346 N   0  0  0  0  0  0
  -31.6979  -14.8539   20.2018 O   0  0  0  0  0  0
  -21.6617   -6.8840   21.4247 O   0  0  0  0  0  0
  -22.3409  -14.5494   20.6691 O   0  0  0  0  0  0
  -24.6202  -31.8744   23.2055 C   0  0  0  0  0  0
  -25.9122  -32.4829   23.8253 C   0  0  1  0  0  0
  -27.1257  -27.2620   20.1771 C   0  0  0  0  0  0
  -25.5970  -33.8634   24.2274 N   0  0  0  0  0  0
  -23.4088  -30.4843   21.5792 C   0  0  2  0  0  0
  -24.8385  -28.9509   20.1044 C   0  0  0  0  0  0
  -22.7564  -29.4626   22.5212 C   0  0  0  0  0  0
  -18.0434  -28.1271   22.8567 C   0  0  0  0  0  0
  -24.1516  -36.7248   23.2626 C   0  0  0  0  0  0
  -25.9354  -30.7644   21.4099 C   0  0  0  0  0  0
  -25.9895  -29.3798   20.7794 C   0  0  0  0  0  0
  -27.1407  -28.5284   20.8494 C   0  0  0  0  0  0
  -26.0628  -27.0301   19.2967 C   0  0  0  0  0  0
  -24.8839  -27.7883   19.3264 C   0  0  0  0  0  0
  -23.6242  -29.8628   20.1736 C   0  0  0  0  0  0
  -25.4126  -36.3016   24.0295 C   0  0  1  0  0  0
  -20.5914  -28.3551   23.1062 C   0  0  2  0  0  0
  -20.7126  -26.9497   22.4795 C   0  0  0  0  0  0
  -19.5838  -26.6385   21.4864 C   0  0  0  0  0  0
  -18.2026  -26.7914   22.1579 C   0  0  0  0  0  0
  -19.1597  -28.8764   23.2944 C   0  0  0  0  0  0
  -18.9298  -30.1288   23.9232 C   0  0  0  0  0  0
  -17.6271  -30.6442   24.0461 C   0  0  0  0  0  0
  -25.9070  -34.9467   23.5103 C   0  0  0  0  0  0
  -16.5332  -29.8906   23.6105 C   0  0  0  0  0  0
  -16.7386  -28.6225   23.0315 C   0  0  0  0  0  0
  -26.4510  -31.6558   25.0613 C   0  0  0  0  0  0
  -25.3740  -31.3832   26.1338 C   0  0  0  0  0  0
  -27.0350  -30.2956   24.6163 C   0  0  0  0  0  0
  -27.6028  -32.4314   25.7387 C   0  0  0  0  0  0
  -27.5567  -37.1761   24.8460 C   0  0  0  0  0  0
  -21.4259  -29.2986   22.3787 N   0  0  0  0  0  0
  -26.4268  -37.3704   23.9419 N   0  0  0  0  0  0
  -24.6669  -31.0694   22.1144 N   0  0  0  0  0  0
  -23.4282  -28.8282   23.3447 O   0  0  0  0  0  0
  -28.0092  -26.1814   20.3587 O   0  0  0  0  0  0
  -26.5599  -34.8800   22.4670 O   0  0  0  0  0  0
  -23.5409  -32.1483   23.7418 O   0  0  0  0  0  0
  -26.4030  -16.5262   22.3864 C   0  0  0  0  0  0
  -26.1610  -17.8897   22.1663 C   0  0  0  0  0  0
  -27.5971  -15.9210   21.9499 C   0  0  0  0  0  0
  -28.4449  -18.1071   21.3105 C   0  0  0  0  0  0
  -27.2002  -18.7627   21.7242 C   0  0  0  0  0  0
  -28.6543  -16.6449   21.3707 C   0  0  0  0  0  0
  -26.8402  -20.2281   22.0682 C   0  0  0  0  0  0
  -26.9366  -22.1527   20.1336 C   0  0  0  0  0  0
  -26.3891  -23.5396   20.6759 C   0  0  2  0  0  0
  -25.9368  -22.6798   21.9331 C   0  0  0  0  0  0
  -25.1434  -24.0769   19.9204 C   0  0  0  0  0  0
  -24.4384  -22.2293   22.0171 C   0  0  0  0  0  0
  -26.2819  -23.2670   23.3163 C   0  0  0  0  0  0
  -27.4433  -24.8412   20.8964 C   0  0  0  0  0  0
  -26.7516  -21.4861   21.4496 N   0  0  0  0  0  0
  -29.9144  -15.9627   20.9479 N   0  0  0  0  0  0
  -26.3803  -20.3162   23.3202 N   0  3  0  0  0  0
  -31.4830  -12.6737   19.1559 H   0  0  0  0  0  0
  -30.4628  -11.4899   19.9003 H   0  0  0  0  0  0
  -29.7865  -11.7275   17.5327 H   0  0  0  0  0  0
  -29.6190  -13.4584   17.6950 H   0  0  0  0  0  0
  -27.8873  -11.2903   18.8984 H   0  0  0  0  0  0
  -27.3487  -12.5624   17.8256 H   0  0  0  0  0  0
  -27.6876  -14.2426   19.6210 H   0  0  0  0  0  0
  -28.8013  -11.8485   21.1445 H   0  0  0  0  0  0
  -28.5511  -13.2292   22.0365 H   0  0  0  0  0  0
  -25.2738   -9.5587   22.4834 H   0  0  0  0  0  0
  -24.0002   -7.4526   22.7506 H   0  0  0  0  0  0
  -21.0858   -8.8810   19.8916 H   0  0  0  0  0  0
  -22.3809  -10.9666   19.6263 H   0  0  0  0  0  0
  -21.1976   -7.6138   23.9718 H   0  0  0  0  0  0
  -21.1460   -6.0508   25.9071 H   0  0  0  0  0  0
  -22.0607   -2.7609   23.2871 H   0  0  0  0  0  0
  -22.4133  -11.9940   22.4743 H   0  0  0  0  0  0
  -21.1165  -13.1298   22.2670 H   0  0  0  0  0  0
  -24.4750  -15.6715   20.0343 H   0  0  0  0  0  0
  -26.0947  -15.4815   19.5804 H   0  0  0  0  0  0
  -26.7202  -32.5355   23.0875 H   0  0  0  0  0  0
  -24.9933  -33.9848   25.0321 H   0  0  0  0  0  0
  -22.6816  -31.2919   21.4577 H   0  0  0  0  0  0
  -23.3733  -35.9627   23.3323 H   0  0  0  0  0  0
  -24.3597  -36.8906   22.2038 H   0  0  0  0  0  0
  -23.7298  -37.6472   23.6681 H   0  0  0  0  0  0
  -26.0806  -31.5301   20.6393 H   0  0  0  0  0  0
  -26.8250  -30.8101   22.0387 H   0  0  0  0  0  0
  -27.9838  -28.8244   21.4558 H   0  0  0  0  0  0
  -26.1101  -26.2571   18.5590 H   0  0  0  0  0  0
  -24.0677  -27.4888   18.6737 H   0  0  0  0  0  0
  -23.7923  -30.6700   19.4614 H   0  0  0  0  0  0
  -22.7470  -29.3389   19.8384 H   0  0  0  0  0  0
  -25.1328  -36.1768   25.0776 H   0  0  0  0  0  0
  -20.9678  -28.3105   24.1399 H   0  0  0  0  0  0
  -20.6286  -26.2105   23.2761 H   0  0  0  0  0  0
  -21.7094  -26.7749   22.0351 H   0  0  0  0  0  0
  -19.6812  -25.6240   21.1148 H   0  0  0  0  0  0
  -19.6690  -27.2738   20.5966 H   0  0  0  0  0  0
  -17.4037  -26.6987   21.4087 H   0  0  0  0  0  0
  -18.0396  -26.0034   22.8757 H   0  0  0  0  0  0
  -19.7288  -30.7191   24.3461 H   0  0  0  0  0  0
  -17.4396  -31.6118   24.4872 H   0  0  0  0  0  0
  -15.5256  -30.2572   23.7307 H   0  0  0  0  0  0
  -15.8726  -28.0363   22.7458 H   0  0  0  0  0  0
  -24.5840  -30.7228   25.7755 H   0  0  0  0  0  0
  -24.8864  -32.3043   26.4593 H   0  0  0  0  0  0
  -25.7951  -30.9115   27.0220 H   0  0  0  0  0  0
  -26.2938  -29.6656   24.1179 H   0  0  0  0  0  0
  -27.4105  -29.7240   25.4680 H   0  0  0  0  0  0
  -27.8807  -30.4253   23.9365 H   0  0  0  0  0  0
  -27.2634  -33.3663   26.1861 H   0  0  0  0  0  0
  -28.3811  -32.6875   25.0201 H   0  0  0  0  0  0
  -28.0670  -31.8464   26.5348 H   0  0  0  0  0  0
  -28.2525  -38.0090   24.7441 H   0  0  0  0  0  0
  -28.1092  -36.2609   24.6345 H   0  0  0  0  0  0
  -27.2272  -37.1462   25.8847 H   0  0  0  0  0  0
  -20.9426  -29.8005   21.6506 H   0  0  0  0  0  0
  -26.0146  -38.2779   24.1445 H   0  0  0  0  0  0
  -25.6352  -15.8987   22.8089 H   0  0  0  0  0  0
  -25.1777  -18.2682   22.4443 H   0  0  0  0  0  0
  -27.6226  -14.8694   22.0968 H   0  0  0  0  0  0
  -29.2777  -18.7323   21.0272 H   0  0  0  0  0  0
  -27.9532  -22.2859   19.7675 H   0  0  0  0  0  0
  -26.2882  -21.7431   19.3574 H   0  0  0  0  0  0
  -24.3381  -23.3376   19.7023 H   0  0  0  0  0  0
  -25.4161  -24.4287   18.9385 H   0  0  0  0  0  0
  -24.6862  -24.9230   20.4457 H   0  0  0  0  0  0
  -23.7459  -23.0638   21.9631 H   0  0  0  0  0  0
  -24.1858  -21.7080   22.9541 H   0  0  0  0  0  0
  -24.1494  -21.5567   21.1890 H   0  0  0  0  0  0
  -25.8439  -24.2600   23.4690 H   0  0  0  0  0  0
  -27.3602  -23.3502   23.4453 H   0  0  0  0  0  0
  -25.8921  -22.6545   24.1318 H   0  0  0  0  0  0
  -27.4711  -24.8007   19.8264 H   0  0  0  0  0  0
  -26.7591  -25.4048   21.5179 H   0  0  0  0  0  0
  -30.6276  -16.6650   20.8449 H   0  0  0  0  0  0
  -26.2561  -19.4523   23.8062 H   0  0  0  0  0  0
  -25.9106  -21.1622   23.6170 H   0  0  0  0  0  0
  1 25  1  0  0  0
  1 30  2  0  0  0
  1 86  1  0  0  0
  2  3  1  0  0  0
  2 25  1  0  0  0
  2 88  1  0  0  0
  2 89  1  0  0  0
  3  4  1  0  0  0
  3 90  1  0  0  0
  3 91  1  0  0  0
  4  5  1  0  0  0
  4 92  1  0  0  0
  4 93  1  0  0  0
  5  6  1  0  0  0
  5 26  1  0  0  0
  5 94  1  0  0  0
  6 25  1  0  0  0
  6 95  1  0  0  0
  6 96  1  0  0  0
  7  8  2  0  0  0
  7 26  1  0  0  0
  7 29  1  0  0  0
  8  9  1  0  0  0
  8 22  1  0  0  0
  9 10  1  0  0  0
  9 27  2  0  0  0
 10 11  2  0  0  0
 10 15  1  0  0  0
 11 12  1  0  0  0
 11 97  1  0  0  0
 12 13  2  0  0  0
 12 98  1  0  0  0
 13 14  1  0  0  0
 13 31  1  0  0  0
 14 15  2  0  0  0
 14 99  1  0  0  0
 15100  1  0  0  0
 16 17  2  0  0  0
 16 21  1  0  0  0
 16 31  1  0  0  0
 17 18  1  0  0  0
 17101  1  0  0  0
 18 19  2  0  0  0
 18102  1  0  0  0
 19 20  1  0  0  0
 19 24  1  0  0  0
 20 21  2  0  0  0
 20103  1  0  0  0
 21 23  1  0  0  0
 22 28  1  0  0  0
 22 32  2  0  0  0
 26 27  1  0  0  0
 28104  1  0  0  0
 28105  1  0  0  0
 29106  1  0  0  0
 29107  1  0  0  0
 33 34  1  0  0  0
 33 66  1  0  0  0
 33 70  2  0  0  0
 34 36  1  0  0  0
 34 59  1  0  0  0
 34108  1  0  0  0
 35 44  2  0  0  0
 35 45  1  0  0  0
 35 68  1  0  0  0
 36 56  1  0  0  0
 36109  1  0  0  0
 37 39  1  0  0  0
 37 47  1  0  0  0
 37 66  1  0  0  0
 37110  1  0  0  0
 38 43  2  0  0  0
 38 46  1  0  0  0
 38 47  1  0  0  0
 39 64  1  0  0  0
 39 67  2  0  0  0
 40 52  1  0  0  0
 40 53  2  0  0  0
 40 58  1  0  0  0
 41111  1  0  0  0
 41112  1  0  0  0
 41113  1  0  0  0
 41 48  1  0  0  0
 42 43  1  0  0  0
 42 66  1  0  0  0
 42114  1  0  0  0
 42115  1  0  0  0
 43 44  1  0  0  0
 44116  1  0  0  0
 45 46  2  0  0  0
 45117  1  0  0  0
 46118  1  0  0  0
 47119  1  0  0  0
 47120  1  0  0  0
 48 56  1  0  0  0
 48 65  1  0  0  0
 48121  1  0  0  0
 49 50  1  0  0  0
 49 53  1  0  0  0
 49 64  1  0  0  0
 49122  1  0  0  0
 50 51  1  0  0  0
 50123  1  0  0  0
 50124  1  0  0  0
 51 52  1  0  0  0
 51125  1  0  0  0
 51126  1  0  0  0
 52127  1  0  0  0
 52128  1  0  0  0
 53 54  1  0  0  0
 54 55  2  0  0  0
 54129  1  0  0  0
 55 57  1  0  0  0
 55130  1  0  0  0
 56 69  2  0  0  0
 57 58  2  0  0  0
 57131  1  0  0  0
 58132  1  0  0  0
 59 60  1  0  0  0
 59 61  1  0  0  0
 59 62  1  0  0  0
 60133  1  0  0  0
 60134  1  0  0  0
 60135  1  0  0  0
 61136  1  0  0  0
 61137  1  0  0  0
 61138  1  0  0  0
 62139  1  0  0  0
 62140  1  0  0  0
 62141  1  0  0  0
 63 65  1  0  0  0
 63142  1  0  0  0
 63143  1  0  0  0
 63144  1  0  0  0
 64145  1  0  0  0
 65146  1  0  0  0
 68 84  1  0  0  0
 71 72  2  0  0  0
 71 73  1  0  0  0
 71147  1  0  0  0
 72 75  1  0  0  0
 72148  1  0  0  0
 73 76  2  0  0  0
 73149  1  0  0  0
 74 75  2  0  0  0
 74 76  1  0  0  0
 74150  1  0  0  0
 75 77  1  0  0  0
 76 86  1  0  0  0
 77 85  1  0  0  0
 77 87  2  0  0  0
 78 79  1  0  0  0
 78 85  1  0  0  0
 78151  1  0  0  0
 78152  1  0  0  0
 79 80  1  0  0  0
 79 81  1  0  0  0
 79 84  1  0  0  0
 80 82  1  0  0  0
 80 83  1  0  0  0
 80 85  1  0  0  0
 81153  1  0  0  0
 81154  1  0  0  0
 81155  1  0  0  0
 82156  1  0  0  0
 82157  1  0  0  0
 82158  1  0  0  0
 83159  1  0  0  0
 83160  1  0  0  0
 83161  1  0  0  0
 84162  1  0  0  0
 84163  1  0  0  0
 86164  1  0  0  0
 87165  1  0  0  0
 87166  1  0  0  0
M  CHG  1  87   1
M  ISO  4   1 100  68 101  84 101  86 100
M  END
> <chiral flag>
0

> <version>
0

> <s_m_source_file>
/data/baiqing/PycharmProjects/Reinvent-master-3.2/result/LINK_invent/BTK/process_docking_weight1_custom_product_contain_oxygen_bond_distance_aromatic_linkinvent_7_9_3/rearranged_h_0146.sdf

> <i_m_source_file_index>
88

> <r_mmod_Potential_Energy-OPLS-2005>
845.584228515625

> <r_mmod_Stretch_Energy-OPLS-2005>
188.569702148438

> <r_mmod_Bend_Energy-OPLS-2005>
635.8115234375

> <r_mmod_Torsional_Energy-OPLS-2005>
367.963714599609

> <r_mmod_Improper_Torsional_Energy-OPLS-2005>
12.9173393249512

> <r_mmod_Van_der_Waal_Energy-OPLS-2005>
209.998260498047

> <r_mmod_Electrostatic_Energy-OPLS-2005>
-321.143432617188

> <r_mmod_Solvation_Energy-OPLS-2005>
-396.661895751953

> <b_mmod_Minimization_Converged-OPLS-2005>
0

> <r_mmod_RMS_Derivative-OPLS-2005>
30.6494255065918

$$$$
88
                    3D
 Structure written by MMmdl.
174182  0  0  1  0            999 V2000
  -30.7013  -14.4159   20.6207 C   0  0  0  0  0  0
  -30.4296  -12.2851   19.4037 C   0  0  0  0  0  0
  -29.4969  -12.5171   18.1969 C   0  0  0  0  0  0
  -28.0169  -12.3802   18.6069 C   0  0  0  0  0  0
  -27.6705  -13.1975   19.8799 C   0  0  2  0  0  0
  -28.7068  -12.9203   20.9904 C   0  0  0  0  0  0
  -25.2655  -13.8131   20.5680 C   0  0  0  0  0  0
  -24.1886  -13.0436   20.9165 C   0  0  0  0  0  0
  -24.6408  -11.6890   20.8701 C   0  0  0  0  0  0
  -23.9045  -10.4296   21.0397 C   0  0  0  0  0  0
  -24.3599   -9.4219   21.9177 C   0  0  0  0  0  0
  -23.6288   -8.2252   22.0742 C   0  0  0  0  0  0
  -22.4267   -8.0282   21.3531 C   0  0  0  0  0  0
  -21.9902   -9.0265   20.4637 C   0  0  0  0  0  0
  -22.7215  -10.2149   20.3052 C   0  0  0  0  0  0
  -21.6847   -6.0740   22.5275 C   0  0  0  0  0  0
  -21.4018   -6.5640   23.8212 C   0  0  0  0  0  0
  -21.3665   -5.6786   24.9174 C   0  0  0  0  0  0
  -21.6048   -4.3050   24.7214 C   0  0  0  0  0  0
  -21.8820   -3.8144   23.4331 C   0  0  0  0  0  0
  -21.9198   -4.6971   22.3392 C   0  0  0  0  0  0
  -22.7918  -13.5270   21.1818 C   0  0  0  0  0  0
  -22.1667   -4.2160   21.0957 F   0  0  0  0  0  0
  -21.5626   -3.4519   25.7723 F   0  0  0  0  0  0
  -30.0485  -13.2339   20.4594 N   0  0  0  0  0  0
  -26.3071  -12.9284   20.3347 N   0  0  0  0  0  0
  -25.9325  -11.6449   20.5729 N   0  0  0  0  0  0
  -22.0517  -12.8290   22.0371 N   0  0  0  0  0  0
  -25.4389  -15.1849   20.4094 N   0  0  0  0  0  0
  -31.7813  -14.6695   20.0775 O   0  0  0  0  0  0
  -21.6616   -6.8891   21.4248 O   0  0  0  0  0  0
  -22.3628  -14.5573   20.6650 O   0  0  0  0  0  0
  -24.6097  -31.8724   23.2128 C   0  0  0  0  0  0
  -25.9013  -32.4841   23.8422 C   0  0  1  0  0  0
  -27.2561  -27.4828   20.0932 C   0  0  0  0  0  0
  -25.5897  -33.8643   24.2357 N   0  0  0  0  0  0
  -23.3961  -30.4924   21.5529 C   0  0  2  0  0  0
  -24.8464  -28.9597   20.1239 C   0  0  0  0  0  0
  -22.7390  -29.4667   22.5031 C   0  0  0  0  0  0
  -18.0269  -28.1375   22.8483 C   0  0  0  0  0  0
  -24.1488  -36.7325   23.2630 C   0  0  0  0  0  0
  -25.9182  -30.8548   21.3574 C   0  0  0  0  0  0
  -26.0021  -29.4897   20.7106 C   0  0  0  0  0  0
  -27.2112  -28.7654   20.6892 C   0  0  0  0  0  0
  -26.0835  -26.9588   19.5143 C   0  0  0  0  0  0
  -24.8783  -27.6881   19.5236 C   0  0  0  0  0  0
  -23.6046  -29.8204   20.1690 C   0  0  0  0  0  0
  -25.4109  -36.3127   24.0332 C   0  0  1  0  0  0
  -20.5855  -28.3644   23.1339 C   0  0  2  0  0  0
  -20.6765  -26.9389   22.5423 C   0  0  0  0  0  0
  -19.5751  -26.6374   21.5214 C   0  0  0  0  0  0
  -18.1919  -26.7923   22.1614 C   0  0  0  0  0  0
  -19.1517  -28.8828   23.2906 C   0  0  0  0  0  0
  -18.9449  -30.1434   23.8918 C   0  0  0  0  0  0
  -17.6452  -30.6573   24.0563 C   0  0  0  0  0  0
  -25.9037  -34.9487   23.5141 C   0  0  0  0  0  0
  -16.5337  -29.9086   23.6315 C   0  0  0  0  0  0
  -16.7255  -28.6500   23.0334 C   0  0  0  0  0  0
  -26.4466  -31.6602   25.0726 C   0  0  0  0  0  0
  -25.3750  -31.3696   26.1488 C   0  0  0  0  0  0
  -27.0276  -30.3046   24.6053 C   0  0  0  0  0  0
  -27.6061  -32.4303   25.7479 C   0  0  0  0  0  0
  -27.5588  -37.1813   24.8454 C   0  0  0  0  0  0
  -21.4134  -29.3015   22.3759 N   0  0  0  0  0  0
  -26.4297  -37.3804   23.9398 N   0  0  0  0  0  0
  -24.6586  -31.0873   22.0999 N   0  0  0  0  0  0
  -23.4183  -28.8236   23.3080 O   0  0  0  0  0  0
  -28.3958  -26.7206   19.9758 O   0  0  0  0  0  0
  -26.5602  -34.8930   22.4703 O   0  0  0  0  0  0
  -23.5303  -32.1463   23.7550 O   0  0  0  0  0  0
  -31.0224  -17.5274   20.8206 C   0  0  0  0  0  0
  -30.8517  -18.9248   20.6995 C   0  0  0  0  0  0
  -28.7129  -17.3089   21.5574 C   0  0  0  0  0  0
  -29.9504  -16.7060   21.2425 C   0  0  0  0  0  0
  -29.6119  -19.5204   21.0194 C   0  0  0  0  0  0
  -28.5407  -18.7049   21.4413 C   0  0  0  0  0  0
  -29.3751  -26.7432   20.9313 C   0  0  0  0  0  0
  -30.3498  -25.8125   21.0511 C   0  0  0  0  0  0
  -29.9622  -23.3160   20.9494 C   0  0  0  0  0  0
  -31.3864  -26.0121   22.1506 C   0  0  0  0  0  0
  -24.1957  -20.2329   19.8688 C   0  0  0  0  0  0
  -29.7738  -24.6158   18.8231 C   0  0  0  0  0  0
  -32.0289  -24.3313   19.8414 C   0  0  0  0  0  0
  -30.3345  -21.8950   20.4777 C   0  0  0  0  0  0
  -25.3116  -20.2695   20.9204 C   0  0  0  0  0  0
  -26.3532  -19.1575   20.7370 C   0  0  0  0  0  0
  -30.5300  -24.5378   20.1739 C   0  0  0  0  0  0
  -30.0516  -15.2943   21.4019 N   0  0  0  0  0  0
  -29.3726  -20.8992   20.9501 N   0  0  0  0  0  0
  -29.1884  -23.4563   21.9051 O   0  0  0  0  0  0
  -27.3386  -19.2910   21.7524 O   0  0  0  0  0  0
  -31.4748  -12.3909   19.1035 H   0  0  0  0  0  0
  -30.3304  -11.2623   19.7707 H   0  0  0  0  0  0
  -29.7262  -11.8099   17.3976 H   0  0  0  0  0  0
  -29.6720  -13.5118   17.7864 H   0  0  0  0  0  0
  -27.8182  -11.3222   18.7799 H   0  0  0  0  0  0
  -27.3719  -12.6838   17.7825 H   0  0  0  0  0  0
  -27.7287  -14.2535   19.6155 H   0  0  0  0  0  0
  -28.6719  -11.8670   21.2697 H   0  0  0  0  0  0
  -28.4537  -13.4592   21.9048 H   0  0  0  0  0  0
  -25.2759   -9.5679   22.4738 H   0  0  0  0  0  0
  -23.9993   -7.4638   22.7456 H   0  0  0  0  0  0
  -21.0823   -8.8789   19.8937 H   0  0  0  0  0  0
  -22.3684  -10.9692   19.6153 H   0  0  0  0  0  0
  -21.1995   -7.6150   23.9738 H   0  0  0  0  0  0
  -21.1486   -6.0493   25.9078 H   0  0  0  0  0  0
  -22.0586   -2.7608   23.2817 H   0  0  0  0  0  0
  -22.4104  -11.9970   22.4803 H   0  0  0  0  0  0
  -21.1144  -13.1372   22.2524 H   0  0  0  0  0  0
  -24.6644  -15.8322   20.4956 H   0  0  0  0  0  0
  -26.2820  -15.6103   20.0442 H   0  0  0  0  0  0
  -26.7097  -32.5595   23.1212 H   0  0  0  0  0  0
  -25.0060  -33.9814   25.0506 H   0  0  0  0  0  0
  -22.6808  -31.3052   21.4120 H   0  0  0  0  0  0
  -23.3745  -35.9667   23.3311 H   0  0  0  0  0  0
  -24.3573  -36.8923   22.2041 H   0  0  0  0  0  0
  -23.7257  -37.6538   23.6632 H   0  0  0  0  0  0
  -26.0241  -31.6228   20.5902 H   0  0  0  0  0  0
  -26.8067  -30.9123   21.9735 H   0  0  0  0  0  0
  -28.0975  -29.2164   21.1089 H   0  0  0  0  0  0
  -26.1118  -25.9862   19.0433 H   0  0  0  0  0  0
  -23.9909  -27.2713   19.0664 H   0  0  0  0  0  0
  -23.7097  -30.5931   19.4064 H   0  0  0  0  0  0
  -22.7316  -29.2358   19.8733 H   0  0  0  0  0  0
  -25.1280  -36.2003   25.0826 H   0  0  0  0  0  0
  -20.9920  -28.3205   24.1471 H   0  0  0  0  0  0
  -20.5668  -26.2253   23.3602 H   0  0  0  0  0  0
  -21.6643  -26.7449   22.1223 H   0  0  0  0  0  0
  -19.6916  -25.6294   21.1219 H   0  0  0  0  0  0
  -19.6696  -27.3201   20.6760 H   0  0  0  0  0  0
  -17.4202  -26.6676   21.4008 H   0  0  0  0  0  0
  -18.0305  -26.0060   22.8998 H   0  0  0  0  0  0
  -19.7929  -30.7236   24.2306 H   0  0  0  0  0  0
  -17.5008  -31.6251   24.5169 H   0  0  0  0  0  0
  -15.5338  -30.2992   23.7629 H   0  0  0  0  0  0
  -15.8661  -28.0819   22.7046 H   0  0  0  0  0  0
  -24.5931  -30.7027   25.7836 H   0  0  0  0  0  0
  -24.8938  -32.2850   26.4938 H   0  0  0  0  0  0
  -25.8127  -30.8876   27.0236 H   0  0  0  0  0  0
  -26.2799  -29.6830   24.1111 H   0  0  0  0  0  0
  -27.4069  -29.7253   25.4479 H   0  0  0  0  0  0
  -27.8628  -30.4371   23.9169 H   0  0  0  0  0  0
  -27.2695  -33.3592   26.2087 H   0  0  0  0  0  0
  -28.3855  -32.6871   25.0293 H   0  0  0  0  0  0
  -28.0740  -31.8404   26.5366 H   0  0  0  0  0  0
  -28.2608  -38.0107   24.7501 H   0  0  0  0  0  0
  -28.1078  -36.2641   24.6270 H   0  0  0  0  0  0
  -27.2300  -37.1454   25.8854 H   0  0  0  0  0  0
  -20.9299  -29.8734   21.6981 H   0  0  0  0  0  0
  -26.0194  -38.2882   24.1405 H   0  0  0  0  0  0
  -31.9910  -17.1065   20.5947 H   0  0  0  0  0  0
  -31.6895  -19.5186   20.3677 H   0  0  0  0  0  0
  -27.8812  -16.7084   21.8958 H   0  0  0  0  0  0
  -29.3124  -27.5893   21.5972 H   0  0  0  0  0  0
  -31.1422  -26.8671   22.7824 H   0  0  0  0  0  0
  -32.3734  -26.2008   21.7286 H   0  0  0  0  0  0
  -31.4445  -25.1354   22.7951 H   0  0  0  0  0  0
  -23.4770  -21.0350   20.0378 H   0  0  0  0  0  0
  -23.6552  -19.2861   19.8991 H   0  0  0  0  0  0
  -24.5945  -20.3595   18.8617 H   0  0  0  0  0  0
  -28.6898  -24.5803   18.9489 H   0  0  0  0  0  0
  -30.0247  -23.7822   18.1662 H   0  0  0  0  0  0
  -30.0237  -25.5278   18.2803 H   0  0  0  0  0  0
  -32.6110  -24.0421   20.7176 H   0  0  0  0  0  0
  -32.4661  -25.2463   19.4391 H   0  0  0  0  0  0
  -32.1792  -23.5558   19.0892 H   0  0  0  0  0  0
  -31.3344  -21.6708   20.8492 H   0  0  0  0  0  0
  -30.3685  -21.8732   19.3885 H   0  0  0  0  0  0
  -24.8712  -20.1920   21.9153 H   0  0  0  0  0  0
  -25.8061  -21.2410   20.8771 H   0  0  0  0  0  0
  -26.8018  -19.2353   19.7428 H   0  0  0  0  0  0
  -25.8827  -18.1755   20.8111 H   0  0  0  0  0  0
  -29.2759  -14.8655   21.8855 H   0  0  0  0  0  0
  -28.4774  -21.2521   21.2778 H   0  0  0  0  0  0
  1 25  1  0  0  0
  1 30  2  0  0  0
  1 88  1  0  0  0
  2  3  1  0  0  0
  2 25  1  0  0  0
  2 92  1  0  0  0
  2 93  1  0  0  0
  3  4  1  0  0  0
  3 94  1  0  0  0
  3 95  1  0  0  0
  4  5  1  0  0  0
  4 96  1  0  0  0
  4 97  1  0  0  0
  5  6  1  0  0  0
  5 26  1  0  0  0
  5 98  1  0  0  0
  6 25  1  0  0  0
  6 99  1  0  0  0
  6100  1  0  0  0
  7  8  2  0  0  0
  7 26  1  0  0  0
  7 29  1  0  0  0
  8  9  1  0  0  0
  8 22  1  0  0  0
  9 10  1  0  0  0
  9 27  2  0  0  0
 10 11  2  0  0  0
 10 15  1  0  0  0
 11 12  1  0  0  0
 11101  1  0  0  0
 12 13  2  0  0  0
 12102  1  0  0  0
 13 14  1  0  0  0
 13 31  1  0  0  0
 14 15  2  0  0  0
 14103  1  0  0  0
 15104  1  0  0  0
 16 17  2  0  0  0
 16 21  1  0  0  0
 16 31  1  0  0  0
 17 18  1  0  0  0
 17105  1  0  0  0
 18 19  2  0  0  0
 18106  1  0  0  0
 19 20  1  0  0  0
 19 24  1  0  0  0
 20 21  2  0  0  0
 20107  1  0  0  0
 21 23  1  0  0  0
 22 28  1  0  0  0
 22 32  2  0  0  0
 26 27  1  0  0  0
 28108  1  0  0  0
 28109  1  0  0  0
 29110  1  0  0  0
 29111  1  0  0  0
 33 34  1  0  0  0
 33 66  1  0  0  0
 33 70  2  0  0  0
 34 36  1  0  0  0
 34 59  1  0  0  0
 34112  1  0  0  0
 35 44  2  0  0  0
 35 45  1  0  0  0
 35 68  1  0  0  0
 36 56  1  0  0  0
 36113  1  0  0  0
 37 39  1  0  0  0
 37 47  1  0  0  0
 37 66  1  0  0  0
 37114  1  0  0  0
 38 43  2  0  0  0
 38 46  1  0  0  0
 38 47  1  0  0  0
 39 64  1  0  0  0
 39 67  2  0  0  0
 40 52  1  0  0  0
 40 53  2  0  0  0
 40 58  1  0  0  0
 41115  1  0  0  0
 41116  1  0  0  0
 41117  1  0  0  0
 41 48  1  0  0  0
 42 43  1  0  0  0
 42 66  1  0  0  0
 42118  1  0  0  0
 42119  1  0  0  0
 43 44  1  0  0  0
 44120  1  0  0  0
 45 46  2  0  0  0
 45121  1  0  0  0
 46122  1  0  0  0
 47123  1  0  0  0
 47124  1  0  0  0
 48 56  1  0  0  0
 48 65  1  0  0  0
 48125  1  0  0  0
 49 50  1  0  0  0
 49 53  1  0  0  0
 49 64  1  0  0  0
 49126  1  0  0  0
 50 51  1  0  0  0
 50127  1  0  0  0
 50128  1  0  0  0
 51 52  1  0  0  0
 51129  1  0  0  0
 51130  1  0  0  0
 52131  1  0  0  0
 52132  1  0  0  0
 53 54  1  0  0  0
 54 55  2  0  0  0
 54133  1  0  0  0
 55 57  1  0  0  0
 55134  1  0  0  0
 56 69  2  0  0  0
 57 58  2  0  0  0
 57135  1  0  0  0
 58136  1  0  0  0
 59 60  1  0  0  0
 59 61  1  0  0  0
 59 62  1  0  0  0
 60137  1  0  0  0
 60138  1  0  0  0
 60139  1  0  0  0
 61140  1  0  0  0
 61141  1  0  0  0
 61142  1  0  0  0
 62143  1  0  0  0
 62144  1  0  0  0
 62145  1  0  0  0
 63 65  1  0  0  0
 63146  1  0  0  0
 63147  1  0  0  0
 63148  1  0  0  0
 64149  1  0  0  0
 65150  1  0  0  0
 68 77  1  0  0  0
 71 72  2  0  0  0
 71 74  1  0  0  0
 71151  1  0  0  0
 72 75  1  0  0  0
 72152  1  0  0  0
 73 74  2  0  0  0
 73 76  1  0  0  0
 73153  1  0  0  0
 74 88  1  0  0  0
 75 76  2  0  0  0
 75 89  1  0  0  0
 76 91  1  0  0  0
 77 78  2  0  0  0
 77154  1  0  0  0
 78 80  1  0  0  0
 78 87  1  0  0  0
 79 84  1  0  0  0
 79 87  1  0  0  0
 79 90  2  0  0  0
 80155  1  0  0  0
 80156  1  0  0  0
 80157  1  0  0  0
 81 85  1  0  0  0
 81158  1  0  0  0
 81159  1  0  0  0
 81160  1  0  0  0
 82161  1  0  0  0
 82162  1  0  0  0
 82163  1  0  0  0
 82 87  1  0  0  0
 83 87  1  0  0  0
 83164  1  0  0  0
 83165  1  0  0  0
 83166  1  0  0  0
 84 89  1  0  0  0
 84167  1  0  0  0
 84168  1  0  0  0
 85 86  1  0  0  0
 85169  1  0  0  0
 85170  1  0  0  0
 86 91  1  0  0  0
 86171  1  0  0  0
 86172  1  0  0  0
 88173  1  0  0  0
 89174  1  0  0  0
M  ISO  4   1 100  68 101  77 101  88 100
M  END
> <chiral flag>
0

> <version>
0

> <s_m_source_file>
/data/baiqing/PycharmProjects/Reinvent-master-3.2/result/LINK_invent/BTK/process_docking_weight1_custom_product_contain_oxygen_bond_distance_aromatic_linkinvent_7_9_3/rearranged_h_0146.sdf

> <i_m_source_file_index>
89

> <r_mmod_Potential_Energy-OPLS-2005>
19.7941589355469

> <r_mmod_Stretch_Energy-OPLS-2005>
39.4545631408691

> <r_mmod_Bend_Energy-OPLS-2005>
127.707275390625

> <r_mmod_Torsional_Energy-OPLS-2005>
239.631484985352

> <r_mmod_Improper_Torsional_Energy-OPLS-2005>
4.35458421707153

> <r_mmod_Van_der_Waal_Energy-OPLS-2005>
166.791458129883

> <r_mmod_Electrostatic_Energy-OPLS-2005>
-350.423583984375

> <r_mmod_Solvation_Energy-OPLS-2005>
-214.713928222656

> <b_mmod_Minimization_Converged-OPLS-2005>
0

> <r_mmod_RMS_Derivative-OPLS-2005>
3.14898610115051

$$$$
89
                    3D
 Structure written by MMmdl.
161170  0  0  1  0            999 V2000
  -30.6377  -14.5509   20.5592 C   0  0  0  0  0  0
  -30.4364  -12.3492   19.4314 C   0  0  0  0  0  0
  -29.4992  -12.5176   18.2148 C   0  0  0  0  0  0
  -28.0212  -12.3607   18.6273 C   0  0  0  0  0  0
  -27.6604  -13.2035   19.8789 C   0  0  2  0  0  0
  -28.7039  -12.9905   20.9996 C   0  0  0  0  0  0
  -25.2576  -13.8130   20.5642 C   0  0  0  0  0  0
  -24.1841  -13.0416   20.9190 C   0  0  0  0  0  0
  -24.6400  -11.6882   20.8755 C   0  0  0  0  0  0
  -23.9065  -10.4273   21.0427 C   0  0  0  0  0  0
  -24.3612   -9.4189   21.9204 C   0  0  0  0  0  0
  -23.6279   -8.2229   22.0761 C   0  0  0  0  0  0
  -22.4264   -8.0278   21.3545 C   0  0  0  0  0  0
  -21.9911   -9.0257   20.4647 C   0  0  0  0  0  0
  -22.7244  -10.2130   20.3070 C   0  0  0  0  0  0
  -21.6839   -6.0739   22.5279 C   0  0  0  0  0  0
  -21.4003   -6.5639   23.8217 C   0  0  0  0  0  0
  -21.3672   -5.6795   24.9173 C   0  0  0  0  0  0
  -21.6055   -4.3063   24.7224 C   0  0  0  0  0  0
  -21.8816   -3.8154   23.4348 C   0  0  0  0  0  0
  -21.9185   -4.6967   22.3402 C   0  0  0  0  0  0
  -22.7866  -13.5220   21.1861 C   0  0  0  0  0  0
  -22.1644   -4.2156   21.0976 F   0  0  0  0  0  0
  -21.5647   -3.4552   25.7745 F   0  0  0  0  0  0
  -30.0285  -13.3333   20.4488 N   0  0  0  0  0  0
  -26.3017  -12.9291   20.3374 N   0  0  0  0  0  0
  -25.9331  -11.6458   20.5803 N   0  0  0  0  0  0
  -22.0508  -12.8204   22.0411 N   0  0  0  0  0  0
  -25.4261  -15.1839   20.3930 N   0  0  0  0  0  0
  -31.7779  -14.7614   20.1303 O   0  0  0  0  0  0
  -21.6624   -6.8882   21.4240 O   0  0  0  0  0  0
  -22.3562  -14.5540   20.6730 O   0  0  0  0  0  0
  -24.6208  -31.8633   23.2111 C   0  0  0  0  0  0
  -25.9083  -32.4791   23.8431 C   0  0  1  0  0  0
  -27.2364  -27.3859   20.1211 C   0  0  0  0  0  0
  -25.5929  -33.8592   24.2344 N   0  0  0  0  0  0
  -23.4139  -30.4852   21.5493 C   0  0  2  0  0  0
  -24.8649  -28.9438   20.1213 C   0  0  0  0  0  0
  -22.7453  -29.4631   22.4972 C   0  0  0  0  0  0
  -18.0277  -28.1404   22.8499 C   0  0  0  0  0  0
  -24.1479  -36.7271   23.2646 C   0  0  0  0  0  0
  -25.9481  -30.8140   21.3746 C   0  0  0  0  0  0
  -26.0267  -29.4436   20.7251 C   0  0  0  0  0  0
  -27.2188  -28.6718   20.7233 C   0  0  0  0  0  0
  -26.0612  -26.9142   19.5055 C   0  0  0  0  0  0
  -24.8788  -27.6791   19.5088 C   0  0  0  0  0  0
  -23.6287  -29.8163   20.1656 C   0  0  0  0  0  0
  -25.4105  -36.3078   24.0342 C   0  0  1  0  0  0
  -20.5876  -28.3687   23.1291 C   0  0  2  0  0  0
  -20.6764  -26.9406   22.5417 C   0  0  0  0  0  0
  -19.5738  -26.6396   21.5219 C   0  0  0  0  0  0
  -18.1915  -26.7960   22.1617 C   0  0  0  0  0  0
  -19.1533  -28.8865   23.2896 C   0  0  0  0  0  0
  -18.9456  -30.1477   23.8902 C   0  0  0  0  0  0
  -17.6450  -30.6604   24.0573 C   0  0  0  0  0  0
  -25.9034  -34.9447   23.5130 C   0  0  0  0  0  0
  -16.5341  -29.9099   23.6350 C   0  0  0  0  0  0
  -16.7264  -28.6518   23.0369 C   0  0  0  0  0  0
  -26.4510  -31.6593   25.0775 C   0  0  0  0  0  0
  -25.3769  -31.3661   26.1504 C   0  0  0  0  0  0
  -27.0392  -30.3047   24.6200 C   0  0  0  0  0  0
  -27.6091  -32.4338   25.7506 C   0  0  0  0  0  0
  -27.5576  -37.1773   24.8464 C   0  0  0  0  0  0
  -21.4177  -29.3039   22.3688 N   0  0  0  0  0  0
  -26.4276  -37.3782   23.9434 N   0  0  0  0  0  0
  -24.6787  -31.0699   22.1029 N   0  0  0  0  0  0
  -23.4186  -28.8177   23.3051 O   0  0  0  0  0  0
  -28.3604  -26.5784   20.0733 O   0  0  0  0  0  0
  -26.5586  -34.8894   22.4689 O   0  0  0  0  0  0
  -23.5380  -32.1406   23.7457 O   0  0  0  0  0  0
  -28.6569  -19.1073   20.9561 C   0  0  0  0  0  0
  -28.6871  -17.6920   20.9326 C   0  0  0  0  0  0
  -31.0962  -17.7298   21.0675 C   0  0  0  0  0  0
  -29.8371  -19.8795   21.0754 C   0  0  0  0  0  0
  -31.0712  -19.1553   21.1232 C   0  0  0  0  0  0
  -29.9020  -16.9715   20.9883 C   0  0  0  0  0  0
  -28.4498  -23.4735   22.1415 C   0  0  0  0  0  0
  -28.8395  -24.3046   21.1485 C   0  0  0  0  0  0
  -28.6814  -21.9565   22.1878 C   0  0  0  0  0  0
  -29.5656  -23.7263   19.9318 C   0  0  0  0  0  0
  -29.5230  -22.1653   19.8293 C   0  0  0  0  0  0
  -29.7486  -21.4421   21.1803 C   0  0  2  0  0  0
  -32.4021  -19.8764   21.2670 C   0  0  0  0  0  0
  -28.6790  -25.8463   21.2789 C   0  0  0  0  0  0
  -29.8296  -15.5309   21.0393 N   0  0  0  0  0  0
  -31.4782  -12.4740   19.1305 H   0  0  0  0  0  0
  -30.3644  -11.3370   19.8327 H   0  0  0  0  0  0
  -29.7503  -11.7909   17.4413 H   0  0  0  0  0  0
  -29.6493  -13.5020   17.7672 H   0  0  0  0  0  0
  -27.8446  -11.3033   18.8291 H   0  0  0  0  0  0
  -27.3658  -12.6242   17.7955 H   0  0  0  0  0  0
  -27.6997  -14.2506   19.5772 H   0  0  0  0  0  0
  -28.7009  -11.9509   21.3295 H   0  0  0  0  0  0
  -28.4569  -13.5721   21.8894 H   0  0  0  0  0  0
  -25.2755   -9.5654   22.4790 H   0  0  0  0  0  0
  -23.9993   -7.4609   22.7470 H   0  0  0  0  0  0
  -21.0857   -8.8775   19.8930 H   0  0  0  0  0  0
  -22.3721  -10.9679   19.6182 H   0  0  0  0  0  0
  -21.1974   -7.6144   23.9728 H   0  0  0  0  0  0
  -21.1500   -6.0520   25.9081 H   0  0  0  0  0  0
  -22.0583   -2.7616   23.2844 H   0  0  0  0  0  0
  -22.4115  -11.9828   22.4742 H   0  0  0  0  0  0
  -21.1137  -13.1239   22.2639 H   0  0  0  0  0  0
  -24.6433  -15.8249   20.4636 H   0  0  0  0  0  0
  -26.2453  -15.6059   19.9763 H   0  0  0  0  0  0
  -26.7164  -32.5481   23.1198 H   0  0  0  0  0  0
  -25.0161  -33.9784   25.0543 H   0  0  0  0  0  0
  -22.7056  -31.3030   21.4042 H   0  0  0  0  0  0
  -23.3767  -35.9570   23.3279 H   0  0  0  0  0  0
  -24.3572  -36.8934   22.2066 H   0  0  0  0  0  0
  -23.7186  -37.6445   23.6686 H   0  0  0  0  0  0
  -26.0722  -31.5803   20.6077 H   0  0  0  0  0  0
  -26.8311  -30.8646   22.0000 H   0  0  0  0  0  0
  -28.1174  -29.0565   21.1841 H   0  0  0  0  0  0
  -26.0574  -25.9397   19.0376 H   0  0  0  0  0  0
  -23.9854  -27.2872   19.0429 H   0  0  0  0  0  0
  -23.7407  -30.5917   19.4072 H   0  0  0  0  0  0
  -22.7524  -29.2394   19.8639 H   0  0  0  0  0  0
  -25.1276  -36.1935   25.0833 H   0  0  0  0  0  0
  -20.9968  -28.3262   24.1406 H   0  0  0  0  0  0
  -20.5681  -26.2287   23.3621 H   0  0  0  0  0  0
  -21.6628  -26.7440   22.1176 H   0  0  0  0  0  0
  -19.6885  -25.6306   21.1250 H   0  0  0  0  0  0
  -19.6695  -27.3209   20.6750 H   0  0  0  0  0  0
  -17.4188  -26.6760   21.4011 H   0  0  0  0  0  0
  -18.0277  -26.0091   22.8990 H   0  0  0  0  0  0
  -19.7921  -30.7322   24.2257 H   0  0  0  0  0  0
  -17.4983  -31.6280   24.5182 H   0  0  0  0  0  0
  -15.5342  -30.2988   23.7694 H   0  0  0  0  0  0
  -15.8665  -28.0836   22.7085 H   0  0  0  0  0  0
  -24.5990  -30.6960   25.7828 H   0  0  0  0  0  0
  -24.8895  -32.2781   26.4967 H   0  0  0  0  0  0
  -25.8126  -30.8833   27.0265 H   0  0  0  0  0  0
  -26.2971  -29.6726   24.1308 H   0  0  0  0  0  0
  -27.4238  -29.7360   25.4685 H   0  0  0  0  0  0
  -27.8766  -30.4391   23.9339 H   0  0  0  0  0  0
  -27.2752  -33.3685   26.2022 H   0  0  0  0  0  0
  -28.3908  -32.6830   25.0312 H   0  0  0  0  0  0
  -28.0750  -31.8504   26.5456 H   0  0  0  0  0  0
  -28.2550  -38.0112   24.7564 H   0  0  0  0  0  0
  -28.1124  -36.2646   24.6224 H   0  0  0  0  0  0
  -27.2292  -37.1319   25.8864 H   0  0  0  0  0  0
  -20.9367  -29.8700   21.6836 H   0  0  0  0  0  0
  -26.0154  -38.2840   24.1518 H   0  0  0  0  0  0
  -27.6959  -19.5971   20.9028 H   0  0  0  0  0  0
  -27.7478  -17.1616   20.8775 H   0  0  0  0  0  0
  -32.0445  -17.2148   21.1255 H   0  0  0  0  0  0
  -27.9506  -23.8859   23.0082 H   0  0  0  0  0  0
  -27.7103  -21.4950   22.0139 H   0  0  0  0  0  0
  -28.9740  -21.6758   23.2004 H   0  0  0  0  0  0
  -30.6025  -24.0612   19.9785 H   0  0  0  0  0  0
  -29.1424  -24.1612   19.0260 H   0  0  0  0  0  0
  -30.2656  -21.8322   19.1029 H   0  0  0  0  0  0
  -28.5558  -21.8595   19.4277 H   0  0  0  0  0  0
  -30.7019  -21.8002   21.5651 H   0  0  0  0  0  0
  -33.2440  -19.1904   21.1586 H   0  0  0  0  0  0
  -32.4823  -20.3330   22.2541 H   0  0  0  0  0  0
  -32.5150  -20.6527   20.5101 H   0  0  0  0  0  0
  -29.6330  -26.2384   21.6331 H   0  0  0  0  0  0
  -27.9578  -26.0654   22.0702 H   0  0  0  0  0  0
  -28.9276  -15.1701   21.3117 H   0  0  0  0  0  0
  1 25  1  0  0  0
  1 30  2  0  0  0
  1 85  1  0  0  0
  2  3  1  0  0  0
  2 25  1  0  0  0
  2 86  1  0  0  0
  2 87  1  0  0  0
  3  4  1  0  0  0
  3 88  1  0  0  0
  3 89  1  0  0  0
  4  5  1  0  0  0
  4 90  1  0  0  0
  4 91  1  0  0  0
  5  6  1  0  0  0
  5 26  1  0  0  0
  5 92  1  0  0  0
  6 25  1  0  0  0
  6 93  1  0  0  0
  6 94  1  0  0  0
  7  8  2  0  0  0
  7 26  1  0  0  0
  7 29  1  0  0  0
  8  9  1  0  0  0
  8 22  1  0  0  0
  9 10  1  0  0  0
  9 27  2  0  0  0
 10 11  2  0  0  0
 10 15  1  0  0  0
 11 12  1  0  0  0
 11 95  1  0  0  0
 12 13  2  0  0  0
 12 96  1  0  0  0
 13 14  1  0  0  0
 13 31  1  0  0  0
 14 15  2  0  0  0
 14 97  1  0  0  0
 15 98  1  0  0  0
 16 17  2  0  0  0
 16 21  1  0  0  0
 16 31  1  0  0  0
 17 18  1  0  0  0
 17 99  1  0  0  0
 18 19  2  0  0  0
 18100  1  0  0  0
 19 20  1  0  0  0
 19 24  1  0  0  0
 20 21  2  0  0  0
 20101  1  0  0  0
 21 23  1  0  0  0
 22 28  1  0  0  0
 22 32  2  0  0  0
 26 27  1  0  0  0
 28102  1  0  0  0
 28103  1  0  0  0
 29104  1  0  0  0
 29105  1  0  0  0
 33 34  1  0  0  0
 33 66  1  0  0  0
 33 70  2  0  0  0
 34 36  1  0  0  0
 34 59  1  0  0  0
 34106  1  0  0  0
 35 44  2  0  0  0
 35 45  1  0  0  0
 35 68  1  0  0  0
 36 56  1  0  0  0
 36107  1  0  0  0
 37 39  1  0  0  0
 37 47  1  0  0  0
 37 66  1  0  0  0
 37108  1  0  0  0
 38 43  2  0  0  0
 38 46  1  0  0  0
 38 47  1  0  0  0
 39 64  1  0  0  0
 39 67  2  0  0  0
 40 52  1  0  0  0
 40 53  2  0  0  0
 40 58  1  0  0  0
 41109  1  0  0  0
 41110  1  0  0  0
 41111  1  0  0  0
 41 48  1  0  0  0
 42 43  1  0  0  0
 42 66  1  0  0  0
 42112  1  0  0  0
 42113  1  0  0  0
 43 44  1  0  0  0
 44114  1  0  0  0
 45 46  2  0  0  0
 45115  1  0  0  0
 46116  1  0  0  0
 47117  1  0  0  0
 47118  1  0  0  0
 48 56  1  0  0  0
 48 65  1  0  0  0
 48119  1  0  0  0
 49 50  1  0  0  0
 49 53  1  0  0  0
 49 64  1  0  0  0
 49120  1  0  0  0
 50 51  1  0  0  0
 50121  1  0  0  0
 50122  1  0  0  0
 51 52  1  0  0  0
 51123  1  0  0  0
 51124  1  0  0  0
 52125  1  0  0  0
 52126  1  0  0  0
 53 54  1  0  0  0
 54 55  2  0  0  0
 54127  1  0  0  0
 55 57  1  0  0  0
 55128  1  0  0  0
 56 69  2  0  0  0
 57 58  2  0  0  0
 57129  1  0  0  0
 58130  1  0  0  0
 59 60  1  0  0  0
 59 61  1  0  0  0
 59 62  1  0  0  0
 60131  1  0  0  0
 60132  1  0  0  0
 60133  1  0  0  0
 61134  1  0  0  0
 61135  1  0  0  0
 61136  1  0  0  0
 62137  1  0  0  0
 62138  1  0  0  0
 62139  1  0  0  0
 63 65  1  0  0  0
 63140  1  0  0  0
 63141  1  0  0  0
 63142  1  0  0  0
 64143  1  0  0  0
 65144  1  0  0  0
 68 84  1  0  0  0
 71 72  2  0  0  0
 71 74  1  0  0  0
 71145  1  0  0  0
 72 76  1  0  0  0
 72146  1  0  0  0
 73 75  1  0  0  0
 73 76  2  0  0  0
 73147  1  0  0  0
 74 75  2  0  0  0
 74 82  1  0  0  0
 75 83  1  0  0  0
 76 85  1  0  0  0
 77 78  2  0  0  0
 77 79  1  0  0  0
 77148  1  0  0  0
 78 80  1  0  0  0
 78 84  1  0  0  0
 79 82  1  0  0  0
 79149  1  0  0  0
 79150  1  0  0  0
 80 81  1  0  0  0
 80151  1  0  0  0
 80152  1  0  0  0
 81 82  1  0  0  0
 81153  1  0  0  0
 81154  1  0  0  0
 82155  1  0  0  0
 83156  1  0  0  0
 83157  1  0  0  0
 83158  1  0  0  0
 84159  1  0  0  0
 84160  1  0  0  0
 85161  1  0  0  0
M  ISO  4   1 100  68 101  84 101  85 100
M  END
> <chiral flag>
0

> <version>
0

> <s_m_source_file>
/data/baiqing/PycharmProjects/Reinvent-master-3.2/result/LINK_invent/BTK/process_docking_weight1_custom_product_contain_oxygen_bond_distance_aromatic_linkinvent_7_9_3/rearranged_h_0146.sdf

> <i_m_source_file_index>
90

> <r_mmod_Potential_Energy-OPLS-2005>
27.6347370147705

> <r_mmod_Stretch_Energy-OPLS-2005>
54.3680801391602

> <r_mmod_Bend_Energy-OPLS-2005>
117.129264831543

> <r_mmod_Torsional_Energy-OPLS-2005>
245.263534545898

> <r_mmod_Improper_Torsional_Energy-OPLS-2005>
4.73752307891846

> <r_mmod_Van_der_Waal_Energy-OPLS-2005>
146.323196411133

> <r_mmod_Electrostatic_Energy-OPLS-2005>
-367.026794433594

> <r_mmod_Solvation_Energy-OPLS-2005>
-196.762161254883

> <b_mmod_Minimization_Converged-OPLS-2005>
0

> <r_mmod_RMS_Derivative-OPLS-2005>
2.33178973197937

$$$$
90
                    3D
 Structure written by MMmdl.
153162  0  0  1  0            999 V2000
  -30.6324  -14.6859   20.4463 C   0  0  0  0  0  0
  -30.4251  -12.4109   19.4744 C   0  0  0  0  0  0
  -29.5084  -12.4983   18.2349 C   0  0  0  0  0  0
  -28.0317  -12.3373   18.6445 C   0  0  0  0  0  0
  -27.6441  -13.2302   19.8542 C   0  0  2  0  0  0
  -28.6866  -13.1437   20.9908 C   0  0  0  0  0  0
  -25.2514  -13.8204   20.5697 C   0  0  0  0  0  0
  -24.1803  -13.0448   20.9209 C   0  0  0  0  0  0
  -24.6392  -11.6927   20.8755 C   0  0  0  0  0  0
  -23.9072  -10.4298   21.0413 C   0  0  0  0  0  0
  -24.3622   -9.4209   21.9187 C   0  0  0  0  0  0
  -23.6296   -8.2243   22.0754 C   0  0  0  0  0  0
  -22.4274   -8.0284   21.3548 C   0  0  0  0  0  0
  -21.9912   -9.0261   20.4649 C   0  0  0  0  0  0
  -22.7246  -10.2139   20.3061 C   0  0  0  0  0  0
  -21.6853   -6.0739   22.5282 C   0  0  0  0  0  0
  -21.4015   -6.5640   23.8218 C   0  0  0  0  0  0
  -21.3659   -5.6790   24.9178 C   0  0  0  0  0  0
  -21.6043   -4.3054   24.7226 C   0  0  0  0  0  0
  -21.8816   -3.8147   23.4347 C   0  0  0  0  0  0
  -21.9194   -4.6967   22.3404 C   0  0  0  0  0  0
  -22.7822  -13.5232   21.1871 C   0  0  0  0  0  0
  -22.1660   -4.2154   21.0981 F   0  0  0  0  0  0
  -21.5627   -3.4536   25.7738 F   0  0  0  0  0  0
  -29.9960  -13.4699   20.4142 N   0  0  0  0  0  0
  -26.2944  -12.9411   20.3292 N   0  0  0  0  0  0
  -25.9322  -11.6555   20.5759 N   0  0  0  0  0  0
  -22.0463  -12.8226   22.0425 N   0  0  0  0  0  0
  -25.4197  -15.1926   20.4116 N   0  0  0  0  0  0
  -31.8281  -14.7540   20.1492 O   0  0  0  0  0  0
  -21.6638   -6.8883   21.4244 O   0  0  0  0  0  0
  -22.3509  -14.5540   20.6718 O   0  0  0  0  0  0
  -24.6279  -31.8570   23.2000 C   0  0  0  0  0  0
  -25.9115  -32.4762   23.8338 C   0  0  1  0  0  0
  -27.2234  -27.2951   20.1122 C   0  0  0  0  0  0
  -25.5921  -33.8563   24.2262 N   0  0  0  0  0  0
  -23.4222  -30.4800   21.5432 C   0  0  2  0  0  0
  -24.8672  -28.9301   20.1097 C   0  0  0  0  0  0
  -22.7483  -29.4605   22.4926 C   0  0  0  0  0  0
  -18.0289  -28.1383   22.8490 C   0  0  0  0  0  0
  -24.1488  -36.7287   23.2641 C   0  0  0  0  0  0
  -25.9650  -30.7792   21.3746 C   0  0  0  0  0  0
  -26.0361  -29.4047   20.7158 C   0  0  0  0  0  0
  -27.2129  -28.5973   20.7091 C   0  0  0  0  0  0
  -26.0242  -26.8706   19.4952 C   0  0  0  0  0  0
  -24.8642  -27.6696   19.4929 C   0  0  0  0  0  0
  -23.6373  -29.8135   20.1586 C   0  0  0  0  0  0
  -25.4114  -36.3075   24.0328 C   0  0  1  0  0  0
  -20.5890  -28.3684   23.1281 C   0  0  2  0  0  0
  -20.6772  -26.9405   22.5411 C   0  0  0  0  0  0
  -19.5747  -26.6380   21.5214 C   0  0  0  0  0  0
  -18.1929  -26.7926   22.1628 C   0  0  0  0  0  0
  -19.1541  -28.8852   23.2880 C   0  0  0  0  0  0
  -18.9464  -30.1453   23.8898 C   0  0  0  0  0  0
  -17.6462  -30.6585   24.0563 C   0  0  0  0  0  0
  -25.9051  -34.9443   23.5098 C   0  0  0  0  0  0
  -16.5354  -29.9082   23.6330 C   0  0  0  0  0  0
  -16.7276  -28.6499   23.0355 C   0  0  0  0  0  0
  -26.4494  -31.6586   25.0720 C   0  0  0  0  0  0
  -25.3725  -31.3734   26.1448 C   0  0  0  0  0  0
  -27.0340  -30.3007   24.6191 C   0  0  0  0  0  0
  -27.6044  -32.4336   25.7493 C   0  0  0  0  0  0
  -27.5579  -37.1799   24.8466 C   0  0  0  0  0  0
  -21.4194  -29.3035   22.3672 N   0  0  0  0  0  0
  -26.4291  -37.3770   23.9407 N   0  0  0  0  0  0
  -24.6907  -31.0563   22.0960 N   0  0  0  0  0  0
  -23.4199  -28.8145   23.3011 O   0  0  0  0  0  0
  -28.3576  -26.4649   20.1802 O   0  0  0  0  0  0
  -26.5624  -34.8916   22.4668 O   0  0  0  0  0  0
  -23.5436  -32.1380   23.7315 O   0  0  0  0  0  0
  -31.2801  -18.7529   18.6361 C   0  0  0  0  0  0
  -30.5773  -19.8651   19.1331 C   0  0  0  0  0  0
  -31.0472  -17.4580   19.1352 C   0  0  0  0  0  0
  -29.3815  -18.3793   20.6420 C   0  0  0  0  0  0
  -29.6048  -19.7264   20.1431 C   0  0  0  0  0  0
  -30.1054  -17.2134   20.1644 C   0  0  0  0  0  0
  -28.5126  -23.8406   20.4661 C   0  0  0  0  0  0
  -27.5781  -21.4459   20.0277 C   0  0  0  0  0  0
  -28.8919  -21.0369   20.6360 C   0  0  2  0  0  0
  -28.7363  -22.4121   19.8433 C   0  0  2  0  0  0
  -28.4334  -25.1238   19.5314 C   0  0  0  0  0  0
  -29.8701  -15.8273   20.6351 N   0  0  0  0  0  0
  -28.3685  -23.9676   21.6864 O   0  0  0  0  0  0
  -31.4701  -12.5133   19.1770 H   0  0  0  0  0  0
  -30.3456  -11.4305   19.9468 H   0  0  0  0  0  0
  -29.7800  -11.7315   17.5081 H   0  0  0  0  0  0
  -29.6507  -13.4578   17.7349 H   0  0  0  0  0  0
  -27.8756  -11.2876   18.8962 H   0  0  0  0  0  0
  -27.3792  -12.5463   17.7960 H   0  0  0  0  0  0
  -27.6466  -14.2559   19.4845 H   0  0  0  0  0  0
  -28.7032  -12.1444   21.4279 H   0  0  0  0  0  0
  -28.4339  -13.8278   21.8028 H   0  0  0  0  0  0
  -25.2768   -9.5684   22.4761 H   0  0  0  0  0  0
  -24.0011   -7.4630   22.7465 H   0  0  0  0  0  0
  -21.0845   -8.8787   19.8951 H   0  0  0  0  0  0
  -22.3711  -10.9681   19.6171 H   0  0  0  0  0  0
  -21.2006   -7.6148   23.9726 H   0  0  0  0  0  0
  -21.1485   -6.0518   25.9083 H   0  0  0  0  0  0
  -22.0595   -2.7610   23.2845 H   0  0  0  0  0  0
  -22.4077  -11.9902   22.4840 H   0  0  0  0  0  0
  -21.1078  -13.1252   22.2619 H   0  0  0  0  0  0
  -24.6495  -15.8439   20.5184 H   0  0  0  0  0  0
  -26.2638  -15.6329   20.0684 H   0  0  0  0  0  0
  -26.7177  -32.5419   23.1077 H   0  0  0  0  0  0
  -25.0064  -33.9702   25.0405 H   0  0  0  0  0  0
  -22.7172  -31.3010   21.3985 H   0  0  0  0  0  0
  -23.3749  -35.9621   23.3306 H   0  0  0  0  0  0
  -24.3578  -36.8906   22.2055 H   0  0  0  0  0  0
  -23.7242  -37.6488   23.6664 H   0  0  0  0  0  0
  -26.1010  -31.5420   20.6070 H   0  0  0  0  0  0
  -26.8436  -30.8259   22.0067 H   0  0  0  0  0  0
  -28.1106  -28.9571   21.1923 H   0  0  0  0  0  0
  -25.9329  -25.9017   19.0318 H   0  0  0  0  0  0
  -23.9639  -27.2964   19.0238 H   0  0  0  0  0  0
  -23.7589  -30.5888   19.4014 H   0  0  0  0  0  0
  -22.7564  -29.2443   19.8559 H   0  0  0  0  0  0
  -25.1294  -36.1926   25.0820 H   0  0  0  0  0  0
  -20.9984  -28.3259   24.1400 H   0  0  0  0  0  0
  -20.5669  -26.2294   23.3610 H   0  0  0  0  0  0
  -21.6640  -26.7426   22.1207 H   0  0  0  0  0  0
  -19.6904  -25.6290   21.1242 H   0  0  0  0  0  0
  -19.6683  -27.3191   20.6743 H   0  0  0  0  0  0
  -17.4195  -26.6676   21.4033 H   0  0  0  0  0  0
  -18.0328  -26.0067   22.9025 H   0  0  0  0  0  0
  -19.7940  -30.7269   24.2269 H   0  0  0  0  0  0
  -17.5017  -31.6266   24.5160 H   0  0  0  0  0  0
  -15.5354  -30.2983   23.7648 H   0  0  0  0  0  0
  -15.8679  -28.0813   22.7072 H   0  0  0  0  0  0
  -24.5895  -30.7085   25.7782 H   0  0  0  0  0  0
  -24.8924  -32.2905   26.4872 H   0  0  0  0  0  0
  -25.8051  -30.8915   27.0225 H   0  0  0  0  0  0
  -26.2918  -29.6757   24.1210 H   0  0  0  0  0  0
  -27.4024  -29.7264   25.4700 H   0  0  0  0  0  0
  -27.8793  -30.4285   23.9426 H   0  0  0  0  0  0
  -27.2638  -33.3632   26.2064 H   0  0  0  0  0  0
  -28.3855  -32.6906   25.0327 H   0  0  0  0  0  0
  -28.0712  -31.8473   26.5418 H   0  0  0  0  0  0
  -28.2598  -38.0093   24.7504 H   0  0  0  0  0  0
  -28.1072  -36.2624   24.6303 H   0  0  0  0  0  0
  -27.2296  -37.1463   25.8869 H   0  0  0  0  0  0
  -20.9373  -29.8764   21.6888 H   0  0  0  0  0  0
  -26.0173  -38.2845   24.1405 H   0  0  0  0  0  0
  -32.0125  -18.8937   17.8528 H   0  0  0  0  0  0
  -30.7965  -20.8416   18.7241 H   0  0  0  0  0  0
  -31.6101  -16.6544   18.6851 H   0  0  0  0  0  0
  -28.6392  -18.2434   21.4162 H   0  0  0  0  0  0
  -26.7838  -21.7269   20.7174 H   0  0  0  0  0  0
  -27.2427  -20.9198   19.1363 H   0  0  0  0  0  0
  -28.9800  -21.1109   21.7184 H   0  0  0  0  0  0
  -29.1465  -22.4368   18.8363 H   0  0  0  0  0  0
  -27.6590  -24.9664   18.7859 H   0  0  0  0  0  0
  -29.3593  -25.1261   18.9565 H   0  0  0  0  0  0
  -28.9573  -15.6549   21.0293 H   0  0  0  0  0  0
  1 25  1  0  0  0
  1 30  2  0  0  0
  1 82  1  0  0  0
  2  3  1  0  0  0
  2 25  1  0  0  0
  2 84  1  0  0  0
  2 85  1  0  0  0
  3  4  1  0  0  0
  3 86  1  0  0  0
  3 87  1  0  0  0
  4  5  1  0  0  0
  4 88  1  0  0  0
  4 89  1  0  0  0
  5  6  1  0  0  0
  5 26  1  0  0  0
  5 90  1  0  0  0
  6 25  1  0  0  0
  6 91  1  0  0  0
  6 92  1  0  0  0
  7  8  2  0  0  0
  7 26  1  0  0  0
  7 29  1  0  0  0
  8  9  1  0  0  0
  8 22  1  0  0  0
  9 10  1  0  0  0
  9 27  2  0  0  0
 10 11  2  0  0  0
 10 15  1  0  0  0
 11 12  1  0  0  0
 11 93  1  0  0  0
 12 13  2  0  0  0
 12 94  1  0  0  0
 13 14  1  0  0  0
 13 31  1  0  0  0
 14 15  2  0  0  0
 14 95  1  0  0  0
 15 96  1  0  0  0
 16 17  2  0  0  0
 16 21  1  0  0  0
 16 31  1  0  0  0
 17 18  1  0  0  0
 17 97  1  0  0  0
 18 19  2  0  0  0
 18 98  1  0  0  0
 19 20  1  0  0  0
 19 24  1  0  0  0
 20 21  2  0  0  0
 20 99  1  0  0  0
 21 23  1  0  0  0
 22 28  1  0  0  0
 22 32  2  0  0  0
 26 27  1  0  0  0
 28100  1  0  0  0
 28101  1  0  0  0
 29102  1  0  0  0
 29103  1  0  0  0
 33 34  1  0  0  0
 33 66  1  0  0  0
 33 70  2  0  0  0
 34 36  1  0  0  0
 34 59  1  0  0  0
 34104  1  0  0  0
 35 44  2  0  0  0
 35 45  1  0  0  0
 35 68  1  0  0  0
 36 56  1  0  0  0
 36105  1  0  0  0
 37 39  1  0  0  0
 37 47  1  0  0  0
 37 66  1  0  0  0
 37106  1  0  0  0
 38 43  2  0  0  0
 38 46  1  0  0  0
 38 47  1  0  0  0
 39 64  1  0  0  0
 39 67  2  0  0  0
 40 52  1  0  0  0
 40 53  2  0  0  0
 40 58  1  0  0  0
 41107  1  0  0  0
 41108  1  0  0  0
 41109  1  0  0  0
 41 48  1  0  0  0
 42 43  1  0  0  0
 42 66  1  0  0  0
 42110  1  0  0  0
 42111  1  0  0  0
 43 44  1  0  0  0
 44112  1  0  0  0
 45 46  2  0  0  0
 45113  1  0  0  0
 46114  1  0  0  0
 47115  1  0  0  0
 47116  1  0  0  0
 48 56  1  0  0  0
 48 65  1  0  0  0
 48117  1  0  0  0
 49 50  1  0  0  0
 49 53  1  0  0  0
 49 64  1  0  0  0
 49118  1  0  0  0
 50 51  1  0  0  0
 50119  1  0  0  0
 50120  1  0  0  0
 51 52  1  0  0  0
 51121  1  0  0  0
 51122  1  0  0  0
 52123  1  0  0  0
 52124  1  0  0  0
 53 54  1  0  0  0
 54 55  2  0  0  0
 54125  1  0  0  0
 55 57  1  0  0  0
 55126  1  0  0  0
 56 69  2  0  0  0
 57 58  2  0  0  0
 57127  1  0  0  0
 58128  1  0  0  0
 59 60  1  0  0  0
 59 61  1  0  0  0
 59 62  1  0  0  0
 60129  1  0  0  0
 60130  1  0  0  0
 60131  1  0  0  0
 61132  1  0  0  0
 61133  1  0  0  0
 61134  1  0  0  0
 62135  1  0  0  0
 62136  1  0  0  0
 62137  1  0  0  0
 63 65  1  0  0  0
 63138  1  0  0  0
 63139  1  0  0  0
 63140  1  0  0  0
 64141  1  0  0  0
 65142  1  0  0  0
 68 81  1  0  0  0
 71 72  2  0  0  0
 71 73  1  0  0  0
 71143  1  0  0  0
 72 75  1  0  0  0
 72144  1  0  0  0
 73 76  2  0  0  0
 73145  1  0  0  0
 74 75  2  0  0  0
 74 76  1  0  0  0
 74146  1  0  0  0
 75 79  1  0  0  0
 76 82  1  0  0  0
 77 81  1  0  0  0
 77 83  2  0  0  0
 77 80  1  0  0  0
 78 79  1  0  0  0
 78 80  1  0  0  0
 78147  1  0  0  0
 78148  1  0  0  0
 79 80  1  0  0  0
 79149  1  0  0  0
 80150  1  0  0  0
 81151  1  0  0  0
 81152  1  0  0  0
 82153  1  0  0  0
M  ISO  4   1 100  68 101  81 101  82 100
M  END
> <chiral flag>
0

> <version>
0

> <s_m_source_file>
/data/baiqing/PycharmProjects/Reinvent-master-3.2/result/LINK_invent/BTK/process_docking_weight1_custom_product_contain_oxygen_bond_distance_aromatic_linkinvent_7_9_3/rearranged_h_0146.sdf

> <i_m_source_file_index>
91

> <r_mmod_Potential_Energy-OPLS-2005>
126.739807128906

> <r_mmod_Stretch_Energy-OPLS-2005>
103.904357910156

> <r_mmod_Bend_Energy-OPLS-2005>
146.024459838867

> <r_mmod_Torsional_Energy-OPLS-2005>
241.543334960938

> <r_mmod_Improper_Torsional_Energy-OPLS-2005>
4.50329303741455

> <r_mmod_Van_der_Waal_Energy-OPLS-2005>
141.441955566406

> <r_mmod_Electrostatic_Energy-OPLS-2005>
-345.330627441406

> <r_mmod_Solvation_Energy-OPLS-2005>
-228.190872192383

> <b_mmod_Minimization_Converged-OPLS-2005>
0

> <r_mmod_RMS_Derivative-OPLS-2005>
0.667472243309021

$$$$
91
                    3D
 Structure written by MMmdl.
157166  0  0  1  0            999 V2000
  -30.5733  -14.8104   20.4111 C   0  0  0  0  0  0
  -30.4389  -12.4854   19.4923 C   0  0  0  0  0  0
  -29.5212  -12.5128   18.2486 C   0  0  0  0  0  0
  -28.0475  -12.3317   18.6573 C   0  0  0  0  0  0
  -27.6450  -13.2346   19.8532 C   0  0  2  0  0  0
  -28.6862  -13.1881   20.9916 C   0  0  0  0  0  0
  -25.2549  -13.8195   20.5696 C   0  0  0  0  0  0
  -24.1826  -13.0450   20.9197 C   0  0  0  0  0  0
  -24.6408  -11.6921   20.8733 C   0  0  0  0  0  0
  -23.9075  -10.4294   21.0404 C   0  0  0  0  0  0
  -24.3617   -9.4206   21.9178 C   0  0  0  0  0  0
  -23.6289   -8.2239   22.0741 C   0  0  0  0  0  0
  -22.4268   -8.0283   21.3538 C   0  0  0  0  0  0
  -21.9911   -9.0268   20.4634 C   0  0  0  0  0  0
  -22.7244  -10.2144   20.3048 C   0  0  0  0  0  0
  -21.6858   -6.0735   22.5269 C   0  0  0  0  0  0
  -21.4019   -6.5627   23.8197 C   0  0  0  0  0  0
  -21.3664   -5.6773   24.9160 C   0  0  0  0  0  0
  -21.6052   -4.3041   24.7208 C   0  0  0  0  0  0
  -21.8819   -3.8139   23.4326 C   0  0  0  0  0  0
  -21.9189   -4.6962   22.3386 C   0  0  0  0  0  0
  -22.7848  -13.5245   21.1855 C   0  0  0  0  0  0
  -22.1654   -4.2154   21.0965 F   0  0  0  0  0  0
  -21.5643   -3.4516   25.7719 F   0  0  0  0  0  0
  -29.9821  -13.5596   20.4118 N   0  0  0  0  0  0
  -26.2959  -12.9405   20.3273 N   0  0  0  0  0  0
  -25.9341  -11.6543   20.5740 N   0  0  0  0  0  0
  -22.0473  -12.8232   22.0398 N   0  0  0  0  0  0
  -25.4319  -15.1914   20.4118 N   0  0  0  0  0  0
  -31.7602  -14.8955   20.0752 O   0  0  0  0  0  0
  -21.6623   -6.8891   21.4234 O   0  0  0  0  0  0
  -22.3533  -14.5554   20.6712 O   0  0  0  0  0  0
  -24.6360  -31.8512   23.1936 C   0  0  0  0  0  0
  -25.9170  -32.4731   23.8316 C   0  0  1  0  0  0
  -27.2287  -27.2341   20.1172 C   0  0  0  0  0  0
  -25.5960  -33.8530   24.2254 N   0  0  0  0  0  0
  -23.4369  -30.4729   21.5336 C   0  0  2  0  0  0
  -24.8896  -28.9162   20.0990 C   0  0  0  0  0  0
  -22.7546  -29.4584   22.4841 C   0  0  0  0  0  0
  -18.0308  -28.1392   22.8485 C   0  0  0  0  0  0
  -24.1505  -36.7257   23.2641 C   0  0  0  0  0  0
  -25.9867  -30.7533   21.3830 C   0  0  0  0  0  0
  -26.0596  -29.3756   20.7157 C   0  0  0  0  0  0
  -27.2289  -28.5443   20.7152 C   0  0  0  0  0  0
  -26.0365  -26.8471   19.4690 C   0  0  0  0  0  0
  -24.8847  -27.6631   19.4626 C   0  0  0  0  0  0
  -23.6609  -29.8057   20.1493 C   0  0  0  0  0  0
  -25.4123  -36.3050   24.0334 C   0  0  1  0  0  0
  -20.5917  -28.3719   23.1242 C   0  0  2  0  0  0
  -20.6786  -26.9427   22.5403 C   0  0  0  0  0  0
  -19.5753  -26.6383   21.5212 C   0  0  0  0  0  0
  -18.1930  -26.7941   22.1621 C   0  0  0  0  0  0
  -19.1562  -28.8873   23.2864 C   0  0  0  0  0  0
  -18.9475  -30.1463   23.8892 C   0  0  0  0  0  0
  -17.6473  -30.6595   24.0550 C   0  0  0  0  0  0
  -25.9061  -34.9422   23.5096 C   0  0  0  0  0  0
  -16.5362  -29.9086   23.6331 C   0  0  0  0  0  0
  -16.7288  -28.6501   23.0359 C   0  0  0  0  0  0
  -26.4526  -31.6553   25.0712 C   0  0  0  0  0  0
  -25.3741  -31.3713   26.1428 C   0  0  0  0  0  0
  -27.0370  -30.2953   24.6242 C   0  0  0  0  0  0
  -27.6102  -32.4284   25.7465 C   0  0  0  0  0  0
  -27.5588  -37.1788   24.8469 C   0  0  0  0  0  0
  -21.4237  -29.3067   22.3621 N   0  0  0  0  0  0
  -26.4299  -37.3752   23.9407 N   0  0  0  0  0  0
  -24.7049  -31.0448   22.0924 N   0  0  0  0  0  0
  -23.4230  -28.8119   23.2952 O   0  0  0  0  0  0
  -28.2982  -26.3080   20.2400 O   0  0  0  0  0  0
  -26.5618  -34.8909   22.4656 O   0  0  0  0  0  0
  -23.5496  -32.1366   23.7190 O   0  0  0  0  0  0
  -29.8882  -19.7674   18.4209 C   0  0  0  0  0  0
  -30.4079  -17.3786   18.6760 C   0  0  0  0  0  0
  -29.3330  -18.6077   20.4800 C   0  0  0  0  0  0
  -30.4081  -18.5608   17.9100 C   0  0  0  0  0  0
  -29.3439  -19.8722   19.7219 C   0  0  0  0  0  0
  -29.8646  -17.3248   19.9787 C   0  0  0  0  0  0
  -28.5198  -23.7352   20.0569 C   0  0  0  0  0  0
  -28.3530  -25.0397   19.5715 C   0  0  0  0  0  0
  -28.5244  -23.2416   21.4920 C   0  0  0  0  0  0
  -28.7450  -22.4200   19.2336 C   0  0  0  0  0  0
  -28.9011  -21.7115   21.4947 C   0  0  0  0  0  0
  -30.9534  -18.5200   16.4957 C   0  0  0  0  0  0
  -28.8585  -21.2038   20.1205 N   0  0  0  0  0  0
  -29.8023  -15.9643   20.6321 N   0  0  0  0  0  0
  -31.4813  -12.6097   19.1916 H   0  0  0  0  0  0
  -30.3905  -11.5137   19.9859 H   0  0  0  0  0  0
  -29.8128  -11.7311   17.5447 H   0  0  0  0  0  0
  -29.6434  -13.4618   17.7237 H   0  0  0  0  0  0
  -27.9066  -11.2836   18.9247 H   0  0  0  0  0  0
  -27.3946  -12.5206   17.8047 H   0  0  0  0  0  0
  -27.6370  -14.2529   19.4634 H   0  0  0  0  0  0
  -28.7381  -12.1914   21.4322 H   0  0  0  0  0  0
  -28.4154  -13.8670   21.8021 H   0  0  0  0  0  0
  -25.2767   -9.5682   22.4743 H   0  0  0  0  0  0
  -24.0003   -7.4627   22.7447 H   0  0  0  0  0  0
  -21.0848   -8.8816   19.8931 H   0  0  0  0  0  0
  -22.3727  -10.9695   19.6155 H   0  0  0  0  0  0
  -21.2008   -7.6130   23.9721 H   0  0  0  0  0  0
  -21.1491   -6.0485   25.9071 H   0  0  0  0  0  0
  -22.0596   -2.7600   23.2804 H   0  0  0  0  0  0
  -22.4063  -11.9889   22.4791 H   0  0  0  0  0  0
  -21.1105  -13.1305   22.2609 H   0  0  0  0  0  0
  -24.6817  -15.8617   20.5418 H   0  0  0  0  0  0
  -26.2880  -15.6154   20.0773 H   0  0  0  0  0  0
  -26.7234  -32.5387   23.1052 H   0  0  0  0  0  0
  -25.0161  -33.9661   25.0438 H   0  0  0  0  0  0
  -22.7360  -31.2961   21.3822 H   0  0  0  0  0  0
  -23.3781  -35.9580   23.3290 H   0  0  0  0  0  0
  -24.3610  -36.8882   22.2063 H   0  0  0  0  0  0
  -23.7252  -37.6451   23.6662 H   0  0  0  0  0  0
  -26.1423  -31.5209   20.6230 H   0  0  0  0  0  0
  -26.8568  -30.7923   22.0271 H   0  0  0  0  0  0
  -28.1219  -28.8823   21.2230 H   0  0  0  0  0  0
  -25.9694  -25.8796   18.9931 H   0  0  0  0  0  0
  -23.9905  -27.3075   18.9708 H   0  0  0  0  0  0
  -23.7897  -30.5820   19.3933 H   0  0  0  0  0  0
  -22.7806  -29.2385   19.8430 H   0  0  0  0  0  0
  -25.1306  -36.1892   25.0829 H   0  0  0  0  0  0
  -21.0022  -28.3307   24.1356 H   0  0  0  0  0  0
  -20.5666  -26.2335   23.3617 H   0  0  0  0  0  0
  -21.6652  -26.7431   22.1206 H   0  0  0  0  0  0
  -19.6898  -25.6284   21.1260 H   0  0  0  0  0  0
  -19.6670  -27.3177   20.6725 H   0  0  0  0  0  0
  -17.4199  -26.6712   21.4013 H   0  0  0  0  0  0
  -18.0303  -26.0079   22.9012 H   0  0  0  0  0  0
  -19.7945  -30.7280   24.2269 H   0  0  0  0  0  0
  -17.5021  -31.6275   24.5145 H   0  0  0  0  0  0
  -15.5357  -30.2980   23.7644 H   0  0  0  0  0  0
  -15.8699  -28.0810   22.7077 H   0  0  0  0  0  0
  -24.5905  -30.7082   25.7741 H   0  0  0  0  0  0
  -24.8944  -32.2880   26.4868 H   0  0  0  0  0  0
  -25.8048  -30.8864   27.0197 H   0  0  0  0  0  0
  -26.2959  -29.6667   24.1290 H   0  0  0  0  0  0
  -27.4042  -29.7255   25.4786 H   0  0  0  0  0  0
  -27.8853  -30.4184   23.9507 H   0  0  0  0  0  0
  -27.2756  -33.3611   26.2019 H   0  0  0  0  0  0
  -28.3917  -32.6792   25.0276 H   0  0  0  0  0  0
  -28.0771  -31.8413   26.5384 H   0  0  0  0  0  0
  -28.2602  -38.0090   24.7514 H   0  0  0  0  0  0
  -28.1086  -36.2614   24.6289 H   0  0  0  0  0  0
  -27.2306  -37.1443   25.8876 H   0  0  0  0  0  0
  -20.9416  -29.8817   21.6856 H   0  0  0  0  0  0
  -26.0173  -38.2833   24.1370 H   0  0  0  0  0  0
  -29.9234  -20.6286   17.7707 H   0  0  0  0  0  0
  -30.8058  -16.4857   18.2170 H   0  0  0  0  0  0
  -28.8885  -18.6221   21.4648 H   0  0  0  0  0  0
  -28.3709  -25.2012   18.5028 H   0  0  0  0  0  0
  -27.5135  -23.3667   21.8814 H   0  0  0  0  0  0
  -29.1917  -23.8362   22.1161 H   0  0  0  0  0  0
  -29.6662  -22.5534   18.6639 H   0  0  0  0  0  0
  -27.9317  -22.2934   18.5162 H   0  0  0  0  0  0
  -28.2236  -21.1477   22.1371 H   0  0  0  0  0  0
  -29.9095  -21.5772   21.8890 H   0  0  0  0  0  0
  -31.1031  -19.5222   16.0921 H   0  0  0  0  0  0
  -30.2583  -17.9899   15.8429 H   0  0  0  0  0  0
  -31.9120  -18.0023   16.4645 H   0  0  0  0  0  0
  -28.9612  -15.7972   21.1655 H   0  0  0  0  0  0
  1 25  1  0  0  0
  1 30  2  0  0  0
  1 84  1  0  0  0
  2  3  1  0  0  0
  2 25  1  0  0  0
  2 85  1  0  0  0
  2 86  1  0  0  0
  3  4  1  0  0  0
  3 87  1  0  0  0
  3 88  1  0  0  0
  4  5  1  0  0  0
  4 89  1  0  0  0
  4 90  1  0  0  0
  5  6  1  0  0  0
  5 26  1  0  0  0
  5 91  1  0  0  0
  6 25  1  0  0  0
  6 92  1  0  0  0
  6 93  1  0  0  0
  7  8  2  0  0  0
  7 26  1  0  0  0
  7 29  1  0  0  0
  8  9  1  0  0  0
  8 22  1  0  0  0
  9 10  1  0  0  0
  9 27  2  0  0  0
 10 11  2  0  0  0
 10 15  1  0  0  0
 11 12  1  0  0  0
 11 94  1  0  0  0
 12 13  2  0  0  0
 12 95  1  0  0  0
 13 14  1  0  0  0
 13 31  1  0  0  0
 14 15  2  0  0  0
 14 96  1  0  0  0
 15 97  1  0  0  0
 16 17  2  0  0  0
 16 21  1  0  0  0
 16 31  1  0  0  0
 17 18  1  0  0  0
 17 98  1  0  0  0
 18 19  2  0  0  0
 18 99  1  0  0  0
 19 20  1  0  0  0
 19 24  1  0  0  0
 20 21  2  0  0  0
 20100  1  0  0  0
 21 23  1  0  0  0
 22 28  1  0  0  0
 22 32  2  0  0  0
 26 27  1  0  0  0
 28101  1  0  0  0
 28102  1  0  0  0
 29103  1  0  0  0
 29104  1  0  0  0
 33 34  1  0  0  0
 33 66  1  0  0  0
 33 70  2  0  0  0
 34 36  1  0  0  0
 34 59  1  0  0  0
 34105  1  0  0  0
 35 44  2  0  0  0
 35 45  1  0  0  0
 35 68  1  0  0  0
 36 56  1  0  0  0
 36106  1  0  0  0
 37 39  1  0  0  0
 37 47  1  0  0  0
 37 66  1  0  0  0
 37107  1  0  0  0
 38 43  2  0  0  0
 38 46  1  0  0  0
 38 47  1  0  0  0
 39 64  1  0  0  0
 39 67  2  0  0  0
 40 52  1  0  0  0
 40 53  2  0  0  0
 40 58  1  0  0  0
 41108  1  0  0  0
 41109  1  0  0  0
 41110  1  0  0  0
 41 48  1  0  0  0
 42 43  1  0  0  0
 42 66  1  0  0  0
 42111  1  0  0  0
 42112  1  0  0  0
 43 44  1  0  0  0
 44113  1  0  0  0
 45 46  2  0  0  0
 45114  1  0  0  0
 46115  1  0  0  0
 47116  1  0  0  0
 47117  1  0  0  0
 48 56  1  0  0  0
 48 65  1  0  0  0
 48118  1  0  0  0
 49 50  1  0  0  0
 49 53  1  0  0  0
 49 64  1  0  0  0
 49119  1  0  0  0
 50 51  1  0  0  0
 50120  1  0  0  0
 50121  1  0  0  0
 51 52  1  0  0  0
 51122  1  0  0  0
 51123  1  0  0  0
 52124  1  0  0  0
 52125  1  0  0  0
 53 54  1  0  0  0
 54 55  2  0  0  0
 54126  1  0  0  0
 55 57  1  0  0  0
 55127  1  0  0  0
 56 69  2  0  0  0
 57 58  2  0  0  0
 57128  1  0  0  0
 58129  1  0  0  0
 59 60  1  0  0  0
 59 61  1  0  0  0
 59 62  1  0  0  0
 60130  1  0  0  0
 60131  1  0  0  0
 60132  1  0  0  0
 61133  1  0  0  0
 61134  1  0  0  0
 61135  1  0  0  0
 62136  1  0  0  0
 62137  1  0  0  0
 62138  1  0  0  0
 63 65  1  0  0  0
 63139  1  0  0  0
 63140  1  0  0  0
 63141  1  0  0  0
 64142  1  0  0  0
 65143  1  0  0  0
 68 78  1  0  0  0
 71 74  2  0  0  0
 71 75  1  0  0  0
 71144  1  0  0  0
 72 74  1  0  0  0
 72 76  2  0  0  0
 72145  1  0  0  0
 73 75  2  0  0  0
 73 76  1  0  0  0
 73146  1  0  0  0
 74 82  1  0  0  0
 75 83  1  0  0  0
 76 84  1  0  0  0
 77 78  2  0  0  0
 77 79  1  0  0  0
 77 80  1  0  0  0
 78147  1  0  0  0
 79 81  1  0  0  0
 79148  1  0  0  0
 79149  1  0  0  0
 80 83  1  0  0  0
 80150  1  0  0  0
 80151  1  0  0  0
 81 83  1  0  0  0
 81152  1  0  0  0
 81153  1  0  0  0
 82154  1  0  0  0
 82155  1  0  0  0
 82156  1  0  0  0
 84157  1  0  0  0
M  ISO  4   1 100  68 101  78 101  84 100
M  END
> <chiral flag>
0

> <version>
0

> <s_m_source_file>
/data/baiqing/PycharmProjects/Reinvent-master-3.2/result/LINK_invent/BTK/process_docking_weight1_custom_product_contain_oxygen_bond_distance_aromatic_linkinvent_7_9_3/rearranged_h_0146.sdf

> <i_m_source_file_index>
92

> <r_mmod_Potential_Energy-OPLS-2005>
311.302154541016

> <r_mmod_Stretch_Energy-OPLS-2005>
143.249877929688

> <r_mmod_Bend_Energy-OPLS-2005>
213.501953125

> <r_mmod_Torsional_Energy-OPLS-2005>
257.360748291016

> <r_mmod_Improper_Torsional_Energy-OPLS-2005>
6.15233755111694

> <r_mmod_Van_der_Waal_Energy-OPLS-2005>
134.730255126953

> <r_mmod_Electrostatic_Energy-OPLS-2005>
-330.218688964844

> <r_mmod_Solvation_Energy-OPLS-2005>
-227.568786621094

> <b_mmod_Minimization_Converged-OPLS-2005>
0

> <r_mmod_RMS_Derivative-OPLS-2005>
2.55071544647217

$$$$
92
                    3D
 Structure written by MMmdl.
154163  0  0  1  0            999 V2000
  -30.6227  -14.8137   20.5286 C   0  0  0  0  0  0
  -30.4234  -12.5261   19.4945 C   0  0  0  0  0  0
  -29.5189  -12.5417   18.2446 C   0  0  0  0  0  0
  -28.0464  -12.3434   18.6465 C   0  0  0  0  0  0
  -27.6324  -13.2420   19.8400 C   0  0  2  0  0  0
  -28.6640  -13.2341   20.9867 C   0  0  0  0  0  0
  -25.2446  -13.8179   20.5716 C   0  0  0  0  0  0
  -24.1751  -13.0449   20.9147 C   0  0  0  0  0  0
  -24.6349  -11.6913   20.8704 C   0  0  0  0  0  0
  -23.9028  -10.4322   21.0406 C   0  0  0  0  0  0
  -24.3600   -9.4249   21.9201 C   0  0  0  0  0  0
  -23.6290   -8.2268   22.0772 C   0  0  0  0  0  0
  -22.4253   -8.0304   21.3568 C   0  0  0  0  0  0
  -21.9880   -9.0259   20.4644 C   0  0  0  0  0  0
  -22.7197  -10.2154   20.3060 C   0  0  0  0  0  0
  -21.6886   -6.0731   22.5277 C   0  0  0  0  0  0
  -21.4032   -6.5622   23.8212 C   0  0  0  0  0  0
  -21.3674   -5.6776   24.9162 C   0  0  0  0  0  0
  -21.6051   -4.3031   24.7223 C   0  0  0  0  0  0
  -21.8823   -3.8132   23.4337 C   0  0  0  0  0  0
  -21.9191   -4.6952   22.3397 C   0  0  0  0  0  0
  -22.7771  -13.5239   21.1797 C   0  0  0  0  0  0
  -22.1673   -4.2126   21.0977 F   0  0  0  0  0  0
  -21.5612   -3.4526   25.7744 F   0  0  0  0  0  0
  -29.9617  -13.6035   20.4114 N   0  0  0  0  0  0
  -26.2883  -12.9414   20.3189 N   0  0  0  0  0  0
  -25.9288  -11.6557   20.5673 N   0  0  0  0  0  0
  -22.0405  -12.8313   22.0352 N   0  0  0  0  0  0
  -25.4097  -15.1936   20.4224 N   0  0  0  0  0  0
  -31.8181  -14.8523   20.2126 O   0  0  0  0  0  0
  -21.6654   -6.8883   21.4245 O   0  0  0  0  0  0
  -22.3504  -14.5589   20.6627 O   0  0  0  0  0  0
  -24.6428  -31.8560   23.1954 C   0  0  0  0  0  0
  -25.9279  -32.4720   23.8262 C   0  0  1  0  0  0
  -27.1354  -27.1565   20.1206 C   0  0  0  0  0  0
  -25.6070  -33.8507   24.2204 N   0  0  0  0  0  0
  -23.4239  -30.4938   21.5464 C   0  0  2  0  0  0
  -24.8506  -28.9325   20.1069 C   0  0  0  0  0  0
  -22.7484  -29.4652   22.4878 C   0  0  0  0  0  0
  -18.0293  -28.1287   22.8404 C   0  0  0  0  0  0
  -24.1515  -36.7213   23.2626 C   0  0  0  0  0  0
  -25.9834  -30.7374   21.3872 C   0  0  0  0  0  0
  -26.0395  -29.3588   20.7113 C   0  0  0  0  0  0
  -27.1895  -28.4879   20.6988 C   0  0  0  0  0  0
  -25.9198  -26.8357   19.4784 C   0  0  0  0  0  0
  -24.8010  -27.6816   19.4814 C   0  0  0  0  0  0
  -23.6415  -29.8471   20.1565 C   0  0  0  0  0  0
  -25.4147  -36.3011   24.0307 C   0  0  1  0  0  0
  -20.5868  -28.3701   23.1227 C   0  0  2  0  0  0
  -20.6786  -26.9385   22.5471 C   0  0  0  0  0  0
  -19.5788  -26.6266   21.5268 C   0  0  0  0  0  0
  -18.1977  -26.7803   22.1645 C   0  0  0  0  0  0
  -19.1531  -28.8827   23.2723 C   0  0  0  0  0  0
  -18.9442  -30.1440   23.8670 C   0  0  0  0  0  0
  -17.6445  -30.6550   24.0360 C   0  0  0  0  0  0
  -25.9112  -34.9414   23.5038 C   0  0  0  0  0  0
  -16.5336  -29.8986   23.6168 C   0  0  0  0  0  0
  -16.7284  -28.6365   23.0263 C   0  0  0  0  0  0
  -26.4584  -31.6533   25.0659 C   0  0  0  0  0  0
  -25.3763  -31.3749   26.1341 C   0  0  0  0  0  0
  -27.0463  -30.2946   24.6226 C   0  0  0  0  0  0
  -27.6097  -32.4315   25.7463 C   0  0  0  0  0  0
  -27.5565  -37.1771   24.8477 C   0  0  0  0  0  0
  -21.4198  -29.3043   22.3590 N   0  0  0  0  0  0
  -26.4287  -37.3723   23.9385 N   0  0  0  0  0  0
  -24.7034  -31.0448   22.1016 N   0  0  0  0  0  0
  -23.4198  -28.8194   23.2992 O   0  0  0  0  0  0
  -28.1529  -26.1504   20.2019 O   0  0  0  0  0  0
  -26.5658  -34.8924   22.4589 O   0  0  0  0  0  0
  -23.5600  -32.1468   23.7257 O   0  0  0  0  0  0
  -29.0323  -18.2368   20.3997 C   0  0  0  0  0  0
  -29.9657  -18.4273   21.3266 C   0  0  0  0  0  0
  -28.7916  -20.5838   20.6024 C   0  0  0  0  0  0
  -28.2398  -24.4976   18.3218 C   0  0  0  0  0  0
  -28.9632  -16.7406   20.0528 C   0  0  0  0  0  0
  -30.6314  -17.1104   21.7150 C   0  0  0  0  0  0
  -27.2355  -23.8329   17.3665 C   0  0  0  0  0  0
  -28.4839  -23.3991   20.7242 C   0  0  0  0  0  0
  -27.8830  -24.6676   19.8260 C   0  0  1  0  0  0
  -28.3496  -19.4347   19.9938 N   0  0  0  0  0  0
  -29.9631  -15.9945   20.9238 N   0  0  0  0  0  0
  -28.2687  -21.9228   20.3403 N   0  0  0  0  0  0
  -29.3237  -24.8946   17.8769 O   0  0  0  0  0  0
  -30.0984  -20.1470   21.7757 S   0  0  0  0  0  0
  -31.4646  -12.6497   19.1989 H   0  0  0  0  0  0
  -30.3725  -11.5607   19.9989 H   0  0  0  0  0  0
  -29.8277  -11.7688   17.5375 H   0  0  0  0  0  0
  -29.6395  -13.4915   17.7194 H   0  0  0  0  0  0
  -27.9090  -11.2941   18.9058 H   0  0  0  0  0  0
  -27.3992  -12.5315   17.7880 H   0  0  0  0  0  0
  -27.6086  -14.2500   19.4310 H   0  0  0  0  0  0
  -28.7123  -12.2602   21.4748 H   0  0  0  0  0  0
  -28.3635  -13.9467   21.7575 H   0  0  0  0  0  0
  -25.2769   -9.5745   22.4758 H   0  0  0  0  0  0
  -24.0015   -7.4686   22.7524 H   0  0  0  0  0  0
  -21.0800   -8.8773   19.8986 H   0  0  0  0  0  0
  -22.3657  -10.9683   19.6160 H   0  0  0  0  0  0
  -21.2066   -7.6136   23.9705 H   0  0  0  0  0  0
  -21.1475   -6.0500   25.9066 H   0  0  0  0  0  0
  -22.0583   -2.7590   23.2836 H   0  0  0  0  0  0
  -22.3988  -12.0031   22.4856 H   0  0  0  0  0  0
  -21.1053  -13.1422   22.2529 H   0  0  0  0  0  0
  -24.6263  -15.8328   20.5075 H   0  0  0  0  0  0
  -26.2493  -15.6432   20.0926 H   0  0  0  0  0  0
  -26.7316  -32.5295   23.0950 H   0  0  0  0  0  0
  -25.0242  -33.9616   25.0391 H   0  0  0  0  0  0
  -22.7175  -31.3203   21.4167 H   0  0  0  0  0  0
  -23.3772  -35.9546   23.3333 H   0  0  0  0  0  0
  -24.3568  -36.8805   22.2018 H   0  0  0  0  0  0
  -23.7323  -37.6435   23.6662 H   0  0  0  0  0  0
  -26.1459  -31.5066   20.6306 H   0  0  0  0  0  0
  -26.8454  -30.7592   22.0381 H   0  0  0  0  0  0
  -28.0957  -28.8143   21.1851 H   0  0  0  0  0  0
  -25.7524  -25.8953   18.9791 H   0  0  0  0  0  0
  -23.8843  -27.3491   19.0103 H   0  0  0  0  0  0
  -23.7904  -30.6387   19.4213 H   0  0  0  0  0  0
  -22.7493  -29.3149   19.8300 H   0  0  0  0  0  0
  -25.1349  -36.1800   25.0791 H   0  0  0  0  0  0
  -21.0040  -28.3402   24.1310 H   0  0  0  0  0  0
  -20.5792  -26.2330   23.3733 H   0  0  0  0  0  0
  -21.6653  -26.7448   22.1242 H   0  0  0  0  0  0
  -19.6671  -27.3043   20.6761 H   0  0  0  0  0  0
  -19.6995  -25.6173   21.1335 H   0  0  0  0  0  0
  -17.4213  -26.6452   21.4080 H   0  0  0  0  0  0
  -18.0488  -25.9898   22.9029 H   0  0  0  0  0  0
  -19.7907  -30.7279   24.1953 H   0  0  0  0  0  0
  -17.4988  -31.6232   24.4961 H   0  0  0  0  0  0
  -15.5326  -30.2836   23.7442 H   0  0  0  0  0  0
  -15.8716  -28.0570   22.7089 H   0  0  0  0  0  0
  -24.5900  -30.7172   25.7628 H   0  0  0  0  0  0
  -24.9008  -32.2956   26.4733 H   0  0  0  0  0  0
  -25.7983  -30.8896   27.0155 H   0  0  0  0  0  0
  -26.3097  -29.6639   24.1249 H   0  0  0  0  0  0
  -27.4118  -29.7249   25.4780 H   0  0  0  0  0  0
  -27.8974  -30.4155   23.9522 H   0  0  0  0  0  0
  -27.2647  -33.3611   26.2011 H   0  0  0  0  0  0
  -28.3904  -32.6917   25.0298 H   0  0  0  0  0  0
  -28.0794  -31.8505   26.5414 H   0  0  0  0  0  0
  -28.2616  -38.0038   24.7457 H   0  0  0  0  0  0
  -28.1034  -36.2560   24.6397 H   0  0  0  0  0  0
  -27.2253  -37.1504   25.8879 H   0  0  0  0  0  0
  -20.9373  -29.8821   21.6836 H   0  0  0  0  0  0
  -26.0152  -38.2783   24.1404 H   0  0  0  0  0  0
  -29.2081  -16.5925   19.0029 H   0  0  0  0  0  0
  -27.9667  -16.3480   20.2225 H   0  0  0  0  0  0
  -30.5203  -16.9366   22.7865 H   0  0  0  0  0  0
  -31.7015  -17.1567   21.5101 H   0  0  0  0  0  0
  -26.2002  -24.0493   17.6296 H   0  0  0  0  0  0
  -27.3685  -22.7514   17.3491 H   0  0  0  0  0  0
  -27.3914  -24.1893   16.3456 H   0  0  0  0  0  0
  -28.0472  -23.4879   21.7214 H   0  0  0  0  0  0
  -29.5495  -23.5493   20.8829 H   0  0  0  0  0  0
  -26.8075  -24.4947   19.8993 H   0  0  0  0  0  0
  -27.3858  -21.8124   19.8513 H   0  0  0  0  0  0
  1 25  1  0  0  0
  1 30  2  0  0  0
  1 81  1  0  0  0
  2  3  1  0  0  0
  2 25  1  0  0  0
  2 85  1  0  0  0
  2 86  1  0  0  0
  3  4  1  0  0  0
  3 87  1  0  0  0
  3 88  1  0  0  0
  4  5  1  0  0  0
  4 89  1  0  0  0
  4 90  1  0  0  0
  5  6  1  0  0  0
  5 26  1  0  0  0
  5 91  1  0  0  0
  6 25  1  0  0  0
  6 92  1  0  0  0
  6 93  1  0  0  0
  7  8  2  0  0  0
  7 26  1  0  0  0
  7 29  1  0  0  0
  8  9  1  0  0  0
  8 22  1  0  0  0
  9 10  1  0  0  0
  9 27  2  0  0  0
 10 11  2  0  0  0
 10 15  1  0  0  0
 11 12  1  0  0  0
 11 94  1  0  0  0
 12 13  2  0  0  0
 12 95  1  0  0  0
 13 14  1  0  0  0
 13 31  1  0  0  0
 14 15  2  0  0  0
 14 96  1  0  0  0
 15 97  1  0  0  0
 16 17  2  0  0  0
 16 21  1  0  0  0
 16 31  1  0  0  0
 17 18  1  0  0  0
 17 98  1  0  0  0
 18 19  2  0  0  0
 18 99  1  0  0  0
 19 20  1  0  0  0
 19 24  1  0  0  0
 20 21  2  0  0  0
 20100  1  0  0  0
 21 23  1  0  0  0
 22 28  1  0  0  0
 22 32  2  0  0  0
 26 27  1  0  0  0
 28101  1  0  0  0
 28102  1  0  0  0
 29103  1  0  0  0
 29104  1  0  0  0
 33 34  1  0  0  0
 33 66  1  0  0  0
 33 70  2  0  0  0
 34 36  1  0  0  0
 34 59  1  0  0  0
 34105  1  0  0  0
 35 44  2  0  0  0
 35 45  1  0  0  0
 35 68  1  0  0  0
 36 56  1  0  0  0
 36106  1  0  0  0
 37 39  1  0  0  0
 37 47  1  0  0  0
 37 66  1  0  0  0
 37107  1  0  0  0
 38 43  2  0  0  0
 38 46  1  0  0  0
 38 47  1  0  0  0
 39 64  1  0  0  0
 39 67  2  0  0  0
 40 52  1  0  0  0
 40 53  2  0  0  0
 40 58  1  0  0  0
 41108  1  0  0  0
 41109  1  0  0  0
 41110  1  0  0  0
 41 48  1  0  0  0
 42 43  1  0  0  0
 42 66  1  0  0  0
 42111  1  0  0  0
 42112  1  0  0  0
 43 44  1  0  0  0
 44113  1  0  0  0
 45 46  2  0  0  0
 45114  1  0  0  0
 46115  1  0  0  0
 47116  1  0  0  0
 47117  1  0  0  0
 48 56  1  0  0  0
 48 65  1  0  0  0
 48118  1  0  0  0
 49 50  1  0  0  0
 49 53  1  0  0  0
 49 64  1  0  0  0
 49119  1  0  0  0
 50 51  1  0  0  0
 50120  1  0  0  0
 50121  1  0  0  0
 51 52  1  0  0  0
 51122  1  0  0  0
 51123  1  0  0  0
 52124  1  0  0  0
 52125  1  0  0  0
 53 54  1  0  0  0
 54 55  2  0  0  0
 54126  1  0  0  0
 55 57  1  0  0  0
 55127  1  0  0  0
 56 69  2  0  0  0
 57 58  2  0  0  0
 57128  1  0  0  0
 58129  1  0  0  0
 59 60  1  0  0  0
 59 61  1  0  0  0
 59 62  1  0  0  0
 60130  1  0  0  0
 60131  1  0  0  0
 60132  1  0  0  0
 61133  1  0  0  0
 61134  1  0  0  0
 61135  1  0  0  0
 62136  1  0  0  0
 62137  1  0  0  0
 62138  1  0  0  0
 63 65  1  0  0  0
 63139  1  0  0  0
 63140  1  0  0  0
 63141  1  0  0  0
 64142  1  0  0  0
 65143  1  0  0  0
 68 79  1  0  0  0
 71 72  2  0  0  0
 71 75  1  0  0  0
 71 80  1  0  0  0
 72 76  1  0  0  0
 72 84  1  0  0  0
 73 80  2  0  0  0
 73 82  1  0  0  0
 73 84  1  0  0  0
 74 77  1  0  0  0
 74 79  1  0  0  0
 74 83  2  0  0  0
 75 81  1  0  0  0
 75144  1  0  0  0
 75145  1  0  0  0
 76 81  1  0  0  0
 76146  1  0  0  0
 76147  1  0  0  0
 77148  1  0  0  0
 77149  1  0  0  0
 77150  1  0  0  0
 78 82  1  0  0  0
 78151  1  0  0  0
 78152  1  0  0  0
 78 79  1  0  0  0
 79153  1  0  0  0
 82154  1  0  0  0
M  ISO  4   1 100  68 101  79 101  81 100
M  END
> <chiral flag>
0

> <version>
0

> <s_m_source_file>
/data/baiqing/PycharmProjects/Reinvent-master-3.2/result/LINK_invent/BTK/process_docking_weight1_custom_product_contain_oxygen_bond_distance_aromatic_linkinvent_7_9_3/rearranged_h_0146.sdf

> <i_m_source_file_index>
93

> <r_mmod_Potential_Energy-OPLS-2005>
379.848297119141

> <r_mmod_Stretch_Energy-OPLS-2005>
172.012115478516

> <r_mmod_Bend_Energy-OPLS-2005>
273.728179931641

> <r_mmod_Torsional_Energy-OPLS-2005>
240.025604248047

> <r_mmod_Improper_Torsional_Energy-OPLS-2005>
5.80461931228638

> <r_mmod_Van_der_Waal_Energy-OPLS-2005>
109.459335327148

> <r_mmod_Electrostatic_Energy-OPLS-2005>
-326.601531982422

> <r_mmod_Solvation_Energy-OPLS-2005>
-244.078048706055

> <b_mmod_Minimization_Converged-OPLS-2005>
0

> <r_mmod_RMS_Derivative-OPLS-2005>
8.01127529144287

$$$$
93
                    3D
 Structure written by MMmdl.
173182  0  0  1  0            999 V2000
  -30.6686  -14.4948   20.5794 C   0  0  0  0  0  0
  -30.4350  -12.3229   19.4183 C   0  0  0  0  0  0
  -29.4986  -12.5076   18.2050 C   0  0  0  0  0  0
  -28.0190  -12.3619   18.6167 C   0  0  0  0  0  0
  -27.6628  -13.1989   19.8739 C   0  0  2  0  0  0
  -28.7042  -12.9683   20.9922 C   0  0  0  0  0  0
  -25.2605  -13.8147   20.5655 C   0  0  0  0  0  0
  -24.1851  -13.0439   20.9174 C   0  0  0  0  0  0
  -24.6391  -11.6900   20.8733 C   0  0  0  0  0  0
  -23.9049  -10.4289   21.0408 C   0  0  0  0  0  0
  -24.3607   -9.4209   21.9186 C   0  0  0  0  0  0
  -23.6278   -8.2245   22.0758 C   0  0  0  0  0  0
  -22.4264   -8.0281   21.3543 C   0  0  0  0  0  0
  -21.9893   -9.0260   20.4654 C   0  0  0  0  0  0
  -22.7219  -10.2139   20.3061 C   0  0  0  0  0  0
  -21.6851   -6.0732   22.5276 C   0  0  0  0  0  0
  -21.4018   -6.5637   23.8207 C   0  0  0  0  0  0
  -21.3657   -5.6789   24.9170 C   0  0  0  0  0  0
  -21.6045   -4.3053   24.7222 C   0  0  0  0  0  0
  -21.8820   -3.8143   23.4342 C   0  0  0  0  0  0
  -21.9191   -4.6959   22.3399 C   0  0  0  0  0  0
  -22.7877  -13.5254   21.1832 C   0  0  0  0  0  0
  -22.1661   -4.2142   21.0976 F   0  0  0  0  0  0
  -21.5622   -3.4542   25.7734 F   0  0  0  0  0  0
  -30.0335  -13.2968   20.4450 N   0  0  0  0  0  0
  -26.3027  -12.9295   20.3335 N   0  0  0  0  0  0
  -25.9311  -11.6468   20.5764 N   0  0  0  0  0  0
  -22.0496  -12.8259   22.0382 N   0  0  0  0  0  0
  -25.4344  -15.1866   20.4032 N   0  0  0  0  0  0
  -31.7950  -14.7047   20.1192 O   0  0  0  0  0  0
  -21.6632   -6.8878   21.4238 O   0  0  0  0  0  0
  -22.3578  -14.5564   20.6674 O   0  0  0  0  0  0
  -24.6146  -31.8677   23.2098 C   0  0  0  0  0  0
  -25.9039  -32.4826   23.8398 C   0  0  1  0  0  0
  -27.2384  -27.4365   20.0996 C   0  0  0  0  0  0
  -25.5893  -33.8623   24.2330 N   0  0  0  0  0  0
  -23.4045  -30.4893   21.5494 C   0  0  2  0  0  0
  -24.8545  -28.9520   20.1178 C   0  0  0  0  0  0
  -22.7419  -29.4656   22.4988 C   0  0  0  0  0  0
  -18.0274  -28.1382   22.8490 C   0  0  0  0  0  0
  -24.1488  -36.7323   23.2634 C   0  0  0  0  0  0
  -25.9328  -30.8329   21.3639 C   0  0  0  0  0  0
  -26.0133  -29.4646   20.7169 C   0  0  0  0  0  0
  -27.2113  -28.7118   20.7100 C   0  0  0  0  0  0
  -26.0690  -26.9380   19.4937 C   0  0  0  0  0  0
  -24.8763  -27.6865   19.5046 C   0  0  0  0  0  0
  -23.6155  -29.8189   20.1652 C   0  0  0  0  0  0
  -25.4104  -36.3115   24.0337 C   0  0  1  0  0  0
  -20.5866  -28.3670   23.1320 C   0  0  2  0  0  0
  -20.6765  -26.9405   22.5423 C   0  0  0  0  0  0
  -19.5747  -26.6390   21.5215 C   0  0  0  0  0  0
  -18.1922  -26.7931   22.1618 C   0  0  0  0  0  0
  -19.1524  -28.8841   23.2904 C   0  0  0  0  0  0
  -18.9450  -30.1445   23.8921 C   0  0  0  0  0  0
  -17.6452  -30.6582   24.0571 C   0  0  0  0  0  0
  -25.9031  -34.9479   23.5133 C   0  0  0  0  0  0
  -16.5344  -29.9087   23.6323 C   0  0  0  0  0  0
  -16.7264  -28.6505   23.0342 C   0  0  0  0  0  0
  -26.4465  -31.6599   25.0722 C   0  0  0  0  0  0
  -25.3739  -31.3719   26.1482 C   0  0  0  0  0  0
  -27.0279  -30.3035   24.6094 C   0  0  0  0  0  0
  -27.6058  -32.4307   25.7464 C   0  0  0  0  0  0
  -27.5587  -37.1809   24.8452 C   0  0  0  0  0  0
  -21.4144  -29.3032   22.3725 N   0  0  0  0  0  0
  -26.4291  -37.3798   23.9408 N   0  0  0  0  0  0
  -24.6688  -31.0777   22.0997 N   0  0  0  0  0  0
  -23.4187  -28.8203   23.3037 O   0  0  0  0  0  0
  -28.3764  -26.6644   20.0642 O   0  0  0  0  0  0
  -26.5598  -34.8927   22.4697 O   0  0  0  0  0  0
  -23.5338  -32.1424   23.7489 O   0  0  0  0  0  0
  -29.0199  -19.0394   21.8072 C   0  0  0  0  0  0
  -28.9293  -17.6472   21.5780 C   0  0  0  0  0  0
  -31.3028  -17.5605   21.0898 C   0  0  0  0  0  0
  -30.2591  -19.7106   21.7151 C   0  0  0  0  0  0
  -30.0696  -16.8796   21.2412 C   0  0  0  0  0  0
  -31.4003  -18.9554   21.3253 C   0  0  0  0  0  0
  -30.3750  -21.1160   22.1854 C   0  0  0  0  0  0
  -28.2008  -23.4668   20.2514 C   0  0  0  0  0  0
  -28.8083  -22.0711   20.4933 C   0  0  0  0  0  0
  -29.1684  -24.4369   20.9355 C   0  0  2  0  0  0
  -29.6436  -23.6090   22.1765 C   0  0  0  0  0  0
  -28.6164  -23.6716   23.3308 C   0  0  0  0  0  0
  -31.0091  -24.1578   22.6720 C   0  0  0  0  0  0
  -33.7006  -21.2521   19.9223 C   0  0  0  0  0  0
  -28.5846  -25.8590   21.2355 C   0  0  0  0  0  0
  -32.9910  -19.8970   19.8892 C   0  0  0  0  0  0
  -29.7051  -22.1944   21.6655 N   0  0  0  0  0  0
  -29.8987  -15.4599   21.1291 N   0  0  0  0  0  0
  -31.1739  -21.3049   23.2323 N   0  3  0  0  0  0
  -32.6283  -19.5575   21.2209 O   0  0  0  0  0  0
  -30.2131  -24.5818   20.1121 F   0  0  0  0  0  0
  -31.4768  -12.4435   19.1147 H   0  0  0  0  0  0
  -30.3550  -11.3091   19.8139 H   0  0  0  0  0  0
  -29.7411  -11.7811   17.4282 H   0  0  0  0  0  0
  -29.6595  -13.4923   17.7634 H   0  0  0  0  0  0
  -27.8320  -11.3052   18.8116 H   0  0  0  0  0  0
  -27.3687  -12.6363   17.7858 H   0  0  0  0  0  0
  -27.7084  -14.2471   19.5779 H   0  0  0  0  0  0
  -28.6903  -11.9255   21.3129 H   0  0  0  0  0  0
  -28.4560  -13.5429   21.8859 H   0  0  0  0  0  0
  -25.2761   -9.5682   22.4753 H   0  0  0  0  0  0
  -23.9986   -7.4643   22.7482 H   0  0  0  0  0  0
  -21.0816   -8.8795   19.8965 H   0  0  0  0  0  0
  -22.3688  -10.9685   19.6172 H   0  0  0  0  0  0
  -21.2020   -7.6147   23.9714 H   0  0  0  0  0  0
  -21.1474   -6.0517   25.9071 H   0  0  0  0  0  0
  -22.0598   -2.7603   23.2849 H   0  0  0  0  0  0
  -22.4082  -11.9908   22.4770 H   0  0  0  0  0  0
  -21.1125  -13.1327   22.2585 H   0  0  0  0  0  0
  -24.6589  -15.8351   20.4864 H   0  0  0  0  0  0
  -26.2649  -15.6138   20.0133 H   0  0  0  0  0  0
  -26.7120  -32.5547   23.1174 H   0  0  0  0  0  0
  -25.0036  -33.9785   25.0470 H   0  0  0  0  0  0
  -22.6933  -31.3054   21.4081 H   0  0  0  0  0  0
  -23.3743  -35.9663   23.3291 H   0  0  0  0  0  0
  -24.3592  -36.8941   22.2050 H   0  0  0  0  0  0
  -23.7244  -37.6530   23.6649 H   0  0  0  0  0  0
  -26.0421  -31.5963   20.5922 H   0  0  0  0  0  0
  -26.8216  -30.8915   21.9804 H   0  0  0  0  0  0
  -28.1084  -29.1041   21.1685 H   0  0  0  0  0  0
  -26.0829  -25.9676   19.0178 H   0  0  0  0  0  0
  -23.9863  -27.2863   19.0380 H   0  0  0  0  0  0
  -23.7237  -30.5924   19.4039 H   0  0  0  0  0  0
  -22.7398  -29.2377   19.8702 H   0  0  0  0  0  0
  -25.1274  -36.1984   25.0830 H   0  0  0  0  0  0
  -20.9954  -28.3242   24.1441 H   0  0  0  0  0  0
  -20.5654  -26.2283   23.3612 H   0  0  0  0  0  0
  -21.6640  -26.7443   22.1228 H   0  0  0  0  0  0
  -19.6909  -25.6307   21.1226 H   0  0  0  0  0  0
  -19.6687  -27.3217   20.6760 H   0  0  0  0  0  0
  -17.4195  -26.6690   21.4016 H   0  0  0  0  0  0
  -18.0314  -26.0066   22.9004 H   0  0  0  0  0  0
  -19.7923  -30.7256   24.2305 H   0  0  0  0  0  0
  -17.5002  -31.6262   24.5175 H   0  0  0  0  0  0
  -15.5343  -30.2995   23.7629 H   0  0  0  0  0  0
  -15.8666  -28.0832   22.7038 H   0  0  0  0  0  0
  -24.5903  -30.7068   25.7833 H   0  0  0  0  0  0
  -24.8943  -32.2882   26.4935 H   0  0  0  0  0  0
  -25.8099  -30.8888   27.0236 H   0  0  0  0  0  0
  -26.2818  -29.6811   24.1141 H   0  0  0  0  0  0
  -27.4033  -29.7258   25.4549 H   0  0  0  0  0  0
  -27.8662  -30.4342   23.9248 H   0  0  0  0  0  0
  -27.2697  -33.3600   26.2073 H   0  0  0  0  0  0
  -28.3841  -32.6872   25.0265 H   0  0  0  0  0  0
  -28.0754  -31.8409   26.5346 H   0  0  0  0  0  0
  -28.2596  -38.0116   24.7513 H   0  0  0  0  0  0
  -28.1090  -36.2651   24.6243 H   0  0  0  0  0  0
  -27.2321  -37.1425   25.8859 H   0  0  0  0  0  0
  -20.9305  -29.8759   21.6951 H   0  0  0  0  0  0
  -26.0182  -38.2875   24.1416 H   0  0  0  0  0  0
  -28.1371  -19.5761   22.1263 H   0  0  0  0  0  0
  -27.9685  -17.1667   21.7007 H   0  0  0  0  0  0
  -32.2036  -17.0216   20.8374 H   0  0  0  0  0  0
  -27.2051  -23.5239   20.6915 H   0  0  0  0  0  0
  -28.0981  -23.6884   19.1891 H   0  0  0  0  0  0
  -29.3931  -21.7601   19.6259 H   0  0  0  0  0  0
  -28.0209  -21.3331   20.6458 H   0  0  0  0  0  0
  -28.5438  -24.6739   23.7531 H   0  0  0  0  0  0
  -28.8993  -23.0093   24.1490 H   0  0  0  0  0  0
  -27.6172  -23.3746   23.0124 H   0  0  0  0  0  0
  -31.0547  -25.2441   22.6025 H   0  0  0  0  0  0
  -31.8390  -23.7777   22.0754 H   0  0  0  0  0  0
  -31.1998  -23.9204   23.7184 H   0  0  0  0  0  0
  -33.9940  -21.5631   18.9195 H   0  0  0  0  0  0
  -34.6004  -21.2097   20.5364 H   0  0  0  0  0  0
  -33.0494  -22.0249   20.3321 H   0  0  0  0  0  0
  -29.2617  -26.4155   21.8830 H   0  0  0  0  0  0
  -27.6556  -25.7536   21.7995 H   0  0  0  0  0  0
  -33.6486  -19.1266   19.4847 H   0  0  0  0  0  0
  -32.1224  -19.9602   19.2294 H   0  0  0  0  0  0
  -28.9976  -15.1164   21.4210 H   0  0  0  0  0  0
  -31.6970  -20.5224   23.5959 H   0  0  0  0  0  0
  -31.3369  -22.2214   23.6103 H   0  0  0  0  0  0
  1 25  1  0  0  0
  1 30  2  0  0  0
  1 88  1  0  0  0
  2  3  1  0  0  0
  2 25  1  0  0  0
  2 92  1  0  0  0
  2 93  1  0  0  0
  3  4  1  0  0  0
  3 94  1  0  0  0
  3 95  1  0  0  0
  4  5  1  0  0  0
  4 96  1  0  0  0
  4 97  1  0  0  0
  5  6  1  0  0  0
  5 26  1  0  0  0
  5 98  1  0  0  0
  6 25  1  0  0  0
  6 99  1  0  0  0
  6100  1  0  0  0
  7  8  2  0  0  0
  7 26  1  0  0  0
  7 29  1  0  0  0
  8  9  1  0  0  0
  8 22  1  0  0  0
  9 10  1  0  0  0
  9 27  2  0  0  0
 10 11  2  0  0  0
 10 15  1  0  0  0
 11 12  1  0  0  0
 11101  1  0  0  0
 12 13  2  0  0  0
 12102  1  0  0  0
 13 14  1  0  0  0
 13 31  1  0  0  0
 14 15  2  0  0  0
 14103  1  0  0  0
 15104  1  0  0  0
 16 17  2  0  0  0
 16 21  1  0  0  0
 16 31  1  0  0  0
 17 18  1  0  0  0
 17105  1  0  0  0
 18 19  2  0  0  0
 18106  1  0  0  0
 19 20  1  0  0  0
 19 24  1  0  0  0
 20 21  2  0  0  0
 20107  1  0  0  0
 21 23  1  0  0  0
 22 28  1  0  0  0
 22 32  2  0  0  0
 26 27  1  0  0  0
 28108  1  0  0  0
 28109  1  0  0  0
 29110  1  0  0  0
 29111  1  0  0  0
 33 34  1  0  0  0
 33 66  1  0  0  0
 33 70  2  0  0  0
 34 36  1  0  0  0
 34 59  1  0  0  0
 34112  1  0  0  0
 35 44  2  0  0  0
 35 45  1  0  0  0
 35 68  1  0  0  0
 36 56  1  0  0  0
 36113  1  0  0  0
 37 39  1  0  0  0
 37 47  1  0  0  0
 37 66  1  0  0  0
 37114  1  0  0  0
 38 43  2  0  0  0
 38 46  1  0  0  0
 38 47  1  0  0  0
 39 64  1  0  0  0
 39 67  2  0  0  0
 40 52  1  0  0  0
 40 53  2  0  0  0
 40 58  1  0  0  0
 41115  1  0  0  0
 41116  1  0  0  0
 41117  1  0  0  0
 41 48  1  0  0  0
 42 43  1  0  0  0
 42 66  1  0  0  0
 42118  1  0  0  0
 42119  1  0  0  0
 43 44  1  0  0  0
 44120  1  0  0  0
 45 46  2  0  0  0
 45121  1  0  0  0
 46122  1  0  0  0
 47123  1  0  0  0
 47124  1  0  0  0
 48 56  1  0  0  0
 48 65  1  0  0  0
 48125  1  0  0  0
 49 50  1  0  0  0
 49 53  1  0  0  0
 49 64  1  0  0  0
 49126  1  0  0  0
 50 51  1  0  0  0
 50127  1  0  0  0
 50128  1  0  0  0
 51 52  1  0  0  0
 51129  1  0  0  0
 51130  1  0  0  0
 52131  1  0  0  0
 52132  1  0  0  0
 53 54  1  0  0  0
 54 55  2  0  0  0
 54133  1  0  0  0
 55 57  1  0  0  0
 55134  1  0  0  0
 56 69  2  0  0  0
 57 58  2  0  0  0
 57135  1  0  0  0
 58136  1  0  0  0
 59 60  1  0  0  0
 59 61  1  0  0  0
 59 62  1  0  0  0
 60137  1  0  0  0
 60138  1  0  0  0
 60139  1  0  0  0
 61140  1  0  0  0
 61141  1  0  0  0
 61142  1  0  0  0
 62143  1  0  0  0
 62144  1  0  0  0
 62145  1  0  0  0
 63 65  1  0  0  0
 63146  1  0  0  0
 63147  1  0  0  0
 63148  1  0  0  0
 64149  1  0  0  0
 65150  1  0  0  0
 68 85  1  0  0  0
 71 72  2  0  0  0
 71 74  1  0  0  0
 71151  1  0  0  0
 72 75  1  0  0  0
 72152  1  0  0  0
 73 75  2  0  0  0
 73 76  1  0  0  0
 73153  1  0  0  0
 74 76  2  0  0  0
 74 77  1  0  0  0
 75 88  1  0  0  0
 76 90  1  0  0  0
 77 87  1  0  0  0
 77 89  2  0  0  0
 78 79  1  0  0  0
 78 80  1  0  0  0
 78154  1  0  0  0
 78155  1  0  0  0
 79 87  1  0  0  0
 79156  1  0  0  0
 79157  1  0  0  0
 80 81  1  0  0  0
 80 85  1  0  0  0
 80 91  1  0  0  0
 81 82  1  0  0  0
 81 83  1  0  0  0
 81 87  1  0  0  0
 82158  1  0  0  0
 82159  1  0  0  0
 82160  1  0  0  0
 83161  1  0  0  0
 83162  1  0  0  0
 83163  1  0  0  0
 84 86  1  0  0  0
 84164  1  0  0  0
 84165  1  0  0  0
 84166  1  0  0  0
 85167  1  0  0  0
 85168  1  0  0  0
 86 90  1  0  0  0
 86169  1  0  0  0
 86170  1  0  0  0
 88171  1  0  0  0
 89172  1  0  0  0
 89173  1  0  0  0
M  CHG  1  89   1
M  ISO  4   1 100  68 101  85 101  88 100
M  END
> <chiral flag>
0

> <version>
0

> <s_m_source_file>
/data/baiqing/PycharmProjects/Reinvent-master-3.2/result/LINK_invent/BTK/process_docking_weight1_custom_product_contain_oxygen_bond_distance_aromatic_linkinvent_7_9_3/rearranged_h_0146.sdf

> <i_m_source_file_index>
94

> <r_mmod_Potential_Energy-OPLS-2005>
38.9971351623535

> <r_mmod_Stretch_Energy-OPLS-2005>
47.4731140136719

> <r_mmod_Bend_Energy-OPLS-2005>
143.30793762207

> <r_mmod_Torsional_Energy-OPLS-2005>
372.295043945312

> <r_mmod_Improper_Torsional_Energy-OPLS-2005>
4.83539915084839

> <r_mmod_Van_der_Waal_Energy-OPLS-2005>
154.544326782227

> <r_mmod_Electrostatic_Energy-OPLS-2005>
-323.580200195312

> <r_mmod_Solvation_Energy-OPLS-2005>
-373.360107421875

> <b_mmod_Minimization_Converged-OPLS-2005>
0

> <r_mmod_RMS_Derivative-OPLS-2005>
0.972801387310028

$$$$
94
                    3D
 Structure written by MMmdl.
163171  0  0  1  0            999 V2000
  -30.7483  -14.3903   20.6432 C   0  0  0  0  0  0
  -30.4182  -12.2857   19.4003 C   0  0  0  0  0  0
  -29.4854  -12.5086   18.1946 C   0  0  0  0  0  0
  -28.0081  -12.3745   18.6116 C   0  0  0  0  0  0
  -27.6651  -13.2020   19.8790 C   0  0  2  0  0  0
  -28.7053  -12.9488   20.9925 C   0  0  0  0  0  0
  -25.2606  -13.8157   20.5671 C   0  0  0  0  0  0
  -24.1846  -13.0437   20.9159 C   0  0  0  0  0  0
  -24.6396  -11.6904   20.8733 C   0  0  0  0  0  0
  -23.9064  -10.4289   21.0411 C   0  0  0  0  0  0
  -24.3614   -9.4200   21.9188 C   0  0  0  0  0  0
  -23.6284   -8.2238   22.0759 C   0  0  0  0  0  0
  -22.4269   -8.0280   21.3546 C   0  0  0  0  0  0
  -21.9908   -9.0257   20.4649 C   0  0  0  0  0  0
  -22.7240  -10.2134   20.3057 C   0  0  0  0  0  0
  -21.6855   -6.0731   22.5279 C   0  0  0  0  0  0
  -21.4012   -6.5634   23.8212 C   0  0  0  0  0  0
  -21.3655   -5.6789   24.9176 C   0  0  0  0  0  0
  -21.6046   -4.3054   24.7229 C   0  0  0  0  0  0
  -21.8819   -3.8142   23.4352 C   0  0  0  0  0  0
  -21.9189   -4.6956   22.3406 C   0  0  0  0  0  0
  -22.7871  -13.5237   21.1824 C   0  0  0  0  0  0
  -22.1660   -4.2141   21.0982 F   0  0  0  0  0  0
  -21.5629   -3.4539   25.7740 F   0  0  0  0  0  0
  -30.0422  -13.2469   20.4467 N   0  0  0  0  0  0
  -26.3041  -12.9320   20.3385 N   0  0  0  0  0  0
  -25.9320  -11.6484   20.5770 N   0  0  0  0  0  0
  -22.0511  -12.8238   22.0391 N   0  0  0  0  0  0
  -25.4337  -15.1870   20.4074 N   0  0  0  0  0  0
  -31.8302  -14.6166   20.0909 O   0  0  0  0  0  0
  -21.6633   -6.8877   21.4240 O   0  0  0  0  0  0
  -22.3558  -14.5542   20.6673 O   0  0  0  0  0  0
  -24.6113  -31.8710   23.2125 C   0  0  0  0  0  0
  -25.9027  -32.4834   23.8408 C   0  0  1  0  0  0
  -27.2324  -27.4617   20.0984 C   0  0  0  0  0  0
  -25.5891  -33.8628   24.2341 N   0  0  0  0  0  0
  -23.3978  -30.4943   21.5532 C   0  0  2  0  0  0
  -24.8444  -28.9660   20.1135 C   0  0  0  0  0  0
  -22.7406  -29.4667   22.5016 C   0  0  0  0  0  0
  -18.0273  -28.1364   22.8498 C   0  0  0  0  0  0
  -24.1484  -36.7305   23.2641 C   0  0  0  0  0  0
  -25.9233  -30.8457   21.3614 C   0  0  0  0  0  0
  -26.0031  -29.4835   20.7069 C   0  0  0  0  0  0
  -27.2026  -28.7401   20.6930 C   0  0  0  0  0  0
  -26.0621  -26.9579   19.4885 C   0  0  0  0  0  0
  -24.8674  -27.7012   19.5001 C   0  0  0  0  0  0
  -23.6039  -29.8281   20.1667 C   0  0  0  0  0  0
  -25.4104  -36.3115   24.0344 C   0  0  1  0  0  0
  -20.5859  -28.3657   23.1330 C   0  0  2  0  0  0
  -20.6769  -26.9397   22.5425 C   0  0  0  0  0  0
  -19.5750  -26.6383   21.5212 C   0  0  0  0  0  0
  -18.1924  -26.7913   22.1621 C   0  0  0  0  0  0
  -19.1521  -28.8827   23.2913 C   0  0  0  0  0  0
  -18.9452  -30.1430   23.8923 C   0  0  0  0  0  0
  -17.6459  -30.6584   24.0558 C   0  0  0  0  0  0
  -25.9031  -34.9481   23.5142 C   0  0  0  0  0  0
  -16.5350  -29.9081   23.6315 C   0  0  0  0  0  0
  -16.7264  -28.6492   23.0346 C   0  0  0  0  0  0
  -26.4469  -31.6593   25.0715 C   0  0  0  0  0  0
  -25.3746  -31.3678   26.1469 C   0  0  0  0  0  0
  -27.0315  -30.3048   24.6052 C   0  0  0  0  0  0
  -27.6056  -32.4308   25.7472 C   0  0  0  0  0  0
  -27.5578  -37.1806   24.8470 C   0  0  0  0  0  0
  -21.4138  -29.3026   22.3749 N   0  0  0  0  0  0
  -26.4297  -37.3790   23.9406 N   0  0  0  0  0  0
  -24.6624  -31.0832   22.1015 N   0  0  0  0  0  0
  -23.4186  -28.8216   23.3057 O   0  0  0  0  0  0
  -28.3955  -26.7294   20.1170 O   0  0  0  0  0  0
  -26.5594  -34.8937   22.4705 O   0  0  0  0  0  0
  -23.5317  -32.1470   23.7532 O   0  0  0  0  0  0
  -29.8679  -17.7352   21.5063 C   0  0  0  0  0  0
  -31.9474  -16.7458   22.3170 C   0  0  0  0  0  0
  -31.6387  -19.1661   22.3755 C   0  0  0  0  0  0
  -30.6659  -16.5917   21.7412 C   0  0  0  0  0  0
  -30.3523  -19.0292   21.8032 C   0  0  0  0  0  0
  -32.4289  -18.0294   22.6345 C   0  0  0  0  0  0
  -28.7700  -22.4979   21.6935 C   0  0  0  0  0  0
  -30.6276  -25.0786   21.4191 C   0  0  0  0  0  0
  -28.9332  -26.2381   22.8596 C   0  0  0  0  0  0
  -28.7288  -23.7831   22.5302 C   0  0  0  0  0  0
  -29.8626  -21.4716   22.0217 C   0  0  0  0  0  0
  -28.2578  -25.3782   20.5769 C   0  0  0  0  0  0
  -29.1394  -25.1099   21.8255 C   0  0  0  0  0  0
  -30.1533  -15.3040   21.4260 N   0  0  0  0  0  0
  -29.5453  -20.1394   21.5077 N   0  0  0  0  0  0
  -27.9233  -22.2700   20.8229 O   0  0  0  0  0  0
  -33.6580  -18.1726   23.1873 F   0  0  0  0  0  0
  -31.4608  -12.3834   19.0924 H   0  0  0  0  0  0
  -30.3177  -11.2670   19.7783 H   0  0  0  0  0  0
  -29.7137  -11.7922   17.4041 H   0  0  0  0  0  0
  -29.6600  -13.4988   17.7708 H   0  0  0  0  0  0
  -27.8101  -11.3176   18.7960 H   0  0  0  0  0  0
  -27.3560  -12.6648   17.7869 H   0  0  0  0  0  0
  -27.7215  -14.2544   19.6008 H   0  0  0  0  0  0
  -28.6716  -11.9041   21.3062 H   0  0  0  0  0  0
  -28.4633  -13.5220   21.8882 H   0  0  0  0  0  0
  -25.2764   -9.5669   22.4762 H   0  0  0  0  0  0
  -23.9987   -7.4631   22.7484 H   0  0  0  0  0  0
  -21.0835   -8.8783   19.8959 H   0  0  0  0  0  0
  -22.3707  -10.9674   19.6161 H   0  0  0  0  0  0
  -21.2009   -7.6145   23.9711 H   0  0  0  0  0  0
  -21.1478   -6.0522   25.9075 H   0  0  0  0  0  0
  -22.0604   -2.7604   23.2856 H   0  0  0  0  0  0
  -22.4128  -11.9894   22.4769 H   0  0  0  0  0  0
  -21.1135  -13.1280   22.2604 H   0  0  0  0  0  0
  -24.6687  -15.8450   20.5127 H   0  0  0  0  0  0
  -26.2891  -15.6243   20.0880 H   0  0  0  0  0  0
  -26.7099  -32.5572   23.1174 H   0  0  0  0  0  0
  -25.0056  -33.9791   25.0495 H   0  0  0  0  0  0
  -22.6836  -31.3095   21.4154 H   0  0  0  0  0  0
  -23.3761  -35.9625   23.3318 H   0  0  0  0  0  0
  -24.3590  -36.8898   22.2053 H   0  0  0  0  0  0
  -23.7223  -37.6507   23.6651 H   0  0  0  0  0  0
  -26.0329  -31.6177   20.5985 H   0  0  0  0  0  0
  -26.8105  -30.8980   21.9797 H   0  0  0  0  0  0
  -28.0982  -29.1331   21.1535 H   0  0  0  0  0  0
  -26.0710  -25.9921   19.0040 H   0  0  0  0  0  0
  -23.9783  -27.2979   19.0331 H   0  0  0  0  0  0
  -23.7088  -30.6045   19.4083 H   0  0  0  0  0  0
  -22.7286  -29.2455   19.8734 H   0  0  0  0  0  0
  -25.1276  -36.1997   25.0836 H   0  0  0  0  0  0
  -20.9945  -28.3227   24.1449 H   0  0  0  0  0  0
  -20.5674  -26.2261   23.3611 H   0  0  0  0  0  0
  -21.6642  -26.7449   22.1210 H   0  0  0  0  0  0
  -19.6917  -25.6297   21.1226 H   0  0  0  0  0  0
  -19.6677  -27.3212   20.6754 H   0  0  0  0  0  0
  -17.4188  -26.6666   21.4024 H   0  0  0  0  0  0
  -18.0319  -26.0048   22.9009 H   0  0  0  0  0  0
  -19.7934  -30.7228   24.2312 H   0  0  0  0  0  0
  -17.5021  -31.6266   24.5162 H   0  0  0  0  0  0
  -15.5352  -30.2990   23.7630 H   0  0  0  0  0  0
  -15.8664  -28.0822   22.7037 H   0  0  0  0  0  0
  -24.5910  -30.7036   25.7795 H   0  0  0  0  0  0
  -24.8953  -32.2831   26.4958 H   0  0  0  0  0  0
  -25.8108  -30.8814   27.0204 H   0  0  0  0  0  0
  -26.2850  -29.6789   24.1143 H   0  0  0  0  0  0
  -27.4156  -29.7286   25.4482 H   0  0  0  0  0  0
  -27.8652  -30.4379   23.9150 H   0  0  0  0  0  0
  -27.2676  -33.3592   26.2091 H   0  0  0  0  0  0
  -28.3846  -32.6890   25.0284 H   0  0  0  0  0  0
  -28.0753  -31.8409   26.5351 H   0  0  0  0  0  0
  -28.2606  -38.0093   24.7530 H   0  0  0  0  0  0
  -28.1066  -36.2634   24.6295 H   0  0  0  0  0  0
  -27.2308  -37.1451   25.8875 H   0  0  0  0  0  0
  -20.9299  -29.8741   21.6966 H   0  0  0  0  0  0
  -26.0202  -38.2872   24.1416 H   0  0  0  0  0  0
  -28.8843  -17.6156   21.0734 H   0  0  0  0  0  0
  -32.5683  -15.8850   22.5199 H   0  0  0  0  0  0
  -32.0466  -20.1351   22.6185 H   0  0  0  0  0  0
  -31.2694  -24.8473   22.2701 H   0  0  0  0  0  0
  -30.9462  -26.0434   21.0218 H   0  0  0  0  0  0
  -30.8228  -24.3348   20.6455 H   0  0  0  0  0  0
  -29.4949  -26.0498   23.7754 H   0  0  0  0  0  0
  -27.8822  -26.3379   23.1333 H   0  0  0  0  0  0
  -29.2617  -27.2051   22.4774 H   0  0  0  0  0  0
  -29.3542  -23.6301   23.4097 H   0  0  0  0  0  0
  -27.7104  -23.8777   22.9075 H   0  0  0  0  0  0
  -29.9946  -21.4294   23.1039 H   0  0  0  0  0  0
  -30.8009  -21.8244   21.5919 H   0  0  0  0  0  0
  -27.2268  -25.1294   20.8369 H   0  0  0  0  0  0
  -28.5321  -24.7151   19.7561 H   0  0  0  0  0  0
  -29.2085  -15.0934   21.7115 H   0  0  0  0  0  0
  -28.6146  -20.0255   21.1102 H   0  0  0  0  0  0
  1 25  1  0  0  0
  1 30  2  0  0  0
  1 84  1  0  0  0
  2  3  1  0  0  0
  2 25  1  0  0  0
  2 88  1  0  0  0
  2 89  1  0  0  0
  3  4  1  0  0  0
  3 90  1  0  0  0
  3 91  1  0  0  0
  4  5  1  0  0  0
  4 92  1  0  0  0
  4 93  1  0  0  0
  5  6  1  0  0  0
  5 26  1  0  0  0
  5 94  1  0  0  0
  6 25  1  0  0  0
  6 95  1  0  0  0
  6 96  1  0  0  0
  7  8  2  0  0  0
  7 26  1  0  0  0
  7 29  1  0  0  0
  8  9  1  0  0  0
  8 22  1  0  0  0
  9 10  1  0  0  0
  9 27  2  0  0  0
 10 11  2  0  0  0
 10 15  1  0  0  0
 11 12  1  0  0  0
 11 97  1  0  0  0
 12 13  2  0  0  0
 12 98  1  0  0  0
 13 14  1  0  0  0
 13 31  1  0  0  0
 14 15  2  0  0  0
 14 99  1  0  0  0
 15100  1  0  0  0
 16 17  2  0  0  0
 16 21  1  0  0  0
 16 31  1  0  0  0
 17 18  1  0  0  0
 17101  1  0  0  0
 18 19  2  0  0  0
 18102  1  0  0  0
 19 20  1  0  0  0
 19 24  1  0  0  0
 20 21  2  0  0  0
 20103  1  0  0  0
 21 23  1  0  0  0
 22 28  1  0  0  0
 22 32  2  0  0  0
 26 27  1  0  0  0
 28104  1  0  0  0
 28105  1  0  0  0
 29106  1  0  0  0
 29107  1  0  0  0
 33 34  1  0  0  0
 33 66  1  0  0  0
 33 70  2  0  0  0
 34 36  1  0  0  0
 34 59  1  0  0  0
 34108  1  0  0  0
 35 44  2  0  0  0
 35 45  1  0  0  0
 35 68  1  0  0  0
 36 56  1  0  0  0
 36109  1  0  0  0
 37 39  1  0  0  0
 37 47  1  0  0  0
 37 66  1  0  0  0
 37110  1  0  0  0
 38 43  2  0  0  0
 38 46  1  0  0  0
 38 47  1  0  0  0
 39 64  1  0  0  0
 39 67  2  0  0  0
 40 52  1  0  0  0
 40 53  2  0  0  0
 40 58  1  0  0  0
 41111  1  0  0  0
 41112  1  0  0  0
 41113  1  0  0  0
 41 48  1  0  0  0
 42 43  1  0  0  0
 42 66  1  0  0  0
 42114  1  0  0  0
 42115  1  0  0  0
 43 44  1  0  0  0
 44116  1  0  0  0
 45 46  2  0  0  0
 45117  1  0  0  0
 46118  1  0  0  0
 47119  1  0  0  0
 47120  1  0  0  0
 48 56  1  0  0  0
 48 65  1  0  0  0
 48121  1  0  0  0
 49 50  1  0  0  0
 49 53  1  0  0  0
 49 64  1  0  0  0
 49122  1  0  0  0
 50 51  1  0  0  0
 50123  1  0  0  0
 50124  1  0  0  0
 51 52  1  0  0  0
 51125  1  0  0  0
 51126  1  0  0  0
 52127  1  0  0  0
 52128  1  0  0  0
 53 54  1  0  0  0
 54 55  2  0  0  0
 54129  1  0  0  0
 55 57  1  0  0  0
 55130  1  0  0  0
 56 69  2  0  0  0
 57 58  2  0  0  0
 57131  1  0  0  0
 58132  1  0  0  0
 59 60  1  0  0  0
 59 61  1  0  0  0
 59 62  1  0  0  0
 60133  1  0  0  0
 60134  1  0  0  0
 60135  1  0  0  0
 61136  1  0  0  0
 61137  1  0  0  0
 61138  1  0  0  0
 62139  1  0  0  0
 62140  1  0  0  0
 62141  1  0  0  0
 63 65  1  0  0  0
 63142  1  0  0  0
 63143  1  0  0  0
 63144  1  0  0  0
 64145  1  0  0  0
 65146  1  0  0  0
 68 82  1  0  0  0
 71 74  2  0  0  0
 71 75  1  0  0  0
 71147  1  0  0  0
 72 74  1  0  0  0
 72 76  2  0  0  0
 72148  1  0  0  0
 73 75  2  0  0  0
 73 76  1  0  0  0
 73149  1  0  0  0
 74 84  1  0  0  0
 75 85  1  0  0  0
 76 87  1  0  0  0
 77 80  1  0  0  0
 77 81  1  0  0  0
 77 86  2  0  0  0
 78150  1  0  0  0
 78151  1  0  0  0
 78152  1  0  0  0
 78 83  1  0  0  0
 79 83  1  0  0  0
 79153  1  0  0  0
 79154  1  0  0  0
 79155  1  0  0  0
 80 83  1  0  0  0
 80156  1  0  0  0
 80157  1  0  0  0
 81 85  1  0  0  0
 81158  1  0  0  0
 81159  1  0  0  0
 82 83  1  0  0  0
 82160  1  0  0  0
 82161  1  0  0  0
 84162  1  0  0  0
 85163  1  0  0  0
M  ISO  4   1 100  68 101  82 101  84 100
M  END
> <chiral flag>
0

> <version>
0

> <s_m_source_file>
/data/baiqing/PycharmProjects/Reinvent-master-3.2/result/LINK_invent/BTK/process_docking_weight1_custom_product_contain_oxygen_bond_distance_aromatic_linkinvent_7_9_3/rearranged_h_0146.sdf

> <i_m_source_file_index>
95

> <r_mmod_Potential_Energy-OPLS-2005>
-4.72382640838623

> <r_mmod_Stretch_Energy-OPLS-2005>
34.6966094970703

> <r_mmod_Bend_Energy-OPLS-2005>
104.131988525391

> <r_mmod_Torsional_Energy-OPLS-2005>
222.412979125977

> <r_mmod_Improper_Torsional_Energy-OPLS-2005>
2.94974279403687

> <r_mmod_Van_der_Waal_Energy-OPLS-2005>
159.14192199707

> <r_mmod_Electrostatic_Energy-OPLS-2005>
-313.784942626953

> <r_mmod_Solvation_Energy-OPLS-2005>
-222.649261474609

> <b_mmod_Minimization_Converged-OPLS-2005>
0

> <r_mmod_RMS_Derivative-OPLS-2005>
1.44804060459137

$$$$
95
                    3D
 Structure written by MMmdl.
156164  0  0  1  0            999 V2000
  -30.6782  -14.5455   20.4876 C   0  0  0  0  0  0
  -30.4193  -12.3265   19.4532 C   0  0  0  0  0  0
  -29.5013  -12.4976   18.2234 C   0  0  0  0  0  0
  -28.0213  -12.3568   18.6299 C   0  0  0  0  0  0
  -27.6565  -13.2171   19.8698 C   0  0  2  0  0  0
  -28.6988  -13.0572   21.0020 C   0  0  0  0  0  0
  -25.2560  -13.8176   20.5680 C   0  0  0  0  0  0
  -24.1821  -13.0441   20.9176 C   0  0  0  0  0  0
  -24.6392  -11.6907   20.8731 C   0  0  0  0  0  0
  -23.9053  -10.4292   21.0401 C   0  0  0  0  0  0
  -24.3610   -9.4207   21.9180 C   0  0  0  0  0  0
  -23.6290   -8.2240   22.0747 C   0  0  0  0  0  0
  -22.4269   -8.0277   21.3537 C   0  0  0  0  0  0
  -21.9898   -9.0252   20.4641 C   0  0  0  0  0  0
  -22.7228  -10.2132   20.3056 C   0  0  0  0  0  0
  -21.6845   -6.0735   22.5279 C   0  0  0  0  0  0
  -21.4012   -6.5641   23.8213 C   0  0  0  0  0  0
  -21.3664   -5.6790   24.9173 C   0  0  0  0  0  0
  -21.6046   -4.3051   24.7223 C   0  0  0  0  0  0
  -21.8822   -3.8143   23.4345 C   0  0  0  0  0  0
  -21.9193   -4.6964   22.3399 C   0  0  0  0  0  0
  -22.7845  -13.5231   21.1849 C   0  0  0  0  0  0
  -22.1661   -4.2153   21.0979 F   0  0  0  0  0  0
  -21.5633   -3.4535   25.7736 F   0  0  0  0  0  0
  -30.0270  -13.3475   20.4423 N   0  0  0  0  0  0
  -26.3003  -12.9359   20.3353 N   0  0  0  0  0  0
  -25.9326  -11.6512   20.5765 N   0  0  0  0  0  0
  -22.0492  -12.8223   22.0412 N   0  0  0  0  0  0
  -25.4271  -15.1894   20.4065 N   0  0  0  0  0  0
  -31.8354  -14.6695   20.0909 O   0  0  0  0  0  0
  -21.6632   -6.8880   21.4236 O   0  0  0  0  0  0
  -22.3525  -14.5548   20.6719 O   0  0  0  0  0  0
  -24.6186  -31.8659   23.2092 C   0  0  0  0  0  0
  -25.9068  -32.4814   23.8391 C   0  0  1  0  0  0
  -27.2204  -27.3799   20.0982 C   0  0  0  0  0  0
  -25.5910  -33.8612   24.2316 N   0  0  0  0  0  0
  -23.4085  -30.4927   21.5506 C   0  0  2  0  0  0
  -24.8535  -28.9616   20.1104 C   0  0  0  0  0  0
  -22.7438  -29.4651   22.4959 C   0  0  0  0  0  0
  -18.0279  -28.1377   22.8487 C   0  0  0  0  0  0
  -24.1484  -36.7308   23.2629 C   0  0  0  0  0  0
  -25.9455  -30.8128   21.3755 C   0  0  0  0  0  0
  -26.0182  -29.4458   20.7177 C   0  0  0  0  0  0
  -27.2026  -28.6621   20.7119 C   0  0  0  0  0  0
  -26.0353  -26.9445   19.4546 C   0  0  0  0  0  0
  -24.8602  -27.7126   19.4746 C   0  0  0  0  0  0
  -23.6195  -29.8340   20.1627 C   0  0  0  0  0  0
  -25.4101  -36.3105   24.0335 C   0  0  1  0  0  0
  -20.5876  -28.3669   23.1299 C   0  0  2  0  0  0
  -20.6764  -26.9401   22.5409 C   0  0  0  0  0  0
  -19.5747  -26.6382   21.5206 C   0  0  0  0  0  0
  -18.1927  -26.7921   22.1622 C   0  0  0  0  0  0
  -19.1533  -28.8838   23.2892 C   0  0  0  0  0  0
  -18.9459  -30.1445   23.8906 C   0  0  0  0  0  0
  -17.6458  -30.6582   24.0561 C   0  0  0  0  0  0
  -25.9041  -34.9474   23.5124 C   0  0  0  0  0  0
  -16.5350  -29.9080   23.6325 C   0  0  0  0  0  0
  -16.7270  -28.6498   23.0349 C   0  0  0  0  0  0
  -26.4471  -31.6603   25.0734 C   0  0  0  0  0  0
  -25.3727  -31.3723   26.1476 C   0  0  0  0  0  0
  -27.0298  -30.3034   24.6147 C   0  0  0  0  0  0
  -27.6047  -32.4321   25.7498 C   0  0  0  0  0  0
  -27.5601  -37.1780   24.8442 C   0  0  0  0  0  0
  -21.4162  -29.3035   22.3709 N   0  0  0  0  0  0
  -26.4275  -37.3805   23.9440 N   0  0  0  0  0  0
  -24.6760  -31.0718   22.1026 N   0  0  0  0  0  0
  -23.4196  -28.8180   23.3004 O   0  0  0  0  0  0
  -28.3573  -26.5758   20.1535 O   0  0  0  0  0  0
  -26.5610  -34.8931   22.4691 O   0  0  0  0  0  0
  -23.5368  -32.1439   23.7456 O   0  0  0  0  0  0
  -29.3966  -19.2844   20.6410 C   0  0  0  0  0  0
  -30.3136  -18.2082   20.3227 C   0  0  0  0  0  0
  -31.6202  -18.6538   20.4024 C   0  0  0  0  0  0
  -29.9995  -20.4914   20.9472 C   0  0  0  0  0  0
  -32.8821  -18.0331   19.9958 C   0  0  0  0  0  0
  -29.1152  -24.1768   20.5587 C   0  0  0  0  0  0
  -34.1836  -18.5161   20.6256 C   0  0  0  0  0  0
  -29.8742  -16.8261   19.8138 C   0  0  0  0  0  0
  -28.9829  -22.6600   20.2201 C   0  0  0  0  0  0
  -28.1912  -25.1675   19.8010 C   0  0  0  0  0  0
  -29.4590  -21.7484   21.2810 N   0  0  0  0  0  0
  -29.9033  -15.6355   20.7081 N   0  0  0  0  0  0
  -32.9359  -17.1768   19.1122 O   0  0  0  0  0  0
  -29.9184  -24.5575   21.4189 O   0  0  0  0  0  0
  -31.7251  -20.3197   20.9329 S   0  0  0  0  0  0
  -31.4676  -12.4054   19.1583 H   0  0  0  0  0  0
  -30.3053  -11.3287   19.8795 H   0  0  0  0  0  0
  -29.7505  -11.7605   17.4587 H   0  0  0  0  0  0
  -29.6674  -13.4761   17.7697 H   0  0  0  0  0  0
  -27.8339  -11.3034   18.8404 H   0  0  0  0  0  0
  -27.3756  -12.6172   17.7905 H   0  0  0  0  0  0
  -27.6809  -14.2556   19.5386 H   0  0  0  0  0  0
  -28.6799  -12.0426   21.4018 H   0  0  0  0  0  0
  -28.4630  -13.7145   21.8406 H   0  0  0  0  0  0
  -25.2757   -9.5687   22.4747 H   0  0  0  0  0  0
  -24.0003   -7.4631   22.7459 H   0  0  0  0  0  0
  -21.0828   -8.8775   19.8944 H   0  0  0  0  0  0
  -22.3690  -10.9669   19.6161 H   0  0  0  0  0  0
  -21.2003   -7.6147   23.9721 H   0  0  0  0  0  0
  -21.1482   -6.0513   25.9079 H   0  0  0  0  0  0
  -22.0599   -2.7608   23.2837 H   0  0  0  0  0  0
  -22.4094  -11.9868   22.4777 H   0  0  0  0  0  0
  -21.1124  -13.1266   22.2664 H   0  0  0  0  0  0
  -24.6572  -15.8427   20.5047 H   0  0  0  0  0  0
  -26.2769  -15.6265   20.0741 H   0  0  0  0  0  0
  -26.7134  -32.5501   23.1142 H   0  0  0  0  0  0
  -25.0052  -33.9771   25.0457 H   0  0  0  0  0  0
  -22.6986  -31.3113   21.4137 H   0  0  0  0  0  0
  -23.3768  -35.9617   23.3237 H   0  0  0  0  0  0
  -24.3604  -36.8980   22.2059 H   0  0  0  0  0  0
  -23.7201  -37.6480   23.6678 H   0  0  0  0  0  0
  -26.0719  -31.5789   20.6093 H   0  0  0  0  0  0
  -26.8287  -30.8584   22.0009 H   0  0  0  0  0  0
  -28.0950  -29.0262   21.2022 H   0  0  0  0  0  0
  -25.9794  -26.0067   18.9229 H   0  0  0  0  0  0
  -23.9694  -27.3396   18.9876 H   0  0  0  0  0  0
  -23.7345  -30.6133   19.4083 H   0  0  0  0  0  0
  -22.7409  -29.2607   19.8615 H   0  0  0  0  0  0
  -25.1265  -36.1952   25.0824 H   0  0  0  0  0  0
  -20.9972  -28.3230   24.1419 H   0  0  0  0  0  0
  -20.5657  -26.2280   23.3597 H   0  0  0  0  0  0
  -21.6636  -26.7428   22.1210 H   0  0  0  0  0  0
  -19.6904  -25.6291   21.1236 H   0  0  0  0  0  0
  -19.6687  -27.3189   20.6735 H   0  0  0  0  0  0
  -17.4195  -26.6669   21.4027 H   0  0  0  0  0  0
  -18.0337  -26.0061   22.9019 H   0  0  0  0  0  0
  -19.7934  -30.7257   24.2280 H   0  0  0  0  0  0
  -17.5014  -31.6264   24.5158 H   0  0  0  0  0  0
  -15.5349  -30.2983   23.7642 H   0  0  0  0  0  0
  -15.8672  -28.0814   22.7057 H   0  0  0  0  0  0
  -24.5895  -30.7076   25.7812 H   0  0  0  0  0  0
  -24.8918  -32.2882   26.4920 H   0  0  0  0  0  0
  -25.8065  -30.8892   27.0240 H   0  0  0  0  0  0
  -26.2854  -29.6810   24.1164 H   0  0  0  0  0  0
  -27.4008  -29.7255   25.4625 H   0  0  0  0  0  0
  -27.8724  -30.4334   23.9349 H   0  0  0  0  0  0
  -27.2664  -33.3603   26.2112 H   0  0  0  0  0  0
  -28.3834  -32.6909   25.0314 H   0  0  0  0  0  0
  -28.0742  -31.8426   26.5383 H   0  0  0  0  0  0
  -28.2524  -38.0172   24.7634 H   0  0  0  0  0  0
  -28.1188  -36.2715   24.6064 H   0  0  0  0  0  0
  -27.2353  -37.1183   25.8844 H   0  0  0  0  0  0
  -20.9324  -29.8781   21.6953 H   0  0  0  0  0  0
  -26.0157  -38.2860   24.1526 H   0  0  0  0  0  0
  -28.3260  -19.1380   20.6051 H   0  0  0  0  0  0
  -34.5156  -19.4341   20.1421 H   0  0  0  0  0  0
  -34.9634  -17.7646   20.5112 H   0  0  0  0  0  0
  -34.0489  -18.7109   21.6894 H   0  0  0  0  0  0
  -30.4108  -16.5926   18.8929 H   0  0  0  0  0  0
  -28.8384  -16.9006   19.4810 H   0  0  0  0  0  0
  -29.5280  -22.4693   19.2944 H   0  0  0  0  0  0
  -27.9327  -22.4474   20.0140 H   0  0  0  0  0  0
  -27.1897  -24.8211   20.0494 H   0  0  0  0  0  0
  -28.3275  -25.0424   18.7265 H   0  0  0  0  0  0
  -30.0918  -22.2787   21.8802 H   0  0  0  0  0  0
  -29.0180  -15.4232   21.1416 H   0  0  0  0  0  0
  1 25  1  0  0  0
  1 30  2  0  0  0
  1 82  1  0  0  0
  2  3  1  0  0  0
  2 25  1  0  0  0
  2 86  1  0  0  0
  2 87  1  0  0  0
  3  4  1  0  0  0
  3 88  1  0  0  0
  3 89  1  0  0  0
  4  5  1  0  0  0
  4 90  1  0  0  0
  4 91  1  0  0  0
  5  6  1  0  0  0
  5 26  1  0  0  0
  5 92  1  0  0  0
  6 25  1  0  0  0
  6 93  1  0  0  0
  6 94  1  0  0  0
  7  8  2  0  0  0
  7 26  1  0  0  0
  7 29  1  0  0  0
  8  9  1  0  0  0
  8 22  1  0  0  0
  9 10  1  0  0  0
  9 27  2  0  0  0
 10 11  2  0  0  0
 10 15  1  0  0  0
 11 12  1  0  0  0
 11 95  1  0  0  0
 12 13  2  0  0  0
 12 96  1  0  0  0
 13 14  1  0  0  0
 13 31  1  0  0  0
 14 15  2  0  0  0
 14 97  1  0  0  0
 15 98  1  0  0  0
 16 17  2  0  0  0
 16 21  1  0  0  0
 16 31  1  0  0  0
 17 18  1  0  0  0
 17 99  1  0  0  0
 18 19  2  0  0  0
 18100  1  0  0  0
 19 20  1  0  0  0
 19 24  1  0  0  0
 20 21  2  0  0  0
 20101  1  0  0  0
 21 23  1  0  0  0
 22 28  1  0  0  0
 22 32  2  0  0  0
 26 27  1  0  0  0
 28102  1  0  0  0
 28103  1  0  0  0
 29104  1  0  0  0
 29105  1  0  0  0
 33 34  1  0  0  0
 33 66  1  0  0  0
 33 70  2  0  0  0
 34 36  1  0  0  0
 34 59  1  0  0  0
 34106  1  0  0  0
 35 44  2  0  0  0
 35 45  1  0  0  0
 35 68  1  0  0  0
 36 56  1  0  0  0
 36107  1  0  0  0
 37 39  1  0  0  0
 37 47  1  0  0  0
 37 66  1  0  0  0
 37108  1  0  0  0
 38 43  2  0  0  0
 38 46  1  0  0  0
 38 47  1  0  0  0
 39 64  1  0  0  0
 39 67  2  0  0  0
 40 52  1  0  0  0
 40 53  2  0  0  0
 40 58  1  0  0  0
 41109  1  0  0  0
 41110  1  0  0  0
 41111  1  0  0  0
 41 48  1  0  0  0
 42 43  1  0  0  0
 42 66  1  0  0  0
 42112  1  0  0  0
 42113  1  0  0  0
 43 44  1  0  0  0
 44114  1  0  0  0
 45 46  2  0  0  0
 45115  1  0  0  0
 46116  1  0  0  0
 47117  1  0  0  0
 47118  1  0  0  0
 48 56  1  0  0  0
 48 65  1  0  0  0
 48119  1  0  0  0
 49 50  1  0  0  0
 49 53  1  0  0  0
 49 64  1  0  0  0
 49120  1  0  0  0
 50 51  1  0  0  0
 50121  1  0  0  0
 50122  1  0  0  0
 51 52  1  0  0  0
 51123  1  0  0  0
 51124  1  0  0  0
 52125  1  0  0  0
 52126  1  0  0  0
 53 54  1  0  0  0
 54 55  2  0  0  0
 54127  1  0  0  0
 55 57  1  0  0  0
 55128  1  0  0  0
 56 69  2  0  0  0
 57 58  2  0  0  0
 57129  1  0  0  0
 58130  1  0  0  0
 59 60  1  0  0  0
 59 61  1  0  0  0
 59 62  1  0  0  0
 60131  1  0  0  0
 60132  1  0  0  0
 60133  1  0  0  0
 61134  1  0  0  0
 61135  1  0  0  0
 61136  1  0  0  0
 62137  1  0  0  0
 62138  1  0  0  0
 62139  1  0  0  0
 63 65  1  0  0  0
 63140  1  0  0  0
 63141  1  0  0  0
 63142  1  0  0  0
 64143  1  0  0  0
 65144  1  0  0  0
 68 80  1  0  0  0
 71 72  1  0  0  0
 71 74  2  0  0  0
 71145  1  0  0  0
 72 73  2  0  0  0
 72 78  1  0  0  0
 73 75  1  0  0  0
 73 85  1  0  0  0
 74 81  1  0  0  0
 74 85  1  0  0  0
 75 77  1  0  0  0
 75 83  2  0  0  0
 76 79  1  0  0  0
 76 80  1  0  0  0
 76 84  2  0  0  0
 77146  1  0  0  0
 77147  1  0  0  0
 77148  1  0  0  0
 78 82  1  0  0  0
 78149  1  0  0  0
 78150  1  0  0  0
 79 81  1  0  0  0
 79151  1  0  0  0
 79152  1  0  0  0
 80153  1  0  0  0
 80154  1  0  0  0
 81155  1  0  0  0
 82156  1  0  0  0
M  ISO  4   1 100  68 101  80 101  82 100
M  END
> <chiral flag>
0

> <version>
0

> <s_m_source_file>
/data/baiqing/PycharmProjects/Reinvent-master-3.2/result/LINK_invent/BTK/process_docking_weight1_custom_product_contain_oxygen_bond_distance_aromatic_linkinvent_7_9_3/rearranged_h_0146.sdf

> <i_m_source_file_index>
96

> <r_mmod_Potential_Energy-OPLS-2005>
-74.1638412475586

> <r_mmod_Stretch_Energy-OPLS-2005>
49.6515312194824

> <r_mmod_Bend_Energy-OPLS-2005>
114.864990234375

> <r_mmod_Torsional_Energy-OPLS-2005>
251.372512817383

> <r_mmod_Improper_Torsional_Energy-OPLS-2005>
16.5067939758301

> <r_mmod_Van_der_Waal_Energy-OPLS-2005>
127.462303161621

> <r_mmod_Electrostatic_Energy-OPLS-2005>
-392.512359619141

> <r_mmod_Solvation_Energy-OPLS-2005>
-269.282043457031

> <b_mmod_Minimization_Converged-OPLS-2005>
0

> <r_mmod_RMS_Derivative-OPLS-2005>
1.26629018783569

$$$$
