0
                    3D
 Structure written by MMmdl.
167176  0  0  1  0            999 V2000
  -30.6482  -14.6118   20.4742 C   0  0  0  0  0  0
  -30.4184  -12.3567   19.4841 C   0  0  0  0  0  0
  -29.5139  -12.5118   18.2421 C   0  0  0  0  0  0
  -28.0326  -12.3666   18.6395 C   0  0  0  0  0  0
  -27.6555  -13.2265   19.8754 C   0  0  2  0  0  0
  -28.6927  -13.0919   21.0148 C   0  0  0  0  0  0
  -25.2573  -13.8177   20.5710 C   0  0  0  0  0  0
  -24.1834  -13.0446   20.9142 C   0  0  0  0  0  0
  -24.6407  -11.6905   20.8742 C   0  0  0  0  0  0
  -23.9062  -10.4307   21.0422 C   0  0  0  0  0  0
  -24.3597   -9.4210   21.9197 C   0  0  0  0  0  0
  -23.6266   -8.2247   22.0774 C   0  0  0  0  0  0
  -22.4249   -8.0288   21.3559 C   0  0  0  0  0  0
  -21.9916   -9.0259   20.4631 C   0  0  0  0  0  0
  -22.7250  -10.2141   20.3060 C   0  0  0  0  0  0
  -21.6844   -6.0717   22.5253 C   0  0  0  0  0  0
  -21.4037   -6.5638   23.8188 C   0  0  0  0  0  0
  -21.3668   -5.6792   24.9151 C   0  0  0  0  0  0
  -21.6026   -4.3050   24.7198 C   0  0  0  0  0  0
  -21.8828   -3.8138   23.4327 C   0  0  0  0  0  0
  -21.9207   -4.6947   22.3387 C   0  0  0  0  0  0
  -22.7864  -13.5235   21.1805 C   0  0  0  0  0  0
  -22.1671   -4.2128   21.0970 F   0  0  0  0  0  0
  -21.5613   -3.4551   25.7722 F   0  0  0  0  0  0
  -30.0139  -13.3981   20.4507 N   0  0  0  0  0  0
  -26.3010  -12.9383   20.3363 N   0  0  0  0  0  0
  -25.9350  -11.6530   20.5786 N   0  0  0  0  0  0
  -22.0543  -12.8217   22.0370 N   0  0  0  0  0  0
  -25.4336  -15.1897   20.4153 N   0  0  0  0  0  0
  -31.8169  -14.7246   20.0934 O   0  0  0  0  0  0
  -21.6624   -6.8877   21.4233 O   0  0  0  0  0  0
  -22.3542  -14.5542   20.6664 O   0  0  0  0  0  0
  -24.6242  -31.8608   23.2022 C   0  0  0  0  0  0
  -25.9075  -32.4791   23.8388 C   0  0  1  0  0  0
  -27.2362  -27.3332   20.1344 C   0  0  0  0  0  0
  -25.5878  -33.8595   24.2314 N   0  0  0  0  0  0
  -23.4224  -30.4816   21.5421 C   0  0  2  0  0  0
  -24.8754  -28.9309   20.1184 C   0  0  0  0  0  0
  -22.7465  -29.4649   22.4915 C   0  0  0  0  0  0
  -18.0286  -28.1421   22.8510 C   0  0  0  0  0  0
  -24.1476  -36.7303   23.2651 C   0  0  0  0  0  0
  -25.9613  -30.7949   21.3764 C   0  0  0  0  0  0
  -26.0400  -29.4199   20.7240 C   0  0  0  0  0  0
  -27.2265  -28.6308   20.7262 C   0  0  0  0  0  0
  -26.0541  -26.8863   19.5108 C   0  0  0  0  0  0
  -24.8813  -27.6666   19.5029 C   0  0  0  0  0  0
  -23.6422  -29.8090   20.1614 C   0  0  0  0  0  0
  -25.4095  -36.3102   24.0344 C   0  0  1  0  0  0
  -20.5892  -28.3742   23.1278 C   0  0  2  0  0  0
  -20.6785  -26.9460   22.5426 C   0  0  0  0  0  0
  -19.5753  -26.6413   21.5243 C   0  0  0  0  0  0
  -18.1927  -26.7964   22.1641 C   0  0  0  0  0  0
  -19.1537  -28.8886   23.2893 C   0  0  0  0  0  0
  -18.9454  -30.1484   23.8922 C   0  0  0  0  0  0
  -17.6452  -30.6618   24.0581 C   0  0  0  0  0  0
  -25.9028  -34.9465   23.5136 C   0  0  0  0  0  0
  -16.5342  -29.9131   23.6338 C   0  0  0  0  0  0
  -16.7271  -28.6543   23.0370 C   0  0  0  0  0  0
  -26.4446  -31.6597   25.0762 C   0  0  0  0  0  0
  -25.3670  -31.3727   26.1481 C   0  0  0  0  0  0
  -27.0332  -30.3021   24.6261 C   0  0  0  0  0  0
  -27.5996  -32.4361   25.7523 C   0  0  0  0  0  0
  -27.5575  -37.1796   24.8464 C   0  0  0  0  0  0
  -21.4179  -29.3078   22.3638 N   0  0  0  0  0  0
  -26.4290  -37.3783   23.9405 N   0  0  0  0  0  0
  -24.6881  -31.0633   22.0955 N   0  0  0  0  0  0
  -23.4171  -28.8194   23.3015 O   0  0  0  0  0  0
  -28.3425  -26.4801   20.1503 O   0  0  0  0  0  0
  -26.5618  -34.8919   22.4721 O   0  0  0  0  0  0
  -23.5397  -32.1396   23.7320 O   0  0  0  0  0  0
  -30.2184  -17.0068   18.6654 C   0  0  0  0  0  0
  -29.5432  -18.2704   20.6260 C   0  0  0  0  0  0
  -30.1616  -18.1756   17.8765 C   0  0  0  0  0  0
  -29.7601  -19.4158   18.4559 C   0  0  0  0  0  0
  -29.4845  -19.4884   19.8514 C   0  0  0  0  0  0
  -29.9087  -17.0043   20.0421 C   0  0  0  0  0  0
  -27.9085  -21.2273   20.6839 C   0  0  0  0  0  0
  -31.8855  -18.9604   14.6036 C   0  0  0  0  0  0
  -31.5615  -18.9268   15.9098 C   0  0  0  0  0  0
  -30.5310  -18.0128   16.4401 C   0  0  0  0  0  0
  -27.7205  -22.6792   21.2082 C   0  0  0  0  0  0
  -29.8682  -23.3053   20.0710 C   0  0  0  0  0  0
  -30.2422  -21.8315   20.5166 C   0  0  0  0  0  0
  -28.3987  -23.7787   20.3336 C   0  0  2  0  0  0
  -29.5612  -20.6624   17.5838 C   0  0  0  0  0  0
  -28.2022  -25.2436   20.9455 C   0  0  0  0  0  0
  -29.1731  -20.8037   20.4202 N   0  0  0  0  0  0
  -29.8964  -15.7249   20.7553 N   0  0  0  0  0  0
  -26.9113  -20.5143   20.5329 O   0  0  0  0  0  0
  -30.0265  -17.1197   15.7513 O   0  0  0  0  0  0
  -31.4734  -12.4254   19.2114 H   0  0  0  0  0  0
  -30.2929  -11.3652   19.9224 H   0  0  0  0  0  0
  -29.7747  -11.7700   17.4850 H   0  0  0  0  0  0
  -29.6741  -13.4899   17.7855 H   0  0  0  0  0  0
  -27.8504  -11.3129   18.8504 H   0  0  0  0  0  0
  -27.3895  -12.6231   17.7967 H   0  0  0  0  0  0
  -27.6745  -14.2635   19.5372 H   0  0  0  0  0  0
  -28.6829  -12.0815   21.4275 H   0  0  0  0  0  0
  -28.4484  -13.7552   21.8455 H   0  0  0  0  0  0
  -25.2761   -9.5644   22.4742 H   0  0  0  0  0  0
  -23.9930   -7.4655   22.7543 H   0  0  0  0  0  0
  -21.0831   -8.8781   19.8941 H   0  0  0  0  0  0
  -22.3724  -10.9661   19.6131 H   0  0  0  0  0  0
  -21.2057   -7.6155   23.9674 H   0  0  0  0  0  0
  -21.1486   -6.0539   25.9042 H   0  0  0  0  0  0
  -22.0611   -2.7599   23.2826 H   0  0  0  0  0  0
  -22.4180  -11.9796   22.4597 H   0  0  0  0  0  0
  -21.1189  -13.1271   22.2673 H   0  0  0  0  0  0
  -24.6718  -15.8499   20.5206 H   0  0  0  0  0  0
  -26.2918  -15.6234   20.1021 H   0  0  0  0  0  0
  -26.7148  -32.5482   23.1157 H   0  0  0  0  0  0
  -24.9957  -33.9745   25.0407 H   0  0  0  0  0  0
  -22.7174  -31.3008   21.3912 H   0  0  0  0  0  0
  -23.3757  -35.9624   23.3318 H   0  0  0  0  0  0
  -24.3573  -36.8929   22.2069 H   0  0  0  0  0  0
  -23.7201  -37.6487   23.6672 H   0  0  0  0  0  0
  -26.0947  -31.5606   20.6105 H   0  0  0  0  0  0
  -26.8385  -30.8441   22.0111 H   0  0  0  0  0  0
  -28.1197  -28.9967   21.2133 H   0  0  0  0  0  0
  -26.0423  -25.9117   19.0431 H   0  0  0  0  0  0
  -23.9854  -27.2840   19.0311 H   0  0  0  0  0  0
  -23.7663  -30.5821   19.4031 H   0  0  0  0  0  0
  -22.7626  -29.2395   19.8582 H   0  0  0  0  0  0
  -25.1271  -36.1979   25.0840 H   0  0  0  0  0  0
  -20.9974  -28.3373   24.1407 H   0  0  0  0  0  0
  -20.5746  -26.2362   23.3639 H   0  0  0  0  0  0
  -21.6643  -26.7529   22.1183 H   0  0  0  0  0  0
  -19.6924  -25.6326   21.1285 H   0  0  0  0  0  0
  -19.6683  -27.3221   20.6767 H   0  0  0  0  0  0
  -17.4188  -26.6736   21.4049 H   0  0  0  0  0  0
  -18.0297  -26.0126   22.9046 H   0  0  0  0  0  0
  -19.7921  -30.7302   24.2316 H   0  0  0  0  0  0
  -17.5006  -31.6302   24.5189 H   0  0  0  0  0  0
  -15.5342  -30.3047   23.7638 H   0  0  0  0  0  0
  -15.8673  -28.0869   22.7074 H   0  0  0  0  0  0
  -24.5823  -30.7111   25.7785 H   0  0  0  0  0  0
  -24.8879  -32.2894   26.4932 H   0  0  0  0  0  0
  -25.7967  -30.8860   27.0253 H   0  0  0  0  0  0
  -26.2962  -29.6745   24.1237 H   0  0  0  0  0  0
  -27.3954  -29.7286   25.4807 H   0  0  0  0  0  0
  -27.8848  -30.4311   23.9581 H   0  0  0  0  0  0
  -27.2575  -33.3644   26.2127 H   0  0  0  0  0  0
  -28.3760  -32.6971   25.0313 H   0  0  0  0  0  0
  -28.0736  -31.8506   26.5414 H   0  0  0  0  0  0
  -28.2568  -38.0115   24.7522 H   0  0  0  0  0  0
  -28.1085  -36.2635   24.6272 H   0  0  0  0  0  0
  -27.2303  -37.1439   25.8872 H   0  0  0  0  0  0
  -20.9343  -29.8772   21.6829 H   0  0  0  0  0  0
  -26.0191  -38.2865   24.1418 H   0  0  0  0  0  0
  -30.4982  -16.0820   18.1797 H   0  0  0  0  0  0
  -29.3066  -18.3160   21.6812 H   0  0  0  0  0  0
  -32.6379  -19.6432   14.2385 H   0  0  0  0  0  0
  -31.4090  -18.3158   13.8794 H   0  0  0  0  0  0
  -32.0618  -19.5844   16.6056 H   0  0  0  0  0  0
  -28.1299  -22.7127   22.2191 H   0  0  0  0  0  0
  -26.6546  -22.8836   21.3076 H   0  0  0  0  0  0
  -30.0678  -23.4089   19.0041 H   0  0  0  0  0  0
  -30.5758  -23.9868   20.5447 H   0  0  0  0  0  0
  -30.5519  -21.8473   21.5610 H   0  0  0  0  0  0
  -31.1268  -21.4978   19.9726 H   0  0  0  0  0  0
  -27.8728  -23.7708   19.3789 H   0  0  0  0  0  0
  -30.4761  -21.2533   17.5488 H   0  0  0  0  0  0
  -28.7632  -21.3078   17.9541 H   0  0  0  0  0  0
  -29.2672  -20.4145   16.5646 H   0  0  0  0  0  0
  -28.8824  -25.3390   21.7940 H   0  0  0  0  0  0
  -27.2105  -25.2595   21.4029 H   0  0  0  0  0  0
  -29.0700  -15.5459   21.3058 H   0  0  0  0  0  0
  1 25  1  0  0  0
  1 30  2  0  0  0
  1 88  1  0  0  0
  2  3  1  0  0  0
  2 25  1  0  0  0
  2 91  1  0  0  0
  2 92  1  0  0  0
  3  4  1  0  0  0
  3 93  1  0  0  0
  3 94  1  0  0  0
  4  5  1  0  0  0
  4 95  1  0  0  0
  4 96  1  0  0  0
  5  6  1  0  0  0
  5 26  1  0  0  0
  5 97  1  0  0  0
  6 25  1  0  0  0
  6 98  1  0  0  0
  6 99  1  0  0  0
  7  8  2  0  0  0
  7 26  1  0  0  0
  7 29  1  0  0  0
  8  9  1  0  0  0
  8 22  1  0  0  0
  9 10  1  0  0  0
  9 27  2  0  0  0
 10 11  2  0  0  0
 10 15  1  0  0  0
 11 12  1  0  0  0
 11100  1  0  0  0
 12 13  2  0  0  0
 12101  1  0  0  0
 13 14  1  0  0  0
 13 31  1  0  0  0
 14 15  2  0  0  0
 14102  1  0  0  0
 15103  1  0  0  0
 16 17  2  0  0  0
 16 21  1  0  0  0
 16 31  1  0  0  0
 17 18  1  0  0  0
 17104  1  0  0  0
 18 19  2  0  0  0
 18105  1  0  0  0
 19 20  1  0  0  0
 19 24  1  0  0  0
 20 21  2  0  0  0
 20106  1  0  0  0
 21 23  1  0  0  0
 22 28  1  0  0  0
 22 32  2  0  0  0
 26 27  1  0  0  0
 28107  1  0  0  0
 28108  1  0  0  0
 29109  1  0  0  0
 29110  1  0  0  0
 33 34  1  0  0  0
 33 66  1  0  0  0
 33 70  2  0  0  0
 34 36  1  0  0  0
 34 59  1  0  0  0
 34111  1  0  0  0
 35 44  2  0  0  0
 35 45  1  0  0  0
 35 68  1  0  0  0
 36 56  1  0  0  0
 36112  1  0  0  0
 37 39  1  0  0  0
 37 47  1  0  0  0
 37 66  1  0  0  0
 37113  1  0  0  0
 38 43  2  0  0  0
 38 46  1  0  0  0
 38 47  1  0  0  0
 39 64  1  0  0  0
 39 67  2  0  0  0
 40 52  1  0  0  0
 40 53  2  0  0  0
 40 58  1  0  0  0
 41114  1  0  0  0
 41115  1  0  0  0
 41116  1  0  0  0
 41 48  1  0  0  0
 42 43  1  0  0  0
 42 66  1  0  0  0
 42117  1  0  0  0
 42118  1  0  0  0
 43 44  1  0  0  0
 44119  1  0  0  0
 45 46  2  0  0  0
 45120  1  0  0  0
 46121  1  0  0  0
 47122  1  0  0  0
 47123  1  0  0  0
 48 56  1  0  0  0
 48 65  1  0  0  0
 48124  1  0  0  0
 49 50  1  0  0  0
 49 53  1  0  0  0
 49 64  1  0  0  0
 49125  1  0  0  0
 50 51  1  0  0  0
 50126  1  0  0  0
 50127  1  0  0  0
 51 52  1  0  0  0
 51128  1  0  0  0
 51129  1  0  0  0
 52130  1  0  0  0
 52131  1  0  0  0
 53 54  1  0  0  0
 54 55  2  0  0  0
 54132  1  0  0  0
 55 57  1  0  0  0
 55133  1  0  0  0
 56 69  2  0  0  0
 57 58  2  0  0  0
 57134  1  0  0  0
 58135  1  0  0  0
 59 60  1  0  0  0
 59 61  1  0  0  0
 59 62  1  0  0  0
 60136  1  0  0  0
 60137  1  0  0  0
 60138  1  0  0  0
 61139  1  0  0  0
 61140  1  0  0  0
 61141  1  0  0  0
 62142  1  0  0  0
 62143  1  0  0  0
 62144  1  0  0  0
 63 65  1  0  0  0
 63145  1  0  0  0
 63146  1  0  0  0
 63147  1  0  0  0
 64148  1  0  0  0
 65149  1  0  0  0
 68 86  1  0  0  0
 71 73  2  0  0  0
 71 76  1  0  0  0
 71150  1  0  0  0
 72 75  1  0  0  0
 72 76  2  0  0  0
 72151  1  0  0  0
 73 74  1  0  0  0
 73 80  1  0  0  0
 74 75  2  0  0  0
 74 85  1  0  0  0
 75 87  1  0  0  0
 76 88  1  0  0  0
 77 81  1  0  0  0
 77 87  1  0  0  0
 77 89  2  0  0  0
 78 79  2  0  0  0
 78152  1  0  0  0
 78153  1  0  0  0
 79 80  1  0  0  0
 79154  1  0  0  0
 80 90  2  0  0  0
 81 84  1  0  0  0
 81155  1  0  0  0
 81156  1  0  0  0
 82 83  1  0  0  0
 82 84  1  0  0  0
 82157  1  0  0  0
 82158  1  0  0  0
 83 87  1  0  0  0
 83159  1  0  0  0
 83160  1  0  0  0
 84 86  1  0  0  0
 84161  1  0  0  0
 85162  1  0  0  0
 85163  1  0  0  0
 85164  1  0  0  0
 86165  1  0  0  0
 86166  1  0  0  0
 88167  1  0  0  0
M  ISO  4   1 100  68 101  86 101  88 100
M  END
> <chiral flag>
0

> <version>
0

> <s_m_source_file>
/data/baiqing/PycharmProjects/Reinvent-master-3.2/result/LINK_invent/BTK/process_docking_weight1_custom_product_contain_oxygen_bond_distance_aromatic_linkinvent_7_9_3/rearranged_h_0064.sdf

> <i_m_source_file_index>
1

> <r_mmod_Potential_Energy-OPLS-2005>
211.59782409668

> <r_mmod_Stretch_Energy-OPLS-2005>
84.1842651367188

> <r_mmod_Bend_Energy-OPLS-2005>
135.436492919922

> <r_mmod_Torsional_Energy-OPLS-2005>
368.763580322266

> <r_mmod_Improper_Torsional_Energy-OPLS-2005>
5.83665561676025

> <r_mmod_Van_der_Waal_Energy-OPLS-2005>
160.246520996094

> <r_mmod_Electrostatic_Energy-OPLS-2005>
-352.722930908203

> <r_mmod_Solvation_Energy-OPLS-2005>
-233.429382324219

> <b_mmod_Minimization_Converged-OPLS-2005>
0

> <r_mmod_RMS_Derivative-OPLS-2005>
3.85560321807861

$$$$
1
                    3D
 Structure written by MMmdl.
161170  0  0  1  0            999 V2000
  -30.6049  -14.7348   20.4752 C   0  0  0  0  0  0
  -30.4348  -12.4498   19.4892 C   0  0  0  0  0  0
  -29.5174  -12.5271   18.2469 C   0  0  0  0  0  0
  -28.0400  -12.3554   18.6496 C   0  0  0  0  0  0
  -27.6476  -13.2365   19.8652 C   0  0  2  0  0  0
  -28.6861  -13.1465   21.0052 C   0  0  0  0  0  0
  -25.2524  -13.8217   20.5713 C   0  0  0  0  0  0
  -24.1803  -13.0458   20.9199 C   0  0  0  0  0  0
  -24.6394  -11.6933   20.8751 C   0  0  0  0  0  0
  -23.9089  -10.4304   21.0418 C   0  0  0  0  0  0
  -24.3642   -9.4214   21.9184 C   0  0  0  0  0  0
  -23.6302   -8.2249   22.0744 C   0  0  0  0  0  0
  -22.4274   -8.0298   21.3539 C   0  0  0  0  0  0
  -21.9914   -9.0279   20.4643 C   0  0  0  0  0  0
  -22.7264  -10.2140   20.3067 C   0  0  0  0  0  0
  -21.6857   -6.0744   22.5277 C   0  0  0  0  0  0
  -21.4016   -6.5636   23.8211 C   0  0  0  0  0  0
  -21.3654   -5.6782   24.9168 C   0  0  0  0  0  0
  -21.6040   -4.3050   24.7207 C   0  0  0  0  0  0
  -21.8818   -3.8157   23.4326 C   0  0  0  0  0  0
  -21.9191   -4.6978   22.3384 C   0  0  0  0  0  0
  -22.7812  -13.5232   21.1848 C   0  0  0  0  0  0
  -22.1664   -4.2175   21.0958 F   0  0  0  0  0  0
  -21.5625   -3.4531   25.7714 F   0  0  0  0  0  0
  -29.9980  -13.4984   20.4441 N   0  0  0  0  0  0
  -26.2950  -12.9425   20.3313 N   0  0  0  0  0  0
  -25.9328  -11.6567   20.5749 N   0  0  0  0  0  0
  -22.0462  -12.8236   22.0421 N   0  0  0  0  0  0
  -25.4250  -15.1928   20.4164 N   0  0  0  0  0  0
  -31.7617  -14.8578   20.0591 O   0  0  0  0  0  0
  -21.6642   -6.8892   21.4237 O   0  0  0  0  0  0
  -22.3490  -14.5550   20.6704 O   0  0  0  0  0  0
  -24.6366  -31.8530   23.1960 C   0  0  0  0  0  0
  -25.9171  -32.4745   23.8318 C   0  0  1  0  0  0
  -27.2080  -27.2191   20.1306 C   0  0  0  0  0  0
  -25.5945  -33.8550   24.2227 N   0  0  0  0  0  0
  -23.4338  -30.4755   21.5432 C   0  0  2  0  0  0
  -24.8772  -28.9213   20.1072 C   0  0  0  0  0  0
  -22.7533  -29.4584   22.4926 C   0  0  0  0  0  0
  -18.0289  -28.1404   22.8486 C   0  0  0  0  0  0
  -24.1474  -36.7267   23.2638 C   0  0  0  0  0  0
  -25.9833  -30.7513   21.3831 C   0  0  0  0  0  0
  -26.0522  -29.3716   20.7225 C   0  0  0  0  0  0
  -27.2189  -28.5332   20.7238 C   0  0  0  0  0  0
  -26.0112  -26.8577   19.4689 C   0  0  0  0  0  0
  -24.8646  -27.6735   19.4692 C   0  0  0  0  0  0
  -23.6512  -29.8134   20.1584 C   0  0  0  0  0  0
  -25.4105  -36.3059   24.0320 C   0  0  1  0  0  0
  -20.5902  -28.3707   23.1274 C   0  0  2  0  0  0
  -20.6777  -26.9420   22.5424 C   0  0  0  0  0  0
  -19.5746  -26.6386   21.5235 C   0  0  0  0  0  0
  -18.1925  -26.7943   22.1635 C   0  0  0  0  0  0
  -19.1544  -28.8876   23.2870 C   0  0  0  0  0  0
  -18.9470  -30.1478   23.8885 C   0  0  0  0  0  0
  -17.6467  -30.6597   24.0569 C   0  0  0  0  0  0
  -25.9068  -34.9441   23.5082 C   0  0  0  0  0  0
  -16.5359  -29.9094   23.6335 C   0  0  0  0  0  0
  -16.7281  -28.6518   23.0353 C   0  0  0  0  0  0
  -26.4506  -31.6598   25.0738 C   0  0  0  0  0  0
  -25.3697  -31.3797   26.1446 C   0  0  0  0  0  0
  -27.0360  -30.2999   24.6282 C   0  0  0  0  0  0
  -27.6039  -32.4365   25.7519 C   0  0  0  0  0  0
  -27.5576  -37.1772   24.8456 C   0  0  0  0  0  0
  -21.4237  -29.3040   22.3661 N   0  0  0  0  0  0
  -26.4267  -37.3775   23.9434 N   0  0  0  0  0  0
  -24.7043  -31.0454   22.0965 N   0  0  0  0  0  0
  -23.4211  -28.8130   23.3049 O   0  0  0  0  0  0
  -28.2735  -26.2766   20.2178 O   0  0  0  0  0  0
  -26.5660  -34.8936   22.4663 O   0  0  0  0  0  0
  -23.5507  -32.1391   23.7224 O   0  0  0  0  0  0
  -28.8815  -18.0101   17.9408 C   0  0  0  0  0  0
  -29.2686  -16.9236   18.7394 C   0  0  0  0  0  0
  -29.5619  -18.4702   20.5951 C   0  0  0  0  0  0
  -28.8247  -19.3359   18.4277 C   0  0  0  0  0  0
  -29.1743  -19.6337   19.7875 C   0  0  0  0  0  0
  -29.6189  -17.0955   20.0909 C   0  0  0  0  0  0
  -28.2931  -22.0400   20.3736 C   0  0  0  0  0  0
  -28.3987  -20.3218   17.4202 C   0  0  0  0  0  0
  -30.2636  -23.2788   20.0765 C   0  0  0  0  0  0
  -30.5498  -21.7592   20.2809 C   0  0  0  0  0  0
  -28.8296  -23.5243   20.5710 C   0  0  1  0  0  0
  -28.0042  -24.7997   19.9546 C   0  0  0  0  0  0
  -29.2629  -21.0655   20.2373 N   0  0  0  0  0  0
  -29.0573  -20.4281   16.2674 N   0  0  0  0  0  0
  -29.8680  -15.8476   20.8564 N   0  0  0  0  0  0
  -27.3101  -21.0657   17.5942 N   0  3  0  0  0  0
  -27.0840  -21.7916   20.3443 O   0  0  0  0  0  0
  -31.4783  -12.5674   19.1907 H   0  0  0  0  0  0
  -30.3732  -11.4657   19.9550 H   0  0  0  0  0  0
  -29.7989  -11.7672   17.5166 H   0  0  0  0  0  0
  -29.6499  -13.4884   17.7467 H   0  0  0  0  0  0
  -27.8768  -11.3039   18.8891 H   0  0  0  0  0  0
  -27.3909  -12.5785   17.8014 H   0  0  0  0  0  0
  -27.6523  -14.2648   19.5045 H   0  0  0  0  0  0
  -28.7101  -12.1410   21.4240 H   0  0  0  0  0  0
  -28.4166  -13.8113   21.8282 H   0  0  0  0  0  0
  -25.2789   -9.5693   22.4757 H   0  0  0  0  0  0
  -24.0019   -7.4633   22.7444 H   0  0  0  0  0  0
  -21.0836   -8.8834   19.8936 H   0  0  0  0  0  0
  -22.3749  -10.9701   19.6189 H   0  0  0  0  0  0
  -21.2032   -7.6142   23.9731 H   0  0  0  0  0  0
  -21.1465   -6.0499   25.9070 H   0  0  0  0  0  0
  -22.0608   -2.7624   23.2812 H   0  0  0  0  0  0
  -22.4058  -11.9892   22.4811 H   0  0  0  0  0  0
  -21.1079  -13.1284   22.2649 H   0  0  0  0  0  0
  -24.6641  -15.8529   20.5358 H   0  0  0  0  0  0
  -26.2797  -15.6329   20.1044 H   0  0  0  0  0  0
  -26.7244  -32.5369   23.1064 H   0  0  0  0  0  0
  -25.0049  -33.9673   25.0345 H   0  0  0  0  0  0
  -22.7314  -31.2988   21.3998 H   0  0  0  0  0  0
  -23.3757  -35.9571   23.3266 H   0  0  0  0  0  0
  -24.3567  -36.8940   22.2062 H   0  0  0  0  0  0
  -23.7207  -37.6443   23.6696 H   0  0  0  0  0  0
  -26.1305  -31.5084   20.6116 H   0  0  0  0  0  0
  -26.8587  -30.7975   22.0193 H   0  0  0  0  0  0
  -28.1140  -28.8676   21.2293 H   0  0  0  0  0  0
  -25.9190  -25.9112   18.9577 H   0  0  0  0  0  0
  -23.9668  -27.3254   18.9770 H   0  0  0  0  0  0
  -23.7785  -30.5925   19.4059 H   0  0  0  0  0  0
  -22.7661  -29.2531   19.8518 H   0  0  0  0  0  0
  -25.1280  -36.1884   25.0806 H   0  0  0  0  0  0
  -20.9984  -28.3294   24.1400 H   0  0  0  0  0  0
  -20.5690  -26.2320   23.3636 H   0  0  0  0  0  0
  -21.6644  -26.7445   22.1214 H   0  0  0  0  0  0
  -19.6898  -25.6295   21.1272 H   0  0  0  0  0  0
  -19.6674  -27.3194   20.6763 H   0  0  0  0  0  0
  -17.4196  -26.6703   21.4034 H   0  0  0  0  0  0
  -18.0297  -26.0098   22.9037 H   0  0  0  0  0  0
  -19.7952  -30.7301   24.2242 H   0  0  0  0  0  0
  -17.5027  -31.6277   24.5175 H   0  0  0  0  0  0
  -15.5362  -30.2991   23.7672 H   0  0  0  0  0  0
  -15.8681  -28.0838   22.7066 H   0  0  0  0  0  0
  -24.5837  -30.7187   25.7778 H   0  0  0  0  0  0
  -24.8925  -32.2993   26.4846 H   0  0  0  0  0  0
  -25.7974  -30.8979   27.0247 H   0  0  0  0  0  0
  -26.2971  -29.6752   24.1251 H   0  0  0  0  0  0
  -27.3954  -29.7274   25.4846 H   0  0  0  0  0  0
  -27.8885  -30.4257   23.9602 H   0  0  0  0  0  0
  -27.2610  -33.3662   26.2081 H   0  0  0  0  0  0
  -28.3843  -32.6952   25.0347 H   0  0  0  0  0  0
  -28.0715  -31.8519   26.5456 H   0  0  0  0  0  0
  -28.2553  -38.0108   24.7572 H   0  0  0  0  0  0
  -28.1109  -36.2651   24.6172 H   0  0  0  0  0  0
  -27.2319  -37.1308   25.8861 H   0  0  0  0  0  0
  -20.9439  -29.8745   21.6838 H   0  0  0  0  0  0
  -26.0133  -38.2829   24.1492 H   0  0  0  0  0  0
  -28.5976  -17.8048   16.9167 H   0  0  0  0  0  0
  -29.2473  -15.9366   18.2993 H   0  0  0  0  0  0
  -29.8292  -18.6393   21.6285 H   0  0  0  0  0  0
  -30.3298  -23.5218   19.0145 H   0  0  0  0  0  0
  -30.9936  -23.9005   20.5973 H   0  0  0  0  0  0
  -31.0051  -21.5808   21.2568 H   0  0  0  0  0  0
  -31.2347  -21.3759   19.5231 H   0  0  0  0  0  0
  -28.8632  -23.6592   21.6526 H   0  0  0  0  0  0
  -26.9867  -24.6024   20.2921 H   0  0  0  0  0  0
  -27.9801  -24.6778   18.8705 H   0  0  0  0  0  0
  -29.8846  -19.8677   16.1210 H   0  0  0  0  0  0
  -28.7936  -21.0737   15.5406 H   0  0  0  0  0  0
  -29.1211  -15.6240   21.4968 H   0  0  0  0  0  0
  -26.8572  -21.0594   18.5040 H   0  0  0  0  0  0
  -26.8914  -21.6036   16.8533 H   0  0  0  0  0  0
  1 25  1  0  0  0
  1 30  2  0  0  0
  1 85  1  0  0  0
  2  3  1  0  0  0
  2 25  1  0  0  0
  2 88  1  0  0  0
  2 89  1  0  0  0
  3  4  1  0  0  0
  3 90  1  0  0  0
  3 91  1  0  0  0
  4  5  1  0  0  0
  4 92  1  0  0  0
  4 93  1  0  0  0
  5  6  1  0  0  0
  5 26  1  0  0  0
  5 94  1  0  0  0
  6 25  1  0  0  0
  6 95  1  0  0  0
  6 96  1  0  0  0
  7  8  2  0  0  0
  7 26  1  0  0  0
  7 29  1  0  0  0
  8  9  1  0  0  0
  8 22  1  0  0  0
  9 10  1  0  0  0
  9 27  2  0  0  0
 10 11  2  0  0  0
 10 15  1  0  0  0
 11 12  1  0  0  0
 11 97  1  0  0  0
 12 13  2  0  0  0
 12 98  1  0  0  0
 13 14  1  0  0  0
 13 31  1  0  0  0
 14 15  2  0  0  0
 14 99  1  0  0  0
 15100  1  0  0  0
 16 17  2  0  0  0
 16 21  1  0  0  0
 16 31  1  0  0  0
 17 18  1  0  0  0
 17101  1  0  0  0
 18 19  2  0  0  0
 18102  1  0  0  0
 19 20  1  0  0  0
 19 24  1  0  0  0
 20 21  2  0  0  0
 20103  1  0  0  0
 21 23  1  0  0  0
 22 28  1  0  0  0
 22 32  2  0  0  0
 26 27  1  0  0  0
 28104  1  0  0  0
 28105  1  0  0  0
 29106  1  0  0  0
 29107  1  0  0  0
 33 34  1  0  0  0
 33 66  1  0  0  0
 33 70  2  0  0  0
 34 36  1  0  0  0
 34 59  1  0  0  0
 34108  1  0  0  0
 35 44  2  0  0  0
 35 45  1  0  0  0
 35 68  1  0  0  0
 36 56  1  0  0  0
 36109  1  0  0  0
 37 39  1  0  0  0
 37 47  1  0  0  0
 37 66  1  0  0  0
 37110  1  0  0  0
 38 43  2  0  0  0
 38 46  1  0  0  0
 38 47  1  0  0  0
 39 64  1  0  0  0
 39 67  2  0  0  0
 40 52  1  0  0  0
 40 53  2  0  0  0
 40 58  1  0  0  0
 41111  1  0  0  0
 41112  1  0  0  0
 41113  1  0  0  0
 41 48  1  0  0  0
 42 43  1  0  0  0
 42 66  1  0  0  0
 42114  1  0  0  0
 42115  1  0  0  0
 43 44  1  0  0  0
 44116  1  0  0  0
 45 46  2  0  0  0
 45117  1  0  0  0
 46118  1  0  0  0
 47119  1  0  0  0
 47120  1  0  0  0
 48 56  1  0  0  0
 48 65  1  0  0  0
 48121  1  0  0  0
 49 50  1  0  0  0
 49 53  1  0  0  0
 49 64  1  0  0  0
 49122  1  0  0  0
 50 51  1  0  0  0
 50123  1  0  0  0
 50124  1  0  0  0
 51 52  1  0  0  0
 51125  1  0  0  0
 51126  1  0  0  0
 52127  1  0  0  0
 52128  1  0  0  0
 53 54  1  0  0  0
 54 55  2  0  0  0
 54129  1  0  0  0
 55 57  1  0  0  0
 55130  1  0  0  0
 56 69  2  0  0  0
 57 58  2  0  0  0
 57131  1  0  0  0
 58132  1  0  0  0
 59 60  1  0  0  0
 59 61  1  0  0  0
 59 62  1  0  0  0
 60133  1  0  0  0
 60134  1  0  0  0
 60135  1  0  0  0
 61136  1  0  0  0
 61137  1  0  0  0
 61138  1  0  0  0
 62139  1  0  0  0
 62140  1  0  0  0
 62141  1  0  0  0
 63 65  1  0  0  0
 63142  1  0  0  0
 63143  1  0  0  0
 63144  1  0  0  0
 64145  1  0  0  0
 65146  1  0  0  0
 68 82  1  0  0  0
 71 72  2  0  0  0
 71 74  1  0  0  0
 71147  1  0  0  0
 72 76  1  0  0  0
 72148  1  0  0  0
 73 75  1  0  0  0
 73 76  2  0  0  0
 73149  1  0  0  0
 74 75  2  0  0  0
 74 78  1  0  0  0
 75 83  1  0  0  0
 76 85  1  0  0  0
 77 81  1  0  0  0
 77 83  1  0  0  0
 77 87  2  0  0  0
 78 84  1  0  0  0
 78 86  2  0  0  0
 79 80  1  0  0  0
 79 81  1  0  0  0
 79150  1  0  0  0
 79151  1  0  0  0
 80 83  1  0  0  0
 80152  1  0  0  0
 80153  1  0  0  0
 81 82  1  0  0  0
 81154  1  0  0  0
 82155  1  0  0  0
 82156  1  0  0  0
 84157  1  0  0  0
 84158  1  0  0  0
 85159  1  0  0  0
 86160  1  0  0  0
 86161  1  0  0  0
M  CHG  1  86   1
M  ISO  4   1 100  68 101  82 101  85 100
M  END
> <chiral flag>
0

> <version>
0

> <s_m_source_file>
/data/baiqing/PycharmProjects/Reinvent-master-3.2/result/LINK_invent/BTK/process_docking_weight1_custom_product_contain_oxygen_bond_distance_aromatic_linkinvent_7_9_3/rearranged_h_0064.sdf

> <i_m_source_file_index>
2

> <r_mmod_Potential_Energy-OPLS-2005>
117.944526672363

> <r_mmod_Stretch_Energy-OPLS-2005>
142.559234619141

> <r_mmod_Bend_Energy-OPLS-2005>
209.821212768555

> <r_mmod_Torsional_Energy-OPLS-2005>
336.643402099609

> <r_mmod_Improper_Torsional_Energy-OPLS-2005>
7.07531356811523

> <r_mmod_Van_der_Waal_Energy-OPLS-2005>
139.692321777344

> <r_mmod_Electrostatic_Energy-OPLS-2005>
-368.174407958984

> <r_mmod_Solvation_Energy-OPLS-2005>
-447.225769042969

> <b_mmod_Minimization_Converged-OPLS-2005>
0

> <r_mmod_RMS_Derivative-OPLS-2005>
2.58648085594177

$$$$
2
                    3D
 Structure written by MMmdl.
161170  0  0  1  0            999 V2000
  -30.6186  -14.7624   20.4219 C   0  0  0  0  0  0
  -30.4289  -12.4567   19.4901 C   0  0  0  0  0  0
  -29.5151  -12.4962   18.2461 C   0  0  0  0  0  0
  -28.0424  -12.3201   18.6591 C   0  0  0  0  0  0
  -27.6404  -13.2354   19.8463 C   0  0  2  0  0  0
  -28.6817  -13.2004   20.9866 C   0  0  0  0  0  0
  -25.2513  -13.8213   20.5703 C   0  0  0  0  0  0
  -24.1809  -13.0451   20.9217 C   0  0  0  0  0  0
  -24.6405  -11.6929   20.8754 C   0  0  0  0  0  0
  -23.9080  -10.4302   21.0412 C   0  0  0  0  0  0
  -24.3628   -9.4210   21.9191 C   0  0  0  0  0  0
  -23.6297   -8.2250   22.0757 C   0  0  0  0  0  0
  -22.4274   -8.0295   21.3555 C   0  0  0  0  0  0
  -21.9916   -9.0268   20.4653 C   0  0  0  0  0  0
  -22.7254  -10.2144   20.3064 C   0  0  0  0  0  0
  -21.6856   -6.0742   22.5285 C   0  0  0  0  0  0
  -21.4013   -6.5642   23.8220 C   0  0  0  0  0  0
  -21.3657   -5.6792   24.9177 C   0  0  0  0  0  0
  -21.6047   -4.3056   24.7227 C   0  0  0  0  0  0
  -21.8816   -3.8151   23.4347 C   0  0  0  0  0  0
  -21.9191   -4.6969   22.3405 C   0  0  0  0  0  0
  -22.7825  -13.5234   21.1864 C   0  0  0  0  0  0
  -22.1665   -4.2157   21.0980 F   0  0  0  0  0  0
  -21.5624   -3.4536   25.7739 F   0  0  0  0  0  0
  -29.9844  -13.5379   20.4026 N   0  0  0  0  0  0
  -26.2935  -12.9422   20.3260 N   0  0  0  0  0  0
  -25.9334  -11.6566   20.5751 N   0  0  0  0  0  0
  -22.0468  -12.8227   22.0418 N   0  0  0  0  0  0
  -25.4200  -15.1938   20.4138 N   0  0  0  0  0  0
  -31.8199  -14.8091   20.1422 O   0  0  0  0  0  0
  -21.6643   -6.8891   21.4251 O   0  0  0  0  0  0
  -22.3514  -14.5543   20.6713 O   0  0  0  0  0  0
  -24.6314  -31.8541   23.1968 C   0  0  0  0  0  0
  -25.9134  -32.4746   23.8326 C   0  0  1  0  0  0
  -27.2255  -27.2589   20.1231 C   0  0  0  0  0  0
  -25.5925  -33.8554   24.2250 N   0  0  0  0  0  0
  -23.4297  -30.4753   21.5382 C   0  0  2  0  0  0
  -24.8776  -28.9206   20.1058 C   0  0  0  0  0  0
  -22.7509  -29.4594   22.4886 C   0  0  0  0  0  0
  -18.0296  -28.1388   22.8481 C   0  0  0  0  0  0
  -24.1488  -36.7281   23.2641 C   0  0  0  0  0  0
  -25.9752  -30.7642   21.3789 C   0  0  0  0  0  0
  -26.0467  -29.3869   20.7186 C   0  0  0  0  0  0
  -27.2184  -28.5650   20.7214 C   0  0  0  0  0  0
  -26.0272  -26.8519   19.4946 C   0  0  0  0  0  0
  -24.8727  -27.6612   19.4852 C   0  0  0  0  0  0
  -23.6495  -29.8091   20.1538 C   0  0  0  0  0  0
  -25.4114  -36.3064   24.0325 C   0  0  1  0  0  0
  -20.5901  -28.3700   23.1257 C   0  0  2  0  0  0
  -20.6779  -26.9414   22.5402 C   0  0  0  0  0  0
  -19.5752  -26.6381   21.5205 C   0  0  0  0  0  0
  -18.1936  -26.7930   22.1624 C   0  0  0  0  0  0
  -19.1550  -28.8859   23.2868 C   0  0  0  0  0  0
  -18.9473  -30.1457   23.8894 C   0  0  0  0  0  0
  -17.6471  -30.6587   24.0560 C   0  0  0  0  0  0
  -25.9053  -34.9433   23.5091 C   0  0  0  0  0  0
  -16.5362  -29.9085   23.6328 C   0  0  0  0  0  0
  -16.7282  -28.6500   23.0355 C   0  0  0  0  0  0
  -26.4498  -31.6588   25.0732 C   0  0  0  0  0  0
  -25.3712  -31.3761   26.1451 C   0  0  0  0  0  0
  -27.0351  -30.2999   24.6245 C   0  0  0  0  0  0
  -27.6052  -32.4335   25.7502 C   0  0  0  0  0  0
  -27.5578  -37.1794   24.8461 C   0  0  0  0  0  0
  -21.4211  -29.3044   22.3640 N   0  0  0  0  0  0
  -26.4288  -37.3763   23.9408 N   0  0  0  0  0  0
  -24.6974  -31.0502   22.0941 N   0  0  0  0  0  0
  -23.4203  -28.8139   23.2994 O   0  0  0  0  0  0
  -28.3280  -26.3777   20.2257 O   0  0  0  0  0  0
  -26.5631  -34.8909   22.4664 O   0  0  0  0  0  0
  -23.5462  -32.1369   23.7252 O   0  0  0  0  0  0
  -31.1723  -18.6484   18.2568 C   0  0  0  0  0  0
  -30.9768  -17.4265   18.9162 C   0  0  0  0  0  0
  -29.4515  -18.5529   20.4296 C   0  0  0  0  0  0
  -30.5121  -19.8339   18.6379 C   0  0  0  0  0  0
  -29.6521  -19.8593   19.7812 C   0  0  0  0  0  0
  -30.1018  -17.3042   20.0161 C   0  0  0  0  0  0
  -27.2491  -22.8097   20.2286 C   0  0  0  0  0  0
  -27.6349  -21.2896   20.3364 C   0  0  0  0  0  0
  -29.5659  -22.5604   20.1565 C   0  0  0  0  0  0
  -28.4407  -23.5526   19.6602 C   0  0  2  0  0  0
  -32.1257  -22.8212   17.1177 C   0  0  0  0  0  0
  -30.7201  -21.0068   17.6862 C   0  0  0  0  0  0
  -28.4988  -25.1655   19.3641 C   0  0  0  0  0  0
  -28.9781  -21.1518   20.1692 N   0  0  0  0  0  0
  -29.8707  -15.9332   20.5771 N   0  0  0  0  0  0
  -26.1569  -23.3165   20.5128 O   0  0  0  0  0  0
  -26.8159  -20.3793   20.5186 O   0  0  0  0  0  0
  -31.9343  -21.6940   17.9596 O   0  0  0  0  0  0
  -31.4714  -12.5674   19.1891 H   0  0  0  0  0  0
  -30.3652  -11.4884   19.9891 H   0  0  0  0  0  0
  -29.8007  -11.7139   17.5419 H   0  0  0  0  0  0
  -29.6432  -13.4443   17.7212 H   0  0  0  0  0  0
  -27.9077  -11.2747   18.9407 H   0  0  0  0  0  0
  -27.3858  -12.4930   17.8059 H   0  0  0  0  0  0
  -27.6285  -14.2499   19.4477 H   0  0  0  0  0  0
  -28.7151  -12.2178   21.4594 H   0  0  0  0  0  0
  -28.4149  -13.9103   21.7707 H   0  0  0  0  0  0
  -25.2771   -9.5678   22.4765 H   0  0  0  0  0  0
  -24.0010   -7.4631   22.7466 H   0  0  0  0  0  0
  -21.0849   -8.8793   19.8950 H   0  0  0  0  0  0
  -22.3722  -10.9687   19.6172 H   0  0  0  0  0  0
  -21.2009   -7.6151   23.9722 H   0  0  0  0  0  0
  -21.1481   -6.0524   25.9082 H   0  0  0  0  0  0
  -22.0594   -2.7614   23.2845 H   0  0  0  0  0  0
  -22.4085  -11.9904   22.4831 H   0  0  0  0  0  0
  -21.1089  -13.1262   22.2620 H   0  0  0  0  0  0
  -24.6511  -15.8459   20.5258 H   0  0  0  0  0  0
  -26.2650  -15.6354   20.0751 H   0  0  0  0  0  0
  -26.7206  -32.5395   23.1073 H   0  0  0  0  0  0
  -25.0064  -33.9692   25.0390 H   0  0  0  0  0  0
  -22.7266  -31.2979   21.3902 H   0  0  0  0  0  0
  -23.3750  -35.9612   23.3293 H   0  0  0  0  0  0
  -24.3583  -36.8919   22.2058 H   0  0  0  0  0  0
  -23.7237  -37.6475   23.6678 H   0  0  0  0  0  0
  -26.1198  -31.5264   20.6122 H   0  0  0  0  0  0
  -26.8507  -30.8099   22.0154 H   0  0  0  0  0  0
  -28.1119  -28.9140   21.2199 H   0  0  0  0  0  0
  -25.9411  -25.8727   19.0480 H   0  0  0  0  0  0
  -23.9725  -27.2936   19.0118 H   0  0  0  0  0  0
  -23.7772  -30.5863   19.3989 H   0  0  0  0  0  0
  -22.7681  -29.2439   19.8455 H   0  0  0  0  0  0
  -25.1294  -36.1908   25.0815 H   0  0  0  0  0  0
  -21.0000  -28.3278   24.1374 H   0  0  0  0  0  0
  -20.5663  -26.2311   23.3607 H   0  0  0  0  0  0
  -21.6649  -26.7419   22.1205 H   0  0  0  0  0  0
  -19.6910  -25.6285   21.1247 H   0  0  0  0  0  0
  -19.6689  -27.3179   20.6725 H   0  0  0  0  0  0
  -17.4198  -26.6667   21.4038 H   0  0  0  0  0  0
  -18.0347  -26.0078   22.9027 H   0  0  0  0  0  0
  -19.7949  -30.7271   24.2269 H   0  0  0  0  0  0
  -17.5026  -31.6270   24.5156 H   0  0  0  0  0  0
  -15.5362  -30.2986   23.7650 H   0  0  0  0  0  0
  -15.8685  -28.0811   22.7080 H   0  0  0  0  0  0
  -24.5870  -30.7131   25.7782 H   0  0  0  0  0  0
  -24.8926  -32.2942   26.4868 H   0  0  0  0  0  0
  -25.8014  -30.8938   27.0236 H   0  0  0  0  0  0
  -26.2949  -29.6742   24.1245 H   0  0  0  0  0  0
  -27.3991  -29.7274   25.4788 H   0  0  0  0  0  0
  -27.8844  -30.4268   23.9528 H   0  0  0  0  0  0
  -27.2662  -33.3645   26.2061 H   0  0  0  0  0  0
  -28.3870  -32.6880   25.0333 H   0  0  0  0  0  0
  -28.0711  -31.8473   26.5435 H   0  0  0  0  0  0
  -28.2584  -38.0101   24.7510 H   0  0  0  0  0  0
  -28.1085  -36.2630   24.6281 H   0  0  0  0  0  0
  -27.2303  -37.1433   25.8867 H   0  0  0  0  0  0
  -20.9392  -29.8779   21.6859 H   0  0  0  0  0  0
  -26.0164  -38.2835   24.1413 H   0  0  0  0  0  0
  -31.8242  -18.6619   17.3945 H   0  0  0  0  0  0
  -31.4905  -16.5705   18.5071 H   0  0  0  0  0  0
  -28.7676  -18.5082   21.2652 H   0  0  0  0  0  0
  -29.8522  -22.8190   21.1778 H   0  0  0  0  0  0
  -30.4775  -22.6681   19.5836 H   0  0  0  0  0  0
  -28.3642  -23.2316   18.6202 H   0  0  0  0  0  0
  -33.0732  -23.3043   17.3568 H   0  0  0  0  0  0
  -31.3335  -23.5584   17.2565 H   0  0  0  0  0  0
  -32.1523  -22.5331   16.0660 H   0  0  0  0  0  0
  -29.8580  -21.6722   17.6888 H   0  0  0  0  0  0
  -30.7643  -20.6216   16.6658 H   0  0  0  0  0  0
  -27.9179  -25.3277   18.4574 H   0  0  0  0  0  0
  -29.5135  -25.3092   18.9917 H   0  0  0  0  0  0
  -28.9611  -15.7893   20.9897 H   0  0  0  0  0  0
  1 25  1  0  0  0
  1 30  2  0  0  0
  1 85  1  0  0  0
  2  3  1  0  0  0
  2 25  1  0  0  0
  2 89  1  0  0  0
  2 90  1  0  0  0
  3  4  1  0  0  0
  3 91  1  0  0  0
  3 92  1  0  0  0
  4  5  1  0  0  0
  4 93  1  0  0  0
  4 94  1  0  0  0
  5  6  1  0  0  0
  5 26  1  0  0  0
  5 95  1  0  0  0
  6 25  1  0  0  0
  6 96  1  0  0  0
  6 97  1  0  0  0
  7  8  2  0  0  0
  7 26  1  0  0  0
  7 29  1  0  0  0
  8  9  1  0  0  0
  8 22  1  0  0  0
  9 10  1  0  0  0
  9 27  2  0  0  0
 10 11  2  0  0  0
 10 15  1  0  0  0
 11 12  1  0  0  0
 11 98  1  0  0  0
 12 13  2  0  0  0
 12 99  1  0  0  0
 13 14  1  0  0  0
 13 31  1  0  0  0
 14 15  2  0  0  0
 14100  1  0  0  0
 15101  1  0  0  0
 16 17  2  0  0  0
 16 21  1  0  0  0
 16 31  1  0  0  0
 17 18  1  0  0  0
 17102  1  0  0  0
 18 19  2  0  0  0
 18103  1  0  0  0
 19 20  1  0  0  0
 19 24  1  0  0  0
 20 21  2  0  0  0
 20104  1  0  0  0
 21 23  1  0  0  0
 22 28  1  0  0  0
 22 32  2  0  0  0
 26 27  1  0  0  0
 28105  1  0  0  0
 28106  1  0  0  0
 29107  1  0  0  0
 29108  1  0  0  0
 33 34  1  0  0  0
 33 66  1  0  0  0
 33 70  2  0  0  0
 34 36  1  0  0  0
 34 59  1  0  0  0
 34109  1  0  0  0
 35 44  2  0  0  0
 35 45  1  0  0  0
 35 68  1  0  0  0
 36 56  1  0  0  0
 36110  1  0  0  0
 37 39  1  0  0  0
 37 47  1  0  0  0
 37 66  1  0  0  0
 37111  1  0  0  0
 38 43  2  0  0  0
 38 46  1  0  0  0
 38 47  1  0  0  0
 39 64  1  0  0  0
 39 67  2  0  0  0
 40 52  1  0  0  0
 40 53  2  0  0  0
 40 58  1  0  0  0
 41112  1  0  0  0
 41113  1  0  0  0
 41114  1  0  0  0
 41 48  1  0  0  0
 42 43  1  0  0  0
 42 66  1  0  0  0
 42115  1  0  0  0
 42116  1  0  0  0
 43 44  1  0  0  0
 44117  1  0  0  0
 45 46  2  0  0  0
 45118  1  0  0  0
 46119  1  0  0  0
 47120  1  0  0  0
 47121  1  0  0  0
 48 56  1  0  0  0
 48 65  1  0  0  0
 48122  1  0  0  0
 49 50  1  0  0  0
 49 53  1  0  0  0
 49 64  1  0  0  0
 49123  1  0  0  0
 50 51  1  0  0  0
 50124  1  0  0  0
 50125  1  0  0  0
 51 52  1  0  0  0
 51126  1  0  0  0
 51127  1  0  0  0
 52128  1  0  0  0
 52129  1  0  0  0
 53 54  1  0  0  0
 54 55  2  0  0  0
 54130  1  0  0  0
 55 57  1  0  0  0
 55131  1  0  0  0
 56 69  2  0  0  0
 57 58  2  0  0  0
 57132  1  0  0  0
 58133  1  0  0  0
 59 60  1  0  0  0
 59 61  1  0  0  0
 59 62  1  0  0  0
 60134  1  0  0  0
 60135  1  0  0  0
 60136  1  0  0  0
 61137  1  0  0  0
 61138  1  0  0  0
 61139  1  0  0  0
 62140  1  0  0  0
 62141  1  0  0  0
 62142  1  0  0  0
 63 65  1  0  0  0
 63143  1  0  0  0
 63144  1  0  0  0
 63145  1  0  0  0
 64146  1  0  0  0
 65147  1  0  0  0
 68 83  1  0  0  0
 71 72  2  0  0  0
 71 74  1  0  0  0
 71148  1  0  0  0
 72 76  1  0  0  0
 72149  1  0  0  0
 73 75  1  0  0  0
 73 76  2  0  0  0
 73150  1  0  0  0
 74 75  2  0  0  0
 74 82  1  0  0  0
 75 84  1  0  0  0
 76 85  1  0  0  0
 77 78  1  0  0  0
 77 80  1  0  0  0
 77 86  2  0  0  0
 78 84  1  0  0  0
 78 87  2  0  0  0
 79 80  1  0  0  0
 79 84  1  0  0  0
 79151  1  0  0  0
 79152  1  0  0  0
 80 83  1  0  0  0
 80153  1  0  0  0
 81 88  1  0  0  0
 81154  1  0  0  0
 81155  1  0  0  0
 81156  1  0  0  0
 82 88  1  0  0  0
 82157  1  0  0  0
 82158  1  0  0  0
 83159  1  0  0  0
 83160  1  0  0  0
 85161  1  0  0  0
M  ISO  4   1 100  68 101  83 101  85 100
M  END
> <chiral flag>
0

> <version>
0

> <s_m_source_file>
/data/baiqing/PycharmProjects/Reinvent-master-3.2/result/LINK_invent/BTK/process_docking_weight1_custom_product_contain_oxygen_bond_distance_aromatic_linkinvent_7_9_3/rearranged_h_0064.sdf

> <i_m_source_file_index>
3

> <r_mmod_Potential_Energy-OPLS-2005>
401.722290039062

> <r_mmod_Stretch_Energy-OPLS-2005>
143.351287841797

> <r_mmod_Bend_Energy-OPLS-2005>
291.471069335938

> <r_mmod_Torsional_Energy-OPLS-2005>
270.190246582031

> <r_mmod_Improper_Torsional_Energy-OPLS-2005>
5.51102828979492

> <r_mmod_Van_der_Waal_Energy-OPLS-2005>
141.113693237305

> <r_mmod_Electrostatic_Energy-OPLS-2005>
-291.499938964844

> <r_mmod_Solvation_Energy-OPLS-2005>
-251.315368652344

> <b_mmod_Minimization_Converged-OPLS-2005>
0

> <r_mmod_RMS_Derivative-OPLS-2005>
1.26619720458984

$$$$
3
                    3D
 Structure written by MMmdl.
149157  0  0  1  0            999 V2000
  -30.5896  -14.8034   20.4055 C   0  0  0  0  0  0
  -30.4231  -12.4856   19.4854 C   0  0  0  0  0  0
  -29.5039  -12.5152   18.2454 C   0  0  0  0  0  0
  -28.0311  -12.3338   18.6575 C   0  0  0  0  0  0
  -27.6323  -13.2444   19.8485 C   0  0  2  0  0  0
  -28.6775  -13.2066   20.9829 C   0  0  0  0  0  0
  -25.2435  -13.8239   20.5733 C   0  0  0  0  0  0
  -24.1751  -13.0446   20.9222 C   0  0  0  0  0  0
  -24.6366  -11.6943   20.8729 C   0  0  0  0  0  0
  -23.9050  -10.4297   21.0372 C   0  0  0  0  0  0
  -24.3596   -9.4222   21.9164 C   0  0  0  0  0  0
  -23.6269   -8.2260   22.0751 C   0  0  0  0  0  0
  -22.4257   -8.0274   21.3536 C   0  0  0  0  0  0
  -21.9876   -9.0247   20.4642 C   0  0  0  0  0  0
  -22.7209  -10.2125   20.3037 C   0  0  0  0  0  0
  -21.6861   -6.0722   22.5278 C   0  0  0  0  0  0
  -21.4020   -6.5627   23.8206 C   0  0  0  0  0  0
  -21.3674   -5.6793   24.9169 C   0  0  0  0  0  0
  -21.6036   -4.3056   24.7227 C   0  0  0  0  0  0
  -21.8825   -3.8144   23.4353 C   0  0  0  0  0  0
  -21.9191   -4.6953   22.3401 C   0  0  0  0  0  0
  -22.7769  -13.5204   21.1881 C   0  0  0  0  0  0
  -22.1649   -4.2141   21.0970 F   0  0  0  0  0  0
  -21.5635   -3.4536   25.7735 F   0  0  0  0  0  0
  -29.9740  -13.5666   20.3977 N   0  0  0  0  0  0
  -26.2872  -12.9473   20.3308 N   0  0  0  0  0  0
  -25.9298  -11.6603   20.5771 N   0  0  0  0  0  0
  -22.0420  -12.8186   22.0436 N   0  0  0  0  0  0
  -25.4071  -15.1966   20.4158 N   0  0  0  0  0  0
  -31.7874  -14.8669   20.1102 O   0  0  0  0  0  0
  -21.6648   -6.8855   21.4238 O   0  0  0  0  0  0
  -22.3434  -14.5494   20.6708 O   0  0  0  0  0  0
  -24.6326  -31.8517   23.1962 C   0  0  0  0  0  0
  -25.9142  -32.4739   23.8305 C   0  0  1  0  0  0
  -27.2196  -27.2336   20.1215 C   0  0  0  0  0  0
  -25.5951  -33.8552   24.2236 N   0  0  0  0  0  0
  -23.4280  -30.4709   21.5421 C   0  0  2  0  0  0
  -24.8759  -28.9148   20.1030 C   0  0  0  0  0  0
  -22.7488  -29.4575   22.4933 C   0  0  0  0  0  0
  -18.0281  -28.1354   22.8497 C   0  0  0  0  0  0
  -24.1491  -36.7264   23.2643 C   0  0  0  0  0  0
  -25.9737  -30.7511   21.3802 C   0  0  0  0  0  0
  -26.0458  -29.3734   20.7189 C   0  0  0  0  0  0
  -27.2153  -28.5441   20.7207 C   0  0  0  0  0  0
  -26.0256  -26.8487   19.4719 C   0  0  0  0  0  0
  -24.8723  -27.6634   19.4680 C   0  0  0  0  0  0
  -23.6438  -29.8010   20.1576 C   0  0  0  0  0  0
  -25.4132  -36.3061   24.0320 C   0  0  1  0  0  0
  -20.5889  -28.3664   23.1281 C   0  0  2  0  0  0
  -20.6770  -26.9379   22.5425 C   0  0  0  0  0  0
  -19.5754  -26.6356   21.5221 C   0  0  0  0  0  0
  -18.1925  -26.7898   22.1617 C   0  0  0  0  0  0
  -19.1538  -28.8833   23.2881 C   0  0  0  0  0  0
  -18.9459  -30.1439   23.8883 C   0  0  0  0  0  0
  -17.6468  -30.6565   24.0549 C   0  0  0  0  0  0
  -25.9077  -34.9438   23.5081 C   0  0  0  0  0  0
  -16.5353  -29.9058   23.6336 C   0  0  0  0  0  0
  -16.7268  -28.6465   23.0369 C   0  0  0  0  0  0
  -26.4507  -31.6586   25.0711 C   0  0  0  0  0  0
  -25.3730  -31.3734   26.1429 C   0  0  0  0  0  0
  -27.0368  -30.3006   24.6210 C   0  0  0  0  0  0
  -27.6050  -32.4341   25.7481 C   0  0  0  0  0  0
  -27.5579  -37.1790   24.8469 C   0  0  0  0  0  0
  -21.4196  -29.3015   22.3661 N   0  0  0  0  0  0
  -26.4289  -37.3772   23.9412 N   0  0  0  0  0  0
  -24.6962  -31.0455   22.0945 N   0  0  0  0  0  0
  -23.4181  -28.8136   23.3049 O   0  0  0  0  0  0
  -28.3048  -26.3220   20.2307 O   0  0  0  0  0  0
  -26.5645  -34.8911   22.4648 O   0  0  0  0  0  0
  -23.5483  -32.1359   23.7257 O   0  0  0  0  0  0
  -29.4182  -18.6131   20.4739 C   0  0  0  0  0  0
  -30.3487  -19.8876   18.6250 C   0  0  0  0  0  0
  -30.7341  -17.4630   18.7819 C   0  0  0  0  0  0
  -29.5735  -19.9202   19.8088 C   0  0  0  0  0  0
  -30.0004  -17.3490   19.9852 C   0  0  0  0  0  0
  -30.9030  -18.6957   18.1220 C   0  0  0  0  0  0
  -28.7045  -23.7844   20.3028 C   0  0  0  0  0  0
  -28.3066  -24.9853   19.7010 C   0  0  0  0  0  0
  -28.8343  -22.4543   19.5774 C   0  0  0  0  0  0
  -29.0733  -21.2646   20.2872 N   0  0  0  0  0  0
  -29.8265  -15.9699   20.5712 N   0  0  0  0  0  0
  -28.7290  -22.4117   18.3499 O   0  0  0  0  0  0
  -31.6151  -18.7315   16.9697 F   0  0  0  0  0  0
  -31.4619  -12.6064   19.1756 H   0  0  0  0  0  0
  -30.3700  -11.5166   19.9865 H   0  0  0  0  0  0
  -29.7931  -11.7375   17.5399 H   0  0  0  0  0  0
  -29.6302  -13.4641   17.7214 H   0  0  0  0  0  0
  -27.8954  -11.2888   18.9323 H   0  0  0  0  0  0
  -27.3727  -12.5122   17.8062 H   0  0  0  0  0  0
  -27.6154  -14.2618   19.4600 H   0  0  0  0  0  0
  -28.7209  -12.2183   21.4409 H   0  0  0  0  0  0
  -28.4029  -13.9007   21.7766 H   0  0  0  0  0  0
  -25.2741   -9.5732   22.4755 H   0  0  0  0  0  0
  -23.9992   -7.4660   22.7472 H   0  0  0  0  0  0
  -21.0811   -8.8731   19.8953 H   0  0  0  0  0  0
  -22.3625  -10.9643   19.6146 H   0  0  0  0  0  0
  -21.2014   -7.6134   23.9699 H   0  0  0  0  0  0
  -21.1488   -6.0523   25.9063 H   0  0  0  0  0  0
  -22.0588   -2.7610   23.2860 H   0  0  0  0  0  0
  -22.4034  -11.9842   22.4824 H   0  0  0  0  0  0
  -21.1030  -13.1204   22.2641 H   0  0  0  0  0  0
  -24.6367  -15.8462   20.5345 H   0  0  0  0  0  0
  -26.2521  -15.6446   20.0838 H   0  0  0  0  0  0
  -26.7191  -32.5359   23.1030 H   0  0  0  0  0  0
  -25.0143  -33.9719   25.0407 H   0  0  0  0  0  0
  -22.7255  -31.2945   21.3969 H   0  0  0  0  0  0
  -23.3781  -35.9568   23.3307 H   0  0  0  0  0  0
  -24.3572  -36.8886   22.2056 H   0  0  0  0  0  0
  -23.7225  -37.6452   23.6679 H   0  0  0  0  0  0
  -26.1211  -31.5105   20.6112 H   0  0  0  0  0  0
  -26.8472  -30.7981   22.0169 H   0  0  0  0  0  0
  -28.1025  -28.8861   21.2348 H   0  0  0  0  0  0
  -25.9516  -25.8835   18.9935 H   0  0  0  0  0  0
  -23.9749  -27.3093   18.9806 H   0  0  0  0  0  0
  -23.7569  -30.5792   19.4004 H   0  0  0  0  0  0
  -22.7614  -29.2302   19.8589 H   0  0  0  0  0  0
  -25.1328  -36.1896   25.0813 H   0  0  0  0  0  0
  -20.9980  -28.3226   24.1402 H   0  0  0  0  0  0
  -20.5666  -26.2265   23.3630 H   0  0  0  0  0  0
  -21.6632  -26.7394   22.1210 H   0  0  0  0  0  0
  -19.6919  -25.6272   21.1240 H   0  0  0  0  0  0
  -19.6702  -27.3175   20.6759 H   0  0  0  0  0  0
  -17.4214  -26.6673   21.3996 H   0  0  0  0  0  0
  -18.0305  -26.0015   22.8975 H   0  0  0  0  0  0
  -19.7941  -30.7252   24.2227 H   0  0  0  0  0  0
  -17.5017  -31.6253   24.5133 H   0  0  0  0  0  0
  -15.5351  -30.2955   23.7670 H   0  0  0  0  0  0
  -15.8664  -28.0774   22.7117 H   0  0  0  0  0  0
  -24.5947  -30.7029   25.7761 H   0  0  0  0  0  0
  -24.8887  -32.2908   26.4789 H   0  0  0  0  0  0
  -25.8062  -30.8972   27.0236 H   0  0  0  0  0  0
  -26.2957  -29.6746   24.1224 H   0  0  0  0  0  0
  -27.4048  -29.7269   25.4727 H   0  0  0  0  0  0
  -27.8833  -30.4296   23.9457 H   0  0  0  0  0  0
  -27.2651  -33.3672   26.1983 H   0  0  0  0  0  0
  -28.3887  -32.6841   25.0319 H   0  0  0  0  0  0
  -28.0673  -31.8510   26.5455 H   0  0  0  0  0  0
  -28.2597  -38.0084   24.7521 H   0  0  0  0  0  0
  -28.1067  -36.2621   24.6294 H   0  0  0  0  0  0
  -27.2287  -37.1428   25.8862 H   0  0  0  0  0  0
  -20.9382  -29.8712   21.6843 H   0  0  0  0  0  0
  -26.0167  -38.2833   24.1429 H   0  0  0  0  0  0
  -28.8394  -18.5791   21.3861 H   0  0  0  0  0  0
  -30.5502  -20.7924   18.0718 H   0  0  0  0  0  0
  -31.1760  -16.5930   18.3183 H   0  0  0  0  0  0
  -28.9826  -23.8130   21.3454 H   0  0  0  0  0  0
  -28.0000  -24.9946   18.6643 H   0  0  0  0  0  0
  -28.9254  -21.3392   21.2836 H   0  0  0  0  0  0
  -28.9349  -15.8106   21.0159 H   0  0  0  0  0  0
  1 25  1  0  0  0
  1 30  2  0  0  0
  1 81  1  0  0  0
  2  3  1  0  0  0
  2 25  1  0  0  0
  2 84  1  0  0  0
  2 85  1  0  0  0
  3  4  1  0  0  0
  3 86  1  0  0  0
  3 87  1  0  0  0
  4  5  1  0  0  0
  4 88  1  0  0  0
  4 89  1  0  0  0
  5  6  1  0  0  0
  5 26  1  0  0  0
  5 90  1  0  0  0
  6 25  1  0  0  0
  6 91  1  0  0  0
  6 92  1  0  0  0
  7  8  2  0  0  0
  7 26  1  0  0  0
  7 29  1  0  0  0
  8  9  1  0  0  0
  8 22  1  0  0  0
  9 10  1  0  0  0
  9 27  2  0  0  0
 10 11  2  0  0  0
 10 15  1  0  0  0
 11 12  1  0  0  0
 11 93  1  0  0  0
 12 13  2  0  0  0
 12 94  1  0  0  0
 13 14  1  0  0  0
 13 31  1  0  0  0
 14 15  2  0  0  0
 14 95  1  0  0  0
 15 96  1  0  0  0
 16 17  2  0  0  0
 16 21  1  0  0  0
 16 31  1  0  0  0
 17 18  1  0  0  0
 17 97  1  0  0  0
 18 19  2  0  0  0
 18 98  1  0  0  0
 19 20  1  0  0  0
 19 24  1  0  0  0
 20 21  2  0  0  0
 20 99  1  0  0  0
 21 23  1  0  0  0
 22 28  1  0  0  0
 22 32  2  0  0  0
 26 27  1  0  0  0
 28100  1  0  0  0
 28101  1  0  0  0
 29102  1  0  0  0
 29103  1  0  0  0
 33 34  1  0  0  0
 33 66  1  0  0  0
 33 70  2  0  0  0
 34 36  1  0  0  0
 34 59  1  0  0  0
 34104  1  0  0  0
 35 44  2  0  0  0
 35 45  1  0  0  0
 35 68  1  0  0  0
 36 56  1  0  0  0
 36105  1  0  0  0
 37 39  1  0  0  0
 37 47  1  0  0  0
 37 66  1  0  0  0
 37106  1  0  0  0
 38 43  2  0  0  0
 38 46  1  0  0  0
 38 47  1  0  0  0
 39 64  1  0  0  0
 39 67  2  0  0  0
 40 52  1  0  0  0
 40 53  2  0  0  0
 40 58  1  0  0  0
 41107  1  0  0  0
 41108  1  0  0  0
 41109  1  0  0  0
 41 48  1  0  0  0
 42 43  1  0  0  0
 42 66  1  0  0  0
 42110  1  0  0  0
 42111  1  0  0  0
 43 44  1  0  0  0
 44112  1  0  0  0
 45 46  2  0  0  0
 45113  1  0  0  0
 46114  1  0  0  0
 47115  1  0  0  0
 47116  1  0  0  0
 48 56  1  0  0  0
 48 65  1  0  0  0
 48117  1  0  0  0
 49 50  1  0  0  0
 49 53  1  0  0  0
 49 64  1  0  0  0
 49118  1  0  0  0
 50 51  1  0  0  0
 50119  1  0  0  0
 50120  1  0  0  0
 51 52  1  0  0  0
 51121  1  0  0  0
 51122  1  0  0  0
 52123  1  0  0  0
 52124  1  0  0  0
 53 54  1  0  0  0
 54 55  2  0  0  0
 54125  1  0  0  0
 55 57  1  0  0  0
 55126  1  0  0  0
 56 69  2  0  0  0
 57 58  2  0  0  0
 57127  1  0  0  0
 58128  1  0  0  0
 59 60  1  0  0  0
 59 61  1  0  0  0
 59 62  1  0  0  0
 60129  1  0  0  0
 60130  1  0  0  0
 60131  1  0  0  0
 61132  1  0  0  0
 61133  1  0  0  0
 61134  1  0  0  0
 62135  1  0  0  0
 62136  1  0  0  0
 62137  1  0  0  0
 63 65  1  0  0  0
 63138  1  0  0  0
 63139  1  0  0  0
 63140  1  0  0  0
 64141  1  0  0  0
 65142  1  0  0  0
 68 78  1  0  0  0
 71 74  2  0  0  0
 71 75  1  0  0  0
 71143  1  0  0  0
 72 74  1  0  0  0
 72 76  2  0  0  0
 72144  1  0  0  0
 73 75  2  0  0  0
 73 76  1  0  0  0
 73145  1  0  0  0
 74 80  1  0  0  0
 75 81  1  0  0  0
 76 83  1  0  0  0
 77 78  2  0  0  0
 77 79  1  0  0  0
 77146  1  0  0  0
 78147  1  0  0  0
 79 80  1  0  0  0
 79 82  2  0  0  0
 80148  1  0  0  0
 81149  1  0  0  0
M  ISO  4   1 100  68 101  78 101  81 100
M  END
> <chiral flag>
0

> <version>
0

> <s_m_source_file>
/data/baiqing/PycharmProjects/Reinvent-master-3.2/result/LINK_invent/BTK/process_docking_weight1_custom_product_contain_oxygen_bond_distance_aromatic_linkinvent_7_9_3/rearranged_h_0064.sdf

> <i_m_source_file_index>
4

> <r_mmod_Potential_Energy-OPLS-2005>
235.8671875

> <r_mmod_Stretch_Energy-OPLS-2005>
153.13215637207

> <r_mmod_Bend_Energy-OPLS-2005>
169.718704223633

> <r_mmod_Torsional_Energy-OPLS-2005>
247.46369934082

> <r_mmod_Improper_Torsional_Energy-OPLS-2005>
5.43815279006958

> <r_mmod_Van_der_Waal_Energy-OPLS-2005>
143.913436889648

> <r_mmod_Electrostatic_Energy-OPLS-2005>
-363.189331054688

> <r_mmod_Solvation_Energy-OPLS-2005>
-231.652267456055

> <b_mmod_Minimization_Converged-OPLS-2005>
0

> <r_mmod_RMS_Derivative-OPLS-2005>
3.23008298873901

$$$$
4
                    3D
 Structure written by MMmdl.
155164  0  0  1  0            999 V2000
  -30.6673  -14.5469   20.5314 C   0  0  0  0  0  0
  -30.4307  -12.3440   19.4278 C   0  0  0  0  0  0
  -29.4973  -12.4979   18.2083 C   0  0  0  0  0  0
  -28.0199  -12.3474   18.6245 C   0  0  0  0  0  0
  -27.6550  -13.2076   19.8639 C   0  0  2  0  0  0
  -28.7019  -13.0331   20.9873 C   0  0  0  0  0  0
  -25.2571  -13.8155   20.5679 C   0  0  0  0  0  0
  -24.1831  -13.0431   20.9188 C   0  0  0  0  0  0
  -24.6390  -11.6900   20.8745 C   0  0  0  0  0  0
  -23.9059  -10.4288   21.0413 C   0  0  0  0  0  0
  -24.3614   -9.4204   21.9188 C   0  0  0  0  0  0
  -23.6292   -8.2240   22.0758 C   0  0  0  0  0  0
  -22.4273   -8.0280   21.3548 C   0  0  0  0  0  0
  -21.9907   -9.0254   20.4650 C   0  0  0  0  0  0
  -22.7235  -10.2133   20.3061 C   0  0  0  0  0  0
  -21.6851   -6.0734   22.5281 C   0  0  0  0  0  0
  -21.4013   -6.5640   23.8214 C   0  0  0  0  0  0
  -21.3658   -5.6795   24.9178 C   0  0  0  0  0  0
  -21.6043   -4.3057   24.7227 C   0  0  0  0  0  0
  -21.8820   -3.8147   23.4349 C   0  0  0  0  0  0
  -21.9193   -4.6963   22.3403 C   0  0  0  0  0  0
  -22.7856  -13.5232   21.1849 C   0  0  0  0  0  0
  -22.1662   -4.2149   21.0982 F   0  0  0  0  0  0
  -21.5628   -3.4541   25.7738 F   0  0  0  0  0  0
  -30.0215  -13.3510   20.4197 N   0  0  0  0  0  0
  -26.2996  -12.9322   20.3329 N   0  0  0  0  0  0
  -25.9315  -11.6486   20.5766 N   0  0  0  0  0  0
  -22.0497  -12.8228   22.0404 N   0  0  0  0  0  0
  -25.4280  -15.1876   20.4069 N   0  0  0  0  0  0
  -31.8377  -14.7010   20.1705 O   0  0  0  0  0  0
  -21.6638   -6.8878   21.4245 O   0  0  0  0  0  0
  -22.3546  -14.5542   20.6702 O   0  0  0  0  0  0
  -24.6203  -31.8651   23.2074 C   0  0  0  0  0  0
  -25.9078  -32.4804   23.8380 C   0  0  1  0  0  0
  -27.2304  -27.3826   20.0825 C   0  0  0  0  0  0
  -25.5918  -33.8604   24.2309 N   0  0  0  0  0  0
  -23.4095  -30.4908   21.5501 C   0  0  2  0  0  0
  -24.8527  -28.9547   20.1134 C   0  0  0  0  0  0
  -22.7438  -29.4653   22.4972 C   0  0  0  0  0  0
  -18.0278  -28.1377   22.8490 C   0  0  0  0  0  0
  -24.1491  -36.7307   23.2637 C   0  0  0  0  0  0
  -25.9459  -30.8131   21.3696 C   0  0  0  0  0  0
  -26.0194  -29.4457   20.7106 C   0  0  0  0  0  0
  -27.2067  -28.6665   20.6948 C   0  0  0  0  0  0
  -26.0250  -26.9129   19.5059 C   0  0  0  0  0  0
  -24.8531  -27.6887   19.5110 C   0  0  0  0  0  0
  -23.6189  -29.8280   20.1642 C   0  0  0  0  0  0
  -25.4114  -36.3100   24.0333 C   0  0  1  0  0  0
  -20.5873  -28.3674   23.1303 C   0  0  2  0  0  0
  -20.6769  -26.9405   22.5413 C   0  0  0  0  0  0
  -19.5746  -26.6384   21.5212 C   0  0  0  0  0  0
  -18.1925  -26.7923   22.1622 C   0  0  0  0  0  0
  -19.1527  -28.8841   23.2893 C   0  0  0  0  0  0
  -18.9454  -30.1447   23.8903 C   0  0  0  0  0  0
  -17.6456  -30.6582   24.0563 C   0  0  0  0  0  0
  -25.9045  -34.9466   23.5118 C   0  0  0  0  0  0
  -16.5347  -29.9082   23.6328 C   0  0  0  0  0  0
  -16.7267  -28.6499   23.0350 C   0  0  0  0  0  0
  -26.4483  -31.6593   25.0725 C   0  0  0  0  0  0
  -25.3734  -31.3711   26.1462 C   0  0  0  0  0  0
  -27.0316  -30.3025   24.6135 C   0  0  0  0  0  0
  -27.6053  -32.4315   25.7491 C   0  0  0  0  0  0
  -27.5583  -37.1810   24.8464 C   0  0  0  0  0  0
  -21.4160  -29.3040   22.3709 N   0  0  0  0  0  0
  -26.4297  -37.3787   23.9405 N   0  0  0  0  0  0
  -24.6772  -31.0714   22.0998 N   0  0  0  0  0  0
  -23.4191  -28.8191   23.3026 O   0  0  0  0  0  0
  -28.3928  -26.6128   20.1146 O   0  0  0  0  0  0
  -26.5608  -34.8922   22.4680 O   0  0  0  0  0  0
  -23.5384  -32.1426   23.7441 O   0  0  0  0  0  0
  -31.5237  -18.6727   22.2445 C   0  0  0  0  0  0
  -30.7684  -19.7088   21.6577 C   0  0  0  0  0  0
  -31.2648  -17.3227   21.9337 C   0  0  0  0  0  0
  -29.4788  -18.0424   20.4437 C   0  0  0  0  0  0
  -29.7547  -19.4174   20.7182 C   0  0  0  0  0  0
  -30.2271  -16.9835   21.0389 C   0  0  0  0  0  0
  -30.4766  -23.8496   19.5100 C   0  0  0  0  0  0
  -29.2027  -24.2201   19.6561 C   0  0  0  0  0  0
  -30.5836  -22.4215   19.6948 C   0  0  0  0  0  0
  -28.4617  -23.0053   19.9764 C   0  0  0  0  0  0
  -28.9159  -20.5306   20.0263 C   0  0  0  0  0  0
  -28.5977  -25.5479   19.1446 C   0  0  0  0  0  0
  -29.3461  -21.9697   19.9856 N   0  0  0  0  0  0
  -29.8696  -15.6056   20.8247 N   0  0  0  0  0  0
  -31.5970  -21.7355   19.5353 O   0  0  0  0  0  0
  -27.2432  -22.9047   20.1544 O   0  0  0  0  0  0
  -31.4724  -12.4597   19.1232 H   0  0  0  0  0  0
  -30.3511  -11.3423   19.8527 H   0  0  0  0  0  0
  -29.7474  -11.7587   17.4460 H   0  0  0  0  0  0
  -29.6498  -13.4752   17.7473 H   0  0  0  0  0  0
  -27.8446  -11.2933   18.8427 H   0  0  0  0  0  0
  -27.3659  -12.5956   17.7878 H   0  0  0  0  0  0
  -27.6819  -14.2466   19.5366 H   0  0  0  0  0  0
  -28.6960  -12.0080   21.3607 H   0  0  0  0  0  0
  -28.4652  -13.6626   21.8467 H   0  0  0  0  0  0
  -25.2763   -9.5677   22.4757 H   0  0  0  0  0  0
  -24.0000   -7.4630   22.7477 H   0  0  0  0  0  0
  -21.0841   -8.8775   19.8953 H   0  0  0  0  0  0
  -22.3699  -10.9675   19.6167 H   0  0  0  0  0  0
  -21.2006   -7.6148   23.9716 H   0  0  0  0  0  0
  -21.1480   -6.0526   25.9079 H   0  0  0  0  0  0
  -22.0600   -2.7609   23.2851 H   0  0  0  0  0  0
  -22.4115  -11.9886   22.4783 H   0  0  0  0  0  0
  -21.1119  -13.1261   22.2616 H   0  0  0  0  0  0
  -24.6587  -15.8403   20.5125 H   0  0  0  0  0  0
  -26.2703  -15.6270   20.0589 H   0  0  0  0  0  0
  -26.7146  -32.5493   23.1134 H   0  0  0  0  0  0
  -25.0072  -33.9761   25.0457 H   0  0  0  0  0  0
  -22.7002  -31.3094   21.4120 H   0  0  0  0  0  0
  -23.3750  -35.9643   23.3308 H   0  0  0  0  0  0
  -24.3584  -36.8916   22.2050 H   0  0  0  0  0  0
  -23.7248  -37.6515   23.6650 H   0  0  0  0  0  0
  -26.0700  -31.5801   20.6040 H   0  0  0  0  0  0
  -26.8296  -30.8602   21.9944 H   0  0  0  0  0  0
  -28.1061  -29.0437   21.1614 H   0  0  0  0  0  0
  -25.9294  -25.9294   19.0752 H   0  0  0  0  0  0
  -23.9499  -27.2956   19.0649 H   0  0  0  0  0  0
  -23.7320  -30.6047   19.4071 H   0  0  0  0  0  0
  -22.7402  -29.2536   19.8654 H   0  0  0  0  0  0
  -25.1293  -36.1961   25.0826 H   0  0  0  0  0  0
  -20.9963  -28.3240   24.1424 H   0  0  0  0  0  0
  -20.5674  -26.2280   23.3604 H   0  0  0  0  0  0
  -21.6640  -26.7446   22.1205 H   0  0  0  0  0  0
  -19.6911  -25.6297   21.1234 H   0  0  0  0  0  0
  -19.6685  -27.3200   20.6746 H   0  0  0  0  0  0
  -17.4197  -26.6673   21.4022 H   0  0  0  0  0  0
  -18.0326  -26.0060   22.9013 H   0  0  0  0  0  0
  -19.7930  -30.7262   24.2273 H   0  0  0  0  0  0
  -17.5011  -31.6264   24.5164 H   0  0  0  0  0  0
  -15.5347  -30.2986   23.7649 H   0  0  0  0  0  0
  -15.8666  -28.0821   22.7061 H   0  0  0  0  0  0
  -24.5911  -30.7055   25.7794 H   0  0  0  0  0  0
  -24.8921  -32.2869   26.4901 H   0  0  0  0  0  0
  -25.8075  -30.8882   27.0226 H   0  0  0  0  0  0
  -26.2872  -29.6784   24.1174 H   0  0  0  0  0  0
  -27.4050  -29.7266   25.4614 H   0  0  0  0  0  0
  -27.8727  -30.4326   23.9320 H   0  0  0  0  0  0
  -27.2669  -33.3609   26.2085 H   0  0  0  0  0  0
  -28.3854  -32.6885   25.0312 H   0  0  0  0  0  0
  -28.0730  -31.8428   26.5392 H   0  0  0  0  0  0
  -28.2604  -38.0104   24.7510 H   0  0  0  0  0  0
  -28.1076  -36.2635   24.6294 H   0  0  0  0  0  0
  -27.2301  -37.1465   25.8868 H   0  0  0  0  0  0
  -20.9323  -29.8768   21.6934 H   0  0  0  0  0  0
  -26.0184  -38.2866   24.1399 H   0  0  0  0  0  0
  -32.3051  -18.9165   22.9512 H   0  0  0  0  0  0
  -30.9867  -20.7302   21.9339 H   0  0  0  0  0  0
  -31.8457  -16.5505   22.4190 H   0  0  0  0  0  0
  -28.6762  -17.7989   19.7611 H   0  0  0  0  0  0
  -31.2733  -24.4795   19.1459 H   0  0  0  0  0  0
  -27.9254  -20.4712   20.4804 H   0  0  0  0  0  0
  -28.7709  -20.2237   18.9894 H   0  0  0  0  0  0
  -27.7478  -25.2979   18.5179 H   0  0  0  0  0  0
  -29.3150  -25.9581   18.4329 H   0  0  0  0  0  0
  -28.8868  -15.3887   20.8836 H   0  0  0  0  0  0
  1 25  1  0  0  0
  1 30  2  0  0  0
  1 84  1  0  0  0
  2  3  1  0  0  0
  2 25  1  0  0  0
  2 87  1  0  0  0
  2 88  1  0  0  0
  3  4  1  0  0  0
  3 89  1  0  0  0
  3 90  1  0  0  0
  4  5  1  0  0  0
  4 91  1  0  0  0
  4 92  1  0  0  0
  5  6  1  0  0  0
  5 26  1  0  0  0
  5 93  1  0  0  0
  6 25  1  0  0  0
  6 94  1  0  0  0
  6 95  1  0  0  0
  7  8  2  0  0  0
  7 26  1  0  0  0
  7 29  1  0  0  0
  8  9  1  0  0  0
  8 22  1  0  0  0
  9 10  1  0  0  0
  9 27  2  0  0  0
 10 11  2  0  0  0
 10 15  1  0  0  0
 11 12  1  0  0  0
 11 96  1  0  0  0
 12 13  2  0  0  0
 12 97  1  0  0  0
 13 14  1  0  0  0
 13 31  1  0  0  0
 14 15  2  0  0  0
 14 98  1  0  0  0
 15 99  1  0  0  0
 16 17  2  0  0  0
 16 21  1  0  0  0
 16 31  1  0  0  0
 17 18  1  0  0  0
 17100  1  0  0  0
 18 19  2  0  0  0
 18101  1  0  0  0
 19 20  1  0  0  0
 19 24  1  0  0  0
 20 21  2  0  0  0
 20102  1  0  0  0
 21 23  1  0  0  0
 22 28  1  0  0  0
 22 32  2  0  0  0
 26 27  1  0  0  0
 28103  1  0  0  0
 28104  1  0  0  0
 29105  1  0  0  0
 29106  1  0  0  0
 33 34  1  0  0  0
 33 66  1  0  0  0
 33 70  2  0  0  0
 34 36  1  0  0  0
 34 59  1  0  0  0
 34107  1  0  0  0
 35 44  2  0  0  0
 35 45  1  0  0  0
 35 68  1  0  0  0
 36 56  1  0  0  0
 36108  1  0  0  0
 37 39  1  0  0  0
 37 47  1  0  0  0
 37 66  1  0  0  0
 37109  1  0  0  0
 38 43  2  0  0  0
 38 46  1  0  0  0
 38 47  1  0  0  0
 39 64  1  0  0  0
 39 67  2  0  0  0
 40 52  1  0  0  0
 40 53  2  0  0  0
 40 58  1  0  0  0
 41110  1  0  0  0
 41111  1  0  0  0
 41112  1  0  0  0
 41 48  1  0  0  0
 42 43  1  0  0  0
 42 66  1  0  0  0
 42113  1  0  0  0
 42114  1  0  0  0
 43 44  1  0  0  0
 44115  1  0  0  0
 45 46  2  0  0  0
 45116  1  0  0  0
 46117  1  0  0  0
 47118  1  0  0  0
 47119  1  0  0  0
 48 56  1  0  0  0
 48 65  1  0  0  0
 48120  1  0  0  0
 49 50  1  0  0  0
 49 53  1  0  0  0
 49 64  1  0  0  0
 49121  1  0  0  0
 50 51  1  0  0  0
 50122  1  0  0  0
 50123  1  0  0  0
 51 52  1  0  0  0
 51124  1  0  0  0
 51125  1  0  0  0
 52126  1  0  0  0
 52127  1  0  0  0
 53 54  1  0  0  0
 54 55  2  0  0  0
 54128  1  0  0  0
 55 57  1  0  0  0
 55129  1  0  0  0
 56 69  2  0  0  0
 57 58  2  0  0  0
 57130  1  0  0  0
 58131  1  0  0  0
 59 60  1  0  0  0
 59 61  1  0  0  0
 59 62  1  0  0  0
 60132  1  0  0  0
 60133  1  0  0  0
 60134  1  0  0  0
 61135  1  0  0  0
 61136  1  0  0  0
 61137  1  0  0  0
 62138  1  0  0  0
 62139  1  0  0  0
 62140  1  0  0  0
 63 65  1  0  0  0
 63141  1  0  0  0
 63142  1  0  0  0
 63143  1  0  0  0
 64144  1  0  0  0
 65145  1  0  0  0
 68 82  1  0  0  0
 71 72  2  0  0  0
 71 73  1  0  0  0
 71146  1  0  0  0
 72 75  1  0  0  0
 72147  1  0  0  0
 73 76  2  0  0  0
 73148  1  0  0  0
 74 75  2  0  0  0
 74 76  1  0  0  0
 74149  1  0  0  0
 75 81  1  0  0  0
 76 84  1  0  0  0
 77 78  2  0  0  0
 77 79  1  0  0  0
 77150  1  0  0  0
 78 80  1  0  0  0
 78 82  1  0  0  0
 79 83  1  0  0  0
 79 85  2  0  0  0
 80 83  1  0  0  0
 80 86  2  0  0  0
 81 83  1  0  0  0
 81151  1  0  0  0
 81152  1  0  0  0
 82153  1  0  0  0
 82154  1  0  0  0
 84155  1  0  0  0
M  ISO  4   1 100  68 101  82 101  84 100
M  END
> <chiral flag>
0

> <version>
0

> <s_m_source_file>
/data/baiqing/PycharmProjects/Reinvent-master-3.2/result/LINK_invent/BTK/process_docking_weight1_custom_product_contain_oxygen_bond_distance_aromatic_linkinvent_7_9_3/rearranged_h_0064.sdf

> <i_m_source_file_index>
5

> <r_mmod_Potential_Energy-OPLS-2005>
-67.9978332519531

> <r_mmod_Stretch_Energy-OPLS-2005>
53.5177764892578

> <r_mmod_Bend_Energy-OPLS-2005>
164.372299194336

> <r_mmod_Torsional_Energy-OPLS-2005>
226.146438598633

> <r_mmod_Improper_Torsional_Energy-OPLS-2005>
8.57320404052734

> <r_mmod_Van_der_Waal_Energy-OPLS-2005>
148.638778686523

> <r_mmod_Electrostatic_Energy-OPLS-2005>
-451.820922851562

> <r_mmod_Solvation_Energy-OPLS-2005>
-242.753341674805

> <b_mmod_Minimization_Converged-OPLS-2005>
0

> <r_mmod_RMS_Derivative-OPLS-2005>
0.464680075645447

$$$$
5
                    3D
 Structure written by MMmdl.
161170  0  0  1  0            999 V2000
  -30.7181  -14.5227   20.5646 C   0  0  0  0  0  0
  -30.4217  -12.3406   19.4336 C   0  0  0  0  0  0
  -29.4954  -12.5030   18.2115 C   0  0  0  0  0  0
  -28.0192  -12.3546   18.6273 C   0  0  0  0  0  0
  -27.6565  -13.2160   19.8668 C   0  0  2  0  0  0
  -28.7023  -13.0503   20.9934 C   0  0  0  0  0  0
  -25.2569  -13.8177   20.5687 C   0  0  0  0  0  0
  -24.1833  -13.0443   20.9192 C   0  0  0  0  0  0
  -24.6401  -11.6913   20.8744 C   0  0  0  0  0  0
  -23.9068  -10.4294   21.0406 C   0  0  0  0  0  0
  -24.3619   -9.4208   21.9183 C   0  0  0  0  0  0
  -23.6295   -8.2243   22.0753 C   0  0  0  0  0  0
  -22.4277   -8.0281   21.3544 C   0  0  0  0  0  0
  -21.9911   -9.0256   20.4647 C   0  0  0  0  0  0
  -22.7240  -10.2135   20.3056 C   0  0  0  0  0  0
  -21.6853   -6.0736   22.5280 C   0  0  0  0  0  0
  -21.4013   -6.5640   23.8214 C   0  0  0  0  0  0
  -21.3658   -5.6793   24.9176 C   0  0  0  0  0  0
  -21.6044   -4.3055   24.7226 C   0  0  0  0  0  0
  -21.8819   -3.8147   23.4348 C   0  0  0  0  0  0
  -21.9193   -4.6964   22.3405 C   0  0  0  0  0  0
  -22.7856  -13.5234   21.1852 C   0  0  0  0  0  0
  -22.1662   -4.2150   21.0982 F   0  0  0  0  0  0
  -21.5628   -3.4538   25.7738 F   0  0  0  0  0  0
  -30.0263  -13.3541   20.4279 N   0  0  0  0  0  0
  -26.3007  -12.9363   20.3347 N   0  0  0  0  0  0
  -25.9332  -11.6516   20.5773 N   0  0  0  0  0  0
  -22.0493  -12.8225   22.0405 N   0  0  0  0  0  0
  -25.4281  -15.1896   20.4087 N   0  0  0  0  0  0
  -31.8615  -14.6555   20.1205 O   0  0  0  0  0  0
  -21.6640   -6.8879   21.4241 O   0  0  0  0  0  0
  -22.3545  -14.5542   20.6704 O   0  0  0  0  0  0
  -24.6228  -31.8670   23.2139 C   0  0  0  0  0  0
  -25.9104  -32.4814   23.8427 C   0  0  1  0  0  0
  -27.2068  -27.3608   20.0841 C   0  0  0  0  0  0
  -25.5946  -33.8616   24.2344 N   0  0  0  0  0  0
  -23.4115  -30.5003   21.5572 C   0  0  2  0  0  0
  -24.8514  -28.9789   20.1106 C   0  0  0  0  0  0
  -22.7453  -29.4669   22.4965 C   0  0  0  0  0  0
  -18.0285  -28.1381   22.8488 C   0  0  0  0  0  0
  -24.1492  -36.7308   23.2635 C   0  0  0  0  0  0
  -25.9548  -30.8046   21.3879 C   0  0  0  0  0  0
  -26.0223  -29.4397   20.7254 C   0  0  0  0  0  0
  -27.1991  -28.6359   20.7214 C   0  0  0  0  0  0
  -26.0128  -26.9794   19.4132 C   0  0  0  0  0  0
  -24.8458  -27.7488   19.4518 C   0  0  0  0  0  0
  -23.6215  -29.8543   20.1668 C   0  0  0  0  0  0
  -25.4112  -36.3104   24.0337 C   0  0  1  0  0  0
  -20.5883  -28.3681   23.1288 C   0  0  2  0  0  0
  -20.6777  -26.9411   22.5403 C   0  0  0  0  0  0
  -19.5751  -26.6385   21.5207 C   0  0  0  0  0  0
  -18.1931  -26.7925   22.1622 C   0  0  0  0  0  0
  -19.1535  -28.8847   23.2886 C   0  0  0  0  0  0
  -18.9458  -30.1449   23.8900 C   0  0  0  0  0  0
  -17.6459  -30.6585   24.0562 C   0  0  0  0  0  0
  -25.9046  -34.9468   23.5128 C   0  0  0  0  0  0
  -16.5349  -29.9083   23.6329 C   0  0  0  0  0  0
  -16.7272  -28.6500   23.0349 C   0  0  0  0  0  0
  -26.4499  -31.6598   25.0771 C   0  0  0  0  0  0
  -25.3743  -31.3731   26.1505 C   0  0  0  0  0  0
  -27.0327  -30.3019   24.6208 C   0  0  0  0  0  0
  -27.6073  -32.4319   25.7530 C   0  0  0  0  0  0
  -27.5579  -37.1816   24.8468 C   0  0  0  0  0  0
  -21.4174  -29.3050   22.3696 N   0  0  0  0  0  0
  -26.4297  -37.3787   23.9403 N   0  0  0  0  0  0
  -24.6816  -31.0721   22.1088 N   0  0  0  0  0  0
  -23.4202  -28.8176   23.2998 O   0  0  0  0  0  0
  -28.3176  -26.5009   20.1395 O   0  0  0  0  0  0
  -26.5593  -34.8917   22.4680 O   0  0  0  0  0  0
  -23.5403  -32.1462   23.7484 O   0  0  0  0  0  0
  -31.8351  -17.0779   21.8832 C   0  0  0  0  0  0
  -32.2770  -18.3431   22.3071 C   0  0  0  0  0  0
  -29.7203  -18.0694   21.2232 C   0  0  0  0  0  0
  -30.1517  -19.3734   21.6347 C   0  0  0  0  0  0
  -30.5366  -16.9083   21.3561 C   0  0  0  0  0  0
  -31.4450  -19.4799   22.2328 C   0  0  0  0  0  0
  -28.4105  -22.8106   20.8013 C   0  0  0  0  0  0
  -29.1686  -20.5048   21.5257 C   0  0  0  0  0  0
  -30.4319  -23.7497   19.9653 C   0  0  0  0  0  0
  -30.6362  -22.2441   20.3087 C   0  0  0  0  0  0
  -28.9246  -23.8476   19.7953 C   0  0  2  0  0  0
  -28.1190  -25.1762   19.5433 C   0  0  0  0  0  0
  -29.3928  -21.7525   20.9670 N   0  0  0  0  0  0
  -31.9432  -20.6421   22.8320 N   0  0  0  0  0  0
  -30.0285  -15.5925   21.0383 N   0  0  0  0  0  0
  -27.9522  -20.2289   22.0161 N   0  3  0  0  0  0
  -27.2863  -22.8100   21.3163 O   0  0  0  0  0  0
  -31.4656  -12.4335   19.1295 H   0  0  0  0  0  0
  -30.3258  -11.3402   19.8589 H   0  0  0  0  0  0
  -29.7443  -11.7644   17.4481 H   0  0  0  0  0  0
  -29.6536  -13.4811   17.7540 H   0  0  0  0  0  0
  -27.8432  -11.3007   18.8457 H   0  0  0  0  0  0
  -27.3649  -12.6028   17.7909 H   0  0  0  0  0  0
  -27.6837  -14.2557   19.5399 H   0  0  0  0  0  0
  -28.6911  -12.0293   21.3778 H   0  0  0  0  0  0
  -28.4619  -13.6892   21.8445 H   0  0  0  0  0  0
  -25.2766   -9.5684   22.4756 H   0  0  0  0  0  0
  -24.0006   -7.4633   22.7470 H   0  0  0  0  0  0
  -21.0842   -8.8774   19.8954 H   0  0  0  0  0  0
  -22.3699  -10.9673   19.6165 H   0  0  0  0  0  0
  -21.2003   -7.6148   23.9718 H   0  0  0  0  0  0
  -21.1481   -6.0522   25.9080 H   0  0  0  0  0  0
  -22.0597   -2.7609   23.2847 H   0  0  0  0  0  0
  -22.4106  -11.9885   22.4794 H   0  0  0  0  0  0
  -21.1113  -13.1253   22.2609 H   0  0  0  0  0  0
  -24.6571  -15.8413   20.5065 H   0  0  0  0  0  0
  -26.2711  -15.6253   20.0572 H   0  0  0  0  0  0
  -26.7168  -32.5494   23.1175 H   0  0  0  0  0  0
  -25.0124  -33.9780   25.0507 H   0  0  0  0  0  0
  -22.7034  -31.3213   21.4266 H   0  0  0  0  0  0
  -23.3743  -35.9654   23.3327 H   0  0  0  0  0  0
  -24.3584  -36.8886   22.2043 H   0  0  0  0  0  0
  -23.7258  -37.6530   23.6626 H   0  0  0  0  0  0
  -26.0895  -31.5719   20.6242 H   0  0  0  0  0  0
  -26.8357  -30.8443   22.0169 H   0  0  0  0  0  0
  -28.0905  -28.9790   21.2279 H   0  0  0  0  0  0
  -25.9131  -26.0782   18.8302 H   0  0  0  0  0  0
  -23.9553  -27.3992   18.9473 H   0  0  0  0  0  0
  -23.7394  -30.6400   19.4195 H   0  0  0  0  0  0
  -22.7406  -29.2872   19.8597 H   0  0  0  0  0  0
  -25.1286  -36.1975   25.0830 H   0  0  0  0  0  0
  -20.9976  -28.3246   24.1408 H   0  0  0  0  0  0
  -20.5684  -26.2289   23.3595 H   0  0  0  0  0  0
  -21.6645  -26.7449   22.1189 H   0  0  0  0  0  0
  -19.6913  -25.6298   21.1232 H   0  0  0  0  0  0
  -19.6687  -27.3197   20.6739 H   0  0  0  0  0  0
  -17.4199  -26.6671   21.4026 H   0  0  0  0  0  0
  -18.0335  -26.0065   22.9016 H   0  0  0  0  0  0
  -19.7935  -30.7264   24.2269 H   0  0  0  0  0  0
  -17.5015  -31.6267   24.5159 H   0  0  0  0  0  0
  -15.5349  -30.2982   23.7657 H   0  0  0  0  0  0
  -15.8672  -28.0821   22.7059 H   0  0  0  0  0  0
  -24.5927  -30.7061   25.7848 H   0  0  0  0  0  0
  -24.8924  -32.2892   26.4925 H   0  0  0  0  0  0
  -25.8082  -30.8925   27.0282 H   0  0  0  0  0  0
  -26.2896  -29.6785   24.1221 H   0  0  0  0  0  0
  -27.4009  -29.7255   25.4706 H   0  0  0  0  0  0
  -27.8782  -30.4298   23.9443 H   0  0  0  0  0  0
  -27.2696  -33.3614   26.2124 H   0  0  0  0  0  0
  -28.3875  -32.6882   25.0349 H   0  0  0  0  0  0
  -28.0752  -31.8432   26.5430 H   0  0  0  0  0  0
  -28.2615  -38.0094   24.7483 H   0  0  0  0  0  0
  -28.1053  -36.2624   24.6331 H   0  0  0  0  0  0
  -27.2296  -37.1509   25.8871 H   0  0  0  0  0  0
  -20.9336  -29.8803   21.6944 H   0  0  0  0  0  0
  -26.0187  -38.2871   24.1380 H   0  0  0  0  0  0
  -32.4990  -16.2367   22.0169 H   0  0  0  0  0  0
  -33.2627  -18.4136   22.7447 H   0  0  0  0  0  0
  -28.7269  -17.9552   20.8120 H   0  0  0  0  0  0
  -30.9572  -24.0245   19.0501 H   0  0  0  0  0  0
  -30.7875  -24.3961   20.7685 H   0  0  0  0  0  0
  -31.5318  -22.1363   20.9117 H   0  0  0  0  0  0
  -30.7970  -21.6680   19.3957 H   0  0  0  0  0  0
  -28.7328  -23.3094   18.8647 H   0  0  0  0  0  0
  -27.1253  -24.8376   19.8261 H   0  0  0  0  0  0
  -28.0954  -25.3375   18.4640 H   0  0  0  0  0  0
  -32.7855  -20.5526   23.3929 H   0  0  0  0  0  0
  -31.2930  -21.2950   23.2569 H   0  0  0  0  0  0
  -29.0435  -15.4389   21.1887 H   0  0  0  0  0  0
  -27.7759  -19.3647   22.5036 H   0  0  0  0  0  0
  -27.2449  -20.9543   21.9995 H   0  0  0  0  0  0
  1 25  1  0  0  0
  1 30  2  0  0  0
  1 85  1  0  0  0
  2  3  1  0  0  0
  2 25  1  0  0  0
  2 88  1  0  0  0
  2 89  1  0  0  0
  3  4  1  0  0  0
  3 90  1  0  0  0
  3 91  1  0  0  0
  4  5  1  0  0  0
  4 92  1  0  0  0
  4 93  1  0  0  0
  5  6  1  0  0  0
  5 26  1  0  0  0
  5 94  1  0  0  0
  6 25  1  0  0  0
  6 95  1  0  0  0
  6 96  1  0  0  0
  7  8  2  0  0  0
  7 26  1  0  0  0
  7 29  1  0  0  0
  8  9  1  0  0  0
  8 22  1  0  0  0
  9 10  1  0  0  0
  9 27  2  0  0  0
 10 11  2  0  0  0
 10 15  1  0  0  0
 11 12  1  0  0  0
 11 97  1  0  0  0
 12 13  2  0  0  0
 12 98  1  0  0  0
 13 14  1  0  0  0
 13 31  1  0  0  0
 14 15  2  0  0  0
 14 99  1  0  0  0
 15100  1  0  0  0
 16 17  2  0  0  0
 16 21  1  0  0  0
 16 31  1  0  0  0
 17 18  1  0  0  0
 17101  1  0  0  0
 18 19  2  0  0  0
 18102  1  0  0  0
 19 20  1  0  0  0
 19 24  1  0  0  0
 20 21  2  0  0  0
 20103  1  0  0  0
 21 23  1  0  0  0
 22 28  1  0  0  0
 22 32  2  0  0  0
 26 27  1  0  0  0
 28104  1  0  0  0
 28105  1  0  0  0
 29106  1  0  0  0
 29107  1  0  0  0
 33 34  1  0  0  0
 33 66  1  0  0  0
 33 70  2  0  0  0
 34 36  1  0  0  0
 34 59  1  0  0  0
 34108  1  0  0  0
 35 44  2  0  0  0
 35 45  1  0  0  0
 35 68  1  0  0  0
 36 56  1  0  0  0
 36109  1  0  0  0
 37 39  1  0  0  0
 37 47  1  0  0  0
 37 66  1  0  0  0
 37110  1  0  0  0
 38 43  2  0  0  0
 38 46  1  0  0  0
 38 47  1  0  0  0
 39 64  1  0  0  0
 39 67  2  0  0  0
 40 52  1  0  0  0
 40 53  2  0  0  0
 40 58  1  0  0  0
 41111  1  0  0  0
 41112  1  0  0  0
 41113  1  0  0  0
 41 48  1  0  0  0
 42 43  1  0  0  0
 42 66  1  0  0  0
 42114  1  0  0  0
 42115  1  0  0  0
 43 44  1  0  0  0
 44116  1  0  0  0
 45 46  2  0  0  0
 45117  1  0  0  0
 46118  1  0  0  0
 47119  1  0  0  0
 47120  1  0  0  0
 48 56  1  0  0  0
 48 65  1  0  0  0
 48121  1  0  0  0
 49 50  1  0  0  0
 49 53  1  0  0  0
 49 64  1  0  0  0
 49122  1  0  0  0
 50 51  1  0  0  0
 50123  1  0  0  0
 50124  1  0  0  0
 51 52  1  0  0  0
 51125  1  0  0  0
 51126  1  0  0  0
 52127  1  0  0  0
 52128  1  0  0  0
 53 54  1  0  0  0
 54 55  2  0  0  0
 54129  1  0  0  0
 55 57  1  0  0  0
 55130  1  0  0  0
 56 69  2  0  0  0
 57 58  2  0  0  0
 57131  1  0  0  0
 58132  1  0  0  0
 59 60  1  0  0  0
 59 61  1  0  0  0
 59 62  1  0  0  0
 60133  1  0  0  0
 60134  1  0  0  0
 60135  1  0  0  0
 61136  1  0  0  0
 61137  1  0  0  0
 61138  1  0  0  0
 62139  1  0  0  0
 62140  1  0  0  0
 62141  1  0  0  0
 63 65  1  0  0  0
 63142  1  0  0  0
 63143  1  0  0  0
 63144  1  0  0  0
 64145  1  0  0  0
 65146  1  0  0  0
 68 82  1  0  0  0
 71 72  2  0  0  0
 71 75  1  0  0  0
 71147  1  0  0  0
 72 76  1  0  0  0
 72148  1  0  0  0
 73 74  1  0  0  0
 73 75  2  0  0  0
 73149  1  0  0  0
 74 76  2  0  0  0
 74 78  1  0  0  0
 75 85  1  0  0  0
 76 84  1  0  0  0
 77 81  1  0  0  0
 77 83  1  0  0  0
 77 87  2  0  0  0
 78 83  1  0  0  0
 78 86  2  0  0  0
 79 80  1  0  0  0
 79 81  1  0  0  0
 79150  1  0  0  0
 79151  1  0  0  0
 80 83  1  0  0  0
 80152  1  0  0  0
 80153  1  0  0  0
 81 82  1  0  0  0
 81154  1  0  0  0
 82155  1  0  0  0
 82156  1  0  0  0
 84157  1  0  0  0
 84158  1  0  0  0
 85159  1  0  0  0
 86160  1  0  0  0
 86161  1  0  0  0
M  CHG  1  86   1
M  ISO  4   1 100  68 101  82 101  85 100
M  END
> <chiral flag>
0

> <version>
0

> <s_m_source_file>
/data/baiqing/PycharmProjects/Reinvent-master-3.2/result/LINK_invent/BTK/process_docking_weight1_custom_product_contain_oxygen_bond_distance_aromatic_linkinvent_7_9_3/rearranged_h_0064.sdf

> <i_m_source_file_index>
6

> <r_mmod_Potential_Energy-OPLS-2005>
7.61946153640747

> <r_mmod_Stretch_Energy-OPLS-2005>
63.0996971130371

> <r_mmod_Bend_Energy-OPLS-2005>
211.743194580078

> <r_mmod_Torsional_Energy-OPLS-2005>
247.896896362305

> <r_mmod_Improper_Torsional_Energy-OPLS-2005>
9.39348888397217

> <r_mmod_Van_der_Waal_Energy-OPLS-2005>
187.565399169922

> <r_mmod_Electrostatic_Energy-OPLS-2005>
-326.591247558594

> <r_mmod_Solvation_Energy-OPLS-2005>
-416.993194580078

> <b_mmod_Minimization_Converged-OPLS-2005>
0

> <r_mmod_RMS_Derivative-OPLS-2005>
0.401656270027161

$$$$
6
                    3D
 Structure written by MMmdl.
168177  0  0  1  0            999 V2000
  -30.7361  -14.4248   20.6250 C   0  0  0  0  0  0
  -30.4168  -12.2994   19.4157 C   0  0  0  0  0  0
  -29.4891  -12.5107   18.2034 C   0  0  0  0  0  0
  -28.0123  -12.3667   18.6183 C   0  0  0  0  0  0
  -27.6621  -13.2052   19.8759 C   0  0  2  0  0  0
  -28.7005  -12.9772   20.9979 C   0  0  0  0  0  0
  -25.2587  -13.8164   20.5665 C   0  0  0  0  0  0
  -24.1839  -13.0445   20.9183 C   0  0  0  0  0  0
  -24.6390  -11.6913   20.8741 C   0  0  0  0  0  0
  -23.9055  -10.4297   21.0411 C   0  0  0  0  0  0
  -24.3612   -9.4214   21.9189 C   0  0  0  0  0  0
  -23.6294   -8.2245   22.0755 C   0  0  0  0  0  0
  -22.4276   -8.0283   21.3545 C   0  0  0  0  0  0
  -21.9910   -9.0255   20.4644 C   0  0  0  0  0  0
  -22.7232  -10.2139   20.3058 C   0  0  0  0  0  0
  -21.6848   -6.0742   22.5283 C   0  0  0  0  0  0
  -21.4009   -6.5645   23.8219 C   0  0  0  0  0  0
  -21.3656   -5.6797   24.9180 C   0  0  0  0  0  0
  -21.6044   -4.3061   24.7229 C   0  0  0  0  0  0
  -21.8818   -3.8154   23.4349 C   0  0  0  0  0  0
  -21.9191   -4.6970   22.3407 C   0  0  0  0  0  0
  -22.7863  -13.5246   21.1849 C   0  0  0  0  0  0
  -22.1660   -4.2160   21.0983 F   0  0  0  0  0  0
  -21.5632   -3.4544   25.7738 F   0  0  0  0  0  0
  -30.0359  -13.2727   20.4515 N   0  0  0  0  0  0
  -26.3017  -12.9328   20.3353 N   0  0  0  0  0  0
  -25.9314  -11.6490   20.5761 N   0  0  0  0  0  0
  -22.0501  -12.8230   22.0402 N   0  0  0  0  0  0
  -25.4315  -15.1871   20.4020 N   0  0  0  0  0  0
  -31.8309  -14.6214   20.0872 O   0  0  0  0  0  0
  -21.6637   -6.8883   21.4243 O   0  0  0  0  0  0
  -22.3549  -14.5552   20.6700 O   0  0  0  0  0  0
  -24.6108  -31.8695   23.2122 C   0  0  0  0  0  0
  -25.9015  -32.4830   23.8405 C   0  0  1  0  0  0
  -27.2344  -27.4591   20.1001 C   0  0  0  0  0  0
  -25.5889  -33.8632   24.2337 N   0  0  0  0  0  0
  -23.3989  -30.4925   21.5505 C   0  0  2  0  0  0
  -24.8485  -28.9614   20.1144 C   0  0  0  0  0  0
  -22.7394  -29.4660   22.4989 C   0  0  0  0  0  0
  -18.0265  -28.1379   22.8490 C   0  0  0  0  0  0
  -24.1485  -36.7322   23.2633 C   0  0  0  0  0  0
  -25.9232  -30.8438   21.3617 C   0  0  0  0  0  0
  -26.0037  -29.4765   20.7179 C   0  0  0  0  0  0
  -27.2007  -28.7284   20.7200 C   0  0  0  0  0  0
  -26.0733  -26.9579   19.4817 C   0  0  0  0  0  0
  -24.8758  -27.6988   19.4951 C   0  0  0  0  0  0
  -23.6081  -29.8245   20.1642 C   0  0  0  0  0  0
  -25.4105  -36.3123   24.0329 C   0  0  1  0  0  0
  -20.5854  -28.3670   23.1321 C   0  0  2  0  0  0
  -20.6759  -26.9410   22.5417 C   0  0  0  0  0  0
  -19.5744  -26.6391   21.5203 C   0  0  0  0  0  0
  -18.1921  -26.7927   22.1614 C   0  0  0  0  0  0
  -19.1514  -28.8836   23.2906 C   0  0  0  0  0  0
  -18.9449  -30.1439   23.8927 C   0  0  0  0  0  0
  -17.6456  -30.6592   24.0565 C   0  0  0  0  0  0
  -25.9030  -34.9484   23.5131 C   0  0  0  0  0  0
  -16.5347  -29.9100   23.6312 C   0  0  0  0  0  0
  -16.7256  -28.6507   23.0351 C   0  0  0  0  0  0
  -26.4470  -31.6595   25.0715 C   0  0  0  0  0  0
  -25.3755  -31.3673   26.1472 C   0  0  0  0  0  0
  -27.0300  -30.3048   24.6048 C   0  0  0  0  0  0
  -27.6043  -32.4309   25.7484 C   0  0  0  0  0  0
  -27.5586  -37.1816   24.8459 C   0  0  0  0  0  0
  -21.4122  -29.3042   22.3733 N   0  0  0  0  0  0
  -26.4295  -37.3808   23.9408 N   0  0  0  0  0  0
  -24.6624  -31.0819   22.1012 N   0  0  0  0  0  0
  -23.4180  -28.8194   23.3014 O   0  0  0  0  0  0
  -28.3658  -26.6849   20.0685 O   0  0  0  0  0  0
  -26.5593  -34.8926   22.4694 O   0  0  0  0  0  0
  -23.5307  -32.1433   23.7532 O   0  0  0  0  0  0
  -32.4053  -18.2285   22.1642 C   0  0  0  0  0  0
  -31.6337  -19.3282   21.7567 C   0  0  0  0  0  0
  -31.8938  -16.9278   22.0386 C   0  0  0  0  0  0
  -29.7818  -17.8304   21.1784 C   0  0  0  0  0  0
  -30.3255  -19.1517   21.2480 C   0  0  0  0  0  0
  -30.5974  -16.7149   21.5204 C   0  0  0  0  0  0
  -29.2363  -20.5271   19.5140 C   0  0  0  0  0  0
  -29.6737  -25.0356   21.2418 C   0  0  0  0  0  0
  -29.6106  -21.5855   21.5342 C   0  0  0  0  0  0
  -29.5856  -22.6703   20.4448 C   0  0  1  0  0  0
  -28.8523  -21.9936   19.2706 C   0  0  0  0  0  0
  -28.3446  -17.5867   20.7291 C   0  0  0  0  0  0
  -29.3723  -22.5162   17.9149 C   0  0  0  0  0  0
  -27.3126  -22.1374   19.3301 C   0  0  0  0  0  0
  -28.8948  -26.3535   21.3520 C   0  0  0  0  0  0
  -29.6308  -20.3204   20.7881 N   0  0  0  0  0  0
  -30.1242  -15.3803   21.3507 N   0  0  0  0  0  0
  -28.9897  -23.9510   20.8455 N   0  0  0  0  0  0
  -29.1786  -19.6795   18.6162 O   0  0  0  0  0  0
  -30.8827  -25.0057   21.4840 O   0  0  0  0  0  0
  -31.4610  -12.3932   19.1118 H   0  0  0  0  0  0
  -30.3136  -11.2853   19.8043 H   0  0  0  0  0  0
  -29.7298  -11.7918   17.4189 H   0  0  0  0  0  0
  -29.6561  -13.5004   17.7749 H   0  0  0  0  0  0
  -27.8260  -11.3100   18.8134 H   0  0  0  0  0  0
  -27.3577  -12.6402   17.7900 H   0  0  0  0  0  0
  -27.7111  -14.2540   19.5815 H   0  0  0  0  0  0
  -28.6719  -11.9409   21.3356 H   0  0  0  0  0  0
  -28.4549  -13.5717   21.8782 H   0  0  0  0  0  0
  -25.2760   -9.5694   22.4764 H   0  0  0  0  0  0
  -24.0010   -7.4637   22.7468 H   0  0  0  0  0  0
  -21.0849   -8.8766   19.8944 H   0  0  0  0  0  0
  -22.3693  -10.9677   19.6170 H   0  0  0  0  0  0
  -21.1998   -7.6156   23.9726 H   0  0  0  0  0  0
  -21.1479   -6.0527   25.9084 H   0  0  0  0  0  0
  -22.0601   -2.7618   23.2845 H   0  0  0  0  0  0
  -22.4100  -11.9879   22.4774 H   0  0  0  0  0  0
  -21.1120  -13.1256   22.2608 H   0  0  0  0  0  0
  -24.6624  -15.8415   20.4940 H   0  0  0  0  0  0
  -26.2742  -15.6142   20.0411 H   0  0  0  0  0  0
  -26.7091  -32.5564   23.1178 H   0  0  0  0  0  0
  -25.0062  -33.9796   25.0500 H   0  0  0  0  0  0
  -22.6868  -31.3084   21.4108 H   0  0  0  0  0  0
  -23.3749  -35.9658   23.3293 H   0  0  0  0  0  0
  -24.3588  -36.8945   22.2052 H   0  0  0  0  0  0
  -23.7235  -37.6521   23.6657 H   0  0  0  0  0  0
  -26.0248  -31.6068   20.5891 H   0  0  0  0  0  0
  -26.8146  -30.9055   21.9741 H   0  0  0  0  0  0
  -28.0924  -29.1255   21.1848 H   0  0  0  0  0  0
  -26.0939  -25.9902   19.0000 H   0  0  0  0  0  0
  -23.9887  -27.2981   19.0233 H   0  0  0  0  0  0
  -23.7128  -30.5995   19.4040 H   0  0  0  0  0  0
  -22.7337  -29.2419   19.8690 H   0  0  0  0  0  0
  -25.1276  -36.1996   25.0823 H   0  0  0  0  0  0
  -20.9943  -28.3240   24.1438 H   0  0  0  0  0  0
  -20.5660  -26.2277   23.3600 H   0  0  0  0  0  0
  -21.6633  -26.7457   22.1218 H   0  0  0  0  0  0
  -19.6913  -25.6305   21.1231 H   0  0  0  0  0  0
  -19.6682  -27.3195   20.6731 H   0  0  0  0  0  0
  -17.4188  -26.6670   21.4025 H   0  0  0  0  0  0
  -18.0327  -26.0069   22.9005 H   0  0  0  0  0  0
  -19.7927  -30.7237   24.2330 H   0  0  0  0  0  0
  -17.5016  -31.6275   24.5168 H   0  0  0  0  0  0
  -15.5353  -30.3025   23.7614 H   0  0  0  0  0  0
  -15.8652  -28.0836   22.7071 H   0  0  0  0  0  0
  -24.5937  -30.7009   25.7808 H   0  0  0  0  0  0
  -24.8943  -32.2814   26.4949 H   0  0  0  0  0  0
  -25.8136  -30.8830   27.0205 H   0  0  0  0  0  0
  -26.2825  -29.6813   24.1128 H   0  0  0  0  0  0
  -27.4111  -29.7278   25.4482 H   0  0  0  0  0  0
  -27.8640  -30.4375   23.9155 H   0  0  0  0  0  0
  -27.2659  -33.3594   26.2093 H   0  0  0  0  0  0
  -28.3852  -32.6889   25.0319 H   0  0  0  0  0  0
  -28.0711  -31.8410   26.5381 H   0  0  0  0  0  0
  -28.2589  -38.0131   24.7553 H   0  0  0  0  0  0
  -28.1096  -36.2667   24.6233 H   0  0  0  0  0  0
  -27.2307  -37.1407   25.8862 H   0  0  0  0  0  0
  -20.9280  -29.8781   21.6970 H   0  0  0  0  0  0
  -26.0179  -38.2877   24.1445 H   0  0  0  0  0  0
  -33.4051  -18.3798   22.5474 H   0  0  0  0  0  0
  -32.0805  -20.3101   21.8128 H   0  0  0  0  0  0
  -32.5150  -16.0907   22.3290 H   0  0  0  0  0  0
  -28.7018  -21.6116   22.1368 H   0  0  0  0  0  0
  -30.4512  -21.7187   22.2144 H   0  0  0  0  0  0
  -30.6214  -22.8414   20.1391 H   0  0  0  0  0  0
  -27.7147  -18.4633   20.8755 H   0  0  0  0  0  0
  -27.8827  -16.7813   21.2994 H   0  0  0  0  0  0
  -28.3198  -17.3155   19.6738 H   0  0  0  0  0  0
  -30.4283  -22.2829   17.7711 H   0  0  0  0  0  0
  -29.2635  -23.5987   17.8448 H   0  0  0  0  0  0
  -28.8248  -22.0755   17.0811 H   0  0  0  0  0  0
  -26.9121  -21.8292   20.2967 H   0  0  0  0  0  0
  -26.8313  -21.5195   18.5707 H   0  0  0  0  0  0
  -26.9939  -23.1642   19.1525 H   0  0  0  0  0  0
  -29.5530  -27.1496   21.7024 H   0  0  0  0  0  0
  -28.1036  -26.2283   22.0943 H   0  0  0  0  0  0
  -29.1821  -15.1782   21.6452 H   0  0  0  0  0  0
  -28.0038  -24.0798   20.6640 H   0  0  0  0  0  0
  1 25  1  0  0  0
  1 30  2  0  0  0
  1 87  1  0  0  0
  2  3  1  0  0  0
  2 25  1  0  0  0
  2 91  1  0  0  0
  2 92  1  0  0  0
  3  4  1  0  0  0
  3 93  1  0  0  0
  3 94  1  0  0  0
  4  5  1  0  0  0
  4 95  1  0  0  0
  4 96  1  0  0  0
  5  6  1  0  0  0
  5 26  1  0  0  0
  5 97  1  0  0  0
  6 25  1  0  0  0
  6 98  1  0  0  0
  6 99  1  0  0  0
  7  8  2  0  0  0
  7 26  1  0  0  0
  7 29  1  0  0  0
  8  9  1  0  0  0
  8 22  1  0  0  0
  9 10  1  0  0  0
  9 27  2  0  0  0
 10 11  2  0  0  0
 10 15  1  0  0  0
 11 12  1  0  0  0
 11100  1  0  0  0
 12 13  2  0  0  0
 12101  1  0  0  0
 13 14  1  0  0  0
 13 31  1  0  0  0
 14 15  2  0  0  0
 14102  1  0  0  0
 15103  1  0  0  0
 16 17  2  0  0  0
 16 21  1  0  0  0
 16 31  1  0  0  0
 17 18  1  0  0  0
 17104  1  0  0  0
 18 19  2  0  0  0
 18105  1  0  0  0
 19 20  1  0  0  0
 19 24  1  0  0  0
 20 21  2  0  0  0
 20106  1  0  0  0
 21 23  1  0  0  0
 22 28  1  0  0  0
 22 32  2  0  0  0
 26 27  1  0  0  0
 28107  1  0  0  0
 28108  1  0  0  0
 29109  1  0  0  0
 29110  1  0  0  0
 33 34  1  0  0  0
 33 66  1  0  0  0
 33 70  2  0  0  0
 34 36  1  0  0  0
 34 59  1  0  0  0
 34111  1  0  0  0
 35 44  2  0  0  0
 35 45  1  0  0  0
 35 68  1  0  0  0
 36 56  1  0  0  0
 36112  1  0  0  0
 37 39  1  0  0  0
 37 47  1  0  0  0
 37 66  1  0  0  0
 37113  1  0  0  0
 38 43  2  0  0  0
 38 46  1  0  0  0
 38 47  1  0  0  0
 39 64  1  0  0  0
 39 67  2  0  0  0
 40 52  1  0  0  0
 40 53  2  0  0  0
 40 58  1  0  0  0
 41114  1  0  0  0
 41115  1  0  0  0
 41116  1  0  0  0
 41 48  1  0  0  0
 42 43  1  0  0  0
 42 66  1  0  0  0
 42117  1  0  0  0
 42118  1  0  0  0
 43 44  1  0  0  0
 44119  1  0  0  0
 45 46  2  0  0  0
 45120  1  0  0  0
 46121  1  0  0  0
 47122  1  0  0  0
 47123  1  0  0  0
 48 56  1  0  0  0
 48 65  1  0  0  0
 48124  1  0  0  0
 49 50  1  0  0  0
 49 53  1  0  0  0
 49 64  1  0  0  0
 49125  1  0  0  0
 50 51  1  0  0  0
 50126  1  0  0  0
 50127  1  0  0  0
 51 52  1  0  0  0
 51128  1  0  0  0
 51129  1  0  0  0
 52130  1  0  0  0
 52131  1  0  0  0
 53 54  1  0  0  0
 54 55  2  0  0  0
 54132  1  0  0  0
 55 57  1  0  0  0
 55133  1  0  0  0
 56 69  2  0  0  0
 57 58  2  0  0  0
 57134  1  0  0  0
 58135  1  0  0  0
 59 60  1  0  0  0
 59 61  1  0  0  0
 59 62  1  0  0  0
 60136  1  0  0  0
 60137  1  0  0  0
 60138  1  0  0  0
 61139  1  0  0  0
 61140  1  0  0  0
 61141  1  0  0  0
 62142  1  0  0  0
 62143  1  0  0  0
 62144  1  0  0  0
 63 65  1  0  0  0
 63145  1  0  0  0
 63146  1  0  0  0
 63147  1  0  0  0
 64148  1  0  0  0
 65149  1  0  0  0
 68 85  1  0  0  0
 71 72  2  0  0  0
 71 73  1  0  0  0
 71150  1  0  0  0
 72 75  1  0  0  0
 72151  1  0  0  0
 73 76  2  0  0  0
 73152  1  0  0  0
 74 75  2  0  0  0
 74 76  1  0  0  0
 74 82  1  0  0  0
 75 86  1  0  0  0
 76 87  1  0  0  0
 77 81  1  0  0  0
 77 86  1  0  0  0
 77 89  2  0  0  0
 78 85  1  0  0  0
 78 88  1  0  0  0
 78 90  2  0  0  0
 79 80  1  0  0  0
 79 86  1  0  0  0
 79153  1  0  0  0
 79154  1  0  0  0
 80 81  1  0  0  0
 80 88  1  0  0  0
 80155  1  0  0  0
 81 83  1  0  0  0
 81 84  1  0  0  0
 82156  1  0  0  0
 82157  1  0  0  0
 82158  1  0  0  0
 83159  1  0  0  0
 83160  1  0  0  0
 83161  1  0  0  0
 84162  1  0  0  0
 84163  1  0  0  0
 84164  1  0  0  0
 85165  1  0  0  0
 85166  1  0  0  0
 87167  1  0  0  0
 88168  1  0  0  0
M  ISO  4   1 100  68 101  85 101  87 100
M  END
> <chiral flag>
0

> <version>
0

> <s_m_source_file>
/data/baiqing/PycharmProjects/Reinvent-master-3.2/result/LINK_invent/BTK/process_docking_weight1_custom_product_contain_oxygen_bond_distance_aromatic_linkinvent_7_9_3/rearranged_h_0064.sdf

> <i_m_source_file_index>
7

> <r_mmod_Potential_Energy-OPLS-2005>
13.5630254745483

> <r_mmod_Stretch_Energy-OPLS-2005>
38.5140800476074

> <r_mmod_Bend_Energy-OPLS-2005>
123.650695800781

> <r_mmod_Torsional_Energy-OPLS-2005>
322.673004150391

> <r_mmod_Improper_Torsional_Energy-OPLS-2005>
3.82216119766235

> <r_mmod_Van_der_Waal_Energy-OPLS-2005>
151.672714233398

> <r_mmod_Electrostatic_Energy-OPLS-2005>
-396.507659912109

> <r_mmod_Solvation_Energy-OPLS-2005>
-238.980346679688

> <b_mmod_Minimization_Converged-OPLS-2005>
0

> <r_mmod_RMS_Derivative-OPLS-2005>
1.15416157245636

$$$$
7
                    3D
 Structure written by MMmdl.
151159  0  0  1  0            999 V2000
  -30.6220  -14.5877   20.5129 C   0  0  0  0  0  0
  -30.4379  -12.3556   19.4521 C   0  0  0  0  0  0
  -29.5090  -12.5012   18.2247 C   0  0  0  0  0  0
  -28.0306  -12.3478   18.6337 C   0  0  0  0  0  0
  -27.6595  -13.2083   19.8713 C   0  0  2  0  0  0
  -28.6990  -13.0269   21.0004 C   0  0  0  0  0  0
  -25.2588  -13.8162   20.5665 C   0  0  0  0  0  0
  -24.1833  -13.0440   20.9148 C   0  0  0  0  0  0
  -24.6379  -11.6907   20.8708 C   0  0  0  0  0  0
  -23.9036  -10.4299   21.0401 C   0  0  0  0  0  0
  -24.3599   -9.4219   21.9178 C   0  0  0  0  0  0
  -23.6278   -8.2259   22.0757 C   0  0  0  0  0  0
  -22.4266   -8.0287   21.3547 C   0  0  0  0  0  0
  -21.9889   -9.0258   20.4648 C   0  0  0  0  0  0
  -22.7209  -10.2143   20.3052 C   0  0  0  0  0  0
  -21.6855   -6.0725   22.5270 C   0  0  0  0  0  0
  -21.4017   -6.5629   23.8204 C   0  0  0  0  0  0
  -21.3662   -5.6783   24.9166 C   0  0  0  0  0  0
  -21.6055   -4.3046   24.7220 C   0  0  0  0  0  0
  -21.8821   -3.8134   23.4338 C   0  0  0  0  0  0
  -21.9201   -4.6951   22.3394 C   0  0  0  0  0  0
  -22.7864  -13.5254   21.1829 C   0  0  0  0  0  0
  -22.1668   -4.2139   21.0970 F   0  0  0  0  0  0
  -21.5632   -3.4529   25.7729 F   0  0  0  0  0  0
  -30.0224  -13.3600   20.4502 N   0  0  0  0  0  0
  -26.3012  -12.9329   20.3331 N   0  0  0  0  0  0
  -25.9311  -11.6492   20.5753 N   0  0  0  0  0  0
  -22.0500  -12.8262   22.0392 N   0  0  0  0  0  0
  -25.4322  -15.1881   20.4104 N   0  0  0  0  0  0
  -31.7614  -14.7783   20.0779 O   0  0  0  0  0  0
  -21.6643   -6.8879   21.4236 O   0  0  0  0  0  0
  -22.3566  -14.5576   20.6690 O   0  0  0  0  0  0
  -24.6214  -31.8632   23.2037 C   0  0  0  0  0  0
  -25.9076  -32.4800   23.8353 C   0  0  1  0  0  0
  -27.2257  -27.3620   20.1171 C   0  0  0  0  0  0
  -25.5914  -33.8591   24.2297 N   0  0  0  0  0  0
  -23.4132  -30.4848   21.5455 C   0  0  2  0  0  0
  -24.8604  -28.9412   20.1131 C   0  0  0  0  0  0
  -22.7452  -29.4634   22.4956 C   0  0  0  0  0  0
  -18.0282  -28.1379   22.8487 C   0  0  0  0  0  0
  -24.1486  -36.7301   23.2638 C   0  0  0  0  0  0
  -25.9481  -30.8087   21.3660 C   0  0  0  0  0  0
  -26.0255  -29.4374   20.7118 C   0  0  0  0  0  0
  -27.2152  -28.6596   20.7003 C   0  0  0  0  0  0
  -26.0437  -26.8999   19.5011 C   0  0  0  0  0  0
  -24.8684  -27.6763   19.4998 C   0  0  0  0  0  0
  -23.6259  -29.8158   20.1616 C   0  0  0  0  0  0
  -25.4107  -36.3089   24.0333 C   0  0  1  0  0  0
  -20.5876  -28.3676   23.1301 C   0  0  2  0  0  0
  -20.6772  -26.9406   22.5414 C   0  0  0  0  0  0
  -19.5747  -26.6385   21.5208 C   0  0  0  0  0  0
  -18.1930  -26.7923   22.1624 C   0  0  0  0  0  0
  -19.1528  -28.8840   23.2897 C   0  0  0  0  0  0
  -18.9457  -30.1445   23.8908 C   0  0  0  0  0  0
  -17.6452  -30.6583   24.0557 C   0  0  0  0  0  0
  -25.9039  -34.9457   23.5113 C   0  0  0  0  0  0
  -16.5348  -29.9081   23.6316 C   0  0  0  0  0  0
  -16.7268  -28.6497   23.0348 C   0  0  0  0  0  0
  -26.4476  -31.6595   25.0709 C   0  0  0  0  0  0
  -25.3721  -31.3733   26.1453 C   0  0  0  0  0  0
  -27.0301  -30.3018   24.6121 C   0  0  0  0  0  0
  -27.6049  -32.4319   25.7483 C   0  0  0  0  0  0
  -27.5578  -37.1806   24.8464 C   0  0  0  0  0  0
  -21.4167  -29.3039   22.3699 N   0  0  0  0  0  0
  -26.4292  -37.3777   23.9402 N   0  0  0  0  0  0
  -24.6793  -31.0680   22.0968 N   0  0  0  0  0  0
  -23.4187  -28.8174   23.3022 O   0  0  0  0  0  0
  -28.3606  -26.5581   20.1260 O   0  0  0  0  0  0
  -26.5609  -34.8922   22.4675 O   0  0  0  0  0  0
  -23.5394  -32.1409   23.7401 O   0  0  0  0  0  0
  -30.4016  -17.5643   19.4805 C   0  0  0  0  0  0
  -30.1488  -18.9037   19.0755 C   0  0  0  0  0  0
  -28.8773  -17.8670   21.3299 C   0  0  0  0  0  0
  -29.7459  -17.0023   20.6052 C   0  0  0  0  0  0
  -28.6225  -19.2116   20.9272 C   0  0  0  0  0  0
  -29.2408  -19.7444   19.7706 C   0  0  0  0  0  0
  -28.7142  -24.0815   19.6200 C   0  0  0  0  0  0
  -28.2120  -25.1778   20.6153 C   0  0  0  0  0  0
  -29.8377  -15.5999   20.9851 N   0  0  0  0  0  0
  -28.7632  -22.7215   20.0526 N   0  0  0  0  0  0
  -29.0134  -24.4039   18.4657 O   0  0  0  0  0  0
  -27.3070  -21.1833   18.5640 O   0  0  0  0  0  0
  -29.7046  -21.6063   17.9074 O   0  0  0  0  0  0
  -27.7367  -19.9579   21.6328 F   0  0  0  0  0  0
  -28.7164  -21.3346   18.9668 S   0  0  0  0  0  0
  -31.4830  -12.4693   19.1589 H   0  0  0  0  0  0
  -30.3576  -11.3526   19.8744 H   0  0  0  0  0  0
  -29.7651  -11.7580   17.4679 H   0  0  0  0  0  0
  -29.6614  -13.4757   17.7570 H   0  0  0  0  0  0
  -27.8559  -11.2937   18.8538 H   0  0  0  0  0  0
  -27.3817  -12.5927   17.7923 H   0  0  0  0  0  0
  -27.6896  -14.2487   19.5466 H   0  0  0  0  0  0
  -28.6960  -11.9958   21.3576 H   0  0  0  0  0  0
  -28.4446  -13.6381   21.8682 H   0  0  0  0  0  0
  -25.2750   -9.5709   22.4742 H   0  0  0  0  0  0
  -23.9998   -7.4657   22.7474 H   0  0  0  0  0  0
  -21.0823   -8.8761   19.8951 H   0  0  0  0  0  0
  -22.3655  -10.9675   19.6162 H   0  0  0  0  0  0
  -21.1996   -7.6137   23.9700 H   0  0  0  0  0  0
  -21.1487   -6.0514   25.9070 H   0  0  0  0  0  0
  -22.0595   -2.7590   23.2839 H   0  0  0  0  0  0
  -22.4129  -11.9918   22.4773 H   0  0  0  0  0  0
  -21.1124  -13.1301   22.2630 H   0  0  0  0  0  0
  -24.6610  -15.8398   20.5072 H   0  0  0  0  0  0
  -26.2861  -15.6247   20.0872 H   0  0  0  0  0  0
  -26.7134  -32.5479   23.1104 H   0  0  0  0  0  0
  -25.0059  -33.9728   25.0440 H   0  0  0  0  0  0
  -22.7047  -31.3029   21.4029 H   0  0  0  0  0  0
  -23.3743  -35.9639   23.3308 H   0  0  0  0  0  0
  -24.3582  -36.8910   22.2051 H   0  0  0  0  0  0
  -23.7247  -37.6511   23.6648 H   0  0  0  0  0  0
  -26.0674  -31.5730   20.5969 H   0  0  0  0  0  0
  -26.8331  -30.8633   21.9879 H   0  0  0  0  0  0
  -28.1161  -29.0376   21.1624 H   0  0  0  0  0  0
  -26.0261  -25.9317   19.0211 H   0  0  0  0  0  0
  -23.9748  -27.2932   19.0258 H   0  0  0  0  0  0
  -23.7383  -30.5910   19.4028 H   0  0  0  0  0  0
  -22.7480  -29.2412   19.8630 H   0  0  0  0  0  0
  -25.1280  -36.1946   25.0826 H   0  0  0  0  0  0
  -20.9962  -28.3251   24.1425 H   0  0  0  0  0  0
  -20.5674  -26.2282   23.3612 H   0  0  0  0  0  0
  -21.6644  -26.7443   22.1205 H   0  0  0  0  0  0
  -19.6923  -25.6299   21.1236 H   0  0  0  0  0  0
  -19.6690  -27.3198   20.6742 H   0  0  0  0  0  0
  -17.4199  -26.6666   21.4035 H   0  0  0  0  0  0
  -18.0343  -26.0069   22.9021 H   0  0  0  0  0  0
  -19.7936  -30.7256   24.2295 H   0  0  0  0  0  0
  -17.5011  -31.6267   24.5159 H   0  0  0  0  0  0
  -15.5350  -30.2986   23.7639 H   0  0  0  0  0  0
  -15.8674  -28.0819   22.7059 H   0  0  0  0  0  0
  -24.5887  -30.7085   25.7795 H   0  0  0  0  0  0
  -24.8922  -32.2903   26.4875 H   0  0  0  0  0  0
  -25.8059  -30.8919   27.0223 H   0  0  0  0  0  0
  -26.2861  -29.6799   24.1123 H   0  0  0  0  0  0
  -27.3999  -29.7235   25.4603 H   0  0  0  0  0  0
  -27.8729  -30.4317   23.9322 H   0  0  0  0  0  0
  -27.2654  -33.3602   26.2078 H   0  0  0  0  0  0
  -28.3847  -32.6902   25.0310 H   0  0  0  0  0  0
  -28.0714  -31.8427   26.5383 H   0  0  0  0  0  0
  -28.2600  -38.0099   24.7488 H   0  0  0  0  0  0
  -28.1071  -36.2627   24.6309 H   0  0  0  0  0  0
  -27.2295  -37.1474   25.8871 H   0  0  0  0  0  0
  -20.9350  -29.8771   21.6918 H   0  0  0  0  0  0
  -26.0181  -38.2854   24.1403 H   0  0  0  0  0  0
  -31.0625  -16.9611   18.8732 H   0  0  0  0  0  0
  -30.6098  -19.2666   18.1683 H   0  0  0  0  0  0
  -28.3528  -17.4905   22.1963 H   0  0  0  0  0  0
  -28.8068  -25.0923   21.5249 H   0  0  0  0  0  0
  -27.1863  -24.9428   20.9056 H   0  0  0  0  0  0
  -29.0502  -15.2596   21.5141 H   0  0  0  0  0  0
  -28.3492  -22.4833   20.9529 H   0  0  0  0  0  0
  1 25  1  0  0  0
  1 30  2  0  0  0
  1 79  1  0  0  0
  2  3  1  0  0  0
  2 25  1  0  0  0
  2 86  1  0  0  0
  2 87  1  0  0  0
  3  4  1  0  0  0
  3 88  1  0  0  0
  3 89  1  0  0  0
  4  5  1  0  0  0
  4 90  1  0  0  0
  4 91  1  0  0  0
  5  6  1  0  0  0
  5 26  1  0  0  0
  5 92  1  0  0  0
  6 25  1  0  0  0
  6 93  1  0  0  0
  6 94  1  0  0  0
  7  8  2  0  0  0
  7 26  1  0  0  0
  7 29  1  0  0  0
  8  9  1  0  0  0
  8 22  1  0  0  0
  9 10  1  0  0  0
  9 27  2  0  0  0
 10 11  2  0  0  0
 10 15  1  0  0  0
 11 12  1  0  0  0
 11 95  1  0  0  0
 12 13  2  0  0  0
 12 96  1  0  0  0
 13 14  1  0  0  0
 13 31  1  0  0  0
 14 15  2  0  0  0
 14 97  1  0  0  0
 15 98  1  0  0  0
 16 17  2  0  0  0
 16 21  1  0  0  0
 16 31  1  0  0  0
 17 18  1  0  0  0
 17 99  1  0  0  0
 18 19  2  0  0  0
 18100  1  0  0  0
 19 20  1  0  0  0
 19 24  1  0  0  0
 20 21  2  0  0  0
 20101  1  0  0  0
 21 23  1  0  0  0
 22 28  1  0  0  0
 22 32  2  0  0  0
 26 27  1  0  0  0
 28102  1  0  0  0
 28103  1  0  0  0
 29104  1  0  0  0
 29105  1  0  0  0
 33 34  1  0  0  0
 33 66  1  0  0  0
 33 70  2  0  0  0
 34 36  1  0  0  0
 34 59  1  0  0  0
 34106  1  0  0  0
 35 44  2  0  0  0
 35 45  1  0  0  0
 35 68  1  0  0  0
 36 56  1  0  0  0
 36107  1  0  0  0
 37 39  1  0  0  0
 37 47  1  0  0  0
 37 66  1  0  0  0
 37108  1  0  0  0
 38 43  2  0  0  0
 38 46  1  0  0  0
 38 47  1  0  0  0
 39 64  1  0  0  0
 39 67  2  0  0  0
 40 52  1  0  0  0
 40 53  2  0  0  0
 40 58  1  0  0  0
 41109  1  0  0  0
 41110  1  0  0  0
 41111  1  0  0  0
 41 48  1  0  0  0
 42 43  1  0  0  0
 42 66  1  0  0  0
 42112  1  0  0  0
 42113  1  0  0  0
 43 44  1  0  0  0
 44114  1  0  0  0
 45 46  2  0  0  0
 45115  1  0  0  0
 46116  1  0  0  0
 47117  1  0  0  0
 47118  1  0  0  0
 48 56  1  0  0  0
 48 65  1  0  0  0
 48119  1  0  0  0
 49 50  1  0  0  0
 49 53  1  0  0  0
 49 64  1  0  0  0
 49120  1  0  0  0
 50 51  1  0  0  0
 50121  1  0  0  0
 50122  1  0  0  0
 51 52  1  0  0  0
 51123  1  0  0  0
 51124  1  0  0  0
 52125  1  0  0  0
 52126  1  0  0  0
 53 54  1  0  0  0
 54 55  2  0  0  0
 54127  1  0  0  0
 55 57  1  0  0  0
 55128  1  0  0  0
 56 69  2  0  0  0
 57 58  2  0  0  0
 57129  1  0  0  0
 58130  1  0  0  0
 59 60  1  0  0  0
 59 61  1  0  0  0
 59 62  1  0  0  0
 60131  1  0  0  0
 60132  1  0  0  0
 60133  1  0  0  0
 61134  1  0  0  0
 61135  1  0  0  0
 61136  1  0  0  0
 62137  1  0  0  0
 62138  1  0  0  0
 62139  1  0  0  0
 63 65  1  0  0  0
 63140  1  0  0  0
 63141  1  0  0  0
 63142  1  0  0  0
 64143  1  0  0  0
 65144  1  0  0  0
 68 78  1  0  0  0
 71 72  2  0  0  0
 71 74  1  0  0  0
 71145  1  0  0  0
 72 76  1  0  0  0
 72146  1  0  0  0
 73 74  2  0  0  0
 73 75  1  0  0  0
 73147  1  0  0  0
 74 79  1  0  0  0
 75 76  2  0  0  0
 75 84  1  0  0  0
 76 85  1  0  0  0
 77 78  1  0  0  0
 77 80  1  0  0  0
 77 81  2  0  0  0
 78148  1  0  0  0
 78149  1  0  0  0
 79150  1  0  0  0
 80151  1  0  0  0
 80 85  1  0  0  0
 82 85  2  0  0  0
 83 85  2  0  0  0
M  ISO  4   1 100  68 101  78 101  79 100
M  END
> <chiral flag>
0

> <version>
0

> <s_m_source_file>
/data/baiqing/PycharmProjects/Reinvent-master-3.2/result/LINK_invent/BTK/process_docking_weight1_custom_product_contain_oxygen_bond_distance_aromatic_linkinvent_7_9_3/rearranged_h_0064.sdf

> <i_m_source_file_index>
8

> <r_mmod_Potential_Energy-OPLS-2005>
-82.2041473388672

> <r_mmod_Stretch_Energy-OPLS-2005>
61.9715156555176

> <r_mmod_Bend_Energy-OPLS-2005>
128.113159179688

> <r_mmod_Torsional_Energy-OPLS-2005>
266.935760498047

> <r_mmod_Improper_Torsional_Energy-OPLS-2005>
7.53720092773438

> <r_mmod_Van_der_Waal_Energy-OPLS-2005>
137.047332763672

> <r_mmod_Electrostatic_Energy-OPLS-2005>
-431.892944335938

> <r_mmod_Solvation_Energy-OPLS-2005>
-283.734252929688

> <b_mmod_Minimization_Converged-OPLS-2005>
0

> <r_mmod_RMS_Derivative-OPLS-2005>
2.40969157218933

$$$$
8
                    3D
 Structure written by MMmdl.
158166  0  0  1  0            999 V2000
  -30.7008  -14.5653   20.5201 C   0  0  0  0  0  0
  -30.4181  -12.3559   19.4478 C   0  0  0  0  0  0
  -29.4987  -12.4942   18.2176 C   0  0  0  0  0  0
  -28.0233  -12.3450   18.6345 C   0  0  0  0  0  0
  -27.6515  -13.2210   19.8613 C   0  0  2  0  0  0
  -28.6966  -13.0905   20.9925 C   0  0  0  0  0  0
  -25.2553  -13.8193   20.5701 C   0  0  0  0  0  0
  -24.1831  -13.0452   20.9209 C   0  0  0  0  0  0
  -24.6409  -11.6927   20.8764 C   0  0  0  0  0  0
  -23.9084  -10.4309   21.0433 C   0  0  0  0  0  0
  -24.3627   -9.4210   21.9198 C   0  0  0  0  0  0
  -23.6303   -8.2244   22.0755 C   0  0  0  0  0  0
  -22.4280   -8.0293   21.3551 C   0  0  0  0  0  0
  -21.9928   -9.0276   20.4652 C   0  0  0  0  0  0
  -22.7265  -10.2154   20.3075 C   0  0  0  0  0  0
  -21.6852   -6.0753   22.5282 C   0  0  0  0  0  0
  -21.4017   -6.5650   23.8222 C   0  0  0  0  0  0
  -21.3661   -5.6788   24.9177 C   0  0  0  0  0  0
  -21.6044   -4.3053   24.7214 C   0  0  0  0  0  0
  -21.8821   -3.8158   23.4330 C   0  0  0  0  0  0
  -21.9193   -4.6984   22.3393 C   0  0  0  0  0  0
  -22.7853  -13.5253   21.1855 C   0  0  0  0  0  0
  -22.1660   -4.2173   21.0970 F   0  0  0  0  0  0
  -21.5625   -3.4534   25.7726 F   0  0  0  0  0  0
  -30.0149  -13.3896   20.4179 N   0  0  0  0  0  0
  -26.2984  -12.9387   20.3330 N   0  0  0  0  0  0
  -25.9334  -11.6535   20.5769 N   0  0  0  0  0  0
  -22.0471  -12.8259   22.0401 N   0  0  0  0  0  0
  -25.4268  -15.1910   20.4113 N   0  0  0  0  0  0
  -31.8633  -14.6558   20.1166 O   0  0  0  0  0  0
  -21.6635   -6.8893   21.4249 O   0  0  0  0  0  0
  -22.3563  -14.5563   20.6704 O   0  0  0  0  0  0
  -24.6201  -31.8644   23.2072 C   0  0  0  0  0  0
  -25.9073  -32.4812   23.8372 C   0  0  1  0  0  0
  -27.2291  -27.3795   20.0892 C   0  0  0  0  0  0
  -25.5919  -33.8613   24.2305 N   0  0  0  0  0  0
  -23.4084  -30.4879   21.5497 C   0  0  2  0  0  0
  -24.8520  -28.9473   20.1107 C   0  0  0  0  0  0
  -22.7427  -29.4645   22.4983 C   0  0  0  0  0  0
  -18.0276  -28.1374   22.8500 C   0  0  0  0  0  0
  -24.1479  -36.7292   23.2634 C   0  0  0  0  0  0
  -25.9427  -30.8111   21.3682 C   0  0  0  0  0  0
  -26.0160  -29.4417   20.7115 C   0  0  0  0  0  0
  -27.2029  -28.6631   20.6996 C   0  0  0  0  0  0
  -26.0390  -26.9097   19.4897 C   0  0  0  0  0  0
  -24.8609  -27.6834   19.4966 C   0  0  0  0  0  0
  -23.6161  -29.8201   20.1639 C   0  0  0  0  0  0
  -25.4108  -36.3105   24.0335 C   0  0  1  0  0  0
  -20.5869  -28.3668   23.1318 C   0  0  2  0  0  0
  -20.6758  -26.9401   22.5414 C   0  0  0  0  0  0
  -19.5738  -26.6382   21.5213 C   0  0  0  0  0  0
  -18.1919  -26.7923   22.1624 C   0  0  0  0  0  0
  -19.1524  -28.8841   23.2906 C   0  0  0  0  0  0
  -18.9442  -30.1449   23.8915 C   0  0  0  0  0  0
  -17.6439  -30.6581   24.0568 C   0  0  0  0  0  0
  -25.9038  -34.9473   23.5112 C   0  0  0  0  0  0
  -16.5335  -29.9073   23.6335 C   0  0  0  0  0  0
  -16.7266  -28.6489   23.0368 C   0  0  0  0  0  0
  -26.4483  -31.6625   25.0732 C   0  0  0  0  0  0
  -25.3725  -31.3748   26.1470 C   0  0  0  0  0  0
  -27.0335  -30.3064   24.6156 C   0  0  0  0  0  0
  -27.6047  -32.4368   25.7484 C   0  0  0  0  0  0
  -27.5581  -37.1804   24.8469 C   0  0  0  0  0  0
  -21.4152  -29.3029   22.3719 N   0  0  0  0  0  0
  -26.4297  -37.3793   23.9408 N   0  0  0  0  0  0
  -24.6757  -31.0696   22.0995 N   0  0  0  0  0  0
  -23.4184  -28.8190   23.3040 O   0  0  0  0  0  0
  -28.3922  -26.6171   20.1297 O   0  0  0  0  0  0
  -26.5588  -34.8934   22.4665 O   0  0  0  0  0  0
  -23.5387  -32.1419   23.7451 O   0  0  0  0  0  0
  -29.6418  -18.1924   20.8502 C   0  0  0  0  0  0
  -31.8382  -17.2857   21.3672 C   0  0  0  0  0  0
  -30.1158  -19.5407   21.0197 C   0  0  0  0  0  0
  -30.4899  -17.0457   21.0146 C   0  0  0  0  0  0
  -31.5001  -19.7121   21.3339 C   0  0  0  0  0  0
  -32.3342  -18.5894   21.5022 C   0  0  0  0  0  0
  -29.1802  -20.7204   20.9397 C   0  0  0  0  0  0
  -28.1747  -24.0169   19.7675 C   0  0  0  0  0  0
  -29.0756  -23.3450   20.8561 C   0  0  0  0  0  0
  -28.5723  -25.4578   19.2692 C   0  0  0  0  0  0
  -32.1259  -20.9567   21.5143 N   0  0  0  0  0  0
  -27.9007  -20.5943   21.2904 N   0  0  0  0  0  0
  -29.9979  -15.6802   20.8752 N   0  0  0  0  0  0
  -29.6150  -21.9611   20.5915 N   0  3  0  0  0  0
  -33.6386  -18.7780   21.8283 F   0  0  0  0  0  0
  -31.4653  -12.4379   19.1520 H   0  0  0  0  0  0
  -30.3141  -11.3675   19.8972 H   0  0  0  0  0  0
  -29.7519  -11.7405   17.4707 H   0  0  0  0  0  0
  -29.6538  -13.4625   17.7387 H   0  0  0  0  0  0
  -27.8557  -11.2929   18.8682 H   0  0  0  0  0  0
  -27.3673  -12.5762   17.7947 H   0  0  0  0  0  0
  -27.6662  -14.2543   19.5146 H   0  0  0  0  0  0
  -28.6944  -12.0816   21.4063 H   0  0  0  0  0  0
  -28.4567  -13.7545   21.8236 H   0  0  0  0  0  0
  -25.2776   -9.5679   22.4774 H   0  0  0  0  0  0
  -24.0014   -7.4630   22.7468 H   0  0  0  0  0  0
  -21.0856   -8.8815   19.8944 H   0  0  0  0  0  0
  -22.3740  -10.9702   19.6185 H   0  0  0  0  0  0
  -21.2009   -7.6162   23.9738 H   0  0  0  0  0  0
  -21.1480   -6.0510   25.9078 H   0  0  0  0  0  0
  -22.0597   -2.7625   23.2817 H   0  0  0  0  0  0
  -22.4059  -11.9931   22.4819 H   0  0  0  0  0  0
  -21.1093  -13.1310   22.2583 H   0  0  0  0  0  0
  -24.6561  -15.8419   20.5120 H   0  0  0  0  0  0
  -26.2671  -15.6256   20.0531 H   0  0  0  0  0  0
  -26.7136  -32.5509   23.1121 H   0  0  0  0  0  0
  -25.0133  -33.9758   25.0501 H   0  0  0  0  0  0
  -22.7000  -31.3083   21.4122 H   0  0  0  0  0  0
  -23.3757  -35.9612   23.3318 H   0  0  0  0  0  0
  -24.3563  -36.8890   22.2044 H   0  0  0  0  0  0
  -23.7228  -37.6496   23.6642 H   0  0  0  0  0  0
  -26.0633  -31.5784   20.6021 H   0  0  0  0  0  0
  -26.8258  -30.8612   21.9934 H   0  0  0  0  0  0
  -28.1006  -29.0401   21.1682 H   0  0  0  0  0  0
  -25.9940  -25.9327   19.0315 H   0  0  0  0  0  0
  -23.9622  -27.2977   19.0357 H   0  0  0  0  0  0
  -23.7230  -30.5958   19.4052 H   0  0  0  0  0  0
  -22.7367  -29.2439   19.8696 H   0  0  0  0  0  0
  -25.1293  -36.1955   25.0833 H   0  0  0  0  0  0
  -20.9970  -28.3224   24.1441 H   0  0  0  0  0  0
  -20.5660  -26.2268   23.3603 H   0  0  0  0  0  0
  -21.6628  -26.7435   22.1210 H   0  0  0  0  0  0
  -19.6884  -25.6295   21.1244 H   0  0  0  0  0  0
  -19.6677  -27.3188   20.6745 H   0  0  0  0  0  0
  -17.4190  -26.6708   21.4019 H   0  0  0  0  0  0
  -18.0305  -26.0053   22.9007 H   0  0  0  0  0  0
  -19.7916  -30.7272   24.2288 H   0  0  0  0  0  0
  -17.4991  -31.6272   24.5146 H   0  0  0  0  0  0
  -15.5336  -30.2975   23.7654 H   0  0  0  0  0  0
  -15.8673  -28.0809   22.7084 H   0  0  0  0  0  0
  -24.5867  -30.7141   25.7784 H   0  0  0  0  0  0
  -24.8954  -32.2921   26.4939 H   0  0  0  0  0  0
  -25.8054  -30.8875   27.0217 H   0  0  0  0  0  0
  -26.2899  -29.6813   24.1199 H   0  0  0  0  0  0
  -27.4072  -29.7330   25.4649 H   0  0  0  0  0  0
  -27.8751  -30.4377   23.9348 H   0  0  0  0  0  0
  -27.2651  -33.3658   26.2078 H   0  0  0  0  0  0
  -28.3835  -32.6960   25.0297 H   0  0  0  0  0  0
  -28.0748  -31.8499   26.5386 H   0  0  0  0  0  0
  -28.2611  -38.0086   24.7519 H   0  0  0  0  0  0
  -28.1066  -36.2626   24.6303 H   0  0  0  0  0  0
  -27.2296  -37.1465   25.8870 H   0  0  0  0  0  0
  -20.9316  -29.8745   21.6937 H   0  0  0  0  0  0
  -26.0185  -38.2871   24.1421 H   0  0  0  0  0  0
  -28.6026  -18.0400   20.5972 H   0  0  0  0  0  0
  -32.5304  -16.4811   21.5582 H   0  0  0  0  0  0
  -27.1435  -24.0423   20.1214 H   0  0  0  0  0  0
  -28.1567  -23.3631   18.8953 H   0  0  0  0  0  0
  -28.5587  -23.3569   21.8166 H   0  0  0  0  0  0
  -29.9452  -23.9871   21.0059 H   0  0  0  0  0  0
  -28.0874  -25.6462   18.3102 H   0  0  0  0  0  0
  -29.6324  -25.4348   19.0154 H   0  0  0  0  0  0
  -33.1146  -20.8201   21.7117 H   0  0  0  0  0  0
  -31.7472  -21.4988   22.2850 H   0  0  0  0  0  0
  -27.5679  -19.7191   21.6644 H   0  0  0  0  0  0
  -27.2595  -21.3673   21.2349 H   0  0  0  0  0  0
  -29.0073  -15.5389   21.0009 H   0  0  0  0  0  0
  -30.6328  -21.9269   20.4751 H   0  0  0  0  0  0
  1 25  1  0  0  0
  1 30  2  0  0  0
  1 83  1  0  0  0
  2  3  1  0  0  0
  2 25  1  0  0  0
  2 86  1  0  0  0
  2 87  1  0  0  0
  3  4  1  0  0  0
  3 88  1  0  0  0
  3 89  1  0  0  0
  4  5  1  0  0  0
  4 90  1  0  0  0
  4 91  1  0  0  0
  5  6  1  0  0  0
  5 26  1  0  0  0
  5 92  1  0  0  0
  6 25  1  0  0  0
  6 93  1  0  0  0
  6 94  1  0  0  0
  7  8  2  0  0  0
  7 26  1  0  0  0
  7 29  1  0  0  0
  8  9  1  0  0  0
  8 22  1  0  0  0
  9 10  1  0  0  0
  9 27  2  0  0  0
 10 11  2  0  0  0
 10 15  1  0  0  0
 11 12  1  0  0  0
 11 95  1  0  0  0
 12 13  2  0  0  0
 12 96  1  0  0  0
 13 14  1  0  0  0
 13 31  1  0  0  0
 14 15  2  0  0  0
 14 97  1  0  0  0
 15 98  1  0  0  0
 16 17  2  0  0  0
 16 21  1  0  0  0
 16 31  1  0  0  0
 17 18  1  0  0  0
 17 99  1  0  0  0
 18 19  2  0  0  0
 18100  1  0  0  0
 19 20  1  0  0  0
 19 24  1  0  0  0
 20 21  2  0  0  0
 20101  1  0  0  0
 21 23  1  0  0  0
 22 28  1  0  0  0
 22 32  2  0  0  0
 26 27  1  0  0  0
 28102  1  0  0  0
 28103  1  0  0  0
 29104  1  0  0  0
 29105  1  0  0  0
 33 34  1  0  0  0
 33 66  1  0  0  0
 33 70  2  0  0  0
 34 36  1  0  0  0
 34 59  1  0  0  0
 34106  1  0  0  0
 35 44  2  0  0  0
 35 45  1  0  0  0
 35 68  1  0  0  0
 36 56  1  0  0  0
 36107  1  0  0  0
 37 39  1  0  0  0
 37 47  1  0  0  0
 37 66  1  0  0  0
 37108  1  0  0  0
 38 43  2  0  0  0
 38 46  1  0  0  0
 38 47  1  0  0  0
 39 64  1  0  0  0
 39 67  2  0  0  0
 40 52  1  0  0  0
 40 53  2  0  0  0
 40 58  1  0  0  0
 41109  1  0  0  0
 41110  1  0  0  0
 41111  1  0  0  0
 41 48  1  0  0  0
 42 43  1  0  0  0
 42 66  1  0  0  0
 42112  1  0  0  0
 42113  1  0  0  0
 43 44  1  0  0  0
 44114  1  0  0  0
 45 46  2  0  0  0
 45115  1  0  0  0
 46116  1  0  0  0
 47117  1  0  0  0
 47118  1  0  0  0
 48 56  1  0  0  0
 48 65  1  0  0  0
 48119  1  0  0  0
 49 50  1  0  0  0
 49 53  1  0  0  0
 49 64  1  0  0  0
 49120  1  0  0  0
 50 51  1  0  0  0
 50121  1  0  0  0
 50122  1  0  0  0
 51 52  1  0  0  0
 51123  1  0  0  0
 51124  1  0  0  0
 52125  1  0  0  0
 52126  1  0  0  0
 53 54  1  0  0  0
 54 55  2  0  0  0
 54127  1  0  0  0
 55 57  1  0  0  0
 55128  1  0  0  0
 56 69  2  0  0  0
 57 58  2  0  0  0
 57129  1  0  0  0
 58130  1  0  0  0
 59 60  1  0  0  0
 59 61  1  0  0  0
 59 62  1  0  0  0
 60131  1  0  0  0
 60132  1  0  0  0
 60133  1  0  0  0
 61134  1  0  0  0
 61135  1  0  0  0
 61136  1  0  0  0
 62137  1  0  0  0
 62138  1  0  0  0
 62139  1  0  0  0
 63 65  1  0  0  0
 63140  1  0  0  0
 63141  1  0  0  0
 63142  1  0  0  0
 64143  1  0  0  0
 65144  1  0  0  0
 68 80  1  0  0  0
 71 73  2  0  0  0
 71 74  1  0  0  0
 71145  1  0  0  0
 72 74  2  0  0  0
 72 76  1  0  0  0
 72146  1  0  0  0
 73 75  1  0  0  0
 73 77  1  0  0  0
 74 83  1  0  0  0
 75 76  2  0  0  0
 75 81  1  0  0  0
 76 85  1  0  0  0
 77 82  1  0  0  0
 77 84  2  0  0  0
 78 79  1  0  0  0
 78 80  1  0  0  0
 78147  1  0  0  0
 78148  1  0  0  0
 79 84  1  0  0  0
 79149  1  0  0  0
 79150  1  0  0  0
 80151  1  0  0  0
 80152  1  0  0  0
 81153  1  0  0  0
 81154  1  0  0  0
 82155  1  0  0  0
 82156  1  0  0  0
 83157  1  0  0  0
 84158  1  0  0  0
M  CHG  1  84   1
M  ISO  4   1 100  68 101  80 101  83 100
M  END
> <chiral flag>
0

> <version>
0

> <s_m_source_file>
/data/baiqing/PycharmProjects/Reinvent-master-3.2/result/LINK_invent/BTK/process_docking_weight1_custom_product_contain_oxygen_bond_distance_aromatic_linkinvent_7_9_3/rearranged_h_0064.sdf

> <i_m_source_file_index>
9

> <r_mmod_Potential_Energy-OPLS-2005>
-87.6017913818359

> <r_mmod_Stretch_Energy-OPLS-2005>
62.2228126525879

> <r_mmod_Bend_Energy-OPLS-2005>
139.252548217773

> <r_mmod_Torsional_Energy-OPLS-2005>
240.186065673828

> <r_mmod_Improper_Torsional_Energy-OPLS-2005>
12.8868741989136

> <r_mmod_Van_der_Waal_Energy-OPLS-2005>
165.186294555664

> <r_mmod_Electrostatic_Energy-OPLS-2005>
-308.538665771484

> <r_mmod_Solvation_Energy-OPLS-2005>
-427.379241943359

> <b_mmod_Minimization_Converged-OPLS-2005>
0

> <r_mmod_RMS_Derivative-OPLS-2005>
2.29036211967468

$$$$
9
                    3D
 Structure written by MMmdl.
181190  0  0  1  0            999 V2000
  -30.6291  -14.7308   20.4311 C   0  0  0  0  0  0
  -30.4211  -12.4402   19.4778 C   0  0  0  0  0  0
  -29.5049  -12.4985   18.2368 C   0  0  0  0  0  0
  -28.0315  -12.3287   18.6503 C   0  0  0  0  0  0
  -27.6378  -13.2344   19.8476 C   0  0  2  0  0  0
  -28.6815  -13.1819   20.9840 C   0  0  0  0  0  0
  -25.2491  -13.8210   20.5702 C   0  0  0  0  0  0
  -24.1789  -13.0447   20.9213 C   0  0  0  0  0  0
  -24.6383  -11.6925   20.8753 C   0  0  0  0  0  0
  -23.9067  -10.4297   21.0414 C   0  0  0  0  0  0
  -24.3620   -9.4208   21.9186 C   0  0  0  0  0  0
  -23.6294   -8.2244   22.0755 C   0  0  0  0  0  0
  -22.4278   -8.0283   21.3541 C   0  0  0  0  0  0
  -21.9914   -9.0258   20.4647 C   0  0  0  0  0  0
  -22.7243  -10.2137   20.3057 C   0  0  0  0  0  0
  -21.6851   -6.0733   22.5277 C   0  0  0  0  0  0
  -21.4016   -6.5638   23.8209 C   0  0  0  0  0  0
  -21.3660   -5.6793   24.9171 C   0  0  0  0  0  0
  -21.6043   -4.3055   24.7224 C   0  0  0  0  0  0
  -21.8820   -3.8145   23.4345 C   0  0  0  0  0  0
  -21.9194   -4.6962   22.3398 C   0  0  0  0  0  0
  -22.7811  -13.5221   21.1873 C   0  0  0  0  0  0
  -22.1662   -4.2146   21.0977 F   0  0  0  0  0  0
  -21.5629   -3.4537   25.7740 F   0  0  0  0  0  0
  -29.9832  -13.5166   20.3969 N   0  0  0  0  0  0
  -26.2911  -12.9421   20.3279 N   0  0  0  0  0  0
  -25.9310  -11.6559   20.5757 N   0  0  0  0  0  0
  -22.0463  -12.8210   22.0430 N   0  0  0  0  0  0
  -25.4188  -15.1935   20.4123 N   0  0  0  0  0  0
  -31.8350  -14.7612   20.1744 O   0  0  0  0  0  0
  -21.6641   -6.8879   21.4240 O   0  0  0  0  0  0
  -22.3493  -14.5527   20.6720 O   0  0  0  0  0  0
  -24.6287  -31.8556   23.1971 C   0  0  0  0  0  0
  -25.9118  -32.4755   23.8316 C   0  0  1  0  0  0
  -27.2213  -27.2675   20.1245 C   0  0  0  0  0  0
  -25.5916  -33.8556   24.2242 N   0  0  0  0  0  0
  -23.4249  -30.4771   21.5408 C   0  0  2  0  0  0
  -24.8710  -28.9209   20.1088 C   0  0  0  0  0  0
  -22.7486  -29.4604   22.4914 C   0  0  0  0  0  0
  -18.0285  -28.1382   22.8482 C   0  0  0  0  0  0
  -24.1491  -36.7289   23.2637 C   0  0  0  0  0  0
  -25.9683  -30.7696   21.3751 C   0  0  0  0  0  0
  -26.0399  -29.3915   20.7183 C   0  0  0  0  0  0
  -27.2136  -28.5755   20.7157 C   0  0  0  0  0  0
  -26.0248  -26.8536   19.4977 C   0  0  0  0  0  0
  -24.8681  -27.6600   19.4895 C   0  0  0  0  0  0
  -23.6417  -29.8080   20.1572 C   0  0  0  0  0  0
  -25.4119  -36.3073   24.0318 C   0  0  1  0  0  0
  -20.5890  -28.3696   23.1272 C   0  0  2  0  0  0
  -20.6774  -26.9413   22.5415 C   0  0  0  0  0  0
  -19.5755  -26.6382   21.5211 C   0  0  0  0  0  0
  -18.1934  -26.7927   22.1617 C   0  0  0  0  0  0
  -19.1538  -28.8855   23.2872 C   0  0  0  0  0  0
  -18.9466  -30.1454   23.8891 C   0  0  0  0  0  0
  -17.6468  -30.6589   24.0563 C   0  0  0  0  0  0
  -25.9060  -34.9441   23.5089 C   0  0  0  0  0  0
  -16.5359  -29.9090   23.6329 C   0  0  0  0  0  0
  -16.7274  -28.6507   23.0352 C   0  0  0  0  0  0
  -26.4490  -31.6586   25.0711 C   0  0  0  0  0  0
  -25.3705  -31.3733   26.1428 C   0  0  0  0  0  0
  -27.0339  -30.3001   24.6202 C   0  0  0  0  0  0
  -27.6046  -32.4328   25.7483 C   0  0  0  0  0  0
  -27.5582  -37.1794   24.8458 C   0  0  0  0  0  0
  -21.4197  -29.3040   22.3658 N   0  0  0  0  0  0
  -26.4291  -37.3773   23.9407 N   0  0  0  0  0  0
  -24.6928  -31.0521   22.0945 N   0  0  0  0  0  0
  -23.4194  -28.8149   23.3009 O   0  0  0  0  0  0
  -28.3474  -26.4207   20.2078 O   0  0  0  0  0  0
  -26.5645  -34.8916   22.4666 O   0  0  0  0  0  0
  -23.5444  -32.1382   23.7273 O   0  0  0  0  0  0
  -31.7741  -18.8527   19.0633 C   0  0  0  0  0  0
  -31.3344  -17.5544   19.3583 C   0  0  0  0  0  0
  -29.4858  -18.5086   20.5971 C   0  0  0  0  0  0
  -31.1159  -20.0021   19.5442 C   0  0  0  0  0  0
  -29.8927  -19.8802   20.2714 C   0  0  0  0  0  0
  -30.2221  -17.3114   20.1948 C   0  0  0  0  0  0
  -29.2721  -22.8521   22.6388 C   0  0  0  0  0  0
  -29.2845  -21.3591   22.1143 C   0  0  0  0  0  0
  -32.1961  -23.3180   17.9374 C   0  0  0  0  0  0
  -28.7833  -22.2741   19.8609 C   0  0  0  0  0  0
  -28.3205  -23.6837   20.5030 C   0  0  2  0  0  0
  -34.4231  -25.6757   18.1054 C   0  0  0  0  0  0
  -32.0860  -26.5126   18.5870 C   0  0  0  0  0  0
  -33.6594  -26.0238   20.4500 C   0  0  0  0  0  0
  -31.2322  -21.2715   16.9513 C   0  0  0  0  0  0
  -31.8757  -21.3251   19.3822 C   0  0  0  0  0  0
  -32.7079  -24.0852   19.1854 C   0  0  0  0  0  0
  -28.4353  -25.0407   19.6265 C   0  0  0  0  0  0
  -33.2081  -25.5582   19.0498 C   0  0  0  0  0  0
  -28.9422  -23.8474   21.8030 N   0  0  0  0  0  0
  -29.2326  -21.1287   20.7740 N   0  0  0  0  0  0
  -29.8812  -15.9014   20.5589 N   0  0  0  0  0  0
  -31.7814  -22.0309   18.0862 N   0  0  0  0  0  0
  -29.6074  -23.0950   23.8019 O   0  0  0  0  0  0
  -29.3830  -20.4536   22.9546 O   0  0  0  0  0  0
  -32.1587  -23.8863   16.8425 O   0  0  0  0  0  0
  -31.4651  -12.5444   19.1767 H   0  0  0  0  0  0
  -30.3490  -11.4683   19.9687 H   0  0  0  0  0  0
  -29.7852  -11.7223   17.5233 H   0  0  0  0  0  0
  -29.6363  -13.4521   17.7218 H   0  0  0  0  0  0
  -27.8876  -11.2815   18.9180 H   0  0  0  0  0  0
  -27.3744  -12.5175   17.8008 H   0  0  0  0  0  0
  -27.6290  -14.2536   19.4603 H   0  0  0  0  0  0
  -28.7102  -12.1917   21.4413 H   0  0  0  0  0  0
  -28.4222  -13.8809   21.7810 H   0  0  0  0  0  0
  -25.2763   -9.5681   22.4764 H   0  0  0  0  0  0
  -23.9999   -7.4634   22.7473 H   0  0  0  0  0  0
  -21.0845   -8.8779   19.8952 H   0  0  0  0  0  0
  -22.3703  -10.9677   19.6169 H   0  0  0  0  0  0
  -21.2011   -7.6149   23.9711 H   0  0  0  0  0  0
  -21.1480   -6.0524   25.9075 H   0  0  0  0  0  0
  -22.0601   -2.7609   23.2847 H   0  0  0  0  0  0
  -22.4093  -11.9871   22.4809 H   0  0  0  0  0  0
  -21.1080  -13.1225   22.2647 H   0  0  0  0  0  0
  -24.6512  -15.8474   20.5213 H   0  0  0  0  0  0
  -26.2634  -15.6312   20.0675 H   0  0  0  0  0  0
  -26.7181  -32.5411   23.1053 H   0  0  0  0  0  0
  -25.0010  -33.9687   25.0350 H   0  0  0  0  0  0
  -22.7202  -31.2989   21.3940 H   0  0  0  0  0  0
  -23.3755  -35.9618   23.3294 H   0  0  0  0  0  0
  -24.3568  -36.8930   22.2052 H   0  0  0  0  0  0
  -23.7254  -37.6484   23.6683 H   0  0  0  0  0  0
  -26.1032  -31.5305   20.6052 H   0  0  0  0  0  0
  -26.8465  -30.8198   22.0079 H   0  0  0  0  0  0
  -28.1099  -28.9306   21.2048 H   0  0  0  0  0  0
  -25.9425  -25.8839   19.0329 H   0  0  0  0  0  0
  -23.9689  -27.2920   19.0134 H   0  0  0  0  0  0
  -23.7630  -30.5831   19.3995 H   0  0  0  0  0  0
  -22.7607  -29.2385   19.8556 H   0  0  0  0  0  0
  -25.1303  -36.1912   25.0813 H   0  0  0  0  0  0
  -20.9972  -28.3293   24.1396 H   0  0  0  0  0  0
  -20.5673  -26.2308   23.3622 H   0  0  0  0  0  0
  -21.6644  -26.7445   22.1209 H   0  0  0  0  0  0
  -19.6920  -25.6290   21.1245 H   0  0  0  0  0  0
  -19.6698  -27.3185   20.6736 H   0  0  0  0  0  0
  -17.4203  -26.6668   21.4024 H   0  0  0  0  0  0
  -18.0333  -26.0072   22.9015 H   0  0  0  0  0  0
  -19.7949  -30.7261   24.2269 H   0  0  0  0  0  0
  -17.5031  -31.6271   24.5161 H   0  0  0  0  0  0
  -15.5359  -30.2990   23.7663 H   0  0  0  0  0  0
  -15.8673  -28.0829   22.7068 H   0  0  0  0  0  0
  -24.5893  -30.7074   25.7747 H   0  0  0  0  0  0
  -24.8869  -32.2892   26.4835 H   0  0  0  0  0  0
  -25.8000  -30.8922   27.0223 H   0  0  0  0  0  0
  -26.2923  -29.6742   24.1222 H   0  0  0  0  0  0
  -27.4011  -29.7278   25.4730 H   0  0  0  0  0  0
  -27.8806  -30.4268   23.9449 H   0  0  0  0  0  0
  -27.2668  -33.3642   26.2042 H   0  0  0  0  0  0
  -28.3864  -32.6868   25.0313 H   0  0  0  0  0  0
  -28.0708  -31.8464   26.5413 H   0  0  0  0  0  0
  -28.2587  -38.0104   24.7520 H   0  0  0  0  0  0
  -28.1093  -36.2633   24.6270 H   0  0  0  0  0  0
  -27.2291  -37.1426   25.8856 H   0  0  0  0  0  0
  -20.9379  -29.8765   21.6863 H   0  0  0  0  0  0
  -26.0172  -38.2841   24.1422 H   0  0  0  0  0  0
  -32.6847  -18.9612   18.4898 H   0  0  0  0  0  0
  -31.9193  -16.7505   18.9401 H   0  0  0  0  0  0
  -28.6044  -18.3787   21.2088 H   0  0  0  0  0  0
  -29.5628  -22.4985   19.1479 H   0  0  0  0  0  0
  -27.9674  -21.8927   19.2452 H   0  0  0  0  0  0
  -27.2586  -23.5774   20.7321 H   0  0  0  0  0  0
  -34.8304  -26.6879   18.1084 H   0  0  0  0  0  0
  -34.1702  -25.4429   17.0715 H   0  0  0  0  0  0
  -35.2269  -25.0027   18.4063 H   0  0  0  0  0  0
  -32.4352  -27.5452   18.5467 H   0  0  0  0  0  0
  -31.2382  -26.4902   19.2718 H   0  0  0  0  0  0
  -31.7118  -26.2689   17.5933 H   0  0  0  0  0  0
  -34.0037  -27.0588   20.4409 H   0  0  0  0  0  0
  -34.4798  -25.4140   20.8310 H   0  0  0  0  0  0
  -32.8467  -25.9620   21.1754 H   0  0  0  0  0  0
  -31.1364  -21.8497   16.0321 H   0  0  0  0  0  0
  -30.2346  -20.8983   17.1838 H   0  0  0  0  0  0
  -31.8703  -20.4195   16.7194 H   0  0  0  0  0  0
  -32.9330  -21.1123   19.5515 H   0  0  0  0  0  0
  -31.5999  -21.9703   20.2128 H   0  0  0  0  0  0
  -33.5118  -23.4912   19.6220 H   0  0  0  0  0  0
  -31.8970  -24.0905   19.9138 H   0  0  0  0  0  0
  -27.8020  -24.9500   18.7461 H   0  0  0  0  0  0
  -29.4376  -25.0154   19.2007 H   0  0  0  0  0  0
  -28.9985  -24.7915   22.1587 H   0  0  0  0  0  0
  -28.9346  -15.7534   20.8736 H   0  0  0  0  0  0
  1 25  1  0  0  0
  1 30  2  0  0  0
  1 92  1  0  0  0
  2  3  1  0  0  0
  2 25  1  0  0  0
  2 97  1  0  0  0
  2 98  1  0  0  0
  3  4  1  0  0  0
  3 99  1  0  0  0
  3100  1  0  0  0
  4  5  1  0  0  0
  4101  1  0  0  0
  4102  1  0  0  0
  5  6  1  0  0  0
  5 26  1  0  0  0
  5103  1  0  0  0
  6 25  1  0  0  0
  6104  1  0  0  0
  6105  1  0  0  0
  7  8  2  0  0  0
  7 26  1  0  0  0
  7 29  1  0  0  0
  8  9  1  0  0  0
  8 22  1  0  0  0
  9 10  1  0  0  0
  9 27  2  0  0  0
 10 11  2  0  0  0
 10 15  1  0  0  0
 11 12  1  0  0  0
 11106  1  0  0  0
 12 13  2  0  0  0
 12107  1  0  0  0
 13 14  1  0  0  0
 13 31  1  0  0  0
 14 15  2  0  0  0
 14108  1  0  0  0
 15109  1  0  0  0
 16 17  2  0  0  0
 16 21  1  0  0  0
 16 31  1  0  0  0
 17 18  1  0  0  0
 17110  1  0  0  0
 18 19  2  0  0  0
 18111  1  0  0  0
 19 20  1  0  0  0
 19 24  1  0  0  0
 20 21  2  0  0  0
 20112  1  0  0  0
 21 23  1  0  0  0
 22 28  1  0  0  0
 22 32  2  0  0  0
 26 27  1  0  0  0
 28113  1  0  0  0
 28114  1  0  0  0
 29115  1  0  0  0
 29116  1  0  0  0
 33 34  1  0  0  0
 33 66  1  0  0  0
 33 70  2  0  0  0
 34 36  1  0  0  0
 34 59  1  0  0  0
 34117  1  0  0  0
 35 44  2  0  0  0
 35 45  1  0  0  0
 35 68  1  0  0  0
 36 56  1  0  0  0
 36118  1  0  0  0
 37 39  1  0  0  0
 37 47  1  0  0  0
 37 66  1  0  0  0
 37119  1  0  0  0
 38 43  2  0  0  0
 38 46  1  0  0  0
 38 47  1  0  0  0
 39 64  1  0  0  0
 39 67  2  0  0  0
 40 52  1  0  0  0
 40 53  2  0  0  0
 40 58  1  0  0  0
 41120  1  0  0  0
 41121  1  0  0  0
 41122  1  0  0  0
 41 48  1  0  0  0
 42 43  1  0  0  0
 42 66  1  0  0  0
 42123  1  0  0  0
 42124  1  0  0  0
 43 44  1  0  0  0
 44125  1  0  0  0
 45 46  2  0  0  0
 45126  1  0  0  0
 46127  1  0  0  0
 47128  1  0  0  0
 47129  1  0  0  0
 48 56  1  0  0  0
 48 65  1  0  0  0
 48130  1  0  0  0
 49 50  1  0  0  0
 49 53  1  0  0  0
 49 64  1  0  0  0
 49131  1  0  0  0
 50 51  1  0  0  0
 50132  1  0  0  0
 50133  1  0  0  0
 51 52  1  0  0  0
 51134  1  0  0  0
 51135  1  0  0  0
 52136  1  0  0  0
 52137  1  0  0  0
 53 54  1  0  0  0
 54 55  2  0  0  0
 54138  1  0  0  0
 55 57  1  0  0  0
 55139  1  0  0  0
 56 69  2  0  0  0
 57 58  2  0  0  0
 57140  1  0  0  0
 58141  1  0  0  0
 59 60  1  0  0  0
 59 61  1  0  0  0
 59 62  1  0  0  0
 60142  1  0  0  0
 60143  1  0  0  0
 60144  1  0  0  0
 61145  1  0  0  0
 61146  1  0  0  0
 61147  1  0  0  0
 62148  1  0  0  0
 62149  1  0  0  0
 62150  1  0  0  0
 63 65  1  0  0  0
 63151  1  0  0  0
 63152  1  0  0  0
 63153  1  0  0  0
 64154  1  0  0  0
 65155  1  0  0  0
 68 88  1  0  0  0
 71 72  2  0  0  0
 71 74  1  0  0  0
 71156  1  0  0  0
 72 76  1  0  0  0
 72157  1  0  0  0
 73 75  1  0  0  0
 73 76  2  0  0  0
 73158  1  0  0  0
 74 75  2  0  0  0
 74 86  1  0  0  0
 75 91  1  0  0  0
 76 92  1  0  0  0
 77 78  1  0  0  0
 77 90  1  0  0  0
 77 94  2  0  0  0
 78 91  1  0  0  0
 78 95  2  0  0  0
 79 87  1  0  0  0
 79 93  1  0  0  0
 79 96  2  0  0  0
 80 81  1  0  0  0
 80 91  1  0  0  0
 80159  1  0  0  0
 80160  1  0  0  0
 81 88  1  0  0  0
 81 90  1  0  0  0
 81161  1  0  0  0
 82162  1  0  0  0
 82163  1  0  0  0
 82164  1  0  0  0
 82 89  1  0  0  0
 83 89  1  0  0  0
 83165  1  0  0  0
 83166  1  0  0  0
 83167  1  0  0  0
 84 89  1  0  0  0
 84168  1  0  0  0
 84169  1  0  0  0
 84170  1  0  0  0
 85 93  1  0  0  0
 85171  1  0  0  0
 85172  1  0  0  0
 85173  1  0  0  0
 86 93  1  0  0  0
 86174  1  0  0  0
 86175  1  0  0  0
 87 89  1  0  0  0
 87176  1  0  0  0
 87177  1  0  0  0
 88178  1  0  0  0
 88179  1  0  0  0
 90180  1  0  0  0
 92181  1  0  0  0
M  ISO  4   1 100  68 101  88 101  92 100
M  END
> <chiral flag>
0

> <version>
0

> <s_m_source_file>
/data/baiqing/PycharmProjects/Reinvent-master-3.2/result/LINK_invent/BTK/process_docking_weight1_custom_product_contain_oxygen_bond_distance_aromatic_linkinvent_7_9_3/rearranged_h_0064.sdf

> <i_m_source_file_index>
10

> <r_mmod_Potential_Energy-OPLS-2005>
367.318634033203

> <r_mmod_Stretch_Energy-OPLS-2005>
143.85285949707

> <r_mmod_Bend_Energy-OPLS-2005>
205.166839599609

> <r_mmod_Torsional_Energy-OPLS-2005>
329.947387695312

> <r_mmod_Improper_Torsional_Energy-OPLS-2005>
6.5773344039917

> <r_mmod_Van_der_Waal_Energy-OPLS-2005>
166.259674072266

> <r_mmod_Electrostatic_Energy-OPLS-2005>
-291.295806884766

> <r_mmod_Solvation_Energy-OPLS-2005>
-273.651123046875

> <b_mmod_Minimization_Converged-OPLS-2005>
0

> <r_mmod_RMS_Derivative-OPLS-2005>
1.01602327823639

$$$$
10
                    3D
 Structure written by MMmdl.
155163  0  0  1  0            999 V2000
  -30.5661  -14.7121   20.4719 C   0  0  0  0  0  0
  -30.4426  -12.4283   19.4663 C   0  0  0  0  0  0
  -29.5122  -12.5095   18.2312 C   0  0  0  0  0  0
  -28.0368  -12.3305   18.6437 C   0  0  0  0  0  0
  -27.6471  -13.2139   19.8601 C   0  0  2  0  0  0
  -28.6904  -13.0942   20.9941 C   0  0  0  0  0  0
  -25.2529  -13.8131   20.5674 C   0  0  0  0  0  0
  -24.1798  -13.0410   20.9181 C   0  0  0  0  0  0
  -24.6365  -11.6883   20.8726 C   0  0  0  0  0  0
  -23.9031  -10.4275   21.0406 C   0  0  0  0  0  0
  -24.3592   -9.4195   21.9182 C   0  0  0  0  0  0
  -23.6270   -8.2231   22.0751 C   0  0  0  0  0  0
  -22.4256   -8.0255   21.3541 C   0  0  0  0  0  0
  -21.9895   -9.0227   20.4654 C   0  0  0  0  0  0
  -22.7206  -10.2111   20.3060 C   0  0  0  0  0  0
  -21.6856   -6.0709   22.5268 C   0  0  0  0  0  0
  -21.4002   -6.5623   23.8193 C   0  0  0  0  0  0
  -21.3668   -5.6787   24.9171 C   0  0  0  0  0  0
  -21.6056   -4.3049   24.7231 C   0  0  0  0  0  0
  -21.8807   -3.8127   23.4358 C   0  0  0  0  0  0
  -21.9186   -4.6939   22.3410 C   0  0  0  0  0  0
  -22.7843  -13.5218   21.1849 C   0  0  0  0  0  0
  -22.1659   -4.2128   21.0991 F   0  0  0  0  0  0
  -21.5654   -3.4543   25.7755 F   0  0  0  0  0  0
  -29.9980  -13.4610   20.4269 N   0  0  0  0  0  0
  -26.2942  -12.9314   20.3291 N   0  0  0  0  0  0
  -25.9290  -11.6467   20.5719 N   0  0  0  0  0  0
  -22.0499  -12.8225   22.0427 N   0  0  0  0  0  0
  -25.4271  -15.1848   20.4033 N   0  0  0  0  0  0
  -31.7346  -14.8840   20.1071 O   0  0  0  0  0  0
  -21.6630   -6.8853   21.4229 O   0  0  0  0  0  0
  -22.3564  -14.5536   20.6702 O   0  0  0  0  0  0
  -24.6251  -31.8585   23.2018 C   0  0  0  0  0  0
  -25.9108  -32.4759   23.8327 C   0  0  1  0  0  0
  -27.2241  -27.3215   20.1258 C   0  0  0  0  0  0
  -25.5921  -33.8553   24.2256 N   0  0  0  0  0  0
  -23.4157  -30.4815   21.5450 C   0  0  2  0  0  0
  -24.8625  -28.9300   20.1150 C   0  0  0  0  0  0
  -22.7454  -29.4612   22.4959 C   0  0  0  0  0  0
  -18.0272  -28.1391   22.8501 C   0  0  0  0  0  0
  -24.1477  -36.7297   23.2634 C   0  0  0  0  0  0
  -25.9533  -30.7984   21.3621 C   0  0  0  0  0  0
  -26.0314  -29.4221   20.7110 C   0  0  0  0  0  0
  -27.2182  -28.6331   20.6945 C   0  0  0  0  0  0
  -26.0349  -26.8724   19.5173 C   0  0  0  0  0  0
  -24.8672  -27.6640   19.5051 C   0  0  0  0  0  0
  -23.6286  -29.8099   20.1621 C   0  0  0  0  0  0
  -25.4098  -36.3055   24.0315 C   0  0  1  0  0  0
  -20.5875  -28.3684   23.1307 C   0  0  2  0  0  0
  -20.6744  -26.9411   22.5424 C   0  0  0  0  0  0
  -19.5721  -26.6399   21.5219 C   0  0  0  0  0  0
  -18.1907  -26.7942   22.1645 C   0  0  0  0  0  0
  -19.1524  -28.8861   23.2894 C   0  0  0  0  0  0
  -18.9452  -30.1470   23.8917 C   0  0  0  0  0  0
  -17.6449  -30.6599   24.0572 C   0  0  0  0  0  0
  -25.9045  -34.9435   23.5085 C   0  0  0  0  0  0
  -16.5342  -29.9100   23.6329 C   0  0  0  0  0  0
  -16.7258  -28.6508   23.0354 C   0  0  0  0  0  0
  -26.4506  -31.6568   25.0687 C   0  0  0  0  0  0
  -25.3773  -31.3711   26.1450 C   0  0  0  0  0  0
  -27.0316  -30.2985   24.6103 C   0  0  0  0  0  0
  -27.6057  -32.4296   25.7495 C   0  0  0  0  0  0
  -27.5568  -37.1805   24.8464 C   0  0  0  0  0  0
  -21.4171  -29.3036   22.3719 N   0  0  0  0  0  0
  -26.4279  -37.3749   23.9410 N   0  0  0  0  0  0
  -24.6838  -31.0617   22.0954 N   0  0  0  0  0  0
  -23.4191  -28.8160   23.3031 O   0  0  0  0  0  0
  -28.3666  -26.5141   20.1101 O   0  0  0  0  0  0
  -26.5620  -34.8904   22.4654 O   0  0  0  0  0  0
  -23.5428  -32.1380   23.7382 O   0  0  0  0  0  0
  -30.7430  -19.4336   20.0933 C   0  0  0  0  0  0
  -30.8289  -18.0080   20.2112 C   0  0  0  0  0  0
  -28.5139  -17.9668   20.8269 C   0  0  0  0  0  0
  -29.5464  -20.1801   20.3194 C   0  0  0  0  0  0
  -29.7115  -17.2197   20.5975 C   0  0  0  0  0  0
  -28.4211  -19.3922   20.6883 C   0  0  0  0  0  0
  -28.4124  -24.5377   17.1331 C   0  0  0  0  0  0
  -28.9738  -24.1959   18.3029 C   0  0  0  0  0  0
  -29.5549  -21.7337   20.2103 C   0  0  0  0  0  0
  -28.3182  -25.1149   20.6023 C   0  0  0  0  0  0
  -28.1961  -23.9029   19.5745 C   0  0  2  0  0  0
  -29.7033  -15.7485   20.7749 N   0  0  0  0  0  0
  -28.4124  -22.4707   20.0470 N   0  0  0  0  0  0
  -30.6475  -22.3062   20.2032 O   0  0  0  0  0  0
  -27.2289  -19.9963   20.9183 F   0  0  0  0  0  0
  -31.4858  -12.5643   19.1718 H   0  0  0  0  0  0
  -30.3856  -11.4402   19.9250 H   0  0  0  0  0  0
  -29.7874  -11.7523   17.4945 H   0  0  0  0  0  0
  -29.6408  -13.4741   17.7382 H   0  0  0  0  0  0
  -27.8847  -11.2769   18.8877 H   0  0  0  0  0  0
  -27.3807  -12.5442   17.8000 H   0  0  0  0  0  0
  -27.6559  -14.2422   19.4985 H   0  0  0  0  0  0
  -28.7186  -12.0761   21.3857 H   0  0  0  0  0  0
  -28.4226  -13.7337   21.8380 H   0  0  0  0  0  0
  -25.2731   -9.5678   22.4756 H   0  0  0  0  0  0
  -23.9987   -7.4625   22.7466 H   0  0  0  0  0  0
  -21.0835   -8.8718   19.8968 H   0  0  0  0  0  0
  -22.3635  -10.9639   19.6179 H   0  0  0  0  0  0
  -21.1964   -7.6125   23.9683 H   0  0  0  0  0  0
  -21.1529   -6.0532   25.9077 H   0  0  0  0  0  0
  -22.0581   -2.7581   23.2857 H   0  0  0  0  0  0
  -22.4137  -11.9879   22.4788 H   0  0  0  0  0  0
  -21.1114  -13.1238   22.2640 H   0  0  0  0  0  0
  -24.6466  -15.8272   20.4800 H   0  0  0  0  0  0
  -26.2431  -15.6054   19.9791 H   0  0  0  0  0  0
  -26.7170  -32.5435   23.1077 H   0  0  0  0  0  0
  -25.0038  -33.9673   25.0377 H   0  0  0  0  0  0
  -22.7045  -31.2977   21.4005 H   0  0  0  0  0  0
  -23.3714  -35.9658   23.3290 H   0  0  0  0  0  0
  -24.3594  -36.8944   22.2060 H   0  0  0  0  0  0
  -23.7276  -37.6503   23.6676 H   0  0  0  0  0  0
  -26.0625  -31.5598   20.5878 H   0  0  0  0  0  0
  -26.8406  -30.8644   21.9801 H   0  0  0  0  0  0
  -28.1227  -29.0197   21.1429 H   0  0  0  0  0  0
  -26.0014  -25.9037   19.0418 H   0  0  0  0  0  0
  -23.9719  -27.2918   19.0258 H   0  0  0  0  0  0
  -23.7329  -30.5800   19.3955 H   0  0  0  0  0  0
  -22.7495  -29.2315   19.8726 H   0  0  0  0  0  0
  -25.1272  -36.1897   25.0804 H   0  0  0  0  0  0
  -20.9953  -28.3264   24.1432 H   0  0  0  0  0  0
  -20.5636  -26.2291   23.3612 H   0  0  0  0  0  0
  -21.6603  -26.7416   22.1226 H   0  0  0  0  0  0
  -19.6860  -25.6310   21.1241 H   0  0  0  0  0  0
  -19.6669  -27.3210   20.6746 H   0  0  0  0  0  0
  -17.4169  -26.6701   21.4054 H   0  0  0  0  0  0
  -18.0311  -26.0076   22.9033 H   0  0  0  0  0  0
  -19.7920  -30.7279   24.2301 H   0  0  0  0  0  0
  -17.4994  -31.6279   24.5172 H   0  0  0  0  0  0
  -15.5339  -30.3003   23.7635 H   0  0  0  0  0  0
  -15.8653  -28.0828   22.7064 H   0  0  0  0  0  0
  -24.5939  -30.7041   25.7832 H   0  0  0  0  0  0
  -24.8978  -32.2867   26.4908 H   0  0  0  0  0  0
  -25.8155  -30.8892   27.0203 H   0  0  0  0  0  0
  -26.2862  -29.6794   24.1092 H   0  0  0  0  0  0
  -27.3978  -29.7198   25.4601 H   0  0  0  0  0  0
  -27.8746  -30.4240   23.9314 H   0  0  0  0  0  0
  -27.2631  -33.3569   26.2108 H   0  0  0  0  0  0
  -28.3884  -32.6944   25.0364 H   0  0  0  0  0  0
  -28.0707  -31.8400   26.5410 H   0  0  0  0  0  0
  -28.2577  -38.0105   24.7459 H   0  0  0  0  0  0
  -28.1063  -36.2627   24.6321 H   0  0  0  0  0  0
  -27.2290  -37.1512   25.8871 H   0  0  0  0  0  0
  -20.9371  -29.8769   21.6932 H   0  0  0  0  0  0
  -26.0141  -38.2807   24.1435 H   0  0  0  0  0  0
  -31.6394  -19.9770   19.8240 H   0  0  0  0  0  0
  -31.7784  -17.5343   20.0088 H   0  0  0  0  0  0
  -27.6169  -17.4390   21.1198 H   0  0  0  0  0  0
  -29.0203  -24.7452   16.2641 H   0  0  0  0  0  0
  -27.3391  -24.6228   17.0209 H   0  0  0  0  0  0
  -30.0517  -24.1313   18.3667 H   0  0  0  0  0  0
  -29.2543  -24.9769   21.1434 H   0  0  0  0  0  0
  -27.5366  -25.0308   21.3606 H   0  0  0  0  0  0
  -27.1486  -23.9046   19.2708 H   0  0  0  0  0  0
  -28.8127  -15.3883   21.0833 H   0  0  0  0  0  0
  -27.5683  -21.9142   20.1091 H   0  0  0  0  0  0
  1 25  1  0  0  0
  1 30  2  0  0  0
  1 82  1  0  0  0
  2  3  1  0  0  0
  2 25  1  0  0  0
  2 86  1  0  0  0
  2 87  1  0  0  0
  3  4  1  0  0  0
  3 88  1  0  0  0
  3 89  1  0  0  0
  4  5  1  0  0  0
  4 90  1  0  0  0
  4 91  1  0  0  0
  5  6  1  0  0  0
  5 26  1  0  0  0
  5 92  1  0  0  0
  6 25  1  0  0  0
  6 93  1  0  0  0
  6 94  1  0  0  0
  7  8  2  0  0  0
  7 26  1  0  0  0
  7 29  1  0  0  0
  8  9  1  0  0  0
  8 22  1  0  0  0
  9 10  1  0  0  0
  9 27  2  0  0  0
 10 11  2  0  0  0
 10 15  1  0  0  0
 11 12  1  0  0  0
 11 95  1  0  0  0
 12 13  2  0  0  0
 12 96  1  0  0  0
 13 14  1  0  0  0
 13 31  1  0  0  0
 14 15  2  0  0  0
 14 97  1  0  0  0
 15 98  1  0  0  0
 16 17  2  0  0  0
 16 21  1  0  0  0
 16 31  1  0  0  0
 17 18  1  0  0  0
 17 99  1  0  0  0
 18 19  2  0  0  0
 18100  1  0  0  0
 19 20  1  0  0  0
 19 24  1  0  0  0
 20 21  2  0  0  0
 20101  1  0  0  0
 21 23  1  0  0  0
 22 28  1  0  0  0
 22 32  2  0  0  0
 26 27  1  0  0  0
 28102  1  0  0  0
 28103  1  0  0  0
 29104  1  0  0  0
 29105  1  0  0  0
 33 34  1  0  0  0
 33 66  1  0  0  0
 33 70  2  0  0  0
 34 36  1  0  0  0
 34 59  1  0  0  0
 34106  1  0  0  0
 35 44  2  0  0  0
 35 45  1  0  0  0
 35 68  1  0  0  0
 36 56  1  0  0  0
 36107  1  0  0  0
 37 39  1  0  0  0
 37 47  1  0  0  0
 37 66  1  0  0  0
 37108  1  0  0  0
 38 43  2  0  0  0
 38 46  1  0  0  0
 38 47  1  0  0  0
 39 64  1  0  0  0
 39 67  2  0  0  0
 40 52  1  0  0  0
 40 53  2  0  0  0
 40 58  1  0  0  0
 41109  1  0  0  0
 41110  1  0  0  0
 41111  1  0  0  0
 41 48  1  0  0  0
 42 43  1  0  0  0
 42 66  1  0  0  0
 42112  1  0  0  0
 42113  1  0  0  0
 43 44  1  0  0  0
 44114  1  0  0  0
 45 46  2  0  0  0
 45115  1  0  0  0
 46116  1  0  0  0
 47117  1  0  0  0
 47118  1  0  0  0
 48 56  1  0  0  0
 48 65  1  0  0  0
 48119  1  0  0  0
 49 50  1  0  0  0
 49 53  1  0  0  0
 49 64  1  0  0  0
 49120  1  0  0  0
 50 51  1  0  0  0
 50121  1  0  0  0
 50122  1  0  0  0
 51 52  1  0  0  0
 51123  1  0  0  0
 51124  1  0  0  0
 52125  1  0  0  0
 52126  1  0  0  0
 53 54  1  0  0  0
 54 55  2  0  0  0
 54127  1  0  0  0
 55 57  1  0  0  0
 55128  1  0  0  0
 56 69  2  0  0  0
 57 58  2  0  0  0
 57129  1  0  0  0
 58130  1  0  0  0
 59 60  1  0  0  0
 59 61  1  0  0  0
 59 62  1  0  0  0
 60131  1  0  0  0
 60132  1  0  0  0
 60133  1  0  0  0
 61134  1  0  0  0
 61135  1  0  0  0
 61136  1  0  0  0
 62137  1  0  0  0
 62138  1  0  0  0
 62139  1  0  0  0
 63 65  1  0  0  0
 63140  1  0  0  0
 63141  1  0  0  0
 63142  1  0  0  0
 64143  1  0  0  0
 65144  1  0  0  0
 68 80  1  0  0  0
 71 72  2  0  0  0
 71 74  1  0  0  0
 71145  1  0  0  0
 72 75  1  0  0  0
 72146  1  0  0  0
 73 75  2  0  0  0
 73 76  1  0  0  0
 73147  1  0  0  0
 74 76  2  0  0  0
 74 79  1  0  0  0
 75 82  1  0  0  0
 76 85  1  0  0  0
 77 78  2  0  0  0
 77148  1  0  0  0
 77149  1  0  0  0
 78 81  1  0  0  0
 78150  1  0  0  0
 79 83  1  0  0  0
 79 84  2  0  0  0
 80151  1  0  0  0
 80152  1  0  0  0
 80 81  1  0  0  0
 81 83  1  0  0  0
 81153  1  0  0  0
 82154  1  0  0  0
 83155  1  0  0  0
M  ISO  4   1 100  68 101  80 101  82 100
M  END
> <chiral flag>
0

> <version>
0

> <s_m_source_file>
/data/baiqing/PycharmProjects/Reinvent-master-3.2/result/LINK_invent/BTK/process_docking_weight1_custom_product_contain_oxygen_bond_distance_aromatic_linkinvent_7_9_3/rearranged_h_0064.sdf

> <i_m_source_file_index>
11

> <r_mmod_Potential_Energy-OPLS-2005>
72.9069366455078

> <r_mmod_Stretch_Energy-OPLS-2005>
91.0130004882812

> <r_mmod_Bend_Energy-OPLS-2005>
165.164123535156

> <r_mmod_Torsional_Energy-OPLS-2005>
232.012725830078

> <r_mmod_Improper_Torsional_Energy-OPLS-2005>
5.5802059173584

> <r_mmod_Van_der_Waal_Energy-OPLS-2005>
134.294860839844

> <r_mmod_Electrostatic_Energy-OPLS-2005>
-393.972198486328

> <r_mmod_Solvation_Energy-OPLS-2005>
-220.551574707031

> <b_mmod_Minimization_Converged-OPLS-2005>
0

> <r_mmod_RMS_Derivative-OPLS-2005>
3.63991785049438

$$$$
11
                    3D
 Structure written by MMmdl.
154162  0  0  1  0            999 V2000
  -30.6338  -14.7361   20.3943 C   0  0  0  0  0  0
  -30.4262  -12.4371   19.4686 C   0  0  0  0  0  0
  -29.5063  -12.4917   18.2295 C   0  0  0  0  0  0
  -28.0341  -12.3226   18.6482 C   0  0  0  0  0  0
  -27.6411  -13.2335   19.8424 C   0  0  2  0  0  0
  -28.6902  -13.1904   20.9762 C   0  0  0  0  0  0
  -25.2510  -13.8209   20.5669 C   0  0  0  0  0  0
  -24.1818  -13.0449   20.9202 C   0  0  0  0  0  0
  -24.6421  -11.6925   20.8759 C   0  0  0  0  0  0
  -23.9098  -10.4301   21.0424 C   0  0  0  0  0  0
  -24.3639   -9.4205   21.9189 C   0  0  0  0  0  0
  -23.6309   -8.2246   22.0753 C   0  0  0  0  0  0
  -22.4286   -8.0289   21.3552 C   0  0  0  0  0  0
  -21.9932   -9.0264   20.4645 C   0  0  0  0  0  0
  -22.7275  -10.2143   20.3060 C   0  0  0  0  0  0
  -21.6852   -6.0744   22.5281 C   0  0  0  0  0  0
  -21.4015   -6.5642   23.8213 C   0  0  0  0  0  0
  -21.3656   -5.6789   24.9179 C   0  0  0  0  0  0
  -21.6045   -4.3059   24.7229 C   0  0  0  0  0  0
  -21.8820   -3.8152   23.4348 C   0  0  0  0  0  0
  -21.9197   -4.6967   22.3411 C   0  0  0  0  0  0
  -22.7833  -13.5213   21.1857 C   0  0  0  0  0  0
  -22.1663   -4.2149   21.0991 F   0  0  0  0  0  0
  -21.5627   -3.4542   25.7750 F   0  0  0  0  0  0
  -29.9928  -13.5173   20.3848 N   0  0  0  0  0  0
  -26.2940  -12.9414   20.3257 N   0  0  0  0  0  0
  -25.9345  -11.6553   20.5754 N   0  0  0  0  0  0
  -22.0497  -12.8198   22.0415 N   0  0  0  0  0  0
  -25.4207  -15.1938   20.4065 N   0  0  0  0  0  0
  -31.8387  -14.7798   20.1368 O   0  0  0  0  0  0
  -21.6648   -6.8893   21.4246 O   0  0  0  0  0  0
  -22.3518  -14.5528   20.6718 O   0  0  0  0  0  0
  -24.6318  -31.8556   23.1976 C   0  0  0  0  0  0
  -25.9148  -32.4741   23.8309 C   0  0  1  0  0  0
  -27.2308  -27.2752   20.1040 C   0  0  0  0  0  0
  -25.5962  -33.8541   24.2252 N   0  0  0  0  0  0
  -23.4261  -30.4783   21.5411 C   0  0  2  0  0  0
  -24.8715  -28.9235   20.1097 C   0  0  0  0  0  0
  -22.7507  -29.4609   22.4914 C   0  0  0  0  0  0
  -18.0291  -28.1381   22.8471 C   0  0  0  0  0  0
  -24.1496  -36.7278   23.2638 C   0  0  0  0  0  0
  -25.9728  -30.7685   21.3773 C   0  0  0  0  0  0
  -26.0419  -29.3931   20.7155 C   0  0  0  0  0  0
  -27.2167  -28.5791   20.7052 C   0  0  0  0  0  0
  -26.0242  -26.8610   19.4917 C   0  0  0  0  0  0
  -24.8653  -27.6633   19.4924 C   0  0  0  0  0  0
  -23.6430  -29.8111   20.1574 C   0  0  0  0  0  0
  -25.4117  -36.3064   24.0343 C   0  0  1  0  0  0
  -20.5906  -28.3696   23.1261 C   0  0  2  0  0  0
  -20.6792  -26.9411   22.5407 C   0  0  0  0  0  0
  -19.5767  -26.6385   21.5207 C   0  0  0  0  0  0
  -18.1941  -26.7927   22.1614 C   0  0  0  0  0  0
  -19.1554  -28.8859   23.2851 C   0  0  0  0  0  0
  -18.9487  -30.1455   23.8869 C   0  0  0  0  0  0
  -17.6488  -30.6577   24.0557 C   0  0  0  0  0  0
  -25.9075  -34.9432   23.5099 C   0  0  0  0  0  0
  -16.5369  -29.9085   23.6329 C   0  0  0  0  0  0
  -16.7285  -28.6508   23.0338 C   0  0  0  0  0  0
  -26.4506  -31.6571   25.0695 C   0  0  0  0  0  0
  -25.3737  -31.3742   26.1431 C   0  0  0  0  0  0
  -27.0382  -30.2998   24.6195 C   0  0  0  0  0  0
  -27.6048  -32.4329   25.7481 C   0  0  0  0  0  0
  -27.5581  -37.1773   24.8452 C   0  0  0  0  0  0
  -21.4220  -29.3033   22.3664 N   0  0  0  0  0  0
  -26.4272  -37.3772   23.9440 N   0  0  0  0  0  0
  -24.6959  -31.0531   22.0947 N   0  0  0  0  0  0
  -23.4224  -28.8155   23.3000 O   0  0  0  0  0  0
  -28.3677  -26.4353   20.1710 O   0  0  0  0  0  0
  -26.5641  -34.8907   22.4664 O   0  0  0  0  0  0
  -23.5482  -32.1375   23.7294 O   0  0  0  0  0  0
  -31.3388  -18.6577   18.3074 C   0  0  0  0  0  0
  -30.7392  -19.8389   18.7789 C   0  0  0  0  0  0
  -31.0552  -17.4072   18.8832 C   0  0  0  0  0  0
  -29.5122  -18.5099   20.4154 C   0  0  0  0  0  0
  -29.7993  -19.8285   19.8368 C   0  0  0  0  0  0
  -30.1546  -17.2719   19.9654 C   0  0  0  0  0  0
  -29.1227  -22.3641   19.6613 C   0  0  0  0  0  0
  -28.4821  -18.4003   21.5254 C   0  0  0  0  0  0
  -28.7649  -23.7308   20.4199 C   0  0  0  0  0  0
  -28.4698  -25.0698   19.5522 C   0  0  0  0  0  0
  -29.2603  -21.1391   20.3135 N   0  0  0  0  0  0
  -29.8803  -15.9018   20.4968 N   0  0  0  0  0  0
  -29.2494  -22.4370   18.4372 O   0  0  0  0  0  0
  -31.4697  -12.5404   19.1643 H   0  0  0  0  0  0
  -30.3555  -11.4655   19.9598 H   0  0  0  0  0  0
  -29.7843  -11.7153   17.5150 H   0  0  0  0  0  0
  -29.6355  -13.4443   17.7115 H   0  0  0  0  0  0
  -27.8942  -11.2762   18.9232 H   0  0  0  0  0  0
  -27.3741  -12.5022   17.7986 H   0  0  0  0  0  0
  -27.6306  -14.2493   19.4461 H   0  0  0  0  0  0
  -28.7189  -12.2047   21.4434 H   0  0  0  0  0  0
  -28.4332  -13.8981   21.7654 H   0  0  0  0  0  0
  -25.2787   -9.5670   22.4751 H   0  0  0  0  0  0
  -24.0012   -7.4639   22.7466 H   0  0  0  0  0  0
  -21.0858   -8.8796   19.8951 H   0  0  0  0  0  0
  -22.3743  -10.9679   19.6158 H   0  0  0  0  0  0
  -21.2003   -7.6147   23.9719 H   0  0  0  0  0  0
  -21.1468   -6.0527   25.9083 H   0  0  0  0  0  0
  -22.0601   -2.7608   23.2861 H   0  0  0  0  0  0
  -22.4119  -11.9856   22.4799 H   0  0  0  0  0  0
  -21.1104  -13.1196   22.2625 H   0  0  0  0  0  0
  -24.6463  -15.8418   20.5013 H   0  0  0  0  0  0
  -26.2598  -15.6303   20.0468 H   0  0  0  0  0  0
  -26.7210  -32.5380   23.1045 H   0  0  0  0  0  0
  -25.0088  -33.9660   25.0388 H   0  0  0  0  0  0
  -22.7200  -31.3006   21.3951 H   0  0  0  0  0  0
  -23.3761  -35.9592   23.3285 H   0  0  0  0  0  0
  -24.3578  -36.8916   22.2046 H   0  0  0  0  0  0
  -23.7231  -37.6456   23.6675 H   0  0  0  0  0  0
  -26.1201  -31.5310   20.6111 H   0  0  0  0  0  0
  -26.8470  -30.8089   22.0151 H   0  0  0  0  0  0
  -28.1152  -28.9326   21.1916 H   0  0  0  0  0  0
  -25.9220  -25.8951   19.0267 H   0  0  0  0  0  0
  -23.9628  -27.2914   19.0266 H   0  0  0  0  0  0
  -23.7709  -30.5877   19.4019 H   0  0  0  0  0  0
  -22.7594  -29.2499   19.8482 H   0  0  0  0  0  0
  -25.1281  -36.1894   25.0836 H   0  0  0  0  0  0
  -20.9981  -28.3302   24.1391 H   0  0  0  0  0  0
  -20.5731  -26.2299   23.3621 H   0  0  0  0  0  0
  -21.6659  -26.7458   22.1178 H   0  0  0  0  0  0
  -19.6936  -25.6305   21.1227 H   0  0  0  0  0  0
  -19.6710  -27.3209   20.6763 H   0  0  0  0  0  0
  -17.4223  -26.6679   21.4006 H   0  0  0  0  0  0
  -18.0312  -26.0056   22.9006 H   0  0  0  0  0  0
  -19.7971  -30.7249   24.2241 H   0  0  0  0  0  0
  -17.5058  -31.6258   24.5164 H   0  0  0  0  0  0
  -15.5370  -30.2976   23.7681 H   0  0  0  0  0  0
  -15.8686  -28.0822   22.7061 H   0  0  0  0  0  0
  -24.5909  -30.7090   25.7786 H   0  0  0  0  0  0
  -24.8922  -32.2916   26.4814 H   0  0  0  0  0  0
  -25.8056  -30.8948   27.0237 H   0  0  0  0  0  0
  -26.2980  -29.6706   24.1231 H   0  0  0  0  0  0
  -27.4095  -29.7273   25.4694 H   0  0  0  0  0  0
  -27.8840  -30.4268   23.9438 H   0  0  0  0  0  0
  -27.2638  -33.3653   26.2009 H   0  0  0  0  0  0
  -28.3888  -32.6873   25.0340 H   0  0  0  0  0  0
  -28.0689  -31.8489   26.5441 H   0  0  0  0  0  0
  -28.2547  -38.0116   24.7573 H   0  0  0  0  0  0
  -28.1137  -36.2647   24.6193 H   0  0  0  0  0  0
  -27.2315  -37.1321   25.8852 H   0  0  0  0  0  0
  -20.9436  -29.8743   21.6840 H   0  0  0  0  0  0
  -26.0154  -38.2843   24.1473 H   0  0  0  0  0  0
  -32.0387  -18.7124   17.4850 H   0  0  0  0  0  0
  -31.0383  -20.7642   18.3077 H   0  0  0  0  0  0
  -31.5408  -16.5454   18.4491 H   0  0  0  0  0  0
  -27.9828  -19.3482   21.7202 H   0  0  0  0  0  0
  -28.9505  -18.0656   22.4513 H   0  0  0  0  0  0
  -27.7112  -17.6779   21.2511 H   0  0  0  0  0  0
  -29.6075  -23.9456   21.0770 H   0  0  0  0  0  0
  -27.9131  -23.5363   21.0709 H   0  0  0  0  0  0
  -27.6455  -24.8553   18.8786 H   0  0  0  0  0  0
  -29.3136  -25.1770   18.8703 H   0  0  0  0  0  0
  -29.0080  -21.1603   21.2929 H   0  0  0  0  0  0
  -28.9474  -15.7639   20.8543 H   0  0  0  0  0  0
  1 25  1  0  0  0
  1 30  2  0  0  0
  1 82  1  0  0  0
  2  3  1  0  0  0
  2 25  1  0  0  0
  2 84  1  0  0  0
  2 85  1  0  0  0
  3  4  1  0  0  0
  3 86  1  0  0  0
  3 87  1  0  0  0
  4  5  1  0  0  0
  4 88  1  0  0  0
  4 89  1  0  0  0
  5  6  1  0  0  0
  5 26  1  0  0  0
  5 90  1  0  0  0
  6 25  1  0  0  0
  6 91  1  0  0  0
  6 92  1  0  0  0
  7  8  2  0  0  0
  7 26  1  0  0  0
  7 29  1  0  0  0
  8  9  1  0  0  0
  8 22  1  0  0  0
  9 10  1  0  0  0
  9 27  2  0  0  0
 10 11  2  0  0  0
 10 15  1  0  0  0
 11 12  1  0  0  0
 11 93  1  0  0  0
 12 13  2  0  0  0
 12 94  1  0  0  0
 13 14  1  0  0  0
 13 31  1  0  0  0
 14 15  2  0  0  0
 14 95  1  0  0  0
 15 96  1  0  0  0
 16 17  2  0  0  0
 16 21  1  0  0  0
 16 31  1  0  0  0
 17 18  1  0  0  0
 17 97  1  0  0  0
 18 19  2  0  0  0
 18 98  1  0  0  0
 19 20  1  0  0  0
 19 24  1  0  0  0
 20 21  2  0  0  0
 20 99  1  0  0  0
 21 23  1  0  0  0
 22 28  1  0  0  0
 22 32  2  0  0  0
 26 27  1  0  0  0
 28100  1  0  0  0
 28101  1  0  0  0
 29102  1  0  0  0
 29103  1  0  0  0
 33 34  1  0  0  0
 33 66  1  0  0  0
 33 70  2  0  0  0
 34 36  1  0  0  0
 34 59  1  0  0  0
 34104  1  0  0  0
 35 44  2  0  0  0
 35 45  1  0  0  0
 35 68  1  0  0  0
 36 56  1  0  0  0
 36105  1  0  0  0
 37 39  1  0  0  0
 37 47  1  0  0  0
 37 66  1  0  0  0
 37106  1  0  0  0
 38 43  2  0  0  0
 38 46  1  0  0  0
 38 47  1  0  0  0
 39 64  1  0  0  0
 39 67  2  0  0  0
 40 52  1  0  0  0
 40 53  2  0  0  0
 40 58  1  0  0  0
 41107  1  0  0  0
 41108  1  0  0  0
 41109  1  0  0  0
 41 48  1  0  0  0
 42 43  1  0  0  0
 42 66  1  0  0  0
 42110  1  0  0  0
 42111  1  0  0  0
 43 44  1  0  0  0
 44112  1  0  0  0
 45 46  2  0  0  0
 45113  1  0  0  0
 46114  1  0  0  0
 47115  1  0  0  0
 47116  1  0  0  0
 48 56  1  0  0  0
 48 65  1  0  0  0
 48117  1  0  0  0
 49 50  1  0  0  0
 49 53  1  0  0  0
 49 64  1  0  0  0
 49118  1  0  0  0
 50 51  1  0  0  0
 50119  1  0  0  0
 50120  1  0  0  0
 51 52  1  0  0  0
 51121  1  0  0  0
 51122  1  0  0  0
 52123  1  0  0  0
 52124  1  0  0  0
 53 54  1  0  0  0
 54 55  2  0  0  0
 54125  1  0  0  0
 55 57  1  0  0  0
 55126  1  0  0  0
 56 69  2  0  0  0
 57 58  2  0  0  0
 57127  1  0  0  0
 58128  1  0  0  0
 59 60  1  0  0  0
 59 61  1  0  0  0
 59 62  1  0  0  0
 60129  1  0  0  0
 60130  1  0  0  0
 60131  1  0  0  0
 61132  1  0  0  0
 61133  1  0  0  0
 61134  1  0  0  0
 62135  1  0  0  0
 62136  1  0  0  0
 62137  1  0  0  0
 63 65  1  0  0  0
 63138  1  0  0  0
 63139  1  0  0  0
 63140  1  0  0  0
 64141  1  0  0  0
 65142  1  0  0  0
 68 80  1  0  0  0
 71 72  2  0  0  0
 71 73  1  0  0  0
 71143  1  0  0  0
 72 75  1  0  0  0
 72144  1  0  0  0
 73 76  2  0  0  0
 73145  1  0  0  0
 74 75  2  0  0  0
 74 76  1  0  0  0
 74 78  1  0  0  0
 75 81  1  0  0  0
 76 82  1  0  0  0
 77 79  1  0  0  0
 77 81  1  0  0  0
 77 83  2  0  0  0
 78146  1  0  0  0
 78147  1  0  0  0
 78148  1  0  0  0
 79 80  1  0  0  0
 79149  1  0  0  0
 79150  1  0  0  0
 80151  1  0  0  0
 80152  1  0  0  0
 81153  1  0  0  0
 82154  1  0  0  0
M  ISO  4   1 100  68 101  80 101  82 100
M  END
> <chiral flag>
0

> <version>
0

> <s_m_source_file>
/data/baiqing/PycharmProjects/Reinvent-master-3.2/result/LINK_invent/BTK/process_docking_weight1_custom_product_contain_oxygen_bond_distance_aromatic_linkinvent_7_9_3/rearranged_h_0064.sdf

> <i_m_source_file_index>
12

> <r_mmod_Potential_Energy-OPLS-2005>
117.764953613281

> <r_mmod_Stretch_Energy-OPLS-2005>
129.998931884766

> <r_mmod_Bend_Energy-OPLS-2005>
169.362945556641

> <r_mmod_Torsional_Energy-OPLS-2005>
234.195861816406

> <r_mmod_Improper_Torsional_Energy-OPLS-2005>
5.24265193939209

> <r_mmod_Van_der_Waal_Energy-OPLS-2005>
147.551635742188

> <r_mmod_Electrostatic_Energy-OPLS-2005>
-415.662475585938

> <r_mmod_Solvation_Energy-OPLS-2005>
-232.739059448242

> <b_mmod_Minimization_Converged-OPLS-2005>
0

> <r_mmod_RMS_Derivative-OPLS-2005>
2.96246910095215

$$$$
12
                    3D
 Structure written by MMmdl.
172181  0  0  1  0            999 V2000
  -30.7678  -14.3884   20.6901 C   0  0  0  0  0  0
  -30.4156  -12.3077   19.3937 C   0  0  0  0  0  0
  -29.4817  -12.5328   18.1899 C   0  0  0  0  0  0
  -28.0049  -12.3864   18.6072 C   0  0  0  0  0  0
  -27.6607  -13.2098   19.8753 C   0  0  2  0  0  0
  -28.7015  -12.9629   20.9873 C   0  0  0  0  0  0
  -25.2563  -13.8175   20.5687 C   0  0  0  0  0  0
  -24.1819  -13.0438   20.9172 C   0  0  0  0  0  0
  -24.6375  -11.6908   20.8720 C   0  0  0  0  0  0
  -23.9047  -10.4289   21.0388 C   0  0  0  0  0  0
  -24.3602   -9.4203   21.9166 C   0  0  0  0  0  0
  -23.6277   -8.2244   22.0748 C   0  0  0  0  0  0
  -22.4255   -8.0285   21.3551 C   0  0  0  0  0  0
  -21.9894   -9.0249   20.4640 C   0  0  0  0  0  0
  -22.7220  -10.2120   20.3036 C   0  0  0  0  0  0
  -21.6843   -6.0723   22.5278 C   0  0  0  0  0  0
  -21.4010   -6.5631   23.8207 C   0  0  0  0  0  0
  -21.3667   -5.6790   24.9179 C   0  0  0  0  0  0
  -21.6046   -4.3052   24.7227 C   0  0  0  0  0  0
  -21.8816   -3.8133   23.4353 C   0  0  0  0  0  0
  -21.9190   -4.6951   22.3401 C   0  0  0  0  0  0
  -22.7840  -13.5227   21.1855 C   0  0  0  0  0  0
  -22.1654   -4.2126   21.0981 F   0  0  0  0  0  0
  -21.5638   -3.4542   25.7744 F   0  0  0  0  0  0
  -30.0404  -13.2669   20.4437 N   0  0  0  0  0  0
  -26.3008  -12.9348   20.3370 N   0  0  0  0  0  0
  -25.9298  -11.6496   20.5750 N   0  0  0  0  0  0
  -22.0490  -12.8208   22.0410 N   0  0  0  0  0  0
  -25.4311  -15.1890   20.4115 N   0  0  0  0  0  0
  -31.8253  -14.6489   20.1101 O   0  0  0  0  0  0
  -21.6645   -6.8864   21.4233 O   0  0  0  0  0  0
  -22.3509  -14.5532   20.6712 O   0  0  0  0  0  0
  -24.6165  -31.8712   23.2110 C   0  0  0  0  0  0
  -25.9062  -32.4842   23.8392 C   0  0  1  0  0  0
  -27.2211  -27.4444   20.0645 C   0  0  0  0  0  0
  -25.5939  -33.8640   24.2351 N   0  0  0  0  0  0
  -23.4024  -30.4993   21.5537 C   0  0  2  0  0  0
  -24.8385  -28.9718   20.1179 C   0  0  0  0  0  0
  -22.7417  -29.4681   22.4977 C   0  0  0  0  0  0
  -18.0284  -28.1390   22.8502 C   0  0  0  0  0  0
  -24.1504  -36.7279   23.2637 C   0  0  0  0  0  0
  -25.9327  -30.8417   21.3585 C   0  0  0  0  0  0
  -26.0068  -29.4780   20.7025 C   0  0  0  0  0  0
  -27.2022  -28.7219   20.6728 C   0  0  0  0  0  0
  -26.0128  -26.9321   19.5379 C   0  0  0  0  0  0
  -24.8355  -27.6954   19.5383 C   0  0  0  0  0  0
  -23.6068  -29.8434   20.1655 C   0  0  0  0  0  0
  -25.4128  -36.3115   24.0358 C   0  0  1  0  0  0
  -20.5871  -28.3669   23.1321 C   0  0  2  0  0  0
  -20.6789  -26.9401   22.5412 C   0  0  0  0  0  0
  -19.5764  -26.6388   21.5220 C   0  0  0  0  0  0
  -18.1936  -26.7948   22.1612 C   0  0  0  0  0  0
  -19.1530  -28.8844   23.2924 C   0  0  0  0  0  0
  -18.9459  -30.1458   23.8924 C   0  0  0  0  0  0
  -17.6458  -30.6600   24.0565 C   0  0  0  0  0  0
  -25.9053  -34.9485   23.5132 C   0  0  0  0  0  0
  -16.5342  -29.9102   23.6326 C   0  0  0  0  0  0
  -16.7267  -28.6524   23.0337 C   0  0  0  0  0  0
  -26.4476  -31.6607   25.0712 C   0  0  0  0  0  0
  -25.3743  -31.3706   26.1456 C   0  0  0  0  0  0
  -27.0289  -30.3066   24.6030 C   0  0  0  0  0  0
  -27.6057  -32.4298   25.7491 C   0  0  0  0  0  0
  -27.5595  -37.1802   24.8481 C   0  0  0  0  0  0
  -21.4146  -29.3055   22.3741 N   0  0  0  0  0  0
  -26.4309  -37.3796   23.9435 N   0  0  0  0  0  0
  -24.6700  -31.0837   22.0994 N   0  0  0  0  0  0
  -23.4214  -28.8209   23.2974 O   0  0  0  0  0  0
  -28.3984  -26.7207   20.0040 O   0  0  0  0  0  0
  -26.5552  -34.8925   22.4656 O   0  0  0  0  0  0
  -23.5357  -32.1411   23.7528 O   0  0  0  0  0  0
  -32.4033  -20.6601   19.9668 C   0  0  0  0  0  0
  -33.0322  -19.4203   20.1420 C   0  0  0  0  0  0
  -30.5438  -19.8755   21.2918 C   0  0  0  0  0  0
  -31.1681  -18.6100   21.5121 C   0  0  0  0  0  0
  -31.1395  -20.9386   20.5494 C   0  0  0  0  0  0
  -32.4418  -18.4081   20.9127 C   0  0  0  0  0  0
  -28.4871  -23.6935   20.0769 C   0  0  0  0  0  0
  -29.3127  -22.6198   20.8822 C   0  0  0  0  0  0
  -30.6866  -24.6351   19.4018 C   0  0  0  0  0  0
  -31.3250  -23.2491   19.5892 C   0  0  0  0  0  0
  -29.2131  -24.5279   18.9973 C   0  0  1  0  0  0
  -29.0733  -23.7961   17.6336 C   0  0  0  0  0  0
  -28.9631  -17.5733   22.3324 C   0  0  0  0  0  0
  -30.7963  -18.1734   23.9150 C   0  0  0  0  0  0
  -28.6172  -25.9535   18.8051 C   0  0  0  0  0  0
  -31.0190  -16.1212   22.5012 C   0  0  0  0  0  0
  -30.5041  -17.6094   22.5071 C   0  0  0  0  0  0
  -30.5263  -22.2538   20.3539 N   0  0  0  0  0  0
  -30.2829  -15.1683   21.6627 N   0  0  0  0  0  0
  -27.2717  -23.8352   20.2678 O   0  0  0  0  0  0
  -28.8514  -22.1937   21.9503 O   0  0  0  0  0  0
  -33.1643  -17.2798   21.0745 F   0  0  0  0  0  0
  -31.4577  -12.4106   19.0876 H   0  0  0  0  0  0
  -30.3192  -11.2868   19.7683 H   0  0  0  0  0  0
  -29.7137  -11.8280   17.3900 H   0  0  0  0  0  0
  -29.6519  -13.5297   17.7797 H   0  0  0  0  0  0
  -27.8113  -11.3295   18.7894 H   0  0  0  0  0  0
  -27.3505  -12.6796   17.7850 H   0  0  0  0  0  0
  -27.7133  -14.2632   19.5981 H   0  0  0  0  0  0
  -28.6721  -11.9191   21.3035 H   0  0  0  0  0  0
  -28.4422  -13.5370   21.8759 H   0  0  0  0  0  0
  -25.2740   -9.5688   22.4745 H   0  0  0  0  0  0
  -23.9985   -7.4634   22.7470 H   0  0  0  0  0  0
  -21.0827   -8.8753   19.8950 H   0  0  0  0  0  0
  -22.3668  -10.9655   19.6145 H   0  0  0  0  0  0
  -21.1996   -7.6136   23.9700 H   0  0  0  0  0  0
  -21.1495   -6.0529   25.9081 H   0  0  0  0  0  0
  -22.0584   -2.7593   23.2861 H   0  0  0  0  0  0
  -22.4100  -11.9849   22.4766 H   0  0  0  0  0  0
  -21.1116  -13.1235   22.2654 H   0  0  0  0  0  0
  -24.6734  -15.8530   20.5330 H   0  0  0  0  0  0
  -26.2963  -15.6257   20.1181 H   0  0  0  0  0  0
  -26.7143  -32.5567   23.1168 H   0  0  0  0  0  0
  -25.0264  -33.9834   25.0613 H   0  0  0  0  0  0
  -22.6922  -31.3175   21.4237 H   0  0  0  0  0  0
  -23.3793  -35.9580   23.3304 H   0  0  0  0  0  0
  -24.3592  -36.8834   22.2038 H   0  0  0  0  0  0
  -23.7227  -37.6485   23.6616 H   0  0  0  0  0  0
  -26.0467  -31.6143   20.5968 H   0  0  0  0  0  0
  -26.8232  -30.8881   21.9716 H   0  0  0  0  0  0
  -28.1142  -29.1244   21.0927 H   0  0  0  0  0  0
  -25.9458  -25.9305   19.1357 H   0  0  0  0  0  0
  -23.9290  -27.2872   19.1154 H   0  0  0  0  0  0
  -23.7256  -30.6273   19.4167 H   0  0  0  0  0  0
  -22.7276  -29.2731   19.8617 H   0  0  0  0  0  0
  -25.1303  -36.1953   25.0851 H   0  0  0  0  0  0
  -20.9980  -28.3196   24.1425 H   0  0  0  0  0  0
  -20.5727  -26.2235   23.3577 H   0  0  0  0  0  0
  -21.6662  -26.7482   22.1163 H   0  0  0  0  0  0
  -19.6934  -25.6308   21.1237 H   0  0  0  0  0  0
  -19.6731  -27.3206   20.6764 H   0  0  0  0  0  0
  -17.4215  -26.6703   21.3999 H   0  0  0  0  0  0
  -18.0322  -26.0106   22.9022 H   0  0  0  0  0  0
  -19.7933  -30.7290   24.2269 H   0  0  0  0  0  0
  -17.5009  -31.6279   24.5165 H   0  0  0  0  0  0
  -15.5344  -30.2995   23.7690 H   0  0  0  0  0  0
  -15.8666  -28.0874   22.7001 H   0  0  0  0  0  0
  -24.5990  -30.6968   25.7801 H   0  0  0  0  0  0
  -24.8878  -32.2859   26.4833 H   0  0  0  0  0  0
  -25.8117  -30.8958   27.0251 H   0  0  0  0  0  0
  -26.2814  -29.6855   24.1101 H   0  0  0  0  0  0
  -27.4105  -29.7257   25.4429 H   0  0  0  0  0  0
  -27.8620  -30.4411   23.9135 H   0  0  0  0  0  0
  -27.2711  -33.3621   26.2054 H   0  0  0  0  0  0
  -28.3904  -32.6799   25.0343 H   0  0  0  0  0  0
  -28.0687  -31.8424   26.5422 H   0  0  0  0  0  0
  -28.2606  -38.0108   24.7529 H   0  0  0  0  0  0
  -28.1084  -36.2625   24.6299 H   0  0  0  0  0  0
  -27.2294  -37.1418   25.8877 H   0  0  0  0  0  0
  -20.9253  -29.8761   21.6989 H   0  0  0  0  0  0
  -26.0181  -38.2863   24.1436 H   0  0  0  0  0  0
  -32.9438  -21.3795   19.3715 H   0  0  0  0  0  0
  -34.0037  -19.2481   19.7020 H   0  0  0  0  0  0
  -29.5896  -20.0301   21.7560 H   0  0  0  0  0  0
  -31.2457  -25.1928   18.6503 H   0  0  0  0  0  0
  -30.7749  -25.2101   20.3254 H   0  0  0  0  0  0
  -32.2872  -23.3970   20.0834 H   0  0  0  0  0  0
  -31.5423  -22.8432   18.5996 H   0  0  0  0  0  0
  -29.4398  -22.7699   17.6599 H   0  0  0  0  0  0
  -29.6194  -24.3174   16.8466 H   0  0  0  0  0  0
  -28.0283  -23.7426   17.3198 H   0  0  0  0  0  0
  -28.4729  -18.5024   22.6168 H   0  0  0  0  0  0
  -28.5125  -16.8093   22.9657 H   0  0  0  0  0  0
  -28.6826  -17.3507   21.3023 H   0  0  0  0  0  0
  -30.4119  -19.1882   24.0321 H   0  0  0  0  0  0
  -31.8684  -18.2070   24.1150 H   0  0  0  0  0  0
  -30.3375  -17.5710   24.6995 H   0  0  0  0  0  0
  -27.7548  -25.8855   18.1464 H   0  0  0  0  0  0
  -29.3188  -26.5428   18.2137 H   0  0  0  0  0  0
  -30.8234  -15.7159   23.4954 H   0  0  0  0  0  0
  -32.0945  -15.9950   22.4385 H   0  0  0  0  0  0
  -29.3741  -14.8991   22.0081 H   0  0  0  0  0  0
  1 25  1  0  0  0
  1 30  2  0  0  0
  1 89  1  0  0  0
  2  3  1  0  0  0
  2 25  1  0  0  0
  2 93  1  0  0  0
  2 94  1  0  0  0
  3  4  1  0  0  0
  3 95  1  0  0  0
  3 96  1  0  0  0
  4  5  1  0  0  0
  4 97  1  0  0  0
  4 98  1  0  0  0
  5  6  1  0  0  0
  5 26  1  0  0  0
  5 99  1  0  0  0
  6 25  1  0  0  0
  6100  1  0  0  0
  6101  1  0  0  0
  7  8  2  0  0  0
  7 26  1  0  0  0
  7 29  1  0  0  0
  8  9  1  0  0  0
  8 22  1  0  0  0
  9 10  1  0  0  0
  9 27  2  0  0  0
 10 11  2  0  0  0
 10 15  1  0  0  0
 11 12  1  0  0  0
 11102  1  0  0  0
 12 13  2  0  0  0
 12103  1  0  0  0
 13 14  1  0  0  0
 13 31  1  0  0  0
 14 15  2  0  0  0
 14104  1  0  0  0
 15105  1  0  0  0
 16 17  2  0  0  0
 16 21  1  0  0  0
 16 31  1  0  0  0
 17 18  1  0  0  0
 17106  1  0  0  0
 18 19  2  0  0  0
 18107  1  0  0  0
 19 20  1  0  0  0
 19 24  1  0  0  0
 20 21  2  0  0  0
 20108  1  0  0  0
 21 23  1  0  0  0
 22 28  1  0  0  0
 22 32  2  0  0  0
 26 27  1  0  0  0
 28109  1  0  0  0
 28110  1  0  0  0
 29111  1  0  0  0
 29112  1  0  0  0
 33 34  1  0  0  0
 33 66  1  0  0  0
 33 70  2  0  0  0
 34 36  1  0  0  0
 34 59  1  0  0  0
 34113  1  0  0  0
 35 44  2  0  0  0
 35 45  1  0  0  0
 35 68  1  0  0  0
 36 56  1  0  0  0
 36114  1  0  0  0
 37 39  1  0  0  0
 37 47  1  0  0  0
 37 66  1  0  0  0
 37115  1  0  0  0
 38 43  2  0  0  0
 38 46  1  0  0  0
 38 47  1  0  0  0
 39 64  1  0  0  0
 39 67  2  0  0  0
 40 52  1  0  0  0
 40 53  2  0  0  0
 40 58  1  0  0  0
 41116  1  0  0  0
 41117  1  0  0  0
 41118  1  0  0  0
 41 48  1  0  0  0
 42 43  1  0  0  0
 42 66  1  0  0  0
 42119  1  0  0  0
 42120  1  0  0  0
 43 44  1  0  0  0
 44121  1  0  0  0
 45 46  2  0  0  0
 45122  1  0  0  0
 46123  1  0  0  0
 47124  1  0  0  0
 47125  1  0  0  0
 48 56  1  0  0  0
 48 65  1  0  0  0
 48126  1  0  0  0
 49 50  1  0  0  0
 49 53  1  0  0  0
 49 64  1  0  0  0
 49127  1  0  0  0
 50 51  1  0  0  0
 50128  1  0  0  0
 50129  1  0  0  0
 51 52  1  0  0  0
 51130  1  0  0  0
 51131  1  0  0  0
 52132  1  0  0  0
 52133  1  0  0  0
 53 54  1  0  0  0
 54 55  2  0  0  0
 54134  1  0  0  0
 55 57  1  0  0  0
 55135  1  0  0  0
 56 69  2  0  0  0
 57 58  2  0  0  0
 57136  1  0  0  0
 58137  1  0  0  0
 59 60  1  0  0  0
 59 61  1  0  0  0
 59 62  1  0  0  0
 60138  1  0  0  0
 60139  1  0  0  0
 60140  1  0  0  0
 61141  1  0  0  0
 61142  1  0  0  0
 61143  1  0  0  0
 62144  1  0  0  0
 62145  1  0  0  0
 62146  1  0  0  0
 63 65  1  0  0  0
 63147  1  0  0  0
 63148  1  0  0  0
 63149  1  0  0  0
 64150  1  0  0  0
 65151  1  0  0  0
 68 85  1  0  0  0
 71 72  2  0  0  0
 71 75  1  0  0  0
 71152  1  0  0  0
 72 76  1  0  0  0
 72153  1  0  0  0
 73 74  1  0  0  0
 73 75  2  0  0  0
 73154  1  0  0  0
 74 76  2  0  0  0
 74 87  1  0  0  0
 75 88  1  0  0  0
 76 92  1  0  0  0
 77 78  1  0  0  0
 77 81  1  0  0  0
 77 90  2  0  0  0
 78 88  1  0  0  0
 78 91  2  0  0  0
 79 80  1  0  0  0
 79 81  1  0  0  0
 79155  1  0  0  0
 79156  1  0  0  0
 80 88  1  0  0  0
 80157  1  0  0  0
 80158  1  0  0  0
 81 82  1  0  0  0
 81 85  1  0  0  0
 82159  1  0  0  0
 82160  1  0  0  0
 82161  1  0  0  0
 83162  1  0  0  0
 83163  1  0  0  0
 83164  1  0  0  0
 83 87  1  0  0  0
 84 87  1  0  0  0
 84165  1  0  0  0
 84166  1  0  0  0
 84167  1  0  0  0
 85168  1  0  0  0
 85169  1  0  0  0
 86 87  1  0  0  0
 86 89  1  0  0  0
 86170  1  0  0  0
 86171  1  0  0  0
 89172  1  0  0  0
M  ISO  4   1 100  68 101  85 101  89 100
M  END
> <chiral flag>
0

> <version>
0

> <s_m_source_file>
/data/baiqing/PycharmProjects/Reinvent-master-3.2/result/LINK_invent/BTK/process_docking_weight1_custom_product_contain_oxygen_bond_distance_aromatic_linkinvent_7_9_3/rearranged_h_0064.sdf

> <i_m_source_file_index>
13

> <r_mmod_Potential_Energy-OPLS-2005>
181.858612060547

> <r_mmod_Stretch_Energy-OPLS-2005>
58.8917617797852

> <r_mmod_Bend_Energy-OPLS-2005>
145.643676757812

> <r_mmod_Torsional_Energy-OPLS-2005>
288.344879150391

> <r_mmod_Improper_Torsional_Energy-OPLS-2005>
3.23503112792969

> <r_mmod_Van_der_Waal_Energy-OPLS-2005>
209.091873168945

> <r_mmod_Electrostatic_Energy-OPLS-2005>
-299.171875

> <r_mmod_Solvation_Energy-OPLS-2005>
-233.890869140625

> <b_mmod_Minimization_Converged-OPLS-2005>
0

> <r_mmod_RMS_Derivative-OPLS-2005>
3.25595641136169

$$$$
13
                    3D
 Structure written by MMmdl.
151159  0  0  1  0            999 V2000
  -30.6154  -14.7290   20.4305 C   0  0  0  0  0  0
  -30.4260  -12.4369   19.4787 C   0  0  0  0  0  0
  -29.5097  -12.5027   18.2374 C   0  0  0  0  0  0
  -28.0335  -12.3371   18.6453 C   0  0  0  0  0  0
  -27.6402  -13.2348   19.8492 C   0  0  2  0  0  0
  -28.6824  -13.1664   20.9864 C   0  0  0  0  0  0
  -25.2496  -13.8212   20.5690 C   0  0  0  0  0  0
  -24.1792  -13.0447   20.9204 C   0  0  0  0  0  0
  -24.6384  -11.6927   20.8739 C   0  0  0  0  0  0
  -23.9065  -10.4300   21.0403 C   0  0  0  0  0  0
  -24.3620   -9.4216   21.9179 C   0  0  0  0  0  0
  -23.6298   -8.2248   22.0752 C   0  0  0  0  0  0
  -22.4279   -8.0280   21.3545 C   0  0  0  0  0  0
  -21.9906   -9.0252   20.4649 C   0  0  0  0  0  0
  -22.7232  -10.2136   20.3058 C   0  0  0  0  0  0
  -21.6857   -6.0734   22.5278 C   0  0  0  0  0  0
  -21.4017   -6.5637   23.8210 C   0  0  0  0  0  0
  -21.3662   -5.6791   24.9172 C   0  0  0  0  0  0
  -21.6045   -4.3052   24.7222 C   0  0  0  0  0  0
  -21.8821   -3.8144   23.4343 C   0  0  0  0  0  0
  -21.9195   -4.6961   22.3400 C   0  0  0  0  0  0
  -22.7813  -13.5224   21.1862 C   0  0  0  0  0  0
  -22.1665   -4.2147   21.0976 F   0  0  0  0  0  0
  -21.5628   -3.4536   25.7735 F   0  0  0  0  0  0
  -29.9876  -13.5041   20.4079 N   0  0  0  0  0  0
  -26.2921  -12.9421   20.3265 N   0  0  0  0  0  0
  -25.9314  -11.6560   20.5738 N   0  0  0  0  0  0
  -22.0458  -12.8221   22.0424 N   0  0  0  0  0  0
  -25.4192  -15.1938   20.4118 N   0  0  0  0  0  0
  -31.8123  -14.7952   20.1361 O   0  0  0  0  0  0
  -21.6645   -6.8877   21.4240 O   0  0  0  0  0  0
  -22.3489  -14.5518   20.6694 O   0  0  0  0  0  0
  -24.6307  -31.8547   23.1978 C   0  0  0  0  0  0
  -25.9141  -32.4742   23.8316 C   0  0  1  0  0  0
  -27.2195  -27.2670   20.1182 C   0  0  0  0  0  0
  -25.5943  -33.8548   24.2231 N   0  0  0  0  0  0
  -23.4249  -30.4784   21.5405 C   0  0  2  0  0  0
  -24.8697  -28.9245   20.1080 C   0  0  0  0  0  0
  -22.7486  -29.4603   22.4904 C   0  0  0  0  0  0
  -18.0287  -28.1381   22.8478 C   0  0  0  0  0  0
  -24.1490  -36.7287   23.2632 C   0  0  0  0  0  0
  -25.9708  -30.7685   21.3765 C   0  0  0  0  0  0
  -26.0402  -29.3927   20.7153 C   0  0  0  0  0  0
  -27.2137  -28.5751   20.7102 C   0  0  0  0  0  0
  -26.0177  -26.8579   19.4968 C   0  0  0  0  0  0
  -24.8630  -27.6651   19.4903 C   0  0  0  0  0  0
  -23.6409  -29.8114   20.1559 C   0  0  0  0  0  0
  -25.4117  -36.3061   24.0312 C   0  0  1  0  0  0
  -20.5888  -28.3687   23.1272 C   0  0  2  0  0  0
  -20.6769  -26.9407   22.5404 C   0  0  0  0  0  0
  -19.5746  -26.6376   21.5206 C   0  0  0  0  0  0
  -18.1930  -26.7920   22.1625 C   0  0  0  0  0  0
  -19.1540  -28.8854   23.2867 C   0  0  0  0  0  0
  -18.9466  -30.1460   23.8874 C   0  0  0  0  0  0
  -17.6465  -30.6582   24.0561 C   0  0  0  0  0  0
  -25.9069  -34.9435   23.5074 C   0  0  0  0  0  0
  -16.5356  -29.9078   23.6332 C   0  0  0  0  0  0
  -16.7276  -28.6502   23.0342 C   0  0  0  0  0  0
  -26.4500  -31.6577   25.0715 C   0  0  0  0  0  0
  -25.3728  -31.3743   26.1441 C   0  0  0  0  0  0
  -27.0342  -30.2978   24.6234 C   0  0  0  0  0  0
  -27.6033  -32.4336   25.7503 C   0  0  0  0  0  0
  -27.5584  -37.1789   24.8450 C   0  0  0  0  0  0
  -21.4195  -29.3034   22.3656 N   0  0  0  0  0  0
  -26.4277  -37.3774   23.9420 N   0  0  0  0  0  0
  -24.6944  -31.0524   22.0943 N   0  0  0  0  0  0
  -23.4192  -28.8148   23.3003 O   0  0  0  0  0  0
  -28.3459  -26.4166   20.1951 O   0  0  0  0  0  0
  -26.5650  -34.8919   22.4648 O   0  0  0  0  0  0
  -23.5466  -32.1367   23.7292 O   0  0  0  0  0  0
  -31.1160  -18.6623   18.3377 C   0  0  0  0  0  0
  -30.5111  -19.8283   18.8366 C   0  0  0  0  0  0
  -30.8936  -17.4078   18.9313 C   0  0  0  0  0  0
  -29.4311  -18.4826   20.5515 C   0  0  0  0  0  0
  -29.6340  -19.7993   19.9461 C   0  0  0  0  0  0
  -30.0627  -17.2551   20.0656 C   0  0  0  0  0  0
  -28.8867  -22.3038   19.7739 C   0  0  0  0  0  0
  -28.5431  -23.6821   20.5165 C   0  0  0  0  0  0
  -28.4173  -25.0294   19.6202 C   0  0  0  0  0  0
  -29.0679  -21.0906   20.4375 N   0  0  0  0  0  0
  -29.8531  -15.8805   20.6082 N   0  0  0  0  0  0
  -28.9458  -22.3524   18.5432 O   0  0  0  0  0  0
  -31.4692  -12.5484   19.1781 H   0  0  0  0  0  0
  -30.3587  -11.4602   19.9609 H   0  0  0  0  0  0
  -29.7883  -11.7297   17.5198 H   0  0  0  0  0  0
  -29.6469  -13.4586   17.7298 H   0  0  0  0  0  0
  -27.8806  -11.2882   18.9012 H   0  0  0  0  0  0
  -27.3824  -12.5412   17.7943 H   0  0  0  0  0  0
  -27.6357  -14.2575   19.4711 H   0  0  0  0  0  0
  -28.7077  -12.1705   21.4309 H   0  0  0  0  0  0
  -28.4212  -13.8553   21.7906 H   0  0  0  0  0  0
  -25.2769   -9.5692   22.4748 H   0  0  0  0  0  0
  -24.0012   -7.4638   22.7468 H   0  0  0  0  0  0
  -21.0838   -8.8767   19.8954 H   0  0  0  0  0  0
  -22.3688  -10.9672   19.6165 H   0  0  0  0  0  0
  -21.2014   -7.6147   23.9713 H   0  0  0  0  0  0
  -21.1481   -6.0522   25.9076 H   0  0  0  0  0  0
  -22.0600   -2.7607   23.2843 H   0  0  0  0  0  0
  -22.4081  -11.9904   22.4848 H   0  0  0  0  0  0
  -21.1070  -13.1241   22.2606 H   0  0  0  0  0  0
  -24.6515  -15.8481   20.5201 H   0  0  0  0  0  0
  -26.2652  -15.6324   20.0706 H   0  0  0  0  0  0
  -26.7207  -32.5383   23.1058 H   0  0  0  0  0  0
  -25.0057  -33.9676   25.0352 H   0  0  0  0  0  0
  -22.7220  -31.3013   21.3948 H   0  0  0  0  0  0
  -23.3754  -35.9614   23.3254 H   0  0  0  0  0  0
  -24.3583  -36.8959   22.2054 H   0  0  0  0  0  0
  -23.7239  -37.6470   23.6695 H   0  0  0  0  0  0
  -26.1161  -31.5331   20.6118 H   0  0  0  0  0  0
  -26.8463  -30.8109   22.0126 H   0  0  0  0  0  0
  -28.1115  -28.9286   21.1966 H   0  0  0  0  0  0
  -25.9175  -25.8911   19.0328 H   0  0  0  0  0  0
  -23.9625  -27.2969   19.0193 H   0  0  0  0  0  0
  -23.7671  -30.5870   19.3990 H   0  0  0  0  0  0
  -22.7585  -29.2454   19.8512 H   0  0  0  0  0  0
  -25.1300  -36.1875   25.0800 H   0  0  0  0  0  0
  -20.9986  -28.3258   24.1393 H   0  0  0  0  0  0
  -20.5655  -26.2299   23.3605 H   0  0  0  0  0  0
  -21.6642  -26.7423   22.1216 H   0  0  0  0  0  0
  -19.6903  -25.6284   21.1245 H   0  0  0  0  0  0
  -19.6685  -27.3179   20.6731 H   0  0  0  0  0  0
  -17.4198  -26.6664   21.4028 H   0  0  0  0  0  0
  -18.0337  -26.0062   22.9027 H   0  0  0  0  0  0
  -19.7945  -30.7288   24.2218 H   0  0  0  0  0  0
  -17.5021  -31.6259   24.5172 H   0  0  0  0  0  0
  -15.5357  -30.2977   23.7668 H   0  0  0  0  0  0
  -15.8676  -28.0828   22.7046 H   0  0  0  0  0  0
  -24.5896  -30.7092   25.7780 H   0  0  0  0  0  0
  -24.8941  -32.2928   26.4853 H   0  0  0  0  0  0
  -25.8060  -30.8934   27.0221 H   0  0  0  0  0  0
  -26.2930  -29.6722   24.1245 H   0  0  0  0  0  0
  -27.3964  -29.7253   25.4782 H   0  0  0  0  0  0
  -27.8840  -30.4206   23.9515 H   0  0  0  0  0  0
  -27.2598  -33.3623   26.2074 H   0  0  0  0  0  0
  -28.3860  -32.6919   25.0358 H   0  0  0  0  0  0
  -28.0685  -31.8474   26.5437 H   0  0  0  0  0  0
  -28.2559  -38.0129   24.7562 H   0  0  0  0  0  0
  -28.1131  -36.2667   24.6192 H   0  0  0  0  0  0
  -27.2324  -37.1333   25.8856 H   0  0  0  0  0  0
  -20.9367  -29.8768   21.6880 H   0  0  0  0  0  0
  -26.0140  -38.2833   24.1459 H   0  0  0  0  0  0
  -31.7690  -18.7316   17.4788 H   0  0  0  0  0  0
  -30.7544  -20.7569   18.3420 H   0  0  0  0  0  0
  -31.3800  -16.5582   18.4753 H   0  0  0  0  0  0
  -28.7772  -18.4145   21.4089 H   0  0  0  0  0  0
  -29.3215  -23.8395   21.2628 H   0  0  0  0  0  0
  -27.6184  -23.5413   21.0761 H   0  0  0  0  0  0
  -27.6605  -24.8633   18.8596 H   0  0  0  0  0  0
  -29.3319  -25.0626   19.0287 H   0  0  0  0  0  0
  -28.8205  -21.1081   21.4181 H   0  0  0  0  0  0
  -28.9523  -15.7181   21.0328 H   0  0  0  0  0  0
  1 25  1  0  0  0
  1 30  2  0  0  0
  1 81  1  0  0  0
  2  3  1  0  0  0
  2 25  1  0  0  0
  2 83  1  0  0  0
  2 84  1  0  0  0
  3  4  1  0  0  0
  3 85  1  0  0  0
  3 86  1  0  0  0
  4  5  1  0  0  0
  4 87  1  0  0  0
  4 88  1  0  0  0
  5  6  1  0  0  0
  5 26  1  0  0  0
  5 89  1  0  0  0
  6 25  1  0  0  0
  6 90  1  0  0  0
  6 91  1  0  0  0
  7  8  2  0  0  0
  7 26  1  0  0  0
  7 29  1  0  0  0
  8  9  1  0  0  0
  8 22  1  0  0  0
  9 10  1  0  0  0
  9 27  2  0  0  0
 10 11  2  0  0  0
 10 15  1  0  0  0
 11 12  1  0  0  0
 11 92  1  0  0  0
 12 13  2  0  0  0
 12 93  1  0  0  0
 13 14  1  0  0  0
 13 31  1  0  0  0
 14 15  2  0  0  0
 14 94  1  0  0  0
 15 95  1  0  0  0
 16 17  2  0  0  0
 16 21  1  0  0  0
 16 31  1  0  0  0
 17 18  1  0  0  0
 17 96  1  0  0  0
 18 19  2  0  0  0
 18 97  1  0  0  0
 19 20  1  0  0  0
 19 24  1  0  0  0
 20 21  2  0  0  0
 20 98  1  0  0  0
 21 23  1  0  0  0
 22 28  1  0  0  0
 22 32  2  0  0  0
 26 27  1  0  0  0
 28 99  1  0  0  0
 28100  1  0  0  0
 29101  1  0  0  0
 29102  1  0  0  0
 33 34  1  0  0  0
 33 66  1  0  0  0
 33 70  2  0  0  0
 34 36  1  0  0  0
 34 59  1  0  0  0
 34103  1  0  0  0
 35 44  2  0  0  0
 35 45  1  0  0  0
 35 68  1  0  0  0
 36 56  1  0  0  0
 36104  1  0  0  0
 37 39  1  0  0  0
 37 47  1  0  0  0
 37 66  1  0  0  0
 37105  1  0  0  0
 38 43  2  0  0  0
 38 46  1  0  0  0
 38 47  1  0  0  0
 39 64  1  0  0  0
 39 67  2  0  0  0
 40 52  1  0  0  0
 40 53  2  0  0  0
 40 58  1  0  0  0
 41106  1  0  0  0
 41107  1  0  0  0
 41108  1  0  0  0
 41 48  1  0  0  0
 42 43  1  0  0  0
 42 66  1  0  0  0
 42109  1  0  0  0
 42110  1  0  0  0
 43 44  1  0  0  0
 44111  1  0  0  0
 45 46  2  0  0  0
 45112  1  0  0  0
 46113  1  0  0  0
 47114  1  0  0  0
 47115  1  0  0  0
 48 56  1  0  0  0
 48 65  1  0  0  0
 48116  1  0  0  0
 49 50  1  0  0  0
 49 53  1  0  0  0
 49 64  1  0  0  0
 49117  1  0  0  0
 50 51  1  0  0  0
 50118  1  0  0  0
 50119  1  0  0  0
 51 52  1  0  0  0
 51120  1  0  0  0
 51121  1  0  0  0
 52122  1  0  0  0
 52123  1  0  0  0
 53 54  1  0  0  0
 54 55  2  0  0  0
 54124  1  0  0  0
 55 57  1  0  0  0
 55125  1  0  0  0
 56 69  2  0  0  0
 57 58  2  0  0  0
 57126  1  0  0  0
 58127  1  0  0  0
 59 60  1  0  0  0
 59 61  1  0  0  0
 59 62  1  0  0  0
 60128  1  0  0  0
 60129  1  0  0  0
 60130  1  0  0  0
 61131  1  0  0  0
 61132  1  0  0  0
 61133  1  0  0  0
 62134  1  0  0  0
 62135  1  0  0  0
 62136  1  0  0  0
 63 65  1  0  0  0
 63137  1  0  0  0
 63138  1  0  0  0
 63139  1  0  0  0
 64140  1  0  0  0
 65141  1  0  0  0
 68 79  1  0  0  0
 71 72  2  0  0  0
 71 73  1  0  0  0
 71142  1  0  0  0
 72 75  1  0  0  0
 72143  1  0  0  0
 73 76  2  0  0  0
 73144  1  0  0  0
 74 75  2  0  0  0
 74 76  1  0  0  0
 74145  1  0  0  0
 75 80  1  0  0  0
 76 81  1  0  0  0
 77 78  1  0  0  0
 77 80  1  0  0  0
 77 82  2  0  0  0
 78 79  1  0  0  0
 78146  1  0  0  0
 78147  1  0  0  0
 79148  1  0  0  0
 79149  1  0  0  0
 80150  1  0  0  0
 81151  1  0  0  0
M  ISO  4   1 100  68 101  79 101  81 100
M  END
> <chiral flag>
0

> <version>
0

> <s_m_source_file>
/data/baiqing/PycharmProjects/Reinvent-master-3.2/result/LINK_invent/BTK/process_docking_weight1_custom_product_contain_oxygen_bond_distance_aromatic_linkinvent_7_9_3/rearranged_h_0064.sdf

> <i_m_source_file_index>
14

> <r_mmod_Potential_Energy-OPLS-2005>
140.410675048828

> <r_mmod_Stretch_Energy-OPLS-2005>
126.903961181641

> <r_mmod_Bend_Energy-OPLS-2005>
167.898818969727

> <r_mmod_Torsional_Energy-OPLS-2005>
232.681365966797

> <r_mmod_Improper_Torsional_Energy-OPLS-2005>
4.74691677093506

> <r_mmod_Van_der_Waal_Energy-OPLS-2005>
149.580291748047

> <r_mmod_Electrostatic_Energy-OPLS-2005>
-385.980712890625

> <r_mmod_Solvation_Energy-OPLS-2005>
-234.019821166992

> <b_mmod_Minimization_Converged-OPLS-2005>
0

> <r_mmod_RMS_Derivative-OPLS-2005>
1.03019344806671

$$$$
14
                    3D
 Structure written by MMmdl.
165173  0  0  1  0            999 V2000
  -30.6173  -14.8333   20.4317 C   0  0  0  0  0  0
  -30.4305  -12.5125   19.4785 C   0  0  0  0  0  0
  -29.5076  -12.4967   18.2418 C   0  0  0  0  0  0
  -28.0404  -12.3051   18.6682 C   0  0  0  0  0  0
  -27.6337  -13.2387   19.8391 C   0  0  2  0  0  0
  -28.6813  -13.2413   20.9737 C   0  0  0  0  0  0
  -25.2487  -13.8209   20.5711 C   0  0  0  0  0  0
  -24.1788  -13.0438   20.9228 C   0  0  0  0  0  0
  -24.6391  -11.6919   20.8769 C   0  0  0  0  0  0
  -23.9075  -10.4293   21.0416 C   0  0  0  0  0  0
  -24.3625   -9.4202   21.9189 C   0  0  0  0  0  0
  -23.6295   -8.2240   22.0756 C   0  0  0  0  0  0
  -22.4279   -8.0285   21.3545 C   0  0  0  0  0  0
  -21.9920   -9.0257   20.4644 C   0  0  0  0  0  0
  -22.7252  -10.2132   20.3058 C   0  0  0  0  0  0
  -21.6853   -6.0736   22.5278 C   0  0  0  0  0  0
  -21.4011   -6.5637   23.8211 C   0  0  0  0  0  0
  -21.3653   -5.6791   24.9174 C   0  0  0  0  0  0
  -21.6050   -4.3060   24.7224 C   0  0  0  0  0  0
  -21.8819   -3.8144   23.4346 C   0  0  0  0  0  0
  -21.9191   -4.6959   22.3401 C   0  0  0  0  0  0
  -22.7808  -13.5212   21.1882 C   0  0  0  0  0  0
  -22.1661   -4.2149   21.0982 F   0  0  0  0  0  0
  -21.5626   -3.4540   25.7730 F   0  0  0  0  0  0
  -29.9693  -13.6098   20.3708 N   0  0  0  0  0  0
  -26.2910  -12.9423   20.3275 N   0  0  0  0  0  0
  -25.9326  -11.6561   20.5776 N   0  0  0  0  0  0
  -22.0465  -12.8194   22.0428 N   0  0  0  0  0  0
  -25.4181  -15.1933   20.4108 N   0  0  0  0  0  0
  -31.8186  -14.8528   20.1536 O   0  0  0  0  0  0
  -21.6647   -6.8880   21.4239 O   0  0  0  0  0  0
  -22.3492  -14.5515   20.6725 O   0  0  0  0  0  0
  -24.6362  -31.8516   23.1945 C   0  0  0  0  0  0
  -25.9151  -32.4749   23.8317 C   0  0  1  0  0  0
  -27.2157  -27.2084   20.1366 C   0  0  0  0  0  0
  -25.5932  -33.8552   24.2239 N   0  0  0  0  0  0
  -23.4378  -30.4738   21.5369 C   0  0  2  0  0  0
  -24.8909  -28.9180   20.1035 C   0  0  0  0  0  0
  -22.7542  -29.4580   22.4859 C   0  0  0  0  0  0
  -18.0299  -28.1409   22.8496 C   0  0  0  0  0  0
  -24.1476  -36.7265   23.2644 C   0  0  0  0  0  0
  -25.9897  -30.7439   21.3886 C   0  0  0  0  0  0
  -26.0636  -29.3613   20.7320 C   0  0  0  0  0  0
  -27.2299  -28.5158   20.7496 C   0  0  0  0  0  0
  -26.0295  -26.8616   19.4552 C   0  0  0  0  0  0
  -24.8809  -27.6764   19.4517 C   0  0  0  0  0  0
  -23.6625  -29.8109   20.1518 C   0  0  0  0  0  0
  -25.4109  -36.3062   24.0326 C   0  0  1  0  0  0
  -20.5915  -28.3724   23.1255 C   0  0  2  0  0  0
  -20.6785  -26.9430   22.5406 C   0  0  0  0  0  0
  -19.5752  -26.6390   21.5220 C   0  0  0  0  0  0
  -18.1939  -26.7949   22.1631 C   0  0  0  0  0  0
  -19.1559  -28.8886   23.2869 C   0  0  0  0  0  0
  -18.9473  -30.1484   23.8886 C   0  0  0  0  0  0
  -17.6474  -30.6612   24.0571 C   0  0  0  0  0  0
  -25.9064  -34.9440   23.5086 C   0  0  0  0  0  0
  -16.5370  -29.9110   23.6352 C   0  0  0  0  0  0
  -16.7287  -28.6519   23.0375 C   0  0  0  0  0  0
  -26.4501  -31.6606   25.0737 C   0  0  0  0  0  0
  -25.3703  -31.3783   26.1447 C   0  0  0  0  0  0
  -27.0378  -30.3021   24.6268 C   0  0  0  0  0  0
  -27.6043  -32.4365   25.7517 C   0  0  0  0  0  0
  -27.5569  -37.1792   24.8466 C   0  0  0  0  0  0
  -21.4241  -29.3058   22.3624 N   0  0  0  0  0  0
  -26.4275  -37.3770   23.9423 N   0  0  0  0  0  0
  -24.7061  -31.0439   22.0946 N   0  0  0  0  0  0
  -23.4213  -28.8125   23.2976 O   0  0  0  0  0  0
  -28.2180  -26.1944   20.1951 O   0  0  0  0  0  0
  -26.5632  -34.8919   22.4657 O   0  0  0  0  0  0
  -23.5494  -32.1363   23.7207 O   0  0  0  0  0  0
  -32.1191  -19.0869   21.1096 C   0  0  0  0  0  0
  -31.6575  -17.7758   20.9070 C   0  0  0  0  0  0
  -29.4573  -18.6909   20.5115 C   0  0  0  0  0  0
  -31.2830  -20.2312   21.0591 C   0  0  0  0  0  0
  -30.3062  -17.4876   20.6317 C   0  0  0  0  0  0
  -29.9086  -20.0911   20.6804 C   0  0  0  0  0  0
  -34.2487  -23.2101   18.6359 C   0  0  0  0  0  0
  -33.6359  -22.3729   19.4932 C   0  0  0  0  0  0
  -27.9804  -23.6859   20.8603 C   0  0  0  0  0  0
  -34.2015  -22.1077   20.8120 C   0  0  0  0  0  0
  -29.0708  -22.6468   20.2630 C   0  0  0  0  0  0
  -26.9756  -22.9089   21.7078 C   0  0  0  0  0  0
  -33.8172  -21.2543   23.0749 C   0  0  0  0  0  0
  -31.8646  -21.5587   21.5852 C   0  0  0  0  0  0
  -27.6498  -24.9891   20.8624 N   0  0  0  0  0  0
  -28.9867  -21.2949   20.6771 N   0  0  0  0  0  0
  -29.8826  -16.0319   20.5539 N   0  0  0  0  0  0
  -33.3316  -21.6293   21.7401 N   0  0  0  0  0  0
  -35.3969  -22.2815   21.0744 O   0  0  0  0  0  0
  -29.8990  -23.0325   19.4328 O   0  0  0  0  0  0
  -31.4668  -12.6379   19.1603 H   0  0  0  0  0  0
  -30.3972  -11.5546   20.0006 H   0  0  0  0  0  0
  -29.8033  -11.6972   17.5607 H   0  0  0  0  0  0
  -29.6144  -13.4311   17.6872 H   0  0  0  0  0  0
  -27.9263  -11.2633   18.9738 H   0  0  0  0  0  0
  -27.3727  -12.4473   17.8177 H   0  0  0  0  0  0
  -27.6083  -14.2455   19.4191 H   0  0  0  0  0  0
  -28.7440  -12.2649   21.4562 H   0  0  0  0  0  0
  -28.4021  -13.9550   21.7510 H   0  0  0  0  0  0
  -25.2768   -9.5675   22.4766 H   0  0  0  0  0  0
  -24.0003   -7.4629   22.7476 H   0  0  0  0  0  0
  -21.0853   -8.8775   19.8943 H   0  0  0  0  0  0
  -22.3719  -10.9670   19.6164 H   0  0  0  0  0  0
  -21.2009   -7.6144   23.9712 H   0  0  0  0  0  0
  -21.1472   -6.0525   25.9079 H   0  0  0  0  0  0
  -22.0602   -2.7608   23.2847 H   0  0  0  0  0  0
  -22.4091  -11.9855   22.4807 H   0  0  0  0  0  0
  -21.1075  -13.1205   22.2644 H   0  0  0  0  0  0
  -24.6503  -15.8469   20.5197 H   0  0  0  0  0  0
  -26.2619  -15.6312   20.0641 H   0  0  0  0  0  0
  -26.7232  -32.5380   23.1073 H   0  0  0  0  0  0
  -25.0108  -33.9685   25.0404 H   0  0  0  0  0  0
  -22.7361  -31.2973   21.3895 H   0  0  0  0  0  0
  -23.3750  -35.9585   23.3300 H   0  0  0  0  0  0
  -24.3564  -36.8884   22.2057 H   0  0  0  0  0  0
  -23.7198  -37.6451   23.6673 H   0  0  0  0  0  0
  -26.1405  -31.4999   20.6163 H   0  0  0  0  0  0
  -26.8618  -30.7941   22.0281 H   0  0  0  0  0  0
  -28.1156  -28.8405   21.2764 H   0  0  0  0  0  0
  -25.9710  -25.9025   18.9602 H   0  0  0  0  0  0
  -23.9884  -27.3332   18.9466 H   0  0  0  0  0  0
  -23.7891  -30.5882   19.3974 H   0  0  0  0  0  0
  -22.7801  -29.2473   19.8444 H   0  0  0  0  0  0
  -25.1292  -36.1902   25.0816 H   0  0  0  0  0  0
  -21.0019  -28.3294   24.1367 H   0  0  0  0  0  0
  -20.5685  -26.2336   23.3617 H   0  0  0  0  0  0
  -21.6658  -26.7448   22.1199 H   0  0  0  0  0  0
  -19.6897  -25.6284   21.1278 H   0  0  0  0  0  0
  -19.6684  -27.3188   20.6732 H   0  0  0  0  0  0
  -17.4208  -26.6716   21.4025 H   0  0  0  0  0  0
  -18.0312  -26.0092   22.9022 H   0  0  0  0  0  0
  -19.7946  -30.7311   24.2236 H   0  0  0  0  0  0
  -17.5034  -31.6286   24.5180 H   0  0  0  0  0  0
  -15.5373  -30.3021   23.7674 H   0  0  0  0  0  0
  -15.8678  -28.0847   22.7102 H   0  0  0  0  0  0
  -24.5876  -30.7130   25.7787 H   0  0  0  0  0  0
  -24.8899  -32.2972   26.4825 H   0  0  0  0  0  0
  -25.8000  -30.9002   27.0260 H   0  0  0  0  0  0
  -26.2997  -29.6747   24.1260 H   0  0  0  0  0  0
  -27.4026  -29.7299   25.4808 H   0  0  0  0  0  0
  -27.8886  -30.4311   23.9570 H   0  0  0  0  0  0
  -27.2643  -33.3689   26.2044 H   0  0  0  0  0  0
  -28.3885  -32.6883   25.0364 H   0  0  0  0  0  0
  -28.0681  -31.8519   26.5474 H   0  0  0  0  0  0
  -28.2595  -38.0086   24.7544 H   0  0  0  0  0  0
  -28.1057  -36.2623   24.6267 H   0  0  0  0  0  0
  -27.2305  -37.1415   25.8873 H   0  0  0  0  0  0
  -20.9416  -29.8798   21.6854 H   0  0  0  0  0  0
  -26.0139  -38.2836   24.1446 H   0  0  0  0  0  0
  -33.1595  -19.1767   21.3840 H   0  0  0  0  0  0
  -32.3841  -16.9884   21.0323 H   0  0  0  0  0  0
  -28.4082  -18.5366   20.3049 H   0  0  0  0  0  0
  -33.8300  -23.4019   17.6589 H   0  0  0  0  0  0
  -35.1691  -23.7189   18.8883 H   0  0  0  0  0  0
  -32.7222  -21.8941   19.1733 H   0  0  0  0  0  0
  -27.4676  -22.4497   22.5650 H   0  0  0  0  0  0
  -26.4838  -22.1394   21.1117 H   0  0  0  0  0  0
  -26.1886  -23.5546   22.1009 H   0  0  0  0  0  0
  -34.7558  -20.7000   23.0196 H   0  0  0  0  0  0
  -33.1076  -20.6149   23.6017 H   0  0  0  0  0  0
  -33.9863  -22.1440   23.6824 H   0  0  0  0  0  0
  -31.4007  -21.7397   22.5559 H   0  0  0  0  0  0
  -31.5683  -22.4149   20.9989 H   0  0  0  0  0  0
  -28.1105  -21.1185   21.1490 H   0  0  0  0  0  0
  -28.8868  -15.8808   20.5998 H   0  0  0  0  0  0
  1 25  1  0  0  0
  1 30  2  0  0  0
  1 87  1  0  0  0
  2  3  1  0  0  0
  2 25  1  0  0  0
  2 91  1  0  0  0
  2 92  1  0  0  0
  3  4  1  0  0  0
  3 93  1  0  0  0
  3 94  1  0  0  0
  4  5  1  0  0  0
  4 95  1  0  0  0
  4 96  1  0  0  0
  5  6  1  0  0  0
  5 26  1  0  0  0
  5 97  1  0  0  0
  6 25  1  0  0  0
  6 98  1  0  0  0
  6 99  1  0  0  0
  7  8  2  0  0  0
  7 26  1  0  0  0
  7 29  1  0  0  0
  8  9  1  0  0  0
  8 22  1  0  0  0
  9 10  1  0  0  0
  9 27  2  0  0  0
 10 11  2  0  0  0
 10 15  1  0  0  0
 11 12  1  0  0  0
 11100  1  0  0  0
 12 13  2  0  0  0
 12101  1  0  0  0
 13 14  1  0  0  0
 13 31  1  0  0  0
 14 15  2  0  0  0
 14102  1  0  0  0
 15103  1  0  0  0
 16 17  2  0  0  0
 16 21  1  0  0  0
 16 31  1  0  0  0
 17 18  1  0  0  0
 17104  1  0  0  0
 18 19  2  0  0  0
 18105  1  0  0  0
 19 20  1  0  0  0
 19 24  1  0  0  0
 20 21  2  0  0  0
 20106  1  0  0  0
 21 23  1  0  0  0
 22 28  1  0  0  0
 22 32  2  0  0  0
 26 27  1  0  0  0
 28107  1  0  0  0
 28108  1  0  0  0
 29109  1  0  0  0
 29110  1  0  0  0
 33 34  1  0  0  0
 33 66  1  0  0  0
 33 70  2  0  0  0
 34 36  1  0  0  0
 34 59  1  0  0  0
 34111  1  0  0  0
 35 44  2  0  0  0
 35 45  1  0  0  0
 35 68  1  0  0  0
 36 56  1  0  0  0
 36112  1  0  0  0
 37 39  1  0  0  0
 37 47  1  0  0  0
 37 66  1  0  0  0
 37113  1  0  0  0
 38 43  2  0  0  0
 38 46  1  0  0  0
 38 47  1  0  0  0
 39 64  1  0  0  0
 39 67  2  0  0  0
 40 52  1  0  0  0
 40 53  2  0  0  0
 40 58  1  0  0  0
 41114  1  0  0  0
 41115  1  0  0  0
 41116  1  0  0  0
 41 48  1  0  0  0
 42 43  1  0  0  0
 42 66  1  0  0  0
 42117  1  0  0  0
 42118  1  0  0  0
 43 44  1  0  0  0
 44119  1  0  0  0
 45 46  2  0  0  0
 45120  1  0  0  0
 46121  1  0  0  0
 47122  1  0  0  0
 47123  1  0  0  0
 48 56  1  0  0  0
 48 65  1  0  0  0
 48124  1  0  0  0
 49 50  1  0  0  0
 49 53  1  0  0  0
 49 64  1  0  0  0
 49125  1  0  0  0
 50 51  1  0  0  0
 50126  1  0  0  0
 50127  1  0  0  0
 51 52  1  0  0  0
 51128  1  0  0  0
 51129  1  0  0  0
 52130  1  0  0  0
 52131  1  0  0  0
 53 54  1  0  0  0
 54 55  2  0  0  0
 54132  1  0  0  0
 55 57  1  0  0  0
 55133  1  0  0  0
 56 69  2  0  0  0
 57 58  2  0  0  0
 57134  1  0  0  0
 58135  1  0  0  0
 59 60  1  0  0  0
 59 61  1  0  0  0
 59 62  1  0  0  0
 60136  1  0  0  0
 60137  1  0  0  0
 60138  1  0  0  0
 61139  1  0  0  0
 61140  1  0  0  0
 61141  1  0  0  0
 62142  1  0  0  0
 62143  1  0  0  0
 62144  1  0  0  0
 63 65  1  0  0  0
 63145  1  0  0  0
 63146  1  0  0  0
 63147  1  0  0  0
 64148  1  0  0  0
 65149  1  0  0  0
 68 85  1  0  0  0
 71 72  2  0  0  0
 71 74  1  0  0  0
 71150  1  0  0  0
 72 75  1  0  0  0
 72151  1  0  0  0
 73 75  2  0  0  0
 73 76  1  0  0  0
 73152  1  0  0  0
 74 76  2  0  0  0
 74 84  1  0  0  0
 75 87  1  0  0  0
 76 86  1  0  0  0
 77 78  2  0  0  0
 77153  1  0  0  0
 77154  1  0  0  0
 78 80  1  0  0  0
 78155  1  0  0  0
 79 81  1  0  0  0
 79 82  1  0  0  0
 79 85  2  0  0  0
 80 88  1  0  0  0
 80 89  2  0  0  0
 81 86  1  0  0  0
 81 90  2  0  0  0
 82156  1  0  0  0
 82157  1  0  0  0
 82158  1  0  0  0
 83 88  1  0  0  0
 83159  1  0  0  0
 83160  1  0  0  0
 83161  1  0  0  0
 84 88  1  0  0  0
 84162  1  0  0  0
 84163  1  0  0  0
 86164  1  0  0  0
 87165  1  0  0  0
M  ISO  4   1 100  68 101  85 101  87 100
M  END
> <chiral flag>
0

> <version>
0

> <s_m_source_file>
/data/baiqing/PycharmProjects/Reinvent-master-3.2/result/LINK_invent/BTK/process_docking_weight1_custom_product_contain_oxygen_bond_distance_aromatic_linkinvent_7_9_3/rearranged_h_0064.sdf

> <i_m_source_file_index>
15

> <r_mmod_Potential_Energy-OPLS-2005>
419.36962890625

> <r_mmod_Stretch_Energy-OPLS-2005>
195.154190063477

> <r_mmod_Bend_Energy-OPLS-2005>
295.642211914062

> <r_mmod_Torsional_Energy-OPLS-2005>
253.062606811523

> <r_mmod_Improper_Torsional_Energy-OPLS-2005>
7.81642150878906

> <r_mmod_Van_der_Waal_Energy-OPLS-2005>
171.656158447266

> <r_mmod_Electrostatic_Energy-OPLS-2005>
-361.171783447266

> <r_mmod_Solvation_Energy-OPLS-2005>
-279.922637939453

> <b_mmod_Minimization_Converged-OPLS-2005>
0

> <r_mmod_RMS_Derivative-OPLS-2005>
1.95863223075867

$$$$
15
                    3D
 Structure written by MMmdl.
168177  0  0  1  0            999 V2000
  -30.6554  -14.6861   20.5056 C   0  0  0  0  0  0
  -30.4202  -12.4311   19.4578 C   0  0  0  0  0  0
  -29.5016  -12.5096   18.2222 C   0  0  0  0  0  0
  -28.0278  -12.3356   18.6390 C   0  0  0  0  0  0
  -27.6390  -13.2309   19.8470 C   0  0  2  0  0  0
  -28.6859  -13.1559   20.9787 C   0  0  0  0  0  0
  -25.2496  -13.8195   20.5688 C   0  0  0  0  0  0
  -24.1792  -13.0439   20.9207 C   0  0  0  0  0  0
  -24.6385  -11.6919   20.8742 C   0  0  0  0  0  0
  -23.9053  -10.4289   21.0392 C   0  0  0  0  0  0
  -24.3605   -9.4215   21.9173 C   0  0  0  0  0  0
  -23.6294   -8.2245   22.0742 C   0  0  0  0  0  0
  -22.4274   -8.0265   21.3538 C   0  0  0  0  0  0
  -21.9902   -9.0230   20.4636 C   0  0  0  0  0  0
  -22.7223  -10.2117   20.3043 C   0  0  0  0  0  0
  -21.6856   -6.0716   22.5268 C   0  0  0  0  0  0
  -21.4024   -6.5621   23.8203 C   0  0  0  0  0  0
  -21.3671   -5.6778   24.9169 C   0  0  0  0  0  0
  -21.6039   -4.3042   24.7220 C   0  0  0  0  0  0
  -21.8823   -3.8128   23.4345 C   0  0  0  0  0  0
  -21.9199   -4.6944   22.3398 C   0  0  0  0  0  0
  -22.7814  -13.5213   21.1864 C   0  0  0  0  0  0
  -22.1658   -4.2127   21.0981 F   0  0  0  0  0  0
  -21.5635   -3.4535   25.7739 F   0  0  0  0  0  0
  -29.9849  -13.4947   20.3873 N   0  0  0  0  0  0
  -26.2918  -12.9401   20.3260 N   0  0  0  0  0  0
  -25.9310  -11.6550   20.5745 N   0  0  0  0  0  0
  -22.0452  -12.8208   22.0425 N   0  0  0  0  0  0
  -25.4192  -15.1920   20.4096 N   0  0  0  0  0  0
  -31.8409  -14.7616   20.1723 O   0  0  0  0  0  0
  -21.6642   -6.8858   21.4230 O   0  0  0  0  0  0
  -22.3504  -14.5511   20.6694 O   0  0  0  0  0  0
  -24.6268  -31.8557   23.1993 C   0  0  0  0  0  0
  -25.9117  -32.4753   23.8331 C   0  0  1  0  0  0
  -27.2308  -27.3064   20.1285 C   0  0  0  0  0  0
  -25.5933  -33.8560   24.2273 N   0  0  0  0  0  0
  -23.4218  -30.4755   21.5416 C   0  0  2  0  0  0
  -24.8677  -28.9165   20.1209 C   0  0  0  0  0  0
  -22.7477  -29.4606   22.4947 C   0  0  0  0  0  0
  -18.0279  -28.1389   22.8478 C   0  0  0  0  0  0
  -24.1489  -36.7291   23.2645 C   0  0  0  0  0  0
  -25.9607  -30.7844   21.3672 C   0  0  0  0  0  0
  -26.0361  -29.4060   20.7187 C   0  0  0  0  0  0
  -27.2208  -28.6145   20.7058 C   0  0  0  0  0  0
  -26.0404  -26.8559   19.5238 C   0  0  0  0  0  0
  -24.8720  -27.6479   19.5141 C   0  0  0  0  0  0
  -23.6375  -29.8017   20.1604 C   0  0  0  0  0  0
  -25.4115  -36.3072   24.0330 C   0  0  1  0  0  0
  -20.5878  -28.3688   23.1295 C   0  0  2  0  0  0
  -20.6772  -26.9412   22.5421 C   0  0  0  0  0  0
  -19.5756  -26.6383   21.5217 C   0  0  0  0  0  0
  -18.1929  -26.7930   22.1615 C   0  0  0  0  0  0
  -19.1535  -28.8857   23.2875 C   0  0  0  0  0  0
  -18.9455  -30.1453   23.8895 C   0  0  0  0  0  0
  -17.6459  -30.6590   24.0566 C   0  0  0  0  0  0
  -25.9059  -34.9438   23.5106 C   0  0  0  0  0  0
  -16.5344  -29.9093   23.6331 C   0  0  0  0  0  0
  -16.7264  -28.6511   23.0347 C   0  0  0  0  0  0
  -26.4507  -31.6561   25.0698 C   0  0  0  0  0  0
  -25.3751  -31.3675   26.1425 C   0  0  0  0  0  0
  -27.0355  -30.2994   24.6136 C   0  0  0  0  0  0
  -27.6068  -32.4293   25.7467 C   0  0  0  0  0  0
  -27.5576  -37.1799   24.8466 C   0  0  0  0  0  0
  -21.4193  -29.3034   22.3688 N   0  0  0  0  0  0
  -26.4289  -37.3772   23.9411 N   0  0  0  0  0  0
  -24.6892  -31.0563   22.0934 N   0  0  0  0  0  0
  -23.4187  -28.8152   23.3048 O   0  0  0  0  0  0
  -28.3830  -26.5135   20.0745 O   0  0  0  0  0  0
  -26.5624  -34.8914   22.4670 O   0  0  0  0  0  0
  -23.5434  -32.1340   23.7321 O   0  0  0  0  0  0
  -31.6849  -17.4485   23.6876 C   0  0  0  0  0  0
  -31.1790  -16.5566   22.7307 C   0  0  0  0  0  0
  -30.6572  -19.2739   22.4860 C   0  0  0  0  0  0
  -31.4264  -18.8175   23.5650 C   0  0  0  0  0  0
  -30.1300  -18.4114   21.4905 C   0  0  0  0  0  0
  -30.4131  -16.9690   21.6039 C   0  0  0  0  0  0
  -30.1119  -19.5960   19.3579 C   0  0  0  0  0  0
  -29.5364  -22.0517   18.9801 C   0  0  0  0  0  0
  -29.4536  -20.6164   18.4045 C   0  0  0  0  0  0
  -28.1876  -19.9555   20.7984 C   0  0  0  0  0  0
  -28.2046  -21.5529   21.0007 C   0  0  2  0  0  0
  -31.9587  -19.8053   24.5831 C   0  0  0  0  0  0
  -26.8456  -21.9689   21.6001 C   0  0  0  0  0  0
  -27.9935  -23.8754   19.6716 C   0  0  0  0  0  0
  -28.4202  -25.1155   20.5779 C   0  0  0  0  0  0
  -29.4367  -19.1908   20.4623 N   0  0  0  0  0  0
  -28.6044  -22.4768   19.8738 N   0  0  0  0  0  0
  -29.9459  -15.8433   20.7845 N   0  0  0  0  0  0
  -31.2119  -19.1245   19.0431 O   0  0  0  0  0  0
  -30.3253  -22.8446   18.4539 O   0  0  0  0  0  0
  -31.4649  -12.5336   19.1603 H   0  0  0  0  0  0
  -30.3406  -11.4532   19.9352 H   0  0  0  0  0  0
  -29.7792  -11.7467   17.4941 H   0  0  0  0  0  0
  -29.6343  -13.4721   17.7254 H   0  0  0  0  0  0
  -27.8808  -11.2850   18.8927 H   0  0  0  0  0  0
  -27.3686  -12.5370   17.7945 H   0  0  0  0  0  0
  -27.6349  -14.2555   19.4735 H   0  0  0  0  0  0
  -28.7137  -12.1565   21.4153 H   0  0  0  0  0  0
  -28.4292  -13.8389   21.7904 H   0  0  0  0  0  0
  -25.2744   -9.5699   22.4754 H   0  0  0  0  0  0
  -23.9998   -7.4634   22.7464 H   0  0  0  0  0  0
  -21.0830   -8.8739   19.8946 H   0  0  0  0  0  0
  -22.3662  -10.9649   19.6147 H   0  0  0  0  0  0
  -21.2014   -7.6139   23.9704 H   0  0  0  0  0  0
  -21.1495   -6.0511   25.9073 H   0  0  0  0  0  0
  -22.0598   -2.7591   23.2853 H   0  0  0  0  0  0
  -22.4069  -11.9881   22.4832 H   0  0  0  0  0  0
  -21.1051  -13.1210   22.2587 H   0  0  0  0  0  0
  -24.6493  -15.8441   20.5114 H   0  0  0  0  0  0
  -26.2631  -15.6303   20.0644 H   0  0  0  0  0  0
  -26.7177  -32.5414   23.1070 H   0  0  0  0  0  0
  -25.0073  -33.9700   25.0410 H   0  0  0  0  0  0
  -22.7171  -31.2960   21.3937 H   0  0  0  0  0  0
  -23.3753  -35.9628   23.3297 H   0  0  0  0  0  0
  -24.3581  -36.8916   22.2063 H   0  0  0  0  0  0
  -23.7235  -37.6487   23.6672 H   0  0  0  0  0  0
  -26.0844  -31.5425   20.5925 H   0  0  0  0  0  0
  -26.8446  -30.8423   21.9910 H   0  0  0  0  0  0
  -28.1262  -28.9962   21.1568 H   0  0  0  0  0  0
  -26.0136  -25.8897   19.0430 H   0  0  0  0  0  0
  -23.9783  -27.2710   19.0361 H   0  0  0  0  0  0
  -23.7598  -30.5723   19.3985 H   0  0  0  0  0  0
  -22.7583  -29.2296   19.8593 H   0  0  0  0  0  0
  -25.1292  -36.1926   25.0824 H   0  0  0  0  0  0
  -20.9950  -28.3246   24.1427 H   0  0  0  0  0  0
  -20.5680  -26.2291   23.3612 H   0  0  0  0  0  0
  -21.6641  -26.7455   22.1212 H   0  0  0  0  0  0
  -19.6925  -25.6296   21.1240 H   0  0  0  0  0  0
  -19.6701  -27.3204   20.6753 H   0  0  0  0  0  0
  -17.4206  -26.6667   21.4010 H   0  0  0  0  0  0
  -18.0325  -26.0079   22.9011 H   0  0  0  0  0  0
  -19.7932  -30.7265   24.2267 H   0  0  0  0  0  0
  -17.5015  -31.6273   24.5161 H   0  0  0  0  0  0
  -15.5346  -30.3000   23.7670 H   0  0  0  0  0  0
  -15.8650  -28.0836   22.7072 H   0  0  0  0  0  0
  -24.5961  -30.6978   25.7753 H   0  0  0  0  0  0
  -24.8900  -32.2825   26.4846 H   0  0  0  0  0  0
  -25.8094  -30.8863   27.0196 H   0  0  0  0  0  0
  -26.2914  -29.6726   24.1203 H   0  0  0  0  0  0
  -27.4109  -29.7262   25.4622 H   0  0  0  0  0  0
  -27.8758  -30.4290   23.9309 H   0  0  0  0  0  0
  -27.2698  -33.3616   26.2018 H   0  0  0  0  0  0
  -28.3901  -32.6810   25.0302 H   0  0  0  0  0  0
  -28.0717  -31.8420   26.5396 H   0  0  0  0  0  0
  -28.2590  -38.0100   24.7523 H   0  0  0  0  0  0
  -28.1064  -36.2628   24.6276 H   0  0  0  0  0  0
  -27.2287  -37.1433   25.8866 H   0  0  0  0  0  0
  -20.9378  -29.8737   21.6871 H   0  0  0  0  0  0
  -26.0160  -38.2840   24.1425 H   0  0  0  0  0  0
  -32.2654  -17.0705   24.5182 H   0  0  0  0  0  0
  -31.3942  -15.5123   22.9058 H   0  0  0  0  0  0
  -30.4975  -20.3398   22.4123 H   0  0  0  0  0  0
  -28.4218  -20.3499   18.1806 H   0  0  0  0  0  0
  -29.9779  -20.5926   17.4485 H   0  0  0  0  0  0
  -27.4155  -19.6891   20.0749 H   0  0  0  0  0  0
  -27.8241  -19.5158   21.7279 H   0  0  0  0  0  0
  -28.9372  -21.7587   21.7805 H   0  0  0  0  0  0
  -32.6929  -19.3454   25.2452 H   0  0  0  0  0  0
  -31.1413  -20.1886   25.1942 H   0  0  0  0  0  0
  -32.4387  -20.6497   24.0865 H   0  0  0  0  0  0
  -26.0453  -21.9055   20.8617 H   0  0  0  0  0  0
  -26.8663  -22.9855   21.9911 H   0  0  0  0  0  0
  -26.5637  -21.3256   22.4338 H   0  0  0  0  0  0
  -28.1914  -24.1797   18.6421 H   0  0  0  0  0  0
  -26.9083  -23.7883   19.6839 H   0  0  0  0  0  0
  -29.4626  -24.9545   20.8510 H   0  0  0  0  0  0
  -27.8757  -25.0760   21.5219 H   0  0  0  0  0  0
  -28.9450  -15.7741   20.6831 H   0  0  0  0  0  0
  1 25  1  0  0  0
  1 30  2  0  0  0
  1 88  1  0  0  0
  2  3  1  0  0  0
  2 25  1  0  0  0
  2 91  1  0  0  0
  2 92  1  0  0  0
  3  4  1  0  0  0
  3 93  1  0  0  0
  3 94  1  0  0  0
  4  5  1  0  0  0
  4 95  1  0  0  0
  4 96  1  0  0  0
  5  6  1  0  0  0
  5 26  1  0  0  0
  5 97  1  0  0  0
  6 25  1  0  0  0
  6 98  1  0  0  0
  6 99  1  0  0  0
  7  8  2  0  0  0
  7 26  1  0  0  0
  7 29  1  0  0  0
  8  9  1  0  0  0
  8 22  1  0  0  0
  9 10  1  0  0  0
  9 27  2  0  0  0
 10 11  2  0  0  0
 10 15  1  0  0  0
 11 12  1  0  0  0
 11100  1  0  0  0
 12 13  2  0  0  0
 12101  1  0  0  0
 13 14  1  0  0  0
 13 31  1  0  0  0
 14 15  2  0  0  0
 14102  1  0  0  0
 15103  1  0  0  0
 16 17  2  0  0  0
 16 21  1  0  0  0
 16 31  1  0  0  0
 17 18  1  0  0  0
 17104  1  0  0  0
 18 19  2  0  0  0
 18105  1  0  0  0
 19 20  1  0  0  0
 19 24  1  0  0  0
 20 21  2  0  0  0
 20106  1  0  0  0
 21 23  1  0  0  0
 22 28  1  0  0  0
 22 32  2  0  0  0
 26 27  1  0  0  0
 28107  1  0  0  0
 28108  1  0  0  0
 29109  1  0  0  0
 29110  1  0  0  0
 33 34  1  0  0  0
 33 66  1  0  0  0
 33 70  2  0  0  0
 34 36  1  0  0  0
 34 59  1  0  0  0
 34111  1  0  0  0
 35 44  2  0  0  0
 35 45  1  0  0  0
 35 68  1  0  0  0
 36 56  1  0  0  0
 36112  1  0  0  0
 37 39  1  0  0  0
 37 47  1  0  0  0
 37 66  1  0  0  0
 37113  1  0  0  0
 38 43  2  0  0  0
 38 46  1  0  0  0
 38 47  1  0  0  0
 39 64  1  0  0  0
 39 67  2  0  0  0
 40 52  1  0  0  0
 40 53  2  0  0  0
 40 58  1  0  0  0
 41114  1  0  0  0
 41115  1  0  0  0
 41116  1  0  0  0
 41 48  1  0  0  0
 42 43  1  0  0  0
 42 66  1  0  0  0
 42117  1  0  0  0
 42118  1  0  0  0
 43 44  1  0  0  0
 44119  1  0  0  0
 45 46  2  0  0  0
 45120  1  0  0  0
 46121  1  0  0  0
 47122  1  0  0  0
 47123  1  0  0  0
 48 56  1  0  0  0
 48 65  1  0  0  0
 48124  1  0  0  0
 49 50  1  0  0  0
 49 53  1  0  0  0
 49 64  1  0  0  0
 49125  1  0  0  0
 50 51  1  0  0  0
 50126  1  0  0  0
 50127  1  0  0  0
 51 52  1  0  0  0
 51128  1  0  0  0
 51129  1  0  0  0
 52130  1  0  0  0
 52131  1  0  0  0
 53 54  1  0  0  0
 54 55  2  0  0  0
 54132  1  0  0  0
 55 57  1  0  0  0
 55133  1  0  0  0
 56 69  2  0  0  0
 57 58  2  0  0  0
 57134  1  0  0  0
 58135  1  0  0  0
 59 60  1  0  0  0
 59 61  1  0  0  0
 59 62  1  0  0  0
 60136  1  0  0  0
 60137  1  0  0  0
 60138  1  0  0  0
 61139  1  0  0  0
 61140  1  0  0  0
 61141  1  0  0  0
 62142  1  0  0  0
 62143  1  0  0  0
 62144  1  0  0  0
 63 65  1  0  0  0
 63145  1  0  0  0
 63146  1  0  0  0
 63147  1  0  0  0
 64148  1  0  0  0
 65149  1  0  0  0
 68 85  1  0  0  0
 71 72  2  0  0  0
 71 74  1  0  0  0
 71150  1  0  0  0
 72 76  1  0  0  0
 72151  1  0  0  0
 73 74  2  0  0  0
 73 75  1  0  0  0
 73152  1  0  0  0
 74 82  1  0  0  0
 75 76  2  0  0  0
 75 86  1  0  0  0
 76 88  1  0  0  0
 77 79  1  0  0  0
 77 86  1  0  0  0
 77 89  2  0  0  0
 78 79  1  0  0  0
 78 87  1  0  0  0
 78 90  2  0  0  0
 79153  1  0  0  0
 79154  1  0  0  0
 80 81  1  0  0  0
 80 86  1  0  0  0
 80155  1  0  0  0
 80156  1  0  0  0
 81 83  1  0  0  0
 81 87  1  0  0  0
 81157  1  0  0  0
 82158  1  0  0  0
 82159  1  0  0  0
 82160  1  0  0  0
 83161  1  0  0  0
 83162  1  0  0  0
 83163  1  0  0  0
 84 85  1  0  0  0
 84 87  1  0  0  0
 84164  1  0  0  0
 84165  1  0  0  0
 85166  1  0  0  0
 85167  1  0  0  0
 88168  1  0  0  0
M  ISO  4   1 100  68 101  85 101  88 100
M  END
> <chiral flag>
0

> <version>
0

> <s_m_source_file>
/data/baiqing/PycharmProjects/Reinvent-master-3.2/result/LINK_invent/BTK/process_docking_weight1_custom_product_contain_oxygen_bond_distance_aromatic_linkinvent_7_9_3/rearranged_h_0064.sdf

> <i_m_source_file_index>
16

> <r_mmod_Potential_Energy-OPLS-2005>
291.728576660156

> <r_mmod_Stretch_Energy-OPLS-2005>
111.950584411621

> <r_mmod_Bend_Energy-OPLS-2005>
212.258209228516

> <r_mmod_Torsional_Energy-OPLS-2005>
403.875579833984

> <r_mmod_Improper_Torsional_Energy-OPLS-2005>
11.2757997512817

> <r_mmod_Van_der_Waal_Energy-OPLS-2005>
154.870895385742

> <r_mmod_Electrostatic_Energy-OPLS-2005>
-395.46826171875

> <r_mmod_Solvation_Energy-OPLS-2005>
-264.336486816406

> <b_mmod_Minimization_Converged-OPLS-2005>
0

> <r_mmod_RMS_Derivative-OPLS-2005>
1.85118210315704

$$$$
16
                    3D
 Structure written by MMmdl.
155163  0  0  1  0            999 V2000
  -30.6523  -14.6277   20.4614 C   0  0  0  0  0  0
  -30.4208  -12.3783   19.4614 C   0  0  0  0  0  0
  -29.5013  -12.5018   18.2270 C   0  0  0  0  0  0
  -28.0241  -12.3466   18.6381 C   0  0  0  0  0  0
  -27.6481  -13.2253   19.8613 C   0  0  2  0  0  0
  -28.6922  -13.1071   20.9947 C   0  0  0  0  0  0
  -25.2531  -13.8189   20.5694 C   0  0  0  0  0  0
  -24.1811  -13.0440   20.9195 C   0  0  0  0  0  0
  -24.6391  -11.6915   20.8745 C   0  0  0  0  0  0
  -23.9067  -10.4290   21.0405 C   0  0  0  0  0  0
  -24.3615   -9.4202   21.9186 C   0  0  0  0  0  0
  -23.6292   -8.2233   22.0751 C   0  0  0  0  0  0
  -22.4270   -8.0275   21.3546 C   0  0  0  0  0  0
  -21.9908   -9.0251   20.4650 C   0  0  0  0  0  0
  -22.7240  -10.2129   20.3057 C   0  0  0  0  0  0
  -21.6848   -6.0734   22.5286 C   0  0  0  0  0  0
  -21.4015   -6.5638   23.8221 C   0  0  0  0  0  0
  -21.3660   -5.6788   24.9179 C   0  0  0  0  0  0
  -21.6045   -4.3054   24.7229 C   0  0  0  0  0  0
  -21.8820   -3.8147   23.4352 C   0  0  0  0  0  0
  -21.9188   -4.6961   22.3407 C   0  0  0  0  0  0
  -22.7833  -13.5223   21.1857 C   0  0  0  0  0  0
  -22.1659   -4.2145   21.0988 F   0  0  0  0  0  0
  -21.5630   -3.4541   25.7745 F   0  0  0  0  0  0
  -30.0086  -13.4199   20.4242 N   0  0  0  0  0  0
  -26.2963  -12.9386   20.3324 N   0  0  0  0  0  0
  -25.9322  -11.6532   20.5772 N   0  0  0  0  0  0
  -22.0480  -12.8216   22.0422 N   0  0  0  0  0  0
  -25.4240  -15.1908   20.4103 N   0  0  0  0  0  0
  -31.8352  -14.7212   20.1234 O   0  0  0  0  0  0
  -21.6635   -6.8874   21.4243 O   0  0  0  0  0  0
  -22.3520  -14.5528   20.6701 O   0  0  0  0  0  0
  -24.6250  -31.8616   23.2053 C   0  0  0  0  0  0
  -25.9103  -32.4789   23.8372 C   0  0  1  0  0  0
  -27.2151  -27.3275   20.1142 C   0  0  0  0  0  0
  -25.5925  -33.8591   24.2299 N   0  0  0  0  0  0
  -23.4176  -30.4880   21.5480 C   0  0  2  0  0  0
  -24.8630  -28.9526   20.1077 C   0  0  0  0  0  0
  -22.7473  -29.4631   22.4940 C   0  0  0  0  0  0
  -18.0287  -28.1376   22.8491 C   0  0  0  0  0  0
  -24.1493  -36.7302   23.2638 C   0  0  0  0  0  0
  -25.9593  -30.7959   21.3759 C   0  0  0  0  0  0
  -26.0327  -29.4254   20.7168 C   0  0  0  0  0  0
  -27.2125  -28.6237   20.7139 C   0  0  0  0  0  0
  -26.0247  -26.9195   19.4642 C   0  0  0  0  0  0
  -24.8615  -27.7050   19.4716 C   0  0  0  0  0  0
  -23.6304  -29.8294   20.1612 C   0  0  0  0  0  0
  -25.4113  -36.3092   24.0335 C   0  0  1  0  0  0
  -20.5887  -28.3679   23.1288 C   0  0  2  0  0  0
  -20.6776  -26.9402   22.5412 C   0  0  0  0  0  0
  -19.5749  -26.6378   21.5216 C   0  0  0  0  0  0
  -18.1932  -26.7922   22.1626 C   0  0  0  0  0  0
  -19.1540  -28.8843   23.2887 C   0  0  0  0  0  0
  -18.9459  -30.1447   23.8898 C   0  0  0  0  0  0
  -17.6459  -30.6581   24.0560 C   0  0  0  0  0  0
  -25.9047  -34.9459   23.5114 C   0  0  0  0  0  0
  -16.5348  -29.9081   23.6329 C   0  0  0  0  0  0
  -16.7273  -28.6497   23.0351 C   0  0  0  0  0  0
  -26.4488  -31.6588   25.0731 C   0  0  0  0  0  0
  -25.3729  -31.3717   26.1460 C   0  0  0  0  0  0
  -27.0316  -30.3014   24.6163 C   0  0  0  0  0  0
  -27.6057  -32.4310   25.7500 C   0  0  0  0  0  0
  -27.5585  -37.1802   24.8460 C   0  0  0  0  0  0
  -21.4185  -29.3041   22.3686 N   0  0  0  0  0  0
  -26.4291  -37.3784   23.9410 N   0  0  0  0  0  0
  -24.6862  -31.0644   22.0998 N   0  0  0  0  0  0
  -23.4207  -28.8160   23.3003 O   0  0  0  0  0  0
  -28.3154  -26.4567   20.1875 O   0  0  0  0  0  0
  -26.5610  -34.8920   22.4677 O   0  0  0  0  0  0
  -23.5418  -32.1402   23.7393 O   0  0  0  0  0  0
  -29.6233  -18.3146   20.7251 C   0  0  0  0  0  0
  -30.7001  -17.2165   18.8473 C   0  0  0  0  0  0
  -30.4995  -19.6652   18.8823 C   0  0  0  0  0  0
  -30.0874  -17.0919   20.1151 C   0  0  0  0  0  0
  -29.8082  -19.6180   20.1242 C   0  0  0  0  0  0
  -30.9057  -18.4712   18.2484 C   0  0  0  0  0  0
  -30.8755  -20.9778   18.2078 C   0  0  0  0  0  0
  -28.0276  -25.0128   20.0191 C   0  0  0  0  0  0
  -29.0199  -23.8731   20.4895 C   0  0  0  0  0  0
  -29.8993  -15.7534   20.6954 N   0  0  0  0  0  0
  -29.4061  -20.8348   20.7699 N   0  0  0  0  0  0
  -28.0629  -21.9161   18.8032 O   0  0  0  0  0  0
  -27.1337  -21.9977   21.1482 O   0  0  0  0  0  0
  -31.5250  -18.5258   17.0436 F   0  0  0  0  0  0
  -28.2850  -22.1322   20.2416 S   0  0  0  0  0  0
  -31.4668  -12.4731   19.1639 H   0  0  0  0  0  0
  -30.3292  -11.3895   19.9121 H   0  0  0  0  0  0
  -29.7643  -11.7485   17.4834 H   0  0  0  0  0  0
  -29.6516  -13.4700   17.7472 H   0  0  0  0  0  0
  -27.8593  -11.2950   18.8737 H   0  0  0  0  0  0
  -27.3685  -12.5727   17.7962 H   0  0  0  0  0  0
  -27.6605  -14.2572   19.5098 H   0  0  0  0  0  0
  -28.6957  -12.0996   21.4128 H   0  0  0  0  0  0
  -28.4476  -13.7772   21.8196 H   0  0  0  0  0  0
  -25.2761   -9.5669   22.4767 H   0  0  0  0  0  0
  -24.0002   -7.4618   22.7465 H   0  0  0  0  0  0
  -21.0839   -8.8767   19.8961 H   0  0  0  0  0  0
  -22.3698  -10.9662   19.6166 H   0  0  0  0  0  0
  -21.2009   -7.6146   23.9722 H   0  0  0  0  0  0
  -21.1485   -6.0521   25.9083 H   0  0  0  0  0  0
  -22.0596   -2.7608   23.2852 H   0  0  0  0  0  0
  -22.4088  -11.9874   22.4809 H   0  0  0  0  0  0
  -21.1106  -13.1255   22.2642 H   0  0  0  0  0  0
  -24.6569  -15.8455   20.5194 H   0  0  0  0  0  0
  -26.2733  -15.6305   20.0781 H   0  0  0  0  0  0
  -26.7171  -32.5463   23.1121 H   0  0  0  0  0  0
  -25.0077  -33.9741   25.0446 H   0  0  0  0  0  0
  -22.7101  -31.3081   21.4086 H   0  0  0  0  0  0
  -23.3756  -35.9631   23.3286 H   0  0  0  0  0  0
  -24.3592  -36.8931   22.2054 H   0  0  0  0  0  0
  -23.7239  -37.6501   23.6660 H   0  0  0  0  0  0
  -26.0893  -31.5602   20.6084 H   0  0  0  0  0  0
  -26.8416  -30.8436   22.0028 H   0  0  0  0  0  0
  -28.1056  -28.9770   21.2106 H   0  0  0  0  0  0
  -25.9537  -25.9725   18.9512 H   0  0  0  0  0  0
  -23.9692  -27.3412   18.9815 H   0  0  0  0  0  0
  -23.7452  -30.6076   19.4057 H   0  0  0  0  0  0
  -22.7513  -29.2564   19.8601 H   0  0  0  0  0  0
  -25.1292  -36.1949   25.0826 H   0  0  0  0  0  0
  -20.9988  -28.3250   24.1405 H   0  0  0  0  0  0
  -20.5680  -26.2287   23.3608 H   0  0  0  0  0  0
  -21.6643  -26.7433   22.1196 H   0  0  0  0  0  0
  -19.6910  -25.6294   21.1238 H   0  0  0  0  0  0
  -19.6692  -27.3196   20.6750 H   0  0  0  0  0  0
  -17.4205  -26.6673   21.4025 H   0  0  0  0  0  0
  -18.0328  -26.0060   22.9017 H   0  0  0  0  0  0
  -19.7933  -30.7265   24.2269 H   0  0  0  0  0  0
  -17.5008  -31.6261   24.5155 H   0  0  0  0  0  0
  -15.5348  -30.2976   23.7644 H   0  0  0  0  0  0
  -15.8673  -28.0809   22.7061 H   0  0  0  0  0  0
  -24.5914  -30.7053   25.7793 H   0  0  0  0  0  0
  -24.8908  -32.2878   26.4885 H   0  0  0  0  0  0
  -25.8064  -30.8901   27.0236 H   0  0  0  0  0  0
  -26.2876  -29.6782   24.1189 H   0  0  0  0  0  0
  -27.4019  -29.7251   25.4652 H   0  0  0  0  0  0
  -27.8749  -30.4301   23.9374 H   0  0  0  0  0  0
  -27.2675  -33.3614   26.2075 H   0  0  0  0  0  0
  -28.3870  -32.6860   25.0327 H   0  0  0  0  0  0
  -28.0716  -31.8430   26.5416 H   0  0  0  0  0  0
  -28.2586  -38.0116   24.7525 H   0  0  0  0  0  0
  -28.1094  -36.2647   24.6258 H   0  0  0  0  0  0
  -27.2304  -37.1422   25.8862 H   0  0  0  0  0  0
  -20.9353  -29.8778   21.6916 H   0  0  0  0  0  0
  -26.0176  -38.2858   24.1416 H   0  0  0  0  0  0
  -29.1264  -18.2521   21.6826 H   0  0  0  0  0  0
  -31.0345  -16.3466   18.3027 H   0  0  0  0  0  0
  -30.1532  -21.2302   17.4326 H   0  0  0  0  0  0
  -31.8522  -20.8948   17.7310 H   0  0  0  0  0  0
  -30.9417  -21.8056   18.9122 H   0  0  0  0  0  0
  -27.0926  -24.7957   20.5380 H   0  0  0  0  0  0
  -27.8392  -24.8414   18.9588 H   0  0  0  0  0  0
  -29.2547  -23.9814   21.5461 H   0  0  0  0  0  0
  -29.9573  -23.9242   19.9417 H   0  0  0  0  0  0
  -29.0195  -15.5939   21.1631 H   0  0  0  0  0  0
  -29.3359  -20.7303   21.7738 H   0  0  0  0  0  0
  1 25  1  0  0  0
  1 30  2  0  0  0
  1 80  1  0  0  0
  2  3  1  0  0  0
  2 25  1  0  0  0
  2 86  1  0  0  0
  2 87  1  0  0  0
  3  4  1  0  0  0
  3 88  1  0  0  0
  3 89  1  0  0  0
  4  5  1  0  0  0
  4 90  1  0  0  0
  4 91  1  0  0  0
  5  6  1  0  0  0
  5 26  1  0  0  0
  5 92  1  0  0  0
  6 25  1  0  0  0
  6 93  1  0  0  0
  6 94  1  0  0  0
  7  8  2  0  0  0
  7 26  1  0  0  0
  7 29  1  0  0  0
  8  9  1  0  0  0
  8 22  1  0  0  0
  9 10  1  0  0  0
  9 27  2  0  0  0
 10 11  2  0  0  0
 10 15  1  0  0  0
 11 12  1  0  0  0
 11 95  1  0  0  0
 12 13  2  0  0  0
 12 96  1  0  0  0
 13 14  1  0  0  0
 13 31  1  0  0  0
 14 15  2  0  0  0
 14 97  1  0  0  0
 15 98  1  0  0  0
 16 17  2  0  0  0
 16 21  1  0  0  0
 16 31  1  0  0  0
 17 18  1  0  0  0
 17 99  1  0  0  0
 18 19  2  0  0  0
 18100  1  0  0  0
 19 20  1  0  0  0
 19 24  1  0  0  0
 20 21  2  0  0  0
 20101  1  0  0  0
 21 23  1  0  0  0
 22 28  1  0  0  0
 22 32  2  0  0  0
 26 27  1  0  0  0
 28102  1  0  0  0
 28103  1  0  0  0
 29104  1  0  0  0
 29105  1  0  0  0
 33 34  1  0  0  0
 33 66  1  0  0  0
 33 70  2  0  0  0
 34 36  1  0  0  0
 34 59  1  0  0  0
 34106  1  0  0  0
 35 44  2  0  0  0
 35 45  1  0  0  0
 35 68  1  0  0  0
 36 56  1  0  0  0
 36107  1  0  0  0
 37 39  1  0  0  0
 37 47  1  0  0  0
 37 66  1  0  0  0
 37108  1  0  0  0
 38 43  2  0  0  0
 38 46  1  0  0  0
 38 47  1  0  0  0
 39 64  1  0  0  0
 39 67  2  0  0  0
 40 52  1  0  0  0
 40 53  2  0  0  0
 40 58  1  0  0  0
 41109  1  0  0  0
 41110  1  0  0  0
 41111  1  0  0  0
 41 48  1  0  0  0
 42 43  1  0  0  0
 42 66  1  0  0  0
 42112  1  0  0  0
 42113  1  0  0  0
 43 44  1  0  0  0
 44114  1  0  0  0
 45 46  2  0  0  0
 45115  1  0  0  0
 46116  1  0  0  0
 47117  1  0  0  0
 47118  1  0  0  0
 48 56  1  0  0  0
 48 65  1  0  0  0
 48119  1  0  0  0
 49 50  1  0  0  0
 49 53  1  0  0  0
 49 64  1  0  0  0
 49120  1  0  0  0
 50 51  1  0  0  0
 50121  1  0  0  0
 50122  1  0  0  0
 51 52  1  0  0  0
 51123  1  0  0  0
 51124  1  0  0  0
 52125  1  0  0  0
 52126  1  0  0  0
 53 54  1  0  0  0
 54 55  2  0  0  0
 54127  1  0  0  0
 55 57  1  0  0  0
 55128  1  0  0  0
 56 69  2  0  0  0
 57 58  2  0  0  0
 57129  1  0  0  0
 58130  1  0  0  0
 59 60  1  0  0  0
 59 61  1  0  0  0
 59 62  1  0  0  0
 60131  1  0  0  0
 60132  1  0  0  0
 60133  1  0  0  0
 61134  1  0  0  0
 61135  1  0  0  0
 61136  1  0  0  0
 62137  1  0  0  0
 62138  1  0  0  0
 62139  1  0  0  0
 63 65  1  0  0  0
 63140  1  0  0  0
 63141  1  0  0  0
 63142  1  0  0  0
 64143  1  0  0  0
 65144  1  0  0  0
 68 78  1  0  0  0
 71 74  2  0  0  0
 71 75  1  0  0  0
 71145  1  0  0  0
 72 74  1  0  0  0
 72 76  2  0  0  0
 72146  1  0  0  0
 73 75  2  0  0  0
 73 76  1  0  0  0
 73 77  1  0  0  0
 74 80  1  0  0  0
 75 81  1  0  0  0
 76 84  1  0  0  0
 77147  1  0  0  0
 77148  1  0  0  0
 77149  1  0  0  0
 78 79  1  0  0  0
 78150  1  0  0  0
 78151  1  0  0  0
 79152  1  0  0  0
 79153  1  0  0  0
 79 85  1  0  0  0
 80154  1  0  0  0
 81 85  1  0  0  0
 81155  1  0  0  0
 82 85  2  0  0  0
 83 85  2  0  0  0
M  ISO  4   1 100  68 101  78 101  80 100
M  END
> <chiral flag>
0

> <version>
0

> <s_m_source_file>
/data/baiqing/PycharmProjects/Reinvent-master-3.2/result/LINK_invent/BTK/process_docking_weight1_custom_product_contain_oxygen_bond_distance_aromatic_linkinvent_7_9_3/rearranged_h_0064.sdf

> <i_m_source_file_index>
17

> <r_mmod_Potential_Energy-OPLS-2005>
-100.891044616699

> <r_mmod_Stretch_Energy-OPLS-2005>
77.8737030029297

> <r_mmod_Bend_Energy-OPLS-2005>
133.083923339844

> <r_mmod_Torsional_Energy-OPLS-2005>
240.000778198242

> <r_mmod_Improper_Torsional_Energy-OPLS-2005>
7.78012228012085

> <r_mmod_Van_der_Waal_Energy-OPLS-2005>
149.203750610352

> <r_mmod_Electrostatic_Energy-OPLS-2005>
-508.825378417969

> <r_mmod_Solvation_Energy-OPLS-2005>
-249.670608520508

> <b_mmod_Minimization_Converged-OPLS-2005>
0

> <r_mmod_RMS_Derivative-OPLS-2005>
1.28161382675171

$$$$
17
                    3D
 Structure written by MMmdl.
157166  0  0  1  0            999 V2000
  -30.5174  -14.9564   20.4283 C   0  0  0  0  0  0
  -30.4535  -12.5931   19.4940 C   0  0  0  0  0  0
  -29.5276  -12.5359   18.2551 C   0  0  0  0  0  0
  -28.0594  -12.3180   18.6720 C   0  0  0  0  0  0
  -27.6340  -13.2406   19.8435 C   0  0  2  0  0  0
  -28.6802  -13.2502   20.9801 C   0  0  0  0  0  0
  -25.2366  -13.8011   20.5539 C   0  0  0  0  0  0
  -24.1741  -13.0296   20.9237 C   0  0  0  0  0  0
  -24.6406  -11.6815   20.8795 C   0  0  0  0  0  0
  -23.9084  -10.4220   21.0438 C   0  0  0  0  0  0
  -24.3624   -9.4139   21.9217 C   0  0  0  0  0  0
  -23.6285   -8.2184   22.0767 C   0  0  0  0  0  0
  -22.4269   -8.0251   21.3545 C   0  0  0  0  0  0
  -21.9917   -9.0227   20.4649 C   0  0  0  0  0  0
  -22.7259  -10.2092   20.3072 C   0  0  0  0  0  0
  -21.6837   -6.0723   22.5282 C   0  0  0  0  0  0
  -21.3999   -6.5630   23.8214 C   0  0  0  0  0  0
  -21.3655   -5.6786   24.9180 C   0  0  0  0  0  0
  -21.6046   -4.3048   24.7230 C   0  0  0  0  0  0
  -21.8821   -3.8140   23.4348 C   0  0  0  0  0  0
  -21.9189   -4.6955   22.3404 C   0  0  0  0  0  0
  -22.7770  -13.5114   21.1888 C   0  0  0  0  0  0
  -22.1662   -4.2142   21.0981 F   0  0  0  0  0  0
  -21.5634   -3.4535   25.7742 F   0  0  0  0  0  0
  -29.9596  -13.6769   20.3901 N   0  0  0  0  0  0
  -26.2896  -12.9335   20.3242 N   0  0  0  0  0  0
  -25.9357  -11.6476   20.5801 N   0  0  0  0  0  0
  -22.0416  -12.8139   22.0464 N   0  0  0  0  0  0
  -25.3751  -15.1636   20.3557 N   0  0  0  0  0  0
  -31.7121  -15.0700   20.1320 O   0  0  0  0  0  0
  -21.6618   -6.8861   21.4242 O   0  0  0  0  0  0
  -22.3476  -14.5428   20.6725 O   0  0  0  0  0  0
  -24.6426  -31.8445   23.1871 C   0  0  0  0  0  0
  -25.9191  -32.4707   23.8269 C   0  0  1  0  0  0
  -27.2363  -27.1511   20.1613 C   0  0  0  0  0  0
  -25.5934  -33.8510   24.2187 N   0  0  0  0  0  0
  -23.4479  -30.4605   21.5323 C   0  0  2  0  0  0
  -24.9022  -28.8806   20.1198 C   0  0  0  0  0  0
  -22.7568  -29.4546   22.4867 C   0  0  0  0  0  0
  -18.0301  -28.1413   22.8489 C   0  0  0  0  0  0
  -24.1475  -36.7244   23.2646 C   0  0  0  0  0  0
  -26.0023  -30.7235   21.3829 C   0  0  0  0  0  0
  -26.0789  -29.3322   20.7322 C   0  0  0  0  0  0
  -27.2501  -28.4854   20.7311 C   0  0  0  0  0  0
  -26.0318  -26.7901   19.5219 C   0  0  0  0  0  0
  -24.8894  -27.6210   19.4999 C   0  0  0  0  0  0
  -23.6770  -29.7818   20.1554 C   0  0  0  0  0  0
  -25.4112  -36.3038   24.0319 C   0  0  1  0  0  0
  -20.5914  -28.3724   23.1245 C   0  0  2  0  0  0
  -20.6779  -26.9425   22.5414 C   0  0  0  0  0  0
  -19.5747  -26.6396   21.5222 C   0  0  0  0  0  0
  -18.1933  -26.7953   22.1636 C   0  0  0  0  0  0
  -19.1561  -28.8887   23.2857 C   0  0  0  0  0  0
  -18.9483  -30.1487   23.8879 C   0  0  0  0  0  0
  -17.6480  -30.6610   24.0569 C   0  0  0  0  0  0
  -25.9066  -34.9415   23.5065 C   0  0  0  0  0  0
  -16.5367  -29.9106   23.6352 C   0  0  0  0  0  0
  -16.7288  -28.6526   23.0372 C   0  0  0  0  0  0
  -26.4510  -31.6579   25.0709 C   0  0  0  0  0  0
  -25.3692  -31.3782   26.1405 C   0  0  0  0  0  0
  -27.0374  -30.2983   24.6277 C   0  0  0  0  0  0
  -27.6037  -32.4345   25.7493 C   0  0  0  0  0  0
  -27.5563  -37.1778   24.8470 C   0  0  0  0  0  0
  -21.4259  -29.3048   22.3614 N   0  0  0  0  0  0
  -26.4271  -37.3758   23.9417 N   0  0  0  0  0  0
  -24.7173  -31.0306   22.0899 N   0  0  0  0  0  0
  -23.4210  -28.8105   23.3028 O   0  0  0  0  0  0
  -28.3054  -26.1865   20.1425 O   0  0  0  0  0  0
  -26.5663  -34.8917   22.4651 O   0  0  0  0  0  0
  -23.5546  -32.1309   23.7094 O   0  0  0  0  0  0
  -30.4871  -20.0284   20.3181 C   0  0  0  0  0  0
  -30.6610  -18.5698   20.2925 C   0  0  0  0  0  0
  -28.2133  -19.7532   20.8220 C   0  0  0  0  0  0
  -28.3837  -18.3151   20.8334 C   0  0  0  0  0  0
  -29.2431  -20.7168   20.5961 C   0  0  0  0  0  0
  -29.6176  -17.6123   20.5690 C   0  0  0  0  0  0
  -29.0746  -22.3954   22.3286 C   0  0  0  0  0  0
  -28.7022  -23.3480   20.1701 C   0  0  0  0  0  0
  -28.5147  -23.6588   23.0066 C   0  0  0  0  0  0
  -28.7058  -24.9405   22.1980 C   0  0  0  0  0  0
  -28.1347  -24.7884   20.7928 C   0  0  1  0  0  0
  -27.1344  -17.5404   21.1793 C   0  0  0  0  0  0
  -29.0286  -22.2059   20.9737 N   0  0  0  0  0  0
  -29.6530  -16.0678   20.6237 N   0  0  0  0  0  0
  -29.5702  -21.5591   23.0956 O   0  0  0  0  0  0
  -28.8183  -23.2799   18.9403 O   0  0  0  0  0  0
  -31.4836  -12.7691   19.1800 H   0  0  0  0  0  0
  -30.4602  -11.6353   20.0165 H   0  0  0  0  0  0
  -29.8471  -11.7402   17.5804 H   0  0  0  0  0  0
  -29.6136  -13.4660   17.6918 H   0  0  0  0  0  0
  -27.9551  -11.2746   18.9722 H   0  0  0  0  0  0
  -27.3968  -12.4573   17.8170 H   0  0  0  0  0  0
  -27.5994  -14.2476   19.4268 H   0  0  0  0  0  0
  -28.7700  -12.2644   21.4389 H   0  0  0  0  0  0
  -28.3755  -13.9305   21.7771 H   0  0  0  0  0  0
  -25.2766   -9.5609   22.4795 H   0  0  0  0  0  0
  -23.9985   -7.4569   22.7483 H   0  0  0  0  0  0
  -21.0850   -8.8758   19.8948 H   0  0  0  0  0  0
  -22.3739  -10.9641   19.6178 H   0  0  0  0  0  0
  -21.1980   -7.6138   23.9712 H   0  0  0  0  0  0
  -21.1479   -6.0518   25.9082 H   0  0  0  0  0  0
  -22.0605   -2.7602   23.2849 H   0  0  0  0  0  0
  -22.4028  -11.9802   22.4858 H   0  0  0  0  0  0
  -21.1040  -13.1181   22.2672 H   0  0  0  0  0  0
  -24.5673  -15.7749   20.4009 H   0  0  0  0  0  0
  -26.1576  -15.5736   19.8656 H   0  0  0  0  0  0
  -26.7259  -32.5330   23.1004 H   0  0  0  0  0  0
  -25.0040  -33.9620   25.0306 H   0  0  0  0  0  0
  -22.7505  -31.2858   21.3730 H   0  0  0  0  0  0
  -23.3751  -35.9562   23.3312 H   0  0  0  0  0  0
  -24.3556  -36.8879   22.2062 H   0  0  0  0  0  0
  -23.7209  -37.6434   23.6677 H   0  0  0  0  0  0
  -26.1521  -31.4750   20.6064 H   0  0  0  0  0  0
  -26.8744  -30.7818   22.0228 H   0  0  0  0  0  0
  -28.1526  -28.8343   21.2125 H   0  0  0  0  0  0
  -25.9656  -25.8246   19.0407 H   0  0  0  0  0  0
  -23.9912  -27.2694   19.0108 H   0  0  0  0  0  0
  -23.8145  -30.5513   19.3948 H   0  0  0  0  0  0
  -22.7933  -29.2207   19.8466 H   0  0  0  0  0  0
  -25.1303  -36.1863   25.0812 H   0  0  0  0  0  0
  -21.0012  -28.3314   24.1364 H   0  0  0  0  0  0
  -20.5669  -26.2340   23.3638 H   0  0  0  0  0  0
  -21.6645  -26.7436   22.1208 H   0  0  0  0  0  0
  -19.6900  -25.6302   21.1269 H   0  0  0  0  0  0
  -19.6686  -27.3195   20.6741 H   0  0  0  0  0  0
  -17.4200  -26.6709   21.4038 H   0  0  0  0  0  0
  -18.0323  -26.0104   22.9042 H   0  0  0  0  0  0
  -19.7960  -30.7308   24.2245 H   0  0  0  0  0  0
  -17.5040  -31.6291   24.5171 H   0  0  0  0  0  0
  -15.5369  -30.3008   23.7686 H   0  0  0  0  0  0
  -15.8687  -28.0839   22.7106 H   0  0  0  0  0  0
  -24.5858  -30.7141   25.7731 H   0  0  0  0  0  0
  -24.8889  -32.2976   26.4768 H   0  0  0  0  0  0
  -25.7975  -30.8996   27.0221 H   0  0  0  0  0  0
  -26.2994  -29.6715   24.1260 H   0  0  0  0  0  0
  -27.3973  -29.7275   25.4846 H   0  0  0  0  0  0
  -27.8905  -30.4232   23.9605 H   0  0  0  0  0  0
  -27.2632  -33.3671   26.2003 H   0  0  0  0  0  0
  -28.3884  -32.6871   25.0349 H   0  0  0  0  0  0
  -28.0656  -31.8512   26.5469 H   0  0  0  0  0  0
  -28.2589  -38.0067   24.7524 H   0  0  0  0  0  0
  -28.1050  -36.2604   24.6290 H   0  0  0  0  0  0
  -27.2289  -37.1425   25.8875 H   0  0  0  0  0  0
  -20.9470  -29.8756   21.6784 H   0  0  0  0  0  0
  -26.0140  -38.2822   24.1446 H   0  0  0  0  0  0
  -31.3720  -20.6313   20.1690 H   0  0  0  0  0  0
  -31.6512  -18.1876   20.0853 H   0  0  0  0  0  0
  -27.2353  -20.1367   21.0794 H   0  0  0  0  0  0
  -28.9816  -23.7753   23.9852 H   0  0  0  0  0  0
  -27.4535  -23.4916   23.1943 H   0  0  0  0  0  0
  -29.7654  -25.1945   22.1445 H   0  0  0  0  0  0
  -28.2147  -25.7671   22.7122 H   0  0  0  0  0  0
  -27.0617  -24.6202   20.8901 H   0  0  0  0  0  0
  -26.5391  -18.0693   21.9242 H   0  0  0  0  0  0
  -27.3414  -16.5524   21.5875 H   0  0  0  0  0  0
  -26.5308  -17.4535   20.2776 H   0  0  0  0  0  0
  -28.7385  -15.7002   20.8337 H   0  0  0  0  0  0
  1 25  1  0  0  0
  1 30  2  0  0  0
  1 84  1  0  0  0
  2  3  1  0  0  0
  2 25  1  0  0  0
  2 87  1  0  0  0
  2 88  1  0  0  0
  3  4  1  0  0  0
  3 89  1  0  0  0
  3 90  1  0  0  0
  4  5  1  0  0  0
  4 91  1  0  0  0
  4 92  1  0  0  0
  5  6  1  0  0  0
  5 26  1  0  0  0
  5 93  1  0  0  0
  6 25  1  0  0  0
  6 94  1  0  0  0
  6 95  1  0  0  0
  7  8  2  0  0  0
  7 26  1  0  0  0
  7 29  1  0  0  0
  8  9  1  0  0  0
  8 22  1  0  0  0
  9 10  1  0  0  0
  9 27  2  0  0  0
 10 11  2  0  0  0
 10 15  1  0  0  0
 11 12  1  0  0  0
 11 96  1  0  0  0
 12 13  2  0  0  0
 12 97  1  0  0  0
 13 14  1  0  0  0
 13 31  1  0  0  0
 14 15  2  0  0  0
 14 98  1  0  0  0
 15 99  1  0  0  0
 16 17  2  0  0  0
 16 21  1  0  0  0
 16 31  1  0  0  0
 17 18  1  0  0  0
 17100  1  0  0  0
 18 19  2  0  0  0
 18101  1  0  0  0
 19 20  1  0  0  0
 19 24  1  0  0  0
 20 21  2  0  0  0
 20102  1  0  0  0
 21 23  1  0  0  0
 22 28  1  0  0  0
 22 32  2  0  0  0
 26 27  1  0  0  0
 28103  1  0  0  0
 28104  1  0  0  0
 29105  1  0  0  0
 29106  1  0  0  0
 33 34  1  0  0  0
 33 66  1  0  0  0
 33 70  2  0  0  0
 34 36  1  0  0  0
 34 59  1  0  0  0
 34107  1  0  0  0
 35 44  2  0  0  0
 35 45  1  0  0  0
 35 68  1  0  0  0
 36 56  1  0  0  0
 36108  1  0  0  0
 37 39  1  0  0  0
 37 47  1  0  0  0
 37 66  1  0  0  0
 37109  1  0  0  0
 38 43  2  0  0  0
 38 46  1  0  0  0
 38 47  1  0  0  0
 39 64  1  0  0  0
 39 67  2  0  0  0
 40 52  1  0  0  0
 40 53  2  0  0  0
 40 58  1  0  0  0
 41110  1  0  0  0
 41111  1  0  0  0
 41112  1  0  0  0
 41 48  1  0  0  0
 42 43  1  0  0  0
 42 66  1  0  0  0
 42113  1  0  0  0
 42114  1  0  0  0
 43 44  1  0  0  0
 44115  1  0  0  0
 45 46  2  0  0  0
 45116  1  0  0  0
 46117  1  0  0  0
 47118  1  0  0  0
 47119  1  0  0  0
 48 56  1  0  0  0
 48 65  1  0  0  0
 48120  1  0  0  0
 49 50  1  0  0  0
 49 53  1  0  0  0
 49 64  1  0  0  0
 49121  1  0  0  0
 50 51  1  0  0  0
 50122  1  0  0  0
 50123  1  0  0  0
 51 52  1  0  0  0
 51124  1  0  0  0
 51125  1  0  0  0
 52126  1  0  0  0
 52127  1  0  0  0
 53 54  1  0  0  0
 54 55  2  0  0  0
 54128  1  0  0  0
 55 57  1  0  0  0
 55129  1  0  0  0
 56 69  2  0  0  0
 57 58  2  0  0  0
 57130  1  0  0  0
 58131  1  0  0  0
 59 60  1  0  0  0
 59 61  1  0  0  0
 59 62  1  0  0  0
 60132  1  0  0  0
 60133  1  0  0  0
 60134  1  0  0  0
 61135  1  0  0  0
 61136  1  0  0  0
 61137  1  0  0  0
 62138  1  0  0  0
 62139  1  0  0  0
 62140  1  0  0  0
 63 65  1  0  0  0
 63141  1  0  0  0
 63142  1  0  0  0
 63143  1  0  0  0
 64144  1  0  0  0
 65145  1  0  0  0
 68 81  1  0  0  0
 71 72  2  0  0  0
 71 75  1  0  0  0
 71146  1  0  0  0
 72 76  1  0  0  0
 72147  1  0  0  0
 73 74  1  0  0  0
 73 75  2  0  0  0
 73148  1  0  0  0
 74 76  2  0  0  0
 74 82  1  0  0  0
 75 83  1  0  0  0
 76 84  1  0  0  0
 77 79  1  0  0  0
 77 83  1  0  0  0
 77 85  2  0  0  0
 78 81  1  0  0  0
 78 83  1  0  0  0
 78 86  2  0  0  0
 79 80  1  0  0  0
 79149  1  0  0  0
 79150  1  0  0  0
 80 81  1  0  0  0
 80151  1  0  0  0
 80152  1  0  0  0
 81153  1  0  0  0
 82154  1  0  0  0
 82155  1  0  0  0
 82156  1  0  0  0
 84157  1  0  0  0
M  ISO  4   1 100  68 101  81 101  84 100
M  END
> <chiral flag>
0

> <version>
0

> <s_m_source_file>
/data/baiqing/PycharmProjects/Reinvent-master-3.2/result/LINK_invent/BTK/process_docking_weight1_custom_product_contain_oxygen_bond_distance_aromatic_linkinvent_7_9_3/rearranged_h_0064.sdf

> <i_m_source_file_index>
18

> <r_mmod_Potential_Energy-OPLS-2005>
541.668090820312

> <r_mmod_Stretch_Energy-OPLS-2005>
245.226806640625

> <r_mmod_Bend_Energy-OPLS-2005>
275.331970214844

> <r_mmod_Torsional_Energy-OPLS-2005>
294.132110595703

> <r_mmod_Improper_Torsional_Energy-OPLS-2005>
7.98023176193237

> <r_mmod_Van_der_Waal_Energy-OPLS-2005>
146.76741027832

> <r_mmod_Electrostatic_Energy-OPLS-2005>
-368.708923339844

> <r_mmod_Solvation_Energy-OPLS-2005>
-246.181335449219

> <b_mmod_Minimization_Converged-OPLS-2005>
0

> <r_mmod_RMS_Derivative-OPLS-2005>
1.04909694194794

$$$$
18
                    3D
 Structure written by MMmdl.
154162  0  0  1  0            999 V2000
  -30.6699  -14.7433   20.4160 C   0  0  0  0  0  0
  -30.4223  -12.4510   19.4740 C   0  0  0  0  0  0
  -29.5060  -12.4969   18.2336 C   0  0  0  0  0  0
  -28.0334  -12.3281   18.6516 C   0  0  0  0  0  0
  -27.6399  -13.2431   19.8422 C   0  0  2  0  0  0
  -28.6906  -13.2209   20.9746 C   0  0  0  0  0  0
  -25.2506  -13.8228   20.5708 C   0  0  0  0  0  0
  -24.1811  -13.0457   20.9221 C   0  0  0  0  0  0
  -24.6428  -11.6935   20.8773 C   0  0  0  0  0  0
  -23.9105  -10.4294   21.0415 C   0  0  0  0  0  0
  -24.3644   -9.4205   21.9196 C   0  0  0  0  0  0
  -23.6308   -8.2243   22.0758 C   0  0  0  0  0  0
  -22.4289   -8.0291   21.3554 C   0  0  0  0  0  0
  -21.9937   -9.0263   20.4650 C   0  0  0  0  0  0
  -22.7275  -10.2140   20.3060 C   0  0  0  0  0  0
  -21.6857   -6.0750   22.5283 C   0  0  0  0  0  0
  -21.4016   -6.5657   23.8216 C   0  0  0  0  0  0
  -21.3658   -5.6801   24.9177 C   0  0  0  0  0  0
  -21.6044   -4.3060   24.7223 C   0  0  0  0  0  0
  -21.8820   -3.8163   23.4339 C   0  0  0  0  0  0
  -21.9188   -4.6978   22.3399 C   0  0  0  0  0  0
  -22.7823  -13.5218   21.1876 C   0  0  0  0  0  0
  -22.1662   -4.2163   21.0978 F   0  0  0  0  0  0
  -21.5622   -3.4544   25.7739 F   0  0  0  0  0  0
  -29.9914  -13.5445   20.3767 N   0  0  0  0  0  0
  -26.2950  -12.9463   20.3288 N   0  0  0  0  0  0
  -25.9371  -11.6597   20.5779 N   0  0  0  0  0  0
  -22.0470  -12.8188   22.0420 N   0  0  0  0  0  0
  -25.4182  -15.1948   20.4113 N   0  0  0  0  0  0
  -31.8769  -14.7370   20.1764 O   0  0  0  0  0  0
  -21.6654   -6.8895   21.4248 O   0  0  0  0  0  0
  -22.3497  -14.5520   20.6723 O   0  0  0  0  0  0
  -24.6317  -31.8553   23.1990 C   0  0  0  0  0  0
  -25.9141  -32.4738   23.8335 C   0  0  1  0  0  0
  -27.2174  -27.2688   20.1233 C   0  0  0  0  0  0
  -25.5943  -33.8548   24.2267 N   0  0  0  0  0  0
  -23.4255  -30.4802   21.5430 C   0  0  2  0  0  0
  -24.8711  -28.9328   20.1060 C   0  0  0  0  0  0
  -22.7512  -29.4588   22.4912 C   0  0  0  0  0  0
  -18.0299  -28.1382   22.8482 C   0  0  0  0  0  0
  -24.1485  -36.7283   23.2641 C   0  0  0  0  0  0
  -25.9722  -30.7684   21.3795 C   0  0  0  0  0  0
  -26.0401  -29.3930   20.7225 C   0  0  0  0  0  0
  -27.2108  -28.5700   20.7273 C   0  0  0  0  0  0
  -26.0286  -26.8894   19.4524 C   0  0  0  0  0  0
  -24.8709  -27.6884   19.4613 C   0  0  0  0  0  0
  -23.6415  -29.8181   20.1578 C   0  0  0  0  0  0
  -25.4104  -36.3069   24.0335 C   0  0  1  0  0  0
  -20.5901  -28.3678   23.1281 C   0  0  2  0  0  0
  -20.6780  -26.9396   22.5427 C   0  0  0  0  0  0
  -19.5753  -26.6378   21.5229 C   0  0  0  0  0  0
  -18.1931  -26.7925   22.1636 C   0  0  0  0  0  0
  -19.1553  -28.8850   23.2870 C   0  0  0  0  0  0
  -18.9475  -30.1462   23.8876 C   0  0  0  0  0  0
  -17.6464  -30.6573   24.0565 C   0  0  0  0  0  0
  -25.9056  -34.9436   23.5103 C   0  0  0  0  0  0
  -16.5353  -29.9071   23.6332 C   0  0  0  0  0  0
  -16.7287  -28.6494   23.0341 C   0  0  0  0  0  0
  -26.4511  -31.6571   25.0728 C   0  0  0  0  0  0
  -25.3738  -31.3744   26.1453 C   0  0  0  0  0  0
  -27.0352  -30.2977   24.6205 C   0  0  0  0  0  0
  -27.6054  -32.4328   25.7494 C   0  0  0  0  0  0
  -27.5575  -37.1792   24.8467 C   0  0  0  0  0  0
  -21.4214  -29.3037   22.3677 N   0  0  0  0  0  0
  -26.4275  -37.3775   23.9413 N   0  0  0  0  0  0
  -24.6962  -31.0535   22.0961 N   0  0  0  0  0  0
  -23.4221  -28.8131   23.3005 O   0  0  0  0  0  0
  -28.3208  -26.3867   20.2193 O   0  0  0  0  0  0
  -26.5629  -34.8904   22.4674 O   0  0  0  0  0  0
  -23.5469  -32.1377   23.7299 O   0  0  0  0  0  0
  -32.0504  -18.8485   19.1404 C   0  0  0  0  0  0
  -31.5532  -17.5607   19.4058 C   0  0  0  0  0  0
  -29.6801  -18.5636   20.5712 C   0  0  0  0  0  0
  -31.3941  -20.0098   19.5922 C   0  0  0  0  0  0
  -30.3913  -17.3457   20.1888 C   0  0  0  0  0  0
  -30.1305  -19.9175   20.2465 C   0  0  0  0  0  0
  -29.2005  -22.3326   19.9536 C   0  0  0  0  0  0
  -32.1377  -21.3282   19.4033 C   0  0  0  0  0  0
  -28.9361  -23.7478   20.6542 C   0  0  0  0  0  0
  -28.2190  -24.9372   19.8242 C   0  0  0  0  0  0
  -29.4441  -21.1683   20.6704 N   0  0  0  0  0  0
  -29.9686  -15.9455   20.5181 N   0  0  0  0  0  0
  -29.1770  -22.2979   18.7210 O   0  0  0  0  0  0
  -31.4650  -12.5418   19.1669 H   0  0  0  0  0  0
  -30.3446  -11.4863   19.9784 H   0  0  0  0  0  0
  -29.7846  -11.7156   17.5259 H   0  0  0  0  0  0
  -29.6359  -13.4461   17.7099 H   0  0  0  0  0  0
  -27.8908  -11.2826   18.9275 H   0  0  0  0  0  0
  -27.3743  -12.5103   17.8019 H   0  0  0  0  0  0
  -27.6205  -14.2569   19.4408 H   0  0  0  0  0  0
  -28.7257  -12.2452   21.4601 H   0  0  0  0  0  0
  -28.4348  -13.9447   21.7501 H   0  0  0  0  0  0
  -25.2788   -9.5679   22.4777 H   0  0  0  0  0  0
  -24.0018   -7.4637   22.7476 H   0  0  0  0  0  0
  -21.0873   -8.8794   19.8947 H   0  0  0  0  0  0
  -22.3745  -10.9688   19.6168 H   0  0  0  0  0  0
  -21.2017   -7.6163   23.9724 H   0  0  0  0  0  0
  -21.1479   -6.0534   25.9079 H   0  0  0  0  0  0
  -22.0596   -2.7624   23.2840 H   0  0  0  0  0  0
  -22.4094  -11.9845   22.4797 H   0  0  0  0  0  0
  -21.1086  -13.1201   22.2632 H   0  0  0  0  0  0
  -24.6490  -15.8474   20.5122 H   0  0  0  0  0  0
  -26.2649  -15.6328   20.0732 H   0  0  0  0  0  0
  -26.7193  -32.5372   23.1062 H   0  0  0  0  0  0
  -25.0106  -33.9688   25.0423 H   0  0  0  0  0  0
  -22.7217  -31.3028   21.3999 H   0  0  0  0  0  0
  -23.3740  -35.9630   23.3314 H   0  0  0  0  0  0
  -24.3589  -36.8898   22.2061 H   0  0  0  0  0  0
  -23.7245  -37.6492   23.6652 H   0  0  0  0  0  0
  -26.1149  -31.5251   20.6076 H   0  0  0  0  0  0
  -26.8511  -30.8153   22.0107 H   0  0  0  0  0  0
  -28.1007  -28.9122   21.2354 H   0  0  0  0  0  0
  -25.9498  -25.9601   18.9108 H   0  0  0  0  0  0
  -23.9786  -27.3391   18.9590 H   0  0  0  0  0  0
  -23.7633  -30.5959   19.4039 H   0  0  0  0  0  0
  -22.7569  -29.2540   19.8526 H   0  0  0  0  0  0
  -25.1282  -36.1919   25.0830 H   0  0  0  0  0  0
  -20.9993  -28.3243   24.1398 H   0  0  0  0  0  0
  -20.5697  -26.2279   23.3623 H   0  0  0  0  0  0
  -21.6634  -26.7418   22.1196 H   0  0  0  0  0  0
  -19.6900  -25.6302   21.1232 H   0  0  0  0  0  0
  -19.6674  -27.3209   20.6781 H   0  0  0  0  0  0
  -17.4206  -26.6701   21.4022 H   0  0  0  0  0  0
  -18.0284  -26.0069   22.9030 H   0  0  0  0  0  0
  -19.7954  -30.7300   24.2198 H   0  0  0  0  0  0
  -17.5022  -31.6245   24.5190 H   0  0  0  0  0  0
  -15.5356  -30.2967   23.7666 H   0  0  0  0  0  0
  -15.8695  -28.0825   22.7034 H   0  0  0  0  0  0
  -24.5901  -30.7081   25.7829 H   0  0  0  0  0  0
  -24.8919  -32.2928   26.4832 H   0  0  0  0  0  0
  -25.8056  -30.8982   27.0262 H   0  0  0  0  0  0
  -26.2930  -29.6720   24.1220 H   0  0  0  0  0  0
  -27.4050  -29.7244   25.4723 H   0  0  0  0  0  0
  -27.8811  -30.4276   23.9441 H   0  0  0  0  0  0
  -27.2641  -33.3653   26.2015 H   0  0  0  0  0  0
  -28.3880  -32.6855   25.0323 H   0  0  0  0  0  0
  -28.0692  -31.8486   26.5458 H   0  0  0  0  0  0
  -28.2592  -38.0091   24.7518 H   0  0  0  0  0  0
  -28.1075  -36.2624   24.6278 H   0  0  0  0  0  0
  -27.2311  -37.1435   25.8879 H   0  0  0  0  0  0
  -20.9399  -29.8780   21.6903 H   0  0  0  0  0  0
  -26.0155  -38.2853   24.1411 H   0  0  0  0  0  0
  -32.9832  -18.9376   18.5992 H   0  0  0  0  0  0
  -32.1266  -16.7444   18.9978 H   0  0  0  0  0  0
  -28.7648  -18.4616   21.1380 H   0  0  0  0  0  0
  -33.2131  -21.1641   19.3234 H   0  0  0  0  0  0
  -31.9973  -21.9937   20.2552 H   0  0  0  0  0  0
  -31.8145  -21.8390   18.4973 H   0  0  0  0  0  0
  -29.9124  -24.1091   20.9767 H   0  0  0  0  0  0
  -28.3724  -23.5735   21.5700 H   0  0  0  0  0  0
  -27.1805  -24.6180   19.8029 H   0  0  0  0  0  0
  -28.5597  -24.8944   18.7896 H   0  0  0  0  0  0
  -29.2228  -21.2216   21.6567 H   0  0  0  0  0  0
  -29.0012  -15.8383   20.7811 H   0  0  0  0  0  0
  1 25  1  0  0  0
  1 30  2  0  0  0
  1 82  1  0  0  0
  2  3  1  0  0  0
  2 25  1  0  0  0
  2 84  1  0  0  0
  2 85  1  0  0  0
  3  4  1  0  0  0
  3 86  1  0  0  0
  3 87  1  0  0  0
  4  5  1  0  0  0
  4 88  1  0  0  0
  4 89  1  0  0  0
  5  6  1  0  0  0
  5 26  1  0  0  0
  5 90  1  0  0  0
  6 25  1  0  0  0
  6 91  1  0  0  0
  6 92  1  0  0  0
  7  8  2  0  0  0
  7 26  1  0  0  0
  7 29  1  0  0  0
  8  9  1  0  0  0
  8 22  1  0  0  0
  9 10  1  0  0  0
  9 27  2  0  0  0
 10 11  2  0  0  0
 10 15  1  0  0  0
 11 12  1  0  0  0
 11 93  1  0  0  0
 12 13  2  0  0  0
 12 94  1  0  0  0
 13 14  1  0  0  0
 13 31  1  0  0  0
 14 15  2  0  0  0
 14 95  1  0  0  0
 15 96  1  0  0  0
 16 17  2  0  0  0
 16 21  1  0  0  0
 16 31  1  0  0  0
 17 18  1  0  0  0
 17 97  1  0  0  0
 18 19  2  0  0  0
 18 98  1  0  0  0
 19 20  1  0  0  0
 19 24  1  0  0  0
 20 21  2  0  0  0
 20 99  1  0  0  0
 21 23  1  0  0  0
 22 28  1  0  0  0
 22 32  2  0  0  0
 26 27  1  0  0  0
 28100  1  0  0  0
 28101  1  0  0  0
 29102  1  0  0  0
 29103  1  0  0  0
 33 34  1  0  0  0
 33 66  1  0  0  0
 33 70  2  0  0  0
 34 36  1  0  0  0
 34 59  1  0  0  0
 34104  1  0  0  0
 35 44  2  0  0  0
 35 45  1  0  0  0
 35 68  1  0  0  0
 36 56  1  0  0  0
 36105  1  0  0  0
 37 39  1  0  0  0
 37 47  1  0  0  0
 37 66  1  0  0  0
 37106  1  0  0  0
 38 43  2  0  0  0
 38 46  1  0  0  0
 38 47  1  0  0  0
 39 64  1  0  0  0
 39 67  2  0  0  0
 40 52  1  0  0  0
 40 53  2  0  0  0
 40 58  1  0  0  0
 41107  1  0  0  0
 41108  1  0  0  0
 41109  1  0  0  0
 41 48  1  0  0  0
 42 43  1  0  0  0
 42 66  1  0  0  0
 42110  1  0  0  0
 42111  1  0  0  0
 43 44  1  0  0  0
 44112  1  0  0  0
 45 46  2  0  0  0
 45113  1  0  0  0
 46114  1  0  0  0
 47115  1  0  0  0
 47116  1  0  0  0
 48 56  1  0  0  0
 48 65  1  0  0  0
 48117  1  0  0  0
 49 50  1  0  0  0
 49 53  1  0  0  0
 49 64  1  0  0  0
 49118  1  0  0  0
 50 51  1  0  0  0
 50119  1  0  0  0
 50120  1  0  0  0
 51 52  1  0  0  0
 51121  1  0  0  0
 51122  1  0  0  0
 52123  1  0  0  0
 52124  1  0  0  0
 53 54  1  0  0  0
 54 55  2  0  0  0
 54125  1  0  0  0
 55 57  1  0  0  0
 55126  1  0  0  0
 56 69  2  0  0  0
 57 58  2  0  0  0
 57127  1  0  0  0
 58128  1  0  0  0
 59 60  1  0  0  0
 59 61  1  0  0  0
 59 62  1  0  0  0
 60129  1  0  0  0
 60130  1  0  0  0
 60131  1  0  0  0
 61132  1  0  0  0
 61133  1  0  0  0
 61134  1  0  0  0
 62135  1  0  0  0
 62136  1  0  0  0
 62137  1  0  0  0
 63 65  1  0  0  0
 63138  1  0  0  0
 63139  1  0  0  0
 63140  1  0  0  0
 64141  1  0  0  0
 65142  1  0  0  0
 68 80  1  0  0  0
 71 72  2  0  0  0
 71 74  1  0  0  0
 71143  1  0  0  0
 72 75  1  0  0  0
 72144  1  0  0  0
 73 75  2  0  0  0
 73 76  1  0  0  0
 73145  1  0  0  0
 74 76  2  0  0  0
 74 78  1  0  0  0
 75 82  1  0  0  0
 76 81  1  0  0  0
 77 79  1  0  0  0
 77 81  1  0  0  0
 77 83  2  0  0  0
 78146  1  0  0  0
 78147  1  0  0  0
 78148  1  0  0  0
 79 80  1  0  0  0
 79149  1  0  0  0
 79150  1  0  0  0
 80151  1  0  0  0
 80152  1  0  0  0
 81153  1  0  0  0
 82154  1  0  0  0
M  ISO  4   1 100  68 101  80 101  82 100
M  END
> <chiral flag>
0

> <version>
0

> <s_m_source_file>
/data/baiqing/PycharmProjects/Reinvent-master-3.2/result/LINK_invent/BTK/process_docking_weight1_custom_product_contain_oxygen_bond_distance_aromatic_linkinvent_7_9_3/rearranged_h_0064.sdf

> <i_m_source_file_index>
19

> <r_mmod_Potential_Energy-OPLS-2005>
157.177947998047

> <r_mmod_Stretch_Energy-OPLS-2005>
127.791641235352

> <r_mmod_Bend_Energy-OPLS-2005>
164.056900024414

> <r_mmod_Torsional_Energy-OPLS-2005>
252.723739624023

> <r_mmod_Improper_Torsional_Energy-OPLS-2005>
5.17714500427246

> <r_mmod_Van_der_Waal_Energy-OPLS-2005>
155.772583007812

> <r_mmod_Electrostatic_Energy-OPLS-2005>
-403.130828857422

> <r_mmod_Solvation_Energy-OPLS-2005>
-234.143692016602

> <b_mmod_Minimization_Converged-OPLS-2005>
0

> <r_mmod_RMS_Derivative-OPLS-2005>
2.58430528640747

$$$$
19
                    3D
 Structure written by MMmdl.
165173  0  0  1  0            999 V2000
  -30.5495  -14.6797   20.5374 C   0  0  0  0  0  0
  -30.4494  -12.4301   19.4377 C   0  0  0  0  0  0
  -29.5046  -12.5403   18.2181 C   0  0  0  0  0  0
  -28.0252  -12.3729   18.6264 C   0  0  0  0  0  0
  -27.6554  -13.2135   19.8761 C   0  0  2  0  0  0
  -28.7055  -13.0147   20.9944 C   0  0  0  0  0  0
  -25.2565  -13.8160   20.5675 C   0  0  0  0  0  0
  -24.1830  -13.0445   20.9208 C   0  0  0  0  0  0
  -24.6390  -11.6902   20.8767 C   0  0  0  0  0  0
  -23.9056  -10.4287   21.0409 C   0  0  0  0  0  0
  -24.3604   -9.4187   21.9181 C   0  0  0  0  0  0
  -23.6265   -8.2226   22.0748 C   0  0  0  0  0  0
  -22.4260   -8.0268   21.3529 C   0  0  0  0  0  0
  -21.9904   -9.0259   20.4651 C   0  0  0  0  0  0
  -22.7235  -10.2127   20.3066 C   0  0  0  0  0  0
  -21.6854   -6.0720   22.5274 C   0  0  0  0  0  0
  -21.4010   -6.5625   23.8206 C   0  0  0  0  0  0
  -21.3658   -5.6777   24.9171 C   0  0  0  0  0  0
  -21.6060   -4.3043   24.7230 C   0  0  0  0  0  0
  -21.8820   -3.8134   23.4350 C   0  0  0  0  0  0
  -21.9184   -4.6946   22.3401 C   0  0  0  0  0  0
  -22.7854  -13.5238   21.1889 C   0  0  0  0  0  0
  -22.1660   -4.2127   21.0975 F   0  0  0  0  0  0
  -21.5632   -3.4538   25.7743 F   0  0  0  0  0  0
  -30.0112  -13.4181   20.4461 N   0  0  0  0  0  0
  -26.2994  -12.9317   20.3388 N   0  0  0  0  0  0
  -25.9312  -11.6478   20.5797 N   0  0  0  0  0  0
  -22.0503  -12.8219   22.0438 N   0  0  0  0  0  0
  -25.4286  -15.1873   20.3990 N   0  0  0  0  0  0
  -31.6817  -14.9269   20.1016 O   0  0  0  0  0  0
  -21.6631   -6.8867   21.4236 O   0  0  0  0  0  0
  -22.3556  -14.5541   20.6721 O   0  0  0  0  0  0
  -24.6207  -31.8582   23.1948 C   0  0  0  0  0  0
  -25.9028  -32.4786   23.8288 C   0  0  1  0  0  0
  -27.2328  -27.2951   20.1550 C   0  0  0  0  0  0
  -25.5804  -33.8569   24.2179 N   0  0  0  0  0  0
  -23.4179  -30.4814   21.5359 C   0  0  2  0  0  0
  -24.8692  -28.9101   20.1294 C   0  0  0  0  0  0
  -22.7439  -29.4644   22.4893 C   0  0  0  0  0  0
  -18.0288  -28.1433   22.8480 C   0  0  0  0  0  0
  -24.1447  -36.7292   23.2683 C   0  0  0  0  0  0
  -25.9582  -30.7874   21.3627 C   0  0  0  0  0  0
  -26.0355  -29.4019   20.7267 C   0  0  0  0  0  0
  -27.2213  -28.6069   20.7227 C   0  0  0  0  0  0
  -26.0429  -26.8446   19.5464 C   0  0  0  0  0  0
  -24.8726  -27.6334   19.5379 C   0  0  0  0  0  0
  -23.6399  -29.7992   20.1584 C   0  0  0  0  0  0
  -25.4064  -36.3074   24.0380 C   0  0  1  0  0  0
  -20.5890  -28.3688   23.1284 C   0  0  2  0  0  0
  -20.6770  -26.9404   22.5436 C   0  0  0  0  0  0
  -19.5743  -26.6337   21.5267 C   0  0  0  0  0  0
  -18.1916  -26.7951   22.1664 C   0  0  0  0  0  0
  -19.1558  -28.8869   23.2864 C   0  0  0  0  0  0
  -18.9536  -30.1477   23.8876 C   0  0  0  0  0  0
  -17.6565  -30.6645   24.0560 C   0  0  0  0  0  0
  -25.9008  -34.9469   23.5075 C   0  0  0  0  0  0
  -16.5425  -29.9175   23.6365 C   0  0  0  0  0  0
  -16.7289  -28.6600   23.0337 C   0  0  0  0  0  0
  -26.4377  -31.6660   25.0689 C   0  0  0  0  0  0
  -25.3574  -31.3922   26.1402 C   0  0  0  0  0  0
  -27.0216  -30.3096   24.6136 C   0  0  0  0  0  0
  -27.5854  -32.4452   25.7525 C   0  0  0  0  0  0
  -27.5545  -37.1786   24.8482 C   0  0  0  0  0  0
  -21.4152  -29.3051   22.3649 N   0  0  0  0  0  0
  -26.4243  -37.3772   23.9470 N   0  0  0  0  0  0
  -24.6857  -31.0588   22.0905 N   0  0  0  0  0  0
  -23.4169  -28.8172   23.2966 O   0  0  0  0  0  0
  -28.4051  -26.5363   20.0315 O   0  0  0  0  0  0
  -26.5651  -34.8963   22.4683 O   0  0  0  0  0  0
  -23.5355  -32.1380   23.7256 O   0  0  0  0  0  0
  -30.0035  -19.4897   20.5508 C   0  0  0  0  0  0
  -30.3697  -18.0923   20.5210 C   0  0  0  0  0  0
  -28.2054  -17.5411   21.3806 C   0  0  0  0  0  0
  -28.7398  -19.9602   21.0287 C   0  0  0  0  0  0
  -27.8277  -18.9175   21.4143 C   0  0  0  0  0  0
  -29.4745  -17.0719   20.9598 C   0  0  0  0  0  0
  -28.3915  -21.4447   21.2321 C   0  0  0  0  0  0
  -26.4032  -19.2028   21.8930 C   0  0  0  0  0  0
  -27.8087  -25.4771   23.0916 C   0  0  0  0  0  0
  -30.1645  -24.5664   22.6963 C   0  0  0  0  0  0
  -27.8460  -23.8817   20.3508 C   0  0  0  0  0  0
  -29.0328  -25.4663   22.1572 C   0  0  0  0  0  0
  -28.6913  -25.2152   20.6602 C   0  0  2  0  0  0
  -27.8925  -21.7808   22.4188 N   0  0  0  0  0  0
  -29.6899  -15.6171   21.0544 N   0  0  0  0  0  0
  -28.5158  -22.4937   20.3504 N   0  3  0  0  0  0
  -31.4845  -12.5924   19.1367 H   0  0  0  0  0  0
  -30.4129  -11.4223   19.8513 H   0  0  0  0  0  0
  -29.7664  -11.7952   17.4652 H   0  0  0  0  0  0
  -29.6376  -13.5123   17.7426 H   0  0  0  0  0  0
  -27.8571  -11.3132   18.8263 H   0  0  0  0  0  0
  -27.3687  -12.6337   17.7949 H   0  0  0  0  0  0
  -27.6807  -14.2606   19.5666 H   0  0  0  0  0  0
  -28.7381  -11.9682   21.3027 H   0  0  0  0  0  0
  -28.4433  -13.5676   21.8966 H   0  0  0  0  0  0
  -25.2753   -9.5655   22.4757 H   0  0  0  0  0  0
  -23.9981   -7.4629   22.7457 H   0  0  0  0  0  0
  -21.0847   -8.8783   19.8964 H   0  0  0  0  0  0
  -22.3697  -10.9670   19.6186 H   0  0  0  0  0  0
  -21.1993   -7.6128   23.9703 H   0  0  0  0  0  0
  -21.1493   -6.0506   25.9065 H   0  0  0  0  0  0
  -22.0598   -2.7595   23.2857 H   0  0  0  0  0  0
  -22.4077  -11.9863   22.4798 H   0  0  0  0  0  0
  -21.1143  -13.1291   22.2701 H   0  0  0  0  0  0
  -24.6397  -15.8232   20.4246 H   0  0  0  0  0  0
  -26.2454  -15.5976   19.9663 H   0  0  0  0  0  0
  -26.7069  -32.5453   23.1028 H   0  0  0  0  0  0
  -24.9748  -33.9704   25.0168 H   0  0  0  0  0  0
  -22.7145  -31.3005   21.3759 H   0  0  0  0  0  0
  -23.3713  -35.9620   23.3329 H   0  0  0  0  0  0
  -24.3538  -36.8901   22.2095 H   0  0  0  0  0  0
  -23.7203  -37.6497   23.6697 H   0  0  0  0  0  0
  -26.0684  -31.5403   20.5810 H   0  0  0  0  0  0
  -26.8480  -30.8545   21.9751 H   0  0  0  0  0  0
  -28.1304  -28.9928   21.1606 H   0  0  0  0  0  0
  -26.0132  -25.8806   19.0583 H   0  0  0  0  0  0
  -23.9751  -27.2430   19.0808 H   0  0  0  0  0  0
  -23.7797  -30.5696   19.3997 H   0  0  0  0  0  0
  -22.7553  -29.2380   19.8474 H   0  0  0  0  0  0
  -25.1242  -36.1914   25.0886 H   0  0  0  0  0  0
  -20.9992  -28.3281   24.1409 H   0  0  0  0  0  0
  -20.5718  -26.2295   23.3657 H   0  0  0  0  0  0
  -21.6634  -26.7431   22.1224 H   0  0  0  0  0  0
  -19.6915  -25.6215   21.1381 H   0  0  0  0  0  0
  -19.6739  -27.3062   20.6735 H   0  0  0  0  0  0
  -17.4189  -26.6700   21.4057 H   0  0  0  0  0  0
  -18.0298  -26.0123   22.9084 H   0  0  0  0  0  0
  -19.8048  -30.7269   24.2183 H   0  0  0  0  0  0
  -17.5192  -31.6357   24.5139 H   0  0  0  0  0  0
  -15.5456  -30.3145   23.7718 H   0  0  0  0  0  0
  -15.8652  -28.0994   22.7027 H   0  0  0  0  0  0
  -24.5663  -30.7384   25.7742 H   0  0  0  0  0  0
  -24.8888  -32.3169   26.4792 H   0  0  0  0  0  0
  -25.7838  -30.9102   27.0201 H   0  0  0  0  0  0
  -26.2784  -29.6907   24.1102 H   0  0  0  0  0  0
  -27.3842  -29.7345   25.4662 H   0  0  0  0  0  0
  -27.8666  -30.4411   23.9377 H   0  0  0  0  0  0
  -27.2333  -33.3699   26.2127 H   0  0  0  0  0  0
  -28.3688  -32.7128   25.0425 H   0  0  0  0  0  0
  -28.0480  -31.8597   26.5480 H   0  0  0  0  0  0
  -28.2534  -38.0090   24.7471 H   0  0  0  0  0  0
  -28.1047  -36.2626   24.6318 H   0  0  0  0  0  0
  -27.2302  -37.1443   25.8890 H   0  0  0  0  0  0
  -20.9299  -29.8760   21.6867 H   0  0  0  0  0  0
  -26.0125  -38.2847   24.1483 H   0  0  0  0  0  0
  -30.7383  -20.2172   20.2354 H   0  0  0  0  0  0
  -31.3570  -17.8209   20.1781 H   0  0  0  0  0  0
  -27.4815  -16.8067   21.7064 H   0  0  0  0  0  0
  -25.7576  -18.3377   21.7374 H   0  0  0  0  0  0
  -25.9434  -20.0326   21.3579 H   0  0  0  0  0  0
  -26.3801  -19.4230   22.9597 H   0  0  0  0  0  0
  -28.0909  -25.8001   24.0959 H   0  0  0  0  0  0
  -27.3482  -24.4951   23.1840 H   0  0  0  0  0  0
  -27.0360  -26.1622   22.7413 H   0  0  0  0  0  0
  -30.2336  -24.6191   23.7837 H   0  0  0  0  0  0
  -31.1322  -24.8753   22.2949 H   0  0  0  0  0  0
  -30.0376  -23.5205   22.4305 H   0  0  0  0  0  0
  -26.9477  -23.8622   20.9685 H   0  0  0  0  0  0
  -27.4706  -23.9860   19.3332 H   0  0  0  0  0  0
  -29.4503  -26.4732   22.2078 H   0  0  0  0  0  0
  -29.6528  -25.0006   20.1960 H   0  0  0  0  0  0
  -27.8532  -21.0695   23.1329 H   0  0  0  0  0  0
  -27.7428  -22.7349   22.6872 H   0  0  0  0  0  0
  -28.8948  -15.1379   21.4521 H   0  0  0  0  0  0
  -28.9467  -22.2401   19.4699 H   0  0  0  0  0  0
  1 25  1  0  0  0
  1 30  2  0  0  0
  1 85  1  0  0  0
  2  3  1  0  0  0
  2 25  1  0  0  0
  2 87  1  0  0  0
  2 88  1  0  0  0
  3  4  1  0  0  0
  3 89  1  0  0  0
  3 90  1  0  0  0
  4  5  1  0  0  0
  4 91  1  0  0  0
  4 92  1  0  0  0
  5  6  1  0  0  0
  5 26  1  0  0  0
  5 93  1  0  0  0
  6 25  1  0  0  0
  6 94  1  0  0  0
  6 95  1  0  0  0
  7  8  2  0  0  0
  7 26  1  0  0  0
  7 29  1  0  0  0
  8  9  1  0  0  0
  8 22  1  0  0  0
  9 10  1  0  0  0
  9 27  2  0  0  0
 10 11  2  0  0  0
 10 15  1  0  0  0
 11 12  1  0  0  0
 11 96  1  0  0  0
 12 13  2  0  0  0
 12 97  1  0  0  0
 13 14  1  0  0  0
 13 31  1  0  0  0
 14 15  2  0  0  0
 14 98  1  0  0  0
 15 99  1  0  0  0
 16 17  2  0  0  0
 16 21  1  0  0  0
 16 31  1  0  0  0
 17 18  1  0  0  0
 17100  1  0  0  0
 18 19  2  0  0  0
 18101  1  0  0  0
 19 20  1  0  0  0
 19 24  1  0  0  0
 20 21  2  0  0  0
 20102  1  0  0  0
 21 23  1  0  0  0
 22 28  1  0  0  0
 22 32  2  0  0  0
 26 27  1  0  0  0
 28103  1  0  0  0
 28104  1  0  0  0
 29105  1  0  0  0
 29106  1  0  0  0
 33 34  1  0  0  0
 33 66  1  0  0  0
 33 70  2  0  0  0
 34 36  1  0  0  0
 34 59  1  0  0  0
 34107  1  0  0  0
 35 44  2  0  0  0
 35 45  1  0  0  0
 35 68  1  0  0  0
 36 56  1  0  0  0
 36108  1  0  0  0
 37 39  1  0  0  0
 37 47  1  0  0  0
 37 66  1  0  0  0
 37109  1  0  0  0
 38 43  2  0  0  0
 38 46  1  0  0  0
 38 47  1  0  0  0
 39 64  1  0  0  0
 39 67  2  0  0  0
 40 52  1  0  0  0
 40 53  2  0  0  0
 40 58  1  0  0  0
 41110  1  0  0  0
 41111  1  0  0  0
 41112  1  0  0  0
 41 48  1  0  0  0
 42 43  1  0  0  0
 42 66  1  0  0  0
 42113  1  0  0  0
 42114  1  0  0  0
 43 44  1  0  0  0
 44115  1  0  0  0
 45 46  2  0  0  0
 45116  1  0  0  0
 46117  1  0  0  0
 47118  1  0  0  0
 47119  1  0  0  0
 48 56  1  0  0  0
 48 65  1  0  0  0
 48120  1  0  0  0
 49 50  1  0  0  0
 49 53  1  0  0  0
 49 64  1  0  0  0
 49121  1  0  0  0
 50 51  1  0  0  0
 50122  1  0  0  0
 50123  1  0  0  0
 51 52  1  0  0  0
 51124  1  0  0  0
 51125  1  0  0  0
 52126  1  0  0  0
 52127  1  0  0  0
 53 54  1  0  0  0
 54 55  2  0  0  0
 54128  1  0  0  0
 55 57  1  0  0  0
 55129  1  0  0  0
 56 69  2  0  0  0
 57 58  2  0  0  0
 57130  1  0  0  0
 58131  1  0  0  0
 59 60  1  0  0  0
 59 61  1  0  0  0
 59 62  1  0  0  0
 60132  1  0  0  0
 60133  1  0  0  0
 60134  1  0  0  0
 61135  1  0  0  0
 61136  1  0  0  0
 61137  1  0  0  0
 62138  1  0  0  0
 62139  1  0  0  0
 62140  1  0  0  0
 63 65  1  0  0  0
 63141  1  0  0  0
 63142  1  0  0  0
 63143  1  0  0  0
 64144  1  0  0  0
 65145  1  0  0  0
 68 83  1  0  0  0
 71 72  2  0  0  0
 71 74  1  0  0  0
 71146  1  0  0  0
 72 76  1  0  0  0
 72147  1  0  0  0
 73 75  1  0  0  0
 73 76  2  0  0  0
 73148  1  0  0  0
 74 75  2  0  0  0
 74 77  1  0  0  0
 75 78  1  0  0  0
 76 85  1  0  0  0
 77 84  1  0  0  0
 77 86  2  0  0  0
 78149  1  0  0  0
 78150  1  0  0  0
 78151  1  0  0  0
 79152  1  0  0  0
 79153  1  0  0  0
 79154  1  0  0  0
 79 82  1  0  0  0
 80 82  1  0  0  0
 80155  1  0  0  0
 80156  1  0  0  0
 80157  1  0  0  0
 81 86  1  0  0  0
 81158  1  0  0  0
 81159  1  0  0  0
 81 83  1  0  0  0
 82 83  1  0  0  0
 82160  1  0  0  0
 83161  1  0  0  0
 84162  1  0  0  0
 84163  1  0  0  0
 85164  1  0  0  0
 86165  1  0  0  0
M  CHG  1  86   1
M  ISO  4   1 100  68 101  83 101  85 100
M  END
> <chiral flag>
0

> <version>
0

> <s_m_source_file>
/data/baiqing/PycharmProjects/Reinvent-master-3.2/result/LINK_invent/BTK/process_docking_weight1_custom_product_contain_oxygen_bond_distance_aromatic_linkinvent_7_9_3/rearranged_h_0064.sdf

> <i_m_source_file_index>
20

> <r_mmod_Potential_Energy-OPLS-2005>
2.72063541412354

> <r_mmod_Stretch_Energy-OPLS-2005>
100.174247741699

> <r_mmod_Bend_Energy-OPLS-2005>
213.058441162109

> <r_mmod_Torsional_Energy-OPLS-2005>
257.569671630859

> <r_mmod_Improper_Torsional_Energy-OPLS-2005>
6.13333988189697

> <r_mmod_Van_der_Waal_Energy-OPLS-2005>
129.996871948242

> <r_mmod_Electrostatic_Energy-OPLS-2005>
-362.779846191406

> <r_mmod_Solvation_Energy-OPLS-2005>
-397.598876953125

> <b_mmod_Minimization_Converged-OPLS-2005>
0

> <r_mmod_RMS_Derivative-OPLS-2005>
4.91621112823486

$$$$
20
                    3D
 Structure written by MMmdl.
157165  0  0  1  0            999 V2000
  -30.7106  -14.4788   20.5503 C   0  0  0  0  0  0
  -30.4189  -12.3065   19.4265 C   0  0  0  0  0  0
  -29.4938  -12.4932   18.2063 C   0  0  0  0  0  0
  -28.0125  -12.3670   18.6166 C   0  0  0  0  0  0
  -27.6572  -13.2092   19.8719 C   0  0  2  0  0  0
  -28.7035  -13.0125   20.9926 C   0  0  0  0  0  0
  -25.2572  -13.8166   20.5677 C   0  0  0  0  0  0
  -24.1831  -13.0438   20.9183 C   0  0  0  0  0  0
  -24.6384  -11.6903   20.8732 C   0  0  0  0  0  0
  -23.9044  -10.4293   21.0392 C   0  0  0  0  0  0
  -24.3601   -9.4218   21.9170 C   0  0  0  0  0  0
  -23.6284   -8.2252   22.0741 C   0  0  0  0  0  0
  -22.4266   -8.0277   21.3539 C   0  0  0  0  0  0
  -21.9895   -9.0246   20.4640 C   0  0  0  0  0  0
  -22.7214  -10.2128   20.3046 C   0  0  0  0  0  0
  -21.6859   -6.0727   22.5280 C   0  0  0  0  0  0
  -21.4021   -6.5632   23.8211 C   0  0  0  0  0  0
  -21.3665   -5.6788   24.9175 C   0  0  0  0  0  0
  -21.6049   -4.3051   24.7236 C   0  0  0  0  0  0
  -21.8820   -3.8139   23.4359 C   0  0  0  0  0  0
  -21.9196   -4.6955   22.3411 C   0  0  0  0  0  0
  -22.7856  -13.5230   21.1857 C   0  0  0  0  0  0
  -22.1660   -4.2138   21.0988 F   0  0  0  0  0  0
  -21.5633   -3.4534   25.7749 F   0  0  0  0  0  0
  -30.0290  -13.3087   20.4281 N   0  0  0  0  0  0
  -26.3006  -12.9332   20.3365 N   0  0  0  0  0  0
  -25.9314  -11.6493   20.5774 N   0  0  0  0  0  0
  -22.0508  -12.8206   22.0414 N   0  0  0  0  0  0
  -25.4294  -15.1883   20.4063 N   0  0  0  0  0  0
  -31.8721  -14.6179   20.1624 O   0  0  0  0  0  0
  -21.6647   -6.8863   21.4235 O   0  0  0  0  0  0
  -22.3534  -14.5536   20.6702 O   0  0  0  0  0  0
  -24.6156  -31.8698   23.2133 C   0  0  0  0  0  0
  -25.9045  -32.4838   23.8413 C   0  0  1  0  0  0
  -27.2192  -27.4167   20.0859 C   0  0  0  0  0  0
  -25.5894  -33.8638   24.2337 N   0  0  0  0  0  0
  -23.4016  -30.4996   21.5558 C   0  0  2  0  0  0
  -24.8431  -28.9740   20.1132 C   0  0  0  0  0  0
  -22.7410  -29.4676   22.4990 C   0  0  0  0  0  0
  -18.0273  -28.1381   22.8488 C   0  0  0  0  0  0
  -24.1485  -36.7322   23.2636 C   0  0  0  0  0  0
  -25.9359  -30.8288   21.3715 C   0  0  0  0  0  0
  -26.0086  -29.4650   20.7141 C   0  0  0  0  0  0
  -27.1977  -28.6937   20.7016 C   0  0  0  0  0  0
  -26.0278  -26.9615   19.4639 C   0  0  0  0  0  0
  -24.8491  -27.7216   19.4860 C   0  0  0  0  0  0
  -23.6080  -29.8431   20.1674 C   0  0  0  0  0  0
  -25.4110  -36.3125   24.0334 C   0  0  1  0  0  0
  -20.5867  -28.3667   23.1309 C   0  0  2  0  0  0
  -20.6771  -26.9403   22.5413 C   0  0  0  0  0  0
  -19.5748  -26.6385   21.5212 C   0  0  0  0  0  0
  -18.1924  -26.7924   22.1622 C   0  0  0  0  0  0
  -19.1523  -28.8838   23.2898 C   0  0  0  0  0  0
  -18.9453  -30.1447   23.8904 C   0  0  0  0  0  0
  -17.6456  -30.6586   24.0567 C   0  0  0  0  0  0
  -25.9037  -34.9487   23.5135 C   0  0  0  0  0  0
  -16.5347  -29.9089   23.6329 C   0  0  0  0  0  0
  -16.7263  -28.6508   23.0343 C   0  0  0  0  0  0
  -26.4460  -31.6614   25.0741 C   0  0  0  0  0  0
  -25.3711  -31.3724   26.1476 C   0  0  0  0  0  0
  -27.0283  -30.3051   24.6123 C   0  0  0  0  0  0
  -27.6040  -32.4322   25.7504 C   0  0  0  0  0  0
  -27.5585  -37.1820   24.8461 C   0  0  0  0  0  0
  -21.4139  -29.3037   22.3716 N   0  0  0  0  0  0
  -26.4298  -37.3808   23.9404 N   0  0  0  0  0  0
  -24.6696  -31.0798   22.1045 N   0  0  0  0  0  0
  -23.4189  -28.8200   23.3014 O   0  0  0  0  0  0
  -28.3733  -26.6421   20.1180 O   0  0  0  0  0  0
  -26.5607  -34.8931   22.4702 O   0  0  0  0  0  0
  -23.5346  -32.1449   23.7528 O   0  0  0  0  0  0
  -29.5634  -18.8181   17.7557 C   0  0  0  0  0  0
  -29.5416  -20.1436   18.2120 C   0  0  0  0  0  0
  -30.0416  -19.3601   20.4532 C   0  0  0  0  0  0
  -29.8203  -17.7448   18.6319 C   0  0  0  0  0  0
  -30.0730  -18.0037   20.0126 C   0  0  0  0  0  0
  -29.7590  -20.4395   19.5753 C   0  0  0  0  0  0
  -29.0794  -22.8488   19.5442 C   0  0  0  0  0  0
  -29.8399  -16.3618   18.0073 C   0  0  0  0  0  0
  -30.4657  -16.9324   21.0624 C   0  0  0  0  0  0
  -29.3581  -24.2720   20.0920 C   0  0  0  0  0  0
  -28.2183  -25.2605   19.7269 C   0  0  0  0  0  0
  -29.7607  -21.7953   20.0553 N   0  0  0  0  0  0
  -29.9788  -15.5451   20.9293 N   0  0  0  0  0  0
  -28.2176  -22.7097   18.6715 O   0  0  0  0  0  0
  -31.4651  -12.3962   19.1278 H   0  0  0  0  0  0
  -30.3114  -11.3029   19.8413 H   0  0  0  0  0  0
  -29.7298  -11.7562   17.4385 H   0  0  0  0  0  0
  -29.6717  -13.4691   17.7533 H   0  0  0  0  0  0
  -27.8099  -11.3125   18.8079 H   0  0  0  0  0  0
  -27.3681  -12.6512   17.7836 H   0  0  0  0  0  0
  -27.6885  -14.2538   19.5678 H   0  0  0  0  0  0
  -28.6828  -11.9847   21.3583 H   0  0  0  0  0  0
  -28.4759  -13.6383   21.8570 H   0  0  0  0  0  0
  -25.2745   -9.5709   22.4743 H   0  0  0  0  0  0
  -24.0009   -7.4645   22.7446 H   0  0  0  0  0  0
  -21.0837   -8.8744   19.8940 H   0  0  0  0  0  0
  -22.3657  -10.9656   19.6152 H   0  0  0  0  0  0
  -21.2004   -7.6139   23.9713 H   0  0  0  0  0  0
  -21.1485   -6.0519   25.9076 H   0  0  0  0  0  0
  -22.0591   -2.7599   23.2869 H   0  0  0  0  0  0
  -22.4122  -11.9849   22.4777 H   0  0  0  0  0  0
  -21.1127  -13.1217   22.2629 H   0  0  0  0  0  0
  -24.6612  -15.8444   20.5012 H   0  0  0  0  0  0
  -26.2812  -15.6249   20.0772 H   0  0  0  0  0  0
  -26.7111  -32.5535   23.1170 H   0  0  0  0  0  0
  -25.0022  -33.9809   25.0464 H   0  0  0  0  0  0
  -22.6887  -31.3169   21.4245 H   0  0  0  0  0  0
  -23.3748  -35.9653   23.3309 H   0  0  0  0  0  0
  -24.3574  -36.8930   22.2047 H   0  0  0  0  0  0
  -23.7232  -37.6527   23.6644 H   0  0  0  0  0  0
  -26.0539  -31.5952   20.6041 H   0  0  0  0  0  0
  -26.8225  -30.8770   21.9923 H   0  0  0  0  0  0
  -28.0931  -29.0684   21.1782 H   0  0  0  0  0  0
  -25.9668  -26.0152   18.9476 H   0  0  0  0  0  0
  -23.9553  -27.3421   19.0102 H   0  0  0  0  0  0
  -23.7160  -30.6231   19.4127 H   0  0  0  0  0  0
  -22.7288  -29.2688   19.8696 H   0  0  0  0  0  0
  -25.1291  -36.1998   25.0827 H   0  0  0  0  0  0
  -20.9963  -28.3238   24.1429 H   0  0  0  0  0  0
  -20.5685  -26.2274   23.3603 H   0  0  0  0  0  0
  -21.6642  -26.7453   22.1199 H   0  0  0  0  0  0
  -19.6914  -25.6300   21.1233 H   0  0  0  0  0  0
  -19.6691  -27.3205   20.6749 H   0  0  0  0  0  0
  -17.4197  -26.6665   21.4023 H   0  0  0  0  0  0
  -18.0329  -26.0068   22.9020 H   0  0  0  0  0  0
  -19.7932  -30.7263   24.2269 H   0  0  0  0  0  0
  -17.5014  -31.6269   24.5165 H   0  0  0  0  0  0
  -15.5348  -30.2996   23.7655 H   0  0  0  0  0  0
  -15.8661  -28.0839   22.7047 H   0  0  0  0  0  0
  -24.5885  -30.7077   25.7799 H   0  0  0  0  0  0
  -24.8897  -32.2882   26.4915 H   0  0  0  0  0  0
  -25.8042  -30.8887   27.0239 H   0  0  0  0  0  0
  -26.2835  -29.6836   24.1136 H   0  0  0  0  0  0
  -27.3999  -29.7266   25.4592 H   0  0  0  0  0  0
  -27.8696  -30.4365   23.9314 H   0  0  0  0  0  0
  -27.2667  -33.3615   26.2107 H   0  0  0  0  0  0
  -28.3839  -32.6890   25.0323 H   0  0  0  0  0  0
  -28.0711  -31.8420   26.5399 H   0  0  0  0  0  0
  -28.2609  -38.0113   24.7519 H   0  0  0  0  0  0
  -28.1076  -36.2648   24.6279 H   0  0  0  0  0  0
  -27.2299  -37.1461   25.8863 H   0  0  0  0  0  0
  -20.9294  -29.8758   21.6941 H   0  0  0  0  0  0
  -26.0191  -38.2886   24.1408 H   0  0  0  0  0  0
  -29.3903  -18.6361   16.7035 H   0  0  0  0  0  0
  -29.3659  -20.9244   17.4865 H   0  0  0  0  0  0
  -30.2474  -19.5750   21.4933 H   0  0  0  0  0  0
  -30.8240  -15.9062   18.1031 H   0  0  0  0  0  0
  -29.6104  -16.3987   16.9417 H   0  0  0  0  0  0
  -29.0865  -15.7216   18.4606 H   0  0  0  0  0  0
  -30.1091  -17.2748   22.0343 H   0  0  0  0  0  0
  -31.5536  -16.9402   21.1461 H   0  0  0  0  0  0
  -30.3002  -24.6231   19.6730 H   0  0  0  0  0  0
  -29.4817  -24.2305   21.1741 H   0  0  0  0  0  0
  -27.3204  -24.8524   20.1949 H   0  0  0  0  0  0
  -28.0652  -25.2489   18.6457 H   0  0  0  0  0  0
  -30.3314  -21.9855   20.8685 H   0  0  0  0  0  0
  -29.0183  -15.3736   21.1833 H   0  0  0  0  0  0
  1 25  1  0  0  0
  1 30  2  0  0  0
  1 83  1  0  0  0
  2  3  1  0  0  0
  2 25  1  0  0  0
  2 85  1  0  0  0
  2 86  1  0  0  0
  3  4  1  0  0  0
  3 87  1  0  0  0
  3 88  1  0  0  0
  4  5  1  0  0  0
  4 89  1  0  0  0
  4 90  1  0  0  0
  5  6  1  0  0  0
  5 26  1  0  0  0
  5 91  1  0  0  0
  6 25  1  0  0  0
  6 92  1  0  0  0
  6 93  1  0  0  0
  7  8  2  0  0  0
  7 26  1  0  0  0
  7 29  1  0  0  0
  8  9  1  0  0  0
  8 22  1  0  0  0
  9 10  1  0  0  0
  9 27  2  0  0  0
 10 11  2  0  0  0
 10 15  1  0  0  0
 11 12  1  0  0  0
 11 94  1  0  0  0
 12 13  2  0  0  0
 12 95  1  0  0  0
 13 14  1  0  0  0
 13 31  1  0  0  0
 14 15  2  0  0  0
 14 96  1  0  0  0
 15 97  1  0  0  0
 16 17  2  0  0  0
 16 21  1  0  0  0
 16 31  1  0  0  0
 17 18  1  0  0  0
 17 98  1  0  0  0
 18 19  2  0  0  0
 18 99  1  0  0  0
 19 20  1  0  0  0
 19 24  1  0  0  0
 20 21  2  0  0  0
 20100  1  0  0  0
 21 23  1  0  0  0
 22 28  1  0  0  0
 22 32  2  0  0  0
 26 27  1  0  0  0
 28101  1  0  0  0
 28102  1  0  0  0
 29103  1  0  0  0
 29104  1  0  0  0
 33 34  1  0  0  0
 33 66  1  0  0  0
 33 70  2  0  0  0
 34 36  1  0  0  0
 34 59  1  0  0  0
 34105  1  0  0  0
 35 44  2  0  0  0
 35 45  1  0  0  0
 35 68  1  0  0  0
 36 56  1  0  0  0
 36106  1  0  0  0
 37 39  1  0  0  0
 37 47  1  0  0  0
 37 66  1  0  0  0
 37107  1  0  0  0
 38 43  2  0  0  0
 38 46  1  0  0  0
 38 47  1  0  0  0
 39 64  1  0  0  0
 39 67  2  0  0  0
 40 52  1  0  0  0
 40 53  2  0  0  0
 40 58  1  0  0  0
 41108  1  0  0  0
 41109  1  0  0  0
 41110  1  0  0  0
 41 48  1  0  0  0
 42 43  1  0  0  0
 42 66  1  0  0  0
 42111  1  0  0  0
 42112  1  0  0  0
 43 44  1  0  0  0
 44113  1  0  0  0
 45 46  2  0  0  0
 45114  1  0  0  0
 46115  1  0  0  0
 47116  1  0  0  0
 47117  1  0  0  0
 48 56  1  0  0  0
 48 65  1  0  0  0
 48118  1  0  0  0
 49 50  1  0  0  0
 49 53  1  0  0  0
 49 64  1  0  0  0
 49119  1  0  0  0
 50 51  1  0  0  0
 50120  1  0  0  0
 50121  1  0  0  0
 51 52  1  0  0  0
 51122  1  0  0  0
 51123  1  0  0  0
 52124  1  0  0  0
 52125  1  0  0  0
 53 54  1  0  0  0
 54 55  2  0  0  0
 54126  1  0  0  0
 55 57  1  0  0  0
 55127  1  0  0  0
 56 69  2  0  0  0
 57 58  2  0  0  0
 57128  1  0  0  0
 58129  1  0  0  0
 59 60  1  0  0  0
 59 61  1  0  0  0
 59 62  1  0  0  0
 60130  1  0  0  0
 60131  1  0  0  0
 60132  1  0  0  0
 61133  1  0  0  0
 61134  1  0  0  0
 61135  1  0  0  0
 62136  1  0  0  0
 62137  1  0  0  0
 62138  1  0  0  0
 63 65  1  0  0  0
 63139  1  0  0  0
 63140  1  0  0  0
 63141  1  0  0  0
 64142  1  0  0  0
 65143  1  0  0  0
 68 81  1  0  0  0
 71 72  2  0  0  0
 71 74  1  0  0  0
 71144  1  0  0  0
 72 76  1  0  0  0
 72145  1  0  0  0
 73 75  1  0  0  0
 73 76  2  0  0  0
 73146  1  0  0  0
 74 75  2  0  0  0
 74 78  1  0  0  0
 75 79  1  0  0  0
 76 82  1  0  0  0
 77 80  1  0  0  0
 77 82  1  0  0  0
 77 84  2  0  0  0
 78147  1  0  0  0
 78148  1  0  0  0
 78149  1  0  0  0
 79 83  1  0  0  0
 79150  1  0  0  0
 79151  1  0  0  0
 80 81  1  0  0  0
 80152  1  0  0  0
 80153  1  0  0  0
 81154  1  0  0  0
 81155  1  0  0  0
 82156  1  0  0  0
 83157  1  0  0  0
M  ISO  4   1 100  68 101  81 101  83 100
M  END
> <chiral flag>
0

> <version>
0

> <s_m_source_file>
/data/baiqing/PycharmProjects/Reinvent-master-3.2/result/LINK_invent/BTK/process_docking_weight1_custom_product_contain_oxygen_bond_distance_aromatic_linkinvent_7_9_3/rearranged_h_0064.sdf

> <i_m_source_file_index>
21

> <r_mmod_Potential_Energy-OPLS-2005>
-132.834167480469

> <r_mmod_Stretch_Energy-OPLS-2005>
44.0474128723145

> <r_mmod_Bend_Energy-OPLS-2005>
109.670722961426

> <r_mmod_Torsional_Energy-OPLS-2005>
204.055511474609

> <r_mmod_Improper_Torsional_Energy-OPLS-2005>
4.73676109313965

> <r_mmod_Van_der_Waal_Energy-OPLS-2005>
173.237762451172

> <r_mmod_Electrostatic_Energy-OPLS-2005>
-455.222351074219

> <r_mmod_Solvation_Energy-OPLS-2005>
-231.624938964844

> <b_mmod_Minimization_Converged-OPLS-2005>
0

> <r_mmod_RMS_Derivative-OPLS-2005>
1.17994427680969

$$$$
21
                    3D
 Structure written by MMmdl.
154162  0  0  1  0            999 V2000
  -30.7249  -14.4759   20.5726 C   0  0  0  0  0  0
  -30.4145  -12.3115   19.4256 C   0  0  0  0  0  0
  -29.4911  -12.4991   18.2062 C   0  0  0  0  0  0
  -28.0132  -12.3622   18.6199 C   0  0  0  0  0  0
  -27.6577  -13.2118   19.8695 C   0  0  2  0  0  0
  -28.7011  -13.0209   20.9936 C   0  0  0  0  0  0
  -25.2574  -13.8174   20.5682 C   0  0  0  0  0  0
  -24.1835  -13.0443   20.9185 C   0  0  0  0  0  0
  -24.6395  -11.6910   20.8736 C   0  0  0  0  0  0
  -23.9064  -10.4294   21.0409 C   0  0  0  0  0  0
  -24.3616   -9.4209   21.9188 C   0  0  0  0  0  0
  -23.6290   -8.2244   22.0755 C   0  0  0  0  0  0
  -22.4273   -8.0285   21.3545 C   0  0  0  0  0  0
  -21.9914   -9.0257   20.4644 C   0  0  0  0  0  0
  -22.7239  -10.2137   20.3055 C   0  0  0  0  0  0
  -21.6851   -6.0739   22.5279 C   0  0  0  0  0  0
  -21.4012   -6.5642   23.8213 C   0  0  0  0  0  0
  -21.3658   -5.6794   24.9175 C   0  0  0  0  0  0
  -21.6044   -4.3058   24.7225 C   0  0  0  0  0  0
  -21.8820   -3.8151   23.4346 C   0  0  0  0  0  0
  -21.9192   -4.6967   22.3402 C   0  0  0  0  0  0
  -22.7860  -13.5236   21.1854 C   0  0  0  0  0  0
  -22.1662   -4.2152   21.0979 F   0  0  0  0  0  0
  -21.5629   -3.4542   25.7737 F   0  0  0  0  0  0
  -30.0280  -13.3148   20.4309 N   0  0  0  0  0  0
  -26.3007  -12.9352   20.3352 N   0  0  0  0  0  0
  -25.9321  -11.6507   20.5765 N   0  0  0  0  0  0
  -22.0507  -12.8218   22.0405 N   0  0  0  0  0  0
  -25.4294  -15.1894   20.4081 N   0  0  0  0  0  0
  -31.8599  -14.6200   20.1097 O   0  0  0  0  0  0
  -21.6638   -6.8881   21.4241 O   0  0  0  0  0  0
  -22.3544  -14.5547   20.6708 O   0  0  0  0  0  0
  -24.6175  -31.8680   23.2113 C   0  0  0  0  0  0
  -25.9064  -32.4821   23.8408 C   0  0  1  0  0  0
  -27.2230  -27.4091   20.0931 C   0  0  0  0  0  0
  -25.5913  -33.8621   24.2336 N   0  0  0  0  0  0
  -23.4052  -30.4949   21.5532 C   0  0  2  0  0  0
  -24.8485  -28.9664   20.1110 C   0  0  0  0  0  0
  -22.7424  -29.4664   22.4984 C   0  0  0  0  0  0
  -18.0275  -28.1380   22.8497 C   0  0  0  0  0  0
  -24.1487  -36.7309   23.2641 C   0  0  0  0  0  0
  -25.9393  -30.8250   21.3705 C   0  0  0  0  0  0
  -26.0133  -29.4610   20.7110 C   0  0  0  0  0  0
  -27.2031  -28.6908   20.6988 C   0  0  0  0  0  0
  -26.0372  -26.9509   19.4672 C   0  0  0  0  0  0
  -24.8574  -27.7120   19.4846 C   0  0  0  0  0  0
  -23.6127  -29.8351   20.1657 C   0  0  0  0  0  0
  -25.4109  -36.3112   24.0339 C   0  0  1  0  0  0
  -20.5870  -28.3676   23.1310 C   0  0  2  0  0  0
  -20.6766  -26.9410   22.5414 C   0  0  0  0  0  0
  -19.5738  -26.6385   21.5215 C   0  0  0  0  0  0
  -18.1919  -26.7927   22.1626 C   0  0  0  0  0  0
  -19.1527  -28.8845   23.2898 C   0  0  0  0  0  0
  -18.9452  -30.1452   23.8905 C   0  0  0  0  0  0
  -17.6455  -30.6589   24.0564 C   0  0  0  0  0  0
  -25.9038  -34.9476   23.5132 C   0  0  0  0  0  0
  -16.5345  -29.9089   23.6330 C   0  0  0  0  0  0
  -16.7263  -28.6504   23.0355 C   0  0  0  0  0  0
  -26.4481  -31.6598   25.0740 C   0  0  0  0  0  0
  -25.3737  -31.3685   26.1473 C   0  0  0  0  0  0
  -27.0334  -30.3048   24.6131 C   0  0  0  0  0  0
  -27.6052  -32.4324   25.7505 C   0  0  0  0  0  0
  -27.5582  -37.1808   24.8468 C   0  0  0  0  0  0
  -21.4151  -29.3041   22.3718 N   0  0  0  0  0  0
  -26.4298  -37.3797   23.9409 N   0  0  0  0  0  0
  -24.6726  -31.0766   22.1027 N   0  0  0  0  0  0
  -23.4190  -28.8195   23.3023 O   0  0  0  0  0  0
  -28.3698  -26.6268   20.1398 O   0  0  0  0  0  0
  -26.5596  -34.8927   22.4690 O   0  0  0  0  0  0
  -23.5360  -32.1444   23.7492 O   0  0  0  0  0  0
  -32.3618  -18.2138   22.3260 C   0  0  0  0  0  0
  -31.6787  -19.3798   21.9369 C   0  0  0  0  0  0
  -31.8242  -16.9463   22.0475 C   0  0  0  0  0  0
  -29.8919  -18.0102   21.0063 C   0  0  0  0  0  0
  -30.4306  -19.3036   21.2693 C   0  0  0  0  0  0
  -30.5904  -16.8247   21.3706 C   0  0  0  0  0  0
  -29.9674  -21.7907   20.9767 C   0  0  0  0  0  0
  -28.9618  -22.7790   20.3497 C   0  0  0  0  0  0
  -29.2974  -24.2959   20.5163 C   0  0  0  0  0  0
  -28.1820  -25.2051   19.9495 C   0  0  0  0  0  0
  -29.6984  -20.4679   20.8360 N   0  0  0  0  0  0
  -30.0502  -15.5250   21.0947 N   0  0  0  0  0  0
  -30.9474  -22.2404   21.5735 O   0  0  0  0  0  0
  -31.4601  -12.3951   19.1240 H   0  0  0  0  0  0
  -30.3055  -11.3077   19.8391 H   0  0  0  0  0  0
  -29.7316  -11.7660   17.4350 H   0  0  0  0  0  0
  -29.6607  -13.4807   17.7602 H   0  0  0  0  0  0
  -27.8242  -11.3075   18.8235 H   0  0  0  0  0  0
  -27.3627  -12.6302   17.7866 H   0  0  0  0  0  0
  -27.6938  -14.2556   19.5566 H   0  0  0  0  0  0
  -28.6796  -11.9950   21.3645 H   0  0  0  0  0  0
  -28.4660  -13.6492   21.8540 H   0  0  0  0  0  0
  -25.2761   -9.5687   22.4761 H   0  0  0  0  0  0
  -24.0002   -7.4638   22.7476 H   0  0  0  0  0  0
  -21.0849   -8.8774   19.8947 H   0  0  0  0  0  0
  -22.3701  -10.9676   19.6161 H   0  0  0  0  0  0
  -21.2005   -7.6151   23.9716 H   0  0  0  0  0  0
  -21.1479   -6.0526   25.9077 H   0  0  0  0  0  0
  -22.0601   -2.7614   23.2844 H   0  0  0  0  0  0
  -22.4124  -11.9861   22.4760 H   0  0  0  0  0  0
  -21.1129  -13.1243   22.2632 H   0  0  0  0  0  0
  -24.6633  -15.8459   20.5134 H   0  0  0  0  0  0
  -26.2799  -15.6257   20.0751 H   0  0  0  0  0  0
  -26.7130  -32.5527   23.1167 H   0  0  0  0  0  0
  -25.0075  -33.9782   25.0487 H   0  0  0  0  0  0
  -22.6944  -31.3130   21.4179 H   0  0  0  0  0  0
  -23.3758  -35.9633   23.3305 H   0  0  0  0  0  0
  -24.3574  -36.8926   22.2053 H   0  0  0  0  0  0
  -23.7230  -37.6510   23.6655 H   0  0  0  0  0  0
  -26.0600  -31.5943   20.6063 H   0  0  0  0  0  0
  -26.8241  -30.8712   21.9935 H   0  0  0  0  0  0
  -28.0986  -29.0652   21.1752 H   0  0  0  0  0  0
  -25.9925  -25.9991   18.9587 H   0  0  0  0  0  0
  -23.9649  -27.3288   19.0090 H   0  0  0  0  0  0
  -23.7214  -30.6138   19.4097 H   0  0  0  0  0  0
  -22.7348  -29.2583   19.8690 H   0  0  0  0  0  0
  -25.1284  -36.1980   25.0833 H   0  0  0  0  0  0
  -20.9961  -28.3245   24.1430 H   0  0  0  0  0  0
  -20.5684  -26.2279   23.3602 H   0  0  0  0  0  0
  -21.6634  -26.7459   22.1197 H   0  0  0  0  0  0
  -19.6900  -25.6299   21.1235 H   0  0  0  0  0  0
  -19.6675  -27.3198   20.6749 H   0  0  0  0  0  0
  -17.4193  -26.6696   21.4021 H   0  0  0  0  0  0
  -18.0304  -26.0064   22.9015 H   0  0  0  0  0  0
  -19.7930  -30.7267   24.2272 H   0  0  0  0  0  0
  -17.5013  -31.6269   24.5168 H   0  0  0  0  0  0
  -15.5345  -30.2993   23.7650 H   0  0  0  0  0  0
  -15.8665  -28.0822   22.7066 H   0  0  0  0  0  0
  -24.5923  -30.7027   25.7791 H   0  0  0  0  0  0
  -24.8910  -32.2829   26.4934 H   0  0  0  0  0  0
  -25.8086  -30.8839   27.0225 H   0  0  0  0  0  0
  -26.2896  -29.6789   24.1192 H   0  0  0  0  0  0
  -27.4118  -29.7302   25.4596 H   0  0  0  0  0  0
  -27.8719  -30.4377   23.9290 H   0  0  0  0  0  0
  -27.2672  -33.3617   26.2105 H   0  0  0  0  0  0
  -28.3848  -32.6898   25.0322 H   0  0  0  0  0  0
  -28.0738  -31.8438   26.5402 H   0  0  0  0  0  0
  -28.2601  -38.0107   24.7534 H   0  0  0  0  0  0
  -28.1082  -36.2640   24.6284 H   0  0  0  0  0  0
  -27.2295  -37.1449   25.8870 H   0  0  0  0  0  0
  -20.9308  -29.8772   21.6950 H   0  0  0  0  0  0
  -26.0191  -38.2877   24.1413 H   0  0  0  0  0  0
  -33.3101  -18.2927   22.8387 H   0  0  0  0  0  0
  -32.1516  -20.3206   22.1691 H   0  0  0  0  0  0
  -32.3733  -16.0678   22.3580 H   0  0  0  0  0  0
  -28.9424  -17.9244   20.4971 H   0  0  0  0  0  0
  -27.9860  -22.5773   20.7934 H   0  0  0  0  0  0
  -28.8721  -22.5442   19.2886 H   0  0  0  0  0  0
  -30.2427  -24.5241   20.0228 H   0  0  0  0  0  0
  -29.4366  -24.5237   21.5737 H   0  0  0  0  0  0
  -27.2592  -24.8875   20.4387 H   0  0  0  0  0  0
  -28.0679  -25.0057   18.8828 H   0  0  0  0  0  0
  -28.8428  -20.2730   20.3335 H   0  0  0  0  0  0
  -29.0649  -15.3863   21.2601 H   0  0  0  0  0  0
  1 25  1  0  0  0
  1 30  2  0  0  0
  1 82  1  0  0  0
  2  3  1  0  0  0
  2 25  1  0  0  0
  2 84  1  0  0  0
  2 85  1  0  0  0
  3  4  1  0  0  0
  3 86  1  0  0  0
  3 87  1  0  0  0
  4  5  1  0  0  0
  4 88  1  0  0  0
  4 89  1  0  0  0
  5  6  1  0  0  0
  5 26  1  0  0  0
  5 90  1  0  0  0
  6 25  1  0  0  0
  6 91  1  0  0  0
  6 92  1  0  0  0
  7  8  2  0  0  0
  7 26  1  0  0  0
  7 29  1  0  0  0
  8  9  1  0  0  0
  8 22  1  0  0  0
  9 10  1  0  0  0
  9 27  2  0  0  0
 10 11  2  0  0  0
 10 15  1  0  0  0
 11 12  1  0  0  0
 11 93  1  0  0  0
 12 13  2  0  0  0
 12 94  1  0  0  0
 13 14  1  0  0  0
 13 31  1  0  0  0
 14 15  2  0  0  0
 14 95  1  0  0  0
 15 96  1  0  0  0
 16 17  2  0  0  0
 16 21  1  0  0  0
 16 31  1  0  0  0
 17 18  1  0  0  0
 17 97  1  0  0  0
 18 19  2  0  0  0
 18 98  1  0  0  0
 19 20  1  0  0  0
 19 24  1  0  0  0
 20 21  2  0  0  0
 20 99  1  0  0  0
 21 23  1  0  0  0
 22 28  1  0  0  0
 22 32  2  0  0  0
 26 27  1  0  0  0
 28100  1  0  0  0
 28101  1  0  0  0
 29102  1  0  0  0
 29103  1  0  0  0
 33 34  1  0  0  0
 33 66  1  0  0  0
 33 70  2  0  0  0
 34 36  1  0  0  0
 34 59  1  0  0  0
 34104  1  0  0  0
 35 44  2  0  0  0
 35 45  1  0  0  0
 35 68  1  0  0  0
 36 56  1  0  0  0
 36105  1  0  0  0
 37 39  1  0  0  0
 37 47  1  0  0  0
 37 66  1  0  0  0
 37106  1  0  0  0
 38 43  2  0  0  0
 38 46  1  0  0  0
 38 47  1  0  0  0
 39 64  1  0  0  0
 39 67  2  0  0  0
 40 52  1  0  0  0
 40 53  2  0  0  0
 40 58  1  0  0  0
 41107  1  0  0  0
 41108  1  0  0  0
 41109  1  0  0  0
 41 48  1  0  0  0
 42 43  1  0  0  0
 42 66  1  0  0  0
 42110  1  0  0  0
 42111  1  0  0  0
 43 44  1  0  0  0
 44112  1  0  0  0
 45 46  2  0  0  0
 45113  1  0  0  0
 46114  1  0  0  0
 47115  1  0  0  0
 47116  1  0  0  0
 48 56  1  0  0  0
 48 65  1  0  0  0
 48117  1  0  0  0
 49 50  1  0  0  0
 49 53  1  0  0  0
 49 64  1  0  0  0
 49118  1  0  0  0
 50 51  1  0  0  0
 50119  1  0  0  0
 50120  1  0  0  0
 51 52  1  0  0  0
 51121  1  0  0  0
 51122  1  0  0  0
 52123  1  0  0  0
 52124  1  0  0  0
 53 54  1  0  0  0
 54 55  2  0  0  0
 54125  1  0  0  0
 55 57  1  0  0  0
 55126  1  0  0  0
 56 69  2  0  0  0
 57 58  2  0  0  0
 57127  1  0  0  0
 58128  1  0  0  0
 59 60  1  0  0  0
 59 61  1  0  0  0
 59 62  1  0  0  0
 60129  1  0  0  0
 60130  1  0  0  0
 60131  1  0  0  0
 61132  1  0  0  0
 61133  1  0  0  0
 61134  1  0  0  0
 62135  1  0  0  0
 62136  1  0  0  0
 62137  1  0  0  0
 63 65  1  0  0  0
 63138  1  0  0  0
 63139  1  0  0  0
 63140  1  0  0  0
 64141  1  0  0  0
 65142  1  0  0  0
 68 80  1  0  0  0
 71 72  2  0  0  0
 71 73  1  0  0  0
 71143  1  0  0  0
 72 75  1  0  0  0
 72144  1  0  0  0
 73 76  2  0  0  0
 73145  1  0  0  0
 74 75  2  0  0  0
 74 76  1  0  0  0
 74146  1  0  0  0
 75 81  1  0  0  0
 76 82  1  0  0  0
 77 78  1  0  0  0
 77 81  1  0  0  0
 77 83  2  0  0  0
 78 79  1  0  0  0
 78147  1  0  0  0
 78148  1  0  0  0
 79 80  1  0  0  0
 79149  1  0  0  0
 79150  1  0  0  0
 80151  1  0  0  0
 80152  1  0  0  0
 81153  1  0  0  0
 82154  1  0  0  0
M  ISO  4   1 100  68 101  80 101  82 100
M  END
> <chiral flag>
0

> <version>
0

> <s_m_source_file>
/data/baiqing/PycharmProjects/Reinvent-master-3.2/result/LINK_invent/BTK/process_docking_weight1_custom_product_contain_oxygen_bond_distance_aromatic_linkinvent_7_9_3/rearranged_h_0064.sdf

> <i_m_source_file_index>
22

> <r_mmod_Potential_Energy-OPLS-2005>
-82.9036636352539

> <r_mmod_Stretch_Energy-OPLS-2005>
43.5146064758301

> <r_mmod_Bend_Energy-OPLS-2005>
102.434417724609

> <r_mmod_Torsional_Energy-OPLS-2005>
222.946380615234

> <r_mmod_Improper_Torsional_Energy-OPLS-2005>
3.56133818626404

> <r_mmod_Van_der_Waal_Energy-OPLS-2005>
167.015167236328

> <r_mmod_Electrostatic_Energy-OPLS-2005>
-401.277069091797

> <r_mmod_Solvation_Energy-OPLS-2005>
-238.666366577148

> <b_mmod_Minimization_Converged-OPLS-2005>
0

> <r_mmod_RMS_Derivative-OPLS-2005>
0.538797676563263

$$$$
22
                    3D
 Structure written by MMmdl.
155164  0  0  1  0            999 V2000
  -30.6174  -14.6341   20.4988 C   0  0  0  0  0  0
  -30.4400  -12.3904   19.4447 C   0  0  0  0  0  0
  -29.5051  -12.5079   18.2191 C   0  0  0  0  0  0
  -28.0291  -12.3406   18.6332 C   0  0  0  0  0  0
  -27.6533  -13.2113   19.8615 C   0  0  2  0  0  0
  -28.6990  -13.0591   20.9894 C   0  0  0  0  0  0
  -25.2567  -13.8156   20.5670 C   0  0  0  0  0  0
  -24.1832  -13.0433   20.9200 C   0  0  0  0  0  0
  -24.6395  -11.6902   20.8750 C   0  0  0  0  0  0
  -23.9063  -10.4287   21.0414 C   0  0  0  0  0  0
  -24.3616   -9.4203   21.9189 C   0  0  0  0  0  0
  -23.6293   -8.2239   22.0753 C   0  0  0  0  0  0
  -22.4273   -8.0281   21.3547 C   0  0  0  0  0  0
  -21.9911   -9.0254   20.4648 C   0  0  0  0  0  0
  -22.7238  -10.2134   20.3061 C   0  0  0  0  0  0
  -21.6850   -6.0742   22.5284 C   0  0  0  0  0  0
  -21.4006   -6.5640   23.8218 C   0  0  0  0  0  0
  -21.3658   -5.6792   24.9180 C   0  0  0  0  0  0
  -21.6044   -4.3058   24.7225 C   0  0  0  0  0  0
  -21.8820   -3.8151   23.4346 C   0  0  0  0  0  0
  -21.9189   -4.6969   22.3406 C   0  0  0  0  0  0
  -22.7856  -13.5237   21.1860 C   0  0  0  0  0  0
  -22.1660   -4.2157   21.0985 F   0  0  0  0  0  0
  -21.5632   -3.4541   25.7738 F   0  0  0  0  0  0
  -30.0147  -13.4053   20.4279 N   0  0  0  0  0  0
  -26.2987  -12.9326   20.3306 N   0  0  0  0  0  0
  -25.9317  -11.6487   20.5753 N   0  0  0  0  0  0
  -22.0488  -12.8232   22.0411 N   0  0  0  0  0  0
  -25.4279  -15.1874   20.4039 N   0  0  0  0  0  0
  -31.7814  -14.7988   20.1219 O   0  0  0  0  0  0
  -21.6637   -6.8881   21.4245 O   0  0  0  0  0  0
  -22.3550  -14.5550   20.6713 O   0  0  0  0  0  0
  -24.6254  -31.8613   23.2037 C   0  0  0  0  0  0
  -25.9108  -32.4788   23.8351 C   0  0  1  0  0  0
  -27.2204  -27.3264   20.1096 C   0  0  0  0  0  0
  -25.5922  -33.8584   24.2281 N   0  0  0  0  0  0
  -23.4176  -30.4876   21.5468 C   0  0  2  0  0  0
  -24.8633  -28.9482   20.1095 C   0  0  0  0  0  0
  -22.7468  -29.4637   22.4935 C   0  0  0  0  0  0
  -18.0287  -28.1383   22.8494 C   0  0  0  0  0  0
  -24.1487  -36.7292   23.2638 C   0  0  0  0  0  0
  -25.9586  -30.7956   21.3726 C   0  0  0  0  0  0
  -26.0330  -29.4234   20.7156 C   0  0  0  0  0  0
  -27.2147  -28.6237   20.7081 C   0  0  0  0  0  0
  -26.0269  -26.9107   19.4711 C   0  0  0  0  0  0
  -24.8624  -27.6975   19.4778 C   0  0  0  0  0  0
  -23.6308  -29.8259   20.1608 C   0  0  0  0  0  0
  -25.4110  -36.3083   24.0331 C   0  0  1  0  0  0
  -20.5890  -28.3684   23.1290 C   0  0  2  0  0  0
  -20.6782  -26.9409   22.5411 C   0  0  0  0  0  0
  -19.5752  -26.6382   21.5219 C   0  0  0  0  0  0
  -18.1933  -26.7926   22.1631 C   0  0  0  0  0  0
  -19.1543  -28.8847   23.2893 C   0  0  0  0  0  0
  -18.9469  -30.1448   23.8911 C   0  0  0  0  0  0
  -17.6472  -30.6590   24.0563 C   0  0  0  0  0  0
  -25.9048  -34.9456   23.5105 C   0  0  0  0  0  0
  -16.5360  -29.9091   23.6328 C   0  0  0  0  0  0
  -16.7277  -28.6506   23.0355 C   0  0  0  0  0  0
  -26.4497  -31.6582   25.0705 C   0  0  0  0  0  0
  -25.3729  -31.3721   26.1428 C   0  0  0  0  0  0
  -27.0332  -30.3014   24.6121 C   0  0  0  0  0  0
  -27.6056  -32.4303   25.7484 C   0  0  0  0  0  0
  -27.5575  -37.1793   24.8466 C   0  0  0  0  0  0
  -21.4182  -29.3044   22.3683 N   0  0  0  0  0  0
  -26.4284  -37.3780   23.9416 N   0  0  0  0  0  0
  -24.6864  -31.0636   22.0983 N   0  0  0  0  0  0
  -23.4201  -28.8169   23.3002 O   0  0  0  0  0  0
  -28.3315  -26.4664   20.1682 O   0  0  0  0  0  0
  -26.5620  -34.8926   22.4673 O   0  0  0  0  0  0
  -23.5422  -32.1393   23.7380 O   0  0  0  0  0  0
  -31.0380  -19.2721   20.2186 C   0  0  0  0  0  0
  -28.7002  -19.3314   20.7451 C   0  0  0  0  0  0
  -31.0489  -17.8512   20.3518 C   0  0  0  0  0  0
  -28.7111  -17.9114   20.8880 C   0  0  0  0  0  0
  -29.8625  -20.0692   20.3919 C   0  0  0  0  0  0
  -29.8785  -17.1247   20.6858 C   0  0  0  0  0  0
  -30.7744  -22.3279   19.6535 C   0  0  0  0  0  0
  -30.3833  -23.8104   19.6021 C   0  0  0  0  0  0
  -28.6670  -22.4211   20.5340 C   0  0  0  0  0  0
  -29.1362  -23.9286   20.4785 C   0  0  2  0  0  0
  -28.0707  -25.0159   20.0229 C   0  0  0  0  0  0
  -29.8284  -21.5420   20.2245 N   0  0  0  0  0  0
  -29.7923  -15.6721   20.8448 N   0  0  0  0  0  0
  -31.8553  -21.9611   19.1842 O   0  0  0  0  0  0
  -31.4796  -12.5223   19.1396 H   0  0  0  0  0  0
  -30.3814  -11.3923   19.8816 H   0  0  0  0  0  0
  -29.7695  -11.7609   17.4698 H   0  0  0  0  0  0
  -29.6422  -13.4798   17.7420 H   0  0  0  0  0  0
  -27.8700  -11.2867   18.8655 H   0  0  0  0  0  0
  -27.3719  -12.5668   17.7925 H   0  0  0  0  0  0
  -27.6726  -14.2465   19.5206 H   0  0  0  0  0  0
  -28.7114  -12.0335   21.3619 H   0  0  0  0  0  0
  -28.4449  -13.6819   21.8484 H   0  0  0  0  0  0
  -25.2760   -9.5683   22.4762 H   0  0  0  0  0  0
  -24.0007   -7.4628   22.7465 H   0  0  0  0  0  0
  -21.0846   -8.8771   19.8948 H   0  0  0  0  0  0
  -22.3698  -10.9676   19.6171 H   0  0  0  0  0  0
  -21.1989   -7.6144   23.9727 H   0  0  0  0  0  0
  -21.1480   -6.0519   25.9085 H   0  0  0  0  0  0
  -22.0597   -2.7612   23.2846 H   0  0  0  0  0  0
  -22.4092  -11.9892   22.4803 H   0  0  0  0  0  0
  -21.1106  -13.1266   22.2605 H   0  0  0  0  0  0
  -24.6538  -15.8363   20.4973 H   0  0  0  0  0  0
  -26.2583  -15.6173   20.0172 H   0  0  0  0  0  0
  -26.7172  -32.5472   23.1096 H   0  0  0  0  0  0
  -25.0065  -33.9731   25.0422 H   0  0  0  0  0  0
  -22.7102  -31.3079   21.4060 H   0  0  0  0  0  0
  -23.3755  -35.9618   23.3296 H   0  0  0  0  0  0
  -24.3579  -36.8912   22.2053 H   0  0  0  0  0  0
  -23.7233  -37.6489   23.6662 H   0  0  0  0  0  0
  -26.0827  -31.5578   20.6019 H   0  0  0  0  0  0
  -26.8427  -30.8487   21.9964 H   0  0  0  0  0  0
  -28.1101  -28.9814   21.1972 H   0  0  0  0  0  0
  -25.9570  -25.9603   18.9647 H   0  0  0  0  0  0
  -23.9677  -27.3315   18.9933 H   0  0  0  0  0  0
  -23.7468  -30.6028   19.4042 H   0  0  0  0  0  0
  -22.7515  -29.2536   19.8600 H   0  0  0  0  0  0
  -25.1291  -36.1928   25.0822 H   0  0  0  0  0  0
  -20.9989  -28.3260   24.1409 H   0  0  0  0  0  0
  -20.5697  -26.2292   23.3608 H   0  0  0  0  0  0
  -21.6649  -26.7448   22.1194 H   0  0  0  0  0  0
  -19.6919  -25.6295   21.1243 H   0  0  0  0  0  0
  -19.6694  -27.3199   20.6756 H   0  0  0  0  0  0
  -17.4202  -26.6680   21.4032 H   0  0  0  0  0  0
  -18.0332  -26.0060   22.9022 H   0  0  0  0  0  0
  -19.7949  -30.7258   24.2288 H   0  0  0  0  0  0
  -17.5032  -31.6276   24.5154 H   0  0  0  0  0  0
  -15.5365  -30.3005   23.7642 H   0  0  0  0  0  0
  -15.8673  -28.0829   22.7071 H   0  0  0  0  0  0
  -24.5913  -30.7061   25.7755 H   0  0  0  0  0  0
  -24.8913  -32.2896   26.4825 H   0  0  0  0  0  0
  -25.8047  -30.8916   27.0216 H   0  0  0  0  0  0
  -26.2891  -29.6767   24.1164 H   0  0  0  0  0  0
  -27.4083  -29.7254   25.4589 H   0  0  0  0  0  0
  -27.8737  -30.4321   23.9299 H   0  0  0  0  0  0
  -27.2671  -33.3610   26.2051 H   0  0  0  0  0  0
  -28.3884  -32.6840   25.0323 H   0  0  0  0  0  0
  -28.0700  -31.8423   26.5411 H   0  0  0  0  0  0
  -28.2583  -38.0099   24.7523 H   0  0  0  0  0  0
  -28.1077  -36.2627   24.6277 H   0  0  0  0  0  0
  -27.2294  -37.1424   25.8870 H   0  0  0  0  0  0
  -20.9346  -29.8763   21.6897 H   0  0  0  0  0  0
  -26.0165  -38.2851   24.1430 H   0  0  0  0  0  0
  -31.9834  -19.7313   19.9769 H   0  0  0  0  0  0
  -27.7659  -19.8509   20.9054 H   0  0  0  0  0  0
  -31.9826  -17.3303   20.1958 H   0  0  0  0  0  0
  -27.7835  -17.4237   21.1532 H   0  0  0  0  0  0
  -30.1733  -24.0783   18.5666 H   0  0  0  0  0  0
  -31.1930  -24.4456   19.9618 H   0  0  0  0  0  0
  -27.8926  -22.2369   19.7872 H   0  0  0  0  0  0
  -28.2429  -22.1805   21.5093 H   0  0  0  0  0  0
  -29.4611  -24.1965   21.4849 H   0  0  0  0  0  0
  -27.1686  -24.7909   20.5952 H   0  0  0  0  0  0
  -27.8266  -24.8175   18.9786 H   0  0  0  0  0  0
  -28.8858  -15.3437   21.1388 H   0  0  0  0  0  0
  1 25  1  0  0  0
  1 30  2  0  0  0
  1 83  1  0  0  0
  2  3  1  0  0  0
  2 25  1  0  0  0
  2 85  1  0  0  0
  2 86  1  0  0  0
  3  4  1  0  0  0
  3 87  1  0  0  0
  3 88  1  0  0  0
  4  5  1  0  0  0
  4 89  1  0  0  0
  4 90  1  0  0  0
  5  6  1  0  0  0
  5 26  1  0  0  0
  5 91  1  0  0  0
  6 25  1  0  0  0
  6 92  1  0  0  0
  6 93  1  0  0  0
  7  8  2  0  0  0
  7 26  1  0  0  0
  7 29  1  0  0  0
  8  9  1  0  0  0
  8 22  1  0  0  0
  9 10  1  0  0  0
  9 27  2  0  0  0
 10 11  2  0  0  0
 10 15  1  0  0  0
 11 12  1  0  0  0
 11 94  1  0  0  0
 12 13  2  0  0  0
 12 95  1  0  0  0
 13 14  1  0  0  0
 13 31  1  0  0  0
 14 15  2  0  0  0
 14 96  1  0  0  0
 15 97  1  0  0  0
 16 17  2  0  0  0
 16 21  1  0  0  0
 16 31  1  0  0  0
 17 18  1  0  0  0
 17 98  1  0  0  0
 18 19  2  0  0  0
 18 99  1  0  0  0
 19 20  1  0  0  0
 19 24  1  0  0  0
 20 21  2  0  0  0
 20100  1  0  0  0
 21 23  1  0  0  0
 22 28  1  0  0  0
 22 32  2  0  0  0
 26 27  1  0  0  0
 28101  1  0  0  0
 28102  1  0  0  0
 29103  1  0  0  0
 29104  1  0  0  0
 33 34  1  0  0  0
 33 66  1  0  0  0
 33 70  2  0  0  0
 34 36  1  0  0  0
 34 59  1  0  0  0
 34105  1  0  0  0
 35 44  2  0  0  0
 35 45  1  0  0  0
 35 68  1  0  0  0
 36 56  1  0  0  0
 36106  1  0  0  0
 37 39  1  0  0  0
 37 47  1  0  0  0
 37 66  1  0  0  0
 37107  1  0  0  0
 38 43  2  0  0  0
 38 46  1  0  0  0
 38 47  1  0  0  0
 39 64  1  0  0  0
 39 67  2  0  0  0
 40 52  1  0  0  0
 40 53  2  0  0  0
 40 58  1  0  0  0
 41108  1  0  0  0
 41109  1  0  0  0
 41110  1  0  0  0
 41 48  1  0  0  0
 42 43  1  0  0  0
 42 66  1  0  0  0
 42111  1  0  0  0
 42112  1  0  0  0
 43 44  1  0  0  0
 44113  1  0  0  0
 45 46  2  0  0  0
 45114  1  0  0  0
 46115  1  0  0  0
 47116  1  0  0  0
 47117  1  0  0  0
 48 56  1  0  0  0
 48 65  1  0  0  0
 48118  1  0  0  0
 49 50  1  0  0  0
 49 53  1  0  0  0
 49 64  1  0  0  0
 49119  1  0  0  0
 50 51  1  0  0  0
 50120  1  0  0  0
 50121  1  0  0  0
 51 52  1  0  0  0
 51122  1  0  0  0
 51123  1  0  0  0
 52124  1  0  0  0
 52125  1  0  0  0
 53 54  1  0  0  0
 54 55  2  0  0  0
 54126  1  0  0  0
 55 57  1  0  0  0
 55127  1  0  0  0
 56 69  2  0  0  0
 57 58  2  0  0  0
 57128  1  0  0  0
 58129  1  0  0  0
 59 60  1  0  0  0
 59 61  1  0  0  0
 59 62  1  0  0  0
 60130  1  0  0  0
 60131  1  0  0  0
 60132  1  0  0  0
 61133  1  0  0  0
 61134  1  0  0  0
 61135  1  0  0  0
 62136  1  0  0  0
 62137  1  0  0  0
 62138  1  0  0  0
 63 65  1  0  0  0
 63139  1  0  0  0
 63140  1  0  0  0
 63141  1  0  0  0
 64142  1  0  0  0
 65143  1  0  0  0
 68 81  1  0  0  0
 71 73  2  0  0  0
 71 75  1  0  0  0
 71144  1  0  0  0
 72 74  1  0  0  0
 72 75  2  0  0  0
 72145  1  0  0  0
 73 76  1  0  0  0
 73146  1  0  0  0
 74 76  2  0  0  0
 74147  1  0  0  0
 75 82  1  0  0  0
 76 83  1  0  0  0
 77 78  1  0  0  0
 77 82  1  0  0  0
 77 84  2  0  0  0
 78 80  1  0  0  0
 78148  1  0  0  0
 78149  1  0  0  0
 79 80  1  0  0  0
 79 82  1  0  0  0
 79150  1  0  0  0
 79151  1  0  0  0
 80 81  1  0  0  0
 80152  1  0  0  0
 81153  1  0  0  0
 81154  1  0  0  0
 83155  1  0  0  0
M  ISO  4   1 100  68 101  81 101  83 100
M  END
> <chiral flag>
0

> <version>
0

> <s_m_source_file>
/data/baiqing/PycharmProjects/Reinvent-master-3.2/result/LINK_invent/BTK/process_docking_weight1_custom_product_contain_oxygen_bond_distance_aromatic_linkinvent_7_9_3/rearranged_h_0064.sdf

> <i_m_source_file_index>
23

> <r_mmod_Potential_Energy-OPLS-2005>
105.170799255371

> <r_mmod_Stretch_Energy-OPLS-2005>
78.9228973388672

> <r_mmod_Bend_Energy-OPLS-2005>
162.687774658203

> <r_mmod_Torsional_Energy-OPLS-2005>
256.512542724609

> <r_mmod_Improper_Torsional_Energy-OPLS-2005>
4.5587272644043

> <r_mmod_Van_der_Waal_Energy-OPLS-2005>
150.857559204102

> <r_mmod_Electrostatic_Energy-OPLS-2005>
-370.408203125

> <r_mmod_Solvation_Energy-OPLS-2005>
-225.369674682617

> <b_mmod_Minimization_Converged-OPLS-2005>
0

> <r_mmod_RMS_Derivative-OPLS-2005>
0.923688650131226

$$$$
23
                    3D
 Structure written by MMmdl.
155163  0  0  1  0            999 V2000
  -30.5697  -14.8089   20.4743 C   0  0  0  0  0  0
  -30.4388  -12.5057   19.4671 C   0  0  0  0  0  0
  -29.5115  -12.5209   18.2310 C   0  0  0  0  0  0
  -28.0399  -12.3310   18.6496 C   0  0  0  0  0  0
  -27.6358  -13.2331   19.8461 C   0  0  2  0  0  0
  -28.6819  -13.1778   20.9801 C   0  0  0  0  0  0
  -25.2495  -13.8202   20.5701 C   0  0  0  0  0  0
  -24.1801  -13.0426   20.9227 C   0  0  0  0  0  0
  -24.6398  -11.6902   20.8745 C   0  0  0  0  0  0
  -23.9074  -10.4278   21.0406 C   0  0  0  0  0  0
  -24.3624   -9.4202   21.9189 C   0  0  0  0  0  0
  -23.6294   -8.2244   22.0762 C   0  0  0  0  0  0
  -22.4278   -8.0280   21.3552 C   0  0  0  0  0  0
  -21.9904   -9.0259   20.4659 C   0  0  0  0  0  0
  -22.7235  -10.2134   20.3064 C   0  0  0  0  0  0
  -21.6855   -6.0727   22.5279 C   0  0  0  0  0  0
  -21.4013   -6.5637   23.8207 C   0  0  0  0  0  0
  -21.3661   -5.6792   24.9175 C   0  0  0  0  0  0
  -21.6039   -4.3051   24.7227 C   0  0  0  0  0  0
  -21.8822   -3.8142   23.4350 C   0  0  0  0  0  0
  -21.9193   -4.6955   22.3407 C   0  0  0  0  0  0
  -22.7818  -13.5219   21.1871 C   0  0  0  0  0  0
  -22.1661   -4.2138   21.0982 F   0  0  0  0  0  0
  -21.5630   -3.4535   25.7744 F   0  0  0  0  0  0
  -29.9672  -13.5672   20.3904 N   0  0  0  0  0  0
  -26.2896  -12.9391   20.3243 N   0  0  0  0  0  0
  -25.9327  -11.6533   20.5742 N   0  0  0  0  0  0
  -22.0470  -12.8210   22.0434 N   0  0  0  0  0  0
  -25.4147  -15.1921   20.4101 N   0  0  0  0  0  0
  -31.7691  -14.9072   20.1976 O   0  0  0  0  0  0
  -21.6640   -6.8873   21.4245 O   0  0  0  0  0  0
  -22.3507  -14.5529   20.6721 O   0  0  0  0  0  0
  -24.6349  -31.8505   23.1943 C   0  0  0  0  0  0
  -25.9162  -32.4722   23.8298 C   0  0  1  0  0  0
  -27.1981  -27.2055   20.1663 C   0  0  0  0  0  0
  -25.5943  -33.8535   24.2214 N   0  0  0  0  0  0
  -23.4333  -30.4712   21.5387 C   0  0  2  0  0  0
  -24.8786  -28.9065   20.1119 C   0  0  0  0  0  0
  -22.7523  -29.4563   22.4887 C   0  0  0  0  0  0
  -18.0293  -28.1414   22.8461 C   0  0  0  0  0  0
  -24.1493  -36.7269   23.2627 C   0  0  0  0  0  0
  -25.9814  -30.7489   21.3795 C   0  0  0  0  0  0
  -26.0508  -29.3638   20.7297 C   0  0  0  0  0  0
  -27.2161  -28.5248   20.7436 C   0  0  0  0  0  0
  -26.0042  -26.8213   19.5278 C   0  0  0  0  0  0
  -24.8614  -27.6423   19.5021 C   0  0  0  0  0  0
  -23.6547  -29.8024   20.1553 C   0  0  0  0  0  0
  -25.4120  -36.3056   24.0321 C   0  0  1  0  0  0
  -20.5898  -28.3714   23.1273 C   0  0  2  0  0  0
  -20.6793  -26.9428   22.5423 C   0  0  0  0  0  0
  -19.5768  -26.6399   21.5232 C   0  0  0  0  0  0
  -18.1942  -26.7950   22.1616 C   0  0  0  0  0  0
  -19.1548  -28.8880   23.2856 C   0  0  0  0  0  0
  -18.9467  -30.1480   23.8873 C   0  0  0  0  0  0
  -17.6464  -30.6612   24.0560 C   0  0  0  0  0  0
  -25.9072  -34.9438   23.5080 C   0  0  0  0  0  0
  -16.5357  -29.9106   23.6337 C   0  0  0  0  0  0
  -16.7272  -28.6526   23.0345 C   0  0  0  0  0  0
  -26.4520  -31.6571   25.0709 C   0  0  0  0  0  0
  -25.3707  -31.3770   26.1406 C   0  0  0  0  0  0
  -27.0347  -30.2971   24.6238 C   0  0  0  0  0  0
  -27.6073  -32.4310   25.7458 C   0  0  0  0  0  0
  -27.5592  -37.1756   24.8443 C   0  0  0  0  0  0
  -21.4224  -29.3039   22.3641 N   0  0  0  0  0  0
  -26.4273  -37.3779   23.9428 N   0  0  0  0  0  0
  -24.7032  -31.0426   22.0940 N   0  0  0  0  0  0
  -23.4208  -28.8118   23.3024 O   0  0  0  0  0  0
  -28.2693  -26.2761   20.1465 O   0  0  0  0  0  0
  -26.5656  -34.8895   22.4657 O   0  0  0  0  0  0
  -23.5495  -32.1365   23.7208 O   0  0  0  0  0  0
  -31.4625  -18.9148   22.2299 C   0  0  0  0  0  0
  -31.1390  -17.6169   21.7965 C   0  0  0  0  0  0
  -29.3432  -18.5864   20.4733 C   0  0  0  0  0  0
  -30.7731  -20.0672   21.7890 C   0  0  0  0  0  0
  -30.0740  -17.3797   20.9088 C   0  0  0  0  0  0
  -29.6605  -19.9691   20.8859 C   0  0  0  0  0  0
  -28.5447  -23.7162   20.2120 C   0  0  0  0  0  0
  -28.1526  -24.9604   20.7257 C   0  0  0  0  0  0
  -31.3473  -21.3251   22.2879 C   0  0  0  0  0  0
  -28.5565  -22.3929   20.9737 C   0  0  0  0  0  0
  -31.3429  -21.5902   23.5946 N   0  0  0  0  0  0
  -29.0062  -21.2250   20.3397 N   0  0  0  0  0  0
  -29.7553  -15.9449   20.6028 N   0  0  0  0  0  0
  -31.9328  -22.1830   21.4516 N   0  3  0  0  0  0
  -28.1817  -22.3230   22.1474 O   0  0  0  0  0  0
  -31.4742  -12.6606   19.1599 H   0  0  0  0  0  0
  -30.4183  -11.5309   19.9555 H   0  0  0  0  0  0
  -29.8082  -11.7445   17.5235 H   0  0  0  0  0  0
  -29.6248  -13.4696   17.7050 H   0  0  0  0  0  0
  -27.9101  -11.2812   18.9172 H   0  0  0  0  0  0
  -27.3803  -12.5139   17.7998 H   0  0  0  0  0  0
  -27.6244  -14.2513   19.4601 H   0  0  0  0  0  0
  -28.7419  -12.1759   21.4124 H   0  0  0  0  0  0
  -28.4091  -13.8482   21.7963 H   0  0  0  0  0  0
  -25.2771   -9.5671   22.4747 H   0  0  0  0  0  0
  -23.9992   -7.4641   22.7478 H   0  0  0  0  0  0
  -21.0832   -8.8785   19.8975 H   0  0  0  0  0  0
  -22.3702  -10.9673   19.6166 H   0  0  0  0  0  0
  -21.2009   -7.6140   23.9710 H   0  0  0  0  0  0
  -21.1475   -6.0519   25.9074 H   0  0  0  0  0  0
  -22.0602   -2.7600   23.2859 H   0  0  0  0  0  0
  -22.4082  -11.9859   22.4802 H   0  0  0  0  0  0
  -21.1099  -13.1251   22.2661 H   0  0  0  0  0  0
  -24.6360  -15.8334   20.5147 H   0  0  0  0  0  0
  -26.2383  -15.6364   20.0264 H   0  0  0  0  0  0
  -26.7202  -32.5346   23.0997 H   0  0  0  0  0  0
  -25.0046  -33.9669   25.0336 H   0  0  0  0  0  0
  -22.7301  -31.2941   21.3888 H   0  0  0  0  0  0
  -23.3766  -35.9584   23.3253 H   0  0  0  0  0  0
  -24.3576  -36.8944   22.2041 H   0  0  0  0  0  0
  -23.7225  -37.6447   23.6689 H   0  0  0  0  0  0
  -26.1294  -31.5044   20.6076 H   0  0  0  0  0  0
  -26.8572  -30.7972   22.0152 H   0  0  0  0  0  0
  -28.1152  -28.8629   21.2388 H   0  0  0  0  0  0
  -25.9441  -25.8453   19.0674 H   0  0  0  0  0  0
  -23.9622  -27.2827   19.0228 H   0  0  0  0  0  0
  -23.7760  -30.5777   19.3975 H   0  0  0  0  0  0
  -22.7713  -29.2417   19.8476 H   0  0  0  0  0  0
  -25.1301  -36.1859   25.0810 H   0  0  0  0  0  0
  -20.9973  -28.3283   24.1407 H   0  0  0  0  0  0
  -20.5749  -26.2309   23.3628 H   0  0  0  0  0  0
  -21.6653  -26.7503   22.1189 H   0  0  0  0  0  0
  -19.6956  -25.6325   21.1242 H   0  0  0  0  0  0
  -19.6720  -27.3224   20.6773 H   0  0  0  0  0  0
  -17.4238  -26.6690   21.4006 H   0  0  0  0  0  0
  -18.0314  -26.0137   22.9043 H   0  0  0  0  0  0
  -19.7949  -30.7300   24.2240 H   0  0  0  0  0  0
  -17.5030  -31.6290   24.5174 H   0  0  0  0  0  0
  -15.5361  -30.3001   23.7720 H   0  0  0  0  0  0
  -15.8653  -28.0853   22.7072 H   0  0  0  0  0  0
  -24.5903  -30.7086   25.7726 H   0  0  0  0  0  0
  -24.8867  -32.2960   26.4716 H   0  0  0  0  0  0
  -25.7990  -30.9015   27.0239 H   0  0  0  0  0  0
  -26.2933  -29.6696   24.1258 H   0  0  0  0  0  0
  -27.3996  -29.7255   25.4788 H   0  0  0  0  0  0
  -27.8843  -30.4215   23.9511 H   0  0  0  0  0  0
  -27.2702  -33.3619   26.2018 H   0  0  0  0  0  0
  -28.3879  -32.6846   25.0270 H   0  0  0  0  0  0
  -28.0753  -31.8442   26.5370 H   0  0  0  0  0  0
  -28.2558  -38.0111   24.7607 H   0  0  0  0  0  0
  -28.1156  -36.2654   24.6133 H   0  0  0  0  0  0
  -27.2335  -37.1240   25.8850 H   0  0  0  0  0  0
  -20.9439  -29.8678   21.6751 H   0  0  0  0  0  0
  -26.0141  -38.2824   24.1518 H   0  0  0  0  0  0
  -32.2991  -19.0227   22.9074 H   0  0  0  0  0  0
  -31.7243  -16.7929   22.1813 H   0  0  0  0  0  0
  -28.5176  -18.4432   19.7945 H   0  0  0  0  0  0
  -28.9089  -23.6965   19.1955 H   0  0  0  0  0  0
  -27.7510  -25.0289   21.7284 H   0  0  0  0  0  0
  -30.8664  -20.9551   24.2192 H   0  0  0  0  0  0
  -31.7597  -22.4181   23.9902 H   0  0  0  0  0  0
  -29.0055  -21.2908   19.3314 H   0  0  0  0  0  0
  -28.7699  -15.7418   20.5771 H   0  0  0  0  0  0
  -32.0376  -21.9115   20.4860 H   0  0  0  0  0  0
  -32.4096  -23.0163   21.7599 H   0  0  0  0  0  0
  1 25  1  0  0  0
  1 30  2  0  0  0
  1 83  1  0  0  0
  2  3  1  0  0  0
  2 25  1  0  0  0
  2 86  1  0  0  0
  2 87  1  0  0  0
  3  4  1  0  0  0
  3 88  1  0  0  0
  3 89  1  0  0  0
  4  5  1  0  0  0
  4 90  1  0  0  0
  4 91  1  0  0  0
  5  6  1  0  0  0
  5 26  1  0  0  0
  5 92  1  0  0  0
  6 25  1  0  0  0
  6 93  1  0  0  0
  6 94  1  0  0  0
  7  8  2  0  0  0
  7 26  1  0  0  0
  7 29  1  0  0  0
  8  9  1  0  0  0
  8 22  1  0  0  0
  9 10  1  0  0  0
  9 27  2  0  0  0
 10 11  2  0  0  0
 10 15  1  0  0  0
 11 12  1  0  0  0
 11 95  1  0  0  0
 12 13  2  0  0  0
 12 96  1  0  0  0
 13 14  1  0  0  0
 13 31  1  0  0  0
 14 15  2  0  0  0
 14 97  1  0  0  0
 15 98  1  0  0  0
 16 17  2  0  0  0
 16 21  1  0  0  0
 16 31  1  0  0  0
 17 18  1  0  0  0
 17 99  1  0  0  0
 18 19  2  0  0  0
 18100  1  0  0  0
 19 20  1  0  0  0
 19 24  1  0  0  0
 20 21  2  0  0  0
 20101  1  0  0  0
 21 23  1  0  0  0
 22 28  1  0  0  0
 22 32  2  0  0  0
 26 27  1  0  0  0
 28102  1  0  0  0
 28103  1  0  0  0
 29104  1  0  0  0
 29105  1  0  0  0
 33 34  1  0  0  0
 33 66  1  0  0  0
 33 70  2  0  0  0
 34 36  1  0  0  0
 34 59  1  0  0  0
 34106  1  0  0  0
 35 44  2  0  0  0
 35 45  1  0  0  0
 35 68  1  0  0  0
 36 56  1  0  0  0
 36107  1  0  0  0
 37 39  1  0  0  0
 37 47  1  0  0  0
 37 66  1  0  0  0
 37108  1  0  0  0
 38 43  2  0  0  0
 38 46  1  0  0  0
 38 47  1  0  0  0
 39 64  1  0  0  0
 39 67  2  0  0  0
 40 52  1  0  0  0
 40 53  2  0  0  0
 40 58  1  0  0  0
 41109  1  0  0  0
 41110  1  0  0  0
 41111  1  0  0  0
 41 48  1  0  0  0
 42 43  1  0  0  0
 42 66  1  0  0  0
 42112  1  0  0  0
 42113  1  0  0  0
 43 44  1  0  0  0
 44114  1  0  0  0
 45 46  2  0  0  0
 45115  1  0  0  0
 46116  1  0  0  0
 47117  1  0  0  0
 47118  1  0  0  0
 48 56  1  0  0  0
 48 65  1  0  0  0
 48119  1  0  0  0
 49 50  1  0  0  0
 49 53  1  0  0  0
 49 64  1  0  0  0
 49120  1  0  0  0
 50 51  1  0  0  0
 50121  1  0  0  0
 50122  1  0  0  0
 51 52  1  0  0  0
 51123  1  0  0  0
 51124  1  0  0  0
 52125  1  0  0  0
 52126  1  0  0  0
 53 54  1  0  0  0
 54 55  2  0  0  0
 54127  1  0  0  0
 55 57  1  0  0  0
 55128  1  0  0  0
 56 69  2  0  0  0
 57 58  2  0  0  0
 57129  1  0  0  0
 58130  1  0  0  0
 59 60  1  0  0  0
 59 61  1  0  0  0
 59 62  1  0  0  0
 60131  1  0  0  0
 60132  1  0  0  0
 60133  1  0  0  0
 61134  1  0  0  0
 61135  1  0  0  0
 61136  1  0  0  0
 62137  1  0  0  0
 62138  1  0  0  0
 62139  1  0  0  0
 63 65  1  0  0  0
 63140  1  0  0  0
 63141  1  0  0  0
 63142  1  0  0  0
 64143  1  0  0  0
 65144  1  0  0  0
 68 78  1  0  0  0
 71 72  2  0  0  0
 71 74  1  0  0  0
 71145  1  0  0  0
 72 75  1  0  0  0
 72146  1  0  0  0
 73 75  2  0  0  0
 73 76  1  0  0  0
 73147  1  0  0  0
 74 76  2  0  0  0
 74 79  1  0  0  0
 75 83  1  0  0  0
 76 82  1  0  0  0
 77 78  2  0  0  0
 77 80  1  0  0  0
 77148  1  0  0  0
 78149  1  0  0  0
 79 81  1  0  0  0
 79 84  2  0  0  0
 80 82  1  0  0  0
 80 85  2  0  0  0
 81150  1  0  0  0
 81151  1  0  0  0
 82152  1  0  0  0
 83153  1  0  0  0
 84154  1  0  0  0
 84155  1  0  0  0
M  CHG  1  84   1
M  ISO  4   1 100  68 101  78 101  83 100
M  END
> <chiral flag>
0

> <version>
0

> <s_m_source_file>
/data/baiqing/PycharmProjects/Reinvent-master-3.2/result/LINK_invent/BTK/process_docking_weight1_custom_product_contain_oxygen_bond_distance_aromatic_linkinvent_7_9_3/rearranged_h_0064.sdf

> <i_m_source_file_index>
24

> <r_mmod_Potential_Energy-OPLS-2005>
59.9376029968262

> <r_mmod_Stretch_Energy-OPLS-2005>
159.113372802734

> <r_mmod_Bend_Energy-OPLS-2005>
173.219284057617

> <r_mmod_Torsional_Energy-OPLS-2005>
283.903472900391

> <r_mmod_Improper_Torsional_Energy-OPLS-2005>
8.78242015838623

> <r_mmod_Van_der_Waal_Energy-OPLS-2005>
136.5234375

> <r_mmod_Electrostatic_Energy-OPLS-2005>
-363.056884765625

> <r_mmod_Solvation_Energy-OPLS-2005>
-457.178924560547

> <b_mmod_Minimization_Converged-OPLS-2005>
0

> <r_mmod_RMS_Derivative-OPLS-2005>
4.65720462799072

$$$$
24
                    3D
 Structure written by MMmdl.
154162  0  0  1  0            999 V2000
  -30.5868  -14.7759   20.4302 C   0  0  0  0  0  0
  -30.4255  -12.4705   19.4895 C   0  0  0  0  0  0
  -29.5105  -12.5216   18.2470 C   0  0  0  0  0  0
  -28.0378  -12.3466   18.6601 C   0  0  0  0  0  0
  -27.6385  -13.2408   19.8636 C   0  0  2  0  0  0
  -28.6817  -13.1869   20.9994 C   0  0  0  0  0  0
  -25.2508  -13.8230   20.5772 C   0  0  0  0  0  0
  -24.1810  -13.0463   20.9259 C   0  0  0  0  0  0
  -24.6408  -11.6940   20.8814 C   0  0  0  0  0  0
  -23.9094  -10.4317   21.0461 C   0  0  0  0  0  0
  -24.3623   -9.4216   21.9239 C   0  0  0  0  0  0
  -23.6287   -8.2262   22.0773 C   0  0  0  0  0  0
  -22.4276   -8.0313   21.3563 C   0  0  0  0  0  0
  -21.9929   -9.0300   20.4678 C   0  0  0  0  0  0
  -22.7268  -10.2179   20.3099 C   0  0  0  0  0  0
  -21.6860   -6.0759   22.5295 C   0  0  0  0  0  0
  -21.4027   -6.5659   23.8225 C   0  0  0  0  0  0
  -21.3661   -5.6817   24.9190 C   0  0  0  0  0  0
  -21.6031   -4.3072   24.7227 C   0  0  0  0  0  0
  -21.8809   -3.8156   23.4342 C   0  0  0  0  0  0
  -21.9187   -4.6986   22.3399 C   0  0  0  0  0  0
  -22.7832  -13.5268   21.1825 C   0  0  0  0  0  0
  -22.1663   -4.2163   21.0985 F   0  0  0  0  0  0
  -21.5593   -3.4551   25.7734 F   0  0  0  0  0  0
  -29.9763  -13.5410   20.4123 N   0  0  0  0  0  0
  -26.2925  -12.9434   20.3388 N   0  0  0  0  0  0
  -25.9337  -11.6566   20.5845 N   0  0  0  0  0  0
  -22.0405  -12.8341   22.0376 N   0  0  0  0  0  0
  -25.4145  -15.1966   20.4175 N   0  0  0  0  0  0
  -31.7846  -14.8380   20.1315 O   0  0  0  0  0  0
  -21.6620   -6.8917   21.4267 O   0  0  0  0  0  0
  -22.3565  -14.5551   20.6585 O   0  0  0  0  0  0
  -24.6289  -31.8571   23.1989 C   0  0  0  0  0  0
  -25.9125  -32.4768   23.8318 C   0  0  1  0  0  0
  -27.2131  -27.2731   20.1360 C   0  0  0  0  0  0
  -25.5963  -33.8570   24.2262 N   0  0  0  0  0  0
  -23.4239  -30.4793   21.5419 C   0  0  2  0  0  0
  -24.8678  -28.9166   20.1201 C   0  0  0  0  0  0
  -22.7487  -29.4602   22.4906 C   0  0  0  0  0  0
  -18.0307  -28.1389   22.8480 C   0  0  0  0  0  0
  -24.1504  -36.7259   23.2631 C   0  0  0  0  0  0
  -25.9682  -30.7719   21.3754 C   0  0  0  0  0  0
  -26.0395  -29.3929   20.7222 C   0  0  0  0  0  0
  -27.2189  -28.5853   20.7145 C   0  0  0  0  0  0
  -26.0178  -26.8443   19.5291 C   0  0  0  0  0  0
  -24.8587  -27.6466   19.5170 C   0  0  0  0  0  0
  -23.6438  -29.8096   20.1593 C   0  0  0  0  0  0
  -25.4132  -36.3067   24.0328 C   0  0  1  0  0  0
  -20.5899  -28.3697   23.1288 C   0  0  2  0  0  0
  -20.6813  -26.9423   22.5414 C   0  0  0  0  0  0
  -19.5785  -26.6378   21.5224 C   0  0  0  0  0  0
  -18.1957  -26.7939   22.1616 C   0  0  0  0  0  0
  -19.1552  -28.8855   23.2888 C   0  0  0  0  0  0
  -18.9457  -30.1460   23.8908 C   0  0  0  0  0  0
  -17.6451  -30.6580   24.0567 C   0  0  0  0  0  0
  -25.9067  -34.9447   23.5077 C   0  0  0  0  0  0
  -16.5350  -29.9071   23.6325 C   0  0  0  0  0  0
  -16.7292  -28.6498   23.0329 C   0  0  0  0  0  0
  -26.4507  -31.6583   25.0697 C   0  0  0  0  0  0
  -25.3743  -31.3711   26.1415 C   0  0  0  0  0  0
  -27.0342  -30.3007   24.6155 C   0  0  0  0  0  0
  -27.6066  -32.4319   25.7476 C   0  0  0  0  0  0
  -27.5593  -37.1787   24.8458 C   0  0  0  0  0  0
  -21.4195  -29.3047   22.3676 N   0  0  0  0  0  0
  -26.4304  -37.3771   23.9405 N   0  0  0  0  0  0
  -24.6929  -31.0544   22.0951 N   0  0  0  0  0  0
  -23.4204  -28.8131   23.2991 O   0  0  0  0  0  0
  -28.3319  -26.4240   20.0919 O   0  0  0  0  0  0
  -26.5596  -34.8918   22.4628 O   0  0  0  0  0  0
  -23.5447  -32.1362   23.7308 O   0  0  0  0  0  0
  -31.2987  -18.9612   18.7960 C   0  0  0  0  0  0
  -31.1083  -17.6699   19.3236 C   0  0  0  0  0  0
  -29.1319  -18.4823   20.4557 C   0  0  0  0  0  0
  -30.4270  -20.0326   19.0832 C   0  0  0  0  0  0
  -30.0116  -17.3484   20.1596 C   0  0  0  0  0  0
  -29.3304  -19.8488   19.9669 C   0  0  0  0  0  0
  -30.6669  -21.3406   18.3471 C   0  0  0  0  0  0
  -28.2444  -23.6583   19.9218 C   0  0  0  0  0  0
  -28.2988  -25.0664   20.7230 C   0  0  0  0  0  0
  -28.8081  -22.3065   20.6364 C   0  0  0  0  0  0
  -29.8103  -15.9266   20.6074 N   0  0  0  0  0  0
  -28.4156  -20.9238   20.2057 O   0  0  0  0  0  0
  -31.4645  -12.5950   19.1865 H   0  0  0  0  0  0
  -30.3717  -11.4963   19.9771 H   0  0  0  0  0  0
  -29.7875  -11.7435   17.5353 H   0  0  0  0  0  0
  -29.6430  -13.4736   17.7293 H   0  0  0  0  0  0
  -27.8986  -11.2964   18.9181 H   0  0  0  0  0  0
  -27.3806  -12.5432   17.8125 H   0  0  0  0  0  0
  -27.6255  -14.2634   19.4856 H   0  0  0  0  0  0
  -28.7293  -12.1915   21.4446 H   0  0  0  0  0  0
  -28.4162  -13.8745   21.8035 H   0  0  0  0  0  0
  -25.2759   -9.5644   22.4840 H   0  0  0  0  0  0
  -23.9964   -7.4642   22.7490 H   0  0  0  0  0  0
  -21.0848   -8.8846   19.8992 H   0  0  0  0  0  0
  -22.3745  -10.9730   19.6206 H   0  0  0  0  0  0
  -21.2055   -7.6178   23.9729 H   0  0  0  0  0  0
  -21.1481   -6.0560   25.9102 H   0  0  0  0  0  0
  -22.0568   -2.7612   23.2845 H   0  0  0  0  0  0
  -22.4009  -12.0113   22.4979 H   0  0  0  0  0  0
  -21.0990  -13.1390   22.2391 H   0  0  0  0  0  0
  -24.6293  -15.8345   20.4954 H   0  0  0  0  0  0
  -26.2463  -15.6382   20.0466 H   0  0  0  0  0  0
  -26.7186  -32.5410   23.1055 H   0  0  0  0  0  0
  -25.0258  -33.9747   25.0499 H   0  0  0  0  0  0
  -22.7183  -31.3001   21.3950 H   0  0  0  0  0  0
  -23.3808  -35.9551   23.3277 H   0  0  0  0  0  0
  -24.3586  -36.8891   22.2047 H   0  0  0  0  0  0
  -23.7226  -37.6444   23.6657 H   0  0  0  0  0  0
  -26.1036  -31.5324   20.6048 H   0  0  0  0  0  0
  -26.8475  -30.8212   22.0065 H   0  0  0  0  0  0
  -28.1219  -28.9472   21.1856 H   0  0  0  0  0  0
  -25.9794  -25.8709   19.0599 H   0  0  0  0  0  0
  -23.9564  -27.2722   19.0519 H   0  0  0  0  0  0
  -23.7799  -30.5851   19.4051 H   0  0  0  0  0  0
  -22.7600  -29.2515   19.8476 H   0  0  0  0  0  0
  -25.1326  -36.1910   25.0827 H   0  0  0  0  0  0
  -21.0007  -28.3281   24.1402 H   0  0  0  0  0  0
  -20.5746  -26.2307   23.3609 H   0  0  0  0  0  0
  -21.6681  -26.7470   22.1185 H   0  0  0  0  0  0
  -19.6954  -25.6277   21.1274 H   0  0  0  0  0  0
  -19.6741  -27.3180   20.6744 H   0  0  0  0  0  0
  -17.4246  -26.6704   21.3998 H   0  0  0  0  0  0
  -18.0327  -26.0064   22.8989 H   0  0  0  0  0  0
  -19.7925  -30.7282   24.2281 H   0  0  0  0  0  0
  -17.4990  -31.6263   24.5174 H   0  0  0  0  0  0
  -15.5340  -30.2964   23.7634 H   0  0  0  0  0  0
  -15.8706  -28.0821   22.7004 H   0  0  0  0  0  0
  -24.5937  -30.7054   25.7716 H   0  0  0  0  0  0
  -24.8924  -32.2879   26.4830 H   0  0  0  0  0  0
  -25.8075  -30.8880   27.0184 H   0  0  0  0  0  0
  -26.2893  -29.6752   24.1231 H   0  0  0  0  0  0
  -27.4086  -29.7276   25.4643 H   0  0  0  0  0  0
  -27.8750  -30.4287   23.9337 H   0  0  0  0  0  0
  -27.2686  -33.3628   26.2043 H   0  0  0  0  0  0
  -28.3897  -32.6866   25.0321 H   0  0  0  0  0  0
  -28.0713  -31.8445   26.5406 H   0  0  0  0  0  0
  -28.2592  -38.0103   24.7542 H   0  0  0  0  0  0
  -28.1116  -36.2637   24.6256 H   0  0  0  0  0  0
  -27.2301  -37.1397   25.8855 H   0  0  0  0  0  0
  -20.9361  -29.8783   21.6902 H   0  0  0  0  0  0
  -26.0183  -38.2840   24.1431 H   0  0  0  0  0  0
  -32.1311  -19.1205   18.1230 H   0  0  0  0  0  0
  -31.8252  -16.9254   19.0222 H   0  0  0  0  0  0
  -28.2579  -18.3045   21.0677 H   0  0  0  0  0  0
  -31.1444  -21.1662   17.3816 H   0  0  0  0  0  0
  -31.3153  -22.0019   18.9244 H   0  0  0  0  0  0
  -29.7291  -21.8489   18.1326 H   0  0  0  0  0  0
  -28.7766  -23.7946   18.9810 H   0  0  0  0  0  0
  -27.2048  -23.4843   19.6423 H   0  0  0  0  0  0
  -29.2287  -25.0378   21.2908 H   0  0  0  0  0  0
  -27.5211  -25.0620   21.4873 H   0  0  0  0  0  0
  -28.4664  -22.3564   21.6706 H   0  0  0  0  0  0
  -29.8904  -22.3789   20.7187 H   0  0  0  0  0  0
  -28.9024  -15.7326   21.0055 H   0  0  0  0  0  0
  1 25  1  0  0  0
  1 30  2  0  0  0
  1 81  1  0  0  0
  2  3  1  0  0  0
  2 25  1  0  0  0
  2 83  1  0  0  0
  2 84  1  0  0  0
  3  4  1  0  0  0
  3 85  1  0  0  0
  3 86  1  0  0  0
  4  5  1  0  0  0
  4 87  1  0  0  0
  4 88  1  0  0  0
  5  6  1  0  0  0
  5 26  1  0  0  0
  5 89  1  0  0  0
  6 25  1  0  0  0
  6 90  1  0  0  0
  6 91  1  0  0  0
  7  8  2  0  0  0
  7 26  1  0  0  0
  7 29  1  0  0  0
  8  9  1  0  0  0
  8 22  1  0  0  0
  9 10  1  0  0  0
  9 27  2  0  0  0
 10 11  2  0  0  0
 10 15  1  0  0  0
 11 12  1  0  0  0
 11 92  1  0  0  0
 12 13  2  0  0  0
 12 93  1  0  0  0
 13 14  1  0  0  0
 13 31  1  0  0  0
 14 15  2  0  0  0
 14 94  1  0  0  0
 15 95  1  0  0  0
 16 17  2  0  0  0
 16 21  1  0  0  0
 16 31  1  0  0  0
 17 18  1  0  0  0
 17 96  1  0  0  0
 18 19  2  0  0  0
 18 97  1  0  0  0
 19 20  1  0  0  0
 19 24  1  0  0  0
 20 21  2  0  0  0
 20 98  1  0  0  0
 21 23  1  0  0  0
 22 28  1  0  0  0
 22 32  2  0  0  0
 26 27  1  0  0  0
 28 99  1  0  0  0
 28100  1  0  0  0
 29101  1  0  0  0
 29102  1  0  0  0
 33 34  1  0  0  0
 33 66  1  0  0  0
 33 70  2  0  0  0
 34 36  1  0  0  0
 34 59  1  0  0  0
 34103  1  0  0  0
 35 44  2  0  0  0
 35 45  1  0  0  0
 35 68  1  0  0  0
 36 56  1  0  0  0
 36104  1  0  0  0
 37 39  1  0  0  0
 37 47  1  0  0  0
 37 66  1  0  0  0
 37105  1  0  0  0
 38 43  2  0  0  0
 38 46  1  0  0  0
 38 47  1  0  0  0
 39 64  1  0  0  0
 39 67  2  0  0  0
 40 52  1  0  0  0
 40 53  2  0  0  0
 40 58  1  0  0  0
 41106  1  0  0  0
 41107  1  0  0  0
 41108  1  0  0  0
 41 48  1  0  0  0
 42 43  1  0  0  0
 42 66  1  0  0  0
 42109  1  0  0  0
 42110  1  0  0  0
 43 44  1  0  0  0
 44111  1  0  0  0
 45 46  2  0  0  0
 45112  1  0  0  0
 46113  1  0  0  0
 47114  1  0  0  0
 47115  1  0  0  0
 48 56  1  0  0  0
 48 65  1  0  0  0
 48116  1  0  0  0
 49 50  1  0  0  0
 49 53  1  0  0  0
 49 64  1  0  0  0
 49117  1  0  0  0
 50 51  1  0  0  0
 50118  1  0  0  0
 50119  1  0  0  0
 51 52  1  0  0  0
 51120  1  0  0  0
 51121  1  0  0  0
 52122  1  0  0  0
 52123  1  0  0  0
 53 54  1  0  0  0
 54 55  2  0  0  0
 54124  1  0  0  0
 55 57  1  0  0  0
 55125  1  0  0  0
 56 69  2  0  0  0
 57 58  2  0  0  0
 57126  1  0  0  0
 58127  1  0  0  0
 59 60  1  0  0  0
 59 61  1  0  0  0
 59 62  1  0  0  0
 60128  1  0  0  0
 60129  1  0  0  0
 60130  1  0  0  0
 61131  1  0  0  0
 61132  1  0  0  0
 61133  1  0  0  0
 62134  1  0  0  0
 62135  1  0  0  0
 62136  1  0  0  0
 63 65  1  0  0  0
 63137  1  0  0  0
 63138  1  0  0  0
 63139  1  0  0  0
 64140  1  0  0  0
 65141  1  0  0  0
 68 79  1  0  0  0
 71 72  2  0  0  0
 71 74  1  0  0  0
 71142  1  0  0  0
 72 75  1  0  0  0
 72143  1  0  0  0
 73 75  2  0  0  0
 73 76  1  0  0  0
 73144  1  0  0  0
 74 76  2  0  0  0
 74 77  1  0  0  0
 75 81  1  0  0  0
 76 82  1  0  0  0
 77145  1  0  0  0
 77146  1  0  0  0
 77147  1  0  0  0
 78 79  1  0  0  0
 78 80  1  0  0  0
 78148  1  0  0  0
 78149  1  0  0  0
 79150  1  0  0  0
 79151  1  0  0  0
 80 82  1  0  0  0
 80152  1  0  0  0
 80153  1  0  0  0
 81154  1  0  0  0
M  ISO  4   1 100  68 101  79 101  81 100
M  END
> <chiral flag>
0

> <version>
0

> <s_m_source_file>
/data/baiqing/PycharmProjects/Reinvent-master-3.2/result/LINK_invent/BTK/process_docking_weight1_custom_product_contain_oxygen_bond_distance_aromatic_linkinvent_7_9_3/rearranged_h_0064.sdf

> <i_m_source_file_index>
25

> <r_mmod_Potential_Energy-OPLS-2005>
225.999237060547

> <r_mmod_Stretch_Energy-OPLS-2005>
132.753463745117

> <r_mmod_Bend_Energy-OPLS-2005>
185.521499633789

> <r_mmod_Torsional_Energy-OPLS-2005>
261.193298339844

> <r_mmod_Improper_Torsional_Energy-OPLS-2005>
5.2060546875

> <r_mmod_Van_der_Waal_Energy-OPLS-2005>
141.03271484375

> <r_mmod_Electrostatic_Energy-OPLS-2005>
-377.237335205078

> <r_mmod_Solvation_Energy-OPLS-2005>
-208.229736328125

> <b_mmod_Minimization_Converged-OPLS-2005>
0

> <r_mmod_RMS_Derivative-OPLS-2005>
3.86527681350708

$$$$
25
                    3D
 Structure written by MMmdl.
154162  0  0  1  0            999 V2000
  -30.5941  -14.7575   20.4041 C   0  0  0  0  0  0
  -30.4288  -12.4512   19.4754 C   0  0  0  0  0  0
  -29.5117  -12.5080   18.2340 C   0  0  0  0  0  0
  -28.0365  -12.3297   18.6447 C   0  0  0  0  0  0
  -27.6389  -13.2325   19.8439 C   0  0  2  0  0  0
  -28.6830  -13.1768   20.9805 C   0  0  0  0  0  0
  -25.2510  -13.8196   20.5678 C   0  0  0  0  0  0
  -24.1802  -13.0442   20.9196 C   0  0  0  0  0  0
  -24.6391  -11.6919   20.8733 C   0  0  0  0  0  0
  -23.9068  -10.4297   21.0387 C   0  0  0  0  0  0
  -24.3623   -9.4224   21.9166 C   0  0  0  0  0  0
  -23.6304   -8.2259   22.0743 C   0  0  0  0  0  0
  -22.4291   -8.0282   21.3535 C   0  0  0  0  0  0
  -21.9919   -9.0250   20.4638 C   0  0  0  0  0  0
  -22.7239  -10.2130   20.3044 C   0  0  0  0  0  0
  -21.6859   -6.0735   22.5273 C   0  0  0  0  0  0
  -21.4021   -6.5631   23.8204 C   0  0  0  0  0  0
  -21.3672   -5.6787   24.9166 C   0  0  0  0  0  0
  -21.6049   -4.3049   24.7212 C   0  0  0  0  0  0
  -21.8825   -3.8141   23.4336 C   0  0  0  0  0  0
  -21.9194   -4.6962   22.3396 C   0  0  0  0  0  0
  -22.7824  -13.5222   21.1839 C   0  0  0  0  0  0
  -22.1657   -4.2147   21.0974 F   0  0  0  0  0  0
  -21.5637   -3.4532   25.7730 F   0  0  0  0  0  0
  -29.9836  -13.5225   20.3964 N   0  0  0  0  0  0
  -26.2926  -12.9398   20.3241 N   0  0  0  0  0  0
  -25.9321  -11.6541   20.5730 N   0  0  0  0  0  0
  -22.0470  -12.8233   22.0412 N   0  0  0  0  0  0
  -25.4209  -15.1922   20.4114 N   0  0  0  0  0  0
  -31.8005  -14.8307   20.1615 O   0  0  0  0  0  0
  -21.6653   -6.8881   21.4239 O   0  0  0  0  0  0
  -22.3522  -14.5524   20.6672 O   0  0  0  0  0  0
  -24.6315  -31.8536   23.1935 C   0  0  0  0  0  0
  -25.9131  -32.4749   23.8299 C   0  0  1  0  0  0
  -27.2254  -27.2584   20.1359 C   0  0  0  0  0  0
  -25.5914  -33.8553   24.2222 N   0  0  0  0  0  0
  -23.4294  -30.4704   21.5391 C   0  0  2  0  0  0
  -24.8759  -28.9047   20.1203 C   0  0  0  0  0  0
  -22.7510  -29.4580   22.4936 C   0  0  0  0  0  0
  -18.0286  -28.1378   22.8479 C   0  0  0  0  0  0
  -24.1488  -36.7296   23.2640 C   0  0  0  0  0  0
  -25.9729  -30.7679   21.3687 C   0  0  0  0  0  0
  -26.0482  -29.3849   20.7200 C   0  0  0  0  0  0
  -27.2299  -28.5759   20.7073 C   0  0  0  0  0  0
  -26.0282  -26.8301   19.5306 C   0  0  0  0  0  0
  -24.8699  -27.6354   19.5161 C   0  0  0  0  0  0
  -23.6469  -29.7939   20.1592 C   0  0  0  0  0  0
  -25.4119  -36.3077   24.0316 C   0  0  1  0  0  0
  -20.5888  -28.3682   23.1279 C   0  0  2  0  0  0
  -20.6769  -26.9400   22.5412 C   0  0  0  0  0  0
  -19.5749  -26.6373   21.5212 C   0  0  0  0  0  0
  -18.1930  -26.7915   22.1621 C   0  0  0  0  0  0
  -19.1539  -28.8850   23.2868 C   0  0  0  0  0  0
  -18.9460  -30.1455   23.8879 C   0  0  0  0  0  0
  -17.6456  -30.6574   24.0558 C   0  0  0  0  0  0
  -25.9062  -34.9445   23.5081 C   0  0  0  0  0  0
  -16.5348  -29.9072   23.6318 C   0  0  0  0  0  0
  -16.7272  -28.6495   23.0332 C   0  0  0  0  0  0
  -26.4474  -31.6582   25.0699 C   0  0  0  0  0  0
  -25.3680  -31.3756   26.1411 C   0  0  0  0  0  0
  -27.0307  -30.2990   24.6186 C   0  0  0  0  0  0
  -27.6022  -32.4322   25.7487 C   0  0  0  0  0  0
  -27.5582  -37.1800   24.8455 C   0  0  0  0  0  0
  -21.4214  -29.3028   22.3679 N   0  0  0  0  0  0
  -26.4291  -37.3779   23.9406 N   0  0  0  0  0  0
  -24.6977  -31.0492   22.0910 N   0  0  0  0  0  0
  -23.4212  -28.8137   23.3045 O   0  0  0  0  0  0
  -28.3446  -26.4027   20.0878 O   0  0  0  0  0  0
  -26.5660  -34.8926   22.4666 O   0  0  0  0  0  0
  -23.5454  -32.1361   23.7218 O   0  0  0  0  0  0
  -30.3137  -19.8434   18.6654 C   0  0  0  0  0  0
  -29.3387  -18.4879   20.4336 C   0  0  0  0  0  0
  -30.8852  -18.6752   18.1198 C   0  0  0  0  0  0
  -29.4946  -19.8053   19.8155 C   0  0  0  0  0  0
  -29.9713  -17.2646   19.9343 C   0  0  0  0  0  0
  -30.7044  -17.4137   18.7270 C   0  0  0  0  0  0
  -29.1469  -22.3960   20.0280 C   0  0  0  0  0  0
  -31.6629  -18.7664   16.8182 C   0  0  0  0  0  0
  -28.0933  -23.6103   19.9510 C   0  0  0  0  0  0
  -28.3188  -25.0325   20.7111 C   0  0  0  0  0  0
  -28.7763  -21.0600   20.1912 N   0  0  0  0  0  0
  -29.8025  -15.8979   20.5242 N   0  0  0  0  0  0
  -30.3393  -22.6900   19.9275 O   0  0  0  0  0  0
  -31.1944  -16.3326   18.0744 F   0  0  0  0  0  0
  -31.4717  -12.5689   19.1764 H   0  0  0  0  0  0
  -30.3620  -11.4765   19.9613 H   0  0  0  0  0  0
  -29.7971  -11.7403   17.5136 H   0  0  0  0  0  0
  -29.6393  -13.4655   17.7255 H   0  0  0  0  0  0
  -27.8952  -11.2808   18.9082 H   0  0  0  0  0  0
  -27.3816  -12.5177   17.7922 H   0  0  0  0  0  0
  -27.6283  -14.2519   19.4589 H   0  0  0  0  0  0
  -28.7182  -12.1843   21.4321 H   0  0  0  0  0  0
  -28.4191  -13.8707   21.7805 H   0  0  0  0  0  0
  -25.2758   -9.5708   22.4741 H   0  0  0  0  0  0
  -24.0007   -7.4662   22.7470 H   0  0  0  0  0  0
  -21.0841   -8.8768   19.8955 H   0  0  0  0  0  0
  -22.3676  -10.9670   19.6161 H   0  0  0  0  0  0
  -21.2010   -7.6140   23.9707 H   0  0  0  0  0  0
  -21.1491   -6.0510   25.9066 H   0  0  0  0  0  0
  -22.0592   -2.7604   23.2831 H   0  0  0  0  0  0
  -22.4073  -11.9912   22.4857 H   0  0  0  0  0  0
  -21.1072  -13.1256   22.2557 H   0  0  0  0  0  0
  -24.6555  -15.8463   20.5295 H   0  0  0  0  0  0
  -26.2656  -15.6347   20.0731 H   0  0  0  0  0  0
  -26.7218  -32.5390   23.1060 H   0  0  0  0  0  0
  -24.9990  -33.9689   25.0316 H   0  0  0  0  0  0
  -22.7242  -31.2905   21.3871 H   0  0  0  0  0  0
  -23.3752  -35.9625   23.3283 H   0  0  0  0  0  0
  -24.3579  -36.8944   22.2059 H   0  0  0  0  0  0
  -23.7236  -37.6486   23.6685 H   0  0  0  0  0  0
  -26.1026  -31.5231   20.5915 H   0  0  0  0  0  0
  -26.8547  -30.8258   21.9965 H   0  0  0  0  0  0
  -28.1374  -28.9476   21.1624 H   0  0  0  0  0  0
  -25.9906  -25.8546   19.0665 H   0  0  0  0  0  0
  -23.9710  -27.2608   19.0466 H   0  0  0  0  0  0
  -23.7716  -30.5634   19.3959 H   0  0  0  0  0  0
  -22.7650  -29.2242   19.8606 H   0  0  0  0  0  0
  -25.1301  -36.1916   25.0806 H   0  0  0  0  0  0
  -20.9972  -28.3251   24.1404 H   0  0  0  0  0  0
  -20.5655  -26.2294   23.3618 H   0  0  0  0  0  0
  -21.6640  -26.7410   22.1213 H   0  0  0  0  0  0
  -19.6909  -25.6287   21.1239 H   0  0  0  0  0  0
  -19.6683  -27.3185   20.6745 H   0  0  0  0  0  0
  -17.4198  -26.6658   21.4022 H   0  0  0  0  0  0
  -18.0324  -26.0054   22.9016 H   0  0  0  0  0  0
  -19.7939  -30.7281   24.2227 H   0  0  0  0  0  0
  -17.5007  -31.6247   24.5170 H   0  0  0  0  0  0
  -15.5346  -30.2969   23.7646 H   0  0  0  0  0  0
  -15.8676  -28.0824   22.7027 H   0  0  0  0  0  0
  -24.5833  -30.7132   25.7738 H   0  0  0  0  0  0
  -24.8891  -32.2935   26.4831 H   0  0  0  0  0  0
  -25.7963  -30.8925   27.0200 H   0  0  0  0  0  0
  -26.2886  -29.6755   24.1182 H   0  0  0  0  0  0
  -27.3946  -29.7235   25.4710 H   0  0  0  0  0  0
  -27.8779  -30.4251   23.9443 H   0  0  0  0  0  0
  -27.2613  -33.3615   26.2066 H   0  0  0  0  0  0
  -28.3833  -32.6897   25.0322 H   0  0  0  0  0  0
  -28.0685  -31.8447   26.5404 H   0  0  0  0  0  0
  -28.2587  -38.0112   24.7522 H   0  0  0  0  0  0
  -28.1090  -36.2642   24.6247 H   0  0  0  0  0  0
  -27.2306  -37.1408   25.8861 H   0  0  0  0  0  0
  -20.9415  -29.8750   21.6876 H   0  0  0  0  0  0
  -26.0163  -38.2849   24.1414 H   0  0  0  0  0  0
  -30.4592  -20.7755   18.1378 H   0  0  0  0  0  0
  -28.7074  -18.4119   21.3068 H   0  0  0  0  0  0
  -31.9357  -19.7945   16.5793 H   0  0  0  0  0  0
  -31.0626  -18.3747   15.9963 H   0  0  0  0  0  0
  -32.5808  -18.1803   16.8713 H   0  0  0  0  0  0
  -27.1302  -23.2104   20.2682 H   0  0  0  0  0  0
  -27.9667  -23.8248   18.8891 H   0  0  0  0  0  0
  -29.2730  -24.9523   21.2317 H   0  0  0  0  0  0
  -27.5897  -25.0763   21.5210 H   0  0  0  0  0  0
  -27.8197  -20.9260   20.4946 H   0  0  0  0  0  0
  -28.9013  -15.7256   20.9413 H   0  0  0  0  0  0
  1 25  1  0  0  0
  1 30  2  0  0  0
  1 82  1  0  0  0
  2  3  1  0  0  0
  2 25  1  0  0  0
  2 85  1  0  0  0
  2 86  1  0  0  0
  3  4  1  0  0  0
  3 87  1  0  0  0
  3 88  1  0  0  0
  4  5  1  0  0  0
  4 89  1  0  0  0
  4 90  1  0  0  0
  5  6  1  0  0  0
  5 26  1  0  0  0
  5 91  1  0  0  0
  6 25  1  0  0  0
  6 92  1  0  0  0
  6 93  1  0  0  0
  7  8  2  0  0  0
  7 26  1  0  0  0
  7 29  1  0  0  0
  8  9  1  0  0  0
  8 22  1  0  0  0
  9 10  1  0  0  0
  9 27  2  0  0  0
 10 11  2  0  0  0
 10 15  1  0  0  0
 11 12  1  0  0  0
 11 94  1  0  0  0
 12 13  2  0  0  0
 12 95  1  0  0  0
 13 14  1  0  0  0
 13 31  1  0  0  0
 14 15  2  0  0  0
 14 96  1  0  0  0
 15 97  1  0  0  0
 16 17  2  0  0  0
 16 21  1  0  0  0
 16 31  1  0  0  0
 17 18  1  0  0  0
 17 98  1  0  0  0
 18 19  2  0  0  0
 18 99  1  0  0  0
 19 20  1  0  0  0
 19 24  1  0  0  0
 20 21  2  0  0  0
 20100  1  0  0  0
 21 23  1  0  0  0
 22 28  1  0  0  0
 22 32  2  0  0  0
 26 27  1  0  0  0
 28101  1  0  0  0
 28102  1  0  0  0
 29103  1  0  0  0
 29104  1  0  0  0
 33 34  1  0  0  0
 33 66  1  0  0  0
 33 70  2  0  0  0
 34 36  1  0  0  0
 34 59  1  0  0  0
 34105  1  0  0  0
 35 44  2  0  0  0
 35 45  1  0  0  0
 35 68  1  0  0  0
 36 56  1  0  0  0
 36106  1  0  0  0
 37 39  1  0  0  0
 37 47  1  0  0  0
 37 66  1  0  0  0
 37107  1  0  0  0
 38 43  2  0  0  0
 38 46  1  0  0  0
 38 47  1  0  0  0
 39 64  1  0  0  0
 39 67  2  0  0  0
 40 52  1  0  0  0
 40 53  2  0  0  0
 40 58  1  0  0  0
 41108  1  0  0  0
 41109  1  0  0  0
 41110  1  0  0  0
 41 48  1  0  0  0
 42 43  1  0  0  0
 42 66  1  0  0  0
 42111  1  0  0  0
 42112  1  0  0  0
 43 44  1  0  0  0
 44113  1  0  0  0
 45 46  2  0  0  0
 45114  1  0  0  0
 46115  1  0  0  0
 47116  1  0  0  0
 47117  1  0  0  0
 48 56  1  0  0  0
 48 65  1  0  0  0
 48118  1  0  0  0
 49 50  1  0  0  0
 49 53  1  0  0  0
 49 64  1  0  0  0
 49119  1  0  0  0
 50 51  1  0  0  0
 50120  1  0  0  0
 50121  1  0  0  0
 51 52  1  0  0  0
 51122  1  0  0  0
 51123  1  0  0  0
 52124  1  0  0  0
 52125  1  0  0  0
 53 54  1  0  0  0
 54 55  2  0  0  0
 54126  1  0  0  0
 55 57  1  0  0  0
 55127  1  0  0  0
 56 69  2  0  0  0
 57 58  2  0  0  0
 57128  1  0  0  0
 58129  1  0  0  0
 59 60  1  0  0  0
 59 61  1  0  0  0
 59 62  1  0  0  0
 60130  1  0  0  0
 60131  1  0  0  0
 60132  1  0  0  0
 61133  1  0  0  0
 61134  1  0  0  0
 61135  1  0  0  0
 62136  1  0  0  0
 62137  1  0  0  0
 62138  1  0  0  0
 63 65  1  0  0  0
 63139  1  0  0  0
 63140  1  0  0  0
 63141  1  0  0  0
 64142  1  0  0  0
 65143  1  0  0  0
 68 80  1  0  0  0
 71 73  2  0  0  0
 71 74  1  0  0  0
 71144  1  0  0  0
 72 74  2  0  0  0
 72 75  1  0  0  0
 72145  1  0  0  0
 73 76  1  0  0  0
 73 78  1  0  0  0
 74 81  1  0  0  0
 75 76  2  0  0  0
 75 82  1  0  0  0
 76 84  1  0  0  0
 77 79  1  0  0  0
 77 81  1  0  0  0
 77 83  2  0  0  0
 78146  1  0  0  0
 78147  1  0  0  0
 78148  1  0  0  0
 79 80  1  0  0  0
 79149  1  0  0  0
 79150  1  0  0  0
 80151  1  0  0  0
 80152  1  0  0  0
 81153  1  0  0  0
 82154  1  0  0  0
M  ISO  4   1 100  68 101  80 101  82 100
M  END
> <chiral flag>
0

> <version>
0

> <s_m_source_file>
/data/baiqing/PycharmProjects/Reinvent-master-3.2/result/LINK_invent/BTK/process_docking_weight1_custom_product_contain_oxygen_bond_distance_aromatic_linkinvent_7_9_3/rearranged_h_0064.sdf

> <i_m_source_file_index>
26

> <r_mmod_Potential_Energy-OPLS-2005>
165.605773925781

> <r_mmod_Stretch_Energy-OPLS-2005>
133.341674804688

> <r_mmod_Bend_Energy-OPLS-2005>
175.83122253418

> <r_mmod_Torsional_Energy-OPLS-2005>
278.616516113281

> <r_mmod_Improper_Torsional_Energy-OPLS-2005>
5.32285261154175

> <r_mmod_Van_der_Waal_Energy-OPLS-2005>
138.793899536133

> <r_mmod_Electrostatic_Energy-OPLS-2005>
-407.368865966797

> <r_mmod_Solvation_Energy-OPLS-2005>
-245.394317626953

> <b_mmod_Minimization_Converged-OPLS-2005>
0

> <r_mmod_RMS_Derivative-OPLS-2005>
1.94581651687622

$$$$
26
                    3D
 Structure written by MMmdl.
164172  0  0  1  0            999 V2000
  -30.6830  -14.4578   20.6096 C   0  0  0  0  0  0
  -30.4326  -12.3108   19.4097 C   0  0  0  0  0  0
  -29.4959  -12.5202   18.2008 C   0  0  0  0  0  0
  -28.0162  -12.3779   18.6123 C   0  0  0  0  0  0
  -27.6665  -13.1999   19.8815 C   0  0  2  0  0  0
  -28.7061  -12.9390   20.9945 C   0  0  0  0  0  0
  -25.2608  -13.8144   20.5671 C   0  0  0  0  0  0
  -24.1848  -13.0435   20.9161 C   0  0  0  0  0  0
  -24.6388  -11.6898   20.8724 C   0  0  0  0  0  0
  -23.9052  -10.4290   21.0402 C   0  0  0  0  0  0
  -24.3605   -9.4206   21.9179 C   0  0  0  0  0  0
  -23.6285   -8.2239   22.0754 C   0  0  0  0  0  0
  -22.4268   -8.0272   21.3545 C   0  0  0  0  0  0
  -21.9899   -9.0246   20.4648 C   0  0  0  0  0  0
  -22.7226  -10.2125   20.3050 C   0  0  0  0  0  0
  -21.6850   -6.0729   22.5278 C   0  0  0  0  0  0
  -21.4009   -6.5636   23.8210 C   0  0  0  0  0  0
  -21.3656   -5.6788   24.9174 C   0  0  0  0  0  0
  -21.6041   -4.3050   24.7225 C   0  0  0  0  0  0
  -21.8823   -3.8141   23.4346 C   0  0  0  0  0  0
  -21.9194   -4.6957   22.3401 C   0  0  0  0  0  0
  -22.7875  -13.5241   21.1824 C   0  0  0  0  0  0
  -22.1663   -4.2146   21.0978 F   0  0  0  0  0  0
  -21.5627   -3.4527   25.7733 F   0  0  0  0  0  0
  -30.0419  -13.2652   20.4586 N   0  0  0  0  0  0
  -26.3043  -12.9305   20.3374 N   0  0  0  0  0  0
  -25.9314  -11.6472   20.5761 N   0  0  0  0  0  0
  -22.0503  -12.8239   22.0377 N   0  0  0  0  0  0
  -25.4352  -15.1863   20.4099 N   0  0  0  0  0  0
  -31.7683  -14.7102   20.0760 O   0  0  0  0  0  0
  -21.6636   -6.8866   21.4238 O   0  0  0  0  0  0
  -22.3572  -14.5558   20.6685 O   0  0  0  0  0  0
  -24.6138  -31.8673   23.2086 C   0  0  0  0  0  0
  -25.9028  -32.4823   23.8383 C   0  0  1  0  0  0
  -27.2414  -27.4380   20.0976 C   0  0  0  0  0  0
  -25.5888  -33.8620   24.2322 N   0  0  0  0  0  0
  -23.4029  -30.4879   21.5492 C   0  0  2  0  0  0
  -24.8526  -28.9474   20.1206 C   0  0  0  0  0  0
  -22.7405  -29.4646   22.4987 C   0  0  0  0  0  0
  -18.0261  -28.1372   22.8488 C   0  0  0  0  0  0
  -24.1475  -36.7300   23.2628 C   0  0  0  0  0  0
  -25.9309  -30.8326   21.3614 C   0  0  0  0  0  0
  -26.0116  -29.4643   20.7145 C   0  0  0  0  0  0
  -27.2118  -28.7169   20.6994 C   0  0  0  0  0  0
  -26.0683  -26.9283   19.5074 C   0  0  0  0  0  0
  -24.8748  -27.6773   19.5155 C   0  0  0  0  0  0
  -23.6138  -29.8146   20.1661 C   0  0  0  0  0  0
  -25.4090  -36.3112   24.0344 C   0  0  1  0  0  0
  -20.5852  -28.3651   23.1324 C   0  0  2  0  0  0
  -20.6742  -26.9390   22.5416 C   0  0  0  0  0  0
  -19.5735  -26.6383   21.5201 C   0  0  0  0  0  0
  -18.1911  -26.7923   22.1612 C   0  0  0  0  0  0
  -19.1513  -28.8828   23.2903 C   0  0  0  0  0  0
  -18.9447  -30.1435   23.8909 C   0  0  0  0  0  0
  -17.6454  -30.6587   24.0554 C   0  0  0  0  0  0
  -25.9031  -34.9483   23.5134 C   0  0  0  0  0  0
  -16.5341  -29.9089   23.6326 C   0  0  0  0  0  0
  -16.7253  -28.6499   23.0355 C   0  0  0  0  0  0
  -26.4463  -31.6603   25.0711 C   0  0  0  0  0  0
  -25.3745  -31.3726   26.1479 C   0  0  0  0  0  0
  -27.0271  -30.3039   24.6075 C   0  0  0  0  0  0
  -27.6055  -32.4310   25.7461 C   0  0  0  0  0  0
  -27.5606  -37.1763   24.8431 C   0  0  0  0  0  0
  -21.4129  -29.3027   22.3741 N   0  0  0  0  0  0
  -26.4257  -37.3825   23.9469 N   0  0  0  0  0  0
  -24.6675  -31.0768   22.0986 N   0  0  0  0  0  0
  -23.4180  -28.8182   23.3021 O   0  0  0  0  0  0
  -28.4039  -26.7057   20.0322 O   0  0  0  0  0  0
  -26.5598  -34.8940   22.4697 O   0  0  0  0  0  0
  -23.5331  -32.1415   23.7485 O   0  0  0  0  0  0
  -29.4006  -18.8379   22.5558 C   0  0  0  0  0  0
  -29.4139  -17.4300   22.4578 C   0  0  0  0  0  0
  -30.6833  -17.5838   20.3941 C   0  0  0  0  0  0
  -30.0312  -19.6416   21.5778 C   0  0  0  0  0  0
  -30.0697  -16.7805   21.3899 C   0  0  0  0  0  0
  -30.6626  -18.9976   20.4841 C   0  0  0  0  0  0
  -30.0854  -21.1069   21.7753 C   0  0  0  0  0  0
  -28.7937  -24.2847   20.3706 C   0  0  0  0  0  0
  -31.3073  -23.3776   18.6015 C   0  0  0  0  0  0
  -32.5933  -23.3987   20.7733 C   0  0  0  0  0  0
  -28.5296  -25.6658   21.0141 C   0  0  0  0  0  0
  -30.0342  -23.4922   20.8656 C   0  0  2  0  0  0
  -31.3126  -23.8725   20.0637 C   0  0  0  0  0  0
  -30.0114  -15.3511   21.3610 N   0  0  0  0  0  0
  -29.8376  -22.0131   20.8038 N   0  0  0  0  0  0
  -30.4156  -21.5656   22.9870 N   0  3  0  0  0  0
  -28.0311  -23.8386   19.5072 O   0  0  0  0  0  0
  -31.2774  -19.7283   19.5221 F   0  0  0  0  0  0
  -31.4748  -12.4301   19.1068 H   0  0  0  0  0  0
  -30.3484  -11.2899   19.7848 H   0  0  0  0  0  0
  -29.7338  -11.8047   17.4125 H   0  0  0  0  0  0
  -29.6630  -13.5100   17.7726 H   0  0  0  0  0  0
  -27.8209  -11.3203   18.7927 H   0  0  0  0  0  0
  -27.3658  -12.6681   17.7862 H   0  0  0  0  0  0
  -27.7239  -14.2540   19.6097 H   0  0  0  0  0  0
  -28.6824  -11.8886   21.2892 H   0  0  0  0  0  0
  -28.4533  -13.4898   21.9011 H   0  0  0  0  0  0
  -25.2757   -9.5672   22.4751 H   0  0  0  0  0  0
  -23.9988   -7.4629   22.7474 H   0  0  0  0  0  0
  -21.0827   -8.8766   19.8959 H   0  0  0  0  0  0
  -22.3692  -10.9657   19.6146 H   0  0  0  0  0  0
  -21.2001   -7.6146   23.9706 H   0  0  0  0  0  0
  -21.1471   -6.0521   25.9076 H   0  0  0  0  0  0
  -22.0606   -2.7601   23.2845 H   0  0  0  0  0  0
  -22.4095  -11.9882   22.4748 H   0  0  0  0  0  0
  -21.1126  -13.1280   22.2579 H   0  0  0  0  0  0
  -24.6710  -15.8441   20.5211 H   0  0  0  0  0  0
  -26.2932  -15.6252   20.0996 H   0  0  0  0  0  0
  -26.7098  -32.5544   23.1148 H   0  0  0  0  0  0
  -25.0047  -33.9772   25.0475 H   0  0  0  0  0  0
  -22.6924  -31.3048   21.4074 H   0  0  0  0  0  0
  -23.3790  -35.9576   23.3198 H   0  0  0  0  0  0
  -24.3607  -36.9004   22.2065 H   0  0  0  0  0  0
  -23.7137  -37.6442   23.6687 H   0  0  0  0  0  0
  -26.0398  -31.5975   20.5913 H   0  0  0  0  0  0
  -26.8199  -30.8894   21.9776 H   0  0  0  0  0  0
  -28.1115  -29.1185   21.1446 H   0  0  0  0  0  0
  -26.0844  -25.9562   19.0341 H   0  0  0  0  0  0
  -23.9841  -27.2734   19.0537 H   0  0  0  0  0  0
  -23.7222  -30.5866   19.4034 H   0  0  0  0  0  0
  -22.7392  -29.2311   19.8721 H   0  0  0  0  0  0
  -25.1248  -36.1951   25.0831 H   0  0  0  0  0  0
  -20.9944  -28.3197   24.1446 H   0  0  0  0  0  0
  -20.5625  -26.2256   23.3595 H   0  0  0  0  0  0
  -21.6616  -26.7424   22.1220 H   0  0  0  0  0  0
  -19.6894  -25.6300   21.1218 H   0  0  0  0  0  0
  -19.6688  -27.3195   20.6735 H   0  0  0  0  0  0
  -17.4187  -26.6676   21.4010 H   0  0  0  0  0  0
  -18.0321  -26.0059   22.9004 H   0  0  0  0  0  0
  -19.7923  -30.7233   24.2297 H   0  0  0  0  0  0
  -17.5017  -31.6270   24.5151 H   0  0  0  0  0  0
  -15.5346  -30.2996   23.7656 H   0  0  0  0  0  0
  -15.8648  -28.0825   22.7083 H   0  0  0  0  0  0
  -24.5856  -30.7147   25.7816 H   0  0  0  0  0  0
  -24.9013  -32.2901   26.4992 H   0  0  0  0  0  0
  -25.8102  -30.8822   27.0194 H   0  0  0  0  0  0
  -26.2792  -29.6813   24.1150 H   0  0  0  0  0  0
  -27.4060  -29.7265   25.4518 H   0  0  0  0  0  0
  -27.8628  -30.4349   23.9196 H   0  0  0  0  0  0
  -27.2696  -33.3624   26.2031 H   0  0  0  0  0  0
  -28.3867  -32.6842   25.0282 H   0  0  0  0  0  0
  -28.0713  -31.8427   26.5377 H   0  0  0  0  0  0
  -28.2486  -38.0198   24.7717 H   0  0  0  0  0  0
  -28.1236  -36.2754   24.5934 H   0  0  0  0  0  0
  -27.2379  -37.1020   25.8831 H   0  0  0  0  0  0
  -20.9283  -29.8769   21.6984 H   0  0  0  0  0  0
  -26.0136  -38.2866   24.1626 H   0  0  0  0  0  0
  -28.9072  -19.2984   23.4001 H   0  0  0  0  0  0
  -28.9222  -16.8511   23.2277 H   0  0  0  0  0  0
  -31.1776  -17.1343   19.5464 H   0  0  0  0  0  0
  -32.1898  -23.7328   18.0684 H   0  0  0  0  0  0
  -30.4386  -23.7390   18.0506 H   0  0  0  0  0  0
  -31.3114  -22.2888   18.5368 H   0  0  0  0  0  0
  -33.4822  -23.7581   20.2539 H   0  0  0  0  0  0
  -32.6599  -22.3108   20.8142 H   0  0  0  0  0  0
  -32.6435  -23.7753   21.7951 H   0  0  0  0  0  0
  -29.3557  -25.9167   21.6801 H   0  0  0  0  0  0
  -27.6339  -25.5965   21.6331 H   0  0  0  0  0  0
  -30.1910  -23.7909   21.9022 H   0  0  0  0  0  0
  -31.3678  -24.9624   20.0305 H   0  0  0  0  0  0
  -29.2517  -14.9433   21.8816 H   0  0  0  0  0  0
  -29.4753  -21.6574   19.9276 H   0  0  0  0  0  0
  -30.6718  -20.9131   23.7118 H   0  0  0  0  0  0
  -30.4763  -22.5498   23.1779 H   0  0  0  0  0  0
  1 25  1  0  0  0
  1 30  2  0  0  0
  1 84  1  0  0  0
  2  3  1  0  0  0
  2 25  1  0  0  0
  2 89  1  0  0  0
  2 90  1  0  0  0
  3  4  1  0  0  0
  3 91  1  0  0  0
  3 92  1  0  0  0
  4  5  1  0  0  0
  4 93  1  0  0  0
  4 94  1  0  0  0
  5  6  1  0  0  0
  5 26  1  0  0  0
  5 95  1  0  0  0
  6 25  1  0  0  0
  6 96  1  0  0  0
  6 97  1  0  0  0
  7  8  2  0  0  0
  7 26  1  0  0  0
  7 29  1  0  0  0
  8  9  1  0  0  0
  8 22  1  0  0  0
  9 10  1  0  0  0
  9 27  2  0  0  0
 10 11  2  0  0  0
 10 15  1  0  0  0
 11 12  1  0  0  0
 11 98  1  0  0  0
 12 13  2  0  0  0
 12 99  1  0  0  0
 13 14  1  0  0  0
 13 31  1  0  0  0
 14 15  2  0  0  0
 14100  1  0  0  0
 15101  1  0  0  0
 16 17  2  0  0  0
 16 21  1  0  0  0
 16 31  1  0  0  0
 17 18  1  0  0  0
 17102  1  0  0  0
 18 19  2  0  0  0
 18103  1  0  0  0
 19 20  1  0  0  0
 19 24  1  0  0  0
 20 21  2  0  0  0
 20104  1  0  0  0
 21 23  1  0  0  0
 22 28  1  0  0  0
 22 32  2  0  0  0
 26 27  1  0  0  0
 28105  1  0  0  0
 28106  1  0  0  0
 29107  1  0  0  0
 29108  1  0  0  0
 33 34  1  0  0  0
 33 66  1  0  0  0
 33 70  2  0  0  0
 34 36  1  0  0  0
 34 59  1  0  0  0
 34109  1  0  0  0
 35 44  2  0  0  0
 35 45  1  0  0  0
 35 68  1  0  0  0
 36 56  1  0  0  0
 36110  1  0  0  0
 37 39  1  0  0  0
 37 47  1  0  0  0
 37 66  1  0  0  0
 37111  1  0  0  0
 38 43  2  0  0  0
 38 46  1  0  0  0
 38 47  1  0  0  0
 39 64  1  0  0  0
 39 67  2  0  0  0
 40 52  1  0  0  0
 40 53  2  0  0  0
 40 58  1  0  0  0
 41112  1  0  0  0
 41113  1  0  0  0
 41114  1  0  0  0
 41 48  1  0  0  0
 42 43  1  0  0  0
 42 66  1  0  0  0
 42115  1  0  0  0
 42116  1  0  0  0
 43 44  1  0  0  0
 44117  1  0  0  0
 45 46  2  0  0  0
 45118  1  0  0  0
 46119  1  0  0  0
 47120  1  0  0  0
 47121  1  0  0  0
 48 56  1  0  0  0
 48 65  1  0  0  0
 48122  1  0  0  0
 49 50  1  0  0  0
 49 53  1  0  0  0
 49 64  1  0  0  0
 49123  1  0  0  0
 50 51  1  0  0  0
 50124  1  0  0  0
 50125  1  0  0  0
 51 52  1  0  0  0
 51126  1  0  0  0
 51127  1  0  0  0
 52128  1  0  0  0
 52129  1  0  0  0
 53 54  1  0  0  0
 54 55  2  0  0  0
 54130  1  0  0  0
 55 57  1  0  0  0
 55131  1  0  0  0
 56 69  2  0  0  0
 57 58  2  0  0  0
 57132  1  0  0  0
 58133  1  0  0  0
 59 60  1  0  0  0
 59 61  1  0  0  0
 59 62  1  0  0  0
 60134  1  0  0  0
 60135  1  0  0  0
 60136  1  0  0  0
 61137  1  0  0  0
 61138  1  0  0  0
 61139  1  0  0  0
 62140  1  0  0  0
 62141  1  0  0  0
 62142  1  0  0  0
 63 65  1  0  0  0
 63143  1  0  0  0
 63144  1  0  0  0
 63145  1  0  0  0
 64146  1  0  0  0
 65147  1  0  0  0
 68 81  1  0  0  0
 71 72  2  0  0  0
 71 74  1  0  0  0
 71148  1  0  0  0
 72 75  1  0  0  0
 72149  1  0  0  0
 73 75  2  0  0  0
 73 76  1  0  0  0
 73150  1  0  0  0
 74 76  2  0  0  0
 74 77  1  0  0  0
 75 84  1  0  0  0
 76 88  1  0  0  0
 77 85  1  0  0  0
 77 86  2  0  0  0
 78 81  1  0  0  0
 78 82  1  0  0  0
 78 87  2  0  0  0
 79151  1  0  0  0
 79152  1  0  0  0
 79153  1  0  0  0
 79 83  1  0  0  0
 80 83  1  0  0  0
 80154  1  0  0  0
 80155  1  0  0  0
 80156  1  0  0  0
 81157  1  0  0  0
 81158  1  0  0  0
 82 83  1  0  0  0
 82 85  1  0  0  0
 82159  1  0  0  0
 83160  1  0  0  0
 84161  1  0  0  0
 85162  1  0  0  0
 86163  1  0  0  0
 86164  1  0  0  0
M  CHG  1  86   1
M  ISO  4   1 100  68 101  81 101  84 100
M  END
> <chiral flag>
0

> <version>
0

> <s_m_source_file>
/data/baiqing/PycharmProjects/Reinvent-master-3.2/result/LINK_invent/BTK/process_docking_weight1_custom_product_contain_oxygen_bond_distance_aromatic_linkinvent_7_9_3/rearranged_h_0064.sdf

> <i_m_source_file_index>
27

> <r_mmod_Potential_Energy-OPLS-2005>
-234.40461730957

> <r_mmod_Stretch_Energy-OPLS-2005>
40.7724075317383

> <r_mmod_Bend_Energy-OPLS-2005>
102.625846862793

> <r_mmod_Torsional_Energy-OPLS-2005>
256.568511962891

> <r_mmod_Improper_Torsional_Energy-OPLS-2005>
2.79193544387817

> <r_mmod_Van_der_Waal_Energy-OPLS-2005>
148.903747558594

> <r_mmod_Electrostatic_Energy-OPLS-2005>
-359.028015136719

> <r_mmod_Solvation_Energy-OPLS-2005>
-437.152160644531

> <b_mmod_Minimization_Converged-OPLS-2005>
0

> <r_mmod_RMS_Derivative-OPLS-2005>
1.18397867679596

$$$$
27
                    3D
 Structure written by MMmdl.
156164  0  0  1  0            999 V2000
  -31.5328  -14.6469   19.9417 C   0  0  0  0  0  0
  -30.4563  -12.2785   20.0357 C   0  0  0  0  0  0
  -29.0613  -11.7381   18.9857 C   0  0  0  0  0  0
  -27.5774  -12.5869   18.4141 C   0  0  0  0  0  0
  -27.0086  -14.2101   19.1664 C   0  0  2  0  0  0
  -29.7840  -15.0362   21.0737 C   0  0  0  0  0  0
  -24.8637  -14.0596   20.4799 C   0  0  0  0  0  0
  -23.9974  -13.1319   20.9439 C   0  0  0  0  0  0
  -24.5817  -11.8374   20.8083 C   0  0  0  0  0  0
  -23.9395  -10.4966   20.9942 C   0  0  0  0  0  0
  -24.3968   -9.4959   21.8883 C   0  0  0  0  0  0
  -23.6680   -8.2873   22.0650 C   0  0  0  0  0  0
  -22.4646   -8.0602   21.3518 C   0  0  0  0  0  0
  -22.0221   -9.0478   20.4560 C   0  0  0  0  0  0
  -22.7470  -10.2405   20.2786 C   0  0  0  0  0  0
  -21.7111   -6.0902   22.5245 C   0  0  0  0  0  0
  -21.4218   -6.5769   23.8178 C   0  0  0  0  0  0
  -21.3705   -5.6879   24.9117 C   0  0  0  0  0  0
  -21.6028   -4.3125   24.7176 C   0  0  0  0  0  0
  -21.8818   -3.8247   23.4287 C   0  0  0  0  0  0
  -21.9287   -4.7094   22.3366 C   0  0  0  0  0  0
  -22.6033  -13.4946   21.2687 C   0  0  0  0  0  0
  -22.1730   -4.2266   21.0937 F   0  0  0  0  0  0
  -21.5552   -3.4583   25.7667 F   0  0  0  0  0  0
  -30.8162  -13.7907   20.7381 N   0  0  0  0  0  0
  -25.8738  -13.4054   19.9144 N   0  0  0  0  0  0
  -25.8068  -12.0340   20.3016 N   0  0  0  0  0  0
  -21.9557  -12.7432   22.1384 N   0  0  0  0  0  0
  -24.8449  -15.4383   20.3776 N   0  0  0  0  0  0
  -32.7132  -14.7212   20.0972 O   0  0  0  0  0  0
  -21.7069   -6.9118   21.4230 O   0  0  0  0  0  0
  -22.1037  -14.4956   20.7599 O   0  0  0  0  0  0
  -24.6860  -31.7978   23.1543 C   0  0  0  0  0  0
  -25.9448  -32.4426   23.8067 C   0  0  1  0  0  0
  -27.0236  -26.5989   20.2455 C   0  0  0  0  0  0
  -25.6033  -33.8266   24.1946 N   0  0  0  0  0  0
  -23.4996  -30.4156   21.5104 C   0  0  2  0  0  0
  -24.9231  -28.7580   20.0969 C   0  0  0  0  0  0
  -22.7727  -29.4336   22.4692 C   0  0  0  0  0  0
  -18.0336  -28.1421   22.8461 C   0  0  0  0  0  0
  -24.1507  -36.7129   23.2655 C   0  0  0  0  0  0
  -26.0812  -30.4959   21.4311 C   0  0  0  0  0  0
  -26.1082  -29.0579   20.7751 C   0  0  0  0  0  0
  -27.1558  -27.9964   20.8253 C   0  0  0  0  0  0
  -25.8612  -26.5495   19.4554 C   0  0  0  0  0  0
  -24.8470  -27.5415   19.4045 C   0  0  0  0  0  0
  -23.7431  -29.7378   20.1337 C   0  0  0  0  0  0
  -25.4157  -36.2873   24.0286 C   0  0  1  0  0  0
  -20.5963  -28.3772   23.1137 C   0  0  2  0  0  0
  -20.6804  -26.9435   22.5394 C   0  0  0  0  0  0
  -19.5781  -26.6378   21.5208 C   0  0  0  0  0  0
  -18.1962  -26.7950   22.1622 C   0  0  0  0  0  0
  -19.1601  -28.8921   23.2784 C   0  0  0  0  0  0
  -18.9511  -30.1502   23.8832 C   0  0  0  0  0  0
  -17.6504  -30.6601   24.0548 C   0  0  0  0  0  0
  -25.9141  -34.9258   23.4946 C   0  0  0  0  0  0
  -16.5388  -29.9088   23.6350 C   0  0  0  0  0  0
  -16.7316  -28.6511   23.0364 C   0  0  0  0  0  0
  -26.4623  -31.6474   25.0700 C   0  0  0  0  0  0
  -25.3680  -31.3792   26.1306 C   0  0  0  0  0  0
  -27.0563  -30.2807   24.6638 C   0  0  0  0  0  0
  -27.6073  -32.4343   25.7500 C   0  0  0  0  0  0
  -27.5565  -37.1727   24.8475 C   0  0  0  0  0  0
  -21.4389  -29.3028   22.3448 N   0  0  0  0  0  0
  -26.4276  -37.3638   23.9410 N   0  0  0  0  0  0
  -24.7816  -30.9400   22.0825 N   0  0  0  0  0  0
  -23.4190  -28.7911   23.2994 O   0  0  0  0  0  0
  -27.8021  -25.2652   20.4169 O   0  0  0  0  0  0
  -26.5768  -34.8840   22.4562 O   0  0  0  0  0  0
  -23.5892  -32.1100   23.6494 O   0  0  0  0  0  0
  -28.2131  -13.6210   20.8337 C   0  0  0  0  0  0
  -27.4912  -15.2263   21.2735 C   0  0  0  0  0  0
  -29.1783  -14.1891   19.1149 C   0  0  0  0  0  0
  -27.7860  -16.7249   20.5149 C   0  0  0  0  0  0
  -29.4347  -15.5402   18.7221 C   0  0  0  0  0  0
  -28.6811  -16.6842   19.3097 C   0  0  0  0  0  0
  -27.3726  -18.4528   20.8548 C   0  0  0  0  0  0
  -26.8439  -21.8812   22.1850 C   0  0  0  0  0  0
  -27.5450  -23.5325   20.0348 C   0  0  0  0  0  0
  -27.2678  -21.7034   20.7245 C   0  0  1  0  0  0
  -26.4544  -18.5009   21.8128 N   0  0  0  0  0  0
  -30.9040  -15.4492   18.9335 N   0  0  0  0  0  0
  -27.6869  -19.9506   20.4243 N   0  3  0  0  0  0
  -29.0333  -17.8820   18.7812 F   0  0  0  0  0  0
  -31.3618  -11.9856   19.5012 H   0  0  0  0  0  0
  -30.4494  -11.5970   20.8869 H   0  0  0  0  0  0
  -28.6759  -10.8586   19.5048 H   0  0  0  0  0  0
  -29.5049  -11.2965   18.0921 H   0  0  0  0  0  0
  -26.7926  -11.8732   18.1646 H   0  0  0  0  0  0
  -27.8180  -12.8636   17.3843 H   0  0  0  0  0  0
  -26.6154  -14.9176   18.4326 H   0  0  0  0  0  0
  -29.6911  -14.8944   22.1649 H   0  0  0  0  0  0
  -30.1532  -16.0747   21.1608 H   0  0  0  0  0  0
  -25.3018   -9.6668   22.4564 H   0  0  0  0  0  0
  -24.0470   -7.5429   22.7497 H   0  0  0  0  0  0
  -21.1139   -8.8895   19.8922 H   0  0  0  0  0  0
  -22.3654  -10.9853   19.5937 H   0  0  0  0  0  0
  -21.2312   -7.6293   23.9697 H   0  0  0  0  0  0
  -21.1466   -6.0618   25.9013 H   0  0  0  0  0  0
  -22.0516   -2.7700   23.2742 H   0  0  0  0  0  0
  -22.3935  -11.9338   22.5502 H   0  0  0  0  0  0
  -21.0045  -12.9746   22.3890 H   0  0  0  0  0  0
  -23.9662  -15.9174   20.5482 H   0  0  0  0  0  0
  -25.4592  -15.9490   19.7590 H   0  0  0  0  0  0
  -26.7508  -32.4849   23.0747 H   0  0  0  0  0  0
  -25.0118  -33.9309   25.0059 H   0  0  0  0  0  0
  -22.8268  -31.2579   21.3379 H   0  0  0  0  0  0
  -23.3784  -35.9441   23.3278 H   0  0  0  0  0  0
  -24.3567  -36.8828   22.2074 H   0  0  0  0  0  0
  -23.7249  -37.6292   23.6760 H   0  0  0  0  0  0
  -26.3043  -31.2146   20.6408 H   0  0  0  0  0  0
  -26.9303  -30.5475   22.0992 H   0  0  0  0  0  0
  -28.0344  -28.2014   21.4236 H   0  0  0  0  0  0
  -25.6543  -25.6313   18.9234 H   0  0  0  0  0  0
  -23.9540  -27.3213   18.8372 H   0  0  0  0  0  0
  -23.9355  -30.5063   19.3858 H   0  0  0  0  0  0
  -22.8359  -29.2314   19.8007 H   0  0  0  0  0  0
  -25.1368  -36.1633   25.0777 H   0  0  0  0  0  0
  -21.0065  -28.3408   24.1252 H   0  0  0  0  0  0
  -20.5677  -26.2395   23.3652 H   0  0  0  0  0  0
  -21.6662  -26.7389   22.1193 H   0  0  0  0  0  0
  -19.6929  -25.6274   21.1272 H   0  0  0  0  0  0
  -19.6714  -27.3156   20.6713 H   0  0  0  0  0  0
  -17.4221  -26.6681   21.4028 H   0  0  0  0  0  0
  -18.0357  -26.0106   22.9041 H   0  0  0  0  0  0
  -19.7982  -30.7337   24.2166 H   0  0  0  0  0  0
  -17.5050  -31.6274   24.5166 H   0  0  0  0  0  0
  -15.5381  -30.2969   23.7715 H   0  0  0  0  0  0
  -15.8716  -28.0808   22.7120 H   0  0  0  0  0  0
  -24.5883  -30.7133   25.7587 H   0  0  0  0  0  0
  -24.8857  -32.3012   26.4564 H   0  0  0  0  0  0
  -25.7846  -30.9043   27.0197 H   0  0  0  0  0  0
  -26.3284  -29.6381   24.1676 H   0  0  0  0  0  0
  -27.3995  -29.7302   25.5406 H   0  0  0  0  0  0
  -27.9269  -30.3912   24.0167 H   0  0  0  0  0  0
  -27.2611  -33.3695   26.1915 H   0  0  0  0  0  0
  -28.3950  -32.6828   25.0371 H   0  0  0  0  0  0
  -28.0681  -31.8592   26.5543 H   0  0  0  0  0  0
  -28.2565  -38.0038   24.7503 H   0  0  0  0  0  0
  -28.1083  -36.2558   24.6338 H   0  0  0  0  0  0
  -27.2274  -37.1395   25.8877 H   0  0  0  0  0  0
  -20.9667  -29.8712   21.6552 H   0  0  0  0  0  0
  -26.0101  -38.2691   24.1404 H   0  0  0  0  0  0
  -28.0799  -12.6517   21.2966 H   0  0  0  0  0  0
  -26.8749  -15.2566   22.1585 H   0  0  0  0  0  0
  -29.7252  -13.6699   18.3291 H   0  0  0  0  0  0
  -25.8972  -22.4221   22.2339 H   0  0  0  0  0  0
  -27.5815  -22.4632   22.7353 H   0  0  0  0  0  0
  -26.7030  -20.9384   22.7069 H   0  0  0  0  0  0
  -28.2831  -23.3833   19.2470 H   0  0  0  0  0  0
  -26.6201  -23.6475   19.4691 H   0  0  0  0  0  0
  -26.3017  -21.5693   20.2322 H   0  0  0  0  0  0
  -26.0822  -19.3771   22.1351 H   0  0  0  0  0  0
  -26.0834  -17.6339   22.1762 H   0  0  0  0  0  0
  -31.4868  -16.1123   18.4436 H   0  0  0  0  0  0
  -28.3518  -19.9057   19.6567 H   0  0  0  0  0  0
  1 25  1  0  0  0
  1 30  2  0  0  0
  1 82  1  0  0  0
  2  3  1  0  0  0
  2 25  1  0  0  0
  2 85  1  0  0  0
  2 86  1  0  0  0
  3  4  1  0  0  0
  3 87  1  0  0  0
  3 88  1  0  0  0
  4  5  1  0  0  0
  4 89  1  0  0  0
  4 90  1  0  0  0
  5  6  1  0  0  0
  5 26  1  0  0  0
  5 91  1  0  0  0
  6 25  1  0  0  0
  6 92  1  0  0  0
  6 93  1  0  0  0
  7  8  2  0  0  0
  7 26  1  0  0  0
  7 29  1  0  0  0
  8  9  1  0  0  0
  8 22  1  0  0  0
  9 10  1  0  0  0
  9 27  2  0  0  0
 10 11  2  0  0  0
 10 15  1  0  0  0
 11 12  1  0  0  0
 11 94  1  0  0  0
 12 13  2  0  0  0
 12 95  1  0  0  0
 13 14  1  0  0  0
 13 31  1  0  0  0
 14 15  2  0  0  0
 14 96  1  0  0  0
 15 97  1  0  0  0
 16 17  2  0  0  0
 16 21  1  0  0  0
 16 31  1  0  0  0
 17 18  1  0  0  0
 17 98  1  0  0  0
 18 19  2  0  0  0
 18 99  1  0  0  0
 19 20  1  0  0  0
 19 24  1  0  0  0
 20 21  2  0  0  0
 20100  1  0  0  0
 21 23  1  0  0  0
 22 28  1  0  0  0
 22 32  2  0  0  0
 26 27  1  0  0  0
 28101  1  0  0  0
 28102  1  0  0  0
 29103  1  0  0  0
 29104  1  0  0  0
 33 34  1  0  0  0
 33 66  1  0  0  0
 33 70  2  0  0  0
 34 36  1  0  0  0
 34 59  1  0  0  0
 34105  1  0  0  0
 35 44  2  0  0  0
 35 45  1  0  0  0
 35 68  1  0  0  0
 36 56  1  0  0  0
 36106  1  0  0  0
 37 39  1  0  0  0
 37 47  1  0  0  0
 37 66  1  0  0  0
 37107  1  0  0  0
 38 43  2  0  0  0
 38 46  1  0  0  0
 38 47  1  0  0  0
 39 64  1  0  0  0
 39 67  2  0  0  0
 40 52  1  0  0  0
 40 53  2  0  0  0
 40 58  1  0  0  0
 41108  1  0  0  0
 41109  1  0  0  0
 41110  1  0  0  0
 41 48  1  0  0  0
 42 43  1  0  0  0
 42 66  1  0  0  0
 42111  1  0  0  0
 42112  1  0  0  0
 43 44  1  0  0  0
 44113  1  0  0  0
 45 46  2  0  0  0
 45114  1  0  0  0
 46115  1  0  0  0
 47116  1  0  0  0
 47117  1  0  0  0
 48 56  1  0  0  0
 48 65  1  0  0  0
 48118  1  0  0  0
 49 50  1  0  0  0
 49 53  1  0  0  0
 49 64  1  0  0  0
 49119  1  0  0  0
 50 51  1  0  0  0
 50120  1  0  0  0
 50121  1  0  0  0
 51 52  1  0  0  0
 51122  1  0  0  0
 51123  1  0  0  0
 52124  1  0  0  0
 52125  1  0  0  0
 53 54  1  0  0  0
 54 55  2  0  0  0
 54126  1  0  0  0
 55 57  1  0  0  0
 55127  1  0  0  0
 56 69  2  0  0  0
 57 58  2  0  0  0
 57128  1  0  0  0
 58129  1  0  0  0
 59 60  1  0  0  0
 59 61  1  0  0  0
 59 62  1  0  0  0
 60130  1  0  0  0
 60131  1  0  0  0
 60132  1  0  0  0
 61133  1  0  0  0
 61134  1  0  0  0
 61135  1  0  0  0
 62136  1  0  0  0
 62137  1  0  0  0
 62138  1  0  0  0
 63 65  1  0  0  0
 63139  1  0  0  0
 63140  1  0  0  0
 63141  1  0  0  0
 64142  1  0  0  0
 65143  1  0  0  0
 68 79  1  0  0  0
 71 72  2  0  0  0
 71 73  1  0  0  0
 71144  1  0  0  0
 72 74  1  0  0  0
 72145  1  0  0  0
 73 75  2  0  0  0
 73146  1  0  0  0
 74 76  2  0  0  0
 74 77  1  0  0  0
 75 76  1  0  0  0
 75 82  1  0  0  0
 76 84  1  0  0  0
 77 81  1  0  0  0
 77 83  2  0  0  0
 78147  1  0  0  0
 78148  1  0  0  0
 78149  1  0  0  0
 78 80  1  0  0  0
 79 80  1  0  0  0
 79150  1  0  0  0
 79151  1  0  0  0
 80 83  1  0  0  0
 80152  1  0  0  0
 81153  1  0  0  0
 81154  1  0  0  0
 82155  1  0  0  0
 83156  1  0  0  0
M  CHG  1  83   1
M  ISO  4   1 100  68 101  79 101  82 100
M  END
> <chiral flag>
0

> <version>
0

> <s_m_source_file>
/data/baiqing/PycharmProjects/Reinvent-master-3.2/result/LINK_invent/BTK/process_docking_weight1_custom_product_contain_oxygen_bond_distance_aromatic_linkinvent_7_9_3/rearranged_h_0064.sdf

> <i_m_source_file_index>
28

> <r_mmod_Potential_Energy-OPLS-2005>
12748.1171875

> <r_mmod_Stretch_Energy-OPLS-2005>
7220.72216796875

> <r_mmod_Bend_Energy-OPLS-2005>
1060.66882324219

> <r_mmod_Torsional_Energy-OPLS-2005>
468.37841796875

> <r_mmod_Improper_Torsional_Energy-OPLS-2005>
32.9116477966309

> <r_mmod_Van_der_Waal_Energy-OPLS-2005>
2853.6318359375

> <r_mmod_Electrostatic_Energy-OPLS-2005>
-422.067810058594

> <r_mmod_Solvation_Energy-OPLS-2005>
-412.908569335938

> <b_mmod_Minimization_Converged-OPLS-2005>
0

> <r_mmod_RMS_Derivative-OPLS-2005>
9.12940406799316

$$$$
28
                    3D
 Structure written by MMmdl.
163172  0  0  1  0            999 V2000
  -30.6118  -14.7208   20.4916 C   0  0  0  0  0  0
  -30.4303  -12.4396   19.4896 C   0  0  0  0  0  0
  -29.5126  -12.5299   18.2484 C   0  0  0  0  0  0
  -28.0334  -12.3596   18.6488 C   0  0  0  0  0  0
  -27.6474  -13.2264   19.8771 C   0  0  2  0  0  0
  -28.6901  -13.1278   21.0137 C   0  0  0  0  0  0
  -25.2510  -13.8193   20.5714 C   0  0  0  0  0  0
  -24.1785  -13.0445   20.9167 C   0  0  0  0  0  0
  -24.6371  -11.6919   20.8723 C   0  0  0  0  0  0
  -23.9068  -10.4298   21.0367 C   0  0  0  0  0  0
  -24.3624   -9.4223   21.9151 C   0  0  0  0  0  0
  -23.6284   -8.2258   22.0739 C   0  0  0  0  0  0
  -22.4265   -8.0302   21.3524 C   0  0  0  0  0  0
  -21.9901   -9.0274   20.4617 C   0  0  0  0  0  0
  -22.7240  -10.2144   20.3017 C   0  0  0  0  0  0
  -21.6855   -6.0743   22.5262 C   0  0  0  0  0  0
  -21.4023   -6.5634   23.8207 C   0  0  0  0  0  0
  -21.3664   -5.6785   24.9161 C   0  0  0  0  0  0
  -21.6043   -4.3053   24.7210 C   0  0  0  0  0  0
  -21.8815   -3.8149   23.4328 C   0  0  0  0  0  0
  -21.9186   -4.6964   22.3387 C   0  0  0  0  0  0
  -22.7818  -13.5233   21.1845 C   0  0  0  0  0  0
  -22.1632   -4.2149   21.0963 F   0  0  0  0  0  0
  -21.5648   -3.4540   25.7731 F   0  0  0  0  0  0
  -30.0009  -13.4850   20.4494 N   0  0  0  0  0  0
  -26.2943  -12.9382   20.3391 N   0  0  0  0  0  0
  -25.9308  -11.6533   20.5787 N   0  0  0  0  0  0
  -22.0477  -12.8197   22.0398 N   0  0  0  0  0  0
  -25.4249  -15.1919   20.4172 N   0  0  0  0  0  0
  -31.7566  -14.8571   20.0489 O   0  0  0  0  0  0
  -21.6629   -6.8893   21.4225 O   0  0  0  0  0  0
  -22.3490  -14.5562   20.6737 O   0  0  0  0  0  0
  -24.6332  -31.8545   23.2010 C   0  0  0  0  0  0
  -25.9132  -32.4769   23.8348 C   0  0  1  0  0  0
  -27.2053  -27.2394   20.1302 C   0  0  0  0  0  0
  -25.5908  -33.8576   24.2257 N   0  0  0  0  0  0
  -23.4288  -30.4820   21.5464 C   0  0  2  0  0  0
  -24.8721  -28.9333   20.1092 C   0  0  0  0  0  0
  -22.7488  -29.4618   22.4927 C   0  0  0  0  0  0
  -18.0292  -28.1409   22.8515 C   0  0  0  0  0  0
  -24.1481  -36.7291   23.2650 C   0  0  0  0  0  0
  -25.9780  -30.7579   21.3883 C   0  0  0  0  0  0
  -26.0444  -29.3806   20.7296 C   0  0  0  0  0  0
  -27.2085  -28.5439   20.7370 C   0  0  0  0  0  0
  -26.0182  -26.8901   19.4421 C   0  0  0  0  0  0
  -24.8661  -27.6956   19.4555 C   0  0  0  0  0  0
  -23.6436  -29.8219   20.1613 C   0  0  0  0  0  0
  -25.4121  -36.3088   24.0323 C   0  0  1  0  0  0
  -20.5894  -28.3720   23.1276 C   0  0  2  0  0  0
  -20.6779  -26.9430   22.5414 C   0  0  0  0  0  0
  -19.5740  -26.6392   21.5242 C   0  0  0  0  0  0
  -18.1919  -26.7952   22.1657 C   0  0  0  0  0  0
  -19.1540  -28.8888   23.2884 C   0  0  0  0  0  0
  -18.9460  -30.1491   23.8896 C   0  0  0  0  0  0
  -17.6458  -30.6613   24.0574 C   0  0  0  0  0  0
  -25.9049  -34.9453   23.5098 C   0  0  0  0  0  0
  -16.5353  -29.9105   23.6343 C   0  0  0  0  0  0
  -16.7282  -28.6517   23.0381 C   0  0  0  0  0  0
  -26.4491  -31.6621   25.0762 C   0  0  0  0  0  0
  -25.3676  -31.3765   26.1463 C   0  0  0  0  0  0
  -27.0387  -30.3052   24.6267 C   0  0  0  0  0  0
  -27.6041  -32.4396   25.7533 C   0  0  0  0  0  0
  -27.5583  -37.1796   24.8462 C   0  0  0  0  0  0
  -21.4198  -29.3058   22.3656 N   0  0  0  0  0  0
  -26.4300  -37.3778   23.9405 N   0  0  0  0  0  0
  -24.6999  -31.0485   22.1013 N   0  0  0  0  0  0
  -23.4188  -28.8154   23.3022 O   0  0  0  0  0  0
  -28.2884  -26.3239   20.2347 O   0  0  0  0  0  0
  -26.5608  -34.8928   22.4665 O   0  0  0  0  0  0
  -23.5480  -32.1417   23.7268 O   0  0  0  0  0  0
  -28.3818  -19.3200   18.9095 C   0  0  0  0  0  0
  -28.8522  -16.9202   19.0470 C   0  0  0  0  0  0
  -29.6977  -18.4398   20.7581 C   0  0  0  0  0  0
  -28.2378  -18.0097   18.4005 C   0  0  0  0  0  0
  -29.1277  -19.6045   20.0769 C   0  0  0  0  0  0
  -29.5590  -17.0734   20.2561 C   0  0  0  0  0  0
  -30.1182  -23.2349   20.8278 C   0  0  0  0  0  0
  -30.3458  -21.6831   20.8845 C   0  0  0  0  0  0
  -27.4266  -17.7624   17.1644 C   0  0  0  0  0  0
  -25.2635  -18.3591   16.2483 C   0  0  0  0  0  0
  -28.2394  -22.1196   20.0485 C   0  0  0  0  0  0
  -28.6398  -23.5476   20.6278 C   0  0  2  0  0  0
  -23.9942  -19.1199   16.6087 C   0  0  0  0  0  0
  -28.1670  -24.8734   19.8061 C   0  0  0  0  0  0
  -29.2300  -21.0514   20.4512 N   0  0  0  0  0  0
  -29.8995  -15.8131   20.9560 N   0  0  0  0  0  0
  -26.2267  -18.3617   17.1827 N   0  0  0  0  0  0
  -31.0004  -24.0941   20.9495 O   0  0  0  0  0  0
  -31.3941  -21.1501   21.2745 O   0  0  0  0  0  0
  -27.8648  -17.0238   16.2735 O   0  0  0  0  0  0
  -25.3333  -17.8008   15.1476 O   0  0  0  0  0  0
  -31.4737  -12.5529   19.1928 H   0  0  0  0  0  0
  -30.3640  -11.4534   19.9525 H   0  0  0  0  0  0
  -29.7961  -11.7744   17.5147 H   0  0  0  0  0  0
  -29.6536  -13.4965   17.7602 H   0  0  0  0  0  0
  -27.8633  -11.3064   18.8753 H   0  0  0  0  0  0
  -27.3896  -12.5981   17.8012 H   0  0  0  0  0  0
  -27.6475  -14.2567   19.5347 H   0  0  0  0  0  0
  -28.7166  -12.1175   21.4238 H   0  0  0  0  0  0
  -28.4200  -13.7791   21.8458 H   0  0  0  0  0  0
  -25.2764   -9.5720   22.4729 H   0  0  0  0  0  0
  -23.9982   -7.4646   22.7458 H   0  0  0  0  0  0
  -21.0837   -8.8820   19.8900 H   0  0  0  0  0  0
  -22.3696  -10.9699   19.6140 H   0  0  0  0  0  0
  -21.2017   -7.6136   23.9727 H   0  0  0  0  0  0
  -21.1495   -6.0500   25.9065 H   0  0  0  0  0  0
  -22.0591   -2.7611   23.2836 H   0  0  0  0  0  0
  -22.4118  -11.9815   22.4699 H   0  0  0  0  0  0
  -21.1110  -13.1217   22.2691 H   0  0  0  0  0  0
  -24.6716  -15.8559   20.5551 H   0  0  0  0  0  0
  -26.2992  -15.6336   20.1666 H   0  0  0  0  0  0
  -26.7192  -32.5398   23.1076 H   0  0  0  0  0  0
  -25.0061  -33.9704   25.0412 H   0  0  0  0  0  0
  -22.7280  -31.3071   21.4034 H   0  0  0  0  0  0
  -23.3762  -35.9594   23.3310 H   0  0  0  0  0  0
  -24.3562  -36.8921   22.2059 H   0  0  0  0  0  0
  -23.7198  -37.6476   23.6689 H   0  0  0  0  0  0
  -26.1174  -31.5126   20.6124 H   0  0  0  0  0  0
  -26.8550  -30.8086   22.0210 H   0  0  0  0  0  0
  -28.0975  -28.8707   21.2551 H   0  0  0  0  0  0
  -25.9173  -25.9765   18.8793 H   0  0  0  0  0  0
  -23.9743  -27.3528   18.9478 H   0  0  0  0  0  0
  -23.7608  -30.5993   19.4058 H   0  0  0  0  0  0
  -22.7585  -29.2563   19.8641 H   0  0  0  0  0  0
  -25.1291  -36.1960   25.0806 H   0  0  0  0  0  0
  -20.9997  -28.3321   24.1393 H   0  0  0  0  0  0
  -20.5737  -26.2322   23.3637 H   0  0  0  0  0  0
  -21.6637  -26.7468   22.1187 H   0  0  0  0  0  0
  -19.6884  -25.6305   21.1278 H   0  0  0  0  0  0
  -19.6662  -27.3195   20.6776 H   0  0  0  0  0  0
  -17.4182  -26.6757   21.4043 H   0  0  0  0  0  0
  -18.0255  -26.0095   22.9040 H   0  0  0  0  0  0
  -19.7932  -30.7315   24.2270 H   0  0  0  0  0  0
  -17.5009  -31.6296   24.5163 H   0  0  0  0  0  0
  -15.5354  -30.3004   23.7675 H   0  0  0  0  0  0
  -15.8690  -28.0834   22.7112 H   0  0  0  0  0  0
  -24.5863  -30.7104   25.7766 H   0  0  0  0  0  0
  -24.8846  -32.2927   26.4856 H   0  0  0  0  0  0
  -25.7956  -30.8958   27.0264 H   0  0  0  0  0  0
  -26.3015  -29.6770   24.1259 H   0  0  0  0  0  0
  -27.4045  -29.7344   25.4808 H   0  0  0  0  0  0
  -27.8874  -30.4361   23.9559 H   0  0  0  0  0  0
  -27.2642  -33.3728   26.2041 H   0  0  0  0  0  0
  -28.3871  -32.6913   25.0371 H   0  0  0  0  0  0
  -28.0677  -31.8570   26.5491 H   0  0  0  0  0  0
  -28.2588  -38.0116   24.7554 H   0  0  0  0  0  0
  -28.1098  -36.2638   24.6266 H   0  0  0  0  0  0
  -27.2278  -37.1411   25.8860 H   0  0  0  0  0  0
  -20.9391  -29.8787   21.6860 H   0  0  0  0  0  0
  -26.0190  -38.2848   24.1447 H   0  0  0  0  0  0
  -27.9221  -20.1253   18.3572 H   0  0  0  0  0  0
  -28.7160  -15.9353   18.6253 H   0  0  0  0  0  0
  -30.2289  -18.5946   21.6867 H   0  0  0  0  0  0
  -28.2126  -22.1916   18.9617 H   0  0  0  0  0  0
  -27.2374  -21.8352   20.3761 H   0  0  0  0  0  0
  -28.2258  -23.6271   21.6333 H   0  0  0  0  0  0
  -24.2343  -20.1116   16.9949 H   0  0  0  0  0  0
  -23.4293  -18.5740   17.3653 H   0  0  0  0  0  0
  -23.3569  -19.2489   15.7341 H   0  0  0  0  0  0
  -27.1176  -24.6298   19.6833 H   0  0  0  0  0  0
  -28.5849  -24.8145   18.8000 H   0  0  0  0  0  0
  -29.1576  -15.5109   21.5708 H   0  0  0  0  0  0
  -26.0247  -18.8677   18.0303 H   0  0  0  0  0  0
  1 25  1  0  0  0
  1 30  2  0  0  0
  1 86  1  0  0  0
  2  3  1  0  0  0
  2 25  1  0  0  0
  2 92  1  0  0  0
  2 93  1  0  0  0
  3  4  1  0  0  0
  3 94  1  0  0  0
  3 95  1  0  0  0
  4  5  1  0  0  0
  4 96  1  0  0  0
  4 97  1  0  0  0
  5  6  1  0  0  0
  5 26  1  0  0  0
  5 98  1  0  0  0
  6 25  1  0  0  0
  6 99  1  0  0  0
  6100  1  0  0  0
  7  8  2  0  0  0
  7 26  1  0  0  0
  7 29  1  0  0  0
  8  9  1  0  0  0
  8 22  1  0  0  0
  9 10  1  0  0  0
  9 27  2  0  0  0
 10 11  2  0  0  0
 10 15  1  0  0  0
 11 12  1  0  0  0
 11101  1  0  0  0
 12 13  2  0  0  0
 12102  1  0  0  0
 13 14  1  0  0  0
 13 31  1  0  0  0
 14 15  2  0  0  0
 14103  1  0  0  0
 15104  1  0  0  0
 16 17  2  0  0  0
 16 21  1  0  0  0
 16 31  1  0  0  0
 17 18  1  0  0  0
 17105  1  0  0  0
 18 19  2  0  0  0
 18106  1  0  0  0
 19 20  1  0  0  0
 19 24  1  0  0  0
 20 21  2  0  0  0
 20107  1  0  0  0
 21 23  1  0  0  0
 22 28  1  0  0  0
 22 32  2  0  0  0
 26 27  1  0  0  0
 28108  1  0  0  0
 28109  1  0  0  0
 29110  1  0  0  0
 29111  1  0  0  0
 33 34  1  0  0  0
 33 66  1  0  0  0
 33 70  2  0  0  0
 34 36  1  0  0  0
 34 59  1  0  0  0
 34112  1  0  0  0
 35 44  2  0  0  0
 35 45  1  0  0  0
 35 68  1  0  0  0
 36 56  1  0  0  0
 36113  1  0  0  0
 37 39  1  0  0  0
 37 47  1  0  0  0
 37 66  1  0  0  0
 37114  1  0  0  0
 38 43  2  0  0  0
 38 46  1  0  0  0
 38 47  1  0  0  0
 39 64  1  0  0  0
 39 67  2  0  0  0
 40 52  1  0  0  0
 40 53  2  0  0  0
 40 58  1  0  0  0
 41115  1  0  0  0
 41116  1  0  0  0
 41117  1  0  0  0
 41 48  1  0  0  0
 42 43  1  0  0  0
 42 66  1  0  0  0
 42118  1  0  0  0
 42119  1  0  0  0
 43 44  1  0  0  0
 44120  1  0  0  0
 45 46  2  0  0  0
 45121  1  0  0  0
 46122  1  0  0  0
 47123  1  0  0  0
 47124  1  0  0  0
 48 56  1  0  0  0
 48 65  1  0  0  0
 48125  1  0  0  0
 49 50  1  0  0  0
 49 53  1  0  0  0
 49 64  1  0  0  0
 49126  1  0  0  0
 50 51  1  0  0  0
 50127  1  0  0  0
 50128  1  0  0  0
 51 52  1  0  0  0
 51129  1  0  0  0
 51130  1  0  0  0
 52131  1  0  0  0
 52132  1  0  0  0
 53 54  1  0  0  0
 54 55  2  0  0  0
 54133  1  0  0  0
 55 57  1  0  0  0
 55134  1  0  0  0
 56 69  2  0  0  0
 57 58  2  0  0  0
 57135  1  0  0  0
 58136  1  0  0  0
 59 60  1  0  0  0
 59 61  1  0  0  0
 59 62  1  0  0  0
 60137  1  0  0  0
 60138  1  0  0  0
 60139  1  0  0  0
 61140  1  0  0  0
 61141  1  0  0  0
 61142  1  0  0  0
 62143  1  0  0  0
 62144  1  0  0  0
 62145  1  0  0  0
 63 65  1  0  0  0
 63146  1  0  0  0
 63147  1  0  0  0
 63148  1  0  0  0
 64149  1  0  0  0
 65150  1  0  0  0
 68 84  1  0  0  0
 71 74  2  0  0  0
 71 75  1  0  0  0
 71151  1  0  0  0
 72 74  1  0  0  0
 72 76  2  0  0  0
 72152  1  0  0  0
 73 75  2  0  0  0
 73 76  1  0  0  0
 73153  1  0  0  0
 74 79  1  0  0  0
 75 85  1  0  0  0
 76 86  1  0  0  0
 77 78  1  0  0  0
 77 82  1  0  0  0
 77 88  2  0  0  0
 78 85  1  0  0  0
 78 89  2  0  0  0
 79 87  1  0  0  0
 79 90  2  0  0  0
 80 83  1  0  0  0
 80 87  1  0  0  0
 80 91  2  0  0  0
 81 82  1  0  0  0
 81 85  1  0  0  0
 81154  1  0  0  0
 81155  1  0  0  0
 82 84  1  0  0  0
 82156  1  0  0  0
 83157  1  0  0  0
 83158  1  0  0  0
 83159  1  0  0  0
 84160  1  0  0  0
 84161  1  0  0  0
 86162  1  0  0  0
 87163  1  0  0  0
M  ISO  4   1 100  68 101  84 101  86 100
M  END
> <chiral flag>
0

> <version>
0

> <s_m_source_file>
/data/baiqing/PycharmProjects/Reinvent-master-3.2/result/LINK_invent/BTK/process_docking_weight1_custom_product_contain_oxygen_bond_distance_aromatic_linkinvent_7_9_3/rearranged_h_0064.sdf

> <i_m_source_file_index>
29

> <r_mmod_Potential_Energy-OPLS-2005>
135.691345214844

> <r_mmod_Stretch_Energy-OPLS-2005>
130.114654541016

> <r_mmod_Bend_Energy-OPLS-2005>
228.035934448242

> <r_mmod_Torsional_Energy-OPLS-2005>
295.169891357422

> <r_mmod_Improper_Torsional_Energy-OPLS-2005>
6.94470691680908

> <r_mmod_Van_der_Waal_Energy-OPLS-2005>
138.496231079102

> <r_mmod_Electrostatic_Energy-OPLS-2005>
-409.138977050781

> <r_mmod_Solvation_Energy-OPLS-2005>
-340.745544433594

> <b_mmod_Minimization_Converged-OPLS-2005>
0

> <r_mmod_RMS_Derivative-OPLS-2005>
3.24214386940002

$$$$
29
                    3D
 Structure written by MMmdl.
159168  0  0  1  0            999 V2000
  -30.5785  -14.7216   20.4385 C   0  0  0  0  0  0
  -30.4421  -12.4399   19.4598 C   0  0  0  0  0  0
  -29.5066  -12.4971   18.2309 C   0  0  0  0  0  0
  -28.0317  -12.3257   18.6451 C   0  0  0  0  0  0
  -27.6456  -13.2192   19.8529 C   0  0  2  0  0  0
  -28.6935  -13.1204   20.9853 C   0  0  0  0  0  0
  -25.2579  -13.8189   20.5710 C   0  0  0  0  0  0
  -24.1846  -13.0463   20.9218 C   0  0  0  0  0  0
  -24.6387  -11.6933   20.8779 C   0  0  0  0  0  0
  -23.9059  -10.4319   21.0398 C   0  0  0  0  0  0
  -24.3621   -9.4216   21.9144 C   0  0  0  0  0  0
  -23.6301   -8.2246   22.0710 C   0  0  0  0  0  0
  -22.4283   -8.0278   21.3516 C   0  0  0  0  0  0
  -21.9913   -9.0255   20.4635 C   0  0  0  0  0  0
  -22.7226  -10.2151   20.3045 C   0  0  0  0  0  0
  -21.6854   -6.0741   22.5265 C   0  0  0  0  0  0
  -21.4000   -6.5641   23.8202 C   0  0  0  0  0  0
  -21.3669   -5.6781   24.9157 C   0  0  0  0  0  0
  -21.6050   -4.3051   24.7198 C   0  0  0  0  0  0
  -21.8834   -3.8154   23.4322 C   0  0  0  0  0  0
  -21.9209   -4.6973   22.3380 C   0  0  0  0  0  0
  -22.7864  -13.5250   21.1842 C   0  0  0  0  0  0
  -22.1675   -4.2172   21.0953 F   0  0  0  0  0  0
  -21.5646   -3.4520   25.7699 F   0  0  0  0  0  0
  -29.9989  -13.4773   20.4164 N   0  0  0  0  0  0
  -26.2972  -12.9363   20.3292 N   0  0  0  0  0  0
  -25.9322  -11.6520   20.5797 N   0  0  0  0  0  0
  -22.0515  -12.8274   22.0428 N   0  0  0  0  0  0
  -25.4316  -15.1900   20.4138 N   0  0  0  0  0  0
  -31.7471  -14.8731   20.0607 O   0  0  0  0  0  0
  -21.6636   -6.8884   21.4223 O   0  0  0  0  0  0
  -22.3536  -14.5508   20.6630 O   0  0  0  0  0  0
  -24.6331  -31.8578   23.1980 C   0  0  0  0  0  0
  -25.9156  -32.4771   23.8336 C   0  0  1  0  0  0
  -27.2125  -27.2582   20.1169 C   0  0  0  0  0  0
  -25.5942  -33.8573   24.2236 N   0  0  0  0  0  0
  -23.4298  -30.4774   21.5456 C   0  0  2  0  0  0
  -24.8747  -28.9320   20.1035 C   0  0  0  0  0  0
  -22.7525  -29.4572   22.4929 C   0  0  0  0  0  0
  -18.0293  -28.1402   22.8485 C   0  0  0  0  0  0
  -24.1485  -36.7278   23.2634 C   0  0  0  0  0  0
  -25.9783  -30.7663   21.3803 C   0  0  0  0  0  0
  -26.0494  -29.3925   20.7124 C   0  0  0  0  0  0
  -27.2229  -28.5714   20.6987 C   0  0  0  0  0  0
  -26.0164  -26.8718   19.4700 C   0  0  0  0  0  0
  -24.8661  -27.6836   19.4657 C   0  0  0  0  0  0
  -23.6467  -29.8212   20.1583 C   0  0  0  0  0  0
  -25.4127  -36.3081   24.0311 C   0  0  1  0  0  0
  -20.5899  -28.3686   23.1284 C   0  0  2  0  0  0
  -20.6789  -26.9407   22.5426 C   0  0  0  0  0  0
  -19.5765  -26.6378   21.5234 C   0  0  0  0  0  0
  -18.1934  -26.7940   22.1624 C   0  0  0  0  0  0
  -19.1555  -28.8869   23.2869 C   0  0  0  0  0  0
  -18.9460  -30.1473   23.8876 C   0  0  0  0  0  0
  -17.6460  -30.6588   24.0555 C   0  0  0  0  0  0
  -25.9068  -34.9453   23.5081 C   0  0  0  0  0  0
  -16.5346  -29.9076   23.6343 C   0  0  0  0  0  0
  -16.7281  -28.6506   23.0340 C   0  0  0  0  0  0
  -26.4505  -31.6611   25.0736 C   0  0  0  0  0  0
  -25.3697  -31.3783   26.1427 C   0  0  0  0  0  0
  -27.0387  -30.3033   24.6258 C   0  0  0  0  0  0
  -27.6055  -32.4376   25.7516 C   0  0  0  0  0  0
  -27.5586  -37.1793   24.8462 C   0  0  0  0  0  0
  -21.4231  -29.3012   22.3667 N   0  0  0  0  0  0
  -26.4299  -37.3780   23.9408 N   0  0  0  0  0  0
  -24.7004  -31.0506   22.0980 N   0  0  0  0  0  0
  -23.4225  -28.8111   23.3017 O   0  0  0  0  0  0
  -28.3021  -26.3555   20.1984 O   0  0  0  0  0  0
  -26.5648  -34.8926   22.4649 O   0  0  0  0  0  0
  -23.5471  -32.1406   23.7245 O   0  0  0  0  0  0
  -29.6506  -18.4107   20.4902 C   0  0  0  0  0  0
  -29.1610  -16.9077   18.6428 C   0  0  0  0  0  0
  -29.1340  -19.3446   18.2974 C   0  0  0  0  0  0
  -29.4397  -19.6029   19.6694 C   0  0  0  0  0  0
  -29.5822  -17.0499   19.9799 C   0  0  0  0  0  0
  -28.9287  -18.0264   17.8257 C   0  0  0  0  0  0
  -31.3755  -22.7144   20.3929 C   0  0  0  0  0  0
  -30.5638  -23.8221   20.3304 C   0  0  0  0  0  0
  -30.9650  -21.3178   20.4797 C   0  0  0  0  0  0
  -28.6844  -22.1618   19.9263 C   0  0  0  0  0  0
  -29.0447  -23.6541   20.4373 C   0  0  2  0  0  0
  -29.1334  -20.4380   17.2401 C   0  0  0  0  0  0
  -28.1104  -24.8865   19.8882 C   0  0  0  0  0  0
  -29.6841  -21.0113   20.1272 N   0  0  0  0  0  0
  -29.7792  -15.8063   20.7491 N   0  0  0  0  0  0
  -30.9150  -25.0151   20.2059 O   0  5  0  0  0  0
  -31.7868  -20.4652   20.8205 O   0  0  0  0  0  0
  -28.5425  -17.8189   16.5425 F   0  0  0  0  0  0
  -31.4779  -12.5856   19.1450 H   0  0  0  0  0  0
  -30.4043  -11.4547   19.9246 H   0  0  0  0  0  0
  -29.7812  -11.7172   17.5198 H   0  0  0  0  0  0
  -29.6367  -13.4514   17.7154 H   0  0  0  0  0  0
  -27.8948  -11.2775   18.9076 H   0  0  0  0  0  0
  -27.3691  -12.5132   17.7996 H   0  0  0  0  0  0
  -27.6482  -14.2435   19.4795 H   0  0  0  0  0  0
  -28.7254  -12.1083   21.3931 H   0  0  0  0  0  0
  -28.4289  -13.7776   21.8138 H   0  0  0  0  0  0
  -25.2755   -9.5722   22.4735 H   0  0  0  0  0  0
  -24.0034   -7.4626   22.7401 H   0  0  0  0  0  0
  -21.0844   -8.8800   19.8944 H   0  0  0  0  0  0
  -22.3644  -10.9715   19.6212 H   0  0  0  0  0  0
  -21.1941   -7.6135   23.9717 H   0  0  0  0  0  0
  -21.1486   -6.0489   25.9070 H   0  0  0  0  0  0
  -22.0598   -2.7615   23.2791 H   0  0  0  0  0  0
  -22.4141  -12.0023   22.4990 H   0  0  0  0  0  0
  -21.1113  -13.1324   22.2514 H   0  0  0  0  0  0
  -24.6731  -15.8521   20.5403 H   0  0  0  0  0  0
  -26.2793  -15.6269   20.0815 H   0  0  0  0  0  0
  -26.7213  -32.5389   23.1068 H   0  0  0  0  0  0
  -25.0085  -33.9732   25.0373 H   0  0  0  0  0  0
  -22.7253  -31.2988   21.4058 H   0  0  0  0  0  0
  -23.3774  -35.9586   23.3301 H   0  0  0  0  0  0
  -24.3563  -36.8907   22.2051 H   0  0  0  0  0  0
  -23.7204  -37.6456   23.6668 H   0  0  0  0  0  0
  -26.1262  -31.5348   20.6192 H   0  0  0  0  0  0
  -26.8540  -30.8063   22.0172 H   0  0  0  0  0  0
  -28.1268  -28.9256   21.1742 H   0  0  0  0  0  0
  -25.9341  -25.9198   18.9693 H   0  0  0  0  0  0
  -23.9720  -27.3320   18.9692 H   0  0  0  0  0  0
  -23.7723  -30.6081   19.4128 H   0  0  0  0  0  0
  -22.7647  -29.2599   19.8463 H   0  0  0  0  0  0
  -25.1309  -36.1941   25.0800 H   0  0  0  0  0  0
  -20.9982  -28.3266   24.1409 H   0  0  0  0  0  0
  -20.5729  -26.2282   23.3620 H   0  0  0  0  0  0
  -21.6640  -26.7453   22.1181 H   0  0  0  0  0  0
  -19.6919  -25.6288   21.1262 H   0  0  0  0  0  0
  -19.6723  -27.3185   20.6767 H   0  0  0  0  0  0
  -17.4218  -26.6708   21.4009 H   0  0  0  0  0  0
  -18.0302  -26.0090   22.9021 H   0  0  0  0  0  0
  -19.7926  -30.7316   24.2209 H   0  0  0  0  0  0
  -17.4991  -31.6267   24.5170 H   0  0  0  0  0  0
  -15.5339  -30.2962   23.7687 H   0  0  0  0  0  0
  -15.8674  -28.0829   22.7041 H   0  0  0  0  0  0
  -24.5812  -30.7243   25.7679 H   0  0  0  0  0  0
  -24.8966  -32.2976   26.4885 H   0  0  0  0  0  0
  -25.7934  -30.8862   27.0180 H   0  0  0  0  0  0
  -26.3007  -29.6755   24.1245 H   0  0  0  0  0  0
  -27.4027  -29.7322   25.4800 H   0  0  0  0  0  0
  -27.8883  -30.4313   23.9555 H   0  0  0  0  0  0
  -27.2640  -33.3640   26.2138 H   0  0  0  0  0  0
  -28.3829  -32.7007   25.0338 H   0  0  0  0  0  0
  -28.0772  -31.8496   26.5389 H   0  0  0  0  0  0
  -28.2592  -38.0098   24.7534 H   0  0  0  0  0  0
  -28.1095  -36.2633   24.6274 H   0  0  0  0  0  0
  -27.2302  -37.1411   25.8860 H   0  0  0  0  0  0
  -20.9436  -29.8716   21.6846 H   0  0  0  0  0  0
  -26.0185  -38.2851   24.1436 H   0  0  0  0  0  0
  -29.9200  -18.5551   21.5247 H   0  0  0  0  0  0
  -29.0202  -15.9256   18.2130 H   0  0  0  0  0  0
  -32.4433  -22.8766   20.3408 H   0  0  0  0  0  0
  -28.4949  -22.2657   18.8664 H   0  0  0  0  0  0
  -27.7319  -21.8558   20.3590 H   0  0  0  0  0  0
  -28.8438  -23.6322   21.5086 H   0  0  0  0  0  0
  -29.9151  -21.1731   17.4338 H   0  0  0  0  0  0
  -28.1659  -20.9323   17.1751 H   0  0  0  0  0  0
  -29.3584  -20.0302   16.2535 H   0  0  0  0  0  0
  -27.1157  -24.6180   20.2463 H   0  0  0  0  0  0
  -28.0636  -24.8033   18.8024 H   0  0  0  0  0  0
  -28.9555  -15.5227   21.2605 H   0  0  0  0  0  0
  1 25  1  0  0  0
  1 30  2  0  0  0
  1 85  1  0  0  0
  2  3  1  0  0  0
  2 25  1  0  0  0
  2 89  1  0  0  0
  2 90  1  0  0  0
  3  4  1  0  0  0
  3 91  1  0  0  0
  3 92  1  0  0  0
  4  5  1  0  0  0
  4 93  1  0  0  0
  4 94  1  0  0  0
  5  6  1  0  0  0
  5 26  1  0  0  0
  5 95  1  0  0  0
  6 25  1  0  0  0
  6 96  1  0  0  0
  6 97  1  0  0  0
  7  8  2  0  0  0
  7 26  1  0  0  0
  7 29  1  0  0  0
  8  9  1  0  0  0
  8 22  1  0  0  0
  9 10  1  0  0  0
  9 27  2  0  0  0
 10 11  2  0  0  0
 10 15  1  0  0  0
 11 12  1  0  0  0
 11 98  1  0  0  0
 12 13  2  0  0  0
 12 99  1  0  0  0
 13 14  1  0  0  0
 13 31  1  0  0  0
 14 15  2  0  0  0
 14100  1  0  0  0
 15101  1  0  0  0
 16 17  2  0  0  0
 16 21  1  0  0  0
 16 31  1  0  0  0
 17 18  1  0  0  0
 17102  1  0  0  0
 18 19  2  0  0  0
 18103  1  0  0  0
 19 20  1  0  0  0
 19 24  1  0  0  0
 20 21  2  0  0  0
 20104  1  0  0  0
 21 23  1  0  0  0
 22 28  1  0  0  0
 22 32  2  0  0  0
 26 27  1  0  0  0
 28105  1  0  0  0
 28106  1  0  0  0
 29107  1  0  0  0
 29108  1  0  0  0
 33 34  1  0  0  0
 33 66  1  0  0  0
 33 70  2  0  0  0
 34 36  1  0  0  0
 34 59  1  0  0  0
 34109  1  0  0  0
 35 44  2  0  0  0
 35 45  1  0  0  0
 35 68  1  0  0  0
 36 56  1  0  0  0
 36110  1  0  0  0
 37 39  1  0  0  0
 37 47  1  0  0  0
 37 66  1  0  0  0
 37111  1  0  0  0
 38 43  2  0  0  0
 38 46  1  0  0  0
 38 47  1  0  0  0
 39 64  1  0  0  0
 39 67  2  0  0  0
 40 52  1  0  0  0
 40 53  2  0  0  0
 40 58  1  0  0  0
 41112  1  0  0  0
 41113  1  0  0  0
 41114  1  0  0  0
 41 48  1  0  0  0
 42 43  1  0  0  0
 42 66  1  0  0  0
 42115  1  0  0  0
 42116  1  0  0  0
 43 44  1  0  0  0
 44117  1  0  0  0
 45 46  2  0  0  0
 45118  1  0  0  0
 46119  1  0  0  0
 47120  1  0  0  0
 47121  1  0  0  0
 48 56  1  0  0  0
 48 65  1  0  0  0
 48122  1  0  0  0
 49 50  1  0  0  0
 49 53  1  0  0  0
 49 64  1  0  0  0
 49123  1  0  0  0
 50 51  1  0  0  0
 50124  1  0  0  0
 50125  1  0  0  0
 51 52  1  0  0  0
 51126  1  0  0  0
 51127  1  0  0  0
 52128  1  0  0  0
 52129  1  0  0  0
 53 54  1  0  0  0
 54 55  2  0  0  0
 54130  1  0  0  0
 55 57  1  0  0  0
 55131  1  0  0  0
 56 69  2  0  0  0
 57 58  2  0  0  0
 57132  1  0  0  0
 58133  1  0  0  0
 59 60  1  0  0  0
 59 61  1  0  0  0
 59 62  1  0  0  0
 60134  1  0  0  0
 60135  1  0  0  0
 60136  1  0  0  0
 61137  1  0  0  0
 61138  1  0  0  0
 61139  1  0  0  0
 62140  1  0  0  0
 62141  1  0  0  0
 62142  1  0  0  0
 63 65  1  0  0  0
 63143  1  0  0  0
 63144  1  0  0  0
 63145  1  0  0  0
 64146  1  0  0  0
 65147  1  0  0  0
 68 83  1  0  0  0
 71 74  2  0  0  0
 71 75  1  0  0  0
 71148  1  0  0  0
 72 75  2  0  0  0
 72 76  1  0  0  0
 72149  1  0  0  0
 73 74  1  0  0  0
 73 76  2  0  0  0
 73 82  1  0  0  0
 74 84  1  0  0  0
 75 85  1  0  0  0
 76 88  1  0  0  0
 77 78  2  0  0  0
 77 79  1  0  0  0
 77150  1  0  0  0
 78 81  1  0  0  0
 78 86  1  0  0  0
 79 84  1  0  0  0
 79 87  2  0  0  0
 80 81  1  0  0  0
 80 84  1  0  0  0
 80151  1  0  0  0
 80152  1  0  0  0
 81 83  1  0  0  0
 81153  1  0  0  0
 82154  1  0  0  0
 82155  1  0  0  0
 82156  1  0  0  0
 83157  1  0  0  0
 83158  1  0  0  0
 85159  1  0  0  0
M  CHG  1  86  -1
M  ISO  4   1 100  68 101  83 101  85 100
M  END
> <chiral flag>
0

> <version>
0

> <s_m_source_file>
/data/baiqing/PycharmProjects/Reinvent-master-3.2/result/LINK_invent/BTK/process_docking_weight1_custom_product_contain_oxygen_bond_distance_aromatic_linkinvent_7_9_3/rearranged_h_0064.sdf

> <i_m_source_file_index>
30

> <r_mmod_Potential_Energy-OPLS-2005>
33.9618186950684

> <r_mmod_Stretch_Energy-OPLS-2005>
135.965469360352

> <r_mmod_Bend_Energy-OPLS-2005>
188.428619384766

> <r_mmod_Torsional_Energy-OPLS-2005>
319.130187988281

> <r_mmod_Improper_Torsional_Energy-OPLS-2005>
7.87932014465332

> <r_mmod_Van_der_Waal_Energy-OPLS-2005>
159.453582763672

> <r_mmod_Electrostatic_Energy-OPLS-2005>
-351.637664794922

> <r_mmod_Solvation_Energy-OPLS-2005>
-508.870239257812

> <b_mmod_Minimization_Converged-OPLS-2005>
0

> <r_mmod_RMS_Derivative-OPLS-2005>
4.64704608917236

$$$$
30
                    3D
 Structure written by MMmdl.
158167  0  0  1  0            999 V2000
  -30.5913  -14.6875   20.4779 C   0  0  0  0  0  0
  -30.4452  -12.4200   19.4518 C   0  0  0  0  0  0
  -29.5099  -12.5097   18.2243 C   0  0  0  0  0  0
  -28.0335  -12.3379   18.6382 C   0  0  0  0  0  0
  -27.6493  -13.2155   19.8585 C   0  0  2  0  0  0
  -28.6973  -13.0889   20.9873 C   0  0  0  0  0  0
  -25.2542  -13.8149   20.5701 C   0  0  0  0  0  0
  -24.1813  -13.0415   20.9194 C   0  0  0  0  0  0
  -24.6387  -11.6890   20.8734 C   0  0  0  0  0  0
  -23.9058  -10.4277   21.0402 C   0  0  0  0  0  0
  -24.3610   -9.4197   21.9183 C   0  0  0  0  0  0
  -23.6285   -8.2234   22.0753 C   0  0  0  0  0  0
  -22.4268   -8.0274   21.3543 C   0  0  0  0  0  0
  -21.9901   -9.0247   20.4646 C   0  0  0  0  0  0
  -22.7229  -10.2125   20.3053 C   0  0  0  0  0  0
  -21.6850   -6.0730   22.5279 C   0  0  0  0  0  0
  -21.4013   -6.5636   23.8212 C   0  0  0  0  0  0
  -21.3659   -5.6789   24.9175 C   0  0  0  0  0  0
  -21.6044   -4.3052   24.7225 C   0  0  0  0  0  0
  -21.8820   -3.8142   23.4346 C   0  0  0  0  0  0
  -21.9193   -4.6959   22.3402 C   0  0  0  0  0  0
  -22.7838  -13.5216   21.1860 C   0  0  0  0  0  0
  -22.1661   -4.2146   21.0979 F   0  0  0  0  0  0
  -21.5629   -3.4535   25.7737 F   0  0  0  0  0  0
  -30.0063  -13.4468   20.4177 N   0  0  0  0  0  0
  -26.2969  -12.9333   20.3304 N   0  0  0  0  0  0
  -25.9315  -11.6490   20.5745 N   0  0  0  0  0  0
  -22.0478  -12.8212   22.0417 N   0  0  0  0  0  0
  -25.4221  -15.1874   20.4162 N   0  0  0  0  0  0
  -31.7699  -14.8559   20.1487 O   0  0  0  0  0  0
  -21.6633   -6.8872   21.4239 O   0  0  0  0  0  0
  -22.3526  -14.5525   20.6709 O   0  0  0  0  0  0
  -24.6283  -31.8574   23.1999 C   0  0  0  0  0  0
  -25.9121  -32.4765   23.8337 C   0  0  1  0  0  0
  -27.2317  -27.3032   20.1058 C   0  0  0  0  0  0
  -25.5924  -33.8565   24.2264 N   0  0  0  0  0  0
  -23.4226  -30.4803   21.5437 C   0  0  2  0  0  0
  -24.8685  -28.9312   20.1112 C   0  0  0  0  0  0
  -22.7486  -29.4611   22.4932 C   0  0  0  0  0  0
  -18.0288  -28.1385   22.8485 C   0  0  0  0  0  0
  -24.1488  -36.7289   23.2640 C   0  0  0  0  0  0
  -25.9655  -30.7830   21.3724 C   0  0  0  0  0  0
  -26.0394  -29.4094   20.7117 C   0  0  0  0  0  0
  -27.2209  -28.6072   20.6985 C   0  0  0  0  0  0
  -26.0241  -26.8699   19.5108 C   0  0  0  0  0  0
  -24.8632  -27.6666   19.5034 C   0  0  0  0  0  0
  -23.6374  -29.8134   20.1598 C   0  0  0  0  0  0
  -25.4113  -36.3074   24.0329 C   0  0  1  0  0  0
  -20.5888  -28.3690   23.1281 C   0  0  2  0  0  0
  -20.6775  -26.9412   22.5409 C   0  0  0  0  0  0
  -19.5750  -26.6383   21.5211 C   0  0  0  0  0  0
  -18.1931  -26.7928   22.1624 C   0  0  0  0  0  0
  -19.1540  -28.8855   23.2877 C   0  0  0  0  0  0
  -18.9460  -30.1458   23.8893 C   0  0  0  0  0  0
  -17.6459  -30.6587   24.0561 C   0  0  0  0  0  0
  -25.9051  -34.9444   23.5099 C   0  0  0  0  0  0
  -16.5351  -29.9084   23.6331 C   0  0  0  0  0  0
  -16.7274  -28.6502   23.0351 C   0  0  0  0  0  0
  -26.4496  -31.6584   25.0719 C   0  0  0  0  0  0
  -25.3724  -31.3728   26.1444 C   0  0  0  0  0  0
  -27.0343  -30.3006   24.6189 C   0  0  0  0  0  0
  -27.6053  -32.4325   25.7492 C   0  0  0  0  0  0
  -27.5580  -37.1798   24.8465 C   0  0  0  0  0  0
  -21.4197  -29.3041   22.3677 N   0  0  0  0  0  0
  -26.4291  -37.3771   23.9409 N   0  0  0  0  0  0
  -24.6913  -31.0571   22.0956 N   0  0  0  0  0  0
  -23.4202  -28.8154   23.3020 O   0  0  0  0  0  0
  -28.3611  -26.4594   20.1683 O   0  0  0  0  0  0
  -26.5627  -34.8917   22.4671 O   0  0  0  0  0  0
  -23.5441  -32.1379   23.7317 O   0  0  0  0  0  0
  -30.3718  -19.4175   21.5635 C   0  0  0  0  0  0
  -30.5096  -17.9946   21.5295 C   0  0  0  0  0  0
  -28.9024  -19.3435   19.6773 C   0  0  0  0  0  0
  -29.0248  -17.9133   19.6418 C   0  0  0  0  0  0
  -29.5323  -20.1497   20.6664 C   0  0  0  0  0  0
  -29.8202  -17.1918   20.5857 C   0  0  0  0  0  0
  -29.0056  -23.8223   21.6550 C   0  0  0  0  0  0
  -28.7171  -23.9806   20.2362 C   0  0  0  0  0  0
  -29.3543  -22.3330   21.9340 C   0  0  0  0  0  0
  -28.4135  -25.1650   19.5866 C   0  0  0  0  0  0
  -28.8666  -22.5357   19.6722 C   0  0  0  0  0  0
  -28.2487  -17.1580   18.5766 C   0  0  0  0  0  0
  -28.2664  -25.1992   18.0730 C   0  0  0  0  0  0
  -29.3072  -21.6196   20.7759 N   0  0  0  0  0  0
  -29.7258  -15.7300   20.7159 N   0  0  0  0  0  0
  -28.9872  -24.7057   22.5233 O   0  0  0  0  0  0
  -29.6157  -21.9065   23.0679 O   0  0  0  0  0  0
  -31.4833  -12.5626   19.1465 H   0  0  0  0  0  0
  -30.3972  -11.4282   19.9038 H   0  0  0  0  0  0
  -29.7815  -11.7532   17.4868 H   0  0  0  0  0  0
  -29.6415  -13.4753   17.7330 H   0  0  0  0  0  0
  -27.8795  -11.2856   18.8795 H   0  0  0  0  0  0
  -27.3770  -12.5551   17.7949 H   0  0  0  0  0  0
  -27.6570  -14.2454   19.5040 H   0  0  0  0  0  0
  -28.7215  -12.0702   21.3772 H   0  0  0  0  0  0
  -28.4392  -13.7260   21.8350 H   0  0  0  0  0  0
  -25.2756   -9.5677   22.4756 H   0  0  0  0  0  0
  -23.9997   -7.4625   22.7469 H   0  0  0  0  0  0
  -21.0833   -8.8764   19.8951 H   0  0  0  0  0  0
  -22.3689  -10.9663   19.6160 H   0  0  0  0  0  0
  -21.2005   -7.6143   23.9714 H   0  0  0  0  0  0
  -21.1481   -6.0518   25.9078 H   0  0  0  0  0  0
  -22.0601   -2.7605   23.2846 H   0  0  0  0  0  0
  -22.4086  -11.9873   22.4811 H   0  0  0  0  0  0
  -21.1098  -13.1247   22.2624 H   0  0  0  0  0  0
  -24.6517  -15.8364   20.5352 H   0  0  0  0  0  0
  -26.2710  -15.6367   20.1035 H   0  0  0  0  0  0
  -26.7188  -32.5425   23.1082 H   0  0  0  0  0  0
  -25.0065  -33.9699   25.0405 H   0  0  0  0  0  0
  -22.7171  -31.3012   21.3996 H   0  0  0  0  0  0
  -23.3749  -35.9623   23.3301 H   0  0  0  0  0  0
  -24.3580  -36.8911   22.2055 H   0  0  0  0  0  0
  -23.7244  -37.6491   23.6665 H   0  0  0  0  0  0
  -26.0998  -31.5468   20.6053 H   0  0  0  0  0  0
  -26.8448  -30.8298   22.0037 H   0  0  0  0  0  0
  -28.1209  -28.9710   21.1742 H   0  0  0  0  0  0
  -25.9458  -25.8899   19.0670 H   0  0  0  0  0  0
  -23.9610  -27.2871   19.0436 H   0  0  0  0  0  0
  -23.7569  -30.5888   19.4024 H   0  0  0  0  0  0
  -22.7568  -29.2435   19.8583 H   0  0  0  0  0  0
  -25.1292  -36.1923   25.0821 H   0  0  0  0  0  0
  -20.9978  -28.3264   24.1402 H   0  0  0  0  0  0
  -20.5675  -26.2300   23.3610 H   0  0  0  0  0  0
  -21.6643  -26.7440   22.1203 H   0  0  0  0  0  0
  -19.6911  -25.6292   21.1243 H   0  0  0  0  0  0
  -19.6686  -27.3191   20.6740 H   0  0  0  0  0  0
  -17.4199  -26.6673   21.4029 H   0  0  0  0  0  0
  -18.0332  -26.0071   22.9023 H   0  0  0  0  0  0
  -19.7936  -30.7276   24.2259 H   0  0  0  0  0  0
  -17.5013  -31.6266   24.5165 H   0  0  0  0  0  0
  -15.5350  -30.2981   23.7658 H   0  0  0  0  0  0
  -15.8675  -28.0820   22.7066 H   0  0  0  0  0  0
  -24.5896  -30.7081   25.7771 H   0  0  0  0  0  0
  -24.8918  -32.2897   26.4869 H   0  0  0  0  0  0
  -25.8041  -30.8904   27.0221 H   0  0  0  0  0  0
  -26.2921  -29.6754   24.1210 H   0  0  0  0  0  0
  -27.4031  -29.7265   25.4700 H   0  0  0  0  0  0
  -27.8794  -30.4286   23.9421 H   0  0  0  0  0  0
  -27.2661  -33.3625   26.2067 H   0  0  0  0  0  0
  -28.3864  -32.6886   25.0322 H   0  0  0  0  0  0
  -28.0723  -31.8455   26.5411 H   0  0  0  0  0  0
  -28.2593  -38.0099   24.7510 H   0  0  0  0  0  0
  -28.1078  -36.2629   24.6286 H   0  0  0  0  0  0
  -27.2300  -37.1443   25.8868 H   0  0  0  0  0  0
  -20.9380  -29.8764   21.6885 H   0  0  0  0  0  0
  -26.0170  -38.2846   24.1405 H   0  0  0  0  0  0
  -30.9185  -19.9403   22.3344 H   0  0  0  0  0  0
  -31.1144  -17.5164   22.2873 H   0  0  0  0  0  0
  -28.2609  -19.8234   18.9515 H   0  0  0  0  0  0
  -29.5984  -22.5235   18.8641 H   0  0  0  0  0  0
  -27.9098  -22.2042   19.2675 H   0  0  0  0  0  0
  -28.0694  -17.7861   17.7036 H   0  0  0  0  0  0
  -27.2824  -16.8400   18.9646 H   0  0  0  0  0  0
  -28.7933  -16.2773   18.2355 H   0  0  0  0  0  0
  -29.1587  -24.7881   17.6007 H   0  0  0  0  0  0
  -28.1375  -26.2150   17.6989 H   0  0  0  0  0  0
  -27.4118  -24.6016   17.7550 H   0  0  0  0  0  0
  -28.7874  -15.3976   20.8713 H   0  0  0  0  0  0
  1 25  1  0  0  0
  1 30  2  0  0  0
  1 85  1  0  0  0
  2  3  1  0  0  0
  2 25  1  0  0  0
  2 88  1  0  0  0
  2 89  1  0  0  0
  3  4  1  0  0  0
  3 90  1  0  0  0
  3 91  1  0  0  0
  4  5  1  0  0  0
  4 92  1  0  0  0
  4 93  1  0  0  0
  5  6  1  0  0  0
  5 26  1  0  0  0
  5 94  1  0  0  0
  6 25  1  0  0  0
  6 95  1  0  0  0
  6 96  1  0  0  0
  7  8  2  0  0  0
  7 26  1  0  0  0
  7 29  1  0  0  0
  8  9  1  0  0  0
  8 22  1  0  0  0
  9 10  1  0  0  0
  9 27  2  0  0  0
 10 11  2  0  0  0
 10 15  1  0  0  0
 11 12  1  0  0  0
 11 97  1  0  0  0
 12 13  2  0  0  0
 12 98  1  0  0  0
 13 14  1  0  0  0
 13 31  1  0  0  0
 14 15  2  0  0  0
 14 99  1  0  0  0
 15100  1  0  0  0
 16 17  2  0  0  0
 16 21  1  0  0  0
 16 31  1  0  0  0
 17 18  1  0  0  0
 17101  1  0  0  0
 18 19  2  0  0  0
 18102  1  0  0  0
 19 20  1  0  0  0
 19 24  1  0  0  0
 20 21  2  0  0  0
 20103  1  0  0  0
 21 23  1  0  0  0
 22 28  1  0  0  0
 22 32  2  0  0  0
 26 27  1  0  0  0
 28104  1  0  0  0
 28105  1  0  0  0
 29106  1  0  0  0
 29107  1  0  0  0
 33 34  1  0  0  0
 33 66  1  0  0  0
 33 70  2  0  0  0
 34 36  1  0  0  0
 34 59  1  0  0  0
 34108  1  0  0  0
 35 44  2  0  0  0
 35 45  1  0  0  0
 35 68  1  0  0  0
 36 56  1  0  0  0
 36109  1  0  0  0
 37 39  1  0  0  0
 37 47  1  0  0  0
 37 66  1  0  0  0
 37110  1  0  0  0
 38 43  2  0  0  0
 38 46  1  0  0  0
 38 47  1  0  0  0
 39 64  1  0  0  0
 39 67  2  0  0  0
 40 52  1  0  0  0
 40 53  2  0  0  0
 40 58  1  0  0  0
 41111  1  0  0  0
 41112  1  0  0  0
 41113  1  0  0  0
 41 48  1  0  0  0
 42 43  1  0  0  0
 42 66  1  0  0  0
 42114  1  0  0  0
 42115  1  0  0  0
 43 44  1  0  0  0
 44116  1  0  0  0
 45 46  2  0  0  0
 45117  1  0  0  0
 46118  1  0  0  0
 47119  1  0  0  0
 47120  1  0  0  0
 48 56  1  0  0  0
 48 65  1  0  0  0
 48121  1  0  0  0
 49 50  1  0  0  0
 49 53  1  0  0  0
 49 64  1  0  0  0
 49122  1  0  0  0
 50 51  1  0  0  0
 50123  1  0  0  0
 50124  1  0  0  0
 51 52  1  0  0  0
 51125  1  0  0  0
 51126  1  0  0  0
 52127  1  0  0  0
 52128  1  0  0  0
 53 54  1  0  0  0
 54 55  2  0  0  0
 54129  1  0  0  0
 55 57  1  0  0  0
 55130  1  0  0  0
 56 69  2  0  0  0
 57 58  2  0  0  0
 57131  1  0  0  0
 58132  1  0  0  0
 59 60  1  0  0  0
 59 61  1  0  0  0
 59 62  1  0  0  0
 60133  1  0  0  0
 60134  1  0  0  0
 60135  1  0  0  0
 61136  1  0  0  0
 61137  1  0  0  0
 61138  1  0  0  0
 62139  1  0  0  0
 62140  1  0  0  0
 62141  1  0  0  0
 63 65  1  0  0  0
 63142  1  0  0  0
 63143  1  0  0  0
 63144  1  0  0  0
 64145  1  0  0  0
 65146  1  0  0  0
 68 80  1  0  0  0
 71 72  2  0  0  0
 71 75  1  0  0  0
 71147  1  0  0  0
 72 76  1  0  0  0
 72148  1  0  0  0
 73 74  1  0  0  0
 73 75  2  0  0  0
 73149  1  0  0  0
 74 76  2  0  0  0
 74 82  1  0  0  0
 75 84  1  0  0  0
 76 85  1  0  0  0
 77 78  1  0  0  0
 77 79  1  0  0  0
 77 86  2  0  0  0
 78 80  2  0  0  0
 78 81  1  0  0  0
 79 84  1  0  0  0
 79 87  2  0  0  0
 80 83  1  0  0  0
 81 84  1  0  0  0
 81150  1  0  0  0
 81151  1  0  0  0
 82152  1  0  0  0
 82153  1  0  0  0
 82154  1  0  0  0
 83155  1  0  0  0
 83156  1  0  0  0
 83157  1  0  0  0
 85158  1  0  0  0
M  ISO  4   1 100  68 101  80 101  85 100
M  END
> <chiral flag>
0

> <version>
0

> <s_m_source_file>
/data/baiqing/PycharmProjects/Reinvent-master-3.2/result/LINK_invent/BTK/process_docking_weight1_custom_product_contain_oxygen_bond_distance_aromatic_linkinvent_7_9_3/rearranged_h_0064.sdf

> <i_m_source_file_index>
31

> <r_mmod_Potential_Energy-OPLS-2005>
219.267120361328

> <r_mmod_Stretch_Energy-OPLS-2005>
91.9995498657227

> <r_mmod_Bend_Energy-OPLS-2005>
171.341506958008

> <r_mmod_Torsional_Energy-OPLS-2005>
281.711181640625

> <r_mmod_Improper_Torsional_Energy-OPLS-2005>
6.79780340194702

> <r_mmod_Van_der_Waal_Energy-OPLS-2005>
135.434356689453

> <r_mmod_Electrostatic_Energy-OPLS-2005>
-285.701080322266

> <r_mmod_Solvation_Energy-OPLS-2005>
-243.549118041992

> <b_mmod_Minimization_Converged-OPLS-2005>
0

> <r_mmod_RMS_Derivative-OPLS-2005>
0.346484243869781

$$$$
31
                    3D
 Structure written by MMmdl.
156164  0  0  1  0            999 V2000
  -30.6655  -14.8195   20.5193 C   0  0  0  0  0  0
  -30.4170  -12.5164   19.5068 C   0  0  0  0  0  0
  -29.5152  -12.5347   18.2528 C   0  0  0  0  0  0
  -28.0446  -12.3284   18.6547 C   0  0  0  0  0  0
  -27.6313  -13.2438   19.8341 C   0  0  2  0  0  0
  -28.6615  -13.2320   20.9780 C   0  0  0  0  0  0
  -25.2474  -13.8213   20.5688 C   0  0  0  0  0  0
  -24.1781  -13.0437   20.9191 C   0  0  0  0  0  0
  -24.6389  -11.6925   20.8710 C   0  0  0  0  0  0
  -23.9074  -10.4294   21.0374 C   0  0  0  0  0  0
  -24.3623   -9.4216   21.9162 C   0  0  0  0  0  0
  -23.6297   -8.2252   22.0746 C   0  0  0  0  0  0
  -22.4280   -8.0280   21.3536 C   0  0  0  0  0  0
  -21.9913   -9.0251   20.4633 C   0  0  0  0  0  0
  -22.7237  -10.2130   20.3033 C   0  0  0  0  0  0
  -21.6852   -6.0740   22.5288 C   0  0  0  0  0  0
  -21.4014   -6.5642   23.8219 C   0  0  0  0  0  0
  -21.3658   -5.6788   24.9180 C   0  0  0  0  0  0
  -21.6037   -4.3051   24.7227 C   0  0  0  0  0  0
  -21.8807   -3.8148   23.4344 C   0  0  0  0  0  0
  -21.9195   -4.6972   22.3406 C   0  0  0  0  0  0
  -22.7806  -13.5215   21.1867 C   0  0  0  0  0  0
  -22.1661   -4.2161   21.0980 F   0  0  0  0  0  0
  -21.5631   -3.4532   25.7736 F   0  0  0  0  0  0
  -29.9723  -13.6109   20.4213 N   0  0  0  0  0  0
  -26.2878  -12.9429   20.3169 N   0  0  0  0  0  0
  -25.9310  -11.6564   20.5675 N   0  0  0  0  0  0
  -22.0457  -12.8212   22.0420 N   0  0  0  0  0  0
  -25.4180  -15.1942   20.4173 N   0  0  0  0  0  0
  -31.8147  -14.8172   20.0699 O   0  0  0  0  0  0
  -21.6631   -6.8890   21.4246 O   0  0  0  0  0  0
  -22.3493  -14.5531   20.6731 O   0  0  0  0  0  0
  -24.6388  -31.8505   23.1918 C   0  0  0  0  0  0
  -25.9202  -32.4722   23.8283 C   0  0  1  0  0  0
  -27.2149  -27.2038   20.1434 C   0  0  0  0  0  0
  -25.5981  -33.8517   24.2216 N   0  0  0  0  0  0
  -23.4388  -30.4717   21.5359 C   0  0  2  0  0  0
  -24.8886  -28.9095   20.1076 C   0  0  0  0  0  0
  -22.7548  -29.4591   22.4865 C   0  0  0  0  0  0
  -18.0316  -28.1397   22.8472 C   0  0  0  0  0  0
  -24.1495  -36.7245   23.2632 C   0  0  0  0  0  0
  -25.9890  -30.7440   21.3825 C   0  0  0  0  0  0
  -26.0637  -29.3615   20.7245 C   0  0  0  0  0  0
  -27.2335  -28.5221   20.7312 C   0  0  0  0  0  0
  -26.0218  -26.8380   19.4874 C   0  0  0  0  0  0
  -24.8769  -27.6580   19.4736 C   0  0  0  0  0  0
  -23.6611  -29.8032   20.1536 C   0  0  0  0  0  0
  -25.4122  -36.3033   24.0315 C   0  0  1  0  0  0
  -20.5922  -28.3729   23.1233 C   0  0  2  0  0  0
  -20.6780  -26.9436   22.5390 C   0  0  0  0  0  0
  -19.5755  -26.6386   21.5195 C   0  0  0  0  0  0
  -18.1943  -26.7941   22.1612 C   0  0  0  0  0  0
  -19.1565  -28.8884   23.2842 C   0  0  0  0  0  0
  -18.9484  -30.1480   23.8865 C   0  0  0  0  0  0
  -17.6478  -30.6588   24.0572 C   0  0  0  0  0  0
  -25.9074  -34.9417   23.5064 C   0  0  0  0  0  0
  -16.5371  -29.9079   23.6338 C   0  0  0  0  0  0
  -16.7297  -28.6497   23.0347 C   0  0  0  0  0  0
  -26.4547  -31.6562   25.0694 C   0  0  0  0  0  0
  -25.3772  -31.3760   26.1430 C   0  0  0  0  0  0
  -27.0355  -30.2945   24.6217 C   0  0  0  0  0  0
  -27.6096  -32.4296   25.7471 C   0  0  0  0  0  0
  -27.5582  -37.1776   24.8458 C   0  0  0  0  0  0
  -21.4244  -29.3062   22.3616 N   0  0  0  0  0  0
  -26.4279  -37.3748   23.9421 N   0  0  0  0  0  0
  -24.7084  -31.0407   22.0929 N   0  0  0  0  0  0
  -23.4216  -28.8151   23.3002 O   0  0  0  0  0  0
  -28.2293  -26.2042   20.1995 O   0  0  0  0  0  0
  -26.5619  -34.8911   22.4619 O   0  0  0  0  0  0
  -23.5522  -32.1368   23.7169 O   0  0  0  0  0  0
  -31.5729  -17.7762   19.9880 C   0  0  0  0  0  0
  -31.9539  -19.0902   19.6679 C   0  0  0  0  0  0
  -29.4185  -18.6357   20.7047 C   0  0  0  0  0  0
  -30.3125  -17.4549   20.5503 C   0  0  0  0  0  0
  -29.7989  -20.0346   20.3861 C   0  0  0  0  0  0
  -31.1145  -20.1942   19.8835 C   0  0  0  0  0  0
  -29.9122  -16.9133   23.3649 C   0  0  0  0  0  0
  -28.1849  -23.6230   20.9492 C   0  0  0  0  0  0
  -29.9085  -15.9189   22.4545 C   0  0  0  0  0  0
  -27.9001  -25.0064   20.9260 C   0  0  0  0  0  0
  -28.9985  -22.6060   20.1748 C   0  0  0  0  0  0
  -28.0105  -18.4139   21.2369 C   0  0  0  0  0  0
  -28.9767  -21.2799   20.6628 N   0  0  0  0  0  0
  -30.1058  -16.0174   21.0536 N   0  0  0  0  0  0
  -29.5752  -22.8998   19.1268 O   0  0  0  0  0  0
  -31.6425  -21.4189   19.6571 F   0  0  0  0  0  0
  -31.4623  -12.6072   19.2084 H   0  0  0  0  0  0
  -30.3504  -11.5510   20.0120 H   0  0  0  0  0  0
  -29.8222  -11.7610   17.5469 H   0  0  0  0  0  0
  -29.6268  -13.4881   17.7335 H   0  0  0  0  0  0
  -27.9256  -11.2826   18.9407 H   0  0  0  0  0  0
  -27.3874  -12.4899   17.7996 H   0  0  0  0  0  0
  -27.6105  -14.2570   19.4312 H   0  0  0  0  0  0
  -28.7122  -12.2505   21.4520 H   0  0  0  0  0  0
  -28.3100  -13.9186   21.7423 H   0  0  0  0  0  0
  -25.2768   -9.5705   22.4729 H   0  0  0  0  0  0
  -24.0006   -7.4649   22.7474 H   0  0  0  0  0  0
  -21.0841   -8.8757   19.8943 H   0  0  0  0  0  0
  -22.3681  -10.9661   19.6141 H   0  0  0  0  0  0
  -21.1993   -7.6145   23.9736 H   0  0  0  0  0  0
  -21.1490   -6.0510   25.9086 H   0  0  0  0  0  0
  -22.0585   -2.7612   23.2837 H   0  0  0  0  0  0
  -22.4061  -11.9854   22.4781 H   0  0  0  0  0  0
  -21.1078  -13.1244   22.2631 H   0  0  0  0  0  0
  -24.6566  -15.8516   20.5432 H   0  0  0  0  0  0
  -26.2756  -15.6334   20.1071 H   0  0  0  0  0  0
  -26.7275  -32.5356   23.1014 H   0  0  0  0  0  0
  -25.0199  -33.9635   25.0416 H   0  0  0  0  0  0
  -22.7393  -31.2968   21.3832 H   0  0  0  0  0  0
  -23.3768  -35.9563   23.3264 H   0  0  0  0  0  0
  -24.3579  -36.8893   22.2047 H   0  0  0  0  0  0
  -23.7246  -37.6432   23.6680 H   0  0  0  0  0  0
  -26.1361  -31.5031   20.6123 H   0  0  0  0  0  0
  -26.8628  -30.7919   22.0200 H   0  0  0  0  0  0
  -28.1288  -28.8560   21.2354 H   0  0  0  0  0  0
  -25.9620  -25.8678   19.0134 H   0  0  0  0  0  0
  -23.9806  -27.3072   18.9810 H   0  0  0  0  0  0
  -23.7922  -30.5768   19.3970 H   0  0  0  0  0  0
  -22.7777  -29.2407   19.8471 H   0  0  0  0  0  0
  -25.1299  -36.1845   25.0801 H   0  0  0  0  0  0
  -21.0021  -28.3326   24.1350 H   0  0  0  0  0  0
  -20.5642  -26.2348   23.3606 H   0  0  0  0  0  0
  -21.6651  -26.7422   22.1207 H   0  0  0  0  0  0
  -19.6904  -25.6292   21.1233 H   0  0  0  0  0  0
  -19.6672  -27.3181   20.6708 H   0  0  0  0  0  0
  -17.4198  -26.6693   21.4027 H   0  0  0  0  0  0
  -18.0341  -26.0091   22.9007 H   0  0  0  0  0  0
  -19.7966  -30.7315   24.2192 H   0  0  0  0  0  0
  -17.5032  -31.6267   24.5185 H   0  0  0  0  0  0
  -15.5373  -30.2963   23.7680 H   0  0  0  0  0  0
  -15.8701  -28.0814   22.7054 H   0  0  0  0  0  0
  -24.5917  -30.7130   25.7796 H   0  0  0  0  0  0
  -24.9022  -32.2953   26.4860 H   0  0  0  0  0  0
  -25.8098  -30.8947   27.0208 H   0  0  0  0  0  0
  -26.2920  -29.6698   24.1248 H   0  0  0  0  0  0
  -27.4006  -29.7205   25.4744 H   0  0  0  0  0  0
  -27.8831  -30.4152   23.9464 H   0  0  0  0  0  0
  -27.2715  -33.3631   26.1973 H   0  0  0  0  0  0
  -28.3962  -32.6787   25.0339 H   0  0  0  0  0  0
  -28.0698  -31.8462   26.5452 H   0  0  0  0  0  0
  -28.2587  -38.0090   24.7530 H   0  0  0  0  0  0
  -28.1094  -36.2616   24.6246 H   0  0  0  0  0  0
  -27.2292  -37.1389   25.8859 H   0  0  0  0  0  0
  -20.9441  -29.8785   21.6811 H   0  0  0  0  0  0
  -26.0138  -38.2805   24.1454 H   0  0  0  0  0  0
  -32.3437  -17.0389   19.8456 H   0  0  0  0  0  0
  -32.9527  -19.2662   19.2957 H   0  0  0  0  0  0
  -29.7559  -16.6852   24.4096 H   0  0  0  0  0  0
  -30.0715  -17.9524   23.1236 H   0  0  0  0  0  0
  -27.6535  -23.1505   21.7623 H   0  0  0  0  0  0
  -29.7600  -14.9139   22.8220 H   0  0  0  0  0  0
  -27.2171  -25.3070   21.7107 H   0  0  0  0  0  0
  -27.7511  -17.3557   21.2730 H   0  0  0  0  0  0
  -27.2776  -18.9007   20.5940 H   0  0  0  0  0  0
  -27.9099  -18.8255   22.2413 H   0  0  0  0  0  0
  -28.3105  -21.1568   21.4106 H   0  0  0  0  0  0
  1 25  1  0  0  0
  1 30  2  0  0  0
  1 84  1  0  0  0
  2  3  1  0  0  0
  2 25  1  0  0  0
  2 87  1  0  0  0
  2 88  1  0  0  0
  3  4  1  0  0  0
  3 89  1  0  0  0
  3 90  1  0  0  0
  4  5  1  0  0  0
  4 91  1  0  0  0
  4 92  1  0  0  0
  5  6  1  0  0  0
  5 26  1  0  0  0
  5 93  1  0  0  0
  6 25  1  0  0  0
  6 94  1  0  0  0
  6 95  1  0  0  0
  7  8  2  0  0  0
  7 26  1  0  0  0
  7 29  1  0  0  0
  8  9  1  0  0  0
  8 22  1  0  0  0
  9 10  1  0  0  0
  9 27  2  0  0  0
 10 11  2  0  0  0
 10 15  1  0  0  0
 11 12  1  0  0  0
 11 96  1  0  0  0
 12 13  2  0  0  0
 12 97  1  0  0  0
 13 14  1  0  0  0
 13 31  1  0  0  0
 14 15  2  0  0  0
 14 98  1  0  0  0
 15 99  1  0  0  0
 16 17  2  0  0  0
 16 21  1  0  0  0
 16 31  1  0  0  0
 17 18  1  0  0  0
 17100  1  0  0  0
 18 19  2  0  0  0
 18101  1  0  0  0
 19 20  1  0  0  0
 19 24  1  0  0  0
 20 21  2  0  0  0
 20102  1  0  0  0
 21 23  1  0  0  0
 22 28  1  0  0  0
 22 32  2  0  0  0
 26 27  1  0  0  0
 28103  1  0  0  0
 28104  1  0  0  0
 29105  1  0  0  0
 29106  1  0  0  0
 33 34  1  0  0  0
 33 66  1  0  0  0
 33 70  2  0  0  0
 34 36  1  0  0  0
 34 59  1  0  0  0
 34107  1  0  0  0
 35 44  2  0  0  0
 35 45  1  0  0  0
 35 68  1  0  0  0
 36 56  1  0  0  0
 36108  1  0  0  0
 37 39  1  0  0  0
 37 47  1  0  0  0
 37 66  1  0  0  0
 37109  1  0  0  0
 38 43  2  0  0  0
 38 46  1  0  0  0
 38 47  1  0  0  0
 39 64  1  0  0  0
 39 67  2  0  0  0
 40 52  1  0  0  0
 40 53  2  0  0  0
 40 58  1  0  0  0
 41110  1  0  0  0
 41111  1  0  0  0
 41112  1  0  0  0
 41 48  1  0  0  0
 42 43  1  0  0  0
 42 66  1  0  0  0
 42113  1  0  0  0
 42114  1  0  0  0
 43 44  1  0  0  0
 44115  1  0  0  0
 45 46  2  0  0  0
 45116  1  0  0  0
 46117  1  0  0  0
 47118  1  0  0  0
 47119  1  0  0  0
 48 56  1  0  0  0
 48 65  1  0  0  0
 48120  1  0  0  0
 49 50  1  0  0  0
 49 53  1  0  0  0
 49 64  1  0  0  0
 49121  1  0  0  0
 50 51  1  0  0  0
 50122  1  0  0  0
 50123  1  0  0  0
 51 52  1  0  0  0
 51124  1  0  0  0
 51125  1  0  0  0
 52126  1  0  0  0
 52127  1  0  0  0
 53 54  1  0  0  0
 54 55  2  0  0  0
 54128  1  0  0  0
 55 57  1  0  0  0
 55129  1  0  0  0
 56 69  2  0  0  0
 57 58  2  0  0  0
 57130  1  0  0  0
 58131  1  0  0  0
 59 60  1  0  0  0
 59 61  1  0  0  0
 59 62  1  0  0  0
 60132  1  0  0  0
 60133  1  0  0  0
 60134  1  0  0  0
 61135  1  0  0  0
 61136  1  0  0  0
 61137  1  0  0  0
 62138  1  0  0  0
 62139  1  0  0  0
 62140  1  0  0  0
 63 65  1  0  0  0
 63141  1  0  0  0
 63142  1  0  0  0
 63143  1  0  0  0
 64144  1  0  0  0
 65145  1  0  0  0
 68 80  1  0  0  0
 71 72  2  0  0  0
 71 74  1  0  0  0
 71146  1  0  0  0
 72 76  1  0  0  0
 72147  1  0  0  0
 73 74  2  0  0  0
 73 75  1  0  0  0
 73 82  1  0  0  0
 74 84  1  0  0  0
 75 76  2  0  0  0
 75 83  1  0  0  0
 76 86  1  0  0  0
 77 79  2  0  0  0
 77148  1  0  0  0
 77149  1  0  0  0
 78 80  2  0  0  0
 78 81  1  0  0  0
 78150  1  0  0  0
 79 84  1  0  0  0
 79151  1  0  0  0
 80152  1  0  0  0
 81 83  1  0  0  0
 81 85  2  0  0  0
 82153  1  0  0  0
 82154  1  0  0  0
 82155  1  0  0  0
 83156  1  0  0  0
M  ISO  4   1 100  68 101  80 101  84 100
M  END
> <chiral flag>
0

> <version>
0

> <s_m_source_file>
/data/baiqing/PycharmProjects/Reinvent-master-3.2/result/LINK_invent/BTK/process_docking_weight1_custom_product_contain_oxygen_bond_distance_aromatic_linkinvent_7_9_3/rearranged_h_0064.sdf

> <i_m_source_file_index>
32

> <r_mmod_Potential_Energy-OPLS-2005>
520.798950195312

> <r_mmod_Stretch_Energy-OPLS-2005>
194.360641479492

> <r_mmod_Bend_Energy-OPLS-2005>
276.907470703125

> <r_mmod_Torsional_Energy-OPLS-2005>
320.613098144531

> <r_mmod_Improper_Torsional_Energy-OPLS-2005>
5.8532133102417

> <r_mmod_Van_der_Waal_Energy-OPLS-2005>
161.918029785156

> <r_mmod_Electrostatic_Energy-OPLS-2005>
-339.701019287109

> <r_mmod_Solvation_Energy-OPLS-2005>
-227.058044433594

> <b_mmod_Minimization_Converged-OPLS-2005>
0

> <r_mmod_RMS_Derivative-OPLS-2005>
2.18691444396973

$$$$
32
                    3D
 Structure written by MMmdl.
155163  0  0  1  0            999 V2000
  -30.6694  -14.6954   20.4727 C   0  0  0  0  0  0
  -30.4157  -12.4344   19.4520 C   0  0  0  0  0  0
  -29.4949  -12.4975   18.2179 C   0  0  0  0  0  0
  -28.0203  -12.3383   18.6334 C   0  0  0  0  0  0
  -27.6354  -13.2347   19.8422 C   0  0  2  0  0  0
  -28.6851  -13.1742   20.9703 C   0  0  0  0  0  0
  -25.2471  -13.8202   20.5675 C   0  0  0  0  0  0
  -24.1772  -13.0449   20.9200 C   0  0  0  0  0  0
  -24.6369  -11.6935   20.8736 C   0  0  0  0  0  0
  -23.9042  -10.4311   21.0378 C   0  0  0  0  0  0
  -24.3613   -9.4226   21.9150 C   0  0  0  0  0  0
  -23.6307   -8.2253   22.0732 C   0  0  0  0  0  0
  -22.4284   -8.0277   21.3529 C   0  0  0  0  0  0
  -21.9908   -9.0248   20.4634 C   0  0  0  0  0  0
  -22.7220  -10.2137   20.3023 C   0  0  0  0  0  0
  -21.6874   -6.0711   22.5274 C   0  0  0  0  0  0
  -21.4032   -6.5620   23.8206 C   0  0  0  0  0  0
  -21.3669   -5.6779   24.9170 C   0  0  0  0  0  0
  -21.6053   -4.3048   24.7222 C   0  0  0  0  0  0
  -21.8824   -3.8127   23.4354 C   0  0  0  0  0  0
  -21.9207   -4.6940   22.3402 C   0  0  0  0  0  0
  -22.7791  -13.5236   21.1876 C   0  0  0  0  0  0
  -22.1658   -4.2115   21.0979 F   0  0  0  0  0  0
  -21.5640   -3.4541   25.7742 F   0  0  0  0  0  0
  -29.9830  -13.5087   20.3728 N   0  0  0  0  0  0
  -26.2898  -12.9418   20.3249 N   0  0  0  0  0  0
  -25.9299  -11.6562   20.5741 N   0  0  0  0  0  0
  -22.0453  -12.8199   22.0429 N   0  0  0  0  0  0
  -25.4170  -15.1925   20.4070 N   0  0  0  0  0  0
  -31.8514  -14.7428   20.1262 O   0  0  0  0  0  0
  -21.6661   -6.8858   21.4231 O   0  0  0  0  0  0
  -22.3458  -14.5536   20.6732 O   0  0  0  0  0  0
  -24.6290  -31.8567   23.1981 C   0  0  0  0  0  0
  -25.9122  -32.4756   23.8339 C   0  0  1  0  0  0
  -27.2230  -27.2862   20.1232 C   0  0  0  0  0  0
  -25.5939  -33.8565   24.2266 N   0  0  0  0  0  0
  -23.4257  -30.4792   21.5414 C   0  0  2  0  0  0
  -24.8718  -28.9286   20.1107 C   0  0  0  0  0  0
  -22.7483  -29.4612   22.4904 C   0  0  0  0  0  0
  -18.0298  -28.1384   22.8504 C   0  0  0  0  0  0
  -24.1489  -36.7279   23.2644 C   0  0  0  0  0  0
  -25.9705  -30.7764   21.3759 C   0  0  0  0  0  0
  -26.0426  -29.4009   20.7172 C   0  0  0  0  0  0
  -27.2239  -28.5942   20.7073 C   0  0  0  0  0  0
  -26.0311  -26.8758   19.4851 C   0  0  0  0  0  0
  -24.8710  -27.6729   19.4829 C   0  0  0  0  0  0
  -23.6423  -29.8125   20.1581 C   0  0  0  0  0  0
  -25.4119  -36.3081   24.0330 C   0  0  1  0  0  0
  -20.5899  -28.3701   23.1272 C   0  0  2  0  0  0
  -20.6782  -26.9419   22.5417 C   0  0  0  0  0  0
  -19.5760  -26.6388   21.5219 C   0  0  0  0  0  0
  -18.1941  -26.7931   22.1628 C   0  0  0  0  0  0
  -19.1554  -28.8854   23.2882 C   0  0  0  0  0  0
  -18.9468  -30.1451   23.8904 C   0  0  0  0  0  0
  -17.6463  -30.6584   24.0558 C   0  0  0  0  0  0
  -25.9058  -34.9442   23.5095 C   0  0  0  0  0  0
  -16.5355  -29.9089   23.6324 C   0  0  0  0  0  0
  -16.7278  -28.6500   23.0360 C   0  0  0  0  0  0
  -26.4508  -31.6577   25.0724 C   0  0  0  0  0  0
  -25.3733  -31.3709   26.1433 C   0  0  0  0  0  0
  -27.0335  -30.2997   24.6196 C   0  0  0  0  0  0
  -27.6075  -32.4308   25.7491 C   0  0  0  0  0  0
  -27.5568  -37.1800   24.8470 C   0  0  0  0  0  0
  -21.4197  -29.3043   22.3645 N   0  0  0  0  0  0
  -26.4296  -37.3776   23.9397 N   0  0  0  0  0  0
  -24.6941  -31.0550   22.0955 N   0  0  0  0  0  0
  -23.4187  -28.8174   23.3009 O   0  0  0  0  0  0
  -28.3256  -26.4073   20.1351 O   0  0  0  0  0  0
  -26.5619  -34.8918   22.4660 O   0  0  0  0  0  0
  -23.5444  -32.1366   23.7287 O   0  0  0  0  0  0
  -32.1839  -17.6057   23.2676 C   0  0  0  0  0  0
  -31.9356  -18.9681   23.0998 C   0  0  0  0  0  0
  -31.5140  -16.6776   22.4621 C   0  0  0  0  0  0
  -31.0171  -19.3848   22.1265 C   0  0  0  0  0  0
  -30.5901  -17.0438   21.4409 C   0  0  0  0  0  0
  -30.3251  -18.4869   21.2719 C   0  0  0  0  0  0
  -28.9384  -23.7566   19.9225 C   0  0  0  0  0  0
  -28.1087  -24.9863   20.5560 C   0  0  0  0  0  0
  -28.7278  -22.2582   20.5048 C   0  0  0  0  0  0
  -30.0025  -15.8792   20.7517 N   0  0  0  0  0  0
  -29.4503  -19.1682   20.3658 N   0  0  0  0  0  0
  -31.0632  -21.1163   19.6006 O   0  0  0  0  0  0
  -28.9633  -20.6724   18.2791 O   0  0  0  0  0  0
  -29.6212  -20.8220   19.5868 S   0  0  0  0  0  0
  -31.4574  -12.5344   19.1426 H   0  0  0  0  0  0
  -30.3452  -11.4628   19.9434 H   0  0  0  0  0  0
  -29.7672  -11.7205   17.5027 H   0  0  0  0  0  0
  -29.6303  -13.4505   17.7043 H   0  0  0  0  0  0
  -27.8612  -11.2888   18.8827 H   0  0  0  0  0  0
  -27.3637  -12.5484   17.7881 H   0  0  0  0  0  0
  -27.6302  -14.2560   19.4632 H   0  0  0  0  0  0
  -28.7097  -12.1818   21.4220 H   0  0  0  0  0  0
  -28.4308  -13.8742   21.7660 H   0  0  0  0  0  0
  -25.2748   -9.5735   22.4731 H   0  0  0  0  0  0
  -24.0034   -7.4643   22.7446 H   0  0  0  0  0  0
  -21.0841   -8.8767   19.8942 H   0  0  0  0  0  0
  -22.3658  -10.9675   19.6145 H   0  0  0  0  0  0
  -21.2022   -7.6128   23.9704 H   0  0  0  0  0  0
  -21.1482   -6.0497   25.9067 H   0  0  0  0  0  0
  -22.0597   -2.7585   23.2867 H   0  0  0  0  0  0
  -22.4118  -11.9897   22.4844 H   0  0  0  0  0  0
  -21.1052  -13.1181   22.2635 H   0  0  0  0  0  0
  -24.6557  -15.8526   20.5207 H   0  0  0  0  0  0
  -26.2646  -15.6302   20.0706 H   0  0  0  0  0  0
  -26.7196  -32.5401   23.1087 H   0  0  0  0  0  0
  -25.0096  -33.9725   25.0424 H   0  0  0  0  0  0
  -22.7232  -31.3019   21.3945 H   0  0  0  0  0  0
  -23.3750  -35.9612   23.3331 H   0  0  0  0  0  0
  -24.3581  -36.8872   22.2055 H   0  0  0  0  0  0
  -23.7261  -37.6501   23.6641 H   0  0  0  0  0  0
  -26.1063  -31.5398   20.6057 H   0  0  0  0  0  0
  -26.8514  -30.8241   22.0055 H   0  0  0  0  0  0
  -28.1261  -28.9577   21.1812 H   0  0  0  0  0  0
  -25.9880  -25.9204   18.9812 H   0  0  0  0  0  0
  -23.9782  -27.3123   18.9912 H   0  0  0  0  0  0
  -23.7585  -30.5864   19.3992 H   0  0  0  0  0  0
  -22.7636  -29.2419   19.8558 H   0  0  0  0  0  0
  -25.1309  -36.1932   25.0827 H   0  0  0  0  0  0
  -21.0000  -28.3273   24.1384 H   0  0  0  0  0  0
  -20.5685  -26.2310   23.3616 H   0  0  0  0  0  0
  -21.6647  -26.7427   22.1203 H   0  0  0  0  0  0
  -19.6909  -25.6302   21.1251 H   0  0  0  0  0  0
  -19.6688  -27.3192   20.6744 H   0  0  0  0  0  0
  -17.4202  -26.6681   21.4034 H   0  0  0  0  0  0
  -18.0319  -26.0074   22.9024 H   0  0  0  0  0  0
  -19.7941  -30.7273   24.2274 H   0  0  0  0  0  0
  -17.5016  -31.6267   24.5157 H   0  0  0  0  0  0
  -15.5359  -30.2985   23.7640 H   0  0  0  0  0  0
  -15.8683  -28.0808   22.7079 H   0  0  0  0  0  0
  -24.5934  -30.7044   25.7737 H   0  0  0  0  0  0
  -24.8900  -32.2871   26.4830 H   0  0  0  0  0  0
  -25.8054  -30.8897   27.0218 H   0  0  0  0  0  0
  -26.2900  -29.6763   24.1216 H   0  0  0  0  0  0
  -27.4022  -29.7246   25.4701 H   0  0  0  0  0  0
  -27.8793  -30.4275   23.9434 H   0  0  0  0  0  0
  -27.2696  -33.3610   26.2062 H   0  0  0  0  0  0
  -28.3879  -32.6854   25.0310 H   0  0  0  0  0  0
  -28.0748  -31.8434   26.5398 H   0  0  0  0  0  0
  -28.2611  -38.0066   24.7468 H   0  0  0  0  0  0
  -28.1034  -36.2595   24.6355 H   0  0  0  0  0  0
  -27.2268  -37.1519   25.8872 H   0  0  0  0  0  0
  -20.9357  -29.8754   21.6861 H   0  0  0  0  0  0
  -26.0165  -38.2856   24.1383 H   0  0  0  0  0  0
  -32.8837  -17.2651   24.0189 H   0  0  0  0  0  0
  -32.4383  -19.6964   23.7213 H   0  0  0  0  0  0
  -31.7331  -15.6404   22.6698 H   0  0  0  0  0  0
  -30.8566  -20.4488   22.0540 H   0  0  0  0  0  0
  -29.9998  -23.9964   19.9942 H   0  0  0  0  0  0
  -28.7288  -23.7359   18.8520 H   0  0  0  0  0  0
  -28.3117  -24.9796   21.6273 H   0  0  0  0  0  0
  -27.0548  -24.7258   20.4859 H   0  0  0  0  0  0
  -27.6667  -22.0107   20.4968 H   0  0  0  0  0  0
  -29.0438  -22.2133   21.5465 H   0  0  0  0  0  0
  -28.9966  -15.8572   20.6911 H   0  0  0  0  0  0
  -28.8936  -18.5393   19.7980 H   0  0  0  0  0  0
  1 25  1  0  0  0
  1 30  2  0  0  0
  1 80  1  0  0  0
  2  3  1  0  0  0
  2 25  1  0  0  0
  2 85  1  0  0  0
  2 86  1  0  0  0
  3  4  1  0  0  0
  3 87  1  0  0  0
  3 88  1  0  0  0
  4  5  1  0  0  0
  4 89  1  0  0  0
  4 90  1  0  0  0
  5  6  1  0  0  0
  5 26  1  0  0  0
  5 91  1  0  0  0
  6 25  1  0  0  0
  6 92  1  0  0  0
  6 93  1  0  0  0
  7  8  2  0  0  0
  7 26  1  0  0  0
  7 29  1  0  0  0
  8  9  1  0  0  0
  8 22  1  0  0  0
  9 10  1  0  0  0
  9 27  2  0  0  0
 10 11  2  0  0  0
 10 15  1  0  0  0
 11 12  1  0  0  0
 11 94  1  0  0  0
 12 13  2  0  0  0
 12 95  1  0  0  0
 13 14  1  0  0  0
 13 31  1  0  0  0
 14 15  2  0  0  0
 14 96  1  0  0  0
 15 97  1  0  0  0
 16 17  2  0  0  0
 16 21  1  0  0  0
 16 31  1  0  0  0
 17 18  1  0  0  0
 17 98  1  0  0  0
 18 19  2  0  0  0
 18 99  1  0  0  0
 19 20  1  0  0  0
 19 24  1  0  0  0
 20 21  2  0  0  0
 20100  1  0  0  0
 21 23  1  0  0  0
 22 28  1  0  0  0
 22 32  2  0  0  0
 26 27  1  0  0  0
 28101  1  0  0  0
 28102  1  0  0  0
 29103  1  0  0  0
 29104  1  0  0  0
 33 34  1  0  0  0
 33 66  1  0  0  0
 33 70  2  0  0  0
 34 36  1  0  0  0
 34 59  1  0  0  0
 34105  1  0  0  0
 35 44  2  0  0  0
 35 45  1  0  0  0
 35 68  1  0  0  0
 36 56  1  0  0  0
 36106  1  0  0  0
 37 39  1  0  0  0
 37 47  1  0  0  0
 37 66  1  0  0  0
 37107  1  0  0  0
 38 43  2  0  0  0
 38 46  1  0  0  0
 38 47  1  0  0  0
 39 64  1  0  0  0
 39 67  2  0  0  0
 40 52  1  0  0  0
 40 53  2  0  0  0
 40 58  1  0  0  0
 41108  1  0  0  0
 41109  1  0  0  0
 41110  1  0  0  0
 41 48  1  0  0  0
 42 43  1  0  0  0
 42 66  1  0  0  0
 42111  1  0  0  0
 42112  1  0  0  0
 43 44  1  0  0  0
 44113  1  0  0  0
 45 46  2  0  0  0
 45114  1  0  0  0
 46115  1  0  0  0
 47116  1  0  0  0
 47117  1  0  0  0
 48 56  1  0  0  0
 48 65  1  0  0  0
 48118  1  0  0  0
 49 50  1  0  0  0
 49 53  1  0  0  0
 49 64  1  0  0  0
 49119  1  0  0  0
 50 51  1  0  0  0
 50120  1  0  0  0
 50121  1  0  0  0
 51 52  1  0  0  0
 51122  1  0  0  0
 51123  1  0  0  0
 52124  1  0  0  0
 52125  1  0  0  0
 53 54  1  0  0  0
 54 55  2  0  0  0
 54126  1  0  0  0
 55 57  1  0  0  0
 55127  1  0  0  0
 56 69  2  0  0  0
 57 58  2  0  0  0
 57128  1  0  0  0
 58129  1  0  0  0
 59 60  1  0  0  0
 59 61  1  0  0  0
 59 62  1  0  0  0
 60130  1  0  0  0
 60131  1  0  0  0
 60132  1  0  0  0
 61133  1  0  0  0
 61134  1  0  0  0
 61135  1  0  0  0
 62136  1  0  0  0
 62137  1  0  0  0
 62138  1  0  0  0
 63 65  1  0  0  0
 63139  1  0  0  0
 63140  1  0  0  0
 63141  1  0  0  0
 64142  1  0  0  0
 65143  1  0  0  0
 68 78  1  0  0  0
 71 72  2  0  0  0
 71 73  1  0  0  0
 71144  1  0  0  0
 72 74  1  0  0  0
 72145  1  0  0  0
 73 75  2  0  0  0
 73146  1  0  0  0
 74 76  2  0  0  0
 74147  1  0  0  0
 75 76  1  0  0  0
 75 80  1  0  0  0
 76 81  1  0  0  0
 77 78  1  0  0  0
 77 79  1  0  0  0
 77148  1  0  0  0
 77149  1  0  0  0
 78150  1  0  0  0
 78151  1  0  0  0
 79152  1  0  0  0
 79153  1  0  0  0
 79 84  1  0  0  0
 80154  1  0  0  0
 81 84  1  0  0  0
 81155  1  0  0  0
 82 84  2  0  0  0
 83 84  2  0  0  0
M  ISO  4   1 100  68 101  78 101  80 100
M  END
> <chiral flag>
0

> <version>
0

> <s_m_source_file>
/data/baiqing/PycharmProjects/Reinvent-master-3.2/result/LINK_invent/BTK/process_docking_weight1_custom_product_contain_oxygen_bond_distance_aromatic_linkinvent_7_9_3/rearranged_h_0064.sdf

> <i_m_source_file_index>
33

> <r_mmod_Potential_Energy-OPLS-2005>
-136.521377563477

> <r_mmod_Stretch_Energy-OPLS-2005>
114.416038513184

> <r_mmod_Bend_Energy-OPLS-2005>
184.257781982422

> <r_mmod_Torsional_Energy-OPLS-2005>
244.532913208008

> <r_mmod_Improper_Torsional_Energy-OPLS-2005>
6.72970056533813

> <r_mmod_Van_der_Waal_Energy-OPLS-2005>
144.42578125

> <r_mmod_Electrostatic_Energy-OPLS-2005>
-644.790832519531

> <r_mmod_Solvation_Energy-OPLS-2005>
-255.377822875977

> <b_mmod_Minimization_Converged-OPLS-2005>
0

> <r_mmod_RMS_Derivative-OPLS-2005>
3.28557181358337

$$$$
33
                    3D
 Structure written by MMmdl.
158167  0  0  1  0            999 V2000
  -30.6150  -14.6474   20.5011 C   0  0  0  0  0  0
  -30.4441  -12.3982   19.4512 C   0  0  0  0  0  0
  -29.5106  -12.5068   18.2239 C   0  0  0  0  0  0
  -28.0348  -12.3343   18.6370 C   0  0  0  0  0  0
  -27.6541  -13.2121   19.8589 C   0  0  2  0  0  0
  -28.6979  -13.0708   20.9904 C   0  0  0  0  0  0
  -25.2568  -13.8159   20.5641 C   0  0  0  0  0  0
  -24.1833  -13.0442   20.9188 C   0  0  0  0  0  0
  -24.6387  -11.6907   20.8733 C   0  0  0  0  0  0
  -23.9046  -10.4298   21.0409 C   0  0  0  0  0  0
  -24.3608   -9.4208   21.9181 C   0  0  0  0  0  0
  -23.6292   -8.2236   22.0748 C   0  0  0  0  0  0
  -22.4271   -8.0272   21.3541 C   0  0  0  0  0  0
  -21.9897   -9.0245   20.4647 C   0  0  0  0  0  0
  -22.7217  -10.2132   20.3058 C   0  0  0  0  0  0
  -21.6853   -6.0727   22.5279 C   0  0  0  0  0  0
  -21.4004   -6.5631   23.8210 C   0  0  0  0  0  0
  -21.3662   -5.6785   24.9173 C   0  0  0  0  0  0
  -21.6045   -4.3044   24.7225 C   0  0  0  0  0  0
  -21.8822   -3.8137   23.4347 C   0  0  0  0  0  0
  -21.9189   -4.6955   22.3402 C   0  0  0  0  0  0
  -22.7855  -13.5244   21.1858 C   0  0  0  0  0  0
  -22.1664   -4.2141   21.0982 F   0  0  0  0  0  0
  -21.5637   -3.4526   25.7739 F   0  0  0  0  0  0
  -30.0146  -13.4173   20.4299 N   0  0  0  0  0  0
  -26.2987  -12.9330   20.3268 N   0  0  0  0  0  0
  -25.9312  -11.6493   20.5732 N   0  0  0  0  0  0
  -22.0489  -12.8248   22.0422 N   0  0  0  0  0  0
  -25.4290  -15.1872   20.3998 N   0  0  0  0  0  0
  -31.7781  -14.8156   20.1220 O   0  0  0  0  0  0
  -21.6635   -6.8871   21.4241 O   0  0  0  0  0  0
  -22.3544  -14.5545   20.6697 O   0  0  0  0  0  0
  -24.6238  -31.8642   23.2048 C   0  0  0  0  0  0
  -25.9093  -32.4801   23.8370 C   0  0  1  0  0  0
  -27.2186  -27.3392   20.1153 C   0  0  0  0  0  0
  -25.5910  -33.8593   24.2289 N   0  0  0  0  0  0
  -23.4151  -30.4916   21.5486 C   0  0  2  0  0  0
  -24.8599  -28.9539   20.1078 C   0  0  0  0  0  0
  -22.7452  -29.4666   22.4947 C   0  0  0  0  0  0
  -18.0294  -28.1388   22.8502 C   0  0  0  0  0  0
  -24.1485  -36.7299   23.2639 C   0  0  0  0  0  0
  -25.9568  -30.8006   21.3736 C   0  0  0  0  0  0
  -26.0294  -29.4312   20.7141 C   0  0  0  0  0  0
  -27.2115  -28.6357   20.7106 C   0  0  0  0  0  0
  -26.0287  -26.9204   19.4709 C   0  0  0  0  0  0
  -24.8629  -27.7034   19.4750 C   0  0  0  0  0  0
  -23.6258  -29.8297   20.1621 C   0  0  0  0  0  0
  -25.4104  -36.3085   24.0337 C   0  0  1  0  0  0
  -20.5895  -28.3685   23.1302 C   0  0  2  0  0  0
  -20.6781  -26.9409   22.5428 C   0  0  0  0  0  0
  -19.5753  -26.6392   21.5233 C   0  0  0  0  0  0
  -18.1931  -26.7935   22.1632 C   0  0  0  0  0  0
  -19.1548  -28.8851   23.2903 C   0  0  0  0  0  0
  -18.9463  -30.1459   23.8906 C   0  0  0  0  0  0
  -17.6462  -30.6587   24.0579 C   0  0  0  0  0  0
  -25.9052  -34.9464   23.5118 C   0  0  0  0  0  0
  -16.5357  -29.9087   23.6335 C   0  0  0  0  0  0
  -16.7283  -28.6514   23.0344 C   0  0  0  0  0  0
  -26.4460  -31.6600   25.0736 C   0  0  0  0  0  0
  -25.3681  -31.3785   26.1465 C   0  0  0  0  0  0
  -27.0261  -30.3005   24.6189 C   0  0  0  0  0  0
  -27.6031  -32.4323   25.7487 C   0  0  0  0  0  0
  -27.5587  -37.1794   24.8449 C   0  0  0  0  0  0
  -21.4171  -29.3042   22.3674 N   0  0  0  0  0  0
  -26.4278  -37.3783   23.9423 N   0  0  0  0  0  0
  -24.6847  -31.0679   22.0987 N   0  0  0  0  0  0
  -23.4191  -28.8209   23.3019 O   0  0  0  0  0  0
  -28.3295  -26.4856   20.1857 O   0  0  0  0  0  0
  -26.5617  -34.8929   22.4686 O   0  0  0  0  0  0
  -23.5408  -32.1431   23.7396 O   0  0  0  0  0  0
  -31.0067  -19.3049   20.2845 C   0  0  0  0  0  0
  -31.0263  -17.8809   20.3837 C   0  0  0  0  0  0
  -28.7009  -17.9241   20.9558 C   0  0  0  0  0  0
  -29.8346  -20.1023   20.4958 C   0  0  0  0  0  0
  -29.8653  -17.1419   20.7205 C   0  0  0  0  0  0
  -28.6760  -19.3471   20.8428 C   0  0  0  0  0  0
  -30.8120  -22.3864   19.9126 C   0  0  0  0  0  0
  -28.6404  -22.4714   20.6130 C   0  0  0  0  0  0
  -30.4139  -23.8703   19.8042 C   0  0  1  0  0  0
  -29.1101  -23.9747   20.5954 C   0  0  1  0  0  0
  -31.5128  -24.8340   20.2928 C   0  0  0  0  0  0
  -28.0673  -25.0387   20.0598 C   0  0  0  0  0  0
  -29.8134  -21.5858   20.3638 N   0  0  0  0  0  0
  -29.7847  -15.6836   20.8491 N   0  0  0  0  0  0
  -31.9519  -22.0353   19.5980 O   0  0  0  0  0  0
  -27.4978  -19.9727   21.0714 F   0  0  0  0  0  0
  -31.4844  -12.5326   19.1475 H   0  0  0  0  0  0
  -30.3886  -11.4028   19.8942 H   0  0  0  0  0  0
  -29.7827  -11.7593   17.4772 H   0  0  0  0  0  0
  -29.6428  -13.4780   17.7443 H   0  0  0  0  0  0
  -27.8822  -11.2817   18.8791 H   0  0  0  0  0  0
  -27.3771  -12.5500   17.7950 H   0  0  0  0  0  0
  -27.6722  -14.2451   19.5109 H   0  0  0  0  0  0
  -28.7126  -12.0489   21.3716 H   0  0  0  0  0  0
  -28.4384  -13.6996   21.8440 H   0  0  0  0  0  0
  -25.2759   -9.5683   22.4742 H   0  0  0  0  0  0
  -24.0010   -7.4620   22.7449 H   0  0  0  0  0  0
  -21.0827   -8.8750   19.8954 H   0  0  0  0  0  0
  -22.3667  -10.9661   19.6159 H   0  0  0  0  0  0
  -21.1987   -7.6140   23.9714 H   0  0  0  0  0  0
  -21.1489   -6.0512   25.9081 H   0  0  0  0  0  0
  -22.0603   -2.7598   23.2841 H   0  0  0  0  0  0
  -22.4101  -11.9920   22.4825 H   0  0  0  0  0  0
  -21.1104  -13.1281   22.2625 H   0  0  0  0  0  0
  -24.6527  -15.8347   20.4803 H   0  0  0  0  0  0
  -26.2568  -15.6096   20.0005 H   0  0  0  0  0  0
  -26.7175  -32.5475   23.1135 H   0  0  0  0  0  0
  -25.0006  -33.9737   25.0394 H   0  0  0  0  0  0
  -22.7114  -31.3157   21.4108 H   0  0  0  0  0  0
  -23.3750  -35.9624   23.3263 H   0  0  0  0  0  0
  -24.3600  -36.8948   22.2063 H   0  0  0  0  0  0
  -23.7228  -37.6493   23.6672 H   0  0  0  0  0  0
  -26.0932  -31.5664   20.6081 H   0  0  0  0  0  0
  -26.8369  -30.8451   22.0033 H   0  0  0  0  0  0
  -28.1054  -28.9974   21.1997 H   0  0  0  0  0  0
  -25.9670  -25.9696   18.9643 H   0  0  0  0  0  0
  -23.9701  -27.3381   18.9850 H   0  0  0  0  0  0
  -23.7342  -30.6079   19.4060 H   0  0  0  0  0  0
  -22.7447  -29.2567   19.8655 H   0  0  0  0  0  0
  -25.1283  -36.1933   25.0827 H   0  0  0  0  0  0
  -21.0034  -28.3271   24.1405 H   0  0  0  0  0  0
  -20.5695  -26.2294   23.3629 H   0  0  0  0  0  0
  -21.6647  -26.7446   22.1214 H   0  0  0  0  0  0
  -19.6903  -25.6307   21.1251 H   0  0  0  0  0  0
  -19.6686  -27.3219   20.6776 H   0  0  0  0  0  0
  -17.4213  -26.6721   21.4019 H   0  0  0  0  0  0
  -18.0295  -26.0074   22.9019 H   0  0  0  0  0  0
  -19.7937  -30.7288   24.2261 H   0  0  0  0  0  0
  -17.5013  -31.6260   24.5181 H   0  0  0  0  0  0
  -15.5354  -30.2985   23.7650 H   0  0  0  0  0  0
  -15.8692  -28.0850   22.7013 H   0  0  0  0  0  0
  -24.5865  -30.7103   25.7836 H   0  0  0  0  0  0
  -24.8846  -32.2964   26.4820 H   0  0  0  0  0  0
  -25.8003  -30.9044   27.0283 H   0  0  0  0  0  0
  -26.2826  -29.6801   24.1172 H   0  0  0  0  0  0
  -27.3885  -29.7229   25.4703 H   0  0  0  0  0  0
  -27.8734  -30.4261   23.9444 H   0  0  0  0  0  0
  -27.2641  -33.3611   26.2089 H   0  0  0  0  0  0
  -28.3809  -32.6913   25.0290 H   0  0  0  0  0  0
  -28.0720  -31.8429   26.5374 H   0  0  0  0  0  0
  -28.2587  -38.0113   24.7536 H   0  0  0  0  0  0
  -28.1101  -36.2655   24.6195 H   0  0  0  0  0  0
  -27.2328  -37.1348   25.8856 H   0  0  0  0  0  0
  -20.9329  -29.8733   21.6874 H   0  0  0  0  0  0
  -26.0158  -38.2854   24.1437 H   0  0  0  0  0  0
  -31.9500  -19.7596   20.0369 H   0  0  0  0  0  0
  -31.9593  -17.3686   20.1995 H   0  0  0  0  0  0
  -27.7789  -17.4321   21.2300 H   0  0  0  0  0  0
  -27.9033  -22.2977   19.8276 H   0  0  0  0  0  0
  -28.1652  -22.2427   21.5671 H   0  0  0  0  0  0
  -30.2145  -24.0624   18.7490 H   0  0  0  0  0  0
  -29.3485  -24.2473   21.6250 H   0  0  0  0  0  0
  -31.7769  -24.6477   21.3349 H   0  0  0  0  0  0
  -31.1892  -25.8725   20.2131 H   0  0  0  0  0  0
  -32.4208  -24.7286   19.6977 H   0  0  0  0  0  0
  -27.1409  -24.8235   20.5955 H   0  0  0  0  0  0
  -27.8728  -24.8182   19.0093 H   0  0  0  0  0  0
  -28.8804  -15.3465   21.1389 H   0  0  0  0  0  0
  1 25  1  0  0  0
  1 30  2  0  0  0
  1 84  1  0  0  0
  2  3  1  0  0  0
  2 25  1  0  0  0
  2 87  1  0  0  0
  2 88  1  0  0  0
  3  4  1  0  0  0
  3 89  1  0  0  0
  3 90  1  0  0  0
  4  5  1  0  0  0
  4 91  1  0  0  0
  4 92  1  0  0  0
  5  6  1  0  0  0
  5 26  1  0  0  0
  5 93  1  0  0  0
  6 25  1  0  0  0
  6 94  1  0  0  0
  6 95  1  0  0  0
  7  8  2  0  0  0
  7 26  1  0  0  0
  7 29  1  0  0  0
  8  9  1  0  0  0
  8 22  1  0  0  0
  9 10  1  0  0  0
  9 27  2  0  0  0
 10 11  2  0  0  0
 10 15  1  0  0  0
 11 12  1  0  0  0
 11 96  1  0  0  0
 12 13  2  0  0  0
 12 97  1  0  0  0
 13 14  1  0  0  0
 13 31  1  0  0  0
 14 15  2  0  0  0
 14 98  1  0  0  0
 15 99  1  0  0  0
 16 17  2  0  0  0
 16 21  1  0  0  0
 16 31  1  0  0  0
 17 18  1  0  0  0
 17100  1  0  0  0
 18 19  2  0  0  0
 18101  1  0  0  0
 19 20  1  0  0  0
 19 24  1  0  0  0
 20 21  2  0  0  0
 20102  1  0  0  0
 21 23  1  0  0  0
 22 28  1  0  0  0
 22 32  2  0  0  0
 26 27  1  0  0  0
 28103  1  0  0  0
 28104  1  0  0  0
 29105  1  0  0  0
 29106  1  0  0  0
 33 34  1  0  0  0
 33 66  1  0  0  0
 33 70  2  0  0  0
 34 36  1  0  0  0
 34 59  1  0  0  0
 34107  1  0  0  0
 35 44  2  0  0  0
 35 45  1  0  0  0
 35 68  1  0  0  0
 36 56  1  0  0  0
 36108  1  0  0  0
 37 39  1  0  0  0
 37 47  1  0  0  0
 37 66  1  0  0  0
 37109  1  0  0  0
 38 43  2  0  0  0
 38 46  1  0  0  0
 38 47  1  0  0  0
 39 64  1  0  0  0
 39 67  2  0  0  0
 40 52  1  0  0  0
 40 53  2  0  0  0
 40 58  1  0  0  0
 41110  1  0  0  0
 41111  1  0  0  0
 41112  1  0  0  0
 41 48  1  0  0  0
 42 43  1  0  0  0
 42 66  1  0  0  0
 42113  1  0  0  0
 42114  1  0  0  0
 43 44  1  0  0  0
 44115  1  0  0  0
 45 46  2  0  0  0
 45116  1  0  0  0
 46117  1  0  0  0
 47118  1  0  0  0
 47119  1  0  0  0
 48 56  1  0  0  0
 48 65  1  0  0  0
 48120  1  0  0  0
 49 50  1  0  0  0
 49 53  1  0  0  0
 49 64  1  0  0  0
 49121  1  0  0  0
 50 51  1  0  0  0
 50122  1  0  0  0
 50123  1  0  0  0
 51 52  1  0  0  0
 51124  1  0  0  0
 51125  1  0  0  0
 52126  1  0  0  0
 52127  1  0  0  0
 53 54  1  0  0  0
 54 55  2  0  0  0
 54128  1  0  0  0
 55 57  1  0  0  0
 55129  1  0  0  0
 56 69  2  0  0  0
 57 58  2  0  0  0
 57130  1  0  0  0
 58131  1  0  0  0
 59 60  1  0  0  0
 59 61  1  0  0  0
 59 62  1  0  0  0
 60132  1  0  0  0
 60133  1  0  0  0
 60134  1  0  0  0
 61135  1  0  0  0
 61136  1  0  0  0
 61137  1  0  0  0
 62138  1  0  0  0
 62139  1  0  0  0
 62140  1  0  0  0
 63 65  1  0  0  0
 63141  1  0  0  0
 63142  1  0  0  0
 63143  1  0  0  0
 64144  1  0  0  0
 65145  1  0  0  0
 68 82  1  0  0  0
 71 72  2  0  0  0
 71 74  1  0  0  0
 71146  1  0  0  0
 72 75  1  0  0  0
 72147  1  0  0  0
 73 75  2  0  0  0
 73 76  1  0  0  0
 73148  1  0  0  0
 74 76  2  0  0  0
 74 83  1  0  0  0
 75 84  1  0  0  0
 76 86  1  0  0  0
 77 79  1  0  0  0
 77 83  1  0  0  0
 77 85  2  0  0  0
 78 80  1  0  0  0
 78 83  1  0  0  0
 78149  1  0  0  0
 78150  1  0  0  0
 79 80  1  0  0  0
 79 81  1  0  0  0
 79151  1  0  0  0
 80 82  1  0  0  0
 80152  1  0  0  0
 81153  1  0  0  0
 81154  1  0  0  0
 81155  1  0  0  0
 82156  1  0  0  0
 82157  1  0  0  0
 84158  1  0  0  0
M  ISO  4   1 100  68 101  82 101  84 100
M  END
> <chiral flag>
0

> <version>
0

> <s_m_source_file>
/data/baiqing/PycharmProjects/Reinvent-master-3.2/result/LINK_invent/BTK/process_docking_weight1_custom_product_contain_oxygen_bond_distance_aromatic_linkinvent_7_9_3/rearranged_h_0064.sdf

> <i_m_source_file_index>
34

> <r_mmod_Potential_Energy-OPLS-2005>
131.261734008789

> <r_mmod_Stretch_Energy-OPLS-2005>
79.8549575805664

> <r_mmod_Bend_Energy-OPLS-2005>
164.446212768555

> <r_mmod_Torsional_Energy-OPLS-2005>
258.650848388672

> <r_mmod_Improper_Torsional_Energy-OPLS-2005>
4.58599281311035

> <r_mmod_Van_der_Waal_Energy-OPLS-2005>
155.000701904297

> <r_mmod_Electrostatic_Energy-OPLS-2005>
-366.669250488281

> <r_mmod_Solvation_Energy-OPLS-2005>
-213.201187133789

> <b_mmod_Minimization_Converged-OPLS-2005>
0

> <r_mmod_RMS_Derivative-OPLS-2005>
1.95925641059875

$$$$
34
                    3D
 Structure written by MMmdl.
157165  0  0  1  0            999 V2000
  -30.7275  -14.4695   20.5827 C   0  0  0  0  0  0
  -30.4156  -12.3114   19.4248 C   0  0  0  0  0  0
  -29.4910  -12.5043   18.2068 C   0  0  0  0  0  0
  -28.0138  -12.3641   18.6213 C   0  0  0  0  0  0
  -27.6590  -13.2120   19.8723 C   0  0  2  0  0  0
  -28.7017  -13.0138   20.9960 C   0  0  0  0  0  0
  -25.2574  -13.8172   20.5682 C   0  0  0  0  0  0
  -24.1835  -13.0444   20.9189 C   0  0  0  0  0  0
  -24.6396  -11.6913   20.8743 C   0  0  0  0  0  0
  -23.9064  -10.4295   21.0408 C   0  0  0  0  0  0
  -24.3616   -9.4209   21.9186 C   0  0  0  0  0  0
  -23.6292   -8.2244   22.0755 C   0  0  0  0  0  0
  -22.4274   -8.0282   21.3545 C   0  0  0  0  0  0
  -21.9910   -9.0257   20.4647 C   0  0  0  0  0  0
  -22.7237  -10.2137   20.3057 C   0  0  0  0  0  0
  -21.6852   -6.0736   22.5279 C   0  0  0  0  0  0
  -21.4014   -6.5640   23.8212 C   0  0  0  0  0  0
  -21.3659   -5.6793   24.9175 C   0  0  0  0  0  0
  -21.6044   -4.3056   24.7225 C   0  0  0  0  0  0
  -21.8819   -3.8148   23.4346 C   0  0  0  0  0  0
  -21.9193   -4.6964   22.3402 C   0  0  0  0  0  0
  -22.7857  -13.5238   21.1851 C   0  0  0  0  0  0
  -22.1661   -4.2150   21.0980 F   0  0  0  0  0  0
  -21.5629   -3.4541   25.7738 F   0  0  0  0  0  0
  -30.0308  -13.3088   20.4370 N   0  0  0  0  0  0
  -26.3013  -12.9353   20.3361 N   0  0  0  0  0  0
  -25.9324  -11.6508   20.5771 N   0  0  0  0  0  0
  -22.0499  -12.8229   22.0406 N   0  0  0  0  0  0
  -25.4290  -15.1888   20.4065 N   0  0  0  0  0  0
  -31.8537  -14.6232   20.1016 O   0  0  0  0  0  0
  -21.6638   -6.8880   21.4241 O   0  0  0  0  0  0
  -22.3544  -14.5546   20.6700 O   0  0  0  0  0  0
  -24.6171  -31.8679   23.2114 C   0  0  0  0  0  0
  -25.9060  -32.4822   23.8406 C   0  0  1  0  0  0
  -27.2228  -27.4102   20.0931 C   0  0  0  0  0  0
  -25.5912  -33.8622   24.2334 N   0  0  0  0  0  0
  -23.4049  -30.4952   21.5527 C   0  0  2  0  0  0
  -24.8482  -28.9669   20.1107 C   0  0  0  0  0  0
  -22.7423  -29.4665   22.4980 C   0  0  0  0  0  0
  -18.0276  -28.1378   22.8493 C   0  0  0  0  0  0
  -24.1488  -36.7314   23.2638 C   0  0  0  0  0  0
  -25.9386  -30.8254   21.3704 C   0  0  0  0  0  0
  -26.0125  -29.4613   20.7115 C   0  0  0  0  0  0
  -27.2022  -28.6912   20.7001 C   0  0  0  0  0  0
  -26.0379  -26.9528   19.4650 C   0  0  0  0  0  0
  -24.8575  -27.7130   19.4835 C   0  0  0  0  0  0
  -23.6128  -29.8360   20.1649 C   0  0  0  0  0  0
  -25.4109  -36.3112   24.0337 C   0  0  1  0  0  0
  -20.5869  -28.3671   23.1309 C   0  0  2  0  0  0
  -20.6767  -26.9405   22.5413 C   0  0  0  0  0  0
  -19.5744  -26.6385   21.5213 C   0  0  0  0  0  0
  -18.1923  -26.7925   22.1624 C   0  0  0  0  0  0
  -19.1526  -28.8841   23.2898 C   0  0  0  0  0  0
  -18.9453  -30.1447   23.8909 C   0  0  0  0  0  0
  -17.6455  -30.6585   24.0566 C   0  0  0  0  0  0
  -25.9038  -34.9476   23.5130 C   0  0  0  0  0  0
  -16.5346  -29.9086   23.6327 C   0  0  0  0  0  0
  -16.7265  -28.6503   23.0349 C   0  0  0  0  0  0
  -26.4479  -31.6601   25.0738 C   0  0  0  0  0  0
  -25.3741  -31.3704   26.1481 C   0  0  0  0  0  0
  -27.0314  -30.3042   24.6128 C   0  0  0  0  0  0
  -27.6055  -32.4321   25.7497 C   0  0  0  0  0  0
  -27.5583  -37.1811   24.8465 C   0  0  0  0  0  0
  -21.4148  -29.3039   22.3715 N   0  0  0  0  0  0
  -26.4296  -37.3796   23.9408 N   0  0  0  0  0  0
  -24.6719  -31.0769   22.1026 N   0  0  0  0  0  0
  -23.4189  -28.8196   23.3017 O   0  0  0  0  0  0
  -28.3706  -26.6297   20.1411 O   0  0  0  0  0  0
  -26.5596  -34.8926   22.4689 O   0  0  0  0  0  0
  -23.5359  -32.1442   23.7496 O   0  0  0  0  0  0
  -32.3825  -18.2431   22.2222 C   0  0  0  0  0  0
  -31.6806  -19.3910   21.8197 C   0  0  0  0  0  0
  -31.8389  -16.9686   22.0045 C   0  0  0  0  0  0
  -29.8504  -17.9888   21.0017 C   0  0  0  0  0  0
  -30.4032  -19.2947   21.2137 C   0  0  0  0  0  0
  -30.5840  -16.8208   21.3743 C   0  0  0  0  0  0
  -29.8880  -21.7825   21.0428 C   0  0  0  0  0  0
  -28.4818  -17.8075   20.3535 C   0  0  0  0  0  0
  -28.9646  -22.7844   20.3196 C   0  0  0  0  0  0
  -29.2861  -24.2977   20.5333 C   0  0  0  0  0  0
  -28.1894  -25.2099   19.9366 C   0  0  0  0  0  0
  -29.6940  -20.4685   20.7684 N   0  0  0  0  0  0
  -30.0645  -15.5013   21.1504 N   0  0  0  0  0  0
  -30.7235  -22.2081   21.8431 O   0  0  0  0  0  0
  -31.4608  -12.3971   19.1224 H   0  0  0  0  0  0
  -30.3084  -11.3050   19.8325 H   0  0  0  0  0  0
  -29.7316  -11.7758   17.4314 H   0  0  0  0  0  0
  -29.6591  -13.4884   17.7660 H   0  0  0  0  0  0
  -27.8275  -11.3089   18.8248 H   0  0  0  0  0  0
  -27.3618  -12.6313   17.7888 H   0  0  0  0  0  0
  -27.6977  -14.2570   19.5642 H   0  0  0  0  0  0
  -28.6786  -11.9854   21.3597 H   0  0  0  0  0  0
  -28.4647  -13.6348   21.8609 H   0  0  0  0  0  0
  -25.2762   -9.5684   22.4760 H   0  0  0  0  0  0
  -24.0002   -7.4635   22.7473 H   0  0  0  0  0  0
  -21.0842   -8.8776   19.8952 H   0  0  0  0  0  0
  -22.3698  -10.9676   19.6165 H   0  0  0  0  0  0
  -21.2006   -7.6149   23.9716 H   0  0  0  0  0  0
  -21.1481   -6.0524   25.9077 H   0  0  0  0  0  0
  -22.0599   -2.7610   23.2846 H   0  0  0  0  0  0
  -22.4114  -11.9883   22.4783 H   0  0  0  0  0  0
  -21.1120  -13.1257   22.2617 H   0  0  0  0  0  0
  -24.6594  -15.8420   20.5047 H   0  0  0  0  0  0
  -26.2720  -15.6208   20.0520 H   0  0  0  0  0  0
  -26.7128  -32.5524   23.1164 H   0  0  0  0  0  0
  -25.0072  -33.9784   25.0485 H   0  0  0  0  0  0
  -22.6942  -31.3132   21.4175 H   0  0  0  0  0  0
  -23.3751  -35.9647   23.3308 H   0  0  0  0  0  0
  -24.3579  -36.8921   22.2050 H   0  0  0  0  0  0
  -23.7241  -37.6521   23.6646 H   0  0  0  0  0  0
  -26.0588  -31.5938   20.6054 H   0  0  0  0  0  0
  -26.8239  -30.8722   21.9928 H   0  0  0  0  0  0
  -28.0970  -29.0652   21.1780 H   0  0  0  0  0  0
  -25.9945  -26.0026   18.9536 H   0  0  0  0  0  0
  -23.9651  -27.3304   19.0072 H   0  0  0  0  0  0
  -23.7233  -30.6151   19.4099 H   0  0  0  0  0  0
  -22.7349  -29.2601   19.8661 H   0  0  0  0  0  0
  -25.1285  -36.1980   25.0831 H   0  0  0  0  0  0
  -20.9962  -28.3240   24.1429 H   0  0  0  0  0  0
  -20.5677  -26.2278   23.3602 H   0  0  0  0  0  0
  -21.6637  -26.7451   22.1203 H   0  0  0  0  0  0
  -19.6906  -25.6300   21.1232 H   0  0  0  0  0  0
  -19.6681  -27.3204   20.6750 H   0  0  0  0  0  0
  -17.4194  -26.6681   21.4024 H   0  0  0  0  0  0
  -18.0321  -26.0063   22.9017 H   0  0  0  0  0  0
  -19.7929  -30.7261   24.2282 H   0  0  0  0  0  0
  -17.5011  -31.6266   24.5168 H   0  0  0  0  0  0
  -15.5347  -30.2993   23.7644 H   0  0  0  0  0  0
  -15.8666  -28.0827   22.7056 H   0  0  0  0  0  0
  -24.5918  -30.7047   25.7816 H   0  0  0  0  0  0
  -24.8927  -32.2856   26.4938 H   0  0  0  0  0  0
  -25.8095  -30.8868   27.0235 H   0  0  0  0  0  0
  -26.2864  -29.6799   24.1178 H   0  0  0  0  0  0
  -27.4074  -29.7280   25.4593 H   0  0  0  0  0  0
  -27.8706  -30.4355   23.9292 H   0  0  0  0  0  0
  -27.2678  -33.3611   26.2102 H   0  0  0  0  0  0
  -28.3850  -32.6895   25.0314 H   0  0  0  0  0  0
  -28.0742  -31.8430   26.5391 H   0  0  0  0  0  0
  -28.2605  -38.0105   24.7517 H   0  0  0  0  0  0
  -28.1076  -36.2638   24.6288 H   0  0  0  0  0  0
  -27.2299  -37.1460   25.8867 H   0  0  0  0  0  0
  -20.9304  -29.8774   21.6951 H   0  0  0  0  0  0
  -26.0188  -38.2876   24.1410 H   0  0  0  0  0  0
  -33.3520  -18.3415   22.6899 H   0  0  0  0  0  0
  -32.1650  -20.3409   21.9830 H   0  0  0  0  0  0
  -32.4042  -16.1017   22.3181 H   0  0  0  0  0  0
  -27.9630  -18.7417   20.1471 H   0  0  0  0  0  0
  -27.8340  -17.2237   21.0076 H   0  0  0  0  0  0
  -28.5830  -17.2708   19.4099 H   0  0  0  0  0  0
  -27.9479  -22.5824   20.6585 H   0  0  0  0  0  0
  -28.9817  -22.5606   19.2523 H   0  0  0  0  0  0
  -30.2512  -24.5386   20.0868 H   0  0  0  0  0  0
  -29.3761  -24.5087   21.5996 H   0  0  0  0  0  0
  -27.2551  -24.8864   20.3991 H   0  0  0  0  0  0
  -28.1041  -25.0178   18.8659 H   0  0  0  0  0  0
  -28.9176  -20.2862   20.1485 H   0  0  0  0  0  0
  -29.0906  -15.3444   21.3582 H   0  0  0  0  0  0
  1 25  1  0  0  0
  1 30  2  0  0  0
  1 83  1  0  0  0
  2  3  1  0  0  0
  2 25  1  0  0  0
  2 85  1  0  0  0
  2 86  1  0  0  0
  3  4  1  0  0  0
  3 87  1  0  0  0
  3 88  1  0  0  0
  4  5  1  0  0  0
  4 89  1  0  0  0
  4 90  1  0  0  0
  5  6  1  0  0  0
  5 26  1  0  0  0
  5 91  1  0  0  0
  6 25  1  0  0  0
  6 92  1  0  0  0
  6 93  1  0  0  0
  7  8  2  0  0  0
  7 26  1  0  0  0
  7 29  1  0  0  0
  8  9  1  0  0  0
  8 22  1  0  0  0
  9 10  1  0  0  0
  9 27  2  0  0  0
 10 11  2  0  0  0
 10 15  1  0  0  0
 11 12  1  0  0  0
 11 94  1  0  0  0
 12 13  2  0  0  0
 12 95  1  0  0  0
 13 14  1  0  0  0
 13 31  1  0  0  0
 14 15  2  0  0  0
 14 96  1  0  0  0
 15 97  1  0  0  0
 16 17  2  0  0  0
 16 21  1  0  0  0
 16 31  1  0  0  0
 17 18  1  0  0  0
 17 98  1  0  0  0
 18 19  2  0  0  0
 18 99  1  0  0  0
 19 20  1  0  0  0
 19 24  1  0  0  0
 20 21  2  0  0  0
 20100  1  0  0  0
 21 23  1  0  0  0
 22 28  1  0  0  0
 22 32  2  0  0  0
 26 27  1  0  0  0
 28101  1  0  0  0
 28102  1  0  0  0
 29103  1  0  0  0
 29104  1  0  0  0
 33 34  1  0  0  0
 33 66  1  0  0  0
 33 70  2  0  0  0
 34 36  1  0  0  0
 34 59  1  0  0  0
 34105  1  0  0  0
 35 44  2  0  0  0
 35 45  1  0  0  0
 35 68  1  0  0  0
 36 56  1  0  0  0
 36106  1  0  0  0
 37 39  1  0  0  0
 37 47  1  0  0  0
 37 66  1  0  0  0
 37107  1  0  0  0
 38 43  2  0  0  0
 38 46  1  0  0  0
 38 47  1  0  0  0
 39 64  1  0  0  0
 39 67  2  0  0  0
 40 52  1  0  0  0
 40 53  2  0  0  0
 40 58  1  0  0  0
 41108  1  0  0  0
 41109  1  0  0  0
 41110  1  0  0  0
 41 48  1  0  0  0
 42 43  1  0  0  0
 42 66  1  0  0  0
 42111  1  0  0  0
 42112  1  0  0  0
 43 44  1  0  0  0
 44113  1  0  0  0
 45 46  2  0  0  0
 45114  1  0  0  0
 46115  1  0  0  0
 47116  1  0  0  0
 47117  1  0  0  0
 48 56  1  0  0  0
 48 65  1  0  0  0
 48118  1  0  0  0
 49 50  1  0  0  0
 49 53  1  0  0  0
 49 64  1  0  0  0
 49119  1  0  0  0
 50 51  1  0  0  0
 50120  1  0  0  0
 50121  1  0  0  0
 51 52  1  0  0  0
 51122  1  0  0  0
 51123  1  0  0  0
 52124  1  0  0  0
 52125  1  0  0  0
 53 54  1  0  0  0
 54 55  2  0  0  0
 54126  1  0  0  0
 55 57  1  0  0  0
 55127  1  0  0  0
 56 69  2  0  0  0
 57 58  2  0  0  0
 57128  1  0  0  0
 58129  1  0  0  0
 59 60  1  0  0  0
 59 61  1  0  0  0
 59 62  1  0  0  0
 60130  1  0  0  0
 60131  1  0  0  0
 60132  1  0  0  0
 61133  1  0  0  0
 61134  1  0  0  0
 61135  1  0  0  0
 62136  1  0  0  0
 62137  1  0  0  0
 62138  1  0  0  0
 63 65  1  0  0  0
 63139  1  0  0  0
 63140  1  0  0  0
 63141  1  0  0  0
 64142  1  0  0  0
 65143  1  0  0  0
 68 81  1  0  0  0
 71 72  2  0  0  0
 71 73  1  0  0  0
 71144  1  0  0  0
 72 75  1  0  0  0
 72145  1  0  0  0
 73 76  2  0  0  0
 73146  1  0  0  0
 74 75  2  0  0  0
 74 76  1  0  0  0
 74 78  1  0  0  0
 75 82  1  0  0  0
 76 83  1  0  0  0
 77 79  1  0  0  0
 77 82  1  0  0  0
 77 84  2  0  0  0
 78147  1  0  0  0
 78148  1  0  0  0
 78149  1  0  0  0
 79 80  1  0  0  0
 79150  1  0  0  0
 79151  1  0  0  0
 80 81  1  0  0  0
 80152  1  0  0  0
 80153  1  0  0  0
 81154  1  0  0  0
 81155  1  0  0  0
 82156  1  0  0  0
 83157  1  0  0  0
M  ISO  4   1 100  68 101  81 101  83 100
M  END
> <chiral flag>
0

> <version>
0

> <s_m_source_file>
/data/baiqing/PycharmProjects/Reinvent-master-3.2/result/LINK_invent/BTK/process_docking_weight1_custom_product_contain_oxygen_bond_distance_aromatic_linkinvent_7_9_3/rearranged_h_0064.sdf

> <i_m_source_file_index>
35

> <r_mmod_Potential_Energy-OPLS-2005>
-106.841316223145

> <r_mmod_Stretch_Energy-OPLS-2005>
44.997486114502

> <r_mmod_Bend_Energy-OPLS-2005>
102.818954467773

> <r_mmod_Torsional_Energy-OPLS-2005>
225.138931274414

> <r_mmod_Improper_Torsional_Energy-OPLS-2005>
3.48830223083496

> <r_mmod_Van_der_Waal_Energy-OPLS-2005>
168.966705322266

> <r_mmod_Electrostatic_Energy-OPLS-2005>
-432.144683837891

> <r_mmod_Solvation_Energy-OPLS-2005>
-236.78173828125

> <b_mmod_Minimization_Converged-OPLS-2005>
0

> <r_mmod_RMS_Derivative-OPLS-2005>
0.196793004870415

$$$$
35
                    3D
 Structure written by MMmdl.
157165  0  0  1  0            999 V2000
  -30.6507  -14.7426   20.4447 C   0  0  0  0  0  0
  -30.4230  -12.4536   19.4783 C   0  0  0  0  0  0
  -29.5096  -12.4977   18.2362 C   0  0  0  0  0  0
  -28.0360  -12.3214   18.6505 C   0  0  0  0  0  0
  -27.6373  -13.2373   19.8399 C   0  0  2  0  0  0
  -28.6812  -13.2052   20.9782 C   0  0  0  0  0  0
  -25.2486  -13.8219   20.5681 C   0  0  0  0  0  0
  -24.1787  -13.0456   20.9213 C   0  0  0  0  0  0
  -24.6387  -11.6937   20.8749 C   0  0  0  0  0  0
  -23.9075  -10.4303   21.0414 C   0  0  0  0  0  0
  -24.3623   -9.4217   21.9192 C   0  0  0  0  0  0
  -23.6292   -8.2253   22.0758 C   0  0  0  0  0  0
  -22.4274   -8.0292   21.3557 C   0  0  0  0  0  0
  -21.9919   -9.0269   20.4662 C   0  0  0  0  0  0
  -22.7245  -10.2147   20.3066 C   0  0  0  0  0  0
  -21.6852   -6.0744   22.5287 C   0  0  0  0  0  0
  -21.4017   -6.5646   23.8223 C   0  0  0  0  0  0
  -21.3654   -5.6795   24.9179 C   0  0  0  0  0  0
  -21.6039   -4.3057   24.7230 C   0  0  0  0  0  0
  -21.8814   -3.8156   23.4347 C   0  0  0  0  0  0
  -21.9189   -4.6973   22.3405 C   0  0  0  0  0  0
  -22.7804  -13.5236   21.1874 C   0  0  0  0  0  0
  -22.1659   -4.2164   21.0981 F   0  0  0  0  0  0
  -21.5627   -3.4536   25.7737 F   0  0  0  0  0  0
  -29.9838  -13.5385   20.3898 N   0  0  0  0  0  0
  -26.2910  -12.9434   20.3225 N   0  0  0  0  0  0
  -25.9317  -11.6580   20.5732 N   0  0  0  0  0  0
  -22.0439  -12.8230   22.0421 N   0  0  0  0  0  0
  -25.4186  -15.1941   20.4114 N   0  0  0  0  0  0
  -31.8521  -14.7470   20.1738 O   0  0  0  0  0  0
  -21.6638   -6.8887   21.4250 O   0  0  0  0  0  0
  -22.3499  -14.5544   20.6706 O   0  0  0  0  0  0
  -24.6304  -31.8573   23.1989 C   0  0  0  0  0  0
  -25.9135  -32.4760   23.8327 C   0  0  1  0  0  0
  -27.2104  -27.2564   20.1240 C   0  0  0  0  0  0
  -25.5932  -33.8565   24.2255 N   0  0  0  0  0  0
  -23.4261  -30.4812   21.5440 C   0  0  2  0  0  0
  -24.8696  -28.9299   20.1094 C   0  0  0  0  0  0
  -22.7506  -29.4614   22.4923 C   0  0  0  0  0  0
  -18.0307  -28.1384   22.8495 C   0  0  0  0  0  0
  -24.1499  -36.7292   23.2636 C   0  0  0  0  0  0
  -25.9728  -30.7652   21.3829 C   0  0  0  0  0  0
  -26.0406  -29.3885   20.7242 C   0  0  0  0  0  0
  -27.2085  -28.5613   20.7266 C   0  0  0  0  0  0
  -26.0202  -26.8809   19.4572 C   0  0  0  0  0  0
  -24.8645  -27.6837   19.4684 C   0  0  0  0  0  0
  -23.6424  -29.8175   20.1597 C   0  0  0  0  0  0
  -25.4124  -36.3074   24.0324 C   0  0  1  0  0  0
  -20.5905  -28.3706   23.1275 C   0  0  2  0  0  0
  -20.6795  -26.9423   22.5415 C   0  0  0  0  0  0
  -19.5755  -26.6382   21.5233 C   0  0  0  0  0  0
  -18.1937  -26.7928   22.1641 C   0  0  0  0  0  0
  -19.1556  -28.8868   23.2875 C   0  0  0  0  0  0
  -18.9474  -30.1474   23.8879 C   0  0  0  0  0  0
  -17.6468  -30.6582   24.0569 C   0  0  0  0  0  0
  -25.9064  -34.9444   23.5097 C   0  0  0  0  0  0
  -16.5362  -29.9077   23.6330 C   0  0  0  0  0  0
  -16.7294  -28.6501   23.0346 C   0  0  0  0  0  0
  -26.4494  -31.6578   25.0721 C   0  0  0  0  0  0
  -25.3702  -31.3760   26.1427 C   0  0  0  0  0  0
  -27.0348  -30.2989   24.6224 C   0  0  0  0  0  0
  -27.6045  -32.4327   25.7484 C   0  0  0  0  0  0
  -27.5586  -37.1797   24.8454 C   0  0  0  0  0  0
  -21.4219  -29.3047   22.3656 N   0  0  0  0  0  0
  -26.4301  -37.3770   23.9398 N   0  0  0  0  0  0
  -24.6959  -31.0531   22.0972 N   0  0  0  0  0  0
  -23.4216  -28.8159   23.3020 O   0  0  0  0  0  0
  -28.3145  -26.3735   20.2146 O   0  0  0  0  0  0
  -26.5636  -34.8914   22.4663 O   0  0  0  0  0  0
  -23.5457  -32.1411   23.7277 O   0  0  0  0  0  0
  -29.5017  -18.5285   20.6924 C   0  0  0  0  0  0
  -31.5969  -17.6793   19.8557 C   0  0  0  0  0  0
  -29.9231  -19.9189   20.5145 C   0  0  0  0  0  0
  -32.0611  -18.9997   19.6971 C   0  0  0  0  0  0
  -31.2686  -20.1160   20.0720 C   0  0  0  0  0  0
  -30.3312  -17.3647   20.3995 C   0  0  0  0  0  0
  -29.0399  -21.1420   20.9357 C   0  0  0  0  0  0
  -33.4622  -19.1805   19.1300 C   0  0  0  0  0  0
  -31.9155  -21.5063   20.0422 C   0  0  0  0  0  0
  -28.8083  -23.7639   20.8201 C   0  0  0  0  0  0
  -28.2399  -24.9135   19.8393 C   0  0  0  0  0  0
  -29.9328  -15.9318   20.6042 N   0  0  0  0  0  0
  -29.1128  -22.3628   20.2849 N   0  0  0  0  0  0
  -28.2937  -21.0084   21.9069 O   0  0  0  0  0  0
  -31.4660  -12.5519   19.1740 H   0  0  0  0  0  0
  -30.3535  -11.4857   19.9764 H   0  0  0  0  0  0
  -29.7964  -11.7183   17.5287 H   0  0  0  0  0  0
  -29.6355  -13.4480   17.7142 H   0  0  0  0  0  0
  -27.8972  -11.2751   18.9268 H   0  0  0  0  0  0
  -27.3785  -12.4962   17.7979 H   0  0  0  0  0  0
  -27.6236  -14.2513   19.4402 H   0  0  0  0  0  0
  -28.7135  -12.2239   21.4525 H   0  0  0  0  0  0
  -28.4146  -13.9170   21.7615 H   0  0  0  0  0  0
  -25.2773   -9.5693   22.4762 H   0  0  0  0  0  0
  -24.0014   -7.4640   22.7467 H   0  0  0  0  0  0
  -21.0856   -8.8786   19.8961 H   0  0  0  0  0  0
  -22.3711  -10.9684   19.6169 H   0  0  0  0  0  0
  -21.2015   -7.6154   23.9731 H   0  0  0  0  0  0
  -21.1478   -6.0522   25.9081 H   0  0  0  0  0  0
  -22.0597   -2.7622   23.2838 H   0  0  0  0  0  0
  -22.4040  -11.9900   22.4848 H   0  0  0  0  0  0
  -21.1058  -13.1284   22.2602 H   0  0  0  0  0  0
  -24.6534  -15.8485   20.5343 H   0  0  0  0  0  0
  -26.2626  -15.6353   20.0690 H   0  0  0  0  0  0
  -26.7191  -32.5406   23.1061 H   0  0  0  0  0  0
  -25.0056  -33.9703   25.0386 H   0  0  0  0  0  0
  -22.7217  -31.3039   21.4002 H   0  0  0  0  0  0
  -23.3763  -35.9620   23.3290 H   0  0  0  0  0  0
  -24.3593  -36.8930   22.2052 H   0  0  0  0  0  0
  -23.7255  -37.6490   23.6677 H   0  0  0  0  0  0
  -26.1159  -31.5259   20.6144 H   0  0  0  0  0  0
  -26.8491  -30.8104   22.0182 H   0  0  0  0  0  0
  -28.1009  -28.9024   21.2321 H   0  0  0  0  0  0
  -25.9326  -25.9535   18.9162 H   0  0  0  0  0  0
  -23.9688  -27.3334   18.9731 H   0  0  0  0  0  0
  -23.7662  -30.5937   19.4037 H   0  0  0  0  0  0
  -22.7598  -29.2520   19.8555 H   0  0  0  0  0  0
  -25.1306  -36.1924   25.0818 H   0  0  0  0  0  0
  -21.0013  -28.3294   24.1392 H   0  0  0  0  0  0
  -20.5738  -26.2318   23.3631 H   0  0  0  0  0  0
  -21.6657  -26.7460   22.1182 H   0  0  0  0  0  0
  -19.6916  -25.6299   21.1254 H   0  0  0  0  0  0
  -19.6676  -27.3207   20.6776 H   0  0  0  0  0  0
  -17.4219  -26.6717   21.4023 H   0  0  0  0  0  0
  -18.0295  -26.0064   22.9025 H   0  0  0  0  0  0
  -19.7947  -30.7306   24.2218 H   0  0  0  0  0  0
  -17.5017  -31.6252   24.5187 H   0  0  0  0  0  0
  -15.5358  -30.2969   23.7654 H   0  0  0  0  0  0
  -15.8702  -28.0818   22.7042 H   0  0  0  0  0  0
  -24.5838  -30.7163   25.7736 H   0  0  0  0  0  0
  -24.8939  -32.2957   26.4839 H   0  0  0  0  0  0
  -25.7975  -30.8910   27.0215 H   0  0  0  0  0  0
  -26.2944  -29.6722   24.1235 H   0  0  0  0  0  0
  -27.4008  -29.7255   25.4752 H   0  0  0  0  0  0
  -27.8827  -30.4245   23.9491 H   0  0  0  0  0  0
  -27.2636  -33.3616   26.2066 H   0  0  0  0  0  0
  -28.3837  -32.6912   25.0305 H   0  0  0  0  0  0
  -28.0737  -31.8462   26.5396 H   0  0  0  0  0  0
  -28.2591  -38.0104   24.7510 H   0  0  0  0  0  0
  -28.1097  -36.2636   24.6274 H   0  0  0  0  0  0
  -27.2301  -37.1427   25.8855 H   0  0  0  0  0  0
  -20.9422  -29.8763   21.6843 H   0  0  0  0  0  0
  -26.0184  -38.2847   24.1391 H   0  0  0  0  0  0
  -28.5104  -18.3603   21.0893 H   0  0  0  0  0  0
  -32.2797  -16.9048   19.5519 H   0  0  0  0  0  0
  -33.8061  -18.2854   18.6108 H   0  0  0  0  0  0
  -34.1721  -19.3905   19.9304 H   0  0  0  0  0  0
  -33.4970  -19.9984   18.4092 H   0  0  0  0  0  0
  -31.6441  -22.0466   19.1351 H   0  0  0  0  0  0
  -33.0025  -21.4776   20.0952 H   0  0  0  0  0  0
  -31.6283  -22.1008   20.9098 H   0  0  0  0  0  0
  -28.1421  -23.6807   21.6801 H   0  0  0  0  0  0
  -29.7536  -24.1283   21.2229 H   0  0  0  0  0  0
  -27.2257  -24.5939   19.6232 H   0  0  0  0  0  0
  -28.7701  -24.8348   18.8891 H   0  0  0  0  0  0
  -28.9637  -15.7885   20.8413 H   0  0  0  0  0  0
  -29.6721  -22.3452   19.4439 H   0  0  0  0  0  0
  1 25  1  0  0  0
  1 30  2  0  0  0
  1 82  1  0  0  0
  2  3  1  0  0  0
  2 25  1  0  0  0
  2 85  1  0  0  0
  2 86  1  0  0  0
  3  4  1  0  0  0
  3 87  1  0  0  0
  3 88  1  0  0  0
  4  5  1  0  0  0
  4 89  1  0  0  0
  4 90  1  0  0  0
  5  6  1  0  0  0
  5 26  1  0  0  0
  5 91  1  0  0  0
  6 25  1  0  0  0
  6 92  1  0  0  0
  6 93  1  0  0  0
  7  8  2  0  0  0
  7 26  1  0  0  0
  7 29  1  0  0  0
  8  9  1  0  0  0
  8 22  1  0  0  0
  9 10  1  0  0  0
  9 27  2  0  0  0
 10 11  2  0  0  0
 10 15  1  0  0  0
 11 12  1  0  0  0
 11 94  1  0  0  0
 12 13  2  0  0  0
 12 95  1  0  0  0
 13 14  1  0  0  0
 13 31  1  0  0  0
 14 15  2  0  0  0
 14 96  1  0  0  0
 15 97  1  0  0  0
 16 17  2  0  0  0
 16 21  1  0  0  0
 16 31  1  0  0  0
 17 18  1  0  0  0
 17 98  1  0  0  0
 18 19  2  0  0  0
 18 99  1  0  0  0
 19 20  1  0  0  0
 19 24  1  0  0  0
 20 21  2  0  0  0
 20100  1  0  0  0
 21 23  1  0  0  0
 22 28  1  0  0  0
 22 32  2  0  0  0
 26 27  1  0  0  0
 28101  1  0  0  0
 28102  1  0  0  0
 29103  1  0  0  0
 29104  1  0  0  0
 33 34  1  0  0  0
 33 66  1  0  0  0
 33 70  2  0  0  0
 34 36  1  0  0  0
 34 59  1  0  0  0
 34105  1  0  0  0
 35 44  2  0  0  0
 35 45  1  0  0  0
 35 68  1  0  0  0
 36 56  1  0  0  0
 36106  1  0  0  0
 37 39  1  0  0  0
 37 47  1  0  0  0
 37 66  1  0  0  0
 37107  1  0  0  0
 38 43  2  0  0  0
 38 46  1  0  0  0
 38 47  1  0  0  0
 39 64  1  0  0  0
 39 67  2  0  0  0
 40 52  1  0  0  0
 40 53  2  0  0  0
 40 58  1  0  0  0
 41108  1  0  0  0
 41109  1  0  0  0
 41110  1  0  0  0
 41 48  1  0  0  0
 42 43  1  0  0  0
 42 66  1  0  0  0
 42111  1  0  0  0
 42112  1  0  0  0
 43 44  1  0  0  0
 44113  1  0  0  0
 45 46  2  0  0  0
 45114  1  0  0  0
 46115  1  0  0  0
 47116  1  0  0  0
 47117  1  0  0  0
 48 56  1  0  0  0
 48 65  1  0  0  0
 48118  1  0  0  0
 49 50  1  0  0  0
 49 53  1  0  0  0
 49 64  1  0  0  0
 49119  1  0  0  0
 50 51  1  0  0  0
 50120  1  0  0  0
 50121  1  0  0  0
 51 52  1  0  0  0
 51122  1  0  0  0
 51123  1  0  0  0
 52124  1  0  0  0
 52125  1  0  0  0
 53 54  1  0  0  0
 54 55  2  0  0  0
 54126  1  0  0  0
 55 57  1  0  0  0
 55127  1  0  0  0
 56 69  2  0  0  0
 57 58  2  0  0  0
 57128  1  0  0  0
 58129  1  0  0  0
 59 60  1  0  0  0
 59 61  1  0  0  0
 59 62  1  0  0  0
 60130  1  0  0  0
 60131  1  0  0  0
 60132  1  0  0  0
 61133  1  0  0  0
 61134  1  0  0  0
 61135  1  0  0  0
 62136  1  0  0  0
 62137  1  0  0  0
 62138  1  0  0  0
 63 65  1  0  0  0
 63139  1  0  0  0
 63140  1  0  0  0
 63141  1  0  0  0
 64142  1  0  0  0
 65143  1  0  0  0
 68 81  1  0  0  0
 71 73  2  0  0  0
 71 76  1  0  0  0
 71144  1  0  0  0
 72 74  1  0  0  0
 72 76  2  0  0  0
 72145  1  0  0  0
 73 75  1  0  0  0
 73 77  1  0  0  0
 74 75  2  0  0  0
 74 78  1  0  0  0
 75 79  1  0  0  0
 76 82  1  0  0  0
 77 83  1  0  0  0
 77 84  2  0  0  0
 78146  1  0  0  0
 78147  1  0  0  0
 78148  1  0  0  0
 79149  1  0  0  0
 79150  1  0  0  0
 79151  1  0  0  0
 80 81  1  0  0  0
 80 83  1  0  0  0
 80152  1  0  0  0
 80153  1  0  0  0
 81154  1  0  0  0
 81155  1  0  0  0
 82156  1  0  0  0
 83157  1  0  0  0
M  ISO  4   1 100  68 101  81 101  82 100
M  END
> <chiral flag>
0

> <version>
0

> <s_m_source_file>
/data/baiqing/PycharmProjects/Reinvent-master-3.2/result/LINK_invent/BTK/process_docking_weight1_custom_product_contain_oxygen_bond_distance_aromatic_linkinvent_7_9_3/rearranged_h_0064.sdf

> <i_m_source_file_index>
36

> <r_mmod_Potential_Energy-OPLS-2005>
118.866996765137

> <r_mmod_Stretch_Energy-OPLS-2005>
129.903915405273

> <r_mmod_Bend_Energy-OPLS-2005>
169.947204589844

> <r_mmod_Torsional_Energy-OPLS-2005>
232.970993041992

> <r_mmod_Improper_Torsional_Energy-OPLS-2005>
5.82811832427979

> <r_mmod_Van_der_Waal_Energy-OPLS-2005>
165.412170410156

> <r_mmod_Electrostatic_Energy-OPLS-2005>
-442.656494140625

> <r_mmod_Solvation_Energy-OPLS-2005>
-231.427307128906

> <b_mmod_Minimization_Converged-OPLS-2005>
0

> <r_mmod_RMS_Derivative-OPLS-2005>
1.68655478954315

$$$$
36
                    3D
 Structure written by MMmdl.
154162  0  0  1  0            999 V2000
  -30.6730  -14.5117   20.5149 C   0  0  0  0  0  0
  -30.4273  -12.3214   19.4350 C   0  0  0  0  0  0
  -29.4929  -12.5041   18.2175 C   0  0  0  0  0  0
  -28.0160  -12.3606   18.6322 C   0  0  0  0  0  0
  -27.6599  -13.2128   19.8781 C   0  0  2  0  0  0
  -28.7020  -13.0169   21.0033 C   0  0  0  0  0  0
  -25.2599  -13.8200   20.5740 C   0  0  0  0  0  0
  -24.1832  -13.0476   20.9205 C   0  0  0  0  0  0
  -24.6383  -11.6936   20.8763 C   0  0  0  0  0  0
  -23.9037  -10.4323   21.0406 C   0  0  0  0  0  0
  -24.3590   -9.4235   21.9184 C   0  0  0  0  0  0
  -23.6281   -8.2259   22.0752 C   0  0  0  0  0  0
  -22.4269   -8.0285   21.3538 C   0  0  0  0  0  0
  -21.9891   -9.0260   20.4646 C   0  0  0  0  0  0
  -22.7208  -10.2153   20.3061 C   0  0  0  0  0  0
  -21.6854   -6.0736   22.5270 C   0  0  0  0  0  0
  -21.4017   -6.5631   23.8205 C   0  0  0  0  0  0
  -21.3656   -5.6782   24.9165 C   0  0  0  0  0  0
  -21.6043   -4.3045   24.7212 C   0  0  0  0  0  0
  -21.8821   -3.8143   23.4325 C   0  0  0  0  0  0
  -21.9200   -4.6968   22.3389 C   0  0  0  0  0  0
  -22.7841  -13.5281   21.1807 C   0  0  0  0  0  0
  -22.1673   -4.2144   21.0971 F   0  0  0  0  0  0
  -21.5621   -3.4536   25.7725 F   0  0  0  0  0  0
  -30.0334  -13.3123   20.4505 N   0  0  0  0  0  0
  -26.3028  -12.9369   20.3421 N   0  0  0  0  0  0
  -25.9316  -11.6519   20.5805 N   0  0  0  0  0  0
  -22.0435  -12.8320   22.0367 N   0  0  0  0  0  0
  -25.4346  -15.1914   20.4117 N   0  0  0  0  0  0
  -31.8156  -14.6862   20.0817 O   0  0  0  0  0  0
  -21.6645   -6.8872   21.4226 O   0  0  0  0  0  0
  -22.3516  -14.5543   20.6563 O   0  0  0  0  0  0
  -24.6149  -31.8676   23.2067 C   0  0  0  0  0  0
  -25.9055  -32.4823   23.8359 C   0  0  1  0  0  0
  -27.2378  -27.4420   20.1098 C   0  0  0  0  0  0
  -25.5916  -33.8616   24.2299 N   0  0  0  0  0  0
  -23.4012  -30.4924   21.5440 C   0  0  2  0  0  0
  -24.8514  -28.9540   20.1126 C   0  0  0  0  0  0
  -22.7389  -29.4691   22.4948 C   0  0  0  0  0  0
  -18.0268  -28.1389   22.8500 C   0  0  0  0  0  0
  -24.1488  -36.7318   23.2639 C   0  0  0  0  0  0
  -25.9266  -30.8406   21.3535 C   0  0  0  0  0  0
  -26.0083  -29.4731   20.7073 C   0  0  0  0  0  0
  -27.2074  -28.7253   20.7011 C   0  0  0  0  0  0
  -26.0683  -26.9340   19.5064 C   0  0  0  0  0  0
  -24.8768  -27.6845   19.5061 C   0  0  0  0  0  0
  -23.6100  -29.8170   20.1598 C   0  0  0  0  0  0
  -25.4102  -36.3103   24.0335 C   0  0  1  0  0  0
  -20.5864  -28.3688   23.1295 C   0  0  2  0  0  0
  -20.6763  -26.9422   22.5407 C   0  0  0  0  0  0
  -19.5738  -26.6399   21.5204 C   0  0  0  0  0  0
  -18.1919  -26.7938   22.1625 C   0  0  0  0  0  0
  -19.1518  -28.8847   23.2914 C   0  0  0  0  0  0
  -18.9454  -30.1450   23.8927 C   0  0  0  0  0  0
  -17.6451  -30.6600   24.0574 C   0  0  0  0  0  0
  -25.9031  -34.9480   23.5110 C   0  0  0  0  0  0
  -16.5343  -29.9106   23.6330 C   0  0  0  0  0  0
  -16.7253  -28.6524   23.0357 C   0  0  0  0  0  0
  -26.4477  -31.6603   25.0695 C   0  0  0  0  0  0
  -25.3761  -31.3731   26.1461 C   0  0  0  0  0  0
  -27.0294  -30.3030   24.6087 C   0  0  0  0  0  0
  -27.6031  -32.4330   25.7488 C   0  0  0  0  0  0
  -27.5569  -37.1821   24.8462 C   0  0  0  0  0  0
  -21.4119  -29.3074   22.3702 N   0  0  0  0  0  0
  -26.4275  -37.3794   23.9432 N   0  0  0  0  0  0
  -24.6661  -31.0810   22.0938 N   0  0  0  0  0  0
  -23.4176  -28.8224   23.2977 O   0  0  0  0  0  0
  -28.3920  -26.6923   20.1044 O   0  0  0  0  0  0
  -26.5579  -34.8927   22.4657 O   0  0  0  0  0  0
  -23.5350  -32.1411   23.7486 O   0  0  0  0  0  0
  -29.4433  -17.9922   20.8896 C   0  0  0  0  0  0
  -29.8576  -16.8395   18.7892 C   0  0  0  0  0  0
  -29.1998  -19.2173   20.2026 C   0  0  0  0  0  0
  -29.7731  -16.7963   20.1997 C   0  0  0  0  0  0
  -29.6072  -18.0352   18.0930 C   0  0  0  0  0  0
  -29.2731  -19.2166   18.7858 C   0  0  0  0  0  0
  -28.8235  -20.4608   20.9907 C   0  0  0  0  0  0
  -28.6268  -24.1974   20.1347 C   0  0  0  0  0  0
  -28.5451  -22.9379   21.0415 C   0  0  0  0  0  0
  -28.3485  -25.5067   20.9178 C   0  0  0  0  0  0
  -29.9151  -15.5578   20.9124 N   0  0  0  0  0  0
  -28.8428  -21.6594   20.3719 N   0  0  0  0  0  0
  -28.5386  -20.3653   22.1877 O   0  0  0  0  0  0
  -29.6697  -18.0432   16.7409 F   0  0  0  0  0  0
  -29.0260  -20.3367   18.0635 F   0  0  0  0  0  0
  -31.4685  -12.4326   19.1231 H   0  0  0  0  0  0
  -30.3496  -11.3144   19.8458 H   0  0  0  0  0  0
  -29.7369  -11.7833   17.4358 H   0  0  0  0  0  0
  -29.6521  -13.4899   17.7793 H   0  0  0  0  0  0
  -27.8314  -11.3067   18.8415 H   0  0  0  0  0  0
  -27.3617  -12.6195   17.8000 H   0  0  0  0  0  0
  -27.6961  -14.2566   19.5632 H   0  0  0  0  0  0
  -28.6796  -11.9895   21.3729 H   0  0  0  0  0  0
  -28.4666  -13.6443   21.8644 H   0  0  0  0  0  0
  -25.2724   -9.5730   22.4777 H   0  0  0  0  0  0
  -23.9994   -7.4652   22.7463 H   0  0  0  0  0  0
  -21.0827   -8.8757   19.8953 H   0  0  0  0  0  0
  -22.3635  -10.9684   19.6181 H   0  0  0  0  0  0
  -21.2014   -7.6144   23.9695 H   0  0  0  0  0  0
  -21.1473   -6.0521   25.9059 H   0  0  0  0  0  0
  -22.0604   -2.7607   23.2824 H   0  0  0  0  0  0
  -22.4000  -12.0051   22.4929 H   0  0  0  0  0  0
  -21.1018  -13.1336   22.2420 H   0  0  0  0  0  0
  -24.6683  -15.8502   20.5037 H   0  0  0  0  0  0
  -26.2922  -15.6246   20.0912 H   0  0  0  0  0  0
  -26.7147  -32.5544   23.1142 H   0  0  0  0  0  0
  -25.0114  -33.9756   25.0483 H   0  0  0  0  0  0
  -22.6914  -31.3102   21.4017 H   0  0  0  0  0  0
  -23.3720  -35.9678   23.3292 H   0  0  0  0  0  0
  -24.3576  -36.8930   22.2051 H   0  0  0  0  0  0
  -23.7258  -37.6535   23.6639 H   0  0  0  0  0  0
  -26.0332  -31.6040   20.5822 H   0  0  0  0  0  0
  -26.8169  -30.8996   21.9674 H   0  0  0  0  0  0
  -28.0992  -29.1276   21.1630 H   0  0  0  0  0  0
  -26.0855  -25.9611   19.0374 H   0  0  0  0  0  0
  -23.9905  -27.2817   19.0357 H   0  0  0  0  0  0
  -23.7109  -30.5865   19.3926 H   0  0  0  0  0  0
  -22.7363  -29.2296   19.8715 H   0  0  0  0  0  0
  -25.1282  -36.1933   25.0821 H   0  0  0  0  0  0
  -20.9989  -28.3265   24.1398 H   0  0  0  0  0  0
  -20.5655  -26.2311   23.3607 H   0  0  0  0  0  0
  -21.6636  -26.7457   22.1207 H   0  0  0  0  0  0
  -19.6888  -25.6306   21.1239 H   0  0  0  0  0  0
  -19.6659  -27.3216   20.6733 H   0  0  0  0  0  0
  -17.4192  -26.6694   21.4027 H   0  0  0  0  0  0
  -18.0312  -26.0067   22.9008 H   0  0  0  0  0  0
  -19.7922  -30.7279   24.2305 H   0  0  0  0  0  0
  -17.5002  -31.6276   24.5193 H   0  0  0  0  0  0
  -15.5346  -30.3034   23.7626 H   0  0  0  0  0  0
  -15.8653  -28.0860   22.7051 H   0  0  0  0  0  0
  -24.5925  -30.7072   25.7834 H   0  0  0  0  0  0
  -24.8980  -32.2907   26.4894 H   0  0  0  0  0  0
  -25.8141  -30.8933   27.0220 H   0  0  0  0  0  0
  -26.2828  -29.6803   24.1142 H   0  0  0  0  0  0
  -27.4042  -29.7256   25.4547 H   0  0  0  0  0  0
  -27.8674  -30.4317   23.9230 H   0  0  0  0  0  0
  -27.2607  -33.3607   26.2070 H   0  0  0  0  0  0
  -28.3852  -32.6920   25.0349 H   0  0  0  0  0  0
  -28.0676  -31.8462   26.5418 H   0  0  0  0  0  0
  -28.2600  -38.0110   24.7507 H   0  0  0  0  0  0
  -28.1047  -36.2642   24.6272 H   0  0  0  0  0  0
  -27.2301  -37.1468   25.8870 H   0  0  0  0  0  0
  -20.9249  -29.8826   21.6970 H   0  0  0  0  0  0
  -26.0138  -38.2868   24.1413 H   0  0  0  0  0  0
  -29.3713  -17.9712   21.9667 H   0  0  0  0  0  0
  -30.0891  -15.9547   18.2140 H   0  0  0  0  0  0
  -27.9090  -24.1101   19.3186 H   0  0  0  0  0  0
  -29.6134  -24.2643   19.6773 H   0  0  0  0  0  0
  -27.5481  -22.8759   21.4822 H   0  0  0  0  0  0
  -29.2431  -23.0554   21.8717 H   0  0  0  0  0  0
  -29.0995  -25.6234   21.7015 H   0  0  0  0  0  0
  -27.3978  -25.4159   21.4462 H   0  0  0  0  0  0
  -29.1451  -15.3200   21.5205 H   0  0  0  0  0  0
  -29.0641  -21.6616   19.3840 H   0  0  0  0  0  0
  1 25  1  0  0  0
  1 30  2  0  0  0
  1 81  1  0  0  0
  2  3  1  0  0  0
  2 25  1  0  0  0
  2 86  1  0  0  0
  2 87  1  0  0  0
  3  4  1  0  0  0
  3 88  1  0  0  0
  3 89  1  0  0  0
  4  5  1  0  0  0
  4 90  1  0  0  0
  4 91  1  0  0  0
  5  6  1  0  0  0
  5 26  1  0  0  0
  5 92  1  0  0  0
  6 25  1  0  0  0
  6 93  1  0  0  0
  6 94  1  0  0  0
  7  8  2  0  0  0
  7 26  1  0  0  0
  7 29  1  0  0  0
  8  9  1  0  0  0
  8 22  1  0  0  0
  9 10  1  0  0  0
  9 27  2  0  0  0
 10 11  2  0  0  0
 10 15  1  0  0  0
 11 12  1  0  0  0
 11 95  1  0  0  0
 12 13  2  0  0  0
 12 96  1  0  0  0
 13 14  1  0  0  0
 13 31  1  0  0  0
 14 15  2  0  0  0
 14 97  1  0  0  0
 15 98  1  0  0  0
 16 17  2  0  0  0
 16 21  1  0  0  0
 16 31  1  0  0  0
 17 18  1  0  0  0
 17 99  1  0  0  0
 18 19  2  0  0  0
 18100  1  0  0  0
 19 20  1  0  0  0
 19 24  1  0  0  0
 20 21  2  0  0  0
 20101  1  0  0  0
 21 23  1  0  0  0
 22 28  1  0  0  0
 22 32  2  0  0  0
 26 27  1  0  0  0
 28102  1  0  0  0
 28103  1  0  0  0
 29104  1  0  0  0
 29105  1  0  0  0
 33 34  1  0  0  0
 33 66  1  0  0  0
 33 70  2  0  0  0
 34 36  1  0  0  0
 34 59  1  0  0  0
 34106  1  0  0  0
 35 44  2  0  0  0
 35 45  1  0  0  0
 35 68  1  0  0  0
 36 56  1  0  0  0
 36107  1  0  0  0
 37 39  1  0  0  0
 37 47  1  0  0  0
 37 66  1  0  0  0
 37108  1  0  0  0
 38 43  2  0  0  0
 38 46  1  0  0  0
 38 47  1  0  0  0
 39 64  1  0  0  0
 39 67  2  0  0  0
 40 52  1  0  0  0
 40 53  2  0  0  0
 40 58  1  0  0  0
 41109  1  0  0  0
 41110  1  0  0  0
 41111  1  0  0  0
 41 48  1  0  0  0
 42 43  1  0  0  0
 42 66  1  0  0  0
 42112  1  0  0  0
 42113  1  0  0  0
 43 44  1  0  0  0
 44114  1  0  0  0
 45 46  2  0  0  0
 45115  1  0  0  0
 46116  1  0  0  0
 47117  1  0  0  0
 47118  1  0  0  0
 48 56  1  0  0  0
 48 65  1  0  0  0
 48119  1  0  0  0
 49 50  1  0  0  0
 49 53  1  0  0  0
 49 64  1  0  0  0
 49120  1  0  0  0
 50 51  1  0  0  0
 50121  1  0  0  0
 50122  1  0  0  0
 51 52  1  0  0  0
 51123  1  0  0  0
 51124  1  0  0  0
 52125  1  0  0  0
 52126  1  0  0  0
 53 54  1  0  0  0
 54 55  2  0  0  0
 54127  1  0  0  0
 55 57  1  0  0  0
 55128  1  0  0  0
 56 69  2  0  0  0
 57 58  2  0  0  0
 57129  1  0  0  0
 58130  1  0  0  0
 59 60  1  0  0  0
 59 61  1  0  0  0
 59 62  1  0  0  0
 60131  1  0  0  0
 60132  1  0  0  0
 60133  1  0  0  0
 61134  1  0  0  0
 61135  1  0  0  0
 61136  1  0  0  0
 62137  1  0  0  0
 62138  1  0  0  0
 62139  1  0  0  0
 63 65  1  0  0  0
 63140  1  0  0  0
 63141  1  0  0  0
 63142  1  0  0  0
 64143  1  0  0  0
 65144  1  0  0  0
 68 80  1  0  0  0
 71 73  2  0  0  0
 71 74  1  0  0  0
 71145  1  0  0  0
 72 74  2  0  0  0
 72 75  1  0  0  0
 72146  1  0  0  0
 73 76  1  0  0  0
 73 77  1  0  0  0
 74 81  1  0  0  0
 75 76  2  0  0  0
 75 84  1  0  0  0
 76 85  1  0  0  0
 77 82  1  0  0  0
 77 83  2  0  0  0
 78 79  1  0  0  0
 78 80  1  0  0  0
 78147  1  0  0  0
 78148  1  0  0  0
 79 82  1  0  0  0
 79149  1  0  0  0
 79150  1  0  0  0
 80151  1  0  0  0
 80152  1  0  0  0
 81153  1  0  0  0
 82154  1  0  0  0
M  ISO  4   1 100  68 101  80 101  81 100
M  END
> <chiral flag>
0

> <version>
0

> <s_m_source_file>
/data/baiqing/PycharmProjects/Reinvent-master-3.2/result/LINK_invent/BTK/process_docking_weight1_custom_product_contain_oxygen_bond_distance_aromatic_linkinvent_7_9_3/rearranged_h_0064.sdf

> <i_m_source_file_index>
37

> <r_mmod_Potential_Energy-OPLS-2005>
-70.2068023681641

> <r_mmod_Stretch_Energy-OPLS-2005>
40.2283058166504

> <r_mmod_Bend_Energy-OPLS-2005>
91.4025344848633

> <r_mmod_Torsional_Energy-OPLS-2005>
267.554595947266

> <r_mmod_Improper_Torsional_Energy-OPLS-2005>
6.19618558883667

> <r_mmod_Van_der_Waal_Energy-OPLS-2005>
153.640029907227

> <r_mmod_Electrostatic_Energy-OPLS-2005>
-425.311553955078

> <r_mmod_Solvation_Energy-OPLS-2005>
-219.693756103516

> <b_mmod_Minimization_Converged-OPLS-2005>
0

> <r_mmod_RMS_Derivative-OPLS-2005>
2.98744082450867

$$$$
37
                    3D
 Structure written by MMmdl.
152161  0  0  1  0            999 V2000
  -30.4825  -15.0737   20.3858 C   0  0  0  0  0  0
  -30.4394  -12.6639   19.5333 C   0  0  0  0  0  0
  -29.5330  -12.5566   18.2826 C   0  0  0  0  0  0
  -28.0705  -12.3163   18.6953 C   0  0  0  0  0  0
  -27.6272  -13.2606   19.8421 C   0  0  2  0  0  0
  -28.6599  -13.3331   20.9883 C   0  0  0  0  0  0
  -25.2445  -13.8241   20.5724 C   0  0  0  0  0  0
  -24.1771  -13.0450   20.9234 C   0  0  0  0  0  0
  -24.6401  -11.6938   20.8754 C   0  0  0  0  0  0
  -23.9092  -10.4301   21.0405 C   0  0  0  0  0  0
  -24.3636   -9.4211   21.9181 C   0  0  0  0  0  0
  -23.6303   -8.2252   22.0752 C   0  0  0  0  0  0
  -22.4283   -8.0291   21.3546 C   0  0  0  0  0  0
  -21.9925   -9.0269   20.4650 C   0  0  0  0  0  0
  -22.7262  -10.2143   20.3056 C   0  0  0  0  0  0
  -21.6859   -6.0741   22.5281 C   0  0  0  0  0  0
  -21.4020   -6.5642   23.8216 C   0  0  0  0  0  0
  -21.3659   -5.6791   24.9177 C   0  0  0  0  0  0
  -21.6043   -4.3055   24.7224 C   0  0  0  0  0  0
  -21.8819   -3.8148   23.4345 C   0  0  0  0  0  0
  -21.9196   -4.6969   22.3402 C   0  0  0  0  0  0
  -22.7791  -13.5213   21.1890 C   0  0  0  0  0  0
  -22.1663   -4.2157   21.0979 F   0  0  0  0  0  0
  -21.5625   -3.4536   25.7734 F   0  0  0  0  0  0
  -29.9302  -13.7792   20.3997 N   0  0  0  0  0  0
  -26.2875  -12.9490   20.3252 N   0  0  0  0  0  0
  -25.9339  -11.6606   20.5738 N   0  0  0  0  0  0
  -22.0444  -12.8199   22.0448 N   0  0  0  0  0  0
  -25.4113  -15.1971   20.4155 N   0  0  0  0  0  0
  -31.6621  -15.1364   20.0166 O   0  0  0  0  0  0
  -21.6645   -6.8888   21.4243 O   0  0  0  0  0  0
  -22.3471  -14.5513   20.6727 O   0  0  0  0  0  0
  -24.6491  -31.8332   23.1774 C   0  0  0  0  0  0
  -25.9228  -32.4635   23.8202 C   0  0  1  0  0  0
  -27.2259  -27.0526   20.1683 C   0  0  0  0  0  0
  -25.5942  -33.8446   24.2120 N   0  0  0  0  0  0
  -23.4580  -30.4451   21.5224 C   0  0  2  0  0  0
  -24.9113  -28.8492   20.1028 C   0  0  0  0  0  0
  -22.7596  -29.4479   22.4812 C   0  0  0  0  0  0
  -18.0309  -28.1399   22.8471 C   0  0  0  0  0  0
  -24.1491  -36.7233   23.2647 C   0  0  0  0  0  0
  -26.0154  -30.6796   21.3874 C   0  0  0  0  0  0
  -26.0847  -29.2813   20.7309 C   0  0  0  0  0  0
  -27.2342  -28.3972   20.7463 C   0  0  0  0  0  0
  -26.0320  -26.7337   19.4902 C   0  0  0  0  0  0
  -24.9026  -27.5938   19.4652 C   0  0  0  0  0  0
  -23.6892  -29.7608   20.1451 C   0  0  0  0  0  0
  -25.4128  -36.2997   24.0308 C   0  0  1  0  0  0
  -20.5923  -28.3727   23.1219 C   0  0  2  0  0  0
  -20.6784  -26.9419   22.5409 C   0  0  0  0  0  0
  -19.5762  -26.6374   21.5214 C   0  0  0  0  0  0
  -18.1945  -26.7935   22.1623 C   0  0  0  0  0  0
  -19.1567  -28.8883   23.2835 C   0  0  0  0  0  0
  -18.9484  -30.1478   23.8863 C   0  0  0  0  0  0
  -17.6480  -30.6593   24.0558 C   0  0  0  0  0  0
  -25.9081  -34.9376   23.5033 C   0  0  0  0  0  0
  -16.5370  -29.9084   23.6338 C   0  0  0  0  0  0
  -16.7293  -28.6504   23.0356 C   0  0  0  0  0  0
  -26.4529  -31.6546   25.0687 C   0  0  0  0  0  0
  -25.3694  -31.3768   26.1373 C   0  0  0  0  0  0
  -27.0415  -30.2931   24.6340 C   0  0  0  0  0  0
  -27.6040  -32.4338   25.7481 C   0  0  0  0  0  0
  -27.5572  -37.1770   24.8465 C   0  0  0  0  0  0
  -21.4279  -29.3033   22.3574 N   0  0  0  0  0  0
  -26.4283  -37.3721   23.9408 N   0  0  0  0  0  0
  -24.7274  -31.0108   22.0840 N   0  0  0  0  0  0
  -23.4202  -28.8053   23.3012 O   0  0  0  0  0  0
  -28.2865  -26.0654   20.3275 O   0  0  0  0  0  0
  -26.5689  -34.8893   22.4627 O   0  0  0  0  0  0
  -23.5593  -32.1249   23.6945 O   0  0  0  0  0  0
  -28.3722  -20.0429   18.7106 C   0  0  0  0  0  0
  -28.3704  -18.7407   18.1538 C   0  0  0  0  0  0
  -29.4747  -19.0842   20.6458 C   0  0  0  0  0  0
  -28.9446  -20.3341   19.9671 C   0  0  0  0  0  0
  -29.4642  -17.6672   20.0998 C   0  0  0  0  0  0
  -28.8950  -17.6011   18.8084 C   0  0  0  0  0  0
  -30.1335  -22.5937   20.2164 C   0  0  0  0  0  0
  -29.9589  -24.1488   20.1620 C   0  0  0  0  0  0
  -27.9218  -23.0276   20.2896 C   0  0  0  0  0  0
  -28.4880  -24.5476   19.8611 C   0  0  1  0  0  0
  -28.9946  -21.8707   20.3153 N   0  0  0  0  0  0
  -29.7487  -16.2668   20.7467 N   0  0  0  0  0  0
  -31.2632  -22.0940   20.1928 O   0  0  0  0  0  0
  -28.7866  -16.3982   18.1922 F   0  0  0  0  0  0
  -31.4731  -12.8261   19.2250 H   0  0  0  0  0  0
  -30.4458  -11.7224   20.0849 H   0  0  0  0  0  0
  -29.8755  -11.7514   17.6314 H   0  0  0  0  0  0
  -29.6041  -13.4767   17.7003 H   0  0  0  0  0  0
  -27.9887  -11.2789   19.0215 H   0  0  0  0  0  0
  -27.4078  -12.4189   17.8355 H   0  0  0  0  0  0
  -27.5781  -14.2535   19.3940 H   0  0  0  0  0  0
  -28.7693  -12.3677   21.4848 H   0  0  0  0  0  0
  -28.3305  -14.0379   21.7531 H   0  0  0  0  0  0
  -25.2783   -9.5683   22.4757 H   0  0  0  0  0  0
  -24.0014   -7.4640   22.7464 H   0  0  0  0  0  0
  -21.0860   -8.8793   19.8953 H   0  0  0  0  0  0
  -22.3724  -10.9684   19.6165 H   0  0  0  0  0  0
  -21.2012   -7.6151   23.9723 H   0  0  0  0  0  0
  -21.1480   -6.0519   25.9080 H   0  0  0  0  0  0
  -22.0595   -2.7612   23.2842 H   0  0  0  0  0  0
  -22.4070  -11.9869   22.4846 H   0  0  0  0  0  0
  -21.1056  -13.1210   22.2647 H   0  0  0  0  0  0
  -24.6379  -15.8455   20.5155 H   0  0  0  0  0  0
  -26.2516  -15.6340   20.0589 H   0  0  0  0  0  0
  -26.7291  -32.5211   23.0920 H   0  0  0  0  0  0
  -25.0039  -33.9542   25.0235 H   0  0  0  0  0  0
  -22.7646  -31.2726   21.3581 H   0  0  0  0  0  0
  -23.3757  -35.9560   23.3287 H   0  0  0  0  0  0
  -24.3570  -36.8897   22.2066 H   0  0  0  0  0  0
  -23.7245  -37.6417   23.6710 H   0  0  0  0  0  0
  -26.1800  -31.4278   20.6108 H   0  0  0  0  0  0
  -26.8817  -30.7337   22.0351 H   0  0  0  0  0  0
  -28.1225  -28.7182   21.2718 H   0  0  0  0  0  0
  -25.9446  -25.7646   19.0199 H   0  0  0  0  0  0
  -24.0058  -27.2581   18.9627 H   0  0  0  0  0  0
  -23.8290  -30.5300   19.3847 H   0  0  0  0  0  0
  -22.8028  -29.2042   19.8363 H   0  0  0  0  0  0
  -25.1320  -36.1807   25.0799 H   0  0  0  0  0  0
  -21.0018  -28.3330   24.1339 H   0  0  0  0  0  0
  -20.5660  -26.2345   23.3639 H   0  0  0  0  0  0
  -21.6651  -26.7402   22.1220 H   0  0  0  0  0  0
  -19.6920  -25.6275   21.1266 H   0  0  0  0  0  0
  -19.6704  -27.3164   20.6728 H   0  0  0  0  0  0
  -17.4212  -26.6677   21.4029 H   0  0  0  0  0  0
  -18.0341  -26.0086   22.9028 H   0  0  0  0  0  0
  -19.7959  -30.7304   24.2216 H   0  0  0  0  0  0
  -17.5030  -31.6269   24.5168 H   0  0  0  0  0  0
  -15.5367  -30.2976   23.7679 H   0  0  0  0  0  0
  -15.8694  -28.0812   22.7087 H   0  0  0  0  0  0
  -24.5871  -30.7120   25.7691 H   0  0  0  0  0  0
  -24.8890  -32.2964   26.4725 H   0  0  0  0  0  0
  -25.7955  -30.8983   27.0200 H   0  0  0  0  0  0
  -26.3056  -29.6624   24.1340 H   0  0  0  0  0  0
  -27.3987  -29.7269   25.4951 H   0  0  0  0  0  0
  -27.8975  -30.4145   23.9699 H   0  0  0  0  0  0
  -27.2613  -33.3661   26.1982 H   0  0  0  0  0  0
  -28.3889  -32.6865   25.0340 H   0  0  0  0  0  0
  -28.0667  -31.8520   26.5464 H   0  0  0  0  0  0
  -28.2577  -38.0078   24.7505 H   0  0  0  0  0  0
  -28.1080  -36.2604   24.6297 H   0  0  0  0  0  0
  -27.2288  -37.1420   25.8868 H   0  0  0  0  0  0
  -20.9506  -29.8728   21.6726 H   0  0  0  0  0  0
  -26.0138  -38.2783   24.1412 H   0  0  0  0  0  0
  -27.9582  -20.8488   18.1204 H   0  0  0  0  0  0
  -27.9333  -18.6050   17.1753 H   0  0  0  0  0  0
  -29.8980  -19.2175   21.6308 H   0  0  0  0  0  0
  -30.6366  -24.5798   19.4255 H   0  0  0  0  0  0
  -30.2531  -24.5403   21.1352 H   0  0  0  0  0  0
  -27.0948  -22.7420   19.6395 H   0  0  0  0  0  0
  -27.5014  -23.0870   21.2939 H   0  0  0  0  0  0
  -28.3831  -24.5938   18.7766 H   0  0  0  0  0  0
  -28.9796  -16.0011   21.3432 H   0  0  0  0  0  0
  1 25  1  0  0  0
  1 30  2  0  0  0
  1 82  1  0  0  0
  2  3  1  0  0  0
  2 25  1  0  0  0
  2 85  1  0  0  0
  2 86  1  0  0  0
  3  4  1  0  0  0
  3 87  1  0  0  0
  3 88  1  0  0  0
  4  5  1  0  0  0
  4 89  1  0  0  0
  4 90  1  0  0  0
  5  6  1  0  0  0
  5 26  1  0  0  0
  5 91  1  0  0  0
  6 25  1  0  0  0
  6 92  1  0  0  0
  6 93  1  0  0  0
  7  8  2  0  0  0
  7 26  1  0  0  0
  7 29  1  0  0  0
  8  9  1  0  0  0
  8 22  1  0  0  0
  9 10  1  0  0  0
  9 27  2  0  0  0
 10 11  2  0  0  0
 10 15  1  0  0  0
 11 12  1  0  0  0
 11 94  1  0  0  0
 12 13  2  0  0  0
 12 95  1  0  0  0
 13 14  1  0  0  0
 13 31  1  0  0  0
 14 15  2  0  0  0
 14 96  1  0  0  0
 15 97  1  0  0  0
 16 17  2  0  0  0
 16 21  1  0  0  0
 16 31  1  0  0  0
 17 18  1  0  0  0
 17 98  1  0  0  0
 18 19  2  0  0  0
 18 99  1  0  0  0
 19 20  1  0  0  0
 19 24  1  0  0  0
 20 21  2  0  0  0
 20100  1  0  0  0
 21 23  1  0  0  0
 22 28  1  0  0  0
 22 32  2  0  0  0
 26 27  1  0  0  0
 28101  1  0  0  0
 28102  1  0  0  0
 29103  1  0  0  0
 29104  1  0  0  0
 33 34  1  0  0  0
 33 66  1  0  0  0
 33 70  2  0  0  0
 34 36  1  0  0  0
 34 59  1  0  0  0
 34105  1  0  0  0
 35 44  2  0  0  0
 35 45  1  0  0  0
 35 68  1  0  0  0
 36 56  1  0  0  0
 36106  1  0  0  0
 37 39  1  0  0  0
 37 47  1  0  0  0
 37 66  1  0  0  0
 37107  1  0  0  0
 38 43  2  0  0  0
 38 46  1  0  0  0
 38 47  1  0  0  0
 39 64  1  0  0  0
 39 67  2  0  0  0
 40 52  1  0  0  0
 40 53  2  0  0  0
 40 58  1  0  0  0
 41108  1  0  0  0
 41109  1  0  0  0
 41110  1  0  0  0
 41 48  1  0  0  0
 42 43  1  0  0  0
 42 66  1  0  0  0
 42111  1  0  0  0
 42112  1  0  0  0
 43 44  1  0  0  0
 44113  1  0  0  0
 45 46  2  0  0  0
 45114  1  0  0  0
 46115  1  0  0  0
 47116  1  0  0  0
 47117  1  0  0  0
 48 56  1  0  0  0
 48 65  1  0  0  0
 48118  1  0  0  0
 49 50  1  0  0  0
 49 53  1  0  0  0
 49 64  1  0  0  0
 49119  1  0  0  0
 50 51  1  0  0  0
 50120  1  0  0  0
 50121  1  0  0  0
 51 52  1  0  0  0
 51122  1  0  0  0
 51123  1  0  0  0
 52124  1  0  0  0
 52125  1  0  0  0
 53 54  1  0  0  0
 54 55  2  0  0  0
 54126  1  0  0  0
 55 57  1  0  0  0
 55127  1  0  0  0
 56 69  2  0  0  0
 57 58  2  0  0  0
 57128  1  0  0  0
 58129  1  0  0  0
 59 60  1  0  0  0
 59 61  1  0  0  0
 59 62  1  0  0  0
 60130  1  0  0  0
 60131  1  0  0  0
 60132  1  0  0  0
 61133  1  0  0  0
 61134  1  0  0  0
 61135  1  0  0  0
 62136  1  0  0  0
 62137  1  0  0  0
 62138  1  0  0  0
 63 65  1  0  0  0
 63139  1  0  0  0
 63140  1  0  0  0
 63141  1  0  0  0
 64142  1  0  0  0
 65143  1  0  0  0
 68 80  1  0  0  0
 71 72  2  0  0  0
 71 74  1  0  0  0
 71144  1  0  0  0
 72 76  1  0  0  0
 72145  1  0  0  0
 73 74  2  0  0  0
 73 75  1  0  0  0
 73146  1  0  0  0
 74 81  1  0  0  0
 75 76  2  0  0  0
 75 82  1  0  0  0
 76 84  1  0  0  0
 77 78  1  0  0  0
 77 81  1  0  0  0
 77 83  2  0  0  0
 78 80  1  0  0  0
 78147  1  0  0  0
 78148  1  0  0  0
 79 80  1  0  0  0
 79 81  1  0  0  0
 79149  1  0  0  0
 79150  1  0  0  0
 80151  1  0  0  0
 82152  1  0  0  0
M  ISO  4   1 100  68 101  80 101  82 100
M  END
> <chiral flag>
0

> <version>
0

> <s_m_source_file>
/data/baiqing/PycharmProjects/Reinvent-master-3.2/result/LINK_invent/BTK/process_docking_weight1_custom_product_contain_oxygen_bond_distance_aromatic_linkinvent_7_9_3/rearranged_h_0064.sdf

> <i_m_source_file_index>
38

> <r_mmod_Potential_Energy-OPLS-2005>
832.290588378906

> <r_mmod_Stretch_Energy-OPLS-2005>
345.398803710938

> <r_mmod_Bend_Energy-OPLS-2005>
390.353973388672

> <r_mmod_Torsional_Energy-OPLS-2005>
317.869812011719

> <r_mmod_Improper_Torsional_Energy-OPLS-2005>
6.72812843322754

> <r_mmod_Van_der_Waal_Energy-OPLS-2005>
115.968795776367

> <r_mmod_Electrostatic_Energy-OPLS-2005>
-394.094360351562

> <r_mmod_Solvation_Energy-OPLS-2005>
-233.346130371094

> <b_mmod_Minimization_Converged-OPLS-2005>
0

> <r_mmod_RMS_Derivative-OPLS-2005>
0.666677534580231

$$$$
38
                    3D
 Structure written by MMmdl.
165174  0  0  1  0            999 V2000
  -30.6779  -14.4833   20.5513 C   0  0  0  0  0  0
  -30.4153  -12.3031   19.4259 C   0  0  0  0  0  0
  -29.4971  -12.5055   18.2033 C   0  0  0  0  0  0
  -28.0127  -12.3773   18.6065 C   0  0  0  0  0  0
  -27.6566  -13.2095   19.8700 C   0  0  2  0  0  0
  -28.6974  -12.9827   20.9875 C   0  0  0  0  0  0
  -25.2553  -13.8161   20.5656 C   0  0  0  0  0  0
  -24.1816  -13.0436   20.9195 C   0  0  0  0  0  0
  -24.6379  -11.6904   20.8732 C   0  0  0  0  0  0
  -23.9046  -10.4291   21.0403 C   0  0  0  0  0  0
  -24.3602   -9.4210   21.9166 C   0  0  0  0  0  0
  -23.6304   -8.2236   22.0723 C   0  0  0  0  0  0
  -22.4274   -8.0278   21.3534 C   0  0  0  0  0  0
  -21.9905   -9.0258   20.4644 C   0  0  0  0  0  0
  -22.7217  -10.2150   20.3068 C   0  0  0  0  0  0
  -21.6861   -6.0742   22.5284 C   0  0  0  0  0  0
  -21.4011   -6.5636   23.8222 C   0  0  0  0  0  0
  -21.3662   -5.6776   24.9170 C   0  0  0  0  0  0
  -21.6066   -4.3044   24.7222 C   0  0  0  0  0  0
  -21.8801   -3.8147   23.4331 C   0  0  0  0  0  0
  -21.9177   -4.6969   22.3393 C   0  0  0  0  0  0
  -22.7831  -13.5232   21.1861 C   0  0  0  0  0  0
  -22.1643   -4.2161   21.0974 F   0  0  0  0  0  0
  -21.5631   -3.4519   25.7732 F   0  0  0  0  0  0
  -30.0237  -13.2968   20.4336 N   0  0  0  0  0  0
  -26.2987  -12.9341   20.3327 N   0  0  0  0  0  0
  -25.9318  -11.6498   20.5756 N   0  0  0  0  0  0
  -22.0454  -12.8285   22.0453 N   0  0  0  0  0  0
  -25.4246  -15.1884   20.4028 N   0  0  0  0  0  0
  -31.8113  -14.6650   20.0946 O   0  0  0  0  0  0
  -21.6629   -6.8887   21.4252 O   0  0  0  0  0  0
  -22.3533  -14.5519   20.6661 O   0  0  0  0  0  0
  -24.6158  -31.8641   23.2139 C   0  0  0  0  0  0
  -25.9056  -32.4817   23.8406 C   0  0  1  0  0  0
  -27.2438  -27.4323   20.0872 C   0  0  0  0  0  0
  -25.5900  -33.8607   24.2347 N   0  0  0  0  0  0
  -23.4065  -30.4915   21.5492 C   0  0  2  0  0  0
  -24.8572  -28.9642   20.1065 C   0  0  0  0  0  0
  -22.7425  -29.4637   22.4945 C   0  0  0  0  0  0
  -18.0247  -28.1384   22.8460 C   0  0  0  0  0  0
  -24.1470  -36.7307   23.2650 C   0  0  0  0  0  0
  -25.9353  -30.8336   21.3671 C   0  0  0  0  0  0
  -26.0148  -29.4663   20.7120 C   0  0  0  0  0  0
  -27.2052  -28.7023   20.7110 C   0  0  0  0  0  0
  -26.0660  -26.9479   19.4751 C   0  0  0  0  0  0
  -24.8796  -27.7025   19.4844 C   0  0  0  0  0  0
  -23.6219  -29.8337   20.1592 C   0  0  0  0  0  0
  -25.4093  -36.3111   24.0348 C   0  0  1  0  0  0
  -20.5850  -28.3670   23.1288 C   0  0  2  0  0  0
  -20.6743  -26.9413   22.5388 C   0  0  0  0  0  0
  -19.5724  -26.6400   21.5176 C   0  0  0  0  0  0
  -18.1906  -26.7933   22.1592 C   0  0  0  0  0  0
  -19.1508  -28.8830   23.2872 C   0  0  0  0  0  0
  -18.9450  -30.1436   23.8893 C   0  0  0  0  0  0
  -17.6466  -30.6594   24.0560 C   0  0  0  0  0  0
  -25.9021  -34.9474   23.5142 C   0  0  0  0  0  0
  -16.5343  -29.9104   23.6334 C   0  0  0  0  0  0
  -16.7245  -28.6517   23.0342 C   0  0  0  0  0  0
  -26.4558  -31.6595   25.0709 C   0  0  0  0  0  0
  -25.3931  -31.3625   26.1534 C   0  0  0  0  0  0
  -27.0437  -30.3061   24.6064 C   0  0  0  0  0  0
  -27.6108  -32.4372   25.7456 C   0  0  0  0  0  0
  -27.5577  -37.1786   24.8463 C   0  0  0  0  0  0
  -21.4136  -29.3040   22.3699 N   0  0  0  0  0  0
  -26.4260  -37.3809   23.9451 N   0  0  0  0  0  0
  -24.6711  -31.0765   22.1033 N   0  0  0  0  0  0
  -23.4187  -28.8175   23.2983 O   0  0  0  0  0  0
  -28.3820  -26.6564   20.1846 O   0  0  0  0  0  0
  -26.5568  -34.8928   22.4698 O   0  0  0  0  0  0
  -23.5350  -32.1350   23.7542 O   0  0  0  0  0  0
  -31.7245  -18.5096   22.4092 C   0  0  0  0  0  0
  -31.0335  -19.5543   21.7699 C   0  0  0  0  0  0
  -29.6447  -17.9155   20.6291 C   0  0  0  0  0  0
  -31.3778  -17.1636   22.1891 C   0  0  0  0  0  0
  -29.9789  -19.2835   20.8669 C   0  0  0  0  0  0
  -30.3431  -16.8506   21.2699 C   0  0  0  0  0  0
  -27.9472  -20.4358   20.1748 C   0  0  0  0  0  0
  -29.9273  -22.8544   19.1618 C   0  0  0  0  0  0
  -27.2478  -21.5241   19.3638 C   0  0  0  0  0  0
  -30.1983  -21.3528   19.5005 C   0  0  0  0  0  0
  -27.5646  -22.9103   19.9413 C   0  0  0  0  0  0
  -32.1173  -16.0943   22.9799 C   0  0  0  0  0  0
  -28.4542  -24.7150   18.4785 C   0  0  0  0  0  0
  -28.9760  -26.0804   19.0138 C   0  0  0  0  0  0
  -29.3049  -20.3874   20.2054 N   0  0  0  0  0  0
  -28.7333  -23.4925   19.2823 N   0  0  0  0  0  0
  -29.9377  -15.4975   21.0477 N   0  0  0  0  0  0
  -27.2270  -19.6542   20.8033 O   0  0  0  0  0  0
  -30.8951  -23.4633   18.6935 O   0  0  0  0  0  0
  -31.4666  -12.3822   19.1414 H   0  0  0  0  0  0
  -30.2939  -11.2964   19.8282 H   0  0  0  0  0  0
  -29.7435  -11.7788   17.4282 H   0  0  0  0  0  0
  -29.6738  -13.4915   17.7654 H   0  0  0  0  0  0
  -27.8040  -11.3212   18.7851 H   0  0  0  0  0  0
  -27.3731  -12.6674   17.7710 H   0  0  0  0  0  0
  -27.7051  -14.2587   19.5864 H   0  0  0  0  0  0
  -28.6759  -11.9432   21.3183 H   0  0  0  0  0  0
  -28.4596  -13.5686   21.8754 H   0  0  0  0  0  0
  -25.2756   -9.5681   22.4715 H   0  0  0  0  0  0
  -24.0024   -7.4618   22.7429 H   0  0  0  0  0  0
  -21.0819   -8.8774   19.8984 H   0  0  0  0  0  0
  -22.3648  -10.9680   19.6173 H   0  0  0  0  0  0
  -21.2004   -7.6143   23.9743 H   0  0  0  0  0  0
  -21.1518   -6.0490   25.9079 H   0  0  0  0  0  0
  -22.0586   -2.7620   23.2809 H   0  0  0  0  0  0
  -22.4051  -11.9992   22.4945 H   0  0  0  0  0  0
  -21.1072  -13.1365   22.2613 H   0  0  0  0  0  0
  -24.6482  -15.8341   20.4988 H   0  0  0  0  0  0
  -26.2657  -15.6329   20.0531 H   0  0  0  0  0  0
  -26.7126  -32.5582   23.1162 H   0  0  0  0  0  0
  -25.0150  -33.9767   25.0565 H   0  0  0  0  0  0
  -22.6969  -31.3093   21.4140 H   0  0  0  0  0  0
  -23.3738  -35.9629   23.3295 H   0  0  0  0  0  0
  -24.3562  -36.8936   22.2065 H   0  0  0  0  0  0
  -23.7197  -37.6492   23.6683 H   0  0  0  0  0  0
  -26.0501  -31.6021   20.6020 H   0  0  0  0  0  0
  -26.8214  -30.8859   21.9881 H   0  0  0  0  0  0
  -28.0940  -29.0805   21.1996 H   0  0  0  0  0  0
  -26.0323  -25.9743   19.0246 H   0  0  0  0  0  0
  -23.9916  -27.3040   19.0144 H   0  0  0  0  0  0
  -23.7475  -30.6150   19.4086 H   0  0  0  0  0  0
  -22.7453  -29.2643   19.8488 H   0  0  0  0  0  0
  -25.1268  -36.1960   25.0829 H   0  0  0  0  0  0
  -20.9922  -28.3245   24.1413 H   0  0  0  0  0  0
  -20.5638  -26.2292   23.3574 H   0  0  0  0  0  0
  -21.6628  -26.7471   22.1201 H   0  0  0  0  0  0
  -19.6902  -25.6320   21.1190 H   0  0  0  0  0  0
  -19.6665  -27.3230   20.6720 H   0  0  0  0  0  0
  -17.4183  -26.6643   21.4002 H   0  0  0  0  0  0
  -18.0324  -26.0083   22.8995 H   0  0  0  0  0  0
  -19.7942  -30.7212   24.2295 H   0  0  0  0  0  0
  -17.5048  -31.6287   24.5170 H   0  0  0  0  0  0
  -15.5360  -30.3020   23.7678 H   0  0  0  0  0  0
  -15.8624  -28.0861   22.7059 H   0  0  0  0  0  0
  -24.6012  -30.7073   25.7908 H   0  0  0  0  0  0
  -24.9268  -32.2754   26.5232 H   0  0  0  0  0  0
  -25.8374  -30.8619   27.0147 H   0  0  0  0  0  0
  -26.2948  -29.6709   24.1311 H   0  0  0  0  0  0
  -27.4469  -29.7398   25.4474 H   0  0  0  0  0  0
  -27.8671  -30.4425   23.9044 H   0  0  0  0  0  0
  -27.2661  -33.3611   26.2121 H   0  0  0  0  0  0
  -28.3837  -32.7043   25.0242 H   0  0  0  0  0  0
  -28.0904  -31.8499   26.5301 H   0  0  0  0  0  0
  -28.2577  -38.0107   24.7565 H   0  0  0  0  0  0
  -28.1073  -36.2633   24.6198 H   0  0  0  0  0  0
  -27.2312  -37.1353   25.8869 H   0  0  0  0  0  0
  -20.9293  -29.8796   21.6953 H   0  0  0  0  0  0
  -26.0138  -38.2866   24.1518 H   0  0  0  0  0  0
  -32.5229  -18.7473   23.0988 H   0  0  0  0  0  0
  -31.3231  -20.5695   22.0027 H   0  0  0  0  0  0
  -28.8444  -17.6785   19.9412 H   0  0  0  0  0  0
  -26.1718  -21.3501   19.3963 H   0  0  0  0  0  0
  -27.5228  -21.4503   18.3094 H   0  0  0  0  0  0
  -31.1783  -21.3594   19.9731 H   0  0  0  0  0  0
  -30.3820  -20.8885   18.5312 H   0  0  0  0  0  0
  -27.7495  -22.8604   21.0182 H   0  0  0  0  0  0
  -26.6911  -23.5598   19.8503 H   0  0  0  0  0  0
  -32.5392  -16.5075   23.8983 H   0  0  0  0  0  0
  -32.9329  -15.6845   22.3859 H   0  0  0  0  0  0
  -31.4619  -15.2744   23.2743 H   0  0  0  0  0  0
  -28.9484  -24.5803   17.5130 H   0  0  0  0  0  0
  -27.4134  -24.7533   18.1726 H   0  0  0  0  0  0
  -28.9336  -26.8192   18.2140 H   0  0  0  0  0  0
  -30.0382  -25.9745   19.2355 H   0  0  0  0  0  0
  -28.9676  -15.2782   21.2245 H   0  0  0  0  0  0
  1 25  1  0  0  0
  1 30  2  0  0  0
  1 87  1  0  0  0
  2  3  1  0  0  0
  2 25  1  0  0  0
  2 90  1  0  0  0
  2 91  1  0  0  0
  3  4  1  0  0  0
  3 92  1  0  0  0
  3 93  1  0  0  0
  4  5  1  0  0  0
  4 94  1  0  0  0
  4 95  1  0  0  0
  5  6  1  0  0  0
  5 26  1  0  0  0
  5 96  1  0  0  0
  6 25  1  0  0  0
  6 97  1  0  0  0
  6 98  1  0  0  0
  7  8  2  0  0  0
  7 26  1  0  0  0
  7 29  1  0  0  0
  8  9  1  0  0  0
  8 22  1  0  0  0
  9 10  1  0  0  0
  9 27  2  0  0  0
 10 11  2  0  0  0
 10 15  1  0  0  0
 11 12  1  0  0  0
 11 99  1  0  0  0
 12 13  2  0  0  0
 12100  1  0  0  0
 13 14  1  0  0  0
 13 31  1  0  0  0
 14 15  2  0  0  0
 14101  1  0  0  0
 15102  1  0  0  0
 16 17  2  0  0  0
 16 21  1  0  0  0
 16 31  1  0  0  0
 17 18  1  0  0  0
 17103  1  0  0  0
 18 19  2  0  0  0
 18104  1  0  0  0
 19 20  1  0  0  0
 19 24  1  0  0  0
 20 21  2  0  0  0
 20105  1  0  0  0
 21 23  1  0  0  0
 22 28  1  0  0  0
 22 32  2  0  0  0
 26 27  1  0  0  0
 28106  1  0  0  0
 28107  1  0  0  0
 29108  1  0  0  0
 29109  1  0  0  0
 33 34  1  0  0  0
 33 66  1  0  0  0
 33 70  2  0  0  0
 34 36  1  0  0  0
 34 59  1  0  0  0
 34110  1  0  0  0
 35 44  2  0  0  0
 35 45  1  0  0  0
 35 68  1  0  0  0
 36 56  1  0  0  0
 36111  1  0  0  0
 37 39  1  0  0  0
 37 47  1  0  0  0
 37 66  1  0  0  0
 37112  1  0  0  0
 38 43  2  0  0  0
 38 46  1  0  0  0
 38 47  1  0  0  0
 39 64  1  0  0  0
 39 67  2  0  0  0
 40 52  1  0  0  0
 40 53  2  0  0  0
 40 58  1  0  0  0
 41113  1  0  0  0
 41114  1  0  0  0
 41115  1  0  0  0
 41 48  1  0  0  0
 42 43  1  0  0  0
 42 66  1  0  0  0
 42116  1  0  0  0
 42117  1  0  0  0
 43 44  1  0  0  0
 44118  1  0  0  0
 45 46  2  0  0  0
 45119  1  0  0  0
 46120  1  0  0  0
 47121  1  0  0  0
 47122  1  0  0  0
 48 56  1  0  0  0
 48 65  1  0  0  0
 48123  1  0  0  0
 49 50  1  0  0  0
 49 53  1  0  0  0
 49 64  1  0  0  0
 49124  1  0  0  0
 50 51  1  0  0  0
 50125  1  0  0  0
 50126  1  0  0  0
 51 52  1  0  0  0
 51127  1  0  0  0
 51128  1  0  0  0
 52129  1  0  0  0
 52130  1  0  0  0
 53 54  1  0  0  0
 54 55  2  0  0  0
 54131  1  0  0  0
 55 57  1  0  0  0
 55132  1  0  0  0
 56 69  2  0  0  0
 57 58  2  0  0  0
 57133  1  0  0  0
 58134  1  0  0  0
 59 60  1  0  0  0
 59 61  1  0  0  0
 59 62  1  0  0  0
 60135  1  0  0  0
 60136  1  0  0  0
 60137  1  0  0  0
 61138  1  0  0  0
 61139  1  0  0  0
 61140  1  0  0  0
 62141  1  0  0  0
 62142  1  0  0  0
 62143  1  0  0  0
 63 65  1  0  0  0
 63144  1  0  0  0
 63145  1  0  0  0
 63146  1  0  0  0
 64147  1  0  0  0
 65148  1  0  0  0
 68 84  1  0  0  0
 71 72  2  0  0  0
 71 74  1  0  0  0
 71149  1  0  0  0
 72 75  1  0  0  0
 72150  1  0  0  0
 73 75  2  0  0  0
 73 76  1  0  0  0
 73151  1  0  0  0
 74 76  2  0  0  0
 74 82  1  0  0  0
 75 85  1  0  0  0
 76 87  1  0  0  0
 77 79  1  0  0  0
 77 85  1  0  0  0
 77 88  2  0  0  0
 78 80  1  0  0  0
 78 86  1  0  0  0
 78 89  2  0  0  0
 79 81  1  0  0  0
 79152  1  0  0  0
 79153  1  0  0  0
 80 85  1  0  0  0
 80154  1  0  0  0
 80155  1  0  0  0
 81 86  1  0  0  0
 81156  1  0  0  0
 81157  1  0  0  0
 82158  1  0  0  0
 82159  1  0  0  0
 82160  1  0  0  0
 83 84  1  0  0  0
 83 86  1  0  0  0
 83161  1  0  0  0
 83162  1  0  0  0
 84163  1  0  0  0
 84164  1  0  0  0
 87165  1  0  0  0
M  ISO  4   1 100  68 101  84 101  87 100
M  END
> <chiral flag>
0

> <version>
0

> <s_m_source_file>
/data/baiqing/PycharmProjects/Reinvent-master-3.2/result/LINK_invent/BTK/process_docking_weight1_custom_product_contain_oxygen_bond_distance_aromatic_linkinvent_7_9_3/rearranged_h_0064.sdf

> <i_m_source_file_index>
39

> <r_mmod_Potential_Energy-OPLS-2005>
43.8396034240723

> <r_mmod_Stretch_Energy-OPLS-2005>
50.9545593261719

> <r_mmod_Bend_Energy-OPLS-2005>
162.113998413086

> <r_mmod_Torsional_Energy-OPLS-2005>
308.791412353516

> <r_mmod_Improper_Torsional_Energy-OPLS-2005>
5.29205703735352

> <r_mmod_Van_der_Waal_Energy-OPLS-2005>
175.45866394043

> <r_mmod_Electrostatic_Energy-OPLS-2005>
-435.396911621094

> <r_mmod_Solvation_Energy-OPLS-2005>
-239.895431518555

> <b_mmod_Minimization_Converged-OPLS-2005>
0

> <r_mmod_RMS_Derivative-OPLS-2005>
4.34568309783936

$$$$
39
                    3D
 Structure written by MMmdl.
156165  0  0  1  0            999 V2000
  -30.6141  -14.7298   20.4538 C   0  0  0  0  0  0
  -30.4297  -12.4379   19.4872 C   0  0  0  0  0  0
  -29.5152  -12.5143   18.2440 C   0  0  0  0  0  0
  -28.0391  -12.3439   18.6501 C   0  0  0  0  0  0
  -27.6473  -13.2353   19.8593 C   0  0  2  0  0  0
  -28.6881  -13.1551   20.9996 C   0  0  0  0  0  0
  -25.2526  -13.8210   20.5710 C   0  0  0  0  0  0
  -24.1815  -13.0448   20.9201 C   0  0  0  0  0  0
  -24.6408  -11.6928   20.8741 C   0  0  0  0  0  0
  -23.9084  -10.4302   21.0403 C   0  0  0  0  0  0
  -24.3627   -9.4216   21.9183 C   0  0  0  0  0  0
  -23.6299   -8.2254   22.0748 C   0  0  0  0  0  0
  -22.4280   -8.0293   21.3540 C   0  0  0  0  0  0
  -21.9920   -9.0270   20.4644 C   0  0  0  0  0  0
  -22.7255  -10.2146   20.3054 C   0  0  0  0  0  0
  -21.6854   -6.0742   22.5285 C   0  0  0  0  0  0
  -21.4025   -6.5643   23.8221 C   0  0  0  0  0  0
  -21.3661   -5.6791   24.9177 C   0  0  0  0  0  0
  -21.6039   -4.3053   24.7228 C   0  0  0  0  0  0
  -21.8819   -3.8152   23.4350 C   0  0  0  0  0  0
  -21.9192   -4.6971   22.3406 C   0  0  0  0  0  0
  -22.7835  -13.5230   21.1861 C   0  0  0  0  0  0
  -22.1661   -4.2157   21.0984 F   0  0  0  0  0  0
  -21.5618   -3.4534   25.7739 F   0  0  0  0  0  0
  -29.9984  -13.4972   20.4317 N   0  0  0  0  0  0
  -26.2964  -12.9427   20.3307 N   0  0  0  0  0  0
  -25.9340  -11.6562   20.5749 N   0  0  0  0  0  0
  -22.0476  -12.8227   22.0417 N   0  0  0  0  0  0
  -25.4207  -15.1937   20.4169 N   0  0  0  0  0  0
  -31.7787  -14.8389   20.0589 O   0  0  0  0  0  0
  -21.6638   -6.8891   21.4248 O   0  0  0  0  0  0
  -22.3524  -14.5534   20.6699 O   0  0  0  0  0  0
  -24.6329  -31.8548   23.1990 C   0  0  0  0  0  0
  -25.9150  -32.4748   23.8331 C   0  0  1  0  0  0
  -27.2129  -27.2455   20.1230 C   0  0  0  0  0  0
  -25.5942  -33.8550   24.2250 N   0  0  0  0  0  0
  -23.4289  -30.4791   21.5434 C   0  0  2  0  0  0
  -24.8753  -28.9300   20.1066 C   0  0  0  0  0  0
  -22.7514  -29.4600   22.4914 C   0  0  0  0  0  0
  -18.0292  -28.1394   22.8482 C   0  0  0  0  0  0
  -24.1489  -36.7277   23.2640 C   0  0  0  0  0  0
  -25.9773  -30.7606   21.3842 C   0  0  0  0  0  0
  -26.0476  -29.3835   20.7243 C   0  0  0  0  0  0
  -27.2157  -28.5512   20.7278 C   0  0  0  0  0  0
  -26.0234  -26.8840   19.4469 C   0  0  0  0  0  0
  -24.8696  -27.6892   19.4568 C   0  0  0  0  0  0
  -23.6466  -29.8172   20.1584 C   0  0  0  0  0  0
  -25.4117  -36.3062   24.0322 C   0  0  1  0  0  0
  -20.5898  -28.3702   23.1268 C   0  0  2  0  0  0
  -20.6777  -26.9420   22.5409 C   0  0  0  0  0  0
  -19.5751  -26.6386   21.5213 C   0  0  0  0  0  0
  -18.1933  -26.7935   22.1629 C   0  0  0  0  0  0
  -19.1547  -28.8868   23.2866 C   0  0  0  0  0  0
  -18.9468  -30.1470   23.8885 C   0  0  0  0  0  0
  -17.6465  -30.6592   24.0562 C   0  0  0  0  0  0
  -25.9060  -34.9434   23.5087 C   0  0  0  0  0  0
  -16.5354  -29.9088   23.6335 C   0  0  0  0  0  0
  -16.7278  -28.6505   23.0351 C   0  0  0  0  0  0
  -26.4506  -31.6585   25.0732 C   0  0  0  0  0  0
  -25.3712  -31.3746   26.1439 C   0  0  0  0  0  0
  -27.0362  -30.2998   24.6247 C   0  0  0  0  0  0
  -27.6059  -32.4330   25.7509 C   0  0  0  0  0  0
  -27.5573  -37.1797   24.8466 C   0  0  0  0  0  0
  -21.4220  -29.3044   22.3657 N   0  0  0  0  0  0
  -26.4289  -37.3764   23.9408 N   0  0  0  0  0  0
  -24.6989  -31.0498   22.0981 N   0  0  0  0  0  0
  -23.4207  -28.8135   23.3012 O   0  0  0  0  0  0
  -28.2922  -26.3243   20.2145 O   0  0  0  0  0  0
  -26.5635  -34.8911   22.4658 O   0  0  0  0  0  0
  -23.5478  -32.1383   23.7281 O   0  0  0  0  0  0
  -29.6464  -17.0535   18.6505 C   0  0  0  0  0  0
  -29.4272  -18.1935   17.8588 C   0  0  0  0  0  0
  -29.6531  -18.4843   20.6229 C   0  0  0  0  0  0
  -29.4393  -19.6899   19.8206 C   0  0  0  0  0  0
  -29.7675  -17.1422   20.0525 C   0  0  0  0  0  0
  -29.3243  -19.4827   18.4183 C   0  0  0  0  0  0
  -30.2799  -23.3402   20.3662 C   0  0  0  0  0  0
  -30.5938  -21.8099   20.3749 C   0  0  0  0  0  0
  -28.3029  -22.0980   20.2296 C   0  0  0  0  0  0
  -28.7947  -23.5810   20.5776 C   0  0  2  0  0  0
  -28.0872  -24.8638   19.8671 C   0  0  0  0  0  0
  -29.4420  -21.1020   20.3139 N   0  0  0  0  0  0
  -29.1436  -20.5422   17.5295 N   0  0  0  0  0  0
  -29.8759  -15.8575   20.7890 N   0  0  0  0  0  0
  -31.1179  -24.2411   20.2285 O   0  0  0  0  0  0
  -31.7397  -21.3432   20.4520 O   0  0  0  0  0  0
  -31.4753  -12.5422   19.1926 H   0  0  0  0  0  0
  -30.3525  -11.4570   19.9585 H   0  0  0  0  0  0
  -29.7937  -11.7473   17.5204 H   0  0  0  0  0  0
  -29.6514  -13.4726   17.7410 H   0  0  0  0  0  0
  -27.8892  -11.2937   18.9031 H   0  0  0  0  0  0
  -27.3856  -12.5482   17.8008 H   0  0  0  0  0  0
  -27.6479  -14.2606   19.4887 H   0  0  0  0  0  0
  -28.7122  -12.1536   21.4319 H   0  0  0  0  0  0
  -28.4220  -13.8318   21.8132 H   0  0  0  0  0  0
  -25.2772   -9.5683   22.4758 H   0  0  0  0  0  0
  -24.0000   -7.4644   22.7470 H   0  0  0  0  0  0
  -21.0843   -8.8798   19.8961 H   0  0  0  0  0  0
  -22.3714  -10.9681   19.6162 H   0  0  0  0  0  0
  -21.2028   -7.6152   23.9729 H   0  0  0  0  0  0
  -21.1474   -6.0517   25.9076 H   0  0  0  0  0  0
  -22.0593   -2.7616   23.2844 H   0  0  0  0  0  0
  -22.4083  -11.9892   22.4820 H   0  0  0  0  0  0
  -21.1096  -13.1256   22.2617 H   0  0  0  0  0  0
  -24.6521  -15.8453   20.5314 H   0  0  0  0  0  0
  -26.2717  -15.6383   20.0959 H   0  0  0  0  0  0
  -26.7217  -32.5390   23.1070 H   0  0  0  0  0  0
  -25.0065  -33.9686   25.0377 H   0  0  0  0  0  0
  -22.7251  -31.3018   21.3998 H   0  0  0  0  0  0
  -23.3748  -35.9613   23.3305 H   0  0  0  0  0  0
  -24.3570  -36.8900   22.2053 H   0  0  0  0  0  0
  -23.7251  -37.6481   23.6664 H   0  0  0  0  0  0
  -26.1207  -31.5208   20.6148 H   0  0  0  0  0  0
  -26.8536  -30.8076   22.0190 H   0  0  0  0  0  0
  -28.1066  -28.8874   21.2394 H   0  0  0  0  0  0
  -25.9394  -25.9543   18.9056 H   0  0  0  0  0  0
  -23.9774  -27.3442   18.9528 H   0  0  0  0  0  0
  -23.7692  -30.5945   19.4037 H   0  0  0  0  0  0
  -22.7640  -29.2513   19.8531 H   0  0  0  0  0  0
  -25.1304  -36.1900   25.0815 H   0  0  0  0  0  0
  -20.9986  -28.3280   24.1389 H   0  0  0  0  0  0
  -20.5678  -26.2313   23.3614 H   0  0  0  0  0  0
  -21.6643  -26.7438   22.1204 H   0  0  0  0  0  0
  -19.6909  -25.6293   21.1250 H   0  0  0  0  0  0
  -19.6689  -27.3189   20.6737 H   0  0  0  0  0  0
  -17.4201  -26.6678   21.4033 H   0  0  0  0  0  0
  -18.0336  -26.0081   22.9033 H   0  0  0  0  0  0
  -19.7940  -30.7292   24.2244 H   0  0  0  0  0  0
  -17.5015  -31.6269   24.5171 H   0  0  0  0  0  0
  -15.5355  -30.2983   23.7667 H   0  0  0  0  0  0
  -15.8677  -28.0821   22.7072 H   0  0  0  0  0  0
  -24.5898  -30.7085   25.7757 H   0  0  0  0  0  0
  -24.8886  -32.2918   26.4826 H   0  0  0  0  0  0
  -25.8010  -30.8946   27.0239 H   0  0  0  0  0  0
  -26.2959  -29.6738   24.1248 H   0  0  0  0  0  0
  -27.4004  -29.7273   25.4789 H   0  0  0  0  0  0
  -27.8854  -30.4265   23.9529 H   0  0  0  0  0  0
  -27.2668  -33.3640   26.2063 H   0  0  0  0  0  0
  -28.3880  -32.6875   25.0342 H   0  0  0  0  0  0
  -28.0711  -31.8466   26.5443 H   0  0  0  0  0  0
  -28.2599  -38.0086   24.7497 H   0  0  0  0  0  0
  -28.1064  -36.2616   24.6313 H   0  0  0  0  0  0
  -27.2287  -37.1469   25.8869 H   0  0  0  0  0  0
  -20.9414  -29.8761   21.6852 H   0  0  0  0  0  0
  -26.0162  -38.2837   24.1401 H   0  0  0  0  0  0
  -29.6921  -16.0938   18.1549 H   0  0  0  0  0  0
  -29.3401  -18.0586   16.7893 H   0  0  0  0  0  0
  -29.7455  -18.5971   21.6935 H   0  0  0  0  0  0
  -27.5200  -21.7935   20.9244 H   0  0  0  0  0  0
  -27.8528  -22.0801   19.2383 H   0  0  0  0  0  0
  -28.6784  -23.7118   21.6532 H   0  0  0  0  0  0
  -27.0399  -24.6311   20.0462 H   0  0  0  0  0  0
  -28.2254  -24.7750   18.7890 H   0  0  0  0  0  0
  -28.8568  -20.3129   16.5828 H   0  0  0  0  0  0
  -28.6865  -21.3792   17.8667 H   0  0  0  0  0  0
  -29.0839  -15.6586   21.3821 H   0  0  0  0  0  0
  1 25  1  0  0  0
  1 30  2  0  0  0
  1 84  1  0  0  0
  2  3  1  0  0  0
  2 25  1  0  0  0
  2 87  1  0  0  0
  2 88  1  0  0  0
  3  4  1  0  0  0
  3 89  1  0  0  0
  3 90  1  0  0  0
  4  5  1  0  0  0
  4 91  1  0  0  0
  4 92  1  0  0  0
  5  6  1  0  0  0
  5 26  1  0  0  0
  5 93  1  0  0  0
  6 25  1  0  0  0
  6 94  1  0  0  0
  6 95  1  0  0  0
  7  8  2  0  0  0
  7 26  1  0  0  0
  7 29  1  0  0  0
  8  9  1  0  0  0
  8 22  1  0  0  0
  9 10  1  0  0  0
  9 27  2  0  0  0
 10 11  2  0  0  0
 10 15  1  0  0  0
 11 12  1  0  0  0
 11 96  1  0  0  0
 12 13  2  0  0  0
 12 97  1  0  0  0
 13 14  1  0  0  0
 13 31  1  0  0  0
 14 15  2  0  0  0
 14 98  1  0  0  0
 15 99  1  0  0  0
 16 17  2  0  0  0
 16 21  1  0  0  0
 16 31  1  0  0  0
 17 18  1  0  0  0
 17100  1  0  0  0
 18 19  2  0  0  0
 18101  1  0  0  0
 19 20  1  0  0  0
 19 24  1  0  0  0
 20 21  2  0  0  0
 20102  1  0  0  0
 21 23  1  0  0  0
 22 28  1  0  0  0
 22 32  2  0  0  0
 26 27  1  0  0  0
 28103  1  0  0  0
 28104  1  0  0  0
 29105  1  0  0  0
 29106  1  0  0  0
 33 34  1  0  0  0
 33 66  1  0  0  0
 33 70  2  0  0  0
 34 36  1  0  0  0
 34 59  1  0  0  0
 34107  1  0  0  0
 35 44  2  0  0  0
 35 45  1  0  0  0
 35 68  1  0  0  0
 36 56  1  0  0  0
 36108  1  0  0  0
 37 39  1  0  0  0
 37 47  1  0  0  0
 37 66  1  0  0  0
 37109  1  0  0  0
 38 43  2  0  0  0
 38 46  1  0  0  0
 38 47  1  0  0  0
 39 64  1  0  0  0
 39 67  2  0  0  0
 40 52  1  0  0  0
 40 53  2  0  0  0
 40 58  1  0  0  0
 41110  1  0  0  0
 41111  1  0  0  0
 41112  1  0  0  0
 41 48  1  0  0  0
 42 43  1  0  0  0
 42 66  1  0  0  0
 42113  1  0  0  0
 42114  1  0  0  0
 43 44  1  0  0  0
 44115  1  0  0  0
 45 46  2  0  0  0
 45116  1  0  0  0
 46117  1  0  0  0
 47118  1  0  0  0
 47119  1  0  0  0
 48 56  1  0  0  0
 48 65  1  0  0  0
 48120  1  0  0  0
 49 50  1  0  0  0
 49 53  1  0  0  0
 49 64  1  0  0  0
 49121  1  0  0  0
 50 51  1  0  0  0
 50122  1  0  0  0
 50123  1  0  0  0
 51 52  1  0  0  0
 51124  1  0  0  0
 51125  1  0  0  0
 52126  1  0  0  0
 52127  1  0  0  0
 53 54  1  0  0  0
 54 55  2  0  0  0
 54128  1  0  0  0
 55 57  1  0  0  0
 55129  1  0  0  0
 56 69  2  0  0  0
 57 58  2  0  0  0
 57130  1  0  0  0
 58131  1  0  0  0
 59 60  1  0  0  0
 59 61  1  0  0  0
 59 62  1  0  0  0
 60132  1  0  0  0
 60133  1  0  0  0
 60134  1  0  0  0
 61135  1  0  0  0
 61136  1  0  0  0
 61137  1  0  0  0
 62138  1  0  0  0
 62139  1  0  0  0
 62140  1  0  0  0
 63 65  1  0  0  0
 63141  1  0  0  0
 63142  1  0  0  0
 63143  1  0  0  0
 64144  1  0  0  0
 65145  1  0  0  0
 68 81  1  0  0  0
 71 72  2  0  0  0
 71 75  1  0  0  0
 71146  1  0  0  0
 72 76  1  0  0  0
 72147  1  0  0  0
 73 74  1  0  0  0
 73 75  2  0  0  0
 73148  1  0  0  0
 74 76  2  0  0  0
 74 82  1  0  0  0
 75 84  1  0  0  0
 76 83  1  0  0  0
 77 78  1  0  0  0
 77 80  1  0  0  0
 77 85  2  0  0  0
 78 82  1  0  0  0
 78 86  2  0  0  0
 79 80  1  0  0  0
 79 82  1  0  0  0
 79149  1  0  0  0
 79150  1  0  0  0
 80 81  1  0  0  0
 80151  1  0  0  0
 81152  1  0  0  0
 81153  1  0  0  0
 83154  1  0  0  0
 83155  1  0  0  0
 84156  1  0  0  0
M  ISO  4   1 100  68 101  81 101  84 100
M  END
> <chiral flag>
0

> <version>
0

> <s_m_source_file>
/data/baiqing/PycharmProjects/Reinvent-master-3.2/result/LINK_invent/BTK/process_docking_weight1_custom_product_contain_oxygen_bond_distance_aromatic_linkinvent_7_9_3/rearranged_h_0064.sdf

> <i_m_source_file_index>
40

> <r_mmod_Potential_Energy-OPLS-2005>
246.077087402344

> <r_mmod_Stretch_Energy-OPLS-2005>
131.434753417969

> <r_mmod_Bend_Energy-OPLS-2005>
202.22492980957

> <r_mmod_Torsional_Energy-OPLS-2005>
302.611022949219

> <r_mmod_Improper_Torsional_Energy-OPLS-2005>
10.3734445571899

> <r_mmod_Van_der_Waal_Energy-OPLS-2005>
137.669967651367

> <r_mmod_Electrostatic_Energy-OPLS-2005>
-347.697509765625

> <r_mmod_Solvation_Energy-OPLS-2005>
-278.805938720703

> <b_mmod_Minimization_Converged-OPLS-2005>
0

> <r_mmod_RMS_Derivative-OPLS-2005>
1.05603241920471

$$$$
40
                    3D
 Structure written by MMmdl.
155163  0  0  1  0            999 V2000
  -30.5910  -14.8025   20.4131 C   0  0  0  0  0  0
  -30.4346  -12.4818   19.4900 C   0  0  0  0  0  0
  -29.5175  -12.5032   18.2466 C   0  0  0  0  0  0
  -28.0430  -12.3226   18.6569 C   0  0  0  0  0  0
  -27.6380  -13.2370   19.8430 C   0  0  2  0  0  0
  -28.6793  -13.2067   20.9827 C   0  0  0  0  0  0
  -25.2501  -13.8209   20.5695 C   0  0  0  0  0  0
  -24.1793  -13.0451   20.9207 C   0  0  0  0  0  0
  -24.6387  -11.6927   20.8742 C   0  0  0  0  0  0
  -23.9060  -10.4299   21.0400 C   0  0  0  0  0  0
  -24.3614   -9.4212   21.9175 C   0  0  0  0  0  0
  -23.6296   -8.2245   22.0747 C   0  0  0  0  0  0
  -22.4273   -8.0280   21.3543 C   0  0  0  0  0  0
  -21.9904   -9.0251   20.4645 C   0  0  0  0  0  0
  -22.7230  -10.2135   20.3053 C   0  0  0  0  0  0
  -21.6852   -6.0732   22.5274 C   0  0  0  0  0  0
  -21.4014   -6.5635   23.8208 C   0  0  0  0  0  0
  -21.3664   -5.6786   24.9169 C   0  0  0  0  0  0
  -21.6046   -4.3050   24.7223 C   0  0  0  0  0  0
  -21.8820   -3.8142   23.4344 C   0  0  0  0  0  0
  -21.9194   -4.6958   22.3399 C   0  0  0  0  0  0
  -22.7815  -13.5233   21.1868 C   0  0  0  0  0  0
  -22.1664   -4.2143   21.0980 F   0  0  0  0  0  0
  -21.5628   -3.4540   25.7740 F   0  0  0  0  0  0
  -29.9782  -13.5632   20.3995 N   0  0  0  0  0  0
  -26.2916  -12.9419   20.3239 N   0  0  0  0  0  0
  -25.9313  -11.6560   20.5727 N   0  0  0  0  0  0
  -22.0459  -12.8234   22.0433 N   0  0  0  0  0  0
  -25.4213  -15.1933   20.4120 N   0  0  0  0  0  0
  -31.7915  -14.8695   20.1325 O   0  0  0  0  0  0
  -21.6640   -6.8875   21.4239 O   0  0  0  0  0  0
  -22.3501  -14.5533   20.6707 O   0  0  0  0  0  0
  -24.6366  -31.8510   23.1951 C   0  0  0  0  0  0
  -25.9174  -32.4726   23.8314 C   0  0  1  0  0  0
  -27.2214  -27.2170   20.1239 C   0  0  0  0  0  0
  -25.5952  -33.8533   24.2233 N   0  0  0  0  0  0
  -23.4361  -30.4729   21.5390 C   0  0  2  0  0  0
  -24.8825  -28.9136   20.1077 C   0  0  0  0  0  0
  -22.7532  -29.4582   22.4891 C   0  0  0  0  0  0
  -18.0300  -28.1402   22.8475 C   0  0  0  0  0  0
  -24.1497  -36.7275   23.2638 C   0  0  0  0  0  0
  -25.9867  -30.7463   21.3856 C   0  0  0  0  0  0
  -26.0562  -29.3675   20.7218 C   0  0  0  0  0  0
  -27.2240  -28.5313   20.7195 C   0  0  0  0  0  0
  -26.0173  -26.8407   19.4850 C   0  0  0  0  0  0
  -24.8705  -27.6598   19.4793 C   0  0  0  0  0  0
  -23.6570  -29.8070   20.1555 C   0  0  0  0  0  0
  -25.4125  -36.3053   24.0318 C   0  0  1  0  0  0
  -20.5907  -28.3718   23.1258 C   0  0  2  0  0  0
  -20.6788  -26.9429   22.5412 C   0  0  0  0  0  0
  -19.5767  -26.6389   21.5215 C   0  0  0  0  0  0
  -18.1944  -26.7942   22.1617 C   0  0  0  0  0  0
  -19.1552  -28.8877   23.2859 C   0  0  0  0  0  0
  -18.9469  -30.1473   23.8885 C   0  0  0  0  0  0
  -17.6466  -30.6595   24.0562 C   0  0  0  0  0  0
  -25.9068  -34.9425   23.5078 C   0  0  0  0  0  0
  -16.5361  -29.9090   23.6334 C   0  0  0  0  0  0
  -16.7284  -28.6510   23.0352 C   0  0  0  0  0  0
  -26.4510  -31.6579   25.0739 C   0  0  0  0  0  0
  -25.3708  -31.3776   26.1450 C   0  0  0  0  0  0
  -27.0344  -30.2968   24.6301 C   0  0  0  0  0  0
  -27.6069  -32.4326   25.7498 C   0  0  0  0  0  0
  -27.5588  -37.1786   24.8456 C   0  0  0  0  0  0
  -21.4234  -29.3051   22.3633 N   0  0  0  0  0  0
  -26.4295  -37.3759   23.9403 N   0  0  0  0  0  0
  -24.7057  -31.0429   22.0952 N   0  0  0  0  0  0
  -23.4204  -28.8130   23.3020 O   0  0  0  0  0  0
  -28.3092  -26.2989   20.2102 O   0  0  0  0  0  0
  -26.5643  -34.8908   22.4651 O   0  0  0  0  0  0
  -23.5503  -32.1360   23.7214 O   0  0  0  0  0  0
  -30.6823  -18.5794   17.9632 C   0  0  0  0  0  0
  -29.5527  -18.6253   20.4902 C   0  0  0  0  0  0
  -30.3546  -19.8342   18.5224 C   0  0  0  0  0  0
  -29.6965  -19.9218   19.7966 C   0  0  0  0  0  0
  -29.9742  -17.3189   19.9499 C   0  0  0  0  0  0
  -30.4876  -17.3632   18.6329 C   0  0  0  0  0  0
  -28.7759  -23.7650   20.3667 C   0  0  0  0  0  0
  -28.2356  -24.9212   19.7891 C   0  0  0  0  0  0
  -30.8206  -20.9819   17.7254 C   0  0  0  0  0  0
  -28.6882  -22.3733   19.7552 C   0  0  0  0  0  0
  -31.6198  -21.9003   18.2647 N   0  0  0  0  0  0
  -29.3095  -21.2732   20.3675 N   0  0  0  0  0  0
  -29.8256  -15.9627   20.5872 N   0  0  0  0  0  0
  -30.4993  -21.0987   16.4367 N   0  3  0  0  0  0
  -28.0656  -22.1839   18.7076 O   0  0  0  0  0  0
  -30.7885  -16.2258   17.9604 F   0  0  0  0  0  0
  -31.4755  -12.6088   19.1855 H   0  0  0  0  0  0
  -30.3873  -11.5138   19.9918 H   0  0  0  0  0  0
  -29.8088  -11.7167   17.5487 H   0  0  0  0  0  0
  -29.6409  -13.4479   17.7150 H   0  0  0  0  0  0
  -27.9055  -11.2768   18.9341 H   0  0  0  0  0  0
  -27.3883  -12.4995   17.8030 H   0  0  0  0  0  0
  -27.6229  -14.2502   19.4403 H   0  0  0  0  0  0
  -28.7214  -12.2201   21.4464 H   0  0  0  0  0  0
  -28.4044  -13.9074   21.7726 H   0  0  0  0  0  0
  -25.2756   -9.5697   22.4752 H   0  0  0  0  0  0
  -24.0006   -7.4635   22.7462 H   0  0  0  0  0  0
  -21.0832   -8.8766   19.8960 H   0  0  0  0  0  0
  -22.3670  -10.9670   19.6170 H   0  0  0  0  0  0
  -21.2006   -7.6141   23.9710 H   0  0  0  0  0  0
  -21.1486   -6.0515   25.9070 H   0  0  0  0  0  0
  -22.0598   -2.7607   23.2843 H   0  0  0  0  0  0
  -22.4079  -11.9910   22.4847 H   0  0  0  0  0  0
  -21.1076  -13.1261   22.2634 H   0  0  0  0  0  0
  -24.6551  -15.8482   20.5218 H   0  0  0  0  0  0
  -26.2632  -15.6285   20.0585 H   0  0  0  0  0  0
  -26.7241  -32.5345   23.1047 H   0  0  0  0  0  0
  -25.0081  -33.9658   25.0364 H   0  0  0  0  0  0
  -22.7349  -31.2971   21.3910 H   0  0  0  0  0  0
  -23.3762  -35.9603   23.3288 H   0  0  0  0  0  0
  -24.3591  -36.8914   22.2056 H   0  0  0  0  0  0
  -23.7249  -37.6469   23.6677 H   0  0  0  0  0  0
  -26.1421  -31.5085   20.6211 H   0  0  0  0  0  0
  -26.8574  -30.7862   22.0286 H   0  0  0  0  0  0
  -28.1208  -28.8696   21.2192 H   0  0  0  0  0  0
  -25.9157  -25.8780   19.0097 H   0  0  0  0  0  0
  -23.9699  -27.3039   18.9981 H   0  0  0  0  0  0
  -23.7898  -30.5843   19.4024 H   0  0  0  0  0  0
  -22.7729  -29.2468   19.8457 H   0  0  0  0  0  0
  -25.1308  -36.1892   25.0810 H   0  0  0  0  0  0
  -20.9992  -28.3313   24.1382 H   0  0  0  0  0  0
  -20.5698  -26.2329   23.3624 H   0  0  0  0  0  0
  -21.6659  -26.7459   22.1210 H   0  0  0  0  0  0
  -19.6934  -25.6295   21.1262 H   0  0  0  0  0  0
  -19.6713  -27.3183   20.6734 H   0  0  0  0  0  0
  -17.4220  -26.6693   21.4014 H   0  0  0  0  0  0
  -18.0338  -26.0090   22.9018 H   0  0  0  0  0  0
  -19.7942  -30.7295   24.2256 H   0  0  0  0  0  0
  -17.5017  -31.6274   24.5170 H   0  0  0  0  0  0
  -15.5359  -30.2986   23.7667 H   0  0  0  0  0  0
  -15.8683  -28.0823   22.7074 H   0  0  0  0  0  0
  -24.5887  -30.7115   25.7786 H   0  0  0  0  0  0
  -24.8893  -32.2961   26.4819 H   0  0  0  0  0  0
  -25.8002  -30.8995   27.0264 H   0  0  0  0  0  0
  -26.2942  -29.6715   24.1297 H   0  0  0  0  0  0
  -27.3927  -29.7252   25.4874 H   0  0  0  0  0  0
  -27.8872  -30.4185   23.9621 H   0  0  0  0  0  0
  -27.2684  -33.3626   26.2075 H   0  0  0  0  0  0
  -28.3869  -32.6890   25.0315 H   0  0  0  0  0  0
  -28.0757  -31.8458   26.5408 H   0  0  0  0  0  0
  -28.2597  -38.0091   24.7514 H   0  0  0  0  0  0
  -28.1093  -36.2626   24.6263 H   0  0  0  0  0  0
  -27.2313  -37.1412   25.8860 H   0  0  0  0  0  0
  -20.9438  -29.8740   21.6796 H   0  0  0  0  0  0
  -26.0173  -38.2829   24.1409 H   0  0  0  0  0  0
  -31.1428  -18.5311   16.9864 H   0  0  0  0  0  0
  -29.1077  -18.6333   21.4740 H   0  0  0  0  0  0
  -29.3085  -23.8710   21.2998 H   0  0  0  0  0  0
  -27.7081  -24.8340   18.8514 H   0  0  0  0  0  0
  -31.9237  -21.7822   19.2202 H   0  0  0  0  0  0
  -32.0076  -22.6685   17.7401 H   0  0  0  0  0  0
  -29.6072  -21.4370   21.3198 H   0  0  0  0  0  0
  -28.9387  -15.8115   21.0403 H   0  0  0  0  0  0
  -29.8540  -20.4392   16.0276 H   0  0  0  0  0  0
  -30.8065  -21.8730   15.8693 H   0  0  0  0  0  0
  1 25  1  0  0  0
  1 30  2  0  0  0
  1 83  1  0  0  0
  2  3  1  0  0  0
  2 25  1  0  0  0
  2 87  1  0  0  0
  2 88  1  0  0  0
  3  4  1  0  0  0
  3 89  1  0  0  0
  3 90  1  0  0  0
  4  5  1  0  0  0
  4 91  1  0  0  0
  4 92  1  0  0  0
  5  6  1  0  0  0
  5 26  1  0  0  0
  5 93  1  0  0  0
  6 25  1  0  0  0
  6 94  1  0  0  0
  6 95  1  0  0  0
  7  8  2  0  0  0
  7 26  1  0  0  0
  7 29  1  0  0  0
  8  9  1  0  0  0
  8 22  1  0  0  0
  9 10  1  0  0  0
  9 27  2  0  0  0
 10 11  2  0  0  0
 10 15  1  0  0  0
 11 12  1  0  0  0
 11 96  1  0  0  0
 12 13  2  0  0  0
 12 97  1  0  0  0
 13 14  1  0  0  0
 13 31  1  0  0  0
 14 15  2  0  0  0
 14 98  1  0  0  0
 15 99  1  0  0  0
 16 17  2  0  0  0
 16 21  1  0  0  0
 16 31  1  0  0  0
 17 18  1  0  0  0
 17100  1  0  0  0
 18 19  2  0  0  0
 18101  1  0  0  0
 19 20  1  0  0  0
 19 24  1  0  0  0
 20 21  2  0  0  0
 20102  1  0  0  0
 21 23  1  0  0  0
 22 28  1  0  0  0
 22 32  2  0  0  0
 26 27  1  0  0  0
 28103  1  0  0  0
 28104  1  0  0  0
 29105  1  0  0  0
 29106  1  0  0  0
 33 34  1  0  0  0
 33 66  1  0  0  0
 33 70  2  0  0  0
 34 36  1  0  0  0
 34 59  1  0  0  0
 34107  1  0  0  0
 35 44  2  0  0  0
 35 45  1  0  0  0
 35 68  1  0  0  0
 36 56  1  0  0  0
 36108  1  0  0  0
 37 39  1  0  0  0
 37 47  1  0  0  0
 37 66  1  0  0  0
 37109  1  0  0  0
 38 43  2  0  0  0
 38 46  1  0  0  0
 38 47  1  0  0  0
 39 64  1  0  0  0
 39 67  2  0  0  0
 40 52  1  0  0  0
 40 53  2  0  0  0
 40 58  1  0  0  0
 41110  1  0  0  0
 41111  1  0  0  0
 41112  1  0  0  0
 41 48  1  0  0  0
 42 43  1  0  0  0
 42 66  1  0  0  0
 42113  1  0  0  0
 42114  1  0  0  0
 43 44  1  0  0  0
 44115  1  0  0  0
 45 46  2  0  0  0
 45116  1  0  0  0
 46117  1  0  0  0
 47118  1  0  0  0
 47119  1  0  0  0
 48 56  1  0  0  0
 48 65  1  0  0  0
 48120  1  0  0  0
 49 50  1  0  0  0
 49 53  1  0  0  0
 49 64  1  0  0  0
 49121  1  0  0  0
 50 51  1  0  0  0
 50122  1  0  0  0
 50123  1  0  0  0
 51 52  1  0  0  0
 51124  1  0  0  0
 51125  1  0  0  0
 52126  1  0  0  0
 52127  1  0  0  0
 53 54  1  0  0  0
 54 55  2  0  0  0
 54128  1  0  0  0
 55 57  1  0  0  0
 55129  1  0  0  0
 56 69  2  0  0  0
 57 58  2  0  0  0
 57130  1  0  0  0
 58131  1  0  0  0
 59 60  1  0  0  0
 59 61  1  0  0  0
 59 62  1  0  0  0
 60132  1  0  0  0
 60133  1  0  0  0
 60134  1  0  0  0
 61135  1  0  0  0
 61136  1  0  0  0
 61137  1  0  0  0
 62138  1  0  0  0
 62139  1  0  0  0
 62140  1  0  0  0
 63 65  1  0  0  0
 63141  1  0  0  0
 63142  1  0  0  0
 63143  1  0  0  0
 64144  1  0  0  0
 65145  1  0  0  0
 68 78  1  0  0  0
 71 73  2  0  0  0
 71 76  1  0  0  0
 71146  1  0  0  0
 72 74  2  0  0  0
 72 75  1  0  0  0
 72147  1  0  0  0
 73 74  1  0  0  0
 73 79  1  0  0  0
 74 82  1  0  0  0
 75 76  2  0  0  0
 75 83  1  0  0  0
 76 86  1  0  0  0
 77 78  2  0  0  0
 77 80  1  0  0  0
 77148  1  0  0  0
 78149  1  0  0  0
 79 81  1  0  0  0
 79 84  2  0  0  0
 80 82  1  0  0  0
 80 85  2  0  0  0
 81150  1  0  0  0
 81151  1  0  0  0
 82152  1  0  0  0
 83153  1  0  0  0
 84154  1  0  0  0
 84155  1  0  0  0
M  CHG  1  84   1
M  ISO  4   1 100  68 101  78 101  83 100
M  END
> <chiral flag>
0

> <version>
0

> <s_m_source_file>
/data/baiqing/PycharmProjects/Reinvent-master-3.2/result/LINK_invent/BTK/process_docking_weight1_custom_product_contain_oxygen_bond_distance_aromatic_linkinvent_7_9_3/rearranged_h_0064.sdf

> <i_m_source_file_index>
41

> <r_mmod_Potential_Energy-OPLS-2005>
-45.6723899841309

> <r_mmod_Stretch_Energy-OPLS-2005>
161.158477783203

> <r_mmod_Bend_Energy-OPLS-2005>
174.513702392578

> <r_mmod_Torsional_Energy-OPLS-2005>
269.437805175781

> <r_mmod_Improper_Torsional_Energy-OPLS-2005>
5.57077836990356

> <r_mmod_Van_der_Waal_Energy-OPLS-2005>
151.954696655273

> <r_mmod_Electrostatic_Energy-OPLS-2005>
-451.095245361328

> <r_mmod_Solvation_Energy-OPLS-2005>
-472.062408447266

> <b_mmod_Minimization_Converged-OPLS-2005>
0

> <r_mmod_RMS_Derivative-OPLS-2005>
1.20763230323792

$$$$
41
                    3D
 Structure written by MMmdl.
161170  0  0  1  0            999 V2000
  -30.5300  -14.8082   20.4570 C   0  0  0  0  0  0
  -30.4395  -12.5016   19.4694 C   0  0  0  0  0  0
  -29.5070  -12.5187   18.2351 C   0  0  0  0  0  0
  -28.0451  -12.2876   18.6662 C   0  0  0  0  0  0
  -27.6294  -13.2168   19.8345 C   0  0  2  0  0  0
  -28.6688  -13.1878   20.9735 C   0  0  0  0  0  0
  -25.2513  -13.8165   20.5658 C   0  0  0  0  0  0
  -24.1800  -13.0413   20.9228 C   0  0  0  0  0  0
  -24.6380  -11.6887   20.8779 C   0  0  0  0  0  0
  -23.9066  -10.4278   21.0465 C   0  0  0  0  0  0
  -24.3620   -9.4189   21.9240 C   0  0  0  0  0  0
  -23.6281   -8.2225   22.0771 C   0  0  0  0  0  0
  -22.4255   -8.0298   21.3562 C   0  0  0  0  0  0
  -21.9914   -9.0274   20.4655 C   0  0  0  0  0  0
  -22.7255  -10.2157   20.3079 C   0  0  0  0  0  0
  -21.6848   -6.0753   22.5280 C   0  0  0  0  0  0
  -21.3995   -6.5648   23.8221 C   0  0  0  0  0  0
  -21.3664   -5.6819   24.9193 C   0  0  0  0  0  0
  -21.6032   -4.3070   24.7269 C   0  0  0  0  0  0
  -21.8806   -3.8158   23.4383 C   0  0  0  0  0  0
  -21.9180   -4.6968   22.3436 C   0  0  0  0  0  0
  -22.7845  -13.5199   21.1895 C   0  0  0  0  0  0
  -22.1660   -4.2144   21.1025 F   0  0  0  0  0  0
  -21.5647   -3.4559   25.7793 F   0  0  0  0  0  0
  -29.9619  -13.5590   20.3861 N   0  0  0  0  0  0
  -26.2861  -12.9310   20.3169 N   0  0  0  0  0  0
  -25.9283  -11.6478   20.5723 N   0  0  0  0  0  0
  -22.0480  -12.8173   22.0455 N   0  0  0  0  0  0
  -25.4232  -15.1887   20.4061 N   0  0  0  0  0  0
  -31.7440  -14.9416   20.2464 O   0  0  0  0  0  0
  -21.6610   -6.8886   21.4252 O   0  0  0  0  0  0
  -22.3540  -14.5540   20.6784 O   0  0  0  0  0  0
  -24.6431  -31.8528   23.1873 C   0  0  0  0  0  0
  -25.9259  -32.4735   23.8263 C   0  0  1  0  0  0
  -27.2032  -27.2326   20.1231 C   0  0  0  0  0  0
  -25.6008  -33.8535   24.2188 N   0  0  0  0  0  0
  -23.4323  -30.4741   21.5378 C   0  0  2  0  0  0
  -24.8585  -28.8972   20.1179 C   0  0  0  0  0  0
  -22.7594  -29.4669   22.4996 C   0  0  0  0  0  0
  -18.0394  -28.1357   22.8493 C   0  0  0  0  0  0
  -24.1497  -36.7236   23.2634 C   0  0  0  0  0  0
  -25.9790  -30.7488   21.3684 C   0  0  0  0  0  0
  -26.0359  -29.3717   20.7083 C   0  0  0  0  0  0
  -27.2077  -28.5529   20.6930 C   0  0  0  0  0  0
  -25.9955  -26.8165   19.5281 C   0  0  0  0  0  0
  -24.8398  -27.6241   19.5246 C   0  0  0  0  0  0
  -23.6385  -29.7929   20.1606 C   0  0  0  0  0  0
  -25.4133  -36.3006   24.0287 C   0  0  1  0  0  0
  -20.5977  -28.3715   23.1384 C   0  0  2  0  0  0
  -20.6881  -26.9439   22.5539 C   0  0  0  0  0  0
  -19.5865  -26.6411   21.5311 C   0  0  0  0  0  0
  -18.2009  -26.7937   22.1622 C   0  0  0  0  0  0
  -19.1624  -28.8878   23.2887 C   0  0  0  0  0  0
  -18.9449  -30.1546   23.8840 C   0  0  0  0  0  0
  -17.6425  -30.6609   24.0533 C   0  0  0  0  0  0
  -25.9091  -34.9430   23.5037 C   0  0  0  0  0  0
  -16.5388  -29.8993   23.6285 C   0  0  0  0  0  0
  -16.7376  -28.6465   23.0283 C   0  0  0  0  0  0
  -26.4510  -31.6634   25.0761 C   0  0  0  0  0  0
  -25.3708  -31.3858   26.1475 C   0  0  0  0  0  0
  -27.0375  -30.3037   24.6392 C   0  0  0  0  0  0
  -27.6054  -32.4398   25.7550 C   0  0  0  0  0  0
  -27.5583  -37.1778   24.8489 C   0  0  0  0  0  0
  -21.4288  -29.3061   22.3760 N   0  0  0  0  0  0
  -26.4284  -37.3729   23.9413 N   0  0  0  0  0  0
  -24.7025  -31.0499   22.0822 N   0  0  0  0  0  0
  -23.4344  -28.8286   23.3127 O   0  0  0  0  0  0
  -28.3070  -26.3520   20.1958 O   0  0  0  0  0  0
  -26.5711  -34.8921   22.4639 O   0  0  0  0  0  0
  -23.5588  -32.1343   23.7189 O   0  0  0  0  0  0
  -29.4928  -19.9026   22.1272 C   0  0  0  0  0  0
  -30.0988  -17.5165   22.2358 C   0  0  0  0  0  0
  -29.1689  -18.4739   20.1910 C   0  0  0  0  0  0
  -29.9339  -18.7757   22.8582 C   0  0  0  0  0  0
  -29.1018  -19.8179   20.7754 C   0  0  0  0  0  0
  -29.7007  -17.3016   20.8943 C   0  0  0  0  0  0
  -27.3384  -21.3237   19.7395 C   0  0  0  0  0  0
  -26.9964  -22.6314   19.7438 C   0  0  0  0  0  0
  -24.5520  -22.6902   19.9806 C   0  0  0  0  0  0
  -25.6738  -23.0731   19.3497 C   0  0  0  0  0  0
  -29.2379  -22.4120   20.3551 C   0  0  0  0  0  0
  -28.0900  -23.5397   20.3150 C   0  0  1  0  0  0
  -30.1512  -18.9114   24.3539 C   0  0  0  0  0  0
  -28.3459  -24.9788   19.5659 C   0  0  0  0  0  0
  -28.6340  -21.0450   20.1426 N   0  0  0  0  0  0
  -29.6491  -15.8911   20.4186 N   0  0  0  0  0  0
  -31.4762  -12.6529   19.1674 H   0  0  0  0  0  0
  -30.4129  -11.5336   19.9718 H   0  0  0  0  0  0
  -29.8128  -11.7633   17.5130 H   0  0  0  0  0  0
  -29.5827  -13.4840   17.7298 H   0  0  0  0  0  0
  -27.9654  -11.2443   18.9808 H   0  0  0  0  0  0
  -27.3648  -12.4029   17.8221 H   0  0  0  0  0  0
  -27.6077  -14.2202   19.4156 H   0  0  0  0  0  0
  -28.7252  -12.1962   21.4224 H   0  0  0  0  0  0
  -28.3894  -13.8821   21.7679 H   0  0  0  0  0  0
  -25.2764   -9.5666   22.4820 H   0  0  0  0  0  0
  -24.0009   -7.4599   22.7462 H   0  0  0  0  0  0
  -21.0850   -8.8782   19.8941 H   0  0  0  0  0  0
  -22.3715  -10.9714   19.6182 H   0  0  0  0  0  0
  -21.1947   -7.6149   23.9727 H   0  0  0  0  0  0
  -21.1511   -6.0554   25.9103 H   0  0  0  0  0  0
  -22.0574   -2.7608   23.2897 H   0  0  0  0  0  0
  -22.4017  -11.9776   22.4809 H   0  0  0  0  0  0
  -21.1137  -13.1251   22.2752 H   0  0  0  0  0  0
  -24.6499  -15.8428   20.4665 H   0  0  0  0  0  0
  -26.2758  -15.6263   20.0827 H   0  0  0  0  0  0
  -26.7387  -32.5277   23.1037 H   0  0  0  0  0  0
  -24.9979  -33.9629   25.0202 H   0  0  0  0  0  0
  -22.7321  -31.2951   21.3906 H   0  0  0  0  0  0
  -23.3735  -35.9590   23.3300 H   0  0  0  0  0  0
  -24.3546  -36.8875   22.2046 H   0  0  0  0  0  0
  -23.7272  -37.6437   23.6672 H   0  0  0  0  0  0
  -26.1652  -31.5016   20.6012 H   0  0  0  0  0  0
  -26.8368  -30.7651   22.0277 H   0  0  0  0  0  0
  -28.1059  -28.9164   21.1675 H   0  0  0  0  0  0
  -25.9068  -25.8273   19.1138 H   0  0  0  0  0  0
  -23.9239  -27.2386   19.0945 H   0  0  0  0  0  0
  -23.7662  -30.5560   19.3950 H   0  0  0  0  0  0
  -22.7509  -29.2336   19.8618 H   0  0  0  0  0  0
  -25.1329  -36.1758   25.0760 H   0  0  0  0  0  0
  -21.0011  -28.3253   24.1537 H   0  0  0  0  0  0
  -20.5848  -26.2235   23.3677 H   0  0  0  0  0  0
  -21.6776  -26.7565   22.1306 H   0  0  0  0  0  0
  -19.7137  -25.6377   21.1294 H   0  0  0  0  0  0
  -19.6826  -27.3271   20.6912 H   0  0  0  0  0  0
  -17.4350  -26.6715   21.3948 H   0  0  0  0  0  0
  -18.0327  -26.0104   22.9013 H   0  0  0  0  0  0
  -19.7902  -30.7442   24.2138 H   0  0  0  0  0  0
  -17.4861  -31.6294   24.5081 H   0  0  0  0  0  0
  -15.5319  -30.2736   23.7534 H   0  0  0  0  0  0
  -15.8855  -28.0733   22.6877 H   0  0  0  0  0  0
  -24.5847  -30.7236   25.7826 H   0  0  0  0  0  0
  -24.8929  -32.3051   26.4901 H   0  0  0  0  0  0
  -25.7982  -30.9050   27.0290 H   0  0  0  0  0  0
  -26.3011  -29.6802   24.1304 H   0  0  0  0  0  0
  -27.3855  -29.7344   25.5031 H   0  0  0  0  0  0
  -27.8980  -30.4320   23.9815 H   0  0  0  0  0  0
  -27.2652  -33.3692   26.2143 H   0  0  0  0  0  0
  -28.3836  -32.6990   25.0359 H   0  0  0  0  0  0
  -28.0744  -31.8527   26.5461 H   0  0  0  0  0  0
  -28.2615  -38.0064   24.7470 H   0  0  0  0  0  0
  -28.1061  -36.2590   24.6344 H   0  0  0  0  0  0
  -27.2335  -37.1468   25.8910 H   0  0  0  0  0  0
  -20.9483  -29.8532   21.6783 H   0  0  0  0  0  0
  -26.0138  -38.2801   24.1327 H   0  0  0  0  0  0
  -29.3887  -20.8412   22.6511 H   0  0  0  0  0  0
  -30.4532  -16.6892   22.8344 H   0  0  0  0  0  0
  -28.7894  -18.3459   19.1866 H   0  0  0  0  0  0
  -26.7147  -20.4890   19.4338 H   0  0  0  0  0  0
  -23.5891  -23.0443   19.6469 H   0  0  0  0  0  0
  -24.5758  -22.0235   20.8322 H   0  0  0  0  0  0
  -25.5850  -23.7150   18.4826 H   0  0  0  0  0  0
  -29.8363  -22.4818   21.2648 H   0  0  0  0  0  0
  -29.9128  -22.5792   19.5120 H   0  0  0  0  0  0
  -27.8082  -23.7407   21.3520 H   0  0  0  0  0  0
  -30.9222  -19.6418   24.5947 H   0  0  0  0  0  0
  -29.2188  -19.2360   24.8243 H   0  0  0  0  0  0
  -30.4324  -17.9587   24.8018 H   0  0  0  0  0  0
  -27.7987  -25.0132   18.6246 H   0  0  0  0  0  0
  -29.3770  -24.9237   19.2175 H   0  0  0  0  0  0
  -28.7034  -15.5919   20.2374 H   0  0  0  0  0  0
  1 25  1  0  0  0
  1 30  2  0  0  0
  1 86  1  0  0  0
  2  3  1  0  0  0
  2 25  1  0  0  0
  2 87  1  0  0  0
  2 88  1  0  0  0
  3  4  1  0  0  0
  3 89  1  0  0  0
  3 90  1  0  0  0
  4  5  1  0  0  0
  4 91  1  0  0  0
  4 92  1  0  0  0
  5  6  1  0  0  0
  5 26  1  0  0  0
  5 93  1  0  0  0
  6 25  1  0  0  0
  6 94  1  0  0  0
  6 95  1  0  0  0
  7  8  2  0  0  0
  7 26  1  0  0  0
  7 29  1  0  0  0
  8  9  1  0  0  0
  8 22  1  0  0  0
  9 10  1  0  0  0
  9 27  2  0  0  0
 10 11  2  0  0  0
 10 15  1  0  0  0
 11 12  1  0  0  0
 11 96  1  0  0  0
 12 13  2  0  0  0
 12 97  1  0  0  0
 13 14  1  0  0  0
 13 31  1  0  0  0
 14 15  2  0  0  0
 14 98  1  0  0  0
 15 99  1  0  0  0
 16 17  2  0  0  0
 16 21  1  0  0  0
 16 31  1  0  0  0
 17 18  1  0  0  0
 17100  1  0  0  0
 18 19  2  0  0  0
 18101  1  0  0  0
 19 20  1  0  0  0
 19 24  1  0  0  0
 20 21  2  0  0  0
 20102  1  0  0  0
 21 23  1  0  0  0
 22 28  1  0  0  0
 22 32  2  0  0  0
 26 27  1  0  0  0
 28103  1  0  0  0
 28104  1  0  0  0
 29105  1  0  0  0
 29106  1  0  0  0
 33 34  1  0  0  0
 33 66  1  0  0  0
 33 70  2  0  0  0
 34 36  1  0  0  0
 34 59  1  0  0  0
 34107  1  0  0  0
 35 44  2  0  0  0
 35 45  1  0  0  0
 35 68  1  0  0  0
 36 56  1  0  0  0
 36108  1  0  0  0
 37 39  1  0  0  0
 37 47  1  0  0  0
 37 66  1  0  0  0
 37109  1  0  0  0
 38 43  2  0  0  0
 38 46  1  0  0  0
 38 47  1  0  0  0
 39 64  1  0  0  0
 39 67  2  0  0  0
 40 52  1  0  0  0
 40 53  2  0  0  0
 40 58  1  0  0  0
 41110  1  0  0  0
 41111  1  0  0  0
 41112  1  0  0  0
 41 48  1  0  0  0
 42 43  1  0  0  0
 42 66  1  0  0  0
 42113  1  0  0  0
 42114  1  0  0  0
 43 44  1  0  0  0
 44115  1  0  0  0
 45 46  2  0  0  0
 45116  1  0  0  0
 46117  1  0  0  0
 47118  1  0  0  0
 47119  1  0  0  0
 48 56  1  0  0  0
 48 65  1  0  0  0
 48120  1  0  0  0
 49 50  1  0  0  0
 49 53  1  0  0  0
 49 64  1  0  0  0
 49121  1  0  0  0
 50 51  1  0  0  0
 50122  1  0  0  0
 50123  1  0  0  0
 51 52  1  0  0  0
 51124  1  0  0  0
 51125  1  0  0  0
 52126  1  0  0  0
 52127  1  0  0  0
 53 54  1  0  0  0
 54 55  2  0  0  0
 54128  1  0  0  0
 55 57  1  0  0  0
 55129  1  0  0  0
 56 69  2  0  0  0
 57 58  2  0  0  0
 57130  1  0  0  0
 58131  1  0  0  0
 59 60  1  0  0  0
 59 61  1  0  0  0
 59 62  1  0  0  0
 60132  1  0  0  0
 60133  1  0  0  0
 60134  1  0  0  0
 61135  1  0  0  0
 61136  1  0  0  0
 61137  1  0  0  0
 62138  1  0  0  0
 62139  1  0  0  0
 62140  1  0  0  0
 63 65  1  0  0  0
 63141  1  0  0  0
 63142  1  0  0  0
 63143  1  0  0  0
 64144  1  0  0  0
 65145  1  0  0  0
 68 84  1  0  0  0
 71 74  2  0  0  0
 71 75  1  0  0  0
 71146  1  0  0  0
 72 74  1  0  0  0
 72 76  2  0  0  0
 72147  1  0  0  0
 73 75  2  0  0  0
 73 76  1  0  0  0
 73148  1  0  0  0
 74 83  1  0  0  0
 75 85  1  0  0  0
 76 86  1  0  0  0
 77 78  2  0  0  0
 77 85  1  0  0  0
 77149  1  0  0  0
 78 80  1  0  0  0
 78 82  1  0  0  0
 79 80  2  0  0  0
 79150  1  0  0  0
 79151  1  0  0  0
 80152  1  0  0  0
 81 82  1  0  0  0
 81 85  1  0  0  0
 81153  1  0  0  0
 81154  1  0  0  0
 82 84  1  0  0  0
 82155  1  0  0  0
 83156  1  0  0  0
 83157  1  0  0  0
 83158  1  0  0  0
 84159  1  0  0  0
 84160  1  0  0  0
 86161  1  0  0  0
M  ISO  4   1 100  68 101  84 101  86 100
M  END
> <chiral flag>
0

> <version>
0

> <s_m_source_file>
/data/baiqing/PycharmProjects/Reinvent-master-3.2/result/LINK_invent/BTK/process_docking_weight1_custom_product_contain_oxygen_bond_distance_aromatic_linkinvent_7_9_3/rearranged_h_0064.sdf

> <i_m_source_file_index>
42

> <r_mmod_Potential_Energy-OPLS-2005>
400.765106201172

> <r_mmod_Stretch_Energy-OPLS-2005>
130.915435791016

> <r_mmod_Bend_Energy-OPLS-2005>
253.911361694336

> <r_mmod_Torsional_Energy-OPLS-2005>
299.885162353516

> <r_mmod_Improper_Torsional_Energy-OPLS-2005>
13.410457611084

> <r_mmod_Van_der_Waal_Energy-OPLS-2005>
126.833084106445

> <r_mmod_Electrostatic_Energy-OPLS-2005>
-331.311676025391

> <r_mmod_Solvation_Energy-OPLS-2005>
-210.800399780273

> <b_mmod_Minimization_Converged-OPLS-2005>
0

> <r_mmod_RMS_Derivative-OPLS-2005>
7.85878992080688

$$$$
42
                    3D
 Structure written by MMmdl.
158167  0  0  1  0            999 V2000
  -30.6984  -14.5068   20.5614 C   0  0  0  0  0  0
  -30.4287  -12.3265   19.4255 C   0  0  0  0  0  0
  -29.4995  -12.5111   18.2083 C   0  0  0  0  0  0
  -28.0217  -12.3634   18.6228 C   0  0  0  0  0  0
  -27.6614  -13.2122   19.8716 C   0  0  2  0  0  0
  -28.7056  -13.0164   20.9945 C   0  0  0  0  0  0
  -25.2590  -13.8179   20.5688 C   0  0  0  0  0  0
  -24.1847  -13.0452   20.9181 C   0  0  0  0  0  0
  -24.6405  -11.6921   20.8724 C   0  0  0  0  0  0
  -23.9071  -10.4308   21.0399 C   0  0  0  0  0  0
  -24.3624   -9.4223   21.9176 C   0  0  0  0  0  0
  -23.6300   -8.2260   22.0749 C   0  0  0  0  0  0
  -22.4276   -8.0292   21.3546 C   0  0  0  0  0  0
  -21.9911   -9.0266   20.4645 C   0  0  0  0  0  0
  -22.7244  -10.2144   20.3049 C   0  0  0  0  0  0
  -21.6859   -6.0735   22.5278 C   0  0  0  0  0  0
  -21.4020   -6.5635   23.8213 C   0  0  0  0  0  0
  -21.3667   -5.6787   24.9172 C   0  0  0  0  0  0
  -21.6051   -4.3051   24.7222 C   0  0  0  0  0  0
  -21.8818   -3.8139   23.4342 C   0  0  0  0  0  0
  -21.9195   -4.6960   22.3397 C   0  0  0  0  0  0
  -22.7868  -13.5245   21.1851 C   0  0  0  0  0  0
  -22.1664   -4.2148   21.0976 F   0  0  0  0  0  0
  -21.5632   -3.4531   25.7733 F   0  0  0  0  0  0
  -30.0340  -13.3229   20.4355 N   0  0  0  0  0  0
  -26.3030  -12.9359   20.3353 N   0  0  0  0  0  0
  -25.9327  -11.6516   20.5744 N   0  0  0  0  0  0
  -22.0506  -12.8243   22.0415 N   0  0  0  0  0  0
  -25.4310  -15.1902   20.4105 N   0  0  0  0  0  0
  -31.8430  -14.6759   20.1319 O   0  0  0  0  0  0
  -21.6649   -6.8879   21.4242 O   0  0  0  0  0  0
  -22.3556  -14.5555   20.6701 O   0  0  0  0  0  0
  -24.6226  -31.8670   23.2134 C   0  0  0  0  0  0
  -25.9105  -32.4810   23.8433 C   0  0  1  0  0  0
  -27.2126  -27.3779   20.0852 C   0  0  0  0  0  0
  -25.5952  -33.8611   24.2359 N   0  0  0  0  0  0
  -23.4118  -30.4989   21.5562 C   0  0  2  0  0  0
  -24.8522  -28.9759   20.1129 C   0  0  0  0  0  0
  -22.7466  -29.4663   22.4967 C   0  0  0  0  0  0
  -18.0290  -28.1374   22.8495 C   0  0  0  0  0  0
  -24.1485  -36.7290   23.2635 C   0  0  0  0  0  0
  -25.9530  -30.8124   21.3814 C   0  0  0  0  0  0
  -26.0244  -29.4503   20.7151 C   0  0  0  0  0  0
  -27.2096  -28.6621   20.6971 C   0  0  0  0  0  0
  -26.0084  -26.9564   19.4604 C   0  0  0  0  0  0
  -24.8424  -27.7298   19.4819 C   0  0  0  0  0  0
  -23.6228  -29.8521   20.1660 C   0  0  0  0  0  0
  -25.4109  -36.3098   24.0338 C   0  0  1  0  0  0
  -20.5891  -28.3682   23.1287 C   0  0  2  0  0  0
  -20.6777  -26.9407   22.5401 C   0  0  0  0  0  0
  -19.5746  -26.6381   21.5208 C   0  0  0  0  0  0
  -18.1932  -26.7920   22.1627 C   0  0  0  0  0  0
  -19.1543  -28.8845   23.2888 C   0  0  0  0  0  0
  -18.9464  -30.1446   23.8902 C   0  0  0  0  0  0
  -17.6466  -30.6578   24.0565 C   0  0  0  0  0  0
  -25.9045  -34.9464   23.5139 C   0  0  0  0  0  0
  -16.5354  -29.9077   23.6328 C   0  0  0  0  0  0
  -16.7279  -28.6490   23.0359 C   0  0  0  0  0  0
  -26.4519  -31.6581   25.0765 C   0  0  0  0  0  0
  -25.3784  -31.3683   26.1514 C   0  0  0  0  0  0
  -27.0359  -30.3013   24.6168 C   0  0  0  0  0  0
  -27.6097  -32.4296   25.7517 C   0  0  0  0  0  0
  -27.5577  -37.1805   24.8473 C   0  0  0  0  0  0
  -21.4188  -29.3043   22.3693 N   0  0  0  0  0  0
  -26.4294  -37.3787   23.9411 N   0  0  0  0  0  0
  -24.6809  -31.0740   22.1069 N   0  0  0  0  0  0
  -23.4211  -28.8178   23.3010 O   0  0  0  0  0  0
  -28.3294  -26.5350   20.1242 O   0  0  0  0  0  0
  -26.5584  -34.8910   22.4686 O   0  0  0  0  0  0
  -23.5400  -32.1463   23.7476 O   0  0  0  0  0  0
  -31.0923  -19.6121   21.6170 C   0  0  0  0  0  0
  -31.6077  -18.5799   22.4240 C   0  0  0  0  0  0
  -30.2107  -19.3214   20.5536 C   0  0  0  0  0  0
  -29.8468  -17.9533   20.3194 C   0  0  0  0  0  0
  -30.3675  -16.9080   21.1433 C   0  0  0  0  0  0
  -31.2497  -17.2388   22.1945 C   0  0  0  0  0  0
  -30.3593  -24.0545   19.9670 C   0  0  0  0  0  0
  -29.0415  -24.0186   20.1673 C   0  0  0  0  0  0
  -30.8379  -22.6874   19.8790 C   0  0  0  0  0  0
  -28.6582  -22.6204   20.2665 C   0  0  0  0  0  0
  -28.8992  -17.6064   19.1753 C   0  0  0  0  0  0
  -29.7025  -20.4484   19.6209 C   0  0  0  0  0  0
  -27.9807  -25.1188   20.0477 C   0  0  0  0  0  0
  -29.7626  -21.8845   20.0250 N   0  0  0  0  0  0
  -29.9512  -15.5431   20.9970 N   0  0  0  0  0  0
  -31.9889  -22.3110   19.6365 O   0  0  0  0  0  0
  -27.5238  -22.1698   20.4577 O   0  0  0  0  0  0
  -31.7303  -16.2699   23.0117 F   0  0  0  0  0  0
  -31.4746  -12.4225   19.1262 H   0  0  0  0  0  0
  -30.3282  -11.3188   19.8310 H   0  0  0  0  0  0
  -29.7431  -11.7846   17.4317 H   0  0  0  0  0  0
  -29.6617  -13.4963   17.7674 H   0  0  0  0  0  0
  -27.8395  -11.3073   18.8266 H   0  0  0  0  0  0
  -27.3698  -12.6261   17.7893 H   0  0  0  0  0  0
  -27.6970  -14.2569   19.5612 H   0  0  0  0  0  0
  -28.6860  -11.9870   21.3545 H   0  0  0  0  0  0
  -28.4672  -13.6329   21.8632 H   0  0  0  0  0  0
  -25.2771   -9.5703   22.4743 H   0  0  0  0  0  0
  -24.0018   -7.4648   22.7456 H   0  0  0  0  0  0
  -21.0849   -8.8785   19.8940 H   0  0  0  0  0  0
  -22.3710  -10.9681   19.6153 H   0  0  0  0  0  0
  -21.2014   -7.6141   23.9719 H   0  0  0  0  0  0
  -21.1496   -6.0510   25.9080 H   0  0  0  0  0  0
  -22.0587   -2.7598   23.2841 H   0  0  0  0  0  0
  -22.4121  -11.9906   22.4813 H   0  0  0  0  0  0
  -21.1114  -13.1253   22.2599 H   0  0  0  0  0  0
  -24.6640  -15.8434   20.5251 H   0  0  0  0  0  0
  -26.2812  -15.6314   20.0860 H   0  0  0  0  0  0
  -26.7174  -32.5502   23.1189 H   0  0  0  0  0  0
  -25.0169  -33.9780   25.0549 H   0  0  0  0  0  0
  -22.7027  -31.3190   21.4238 H   0  0  0  0  0  0
  -23.3747  -35.9623   23.3315 H   0  0  0  0  0  0
  -24.3584  -36.8886   22.2046 H   0  0  0  0  0  0
  -23.7230  -37.6498   23.6637 H   0  0  0  0  0  0
  -26.0871  -31.5814   20.6198 H   0  0  0  0  0  0
  -26.8325  -30.8507   22.0128 H   0  0  0  0  0  0
  -28.1083  -29.0185   21.1812 H   0  0  0  0  0  0
  -25.9045  -26.0181   18.9424 H   0  0  0  0  0  0
  -23.9443  -27.3607   19.0056 H   0  0  0  0  0  0
  -23.7485  -30.6373   19.4195 H   0  0  0  0  0  0
  -22.7409  -29.2896   19.8540 H   0  0  0  0  0  0
  -25.1277  -36.1975   25.0831 H   0  0  0  0  0  0
  -20.9989  -28.3240   24.1407 H   0  0  0  0  0  0
  -20.5700  -26.2280   23.3599 H   0  0  0  0  0  0
  -21.6643  -26.7453   22.1176 H   0  0  0  0  0  0
  -19.6906  -25.6298   21.1222 H   0  0  0  0  0  0
  -19.6669  -27.3204   20.6749 H   0  0  0  0  0  0
  -17.4201  -26.6686   21.4025 H   0  0  0  0  0  0
  -18.0327  -26.0054   22.9016 H   0  0  0  0  0  0
  -19.7938  -30.7262   24.2268 H   0  0  0  0  0  0
  -17.5018  -31.6261   24.5161 H   0  0  0  0  0  0
  -15.5352  -30.2979   23.7643 H   0  0  0  0  0  0
  -15.8682  -28.0801   22.7076 H   0  0  0  0  0  0
  -24.5960  -30.7026   25.7849 H   0  0  0  0  0  0
  -24.8974  -32.2833   26.4977 H   0  0  0  0  0  0
  -25.8145  -30.8844   27.0263 H   0  0  0  0  0  0
  -26.2918  -29.6755   24.1230 H   0  0  0  0  0  0
  -27.4129  -29.7270   25.4639 H   0  0  0  0  0  0
  -27.8764  -30.4314   23.9349 H   0  0  0  0  0  0
  -27.2730  -33.3591   26.2119 H   0  0  0  0  0  0
  -28.3895  -32.6860   25.0333 H   0  0  0  0  0  0
  -28.0790  -31.8411   26.5415 H   0  0  0  0  0  0
  -28.2607  -38.0088   24.7513 H   0  0  0  0  0  0
  -28.1063  -36.2623   24.6318 H   0  0  0  0  0  0
  -27.2298  -37.1476   25.8878 H   0  0  0  0  0  0
  -20.9360  -29.8801   21.6941 H   0  0  0  0  0  0
  -26.0181  -38.2864   24.1419 H   0  0  0  0  0  0
  -31.3983  -20.6275   21.8210 H   0  0  0  0  0  0
  -32.2808  -18.8214   23.2334 H   0  0  0  0  0  0
  -30.9409  -24.9368   19.7517 H   0  0  0  0  0  0
  -29.1557  -18.1581   18.2714 H   0  0  0  0  0  0
  -28.9234  -16.5507   18.9078 H   0  0  0  0  0  0
  -27.8741  -17.8541   19.4502 H   0  0  0  0  0  0
  -28.6713  -20.2162   19.3524 H   0  0  0  0  0  0
  -30.2523  -20.3508   18.6833 H   0  0  0  0  0  0
  -27.2038  -24.9032   20.7850 H   0  0  0  0  0  0
  -27.5767  -24.9106   19.0579 H   0  0  0  0  0  0
  -28.9878  -15.3383   21.2083 H   0  0  0  0  0  0
  1 25  1  0  0  0
  1 30  2  0  0  0
  1 85  1  0  0  0
  2  3  1  0  0  0
  2 25  1  0  0  0
  2 89  1  0  0  0
  2 90  1  0  0  0
  3  4  1  0  0  0
  3 91  1  0  0  0
  3 92  1  0  0  0
  4  5  1  0  0  0
  4 93  1  0  0  0
  4 94  1  0  0  0
  5  6  1  0  0  0
  5 26  1  0  0  0
  5 95  1  0  0  0
  6 25  1  0  0  0
  6 96  1  0  0  0
  6 97  1  0  0  0
  7  8  2  0  0  0
  7 26  1  0  0  0
  7 29  1  0  0  0
  8  9  1  0  0  0
  8 22  1  0  0  0
  9 10  1  0  0  0
  9 27  2  0  0  0
 10 11  2  0  0  0
 10 15  1  0  0  0
 11 12  1  0  0  0
 11 98  1  0  0  0
 12 13  2  0  0  0
 12 99  1  0  0  0
 13 14  1  0  0  0
 13 31  1  0  0  0
 14 15  2  0  0  0
 14100  1  0  0  0
 15101  1  0  0  0
 16 17  2  0  0  0
 16 21  1  0  0  0
 16 31  1  0  0  0
 17 18  1  0  0  0
 17102  1  0  0  0
 18 19  2  0  0  0
 18103  1  0  0  0
 19 20  1  0  0  0
 19 24  1  0  0  0
 20 21  2  0  0  0
 20104  1  0  0  0
 21 23  1  0  0  0
 22 28  1  0  0  0
 22 32  2  0  0  0
 26 27  1  0  0  0
 28105  1  0  0  0
 28106  1  0  0  0
 29107  1  0  0  0
 29108  1  0  0  0
 33 34  1  0  0  0
 33 66  1  0  0  0
 33 70  2  0  0  0
 34 36  1  0  0  0
 34 59  1  0  0  0
 34109  1  0  0  0
 35 44  2  0  0  0
 35 45  1  0  0  0
 35 68  1  0  0  0
 36 56  1  0  0  0
 36110  1  0  0  0
 37 39  1  0  0  0
 37 47  1  0  0  0
 37 66  1  0  0  0
 37111  1  0  0  0
 38 43  2  0  0  0
 38 46  1  0  0  0
 38 47  1  0  0  0
 39 64  1  0  0  0
 39 67  2  0  0  0
 40 52  1  0  0  0
 40 53  2  0  0  0
 40 58  1  0  0  0
 41112  1  0  0  0
 41113  1  0  0  0
 41114  1  0  0  0
 41 48  1  0  0  0
 42 43  1  0  0  0
 42 66  1  0  0  0
 42115  1  0  0  0
 42116  1  0  0  0
 43 44  1  0  0  0
 44117  1  0  0  0
 45 46  2  0  0  0
 45118  1  0  0  0
 46119  1  0  0  0
 47120  1  0  0  0
 47121  1  0  0  0
 48 56  1  0  0  0
 48 65  1  0  0  0
 48122  1  0  0  0
 49 50  1  0  0  0
 49 53  1  0  0  0
 49 64  1  0  0  0
 49123  1  0  0  0
 50 51  1  0  0  0
 50124  1  0  0  0
 50125  1  0  0  0
 51 52  1  0  0  0
 51126  1  0  0  0
 51127  1  0  0  0
 52128  1  0  0  0
 52129  1  0  0  0
 53 54  1  0  0  0
 54 55  2  0  0  0
 54130  1  0  0  0
 55 57  1  0  0  0
 55131  1  0  0  0
 56 69  2  0  0  0
 57 58  2  0  0  0
 57132  1  0  0  0
 58133  1  0  0  0
 59 60  1  0  0  0
 59 61  1  0  0  0
 59 62  1  0  0  0
 60134  1  0  0  0
 60135  1  0  0  0
 60136  1  0  0  0
 61137  1  0  0  0
 61138  1  0  0  0
 61139  1  0  0  0
 62140  1  0  0  0
 62141  1  0  0  0
 62142  1  0  0  0
 63 65  1  0  0  0
 63143  1  0  0  0
 63144  1  0  0  0
 63145  1  0  0  0
 64146  1  0  0  0
 65147  1  0  0  0
 68 83  1  0  0  0
 71 72  2  0  0  0
 71 73  1  0  0  0
 71148  1  0  0  0
 72 76  1  0  0  0
 72149  1  0  0  0
 73 74  2  0  0  0
 73 82  1  0  0  0
 74 75  1  0  0  0
 74 81  1  0  0  0
 75 76  2  0  0  0
 75 85  1  0  0  0
 76 88  1  0  0  0
 77 78  2  0  0  0
 77 79  1  0  0  0
 77150  1  0  0  0
 78 80  1  0  0  0
 78 83  1  0  0  0
 79 84  1  0  0  0
 79 86  2  0  0  0
 80 84  1  0  0  0
 80 87  2  0  0  0
 81151  1  0  0  0
 81152  1  0  0  0
 81153  1  0  0  0
 82 84  1  0  0  0
 82154  1  0  0  0
 82155  1  0  0  0
 83156  1  0  0  0
 83157  1  0  0  0
 85158  1  0  0  0
M  ISO  4   1 100  68 101  83 101  85 100
M  END
> <chiral flag>
0

> <version>
0

> <s_m_source_file>
/data/baiqing/PycharmProjects/Reinvent-master-3.2/result/LINK_invent/BTK/process_docking_weight1_custom_product_contain_oxygen_bond_distance_aromatic_linkinvent_7_9_3/rearranged_h_0064.sdf

> <i_m_source_file_index>
43

> <r_mmod_Potential_Energy-OPLS-2005>
-108.510208129883

> <r_mmod_Stretch_Energy-OPLS-2005>
51.1853713989258

> <r_mmod_Bend_Energy-OPLS-2005>
158.34733581543

> <r_mmod_Torsional_Energy-OPLS-2005>
234.832702636719

> <r_mmod_Improper_Torsional_Energy-OPLS-2005>
6.95915412902832

> <r_mmod_Van_der_Waal_Energy-OPLS-2005>
160.67805480957

> <r_mmod_Electrostatic_Energy-OPLS-2005>
-510.671173095703

> <r_mmod_Solvation_Energy-OPLS-2005>
-234.674606323242

> <b_mmod_Minimization_Converged-OPLS-2005>
0

> <r_mmod_RMS_Derivative-OPLS-2005>
1.4981586933136

$$$$
43
                    3D
 Structure written by MMmdl.
160168  0  0  1  0            999 V2000
  -30.7368  -14.4715   20.5744 C   0  0  0  0  0  0
  -30.4114  -12.3087   19.4321 C   0  0  0  0  0  0
  -29.4920  -12.4992   18.2104 C   0  0  0  0  0  0
  -28.0140  -12.3644   18.6222 C   0  0  0  0  0  0
  -27.6581  -13.2145   19.8716 C   0  0  2  0  0  0
  -28.7009  -13.0284   20.9978 C   0  0  0  0  0  0
  -25.2571  -13.8182   20.5689 C   0  0  0  0  0  0
  -24.1836  -13.0447   20.9185 C   0  0  0  0  0  0
  -24.6397  -11.6914   20.8740 C   0  0  0  0  0  0
  -23.9067  -10.4297   21.0411 C   0  0  0  0  0  0
  -24.3616   -9.4211   21.9189 C   0  0  0  0  0  0
  -23.6291   -8.2247   22.0756 C   0  0  0  0  0  0
  -22.4275   -8.0287   21.3544 C   0  0  0  0  0  0
  -21.9916   -9.0261   20.4643 C   0  0  0  0  0  0
  -22.7242  -10.2140   20.3055 C   0  0  0  0  0  0
  -21.6852   -6.0740   22.5278 C   0  0  0  0  0  0
  -21.4012   -6.5642   23.8212 C   0  0  0  0  0  0
  -21.3657   -5.6795   24.9174 C   0  0  0  0  0  0
  -21.6046   -4.3059   24.7223 C   0  0  0  0  0  0
  -21.8819   -3.8152   23.4344 C   0  0  0  0  0  0
  -21.9192   -4.6969   22.3400 C   0  0  0  0  0  0
  -22.7857  -13.5238   21.1853 C   0  0  0  0  0  0
  -22.1662   -4.2155   21.0979 F   0  0  0  0  0  0
  -21.5630   -3.4542   25.7736 F   0  0  0  0  0  0
  -30.0299  -13.3156   20.4367 N   0  0  0  0  0  0
  -26.3010  -12.9365   20.3363 N   0  0  0  0  0  0
  -25.9327  -11.6517   20.5774 N   0  0  0  0  0  0
  -22.0504  -12.8219   22.0403 N   0  0  0  0  0  0
  -25.4290  -15.1902   20.4084 N   0  0  0  0  0  0
  -31.8627  -14.6084   20.0883 O   0  0  0  0  0  0
  -21.6637   -6.8884   21.4240 O   0  0  0  0  0  0
  -22.3542  -14.5550   20.6709 O   0  0  0  0  0  0
  -24.6174  -31.8680   23.2117 C   0  0  0  0  0  0
  -25.9064  -32.4820   23.8412 C   0  0  1  0  0  0
  -27.2224  -27.4105   20.0934 C   0  0  0  0  0  0
  -25.5914  -33.8621   24.2339 N   0  0  0  0  0  0
  -23.4049  -30.4952   21.5537 C   0  0  2  0  0  0
  -24.8480  -28.9671   20.1110 C   0  0  0  0  0  0
  -22.7425  -29.4663   22.4988 C   0  0  0  0  0  0
  -18.0274  -28.1376   22.8498 C   0  0  0  0  0  0
  -24.1486  -36.7307   23.2641 C   0  0  0  0  0  0
  -25.9389  -30.8256   21.3708 C   0  0  0  0  0  0
  -26.0128  -29.4620   20.7107 C   0  0  0  0  0  0
  -27.2028  -28.6923   20.6986 C   0  0  0  0  0  0
  -26.0368  -26.9521   19.4672 C   0  0  0  0  0  0
  -24.8567  -27.7126   19.4848 C   0  0  0  0  0  0
  -23.6122  -29.8357   20.1662 C   0  0  0  0  0  0
  -25.4109  -36.3112   24.0341 C   0  0  1  0  0  0
  -20.5868  -28.3669   23.1310 C   0  0  2  0  0  0
  -20.6763  -26.9404   22.5412 C   0  0  0  0  0  0
  -19.5737  -26.6381   21.5212 C   0  0  0  0  0  0
  -18.1917  -26.7924   22.1626 C   0  0  0  0  0  0
  -19.1526  -28.8841   23.2897 C   0  0  0  0  0  0
  -18.9453  -30.1448   23.8902 C   0  0  0  0  0  0
  -17.6456  -30.6585   24.0561 C   0  0  0  0  0  0
  -25.9038  -34.9477   23.5135 C   0  0  0  0  0  0
  -16.5346  -29.9084   23.6330 C   0  0  0  0  0  0
  -16.7262  -28.6498   23.0358 C   0  0  0  0  0  0
  -26.4483  -31.6600   25.0743 C   0  0  0  0  0  0
  -25.3739  -31.3677   26.1474 C   0  0  0  0  0  0
  -27.0344  -30.3054   24.6131 C   0  0  0  0  0  0
  -27.6052  -32.4324   25.7512 C   0  0  0  0  0  0
  -27.5581  -37.1807   24.8469 C   0  0  0  0  0  0
  -21.4150  -29.3038   22.3721 N   0  0  0  0  0  0
  -26.4296  -37.3797   23.9412 N   0  0  0  0  0  0
  -24.6722  -31.0769   22.1030 N   0  0  0  0  0  0
  -23.4191  -28.8191   23.3024 O   0  0  0  0  0  0
  -28.3683  -26.6272   20.1420 O   0  0  0  0  0  0
  -26.5592  -34.8926   22.4692 O   0  0  0  0  0  0
  -23.5361  -32.1444   23.7496 O   0  0  0  0  0  0
  -31.7997  -19.4106   21.6435 C   0  0  0  0  0  0
  -31.9628  -16.9831   21.8357 C   0  0  0  0  0  0
  -29.9055  -18.0074   21.0205 C   0  0  0  0  0  0
  -32.5391  -18.2593   21.9808 C   0  0  0  0  0  0
  -30.4683  -19.3086   21.1707 C   0  0  0  0  0  0
  -30.6523  -16.8347   21.3264 C   0  0  0  0  0  0
  -33.9128  -18.3887   22.4612 C   0  0  0  0  0  0
  -29.9147  -21.7804   21.0226 C   0  0  0  0  0  0
  -28.9297  -22.7790   20.3810 C   0  0  0  0  0  0
  -29.2856  -24.2923   20.5333 C   0  0  0  0  0  0
  -28.1726  -25.2050   19.9682 C   0  0  0  0  0  0
  -34.2355  -19.3249   23.3498 N   0  0  0  0  0  0
  -29.6955  -20.4628   20.7884 N   0  0  0  0  0  0
  -30.0970  -15.5216   21.1372 N   0  0  0  0  0  0
  -34.8639  -17.5727   22.0120 N   0  3  0  0  0  0
  -30.8258  -22.2115   21.7321 O   0  0  0  0  0  0
  -31.4581  -12.3831   19.1322 H   0  0  0  0  0  0
  -30.2953  -11.3061   19.8472 H   0  0  0  0  0  0
  -29.7329  -11.7658   17.4397 H   0  0  0  0  0  0
  -29.6645  -13.4806   17.7656 H   0  0  0  0  0  0
  -27.8227  -11.3100   18.8248 H   0  0  0  0  0  0
  -27.3651  -12.6344   17.7881 H   0  0  0  0  0  0
  -27.6937  -14.2579   19.5578 H   0  0  0  0  0  0
  -28.6764  -12.0051   21.3754 H   0  0  0  0  0  0
  -28.4655  -13.6629   21.8535 H   0  0  0  0  0  0
  -25.2762   -9.5688   22.4764 H   0  0  0  0  0  0
  -24.0001   -7.4640   22.7475 H   0  0  0  0  0  0
  -21.0852   -8.8778   19.8943 H   0  0  0  0  0  0
  -22.3705  -10.9679   19.6161 H   0  0  0  0  0  0
  -21.2003   -7.6151   23.9714 H   0  0  0  0  0  0
  -21.1480   -6.0527   25.9076 H   0  0  0  0  0  0
  -22.0602   -2.7616   23.2842 H   0  0  0  0  0  0
  -22.4120  -11.9861   22.4759 H   0  0  0  0  0  0
  -21.1125  -13.1244   22.2631 H   0  0  0  0  0  0
  -24.6617  -15.8458   20.5104 H   0  0  0  0  0  0
  -26.2776  -15.6248   20.0691 H   0  0  0  0  0  0
  -26.7129  -32.5528   23.1170 H   0  0  0  0  0  0
  -25.0083  -33.9784   25.0495 H   0  0  0  0  0  0
  -22.6940  -31.3132   21.4192 H   0  0  0  0  0  0
  -23.3760  -35.9626   23.3303 H   0  0  0  0  0  0
  -24.3571  -36.8929   22.2054 H   0  0  0  0  0  0
  -23.7222  -37.6504   23.6660 H   0  0  0  0  0  0
  -26.0601  -31.5952   20.6068 H   0  0  0  0  0  0
  -26.8234  -30.8710   21.9944 H   0  0  0  0  0  0
  -28.0981  -29.0667   21.1751 H   0  0  0  0  0  0
  -25.9920  -26.0002   18.9591 H   0  0  0  0  0  0
  -23.9639  -27.3294   19.0100 H   0  0  0  0  0  0
  -23.7200  -30.6144   19.4103 H   0  0  0  0  0  0
  -22.7341  -29.2585   19.8700 H   0  0  0  0  0  0
  -25.1282  -36.1981   25.0834 H   0  0  0  0  0  0
  -20.9959  -28.3235   24.1431 H   0  0  0  0  0  0
  -20.5681  -26.2272   23.3599 H   0  0  0  0  0  0
  -21.6633  -26.7450   22.1196 H   0  0  0  0  0  0
  -19.6896  -25.6294   21.1238 H   0  0  0  0  0  0
  -19.6673  -27.3192   20.6746 H   0  0  0  0  0  0
  -17.4190  -26.6690   21.4020 H   0  0  0  0  0  0
  -18.0301  -26.0058   22.9012 H   0  0  0  0  0  0
  -19.7931  -30.7263   24.2264 H   0  0  0  0  0  0
  -17.5015  -31.6267   24.5163 H   0  0  0  0  0  0
  -15.5345  -30.2988   23.7653 H   0  0  0  0  0  0
  -15.8663  -28.0814   22.7076 H   0  0  0  0  0  0
  -24.5927  -30.7021   25.7786 H   0  0  0  0  0  0
  -24.8910  -32.2818   26.4940 H   0  0  0  0  0  0
  -25.8087  -30.8826   27.0222 H   0  0  0  0  0  0
  -26.2908  -29.6784   24.1201 H   0  0  0  0  0  0
  -27.4145  -29.7314   25.4594 H   0  0  0  0  0  0
  -27.8723  -30.4390   23.9284 H   0  0  0  0  0  0
  -27.2671  -33.3616   26.2112 H   0  0  0  0  0  0
  -28.3850  -32.6898   25.0331 H   0  0  0  0  0  0
  -28.0737  -31.8438   26.5409 H   0  0  0  0  0  0
  -28.2597  -38.0109   24.7545 H   0  0  0  0  0  0
  -28.1085  -36.2643   24.6277 H   0  0  0  0  0  0
  -27.2292  -37.1431   25.8870 H   0  0  0  0  0  0
  -20.9307  -29.8773   21.6957 H   0  0  0  0  0  0
  -26.0191  -38.2877   24.1422 H   0  0  0  0  0  0
  -32.2930  -20.3659   21.7341 H   0  0  0  0  0  0
  -32.5430  -16.1121   22.1078 H   0  0  0  0  0  0
  -28.8992  -17.9061   20.6409 H   0  0  0  0  0  0
  -27.9504  -22.5950   20.8237 H   0  0  0  0  0  0
  -28.8388  -22.5364   19.3216 H   0  0  0  0  0  0
  -30.2288  -24.5057   20.0291 H   0  0  0  0  0  0
  -29.4366  -24.5294   21.5872 H   0  0  0  0  0  0
  -27.2521  -24.8988   20.4692 H   0  0  0  0  0  0
  -28.0471  -24.9949   18.9049 H   0  0  0  0  0  0
  -33.5072  -19.9153   23.7256 H   0  0  0  0  0  0
  -35.1743  -19.4588   23.6915 H   0  0  0  0  0  0
  -28.8574  -20.2654   20.2590 H   0  0  0  0  0  0
  -29.1208  -15.3903   21.3542 H   0  0  0  0  0  0
  -34.6322  -16.8998   21.2958 H   0  0  0  0  0  0
  -35.8216  -17.6305   22.3195 H   0  0  0  0  0  0
  1 25  1  0  0  0
  1 30  2  0  0  0
  1 84  1  0  0  0
  2  3  1  0  0  0
  2 25  1  0  0  0
  2 87  1  0  0  0
  2 88  1  0  0  0
  3  4  1  0  0  0
  3 89  1  0  0  0
  3 90  1  0  0  0
  4  5  1  0  0  0
  4 91  1  0  0  0
  4 92  1  0  0  0
  5  6  1  0  0  0
  5 26  1  0  0  0
  5 93  1  0  0  0
  6 25  1  0  0  0
  6 94  1  0  0  0
  6 95  1  0  0  0
  7  8  2  0  0  0
  7 26  1  0  0  0
  7 29  1  0  0  0
  8  9  1  0  0  0
  8 22  1  0  0  0
  9 10  1  0  0  0
  9 27  2  0  0  0
 10 11  2  0  0  0
 10 15  1  0  0  0
 11 12  1  0  0  0
 11 96  1  0  0  0
 12 13  2  0  0  0
 12 97  1  0  0  0
 13 14  1  0  0  0
 13 31  1  0  0  0
 14 15  2  0  0  0
 14 98  1  0  0  0
 15 99  1  0  0  0
 16 17  2  0  0  0
 16 21  1  0  0  0
 16 31  1  0  0  0
 17 18  1  0  0  0
 17100  1  0  0  0
 18 19  2  0  0  0
 18101  1  0  0  0
 19 20  1  0  0  0
 19 24  1  0  0  0
 20 21  2  0  0  0
 20102  1  0  0  0
 21 23  1  0  0  0
 22 28  1  0  0  0
 22 32  2  0  0  0
 26 27  1  0  0  0
 28103  1  0  0  0
 28104  1  0  0  0
 29105  1  0  0  0
 29106  1  0  0  0
 33 34  1  0  0  0
 33 66  1  0  0  0
 33 70  2  0  0  0
 34 36  1  0  0  0
 34 59  1  0  0  0
 34107  1  0  0  0
 35 44  2  0  0  0
 35 45  1  0  0  0
 35 68  1  0  0  0
 36 56  1  0  0  0
 36108  1  0  0  0
 37 39  1  0  0  0
 37 47  1  0  0  0
 37 66  1  0  0  0
 37109  1  0  0  0
 38 43  2  0  0  0
 38 46  1  0  0  0
 38 47  1  0  0  0
 39 64  1  0  0  0
 39 67  2  0  0  0
 40 52  1  0  0  0
 40 53  2  0  0  0
 40 58  1  0  0  0
 41110  1  0  0  0
 41111  1  0  0  0
 41112  1  0  0  0
 41 48  1  0  0  0
 42 43  1  0  0  0
 42 66  1  0  0  0
 42113  1  0  0  0
 42114  1  0  0  0
 43 44  1  0  0  0
 44115  1  0  0  0
 45 46  2  0  0  0
 45116  1  0  0  0
 46117  1  0  0  0
 47118  1  0  0  0
 47119  1  0  0  0
 48 56  1  0  0  0
 48 65  1  0  0  0
 48120  1  0  0  0
 49 50  1  0  0  0
 49 53  1  0  0  0
 49 64  1  0  0  0
 49121  1  0  0  0
 50 51  1  0  0  0
 50122  1  0  0  0
 50123  1  0  0  0
 51 52  1  0  0  0
 51124  1  0  0  0
 51125  1  0  0  0
 52126  1  0  0  0
 52127  1  0  0  0
 53 54  1  0  0  0
 54 55  2  0  0  0
 54128  1  0  0  0
 55 57  1  0  0  0
 55129  1  0  0  0
 56 69  2  0  0  0
 57 58  2  0  0  0
 57130  1  0  0  0
 58131  1  0  0  0
 59 60  1  0  0  0
 59 61  1  0  0  0
 59 62  1  0  0  0
 60132  1  0  0  0
 60133  1  0  0  0
 60134  1  0  0  0
 61135  1  0  0  0
 61136  1  0  0  0
 61137  1  0  0  0
 62138  1  0  0  0
 62139  1  0  0  0
 62140  1  0  0  0
 63 65  1  0  0  0
 63141  1  0  0  0
 63142  1  0  0  0
 63143  1  0  0  0
 64144  1  0  0  0
 65145  1  0  0  0
 68 81  1  0  0  0
 71 74  2  0  0  0
 71 75  1  0  0  0
 71146  1  0  0  0
 72 74  1  0  0  0
 72 76  2  0  0  0
 72147  1  0  0  0
 73 75  2  0  0  0
 73 76  1  0  0  0
 73148  1  0  0  0
 74 77  1  0  0  0
 75 83  1  0  0  0
 76 84  1  0  0  0
 77 82  1  0  0  0
 77 85  2  0  0  0
 78 79  1  0  0  0
 78 83  1  0  0  0
 78 86  2  0  0  0
 79 80  1  0  0  0
 79149  1  0  0  0
 79150  1  0  0  0
 80 81  1  0  0  0
 80151  1  0  0  0
 80152  1  0  0  0
 81153  1  0  0  0
 81154  1  0  0  0
 82155  1  0  0  0
 82156  1  0  0  0
 83157  1  0  0  0
 84158  1  0  0  0
 85159  1  0  0  0
 85160  1  0  0  0
M  CHG  1  85   1
M  ISO  4   1 100  68 101  81 101  84 100
M  END
> <chiral flag>
0

> <version>
0

> <s_m_source_file>
/data/baiqing/PycharmProjects/Reinvent-master-3.2/result/LINK_invent/BTK/process_docking_weight1_custom_product_contain_oxygen_bond_distance_aromatic_linkinvent_7_9_3/rearranged_h_0064.sdf

> <i_m_source_file_index>
44

> <r_mmod_Potential_Energy-OPLS-2005>
-421.486846923828

> <r_mmod_Stretch_Energy-OPLS-2005>
44.1660499572754

> <r_mmod_Bend_Energy-OPLS-2005>
102.654563903809

> <r_mmod_Torsional_Energy-OPLS-2005>
223.674575805664

> <r_mmod_Improper_Torsional_Energy-OPLS-2005>
3.43567323684692

> <r_mmod_Van_der_Waal_Energy-OPLS-2005>
171.74462890625

> <r_mmod_Electrostatic_Energy-OPLS-2005>
-534.216430664062

> <r_mmod_Solvation_Energy-OPLS-2005>
-450.388031005859

> <b_mmod_Minimization_Converged-OPLS-2005>
0

> <r_mmod_RMS_Derivative-OPLS-2005>
0.619870245456696

$$$$
44
                    3D
 Structure written by MMmdl.
154163  0  0  1  0            999 V2000
  -30.6201  -14.8090   20.4479 C   0  0  0  0  0  0
  -30.4266  -12.4983   19.4822 C   0  0  0  0  0  0
  -29.5089  -12.5099   18.2411 C   0  0  0  0  0  0
  -28.0386  -12.3247   18.6592 C   0  0  0  0  0  0
  -27.6344  -13.2414   19.8445 C   0  0  2  0  0  0
  -28.6807  -13.2268   20.9802 C   0  0  0  0  0  0
  -25.2473  -13.8215   20.5707 C   0  0  0  0  0  0
  -24.1780  -13.0442   20.9227 C   0  0  0  0  0  0
  -24.6398  -11.6923   20.8766 C   0  0  0  0  0  0
  -23.9085  -10.4290   21.0399 C   0  0  0  0  0  0
  -24.3621   -9.4211   21.9189 C   0  0  0  0  0  0
  -23.6291   -8.2249   22.0762 C   0  0  0  0  0  0
  -22.4290   -8.0275   21.3531 C   0  0  0  0  0  0
  -21.9911   -9.0261   20.4652 C   0  0  0  0  0  0
  -22.7244  -10.2141   20.3061 C   0  0  0  0  0  0
  -21.6865   -6.0738   22.5285 C   0  0  0  0  0  0
  -21.4012   -6.5639   23.8217 C   0  0  0  0  0  0
  -21.3654   -5.6786   24.9173 C   0  0  0  0  0  0
  -21.6051   -4.3054   24.7221 C   0  0  0  0  0  0
  -21.8815   -3.8148   23.4341 C   0  0  0  0  0  0
  -21.9191   -4.6964   22.3398 C   0  0  0  0  0  0
  -22.7800  -13.5218   21.1877 C   0  0  0  0  0  0
  -22.1663   -4.2142   21.0978 F   0  0  0  0  0  0
  -21.5626   -3.4541   25.7736 F   0  0  0  0  0  0
  -29.9718  -13.5886   20.3837 N   0  0  0  0  0  0
  -26.2903  -12.9437   20.3273 N   0  0  0  0  0  0
  -25.9328  -11.6572   20.5758 N   0  0  0  0  0  0
  -22.0454  -12.8199   22.0437 N   0  0  0  0  0  0
  -25.4148  -15.1941   20.4132 N   0  0  0  0  0  0
  -31.8167  -14.8366   20.1477 O   0  0  0  0  0  0
  -21.6642   -6.8880   21.4248 O   0  0  0  0  0  0
  -22.3485  -14.5525   20.6721 O   0  0  0  0  0  0
  -24.6368  -31.8516   23.1947 C   0  0  0  0  0  0
  -25.9172  -32.4732   23.8310 C   0  0  1  0  0  0
  -27.2144  -27.2092   20.1338 C   0  0  0  0  0  0
  -25.5954  -33.8534   24.2234 N   0  0  0  0  0  0
  -23.4357  -30.4746   21.5400 C   0  0  2  0  0  0
  -24.8817  -28.9165   20.1119 C   0  0  0  0  0  0
  -22.7535  -29.4586   22.4887 C   0  0  0  0  0  0
  -18.0300  -28.1393   22.8483 C   0  0  0  0  0  0
  -24.1493  -36.7271   23.2641 C   0  0  0  0  0  0
  -25.9873  -30.7486   21.3829 C   0  0  0  0  0  0
  -26.0590  -29.3678   20.7222 C   0  0  0  0  0  0
  -27.2281  -28.5298   20.7179 C   0  0  0  0  0  0
  -26.0094  -26.8431   19.4901 C   0  0  0  0  0  0
  -24.8663  -27.6649   19.4824 C   0  0  0  0  0  0
  -23.6563  -29.8104   20.1572 C   0  0  0  0  0  0
  -25.4120  -36.3052   24.0319 C   0  0  1  0  0  0
  -20.5911  -28.3708   23.1252 C   0  0  2  0  0  0
  -20.6783  -26.9420   22.5403 C   0  0  0  0  0  0
  -19.5754  -26.6384   21.5212 C   0  0  0  0  0  0
  -18.1939  -26.7933   22.1628 C   0  0  0  0  0  0
  -19.1557  -28.8865   23.2863 C   0  0  0  0  0  0
  -18.9474  -30.1465   23.8882 C   0  0  0  0  0  0
  -17.6471  -30.6591   24.0559 C   0  0  0  0  0  0
  -25.9068  -34.9425   23.5081 C   0  0  0  0  0  0
  -16.5361  -29.9083   23.6338 C   0  0  0  0  0  0
  -16.7282  -28.6503   23.0353 C   0  0  0  0  0  0
  -26.4517  -31.6575   25.0722 C   0  0  0  0  0  0
  -25.3721  -31.3744   26.1430 C   0  0  0  0  0  0
  -27.0373  -30.2982   24.6254 C   0  0  0  0  0  0
  -27.6056  -32.4332   25.7507 C   0  0  0  0  0  0
  -27.5576  -37.1793   24.8466 C   0  0  0  0  0  0
  -21.4234  -29.3051   22.3637 N   0  0  0  0  0  0
  -26.4286  -37.3758   23.9410 N   0  0  0  0  0  0
  -24.7062  -31.0437   22.0950 N   0  0  0  0  0  0
  -23.4212  -28.8132   23.3004 O   0  0  0  0  0  0
  -28.2890  -26.2701   20.1962 O   0  0  0  0  0  0
  -26.5640  -34.8912   22.4652 O   0  0  0  0  0  0
  -23.5508  -32.1357   23.7219 O   0  0  0  0  0  0
  -29.5309  -18.6682   20.4941 C   0  0  0  0  0  0
  -31.6768  -17.6958   21.0375 C   0  0  0  0  0  0
  -31.4089  -20.1451   20.8868 C   0  0  0  0  0  0
  -30.0058  -20.0695   20.5931 C   0  0  0  0  0  0
  -30.3379  -17.4479   20.6865 C   0  0  0  0  0  0
  -32.2012  -18.9924   21.1307 C   0  0  0  0  0  0
  -28.9862  -22.2507   19.3450 C   0  0  0  0  0  0
  -28.9509  -22.4507   21.3486 C   0  0  0  0  0  0
  -29.1056  -23.5619   20.2338 C   0  0  0  0  0  0
  -32.1113  -21.5045   20.9581 C   0  0  0  0  0  0
  -28.0097  -24.7706   20.0508 C   0  0  0  0  0  0
  -29.2605  -21.3819   20.4444 N   0  0  0  0  0  0
  -29.8899  -16.0030   20.6081 N   0  0  0  0  0  0
  -28.8256  -22.0036   18.1661 O   0  0  0  0  0  0
  -28.7617  -22.4379   22.5488 O   0  0  0  0  0  0
  -33.8710  -19.1143   21.5774 Cl  0  0  0  0  0  0
  -31.4677  -12.6149   19.1776 H   0  0  0  0  0  0
  -30.3759  -11.5356   19.9926 H   0  0  0  0  0  0
  -29.8027  -11.7226   17.5453 H   0  0  0  0  0  0
  -29.6247  -13.4542   17.7072 H   0  0  0  0  0  0
  -27.9119  -11.2796   18.9427 H   0  0  0  0  0  0
  -27.3782  -12.4913   17.8075 H   0  0  0  0  0  0
  -27.6138  -14.2522   19.4380 H   0  0  0  0  0  0
  -28.7328  -12.2451   21.4522 H   0  0  0  0  0  0
  -28.4074  -13.9325   21.7663 H   0  0  0  0  0  0
  -25.2767   -9.5687   22.4762 H   0  0  0  0  0  0
  -24.0008   -7.4634   22.7471 H   0  0  0  0  0  0
  -21.0845   -8.8775   19.8948 H   0  0  0  0  0  0
  -22.3703  -10.9676   19.6163 H   0  0  0  0  0  0
  -21.2011   -7.6149   23.9710 H   0  0  0  0  0  0
  -21.1484   -6.0525   25.9072 H   0  0  0  0  0  0
  -22.0599   -2.7613   23.2849 H   0  0  0  0  0  0
  -22.4085  -11.9861   22.4822 H   0  0  0  0  0  0
  -21.1069  -13.1214   22.2638 H   0  0  0  0  0  0
  -24.6438  -15.8442   20.5214 H   0  0  0  0  0  0
  -26.2546  -15.6361   20.0630 H   0  0  0  0  0  0
  -26.7237  -32.5364   23.1047 H   0  0  0  0  0  0
  -25.0083  -33.9662   25.0367 H   0  0  0  0  0  0
  -22.7350  -31.2986   21.3925 H   0  0  0  0  0  0
  -23.3756  -35.9604   23.3300 H   0  0  0  0  0  0
  -24.3579  -36.8905   22.2058 H   0  0  0  0  0  0
  -23.7247  -37.6468   23.6674 H   0  0  0  0  0  0
  -26.1352  -31.5083   20.6144 H   0  0  0  0  0  0
  -26.8611  -30.7961   22.0209 H   0  0  0  0  0  0
  -28.1267  -28.8708   21.2139 H   0  0  0  0  0  0
  -25.9078  -25.8892   18.9970 H   0  0  0  0  0  0
  -23.9663  -27.3123   18.9970 H   0  0  0  0  0  0
  -23.7884  -30.5869   19.4028 H   0  0  0  0  0  0
  -22.7728  -29.2488   19.8478 H   0  0  0  0  0  0
  -25.1309  -36.1893   25.0809 H   0  0  0  0  0  0
  -20.9998  -28.3292   24.1373 H   0  0  0  0  0  0
  -20.5684  -26.2321   23.3615 H   0  0  0  0  0  0
  -21.6649  -26.7436   22.1202 H   0  0  0  0  0  0
  -19.6917  -25.6293   21.1250 H   0  0  0  0  0  0
  -19.6691  -27.3184   20.6735 H   0  0  0  0  0  0
  -17.4209  -26.6678   21.4033 H   0  0  0  0  0  0
  -18.0340  -26.0077   22.9025 H   0  0  0  0  0  0
  -19.7944  -30.7289   24.2247 H   0  0  0  0  0  0
  -17.5019  -31.6269   24.5167 H   0  0  0  0  0  0
  -15.5359  -30.2979   23.7663 H   0  0  0  0  0  0
  -15.8684  -28.0812   22.7075 H   0  0  0  0  0  0
  -24.5904  -30.7087   25.7753 H   0  0  0  0  0  0
  -24.8902  -32.2917   26.4821 H   0  0  0  0  0  0
  -25.8020  -30.8942   27.0230 H   0  0  0  0  0  0
  -26.2971  -29.6720   24.1258 H   0  0  0  0  0  0
  -27.4008  -29.7263   25.4802 H   0  0  0  0  0  0
  -27.8872  -30.4238   23.9541 H   0  0  0  0  0  0
  -27.2651  -33.3644   26.2049 H   0  0  0  0  0  0
  -28.3886  -32.6878   25.0351 H   0  0  0  0  0  0
  -28.0703  -31.8481   26.5455 H   0  0  0  0  0  0
  -28.2592  -38.0090   24.7506 H   0  0  0  0  0  0
  -28.1074  -36.2621   24.6304 H   0  0  0  0  0  0
  -27.2292  -37.1456   25.8867 H   0  0  0  0  0  0
  -20.9430  -29.8773   21.6837 H   0  0  0  0  0  0
  -26.0163  -38.2834   24.1401 H   0  0  0  0  0  0
  -28.4852  -18.5293   20.2610 H   0  0  0  0  0  0
  -32.3544  -16.8865   21.2570 H   0  0  0  0  0  0
  -30.1159  -23.9639   20.1926 H   0  0  0  0  0  0
  -31.7469  -22.1916   20.1992 H   0  0  0  0  0  0
  -33.1825  -21.4443   20.7723 H   0  0  0  0  0  0
  -31.9672  -21.9578   21.9386 H   0  0  0  0  0  0
  -27.1673  -24.5591   20.7106 H   0  0  0  0  0  0
  -27.6114  -24.6500   19.0445 H   0  0  0  0  0  0
  -28.8934  -15.8600   20.6709 H   0  0  0  0  0  0
  1 25  1  0  0  0
  1 30  2  0  0  0
  1 83  1  0  0  0
  2  3  1  0  0  0
  2 25  1  0  0  0
  2 87  1  0  0  0
  2 88  1  0  0  0
  3  4  1  0  0  0
  3 89  1  0  0  0
  3 90  1  0  0  0
  4  5  1  0  0  0
  4 91  1  0  0  0
  4 92  1  0  0  0
  5  6  1  0  0  0
  5 26  1  0  0  0
  5 93  1  0  0  0
  6 25  1  0  0  0
  6 94  1  0  0  0
  6 95  1  0  0  0
  7  8  2  0  0  0
  7 26  1  0  0  0
  7 29  1  0  0  0
  8  9  1  0  0  0
  8 22  1  0  0  0
  9 10  1  0  0  0
  9 27  2  0  0  0
 10 11  2  0  0  0
 10 15  1  0  0  0
 11 12  1  0  0  0
 11 96  1  0  0  0
 12 13  2  0  0  0
 12 97  1  0  0  0
 13 14  1  0  0  0
 13 31  1  0  0  0
 14 15  2  0  0  0
 14 98  1  0  0  0
 15 99  1  0  0  0
 16 17  2  0  0  0
 16 21  1  0  0  0
 16 31  1  0  0  0
 17 18  1  0  0  0
 17100  1  0  0  0
 18 19  2  0  0  0
 18101  1  0  0  0
 19 20  1  0  0  0
 19 24  1  0  0  0
 20 21  2  0  0  0
 20102  1  0  0  0
 21 23  1  0  0  0
 22 28  1  0  0  0
 22 32  2  0  0  0
 26 27  1  0  0  0
 28103  1  0  0  0
 28104  1  0  0  0
 29105  1  0  0  0
 29106  1  0  0  0
 33 34  1  0  0  0
 33 66  1  0  0  0
 33 70  2  0  0  0
 34 36  1  0  0  0
 34 59  1  0  0  0
 34107  1  0  0  0
 35 44  2  0  0  0
 35 45  1  0  0  0
 35 68  1  0  0  0
 36 56  1  0  0  0
 36108  1  0  0  0
 37 39  1  0  0  0
 37 47  1  0  0  0
 37 66  1  0  0  0
 37109  1  0  0  0
 38 43  2  0  0  0
 38 46  1  0  0  0
 38 47  1  0  0  0
 39 64  1  0  0  0
 39 67  2  0  0  0
 40 52  1  0  0  0
 40 53  2  0  0  0
 40 58  1  0  0  0
 41110  1  0  0  0
 41111  1  0  0  0
 41112  1  0  0  0
 41 48  1  0  0  0
 42 43  1  0  0  0
 42 66  1  0  0  0
 42113  1  0  0  0
 42114  1  0  0  0
 43 44  1  0  0  0
 44115  1  0  0  0
 45 46  2  0  0  0
 45116  1  0  0  0
 46117  1  0  0  0
 47118  1  0  0  0
 47119  1  0  0  0
 48 56  1  0  0  0
 48 65  1  0  0  0
 48120  1  0  0  0
 49 50  1  0  0  0
 49 53  1  0  0  0
 49 64  1  0  0  0
 49121  1  0  0  0
 50 51  1  0  0  0
 50122  1  0  0  0
 50123  1  0  0  0
 51 52  1  0  0  0
 51124  1  0  0  0
 51125  1  0  0  0
 52126  1  0  0  0
 52127  1  0  0  0
 53 54  1  0  0  0
 54 55  2  0  0  0
 54128  1  0  0  0
 55 57  1  0  0  0
 55129  1  0  0  0
 56 69  2  0  0  0
 57 58  2  0  0  0
 57130  1  0  0  0
 58131  1  0  0  0
 59 60  1  0  0  0
 59 61  1  0  0  0
 59 62  1  0  0  0
 60132  1  0  0  0
 60133  1  0  0  0
 60134  1  0  0  0
 61135  1  0  0  0
 61136  1  0  0  0
 61137  1  0  0  0
 62138  1  0  0  0
 62139  1  0  0  0
 62140  1  0  0  0
 63 65  1  0  0  0
 63141  1  0  0  0
 63142  1  0  0  0
 63143  1  0  0  0
 64144  1  0  0  0
 65145  1  0  0  0
 68 81  1  0  0  0
 71 74  2  0  0  0
 71 75  1  0  0  0
 71146  1  0  0  0
 72 75  2  0  0  0
 72 76  1  0  0  0
 72147  1  0  0  0
 73 74  1  0  0  0
 73 76  2  0  0  0
 73 80  1  0  0  0
 74 82  1  0  0  0
 75 83  1  0  0  0
 76 86  1  0  0  0
 77 79  1  0  0  0
 77 82  1  0  0  0
 77 84  2  0  0  0
 78 79  1  0  0  0
 78 82  1  0  0  0
 78 85  2  0  0  0
 79 81  1  0  0  0
 79148  1  0  0  0
 80149  1  0  0  0
 80150  1  0  0  0
 80151  1  0  0  0
 81152  1  0  0  0
 81153  1  0  0  0
 83154  1  0  0  0
M  ISO  4   1 100  68 101  81 101  83 100
M  END
> <chiral flag>
0

> <version>
0

> <s_m_source_file>
/data/baiqing/PycharmProjects/Reinvent-master-3.2/result/LINK_invent/BTK/process_docking_weight1_custom_product_contain_oxygen_bond_distance_aromatic_linkinvent_7_9_3/rearranged_h_0064.sdf

> <i_m_source_file_index>
45

> <r_mmod_Potential_Energy-OPLS-2005>
250.059921264648

> <r_mmod_Stretch_Energy-OPLS-2005>
174.438385009766

> <r_mmod_Bend_Energy-OPLS-2005>
210.239517211914

> <r_mmod_Torsional_Energy-OPLS-2005>
242.623092651367

> <r_mmod_Improper_Torsional_Energy-OPLS-2005>
7.43358325958252

> <r_mmod_Van_der_Waal_Energy-OPLS-2005>
146.870223999023

> <r_mmod_Electrostatic_Energy-OPLS-2005>
-413.551055908203

> <r_mmod_Solvation_Energy-OPLS-2005>
-236.58366394043

> <b_mmod_Minimization_Converged-OPLS-2005>
0

> <r_mmod_RMS_Derivative-OPLS-2005>
1.95500373840332

$$$$
45
                    3D
 Structure written by MMmdl.
161170  0  0  1  0            999 V2000
  -30.5856  -14.8763   20.4167 C   0  0  0  0  0  0
  -30.4345  -12.5350   19.5007 C   0  0  0  0  0  0
  -29.5146  -12.5147   18.2575 C   0  0  0  0  0  0
  -28.0520  -12.3017   18.6863 C   0  0  0  0  0  0
  -27.6365  -13.2407   19.8477 C   0  0  2  0  0  0
  -28.6803  -13.2548   20.9848 C   0  0  0  0  0  0
  -25.2508  -13.8222   20.5730 C   0  0  0  0  0  0
  -24.1816  -13.0456   20.9233 C   0  0  0  0  0  0
  -24.6410  -11.6928   20.8777 C   0  0  0  0  0  0
  -23.9095  -10.4297   21.0422 C   0  0  0  0  0  0
  -24.3637   -9.4206   21.9200 C   0  0  0  0  0  0
  -23.6299   -8.2245   22.0773 C   0  0  0  0  0  0
  -22.4284   -8.0288   21.3563 C   0  0  0  0  0  0
  -21.9928   -9.0264   20.4673 C   0  0  0  0  0  0
  -22.7264  -10.2137   20.3076 C   0  0  0  0  0  0
  -21.6852   -6.0744   22.5282 C   0  0  0  0  0  0
  -21.4006   -6.5649   23.8212 C   0  0  0  0  0  0
  -21.3653   -5.6806   24.9181 C   0  0  0  0  0  0
  -21.6050   -4.3067   24.7233 C   0  0  0  0  0  0
  -21.8811   -3.8157   23.4353 C   0  0  0  0  0  0
  -21.9188   -4.6973   22.3407 C   0  0  0  0  0  0
  -22.7835  -13.5221   21.1873 C   0  0  0  0  0  0
  -22.1669   -4.2157   21.0988 F   0  0  0  0  0  0
  -21.5631   -3.4547   25.7747 F   0  0  0  0  0  0
  -29.9679  -13.6324   20.3909 N   0  0  0  0  0  0
  -26.2933  -12.9429   20.3316 N   0  0  0  0  0  0
  -25.9352  -11.6563   20.5816 N   0  0  0  0  0  0
  -22.0475  -12.8187   22.0414 N   0  0  0  0  0  0
  -25.4200  -15.1947   20.4139 N   0  0  0  0  0  0
  -31.7915  -14.9128   20.1493 O   0  0  0  0  0  0
  -21.6653   -6.8882   21.4242 O   0  0  0  0  0  0
  -22.3507  -14.5516   20.6715 O   0  0  0  0  0  0
  -24.6413  -31.8472   23.1944 C   0  0  0  0  0  0
  -25.9196  -32.4723   23.8304 C   0  0  1  0  0  0
  -27.2071  -27.1673   20.1287 C   0  0  0  0  0  0
  -25.5943  -33.8532   24.2213 N   0  0  0  0  0  0
  -23.4423  -30.4690   21.5429 C   0  0  2  0  0  0
  -24.8877  -28.9102   20.1100 C   0  0  0  0  0  0
  -22.7562  -29.4529   22.4900 C   0  0  0  0  0  0
  -18.0315  -28.1365   22.8497 C   0  0  0  0  0  0
  -24.1493  -36.7266   23.2643 C   0  0  0  0  0  0
  -25.9997  -30.7298   21.3919 C   0  0  0  0  0  0
  -26.0642  -29.3457   20.7291 C   0  0  0  0  0  0
  -27.2228  -28.4878   20.7290 C   0  0  0  0  0  0
  -26.0060  -26.8377   19.4582 C   0  0  0  0  0  0
  -24.8671  -27.6683   19.4628 C   0  0  0  0  0  0
  -23.6663  -29.8129   20.1565 C   0  0  0  0  0  0
  -25.4129  -36.3059   24.0325 C   0  0  1  0  0  0
  -20.5921  -28.3691   23.1260 C   0  0  2  0  0  0
  -20.6782  -26.9391   22.5433 C   0  0  0  0  0  0
  -19.5767  -26.6413   21.5194 C   0  0  0  0  0  0
  -18.1946  -26.7925   22.1623 C   0  0  0  0  0  0
  -19.1570  -28.8852   23.2864 C   0  0  0  0  0  0
  -18.9477  -30.1461   23.8868 C   0  0  0  0  0  0
  -17.6477  -30.6555   24.0564 C   0  0  0  0  0  0
  -25.9072  -34.9423   23.5078 C   0  0  0  0  0  0
  -16.5378  -29.9036   23.6358 C   0  0  0  0  0  0
  -16.7301  -28.6475   23.0366 C   0  0  0  0  0  0
  -26.4517  -31.6577   25.0735 C   0  0  0  0  0  0
  -25.3710  -31.3771   26.1437 C   0  0  0  0  0  0
  -27.0372  -30.2965   24.6323 C   0  0  0  0  0  0
  -27.6047  -32.4343   25.7517 C   0  0  0  0  0  0
  -27.5587  -37.1796   24.8475 C   0  0  0  0  0  0
  -21.4251  -29.3028   22.3645 N   0  0  0  0  0  0
  -26.4298  -37.3768   23.9413 N   0  0  0  0  0  0
  -24.7142  -31.0367   22.0963 N   0  0  0  0  0  0
  -23.4223  -28.8057   23.3023 O   0  0  0  0  0  0
  -28.2705  -26.2039   20.2270 O   0  0  0  0  0  0
  -26.5659  -34.8900   22.4650 O   0  0  0  0  0  0
  -23.5544  -32.1327   23.7169 O   0  0  0  0  0  0
  -30.1105  -17.5235   17.6824 C   0  0  0  0  0  0
  -30.8262  -17.4645   18.8971 C   0  0  0  0  0  0
  -28.1322  -18.2751   18.8990 C   0  0  0  0  0  0
  -28.7276  -17.8147   17.7022 C   0  0  0  0  0  0
  -28.9902  -18.5282   19.9955 C   0  0  0  0  0  0
  -30.0617  -17.4994   20.0828 C   0  0  0  0  0  0
  -30.0312  -20.9043   20.0330 C   0  0  0  0  0  0
  -29.7493  -22.4269   19.6093 C   0  0  0  0  0  0
  -27.7054  -22.2824   20.9859 C   0  0  0  0  0  0
  -27.7016  -20.8029   20.3680 C   0  0  0  0  0  0
  -28.7550  -23.3410   20.4566 C   0  0  2  0  0  0
  -27.9267  -17.7452   16.4193 C   0  0  0  0  0  0
  -28.1461  -24.7351   19.7651 C   0  0  0  0  0  0
  -28.9942  -20.0353   20.2773 N   0  0  0  0  0  0
  -29.8283  -16.0660   20.5607 N   0  0  0  0  0  0
  -31.2071  -20.5408   20.1111 O   0  0  0  0  0  0
  -31.4733  -12.6637   19.1959 H   0  0  0  0  0  0
  -30.4004  -11.5786   20.0243 H   0  0  0  0  0  0
  -29.8211  -11.7275   17.5673 H   0  0  0  0  0  0
  -29.6022  -13.4556   17.7121 H   0  0  0  0  0  0
  -27.9627  -11.2642   19.0132 H   0  0  0  0  0  0
  -27.3775  -12.4193   17.8384 H   0  0  0  0  0  0
  -27.6071  -14.2430   19.4200 H   0  0  0  0  0  0
  -28.3940  -13.9697   21.7567 H   0  0  0  0  0  0
  -28.7497  -12.2827   21.4756 H   0  0  0  0  0  0
  -25.2773   -9.5675   22.4793 H   0  0  0  0  0  0
  -24.0008   -7.4631   22.7479 H   0  0  0  0  0  0
  -21.0866   -8.8782   19.8963 H   0  0  0  0  0  0
  -22.3721  -10.9691   19.6196 H   0  0  0  0  0  0
  -21.1994   -7.6155   23.9696 H   0  0  0  0  0  0
  -21.1496   -6.0561   25.9082 H   0  0  0  0  0  0
  -22.0595   -2.7619   23.2860 H   0  0  0  0  0  0
  -22.4106  -11.9836   22.4755 H   0  0  0  0  0  0
  -21.1114  -13.1233   22.2679 H   0  0  0  0  0  0
  -24.6464  -15.8438   20.5042 H   0  0  0  0  0  0
  -26.2653  -15.6326   20.0698 H   0  0  0  0  0  0
  -26.7274  -32.5328   23.1038 H   0  0  0  0  0  0
  -25.0087  -33.9672   25.0360 H   0  0  0  0  0  0
  -22.7455  -31.2966   21.4011 H   0  0  0  0  0  0
  -23.3760  -35.9592   23.3300 H   0  0  0  0  0  0
  -24.3598  -36.8890   22.2062 H   0  0  0  0  0  0
  -23.7215  -37.6453   23.6670 H   0  0  0  0  0  0
  -26.1611  -31.4889   20.6254 H   0  0  0  0  0  0
  -26.8694  -30.7690   22.0362 H   0  0  0  0  0  0
  -28.1179  -28.8115   21.2413 H   0  0  0  0  0  0
  -25.8880  -25.9104   18.9238 H   0  0  0  0  0  0
  -23.9656  -27.3411   18.9609 H   0  0  0  0  0  0
  -23.8092  -30.5995   19.4142 H   0  0  0  0  0  0
  -22.7802  -29.2631   19.8344 H   0  0  0  0  0  0
  -25.1302  -36.1909   25.0820 H   0  0  0  0  0  0
  -21.0035  -28.3269   24.1378 H   0  0  0  0  0  0
  -20.5565  -26.2286   23.3630 H   0  0  0  0  0  0
  -21.6661  -26.7364   22.1256 H   0  0  0  0  0  0
  -19.6932  -25.6374   21.1123 H   0  0  0  0  0  0
  -19.6692  -27.3295   20.6780 H   0  0  0  0  0  0
  -17.4207  -26.6671   21.4044 H   0  0  0  0  0  0
  -18.0402  -26.0037   22.9001 H   0  0  0  0  0  0
  -19.7936  -30.7323   24.2202 H   0  0  0  0  0  0
  -17.5025  -31.6232   24.5163 H   0  0  0  0  0  0
  -15.5369  -30.2920   23.7739 H   0  0  0  0  0  0
  -15.8703  -28.0779   22.7089 H   0  0  0  0  0  0
  -24.5904  -30.7099   25.7777 H   0  0  0  0  0  0
  -24.8884  -32.2957   26.4793 H   0  0  0  0  0  0
  -25.7996  -30.9007   27.0261 H   0  0  0  0  0  0
  -26.2994  -29.6715   24.1291 H   0  0  0  0  0  0
  -27.3930  -29.7243   25.4902 H   0  0  0  0  0  0
  -27.8925  -30.4198   23.9674 H   0  0  0  0  0  0
  -27.2632  -33.3662   26.2037 H   0  0  0  0  0  0
  -28.3872  -32.6873   25.0351 H   0  0  0  0  0  0
  -28.0700  -31.8510   26.5478 H   0  0  0  0  0  0
  -28.2594  -38.0101   24.7508 H   0  0  0  0  0  0
  -28.1073  -36.2620   24.6297 H   0  0  0  0  0  0
  -27.2313  -37.1447   25.8882 H   0  0  0  0  0  0
  -20.9466  -29.8724   21.6815 H   0  0  0  0  0  0
  -26.0165  -38.2841   24.1395 H   0  0  0  0  0  0
  -30.6040  -17.2648   16.7554 H   0  0  0  0  0  0
  -31.8103  -17.0215   18.8642 H   0  0  0  0  0  0
  -27.1623  -18.7447   18.8094 H   0  0  0  0  0  0
  -29.3748  -22.3782   18.5867 H   0  0  0  0  0  0
  -30.7090  -22.9395   19.5306 H   0  0  0  0  0  0
  -27.8481  -22.1853   22.0641 H   0  0  0  0  0  0
  -26.6986  -22.6895   20.8884 H   0  0  0  0  0  0
  -27.2977  -20.8858   19.3568 H   0  0  0  0  0  0
  -26.9851  -20.1948   20.9217 H   0  0  0  0  0  0
  -29.3232  -23.6787   21.3257 H   0  0  0  0  0  0
  -28.4751  -18.2177   15.6034 H   0  0  0  0  0  0
  -26.9667  -18.2509   16.5144 H   0  0  0  0  0  0
  -27.7393  -16.7046   16.1531 H   0  0  0  0  0  0
  -27.1013  -24.4894   19.6254 H   0  0  0  0  0  0
  -28.5394  -24.7569   18.7470 H   0  0  0  0  0  0
  -28.8967  -15.8981   20.9064 H   0  0  0  0  0  0
  1 25  1  0  0  0
  1 30  2  0  0  0
  1 85  1  0  0  0
  2  3  1  0  0  0
  2 25  1  0  0  0
  2 87  1  0  0  0
  2 88  1  0  0  0
  3  4  1  0  0  0
  3 89  1  0  0  0
  3 90  1  0  0  0
  4  5  1  0  0  0
  4 91  1  0  0  0
  4 92  1  0  0  0
  5  6  1  0  0  0
  5 26  1  0  0  0
  5 93  1  0  0  0
  6 25  1  0  0  0
  6 94  1  0  0  0
  6 95  1  0  0  0
  7  8  2  0  0  0
  7 26  1  0  0  0
  7 29  1  0  0  0
  8  9  1  0  0  0
  8 22  1  0  0  0
  9 10  1  0  0  0
  9 27  2  0  0  0
 10 11  2  0  0  0
 10 15  1  0  0  0
 11 12  1  0  0  0
 11 96  1  0  0  0
 12 13  2  0  0  0
 12 97  1  0  0  0
 13 14  1  0  0  0
 13 31  1  0  0  0
 14 15  2  0  0  0
 14 98  1  0  0  0
 15 99  1  0  0  0
 16 17  2  0  0  0
 16 21  1  0  0  0
 16 31  1  0  0  0
 17 18  1  0  0  0
 17100  1  0  0  0
 18 19  2  0  0  0
 18101  1  0  0  0
 19 20  1  0  0  0
 19 24  1  0  0  0
 20 21  2  0  0  0
 20102  1  0  0  0
 21 23  1  0  0  0
 22 28  1  0  0  0
 22 32  2  0  0  0
 26 27  1  0  0  0
 28103  1  0  0  0
 28104  1  0  0  0
 29105  1  0  0  0
 29106  1  0  0  0
 33 34  1  0  0  0
 33 66  1  0  0  0
 33 70  2  0  0  0
 34 36  1  0  0  0
 34 59  1  0  0  0
 34107  1  0  0  0
 35 44  2  0  0  0
 35 45  1  0  0  0
 35 68  1  0  0  0
 36 56  1  0  0  0
 36108  1  0  0  0
 37 39  1  0  0  0
 37 47  1  0  0  0
 37 66  1  0  0  0
 37109  1  0  0  0
 38 43  2  0  0  0
 38 46  1  0  0  0
 38 47  1  0  0  0
 39 64  1  0  0  0
 39 67  2  0  0  0
 40 52  1  0  0  0
 40 53  2  0  0  0
 40 58  1  0  0  0
 41110  1  0  0  0
 41111  1  0  0  0
 41112  1  0  0  0
 41 48  1  0  0  0
 42 43  1  0  0  0
 42 66  1  0  0  0
 42113  1  0  0  0
 42114  1  0  0  0
 43 44  1  0  0  0
 44115  1  0  0  0
 45 46  2  0  0  0
 45116  1  0  0  0
 46117  1  0  0  0
 47118  1  0  0  0
 47119  1  0  0  0
 48 56  1  0  0  0
 48 65  1  0  0  0
 48120  1  0  0  0
 49 50  1  0  0  0
 49 53  1  0  0  0
 49 64  1  0  0  0
 49121  1  0  0  0
 50 51  1  0  0  0
 50122  1  0  0  0
 50123  1  0  0  0
 51 52  1  0  0  0
 51124  1  0  0  0
 51125  1  0  0  0
 52126  1  0  0  0
 52127  1  0  0  0
 53 54  1  0  0  0
 54 55  2  0  0  0
 54128  1  0  0  0
 55 57  1  0  0  0
 55129  1  0  0  0
 56 69  2  0  0  0
 57 58  2  0  0  0
 57130  1  0  0  0
 58131  1  0  0  0
 59 60  1  0  0  0
 59 61  1  0  0  0
 59 62  1  0  0  0
 60132  1  0  0  0
 60133  1  0  0  0
 60134  1  0  0  0
 61135  1  0  0  0
 61136  1  0  0  0
 61137  1  0  0  0
 62138  1  0  0  0
 62139  1  0  0  0
 62140  1  0  0  0
 63 65  1  0  0  0
 63141  1  0  0  0
 63142  1  0  0  0
 63143  1  0  0  0
 64144  1  0  0  0
 65145  1  0  0  0
 68 83  1  0  0  0
 71 72  2  0  0  0
 71 74  1  0  0  0
 71146  1  0  0  0
 72 76  1  0  0  0
 72147  1  0  0  0
 73 74  2  0  0  0
 73 75  1  0  0  0
 73148  1  0  0  0
 74 82  1  0  0  0
 75 76  2  0  0  0
 75 84  1  0  0  0
 76 85  1  0  0  0
 77 78  1  0  0  0
 77 84  1  0  0  0
 77 86  2  0  0  0
 78 81  1  0  0  0
 78149  1  0  0  0
 78150  1  0  0  0
 79 80  1  0  0  0
 79 81  1  0  0  0
 79151  1  0  0  0
 79152  1  0  0  0
 80 84  1  0  0  0
 80153  1  0  0  0
 80154  1  0  0  0
 81 83  1  0  0  0
 81155  1  0  0  0
 82156  1  0  0  0
 82157  1  0  0  0
 82158  1  0  0  0
 83159  1  0  0  0
 83160  1  0  0  0
 85161  1  0  0  0
M  ISO  4   1 100  68 101  83 101  85 100
M  END
> <chiral flag>
0

> <version>
0

> <s_m_source_file>
/data/baiqing/PycharmProjects/Reinvent-master-3.2/result/LINK_invent/BTK/process_docking_weight1_custom_product_contain_oxygen_bond_distance_aromatic_linkinvent_7_9_3/rearranged_h_0064.sdf

> <i_m_source_file_index>
46

> <r_mmod_Potential_Energy-OPLS-2005>
767.122497558594

> <r_mmod_Stretch_Energy-OPLS-2005>
214.380783081055

> <r_mmod_Bend_Energy-OPLS-2005>
265.643676757812

> <r_mmod_Torsional_Energy-OPLS-2005>
539.723205566406

> <r_mmod_Improper_Torsional_Energy-OPLS-2005>
38.0882415771484

> <r_mmod_Van_der_Waal_Energy-OPLS-2005>
163.297866821289

> <r_mmod_Electrostatic_Energy-OPLS-2005>
-383.703643798828

> <r_mmod_Solvation_Energy-OPLS-2005>
-225.450546264648

> <b_mmod_Minimization_Converged-OPLS-2005>
0

> <r_mmod_RMS_Derivative-OPLS-2005>
3.02065777778625

$$$$
46
                    3D
 Structure written by MMmdl.
159167  0  0  1  0            999 V2000
  -30.6715  -14.5422   20.5157 C   0  0  0  0  0  0
  -30.4255  -12.3280   19.4423 C   0  0  0  0  0  0
  -29.5023  -12.4837   18.2152 C   0  0  0  0  0  0
  -28.0236  -12.3407   18.6260 C   0  0  0  0  0  0
  -27.6545  -13.2085   19.8588 C   0  0  2  0  0  0
  -28.6959  -13.0465   20.9909 C   0  0  0  0  0  0
  -25.2579  -13.8195   20.5667 C   0  0  0  0  0  0
  -24.1836  -13.0476   20.9181 C   0  0  0  0  0  0
  -24.6380  -11.6935   20.8735 C   0  0  0  0  0  0
  -23.9053  -10.4327   21.0422 C   0  0  0  0  0  0
  -24.3621   -9.4233   21.9186 C   0  0  0  0  0  0
  -23.6294   -8.2272   22.0761 C   0  0  0  0  0  0
  -22.4266   -8.0323   21.3563 C   0  0  0  0  0  0
  -21.9899   -9.0294   20.4664 C   0  0  0  0  0  0
  -22.7231  -10.2164   20.3073 C   0  0  0  0  0  0
  -21.6861   -6.0747   22.5274 C   0  0  0  0  0  0
  -21.4022   -6.5637   23.8209 C   0  0  0  0  0  0
  -21.3646   -5.6777   24.9161 C   0  0  0  0  0  0
  -21.6040   -4.3041   24.7204 C   0  0  0  0  0  0
  -21.8824   -3.8146   23.4324 C   0  0  0  0  0  0
  -21.9193   -4.6970   22.3389 C   0  0  0  0  0  0
  -22.7861  -13.5299   21.1829 C   0  0  0  0  0  0
  -22.1671   -4.2169   21.0957 F   0  0  0  0  0  0
  -21.5614   -3.4511   25.7712 F   0  0  0  0  0  0
  -30.0260  -13.3452   20.4318 N   0  0  0  0  0  0
  -26.2981  -12.9351   20.3273 N   0  0  0  0  0  0
  -25.9295  -11.6511   20.5711 N   0  0  0  0  0  0
  -22.0471  -12.8332   22.0387 N   0  0  0  0  0  0
  -25.4324  -15.1917   20.4103 N   0  0  0  0  0  0
  -31.8257  -14.6993   20.1053 O   0  0  0  0  0  0
  -21.6648   -6.8910   21.4248 O   0  0  0  0  0  0
  -22.3561  -14.5586   20.6639 O   0  0  0  0  0  0
  -24.6177  -31.8646   23.2073 C   0  0  0  0  0  0
  -25.9065  -32.4808   23.8377 C   0  0  1  0  0  0
  -27.2427  -27.3951   20.0994 C   0  0  0  0  0  0
  -25.5904  -33.8609   24.2300 N   0  0  0  0  0  0
  -23.4084  -30.4845   21.5485 C   0  0  2  0  0  0
  -24.8553  -28.9425   20.1167 C   0  0  0  0  0  0
  -22.7428  -29.4626   22.4994 C   0  0  0  0  0  0
  -18.0269  -28.1386   22.8492 C   0  0  0  0  0  0
  -24.1483  -36.7315   23.2629 C   0  0  0  0  0  0
  -25.9406  -30.8168   21.3657 C   0  0  0  0  0  0
  -26.0168  -29.4483   20.7111 C   0  0  0  0  0  0
  -27.2093  -28.6837   20.6935 C   0  0  0  0  0  0
  -26.0547  -26.9080   19.5066 C   0  0  0  0  0  0
  -24.8717  -27.6739   19.5108 C   0  0  0  0  0  0
  -23.6176  -29.8112   20.1654 C   0  0  0  0  0  0
  -25.4095  -36.3103   24.0334 C   0  0  1  0  0  0
  -20.5857  -28.3654   23.1325 C   0  0  2  0  0  0
  -20.6750  -26.9386   22.5426 C   0  0  0  0  0  0
  -19.5732  -26.6377   21.5218 C   0  0  0  0  0  0
  -18.1912  -26.7933   22.1622 C   0  0  0  0  0  0
  -19.1524  -28.8838   23.2903 C   0  0  0  0  0  0
  -18.9449  -30.1446   23.8926 C   0  0  0  0  0  0
  -17.6455  -30.6586   24.0575 C   0  0  0  0  0  0
  -25.9026  -34.9473   23.5116 C   0  0  0  0  0  0
  -16.5341  -29.9092   23.6332 C   0  0  0  0  0  0
  -16.7261  -28.6501   23.0355 C   0  0  0  0  0  0
  -26.4475  -31.6625   25.0739 C   0  0  0  0  0  0
  -25.3736  -31.3805   26.1502 C   0  0  0  0  0  0
  -27.0286  -30.3039   24.6184 C   0  0  0  0  0  0
  -27.6065  -32.4360   25.7468 C   0  0  0  0  0  0
  -27.5604  -37.1763   24.8430 C   0  0  0  0  0  0
  -21.4146  -29.3018   22.3730 N   0  0  0  0  0  0
  -26.4264  -37.3808   23.9457 N   0  0  0  0  0  0
  -24.6743  -31.0705   22.0993 N   0  0  0  0  0  0
  -23.4177  -28.8178   23.3059 O   0  0  0  0  0  0
  -28.4374  -26.6880   20.1063 O   0  0  0  0  0  0
  -26.5589  -34.8933   22.4677 O   0  0  0  0  0  0
  -23.5362  -32.1425   23.7445 O   0  0  0  0  0  0
  -31.5117  -19.0116   20.9288 C   0  0  0  0  0  0
  -29.1796  -17.7999   19.9925 C   0  0  0  0  0  0
  -30.6022  -19.8064   20.1835 C   0  0  0  0  0  0
  -30.1410  -16.9961   20.6609 C   0  0  0  0  0  0
  -31.2975  -17.6360   21.1616 C   0  0  0  0  0  0
  -29.4034  -19.1831   19.7431 C   0  0  0  0  0  0
  -31.0357  -21.2137   19.7996 C   0  0  0  0  0  0
  -30.6920  -23.6290   19.5401 C   0  0  0  0  0  0
  -29.8692  -24.9195   19.2246 C   0  0  0  0  0  0
  -32.9189  -23.9135   18.2180 C   0  0  0  0  0  0
  -32.1915  -24.0268   19.5796 C   0  0  0  0  0  0
  -28.4996  -25.2523   19.8573 C   0  0  0  0  0  0
  -30.2796  -22.3960   19.7551 N   0  0  0  0  0  0
  -29.8914  -15.5918   20.8727 N   0  0  0  0  0  0
  -32.2757  -21.2181   19.4097 N   0  3  0  0  0  0
  -30.3312  -25.7677   18.4475 O   0  0  0  0  0  0
  -32.2071  -16.9386   21.8861 F   0  0  0  0  0  0
  -28.4749  -19.8814   19.0387 F   0  0  0  0  0  0
  -31.4712  -12.4238   19.1441 H   0  0  0  0  0  0
  -30.3245  -11.3313   19.8732 H   0  0  0  0  0  0
  -29.7487  -11.7335   17.4614 H   0  0  0  0  0  0
  -29.6656  -13.4544   17.7440 H   0  0  0  0  0  0
  -27.8441  -11.2873   18.8481 H   0  0  0  0  0  0
  -27.3780  -12.5830   17.7820 H   0  0  0  0  0  0
  -27.6771  -14.2427   19.5181 H   0  0  0  0  0  0
  -28.6778  -12.0319   21.3874 H   0  0  0  0  0  0
  -28.4506  -13.6968   21.8333 H   0  0  0  0  0  0
  -25.2770   -9.5674   22.4746 H   0  0  0  0  0  0
  -23.9995   -7.4651   22.7478 H   0  0  0  0  0  0
  -21.0822   -8.8820   19.8971 H   0  0  0  0  0  0
  -22.3703  -10.9712   19.6182 H   0  0  0  0  0  0
  -21.2019   -7.6144   23.9721 H   0  0  0  0  0  0
  -21.1467   -6.0499   25.9064 H   0  0  0  0  0  0
  -22.0609   -2.7609   23.2817 H   0  0  0  0  0  0
  -22.4065  -12.0004   22.4818 H   0  0  0  0  0  0
  -21.1106  -13.1421   22.2602 H   0  0  0  0  0  0
  -24.6650  -15.8472   20.5209 H   0  0  0  0  0  0
  -26.2716  -15.6240   20.0460 H   0  0  0  0  0  0
  -26.7145  -32.5507   23.1141 H   0  0  0  0  0  0
  -25.0085  -33.9763   25.0472 H   0  0  0  0  0  0
  -22.6975  -31.3014   21.4054 H   0  0  0  0  0  0
  -23.3766  -35.9621   23.3220 H   0  0  0  0  0  0
  -24.3614  -36.9007   22.2063 H   0  0  0  0  0  0
  -23.7191  -37.6477   23.6696 H   0  0  0  0  0  0
  -26.0589  -31.5849   20.6004 H   0  0  0  0  0  0
  -26.8249  -30.8682   21.9894 H   0  0  0  0  0  0
  -28.1083  -29.0745   21.1479 H   0  0  0  0  0  0
  -26.0118  -25.9437   19.0259 H   0  0  0  0  0  0
  -23.9777  -27.2788   19.0474 H   0  0  0  0  0  0
  -23.7219  -30.5819   19.4008 H   0  0  0  0  0  0
  -22.7416  -29.2272   19.8738 H   0  0  0  0  0  0
  -25.1255  -36.1946   25.0818 H   0  0  0  0  0  0
  -20.9941  -28.3235   24.1454 H   0  0  0  0  0  0
  -20.5639  -26.2270   23.3618 H   0  0  0  0  0  0
  -21.6629  -26.7422   22.1242 H   0  0  0  0  0  0
  -19.6886  -25.6290   21.1248 H   0  0  0  0  0  0
  -19.6685  -27.3187   20.6754 H   0  0  0  0  0  0
  -17.4183  -26.6697   21.4024 H   0  0  0  0  0  0
  -18.0293  -26.0071   22.9005 H   0  0  0  0  0  0
  -19.7923  -30.7249   24.2320 H   0  0  0  0  0  0
  -17.5006  -31.6270   24.5169 H   0  0  0  0  0  0
  -15.5346  -30.2997   23.7648 H   0  0  0  0  0  0
  -15.8654  -28.0824   22.7079 H   0  0  0  0  0  0
  -24.5856  -30.7194   25.7878 H   0  0  0  0  0  0
  -24.8995  -32.2998   26.4950 H   0  0  0  0  0  0
  -25.8073  -30.8979   27.0266 H   0  0  0  0  0  0
  -26.2833  -29.6805   24.1225 H   0  0  0  0  0  0
  -27.3981  -29.7295   25.4689 H   0  0  0  0  0  0
  -27.8712  -30.4310   23.9386 H   0  0  0  0  0  0
  -27.2684  -33.3633   26.2104 H   0  0  0  0  0  0
  -28.3811  -32.6973   25.0248 H   0  0  0  0  0  0
  -28.0805  -31.8471   26.5327 H   0  0  0  0  0  0
  -28.2507  -38.0172   24.7658 H   0  0  0  0  0  0
  -28.1209  -36.2728   24.5989 H   0  0  0  0  0  0
  -27.2381  -37.1088   25.8834 H   0  0  0  0  0  0
  -20.9318  -29.8736   21.6943 H   0  0  0  0  0  0
  -26.0147  -38.2853   24.1592 H   0  0  0  0  0  0
  -32.4155  -19.4529   21.3165 H   0  0  0  0  0  0
  -28.2687  -17.3499   19.6281 H   0  0  0  0  0  0
  -33.9998  -23.9734   18.3508 H   0  0  0  0  0  0
  -32.6342  -24.7339   17.5589 H   0  0  0  0  0  0
  -32.7027  -22.9992   17.6660 H   0  0  0  0  0  0
  -32.7081  -23.4692   20.3605 H   0  0  0  0  0  0
  -32.2951  -25.0544   19.9342 H   0  0  0  0  0  0
  -28.3647  -24.6987   20.7864 H   0  0  0  0  0  0
  -27.7418  -24.9197   19.1514 H   0  0  0  0  0  0
  -28.9444  -15.3381   21.1016 H   0  0  0  0  0  0
  -32.8332  -20.3685   19.3360 H   0  0  0  0  0  0
  -32.7525  -22.0656   19.1095 H   0  0  0  0  0  0
  1 25  1  0  0  0
  1 30  2  0  0  0
  1 84  1  0  0  0
  2  3  1  0  0  0
  2 25  1  0  0  0
  2 89  1  0  0  0
  2 90  1  0  0  0
  3  4  1  0  0  0
  3 91  1  0  0  0
  3 92  1  0  0  0
  4  5  1  0  0  0
  4 93  1  0  0  0
  4 94  1  0  0  0
  5  6  1  0  0  0
  5 26  1  0  0  0
  5 95  1  0  0  0
  6 25  1  0  0  0
  6 96  1  0  0  0
  6 97  1  0  0  0
  7  8  2  0  0  0
  7 26  1  0  0  0
  7 29  1  0  0  0
  8  9  1  0  0  0
  8 22  1  0  0  0
  9 10  1  0  0  0
  9 27  2  0  0  0
 10 11  2  0  0  0
 10 15  1  0  0  0
 11 12  1  0  0  0
 11 98  1  0  0  0
 12 13  2  0  0  0
 12 99  1  0  0  0
 13 14  1  0  0  0
 13 31  1  0  0  0
 14 15  2  0  0  0
 14100  1  0  0  0
 15101  1  0  0  0
 16 17  2  0  0  0
 16 21  1  0  0  0
 16 31  1  0  0  0
 17 18  1  0  0  0
 17102  1  0  0  0
 18 19  2  0  0  0
 18103  1  0  0  0
 19 20  1  0  0  0
 19 24  1  0  0  0
 20 21  2  0  0  0
 20104  1  0  0  0
 21 23  1  0  0  0
 22 28  1  0  0  0
 22 32  2  0  0  0
 26 27  1  0  0  0
 28105  1  0  0  0
 28106  1  0  0  0
 29107  1  0  0  0
 29108  1  0  0  0
 33 34  1  0  0  0
 33 66  1  0  0  0
 33 70  2  0  0  0
 34 36  1  0  0  0
 34 59  1  0  0  0
 34109  1  0  0  0
 35 44  2  0  0  0
 35 45  1  0  0  0
 35 68  1  0  0  0
 36 56  1  0  0  0
 36110  1  0  0  0
 37 39  1  0  0  0
 37 47  1  0  0  0
 37 66  1  0  0  0
 37111  1  0  0  0
 38 43  2  0  0  0
 38 46  1  0  0  0
 38 47  1  0  0  0
 39 64  1  0  0  0
 39 67  2  0  0  0
 40 52  1  0  0  0
 40 53  2  0  0  0
 40 58  1  0  0  0
 41112  1  0  0  0
 41113  1  0  0  0
 41114  1  0  0  0
 41 48  1  0  0  0
 42 43  1  0  0  0
 42 66  1  0  0  0
 42115  1  0  0  0
 42116  1  0  0  0
 43 44  1  0  0  0
 44117  1  0  0  0
 45 46  2  0  0  0
 45118  1  0  0  0
 46119  1  0  0  0
 47120  1  0  0  0
 47121  1  0  0  0
 48 56  1  0  0  0
 48 65  1  0  0  0
 48122  1  0  0  0
 49 50  1  0  0  0
 49 53  1  0  0  0
 49 64  1  0  0  0
 49123  1  0  0  0
 50 51  1  0  0  0
 50124  1  0  0  0
 50125  1  0  0  0
 51 52  1  0  0  0
 51126  1  0  0  0
 51127  1  0  0  0
 52128  1  0  0  0
 52129  1  0  0  0
 53 54  1  0  0  0
 54 55  2  0  0  0
 54130  1  0  0  0
 55 57  1  0  0  0
 55131  1  0  0  0
 56 69  2  0  0  0
 57 58  2  0  0  0
 57132  1  0  0  0
 58133  1  0  0  0
 59 60  1  0  0  0
 59 61  1  0  0  0
 59 62  1  0  0  0
 60134  1  0  0  0
 60135  1  0  0  0
 60136  1  0  0  0
 61137  1  0  0  0
 61138  1  0  0  0
 61139  1  0  0  0
 62140  1  0  0  0
 62141  1  0  0  0
 62142  1  0  0  0
 63 65  1  0  0  0
 63143  1  0  0  0
 63144  1  0  0  0
 63145  1  0  0  0
 64146  1  0  0  0
 65147  1  0  0  0
 68 82  1  0  0  0
 71 73  2  0  0  0
 71 75  1  0  0  0
 71148  1  0  0  0
 72 74  1  0  0  0
 72 76  2  0  0  0
 72149  1  0  0  0
 73 76  1  0  0  0
 73 77  1  0  0  0
 74 75  2  0  0  0
 74 84  1  0  0  0
 75 87  1  0  0  0
 76 88  1  0  0  0
 77 83  1  0  0  0
 77 85  2  0  0  0
 78 79  1  0  0  0
 78 81  1  0  0  0
 78 83  2  0  0  0
 79 82  1  0  0  0
 79 86  2  0  0  0
 80 81  1  0  0  0
 80150  1  0  0  0
 80151  1  0  0  0
 80152  1  0  0  0
 81153  1  0  0  0
 81154  1  0  0  0
 82155  1  0  0  0
 82156  1  0  0  0
 84157  1  0  0  0
 85158  1  0  0  0
 85159  1  0  0  0
M  CHG  1  85   1
M  ISO  4   1 100  68 101  82 101  84 100
M  END
> <chiral flag>
0

> <version>
0

> <s_m_source_file>
/data/baiqing/PycharmProjects/Reinvent-master-3.2/result/LINK_invent/BTK/process_docking_weight1_custom_product_contain_oxygen_bond_distance_aromatic_linkinvent_7_9_3/rearranged_h_0064.sdf

> <i_m_source_file_index>
47

> <r_mmod_Potential_Energy-OPLS-2005>
122.216087341309

> <r_mmod_Stretch_Energy-OPLS-2005>
73.6839218139648

> <r_mmod_Bend_Energy-OPLS-2005>
145.722686767578

> <r_mmod_Torsional_Energy-OPLS-2005>
259.798126220703

> <r_mmod_Improper_Torsional_Energy-OPLS-2005>
6.66881227493286

> <r_mmod_Van_der_Waal_Energy-OPLS-2005>
182.961166381836

> <r_mmod_Electrostatic_Energy-OPLS-2005>
-53.9151039123535

> <r_mmod_Solvation_Energy-OPLS-2005>
-514.954040527344

> <b_mmod_Minimization_Converged-OPLS-2005>
0

> <r_mmod_RMS_Derivative-OPLS-2005>
3.11058831214905

$$$$
47
                    3D
 Structure written by MMmdl.
154163  0  0  1  0            999 V2000
  -30.6071  -14.7328   20.4627 C   0  0  0  0  0  0
  -30.4324  -12.4385   19.4860 C   0  0  0  0  0  0
  -29.5156  -12.5050   18.2430 C   0  0  0  0  0  0
  -28.0372  -12.3423   18.6475 C   0  0  0  0  0  0
  -27.6460  -13.2292   19.8602 C   0  0  2  0  0  0
  -28.6883  -13.1405   20.9978 C   0  0  0  0  0  0
  -25.2528  -13.8179   20.5727 C   0  0  0  0  0  0
  -24.1806  -13.0430   20.9201 C   0  0  0  0  0  0
  -24.6389  -11.6903   20.8733 C   0  0  0  0  0  0
  -23.9074  -10.4278   21.0393 C   0  0  0  0  0  0
  -24.3628   -9.4192   21.9173 C   0  0  0  0  0  0
  -23.6300   -8.2233   22.0767 C   0  0  0  0  0  0
  -22.4274   -8.0278   21.3562 C   0  0  0  0  0  0
  -21.9915   -9.0247   20.4658 C   0  0  0  0  0  0
  -22.7251  -10.2121   20.3040 C   0  0  0  0  0  0
  -21.6850   -6.0735   22.5290 C   0  0  0  0  0  0
  -21.4004   -6.5639   23.8220 C   0  0  0  0  0  0
  -21.3661   -5.6796   24.9185 C   0  0  0  0  0  0
  -21.6048   -4.3064   24.7237 C   0  0  0  0  0  0
  -21.8814   -3.8147   23.4359 C   0  0  0  0  0  0
  -21.9188   -4.6959   22.3413 C   0  0  0  0  0  0
  -22.7822  -13.5217   21.1870 C   0  0  0  0  0  0
  -22.1658   -4.2139   21.0995 F   0  0  0  0  0  0
  -21.5634   -3.4561   25.7760 F   0  0  0  0  0  0
  -29.9974  -13.4953   20.4323 N   0  0  0  0  0  0
  -26.2954  -12.9386   20.3317 N   0  0  0  0  0  0
  -25.9321  -11.6532   20.5761 N   0  0  0  0  0  0
  -22.0462  -12.8201   22.0419 N   0  0  0  0  0  0
  -25.4227  -15.1915   20.4196 N   0  0  0  0  0  0
  -31.7690  -14.8545   20.0636 O   0  0  0  0  0  0
  -21.6636   -6.8880   21.4258 O   0  0  0  0  0  0
  -22.3505  -14.5519   20.6718 O   0  0  0  0  0  0
  -24.6314  -31.8560   23.1994 C   0  0  0  0  0  0
  -25.9133  -32.4762   23.8341 C   0  0  1  0  0  0
  -27.2178  -27.2475   20.1237 C   0  0  0  0  0  0
  -25.5930  -33.8565   24.2265 N   0  0  0  0  0  0
  -23.4298  -30.4794   21.5434 C   0  0  2  0  0  0
  -24.8767  -28.9310   20.1090 C   0  0  0  0  0  0
  -22.7501  -29.4598   22.4900 C   0  0  0  0  0  0
  -18.0294  -28.1396   22.8491 C   0  0  0  0  0  0
  -24.1485  -36.7285   23.2640 C   0  0  0  0  0  0
  -25.9776  -30.7605   21.3869 C   0  0  0  0  0  0
  -26.0478  -29.3830   20.7284 C   0  0  0  0  0  0
  -27.2156  -28.5504   20.7341 C   0  0  0  0  0  0
  -26.0284  -26.8886   19.4437 C   0  0  0  0  0  0
  -24.8737  -27.6913   19.4585 C   0  0  0  0  0  0
  -23.6499  -29.8204   20.1580 C   0  0  0  0  0  0
  -25.4116  -36.3077   24.0321 C   0  0  1  0  0  0
  -20.5897  -28.3706   23.1268 C   0  0  2  0  0  0
  -20.6783  -26.9424   22.5416 C   0  0  0  0  0  0
  -19.5757  -26.6390   21.5223 C   0  0  0  0  0  0
  -18.1934  -26.7937   22.1632 C   0  0  0  0  0  0
  -19.1549  -28.8868   23.2874 C   0  0  0  0  0  0
  -18.9466  -30.1466   23.8897 C   0  0  0  0  0  0
  -17.6466  -30.6596   24.0563 C   0  0  0  0  0  0
  -25.9056  -34.9446   23.5100 C   0  0  0  0  0  0
  -16.5359  -29.9094   23.6324 C   0  0  0  0  0  0
  -16.7280  -28.6510   23.0352 C   0  0  0  0  0  0
  -26.4498  -31.6589   25.0739 C   0  0  0  0  0  0
  -25.3697  -31.3734   26.1447 C   0  0  0  0  0  0
  -27.0362  -30.3004   24.6239 C   0  0  0  0  0  0
  -27.6050  -32.4332   25.7516 C   0  0  0  0  0  0
  -27.5586  -37.1800   24.8465 C   0  0  0  0  0  0
  -21.4205  -29.3055   22.3654 N   0  0  0  0  0  0
  -26.4294  -37.3776   23.9414 N   0  0  0  0  0  0
  -24.6988  -31.0497   22.0997 N   0  0  0  0  0  0
  -23.4190  -28.8131   23.3002 O   0  0  0  0  0  0
  -28.3119  -26.3438   20.2209 O   0  0  0  0  0  0
  -26.5626  -34.8921   22.4669 O   0  0  0  0  0  0
  -23.5454  -32.1409   23.7257 O   0  0  0  0  0  0
  -28.9254  -19.4553   18.6076 C   0  0  0  0  0  0
  -28.8973  -18.1679   18.0425 C   0  0  0  0  0  0
  -29.7059  -18.4761   20.6970 C   0  0  0  0  0  0
  -29.3376  -19.6750   19.9400 C   0  0  0  0  0  0
  -29.6735  -17.1257   20.1294 C   0  0  0  0  0  0
  -29.2562  -17.0281   18.7810 C   0  0  0  0  0  0
  -30.2367  -23.3063   20.6780 C   0  0  0  0  0  0
  -30.4986  -21.7613   20.7242 C   0  0  0  0  0  0
  -28.3325  -22.1445   20.0245 C   0  0  0  0  0  0
  -28.7446  -23.5870   20.5644 C   0  0  2  0  0  0
  -28.2163  -24.9028   19.7645 C   0  0  0  0  0  0
  -29.3659  -21.1016   20.3842 N   0  0  0  0  0  0
  -29.8705  -15.8426   20.8530 N   0  0  0  0  0  0
  -31.1095  -24.1832   20.7318 O   0  0  0  0  0  0
  -31.5847  -21.2502   21.0306 O   0  0  0  0  0  0
  -29.1402  -15.8181   18.1857 F   0  0  0  0  0  0
  -31.4766  -12.5496   19.1896 H   0  0  0  0  0  0
  -30.3626  -11.4570   19.9583 H   0  0  0  0  0  0
  -29.7935  -11.7329   17.5253 H   0  0  0  0  0  0
  -29.6590  -13.4566   17.7315 H   0  0  0  0  0  0
  -27.8751  -11.2920   18.8934 H   0  0  0  0  0  0
  -27.3880  -12.5560   17.7978 H   0  0  0  0  0  0
  -27.6440  -14.2565   19.4988 H   0  0  0  0  0  0
  -28.7165  -12.1312   21.4124 H   0  0  0  0  0  0
  -28.4215  -13.7999   21.8254 H   0  0  0  0  0  0
  -25.2772   -9.5666   22.4750 H   0  0  0  0  0  0
  -24.0007   -7.4610   22.7478 H   0  0  0  0  0  0
  -21.0856   -8.8765   19.8954 H   0  0  0  0  0  0
  -22.3715  -10.9657   19.6142 H   0  0  0  0  0  0
  -21.1985   -7.6142   23.9736 H   0  0  0  0  0  0
  -21.1495   -6.0525   25.9098 H   0  0  0  0  0  0
  -22.0588   -2.7608   23.2873 H   0  0  0  0  0  0
  -22.4116  -11.9873   22.4797 H   0  0  0  0  0  0
  -21.1067  -13.1200   22.2637 H   0  0  0  0  0  0
  -24.6559  -15.8436   20.5417 H   0  0  0  0  0  0
  -26.2732  -15.6365   20.0996 H   0  0  0  0  0  0
  -26.7201  -32.5398   23.1084 H   0  0  0  0  0  0
  -25.0058  -33.9724   25.0395 H   0  0  0  0  0  0
  -22.7270  -31.3024   21.3986 H   0  0  0  0  0  0
  -23.3762  -35.9605   23.3300 H   0  0  0  0  0  0
  -24.3562  -36.8919   22.2055 H   0  0  0  0  0  0
  -23.7232  -37.6480   23.6670 H   0  0  0  0  0  0
  -26.1201  -31.5167   20.6141 H   0  0  0  0  0  0
  -26.8536  -30.8097   22.0213 H   0  0  0  0  0  0
  -28.1056  -28.8851   21.2480 H   0  0  0  0  0  0
  -25.9325  -25.9725   18.8838 H   0  0  0  0  0  0
  -23.9826  -27.3470   18.9516 H   0  0  0  0  0  0
  -23.7785  -30.5997   19.4066 H   0  0  0  0  0  0
  -22.7667  -29.2594   19.8488 H   0  0  0  0  0  0
  -25.1296  -36.1933   25.0809 H   0  0  0  0  0  0
  -20.9994  -28.3302   24.1390 H   0  0  0  0  0  0
  -20.5697  -26.2319   23.3621 H   0  0  0  0  0  0
  -21.6648  -26.7450   22.1207 H   0  0  0  0  0  0
  -19.6914  -25.6303   21.1256 H   0  0  0  0  0  0
  -19.6688  -27.3194   20.6748 H   0  0  0  0  0  0
  -17.4201  -26.6685   21.4034 H   0  0  0  0  0  0
  -18.0316  -26.0086   22.9031 H   0  0  0  0  0  0
  -19.7941  -30.7278   24.2271 H   0  0  0  0  0  0
  -17.5023  -31.6273   24.5177 H   0  0  0  0  0  0
  -15.5358  -30.2999   23.7657 H   0  0  0  0  0  0
  -15.8677  -28.0831   22.7069 H   0  0  0  0  0  0
  -24.5905  -30.7054   25.7771 H   0  0  0  0  0  0
  -24.8842  -32.2890   26.4822 H   0  0  0  0  0  0
  -25.7997  -30.8955   27.0259 H   0  0  0  0  0  0
  -26.2964  -29.6738   24.1244 H   0  0  0  0  0  0
  -27.4036  -29.7283   25.4771 H   0  0  0  0  0  0
  -27.8842  -30.4300   23.9510 H   0  0  0  0  0  0
  -27.2681  -33.3660   26.2049 H   0  0  0  0  0  0
  -28.3886  -32.6841   25.0356 H   0  0  0  0  0  0
  -28.0691  -31.8476   26.5467 H   0  0  0  0  0  0
  -28.2591  -38.0108   24.7528 H   0  0  0  0  0  0
  -28.1100  -36.2639   24.6287 H   0  0  0  0  0  0
  -27.2292  -37.1442   25.8863 H   0  0  0  0  0  0
  -20.9388  -29.8793   21.6875 H   0  0  0  0  0  0
  -26.0175  -38.2850   24.1432 H   0  0  0  0  0  0
  -28.6439  -20.2826   17.9742 H   0  0  0  0  0  0
  -28.5745  -18.0483   17.0187 H   0  0  0  0  0  0
  -29.9975  -18.5937   21.7312 H   0  0  0  0  0  0
  -28.2226  -22.1924   18.9408 H   0  0  0  0  0  0
  -27.3625  -21.8496   20.4257 H   0  0  0  0  0  0
  -28.3847  -23.6640   21.5899 H   0  0  0  0  0  0
  -27.1734  -24.6328   19.6431 H   0  0  0  0  0  0
  -28.6313  -24.8755   18.7560 H   0  0  0  0  0  0
  -29.0618  -15.5824   21.3970 H   0  0  0  0  0  0
  1 25  1  0  0  0
  1 30  2  0  0  0
  1 83  1  0  0  0
  2  3  1  0  0  0
  2 25  1  0  0  0
  2 87  1  0  0  0
  2 88  1  0  0  0
  3  4  1  0  0  0
  3 89  1  0  0  0
  3 90  1  0  0  0
  4  5  1  0  0  0
  4 91  1  0  0  0
  4 92  1  0  0  0
  5  6  1  0  0  0
  5 26  1  0  0  0
  5 93  1  0  0  0
  6 25  1  0  0  0
  6 94  1  0  0  0
  6 95  1  0  0  0
  7  8  2  0  0  0
  7 26  1  0  0  0
  7 29  1  0  0  0
  8  9  1  0  0  0
  8 22  1  0  0  0
  9 10  1  0  0  0
  9 27  2  0  0  0
 10 11  2  0  0  0
 10 15  1  0  0  0
 11 12  1  0  0  0
 11 96  1  0  0  0
 12 13  2  0  0  0
 12 97  1  0  0  0
 13 14  1  0  0  0
 13 31  1  0  0  0
 14 15  2  0  0  0
 14 98  1  0  0  0
 15 99  1  0  0  0
 16 17  2  0  0  0
 16 21  1  0  0  0
 16 31  1  0  0  0
 17 18  1  0  0  0
 17100  1  0  0  0
 18 19  2  0  0  0
 18101  1  0  0  0
 19 20  1  0  0  0
 19 24  1  0  0  0
 20 21  2  0  0  0
 20102  1  0  0  0
 21 23  1  0  0  0
 22 28  1  0  0  0
 22 32  2  0  0  0
 26 27  1  0  0  0
 28103  1  0  0  0
 28104  1  0  0  0
 29105  1  0  0  0
 29106  1  0  0  0
 33 34  1  0  0  0
 33 66  1  0  0  0
 33 70  2  0  0  0
 34 36  1  0  0  0
 34 59  1  0  0  0
 34107  1  0  0  0
 35 44  2  0  0  0
 35 45  1  0  0  0
 35 68  1  0  0  0
 36 56  1  0  0  0
 36108  1  0  0  0
 37 39  1  0  0  0
 37 47  1  0  0  0
 37 66  1  0  0  0
 37109  1  0  0  0
 38 43  2  0  0  0
 38 46  1  0  0  0
 38 47  1  0  0  0
 39 64  1  0  0  0
 39 67  2  0  0  0
 40 52  1  0  0  0
 40 53  2  0  0  0
 40 58  1  0  0  0
 41110  1  0  0  0
 41111  1  0  0  0
 41112  1  0  0  0
 41 48  1  0  0  0
 42 43  1  0  0  0
 42 66  1  0  0  0
 42113  1  0  0  0
 42114  1  0  0  0
 43 44  1  0  0  0
 44115  1  0  0  0
 45 46  2  0  0  0
 45116  1  0  0  0
 46117  1  0  0  0
 47118  1  0  0  0
 47119  1  0  0  0
 48 56  1  0  0  0
 48 65  1  0  0  0
 48120  1  0  0  0
 49 50  1  0  0  0
 49 53  1  0  0  0
 49 64  1  0  0  0
 49121  1  0  0  0
 50 51  1  0  0  0
 50122  1  0  0  0
 50123  1  0  0  0
 51 52  1  0  0  0
 51124  1  0  0  0
 51125  1  0  0  0
 52126  1  0  0  0
 52127  1  0  0  0
 53 54  1  0  0  0
 54 55  2  0  0  0
 54128  1  0  0  0
 55 57  1  0  0  0
 55129  1  0  0  0
 56 69  2  0  0  0
 57 58  2  0  0  0
 57130  1  0  0  0
 58131  1  0  0  0
 59 60  1  0  0  0
 59 61  1  0  0  0
 59 62  1  0  0  0
 60132  1  0  0  0
 60133  1  0  0  0
 60134  1  0  0  0
 61135  1  0  0  0
 61136  1  0  0  0
 61137  1  0  0  0
 62138  1  0  0  0
 62139  1  0  0  0
 62140  1  0  0  0
 63 65  1  0  0  0
 63141  1  0  0  0
 63142  1  0  0  0
 63143  1  0  0  0
 64144  1  0  0  0
 65145  1  0  0  0
 68 81  1  0  0  0
 71 72  2  0  0  0
 71 74  1  0  0  0
 71146  1  0  0  0
 72 76  1  0  0  0
 72147  1  0  0  0
 73 74  2  0  0  0
 73 75  1  0  0  0
 73148  1  0  0  0
 74 82  1  0  0  0
 75 76  2  0  0  0
 75 83  1  0  0  0
 76 86  1  0  0  0
 77 78  1  0  0  0
 77 80  1  0  0  0
 77 84  2  0  0  0
 78 82  1  0  0  0
 78 85  2  0  0  0
 79 80  1  0  0  0
 79 82  1  0  0  0
 79149  1  0  0  0
 79150  1  0  0  0
 80 81  1  0  0  0
 80151  1  0  0  0
 81152  1  0  0  0
 81153  1  0  0  0
 83154  1  0  0  0
M  ISO  4   1 100  68 101  81 101  83 100
M  END
> <chiral flag>
0

> <version>
0

> <s_m_source_file>
/data/baiqing/PycharmProjects/Reinvent-master-3.2/result/LINK_invent/BTK/process_docking_weight1_custom_product_contain_oxygen_bond_distance_aromatic_linkinvent_7_9_3/rearranged_h_0064.sdf

> <i_m_source_file_index>
48

> <r_mmod_Potential_Energy-OPLS-2005>
272.373168945312

> <r_mmod_Stretch_Energy-OPLS-2005>
130.713165283203

> <r_mmod_Bend_Energy-OPLS-2005>
209.80290222168

> <r_mmod_Torsional_Energy-OPLS-2005>
284.437530517578

> <r_mmod_Improper_Torsional_Energy-OPLS-2005>
6.85165500640869

> <r_mmod_Van_der_Waal_Energy-OPLS-2005>
137.121963500977

> <r_mmod_Electrostatic_Energy-OPLS-2005>
-320.265289306641

> <r_mmod_Solvation_Energy-OPLS-2005>
-262.679382324219

> <b_mmod_Minimization_Converged-OPLS-2005>
0

> <r_mmod_RMS_Derivative-OPLS-2005>
1.75115084648132

$$$$
48
                    3D
 Structure written by MMmdl.
158166  0  0  1  0            999 V2000
  -30.7289  -14.4740   20.5671 C   0  0  0  0  0  0
  -30.4121  -12.3100   19.4237 C   0  0  0  0  0  0
  -29.4881  -12.4991   18.2051 C   0  0  0  0  0  0
  -28.0118  -12.3601   18.6221 C   0  0  0  0  0  0
  -27.6575  -13.2122   19.8702 C   0  0  2  0  0  0
  -28.7020  -13.0227   20.9940 C   0  0  0  0  0  0
  -25.2570  -13.8176   20.5689 C   0  0  0  0  0  0
  -24.1831  -13.0445   20.9193 C   0  0  0  0  0  0
  -24.6393  -11.6914   20.8750 C   0  0  0  0  0  0
  -23.9066  -10.4295   21.0420 C   0  0  0  0  0  0
  -24.3615   -9.4207   21.9198 C   0  0  0  0  0  0
  -23.6290   -8.2242   22.0760 C   0  0  0  0  0  0
  -22.4273   -8.0283   21.3545 C   0  0  0  0  0  0
  -21.9917   -9.0260   20.4648 C   0  0  0  0  0  0
  -22.7243  -10.2142   20.3063 C   0  0  0  0  0  0
  -21.6848   -6.0742   22.5281 C   0  0  0  0  0  0
  -21.4009   -6.5646   23.8214 C   0  0  0  0  0  0
  -21.3659   -5.6799   24.9177 C   0  0  0  0  0  0
  -21.6044   -4.3062   24.7227 C   0  0  0  0  0  0
  -21.8819   -3.8156   23.4346 C   0  0  0  0  0  0
  -21.9189   -4.6971   22.3403 C   0  0  0  0  0  0
  -22.7853  -13.5237   21.1850 C   0  0  0  0  0  0
  -22.1659   -4.2158   21.0980 F   0  0  0  0  0  0
  -21.5631   -3.4544   25.7737 F   0  0  0  0  0  0
  -30.0287  -13.3143   20.4296 N   0  0  0  0  0  0
  -26.3007  -12.9358   20.3366 N   0  0  0  0  0  0
  -25.9320  -11.6512   20.5783 N   0  0  0  0  0  0
  -22.0491  -12.8222   22.0399 N   0  0  0  0  0  0
  -25.4284  -15.1897   20.4080 N   0  0  0  0  0  0
  -31.8635  -14.6117   20.1026 O   0  0  0  0  0  0
  -21.6634   -6.8885   21.4243 O   0  0  0  0  0  0
  -22.3546  -14.5551   20.6708 O   0  0  0  0  0  0
  -24.6174  -31.8678   23.2119 C   0  0  0  0  0  0
  -25.9064  -32.4822   23.8409 C   0  0  1  0  0  0
  -27.2222  -27.4108   20.0901 C   0  0  0  0  0  0
  -25.5913  -33.8621   24.2332 N   0  0  0  0  0  0
  -23.4046  -30.4954   21.5534 C   0  0  2  0  0  0
  -24.8474  -28.9673   20.1108 C   0  0  0  0  0  0
  -22.7422  -29.4661   22.4983 C   0  0  0  0  0  0
  -18.0278  -28.1376   22.8499 C   0  0  0  0  0  0
  -24.1484  -36.7310   23.2638 C   0  0  0  0  0  0
  -25.9388  -30.8253   21.3703 C   0  0  0  0  0  0
  -26.0122  -29.4614   20.7110 C   0  0  0  0  0  0
  -27.2022  -28.6915   20.6980 C   0  0  0  0  0  0
  -26.0362  -26.9536   19.4634 C   0  0  0  0  0  0
  -24.8560  -27.7137   19.4834 C   0  0  0  0  0  0
  -23.6118  -29.8361   20.1657 C   0  0  0  0  0  0
  -25.4108  -36.3111   24.0336 C   0  0  1  0  0  0
  -20.5871  -28.3667   23.1310 C   0  0  2  0  0  0
  -20.6762  -26.9400   22.5414 C   0  0  0  0  0  0
  -19.5737  -26.6385   21.5213 C   0  0  0  0  0  0
  -18.1921  -26.7926   22.1623 C   0  0  0  0  0  0
  -19.1528  -28.8838   23.2904 C   0  0  0  0  0  0
  -18.9454  -30.1447   23.8908 C   0  0  0  0  0  0
  -17.6454  -30.6583   24.0568 C   0  0  0  0  0  0
  -25.9039  -34.9476   23.5130 C   0  0  0  0  0  0
  -16.5347  -29.9083   23.6326 C   0  0  0  0  0  0
  -16.7266  -28.6497   23.0356 C   0  0  0  0  0  0
  -26.4481  -31.6602   25.0740 C   0  0  0  0  0  0
  -25.3740  -31.3696   26.1477 C   0  0  0  0  0  0
  -27.0322  -30.3048   24.6131 C   0  0  0  0  0  0
  -27.6055  -32.4319   25.7506 C   0  0  0  0  0  0
  -27.5583  -37.1809   24.8465 C   0  0  0  0  0  0
  -21.4148  -29.3037   22.3717 N   0  0  0  0  0  0
  -26.4295  -37.3797   23.9410 N   0  0  0  0  0  0
  -24.6721  -31.0768   22.1029 N   0  0  0  0  0  0
  -23.4188  -28.8195   23.3024 O   0  0  0  0  0  0
  -28.3703  -26.6303   20.1357 O   0  0  0  0  0  0
  -26.5596  -34.8926   22.4689 O   0  0  0  0  0  0
  -23.5358  -32.1439   23.7497 O   0  0  0  0  0  0
  -31.7209  -19.3957   21.7808 C   0  0  0  0  0  0
  -31.8626  -16.9747   21.9550 C   0  0  0  0  0  0
  -29.8947  -18.0118   20.9546 C   0  0  0  0  0  0
  -32.4285  -18.2463   22.1855 C   0  0  0  0  0  0
  -30.4451  -19.3073   21.1703 C   0  0  0  0  0  0
  -30.6062  -16.8368   21.3223 C   0  0  0  0  0  0
  -34.5818  -17.4384   23.2107 C   0  0  0  0  0  0
  -33.7470  -18.4177   22.8219 C   0  0  0  0  0  0
  -29.9260  -21.7865   20.9633 C   0  0  0  0  0  0
  -28.9817  -22.7848   20.2622 C   0  0  0  0  0  0
  -29.2924  -24.2976   20.4957 C   0  0  0  0  0  0
  -28.1913  -25.2129   19.9138 C   0  0  0  0  0  0
  -29.7134  -20.4672   20.7268 N   0  0  0  0  0  0
  -30.0609  -15.5295   21.0858 N   0  0  0  0  0  0
  -30.8010  -22.2228   21.7139 O   0  0  0  0  0  0
  -31.4572  -12.3909   19.1206 H   0  0  0  0  0  0
  -30.3014  -11.3063   19.8366 H   0  0  0  0  0  0
  -29.7271  -11.7664   17.4330 H   0  0  0  0  0  0
  -29.6561  -13.4809   17.7598 H   0  0  0  0  0  0
  -27.8264  -11.3056   18.8301 H   0  0  0  0  0  0
  -27.3586  -12.6235   17.7893 H   0  0  0  0  0  0
  -27.6939  -14.2554   19.5564 H   0  0  0  0  0  0
  -28.6801  -11.9974   21.3667 H   0  0  0  0  0  0
  -28.4697  -13.6532   21.8536 H   0  0  0  0  0  0
  -25.2759   -9.5681   22.4778 H   0  0  0  0  0  0
  -23.9999   -7.4634   22.7478 H   0  0  0  0  0  0
  -21.0853   -8.8779   19.8949 H   0  0  0  0  0  0
  -22.3706  -10.9683   19.6172 H   0  0  0  0  0  0
  -21.2003   -7.6157   23.9719 H   0  0  0  0  0  0
  -21.1481   -6.0530   25.9078 H   0  0  0  0  0  0
  -22.0601   -2.7618   23.2843 H   0  0  0  0  0  0
  -22.4100  -11.9870   22.4768 H   0  0  0  0  0  0
  -21.1111  -13.1252   22.2609 H   0  0  0  0  0  0
  -24.6610  -15.8445   20.5135 H   0  0  0  0  0  0
  -26.2778  -15.6271   20.0736 H   0  0  0  0  0  0
  -26.7131  -32.5529   23.1167 H   0  0  0  0  0  0
  -25.0075  -33.9783   25.0485 H   0  0  0  0  0  0
  -22.6942  -31.3138   21.4186 H   0  0  0  0  0  0
  -23.3757  -35.9631   23.3297 H   0  0  0  0  0  0
  -24.3571  -36.8933   22.2052 H   0  0  0  0  0  0
  -23.7223  -37.6507   23.6656 H   0  0  0  0  0  0
  -26.0585  -31.5939   20.6052 H   0  0  0  0  0  0
  -26.8242  -30.8726   21.9929 H   0  0  0  0  0  0
  -28.0979  -29.0659   21.1738 H   0  0  0  0  0  0
  -25.9905  -26.0039   18.9511 H   0  0  0  0  0  0
  -23.9634  -27.3307   19.0077 H   0  0  0  0  0  0
  -23.7205  -30.6153   19.4103 H   0  0  0  0  0  0
  -22.7337  -29.2598   19.8681 H   0  0  0  0  0  0
  -25.1281  -36.1981   25.0832 H   0  0  0  0  0  0
  -20.9971  -28.3236   24.1425 H   0  0  0  0  0  0
  -20.5670  -26.2271   23.3602 H   0  0  0  0  0  0
  -21.6631  -26.7434   22.1208 H   0  0  0  0  0  0
  -19.6898  -25.6301   21.1228 H   0  0  0  0  0  0
  -19.6681  -27.3202   20.6750 H   0  0  0  0  0  0
  -17.4194  -26.6697   21.4018 H   0  0  0  0  0  0
  -18.0306  -26.0055   22.9004 H   0  0  0  0  0  0
  -19.7930  -30.7262   24.2278 H   0  0  0  0  0  0
  -17.5010  -31.6263   24.5173 H   0  0  0  0  0  0
  -15.5346  -30.2987   23.7637 H   0  0  0  0  0  0
  -15.8670  -28.0815   22.7062 H   0  0  0  0  0  0
  -24.5919  -30.7043   25.7803 H   0  0  0  0  0  0
  -24.8923  -32.2846   26.4936 H   0  0  0  0  0  0
  -25.8091  -30.8854   27.0230 H   0  0  0  0  0  0
  -26.2874  -29.6801   24.1184 H   0  0  0  0  0  0
  -27.4090  -29.7290   25.4599 H   0  0  0  0  0  0
  -27.8712  -30.4370   23.9293 H   0  0  0  0  0  0
  -27.2682  -33.3619   26.2097 H   0  0  0  0  0  0
  -28.3857  -32.6878   25.0326 H   0  0  0  0  0  0
  -28.0728  -31.8433   26.5410 H   0  0  0  0  0  0
  -28.2596  -38.0111   24.7528 H   0  0  0  0  0  0
  -28.1084  -36.2643   24.6277 H   0  0  0  0  0  0
  -27.2298  -37.1447   25.8866 H   0  0  0  0  0  0
  -20.9300  -29.8777   21.6961 H   0  0  0  0  0  0
  -26.0189  -38.2874   24.1424 H   0  0  0  0  0  0
  -32.1956  -20.3501   21.9447 H   0  0  0  0  0  0
  -32.3976  -16.0873   22.2575 H   0  0  0  0  0  0
  -28.9286  -17.9160   20.4795 H   0  0  0  0  0  0
  -35.5281  -17.6811   23.6733 H   0  0  0  0  0  0
  -34.3571  -16.3902   23.0835 H   0  0  0  0  0  0
  -34.0640  -19.4384   22.9917 H   0  0  0  0  0  0
  -27.9703  -22.5681   20.6074 H   0  0  0  0  0  0
  -28.9924  -22.5760   19.1919 H   0  0  0  0  0  0
  -30.2556  -24.5508   20.0516 H   0  0  0  0  0  0
  -29.3828  -24.4932   21.5649 H   0  0  0  0  0  0
  -27.2598  -24.8806   20.3753 H   0  0  0  0  0  0
  -28.1043  -25.0333   18.8411 H   0  0  0  0  0  0
  -28.9115  -20.2742   20.1421 H   0  0  0  0  0  0
  -29.0763  -15.3958   21.2601 H   0  0  0  0  0  0
  1 25  1  0  0  0
  1 30  2  0  0  0
  1 84  1  0  0  0
  2  3  1  0  0  0
  2 25  1  0  0  0
  2 86  1  0  0  0
  2 87  1  0  0  0
  3  4  1  0  0  0
  3 88  1  0  0  0
  3 89  1  0  0  0
  4  5  1  0  0  0
  4 90  1  0  0  0
  4 91  1  0  0  0
  5  6  1  0  0  0
  5 26  1  0  0  0
  5 92  1  0  0  0
  6 25  1  0  0  0
  6 93  1  0  0  0
  6 94  1  0  0  0
  7  8  2  0  0  0
  7 26  1  0  0  0
  7 29  1  0  0  0
  8  9  1  0  0  0
  8 22  1  0  0  0
  9 10  1  0  0  0
  9 27  2  0  0  0
 10 11  2  0  0  0
 10 15  1  0  0  0
 11 12  1  0  0  0
 11 95  1  0  0  0
 12 13  2  0  0  0
 12 96  1  0  0  0
 13 14  1  0  0  0
 13 31  1  0  0  0
 14 15  2  0  0  0
 14 97  1  0  0  0
 15 98  1  0  0  0
 16 17  2  0  0  0
 16 21  1  0  0  0
 16 31  1  0  0  0
 17 18  1  0  0  0
 17 99  1  0  0  0
 18 19  2  0  0  0
 18100  1  0  0  0
 19 20  1  0  0  0
 19 24  1  0  0  0
 20 21  2  0  0  0
 20101  1  0  0  0
 21 23  1  0  0  0
 22 28  1  0  0  0
 22 32  2  0  0  0
 26 27  1  0  0  0
 28102  1  0  0  0
 28103  1  0  0  0
 29104  1  0  0  0
 29105  1  0  0  0
 33 34  1  0  0  0
 33 66  1  0  0  0
 33 70  2  0  0  0
 34 36  1  0  0  0
 34 59  1  0  0  0
 34106  1  0  0  0
 35 44  2  0  0  0
 35 45  1  0  0  0
 35 68  1  0  0  0
 36 56  1  0  0  0
 36107  1  0  0  0
 37 39  1  0  0  0
 37 47  1  0  0  0
 37 66  1  0  0  0
 37108  1  0  0  0
 38 43  2  0  0  0
 38 46  1  0  0  0
 38 47  1  0  0  0
 39 64  1  0  0  0
 39 67  2  0  0  0
 40 52  1  0  0  0
 40 53  2  0  0  0
 40 58  1  0  0  0
 41109  1  0  0  0
 41110  1  0  0  0
 41111  1  0  0  0
 41 48  1  0  0  0
 42 43  1  0  0  0
 42 66  1  0  0  0
 42112  1  0  0  0
 42113  1  0  0  0
 43 44  1  0  0  0
 44114  1  0  0  0
 45 46  2  0  0  0
 45115  1  0  0  0
 46116  1  0  0  0
 47117  1  0  0  0
 47118  1  0  0  0
 48 56  1  0  0  0
 48 65  1  0  0  0
 48119  1  0  0  0
 49 50  1  0  0  0
 49 53  1  0  0  0
 49 64  1  0  0  0
 49120  1  0  0  0
 50 51  1  0  0  0
 50121  1  0  0  0
 50122  1  0  0  0
 51 52  1  0  0  0
 51123  1  0  0  0
 51124  1  0  0  0
 52125  1  0  0  0
 52126  1  0  0  0
 53 54  1  0  0  0
 54 55  2  0  0  0
 54127  1  0  0  0
 55 57  1  0  0  0
 55128  1  0  0  0
 56 69  2  0  0  0
 57 58  2  0  0  0
 57129  1  0  0  0
 58130  1  0  0  0
 59 60  1  0  0  0
 59 61  1  0  0  0
 59 62  1  0  0  0
 60131  1  0  0  0
 60132  1  0  0  0
 60133  1  0  0  0
 61134  1  0  0  0
 61135  1  0  0  0
 61136  1  0  0  0
 62137  1  0  0  0
 62138  1  0  0  0
 62139  1  0  0  0
 63 65  1  0  0  0
 63140  1  0  0  0
 63141  1  0  0  0
 63142  1  0  0  0
 64143  1  0  0  0
 65144  1  0  0  0
 68 82  1  0  0  0
 71 74  2  0  0  0
 71 75  1  0  0  0
 71145  1  0  0  0
 72 74  1  0  0  0
 72 76  2  0  0  0
 72146  1  0  0  0
 73 75  2  0  0  0
 73 76  1  0  0  0
 73147  1  0  0  0
 74 78  1  0  0  0
 75 83  1  0  0  0
 76 84  1  0  0  0
 77 78  2  0  0  0
 77148  1  0  0  0
 77149  1  0  0  0
 78150  1  0  0  0
 79 80  1  0  0  0
 79 83  1  0  0  0
 79 85  2  0  0  0
 80 81  1  0  0  0
 80151  1  0  0  0
 80152  1  0  0  0
 81 82  1  0  0  0
 81153  1  0  0  0
 81154  1  0  0  0
 82155  1  0  0  0
 82156  1  0  0  0
 83157  1  0  0  0
 84158  1  0  0  0
M  ISO  4   1 100  68 101  82 101  84 100
M  END
> <chiral flag>
0

> <version>
0

> <s_m_source_file>
/data/baiqing/PycharmProjects/Reinvent-master-3.2/result/LINK_invent/BTK/process_docking_weight1_custom_product_contain_oxygen_bond_distance_aromatic_linkinvent_7_9_3/rearranged_h_0064.sdf

> <i_m_source_file_index>
49

> <r_mmod_Potential_Energy-OPLS-2005>
-68.1949691772461

> <r_mmod_Stretch_Energy-OPLS-2005>
43.762393951416

> <r_mmod_Bend_Energy-OPLS-2005>
103.650398254395

> <r_mmod_Torsional_Energy-OPLS-2005>
225.37580871582

> <r_mmod_Improper_Torsional_Energy-OPLS-2005>
3.69360041618347

> <r_mmod_Van_der_Waal_Energy-OPLS-2005>
171.117004394531

> <r_mmod_Electrostatic_Energy-OPLS-2005>
-394.142456054688

> <r_mmod_Solvation_Energy-OPLS-2005>
-239.181137084961

> <b_mmod_Minimization_Converged-OPLS-2005>
0

> <r_mmod_RMS_Derivative-OPLS-2005>
0.708360016345978

$$$$
49
                    3D
 Structure written by MMmdl.
152160  0  0  1  0            999 V2000
  -30.6164  -14.6554   20.4901 C   0  0  0  0  0  0
  -30.4398  -12.4009   19.4540 C   0  0  0  0  0  0
  -29.5083  -12.5066   18.2253 C   0  0  0  0  0  0
  -28.0313  -12.3428   18.6378 C   0  0  0  0  0  0
  -27.6514  -13.2180   19.8620 C   0  0  2  0  0  0
  -28.6975  -13.0819   20.9918 C   0  0  0  0  0  0
  -25.2544  -13.8166   20.5689 C   0  0  0  0  0  0
  -24.1812  -13.0423   20.9167 C   0  0  0  0  0  0
  -24.6392  -11.6900   20.8726 C   0  0  0  0  0  0
  -23.9064  -10.4285   21.0398 C   0  0  0  0  0  0
  -24.3617   -9.4204   21.9179 C   0  0  0  0  0  0
  -23.6290   -8.2242   22.0754 C   0  0  0  0  0  0
  -22.4272   -8.0280   21.3545 C   0  0  0  0  0  0
  -21.9905   -9.0252   20.4647 C   0  0  0  0  0  0
  -22.7235  -10.2129   20.3051 C   0  0  0  0  0  0
  -21.6853   -6.0733   22.5279 C   0  0  0  0  0  0
  -21.4015   -6.5637   23.8213 C   0  0  0  0  0  0
  -21.3659   -5.6790   24.9175 C   0  0  0  0  0  0
  -21.6044   -4.3053   24.7225 C   0  0  0  0  0  0
  -21.8820   -3.8145   23.4346 C   0  0  0  0  0  0
  -21.9193   -4.6961   22.3402 C   0  0  0  0  0  0
  -22.7838  -13.5219   21.1842 C   0  0  0  0  0  0
  -22.1662   -4.2148   21.0979 F   0  0  0  0  0  0
  -21.5628   -3.4537   25.7737 F   0  0  0  0  0  0
  -30.0118  -13.4260   20.4265 N   0  0  0  0  0  0
  -26.2982  -12.9356   20.3326 N   0  0  0  0  0  0
  -25.9324  -11.6506   20.5756 N   0  0  0  0  0  0
  -22.0487  -12.8217   22.0408 N   0  0  0  0  0  0
  -25.4206  -15.1895   20.4178 N   0  0  0  0  0  0
  -31.7849  -14.8123   20.1235 O   0  0  0  0  0  0
  -21.6637   -6.8877   21.4242 O   0  0  0  0  0  0
  -22.3519  -14.5530   20.6702 O   0  0  0  0  0  0
  -24.6259  -31.8595   23.2020 C   0  0  0  0  0  0
  -25.9107  -32.4778   23.8350 C   0  0  1  0  0  0
  -27.2249  -27.3166   20.1243 C   0  0  0  0  0  0
  -25.5922  -33.8578   24.2278 N   0  0  0  0  0  0
  -23.4199  -30.4822   21.5447 C   0  0  2  0  0  0
  -24.8672  -28.9338   20.1141 C   0  0  0  0  0  0
  -22.7473  -29.4622   22.4939 C   0  0  0  0  0  0
  -18.0286  -28.1386   22.8487 C   0  0  0  0  0  0
  -24.1490  -36.7295   23.2640 C   0  0  0  0  0  0
  -25.9606  -30.7895   21.3734 C   0  0  0  0  0  0
  -26.0356  -29.4154   20.7186 C   0  0  0  0  0  0
  -27.2191  -28.6191   20.7118 C   0  0  0  0  0  0
  -26.0380  -26.8900   19.4893 C   0  0  0  0  0  0
  -24.8701  -27.6764   19.4902 C   0  0  0  0  0  0
  -23.6352  -29.8146   20.1610 C   0  0  0  0  0  0
  -25.4115  -36.3084   24.0329 C   0  0  1  0  0  0
  -20.5885  -28.3689   23.1285 C   0  0  2  0  0  0
  -20.6775  -26.9412   22.5411 C   0  0  0  0  0  0
  -19.5751  -26.6385   21.5212 C   0  0  0  0  0  0
  -18.1931  -26.7929   22.1624 C   0  0  0  0  0  0
  -19.1538  -28.8855   23.2881 C   0  0  0  0  0  0
  -18.9461  -30.1457   23.8897 C   0  0  0  0  0  0
  -17.6461  -30.6587   24.0564 C   0  0  0  0  0  0
  -25.9050  -34.9452   23.5105 C   0  0  0  0  0  0
  -16.5352  -29.9085   23.6329 C   0  0  0  0  0  0
  -16.7273  -28.6503   23.0349 C   0  0  0  0  0  0
  -26.4492  -31.6589   25.0721 C   0  0  0  0  0  0
  -25.3727  -31.3727   26.1450 C   0  0  0  0  0  0
  -27.0336  -30.3013   24.6174 C   0  0  0  0  0  0
  -27.6054  -32.4322   25.7488 C   0  0  0  0  0  0
  -27.5579  -37.1804   24.8466 C   0  0  0  0  0  0
  -21.4187  -29.3042   22.3679 N   0  0  0  0  0  0
  -26.4294  -37.3777   23.9406 N   0  0  0  0  0  0
  -24.6876  -31.0606   22.0970 N   0  0  0  0  0  0
  -23.4196  -28.8163   23.3020 O   0  0  0  0  0  0
  -28.3451  -26.4737   20.1387 O   0  0  0  0  0  0
  -26.5620  -34.8918   22.4672 O   0  0  0  0  0  0
  -23.5423  -32.1394   23.7348 O   0  0  0  0  0  0
  -28.6973  -19.3429   20.3677 C   0  0  0  0  0  0
  -31.0989  -17.8876   20.4113 C   0  0  0  0  0  0
  -29.8928  -20.0770   20.1484 C   0  0  0  0  0  0
  -29.8986  -17.1553   20.5923 C   0  0  0  0  0  0
  -28.7048  -17.9290   20.5825 C   0  0  0  0  0  0
  -31.0957  -19.3002   20.1982 C   0  0  0  0  0  0
  -29.9113  -21.5512   19.7457 C   0  0  0  0  0  0
  -29.1507  -24.0284   19.8497 C   0  0  0  0  0  0
  -28.1520  -25.0474   20.5240 C   0  0  0  0  0  0
  -29.7957  -15.7067   20.8027 N   0  0  0  0  0  0
  -29.1262  -22.5848   20.2392 N   0  0  0  0  0  0
  -30.7846  -21.8524   18.7777 N   0  3  0  0  0  0
  -29.9465  -24.4369   18.9922 O   0  0  0  0  0  0
  -27.5245  -17.2867   20.7554 F   0  0  0  0  0  0
  -32.2938  -19.9031   19.9975 F   0  0  0  0  0  0
  -31.4804  -12.5291   19.1508 H   0  0  0  0  0  0
  -30.3788  -11.4072   19.9006 H   0  0  0  0  0  0
  -29.7746  -11.7513   17.4845 H   0  0  0  0  0  0
  -29.6481  -13.4732   17.7389 H   0  0  0  0  0  0
  -27.8711  -11.2903   18.8741 H   0  0  0  0  0  0
  -27.3763  -12.5671   17.7951 H   0  0  0  0  0  0
  -27.6634  -14.2511   19.5143 H   0  0  0  0  0  0
  -28.7117  -12.0624   21.3802 H   0  0  0  0  0  0
  -28.4420  -13.7189   21.8402 H   0  0  0  0  0  0
  -25.2764   -9.5681   22.4749 H   0  0  0  0  0  0
  -24.0000   -7.4634   22.7474 H   0  0  0  0  0  0
  -21.0835   -8.8772   19.8954 H   0  0  0  0  0  0
  -22.3695  -10.9667   19.6159 H   0  0  0  0  0  0
  -21.2008   -7.6146   23.9717 H   0  0  0  0  0  0
  -21.1479   -6.0519   25.9078 H   0  0  0  0  0  0
  -22.0599   -2.7607   23.2847 H   0  0  0  0  0  0
  -22.4101  -11.9876   22.4793 H   0  0  0  0  0  0
  -21.1110  -13.1252   22.2623 H   0  0  0  0  0  0
  -24.6536  -15.8360   20.5620 H   0  0  0  0  0  0
  -26.2862  -15.6629   20.1881 H   0  0  0  0  0  0
  -26.7174  -32.5448   23.1098 H   0  0  0  0  0  0
  -25.0068  -33.9723   25.0422 H   0  0  0  0  0  0
  -22.7138  -31.3026   21.4003 H   0  0  0  0  0  0
  -23.3748  -35.9631   23.3309 H   0  0  0  0  0  0
  -24.3580  -36.8907   22.2053 H   0  0  0  0  0  0
  -23.7247  -37.6501   23.6657 H   0  0  0  0  0  0
  -26.0915  -31.5514   20.6037 H   0  0  0  0  0  0
  -26.8412  -30.8399   22.0021 H   0  0  0  0  0  0
  -28.1174  -28.9858   21.1888 H   0  0  0  0  0  0
  -26.0000  -25.9367   18.9826 H   0  0  0  0  0  0
  -23.9772  -27.3050   19.0063 H   0  0  0  0  0  0
  -23.7547  -30.5895   19.4031 H   0  0  0  0  0  0
  -22.7552  -29.2435   19.8595 H   0  0  0  0  0  0
  -25.1296  -36.1939   25.0822 H   0  0  0  0  0  0
  -20.9978  -28.3264   24.1405 H   0  0  0  0  0  0
  -20.5675  -26.2298   23.3611 H   0  0  0  0  0  0
  -21.6644  -26.7443   22.1205 H   0  0  0  0  0  0
  -19.6912  -25.6295   21.1242 H   0  0  0  0  0  0
  -19.6688  -27.3195   20.6742 H   0  0  0  0  0  0
  -17.4200  -26.6676   21.4027 H   0  0  0  0  0  0
  -18.0331  -26.0071   22.9021 H   0  0  0  0  0  0
  -19.7937  -30.7275   24.2264 H   0  0  0  0  0  0
  -17.5015  -31.6267   24.5167 H   0  0  0  0  0  0
  -15.5353  -30.2986   23.7654 H   0  0  0  0  0  0
  -15.8674  -28.0823   22.7062 H   0  0  0  0  0  0
  -24.5902  -30.7075   25.7781 H   0  0  0  0  0  0
  -24.8917  -32.2892   26.4875 H   0  0  0  0  0  0
  -25.8054  -30.8906   27.0225 H   0  0  0  0  0  0
  -26.2908  -29.6762   24.1203 H   0  0  0  0  0  0
  -27.4041  -29.7272   25.4677 H   0  0  0  0  0  0
  -27.8774  -30.4303   23.9391 H   0  0  0  0  0  0
  -27.2668  -33.3623   26.2066 H   0  0  0  0  0  0
  -28.3861  -32.6882   25.0313 H   0  0  0  0  0  0
  -28.0724  -31.8447   26.5402 H   0  0  0  0  0  0
  -28.2605  -38.0093   24.7504 H   0  0  0  0  0  0
  -28.1067  -36.2625   24.6303 H   0  0  0  0  0  0
  -27.2297  -37.1467   25.8869 H   0  0  0  0  0  0
  -20.9364  -29.8764   21.6890 H   0  0  0  0  0  0
  -26.0178  -38.2855   24.1396 H   0  0  0  0  0  0
  -27.7447  -19.8496   20.3278 H   0  0  0  0  0  0
  -32.0477  -17.3738   20.4203 H   0  0  0  0  0  0
  -28.2873  -24.9788   21.6033 H   0  0  0  0  0  0
  -27.1436  -24.6875   20.3293 H   0  0  0  0  0  0
  -28.8683  -15.4141   21.0685 H   0  0  0  0  0  0
  -28.4892  -22.2666   20.9541 H   0  0  0  0  0  0
  -31.4812  -21.1765   18.4998 H   0  0  0  0  0  0
  -30.8535  -22.8147   18.4657 H   0  0  0  0  0  0
  1 25  1  0  0  0
  1 30  2  0  0  0
  1 80  1  0  0  0
  2  3  1  0  0  0
  2 25  1  0  0  0
  2 86  1  0  0  0
  2 87  1  0  0  0
  3  4  1  0  0  0
  3 88  1  0  0  0
  3 89  1  0  0  0
  4  5  1  0  0  0
  4 90  1  0  0  0
  4 91  1  0  0  0
  5  6  1  0  0  0
  5 26  1  0  0  0
  5 92  1  0  0  0
  6 25  1  0  0  0
  6 93  1  0  0  0
  6 94  1  0  0  0
  7  8  2  0  0  0
  7 26  1  0  0  0
  7 29  1  0  0  0
  8  9  1  0  0  0
  8 22  1  0  0  0
  9 10  1  0  0  0
  9 27  2  0  0  0
 10 11  2  0  0  0
 10 15  1  0  0  0
 11 12  1  0  0  0
 11 95  1  0  0  0
 12 13  2  0  0  0
 12 96  1  0  0  0
 13 14  1  0  0  0
 13 31  1  0  0  0
 14 15  2  0  0  0
 14 97  1  0  0  0
 15 98  1  0  0  0
 16 17  2  0  0  0
 16 21  1  0  0  0
 16 31  1  0  0  0
 17 18  1  0  0  0
 17 99  1  0  0  0
 18 19  2  0  0  0
 18100  1  0  0  0
 19 20  1  0  0  0
 19 24  1  0  0  0
 20 21  2  0  0  0
 20101  1  0  0  0
 21 23  1  0  0  0
 22 28  1  0  0  0
 22 32  2  0  0  0
 26 27  1  0  0  0
 28102  1  0  0  0
 28103  1  0  0  0
 29104  1  0  0  0
 29105  1  0  0  0
 33 34  1  0  0  0
 33 66  1  0  0  0
 33 70  2  0  0  0
 34 36  1  0  0  0
 34 59  1  0  0  0
 34106  1  0  0  0
 35 44  2  0  0  0
 35 45  1  0  0  0
 35 68  1  0  0  0
 36 56  1  0  0  0
 36107  1  0  0  0
 37 39  1  0  0  0
 37 47  1  0  0  0
 37 66  1  0  0  0
 37108  1  0  0  0
 38 43  2  0  0  0
 38 46  1  0  0  0
 38 47  1  0  0  0
 39 64  1  0  0  0
 39 67  2  0  0  0
 40 52  1  0  0  0
 40 53  2  0  0  0
 40 58  1  0  0  0
 41109  1  0  0  0
 41110  1  0  0  0
 41111  1  0  0  0
 41 48  1  0  0  0
 42 43  1  0  0  0
 42 66  1  0  0  0
 42112  1  0  0  0
 42113  1  0  0  0
 43 44  1  0  0  0
 44114  1  0  0  0
 45 46  2  0  0  0
 45115  1  0  0  0
 46116  1  0  0  0
 47117  1  0  0  0
 47118  1  0  0  0
 48 56  1  0  0  0
 48 65  1  0  0  0
 48119  1  0  0  0
 49 50  1  0  0  0
 49 53  1  0  0  0
 49 64  1  0  0  0
 49120  1  0  0  0
 50 51  1  0  0  0
 50121  1  0  0  0
 50122  1  0  0  0
 51 52  1  0  0  0
 51123  1  0  0  0
 51124  1  0  0  0
 52125  1  0  0  0
 52126  1  0  0  0
 53 54  1  0  0  0
 54 55  2  0  0  0
 54127  1  0  0  0
 55 57  1  0  0  0
 55128  1  0  0  0
 56 69  2  0  0  0
 57 58  2  0  0  0
 57129  1  0  0  0
 58130  1  0  0  0
 59 60  1  0  0  0
 59 61  1  0  0  0
 59 62  1  0  0  0
 60131  1  0  0  0
 60132  1  0  0  0
 60133  1  0  0  0
 61134  1  0  0  0
 61135  1  0  0  0
 61136  1  0  0  0
 62137  1  0  0  0
 62138  1  0  0  0
 62139  1  0  0  0
 63 65  1  0  0  0
 63140  1  0  0  0
 63141  1  0  0  0
 63142  1  0  0  0
 64143  1  0  0  0
 65144  1  0  0  0
 68 79  1  0  0  0
 71 73  2  0  0  0
 71 75  1  0  0  0
 71145  1  0  0  0
 72 74  1  0  0  0
 72 76  2  0  0  0
 72146  1  0  0  0
 73 76  1  0  0  0
 73 77  1  0  0  0
 74 75  2  0  0  0
 74 80  1  0  0  0
 75 84  1  0  0  0
 76 85  1  0  0  0
 77 81  1  0  0  0
 77 82  2  0  0  0
 78 79  1  0  0  0
 78 81  1  0  0  0
 78 83  2  0  0  0
 79147  1  0  0  0
 79148  1  0  0  0
 80149  1  0  0  0
 81150  1  0  0  0
 82151  1  0  0  0
 82152  1  0  0  0
M  CHG  1  82   1
M  ISO  4   1 100  68 101  79 101  80 100
M  END
> <chiral flag>
0

> <version>
0

> <s_m_source_file>
/data/baiqing/PycharmProjects/Reinvent-master-3.2/result/LINK_invent/BTK/process_docking_weight1_custom_product_contain_oxygen_bond_distance_aromatic_linkinvent_7_9_3/rearranged_h_0064.sdf

> <i_m_source_file_index>
50

> <r_mmod_Potential_Energy-OPLS-2005>
-275.511352539062

> <r_mmod_Stretch_Energy-OPLS-2005>
87.2251205444336

> <r_mmod_Bend_Energy-OPLS-2005>
144.979293823242

> <r_mmod_Torsional_Energy-OPLS-2005>
223.871215820312

> <r_mmod_Improper_Torsional_Energy-OPLS-2005>
5.30639219284058

> <r_mmod_Van_der_Waal_Energy-OPLS-2005>
159.224716186523

> <r_mmod_Electrostatic_Energy-OPLS-2005>
-479.045654296875

> <r_mmod_Solvation_Energy-OPLS-2005>
-467.777648925781

> <b_mmod_Minimization_Converged-OPLS-2005>
0

> <r_mmod_RMS_Derivative-OPLS-2005>
0.237884268164635

$$$$
50
                    3D
 Structure written by MMmdl.
155163  0  0  1  0            999 V2000
  -30.7072  -14.5079   20.5508 C   0  0  0  0  0  0
  -30.4192  -12.3227   19.4349 C   0  0  0  0  0  0
  -29.4951  -12.5018   18.2131 C   0  0  0  0  0  0
  -28.0173  -12.3598   18.6255 C   0  0  0  0  0  0
  -27.6573  -13.2140   19.8709 C   0  0  2  0  0  0
  -28.7011  -13.0307   20.9969 C   0  0  0  0  0  0
  -25.2542  -13.8149   20.5655 C   0  0  0  0  0  0
  -24.1821  -13.0423   20.9198 C   0  0  0  0  0  0
  -24.6396  -11.6900   20.8756 C   0  0  0  0  0  0
  -23.9065  -10.4284   21.0414 C   0  0  0  0  0  0
  -24.3616   -9.4199   21.9189 C   0  0  0  0  0  0
  -23.6290   -8.2236   22.0755 C   0  0  0  0  0  0
  -22.4272   -8.0277   21.3544 C   0  0  0  0  0  0
  -21.9909   -9.0252   20.4648 C   0  0  0  0  0  0
  -22.7239  -10.2130   20.3060 C   0  0  0  0  0  0
  -21.6851   -6.0734   22.5279 C   0  0  0  0  0  0
  -21.4013   -6.5638   23.8212 C   0  0  0  0  0  0
  -21.3659   -5.6791   24.9174 C   0  0  0  0  0  0
  -21.6044   -4.3054   24.7225 C   0  0  0  0  0  0
  -21.8819   -3.8146   23.4347 C   0  0  0  0  0  0
  -21.9192   -4.6962   22.3402 C   0  0  0  0  0  0
  -22.7843  -13.5221   21.1853 C   0  0  0  0  0  0
  -22.1661   -4.2147   21.0980 F   0  0  0  0  0  0
  -21.5629   -3.4539   25.7738 F   0  0  0  0  0  0
  -30.0294  -13.3298   20.4373 N   0  0  0  0  0  0
  -26.3001  -12.9350   20.3353 N   0  0  0  0  0  0
  -25.9327  -11.6505   20.5787 N   0  0  0  0  0  0
  -22.0485  -12.8220   22.0414 N   0  0  0  0  0  0
  -25.4186  -15.1851   20.3958 N   0  0  0  0  0  0
  -31.8473  -14.6437   20.0997 O   0  0  0  0  0  0
  -21.6637   -6.8875   21.4240 O   0  0  0  0  0  0
  -22.3533  -14.5529   20.6699 O   0  0  0  0  0  0
  -24.6169  -31.8667   23.2091 C   0  0  0  0  0  0
  -25.9053  -32.4818   23.8393 C   0  0  1  0  0  0
  -27.2305  -27.4154   20.1016 C   0  0  0  0  0  0
  -25.5901  -33.8617   24.2322 N   0  0  0  0  0  0
  -23.4066  -30.4906   21.5495 C   0  0  2  0  0  0
  -24.8548  -28.9579   20.1110 C   0  0  0  0  0  0
  -22.7427  -29.4653   22.4973 C   0  0  0  0  0  0
  -18.0274  -28.1378   22.8491 C   0  0  0  0  0  0
  -24.1487  -36.7314   23.2637 C   0  0  0  0  0  0
  -25.9383  -30.8270   21.3660 C   0  0  0  0  0  0
  -26.0173  -29.4612   20.7106 C   0  0  0  0  0  0
  -27.2119  -28.6979   20.7025 C   0  0  0  0  0  0
  -26.0534  -26.9381   19.4852 C   0  0  0  0  0  0
  -24.8686  -27.6964   19.4928 C   0  0  0  0  0  0
  -23.6167  -29.8255   20.1634 C   0  0  0  0  0  0
  -25.4108  -36.3110   24.0336 C   0  0  1  0  0  0
  -20.5868  -28.3670   23.1307 C   0  0  2  0  0  0
  -20.6766  -26.9404   22.5414 C   0  0  0  0  0  0
  -19.5744  -26.6385   21.5211 C   0  0  0  0  0  0
  -18.1922  -26.7924   22.1623 C   0  0  0  0  0  0
  -19.1524  -28.8839   23.2898 C   0  0  0  0  0  0
  -18.9452  -30.1444   23.8911 C   0  0  0  0  0  0
  -17.6455  -30.6586   24.0564 C   0  0  0  0  0  0
  -25.9036  -34.9474   23.5127 C   0  0  0  0  0  0
  -16.5345  -29.9089   23.6326 C   0  0  0  0  0  0
  -16.7263  -28.6503   23.0349 C   0  0  0  0  0  0
  -26.4474  -31.6599   25.0726 C   0  0  0  0  0  0
  -25.3739  -31.3710   26.1474 C   0  0  0  0  0  0
  -27.0299  -30.3036   24.6110 C   0  0  0  0  0  0
  -27.6052  -32.4316   25.7485 C   0  0  0  0  0  0
  -27.5581  -37.1810   24.8464 C   0  0  0  0  0  0
  -21.4150  -29.3037   22.3713 N   0  0  0  0  0  0
  -26.4294  -37.3794   23.9408 N   0  0  0  0  0  0
  -24.6722  -31.0755   22.0999 N   0  0  0  0  0  0
  -23.4189  -28.8194   23.3023 O   0  0  0  0  0  0
  -28.3493  -26.6031   20.1298 O   0  0  0  0  0  0
  -26.5600  -34.8927   22.4690 O   0  0  0  0  0  0
  -23.5355  -32.1423   23.7473 O   0  0  0  0  0  0
  -32.0102  -18.7567   21.1894 C   0  0  0  0  0  0
  -31.0107  -19.7315   21.0261 C   0  0  0  0  0  0
  -31.6809  -17.3896   21.1962 C   0  0  0  0  0  0
  -29.6582  -19.3559   20.8815 C   0  0  0  0  0  0
  -29.3250  -17.9605   20.9083 C   0  0  0  0  0  0
  -30.3417  -16.9621   21.0339 C   0  0  0  0  0  0
  -28.7886  -24.2058   20.3344 C   0  0  0  0  0  0
  -28.1482  -25.3496   20.6858 C   0  0  0  0  0  0
  -28.4270  -22.9399   20.9850 C   0  0  0  0  0  0
  -27.8729  -17.5137   20.7826 C   0  0  0  0  0  0
  -28.5744  -20.4474   20.7267 C   0  0  0  0  0  0
  -29.9984  -15.5583   21.0341 N   0  0  0  0  0  0
  -29.0045  -21.8401   20.4541 N   0  0  0  0  0  0
  -27.6206  -22.8525   21.9143 O   0  0  0  0  0  0
  -31.4645  -12.4101   19.1334 H   0  0  0  0  0  0
  -30.3155  -11.3196   19.8515 H   0  0  0  0  0  0
  -29.7397  -11.7676   17.4443 H   0  0  0  0  0  0
  -29.6601  -13.4826   17.7641 H   0  0  0  0  0  0
  -27.8343  -11.3053   18.8351 H   0  0  0  0  0  0
  -27.3659  -12.6193   17.7901 H   0  0  0  0  0  0
  -27.6902  -14.2568   19.5545 H   0  0  0  0  0  0
  -28.6827  -12.0059   21.3704 H   0  0  0  0  0  0
  -28.4628  -13.6598   21.8557 H   0  0  0  0  0  0
  -25.2762   -9.5673   22.4763 H   0  0  0  0  0  0
  -23.9997   -7.4626   22.7474 H   0  0  0  0  0  0
  -21.0840   -8.8773   19.8954 H   0  0  0  0  0  0
  -22.3700  -10.9671   19.6170 H   0  0  0  0  0  0
  -21.2005   -7.6146   23.9714 H   0  0  0  0  0  0
  -21.1481   -6.0522   25.9076 H   0  0  0  0  0  0
  -22.0600   -2.7608   23.2847 H   0  0  0  0  0  0
  -22.4098  -11.9881   22.4804 H   0  0  0  0  0  0
  -21.1105  -13.1251   22.2621 H   0  0  0  0  0  0
  -24.6379  -15.8276   20.4757 H   0  0  0  0  0  0
  -26.2422  -15.6096   19.9928 H   0  0  0  0  0  0
  -26.7126  -32.5524   23.1159 H   0  0  0  0  0  0
  -25.0056  -33.9780   25.0470 H   0  0  0  0  0  0
  -22.6960  -31.3080   21.4105 H   0  0  0  0  0  0
  -23.3745  -35.9652   23.3311 H   0  0  0  0  0  0
  -24.3581  -36.8916   22.2049 H   0  0  0  0  0  0
  -23.7246  -37.6526   23.6644 H   0  0  0  0  0  0
  -26.0539  -31.5937   20.5986 H   0  0  0  0  0  0
  -26.8248  -30.8792   21.9863 H   0  0  0  0  0  0
  -28.1072  -29.0754   21.1763 H   0  0  0  0  0  0
  -26.0496  -25.9658   19.0126 H   0  0  0  0  0  0
  -23.9765  -27.3033   19.0249 H   0  0  0  0  0  0
  -23.7255  -30.6023   19.4056 H   0  0  0  0  0  0
  -22.7403  -29.2467   19.8660 H   0  0  0  0  0  0
  -25.1286  -36.1974   25.0829 H   0  0  0  0  0  0
  -20.9958  -28.3238   24.1428 H   0  0  0  0  0  0
  -20.5666  -26.2281   23.3604 H   0  0  0  0  0  0
  -21.6637  -26.7445   22.1206 H   0  0  0  0  0  0
  -19.6909  -25.6299   21.1232 H   0  0  0  0  0  0
  -19.6683  -27.3202   20.6746 H   0  0  0  0  0  0
  -17.4192  -26.6668   21.4026 H   0  0  0  0  0  0
  -18.0328  -26.0063   22.9017 H   0  0  0  0  0  0
  -19.7929  -30.7253   24.2291 H   0  0  0  0  0  0
  -17.5012  -31.6268   24.5161 H   0  0  0  0  0  0
  -15.5348  -30.2997   23.7644 H   0  0  0  0  0  0
  -15.8660  -28.0828   22.7060 H   0  0  0  0  0  0
  -24.5909  -30.7058   25.7813 H   0  0  0  0  0  0
  -24.8932  -32.2866   26.4931 H   0  0  0  0  0  0
  -25.8090  -30.8874   27.0228 H   0  0  0  0  0  0
  -26.2842  -29.6804   24.1157 H   0  0  0  0  0  0
  -27.4056  -29.7268   25.4572 H   0  0  0  0  0  0
  -27.8687  -30.4349   23.9269 H   0  0  0  0  0  0
  -27.2676  -33.3610   26.2084 H   0  0  0  0  0  0
  -28.3850  -32.6883   25.0303 H   0  0  0  0  0  0
  -28.0733  -31.8424   26.5382 H   0  0  0  0  0  0
  -28.2605  -38.0102   24.7510 H   0  0  0  0  0  0
  -28.1072  -36.2635   24.6291 H   0  0  0  0  0  0
  -27.2300  -37.1461   25.8868 H   0  0  0  0  0  0
  -20.9312  -29.8770   21.6944 H   0  0  0  0  0  0
  -26.0184  -38.2873   24.1408 H   0  0  0  0  0  0
  -33.0407  -19.0598   21.3123 H   0  0  0  0  0  0
  -31.2972  -20.7740   21.0286 H   0  0  0  0  0  0
  -32.4813  -16.6775   21.3357 H   0  0  0  0  0  0
  -29.5495  -24.2306   19.5679 H   0  0  0  0  0  0
  -27.3843  -25.3697   21.4543 H   0  0  0  0  0  0
  -27.1595  -18.2838   21.0699 H   0  0  0  0  0  0
  -27.6665  -16.6638   21.4326 H   0  0  0  0  0  0
  -27.6614  -17.2218   19.7538 H   0  0  0  0  0  0
  -27.9612  -20.4095   21.6284 H   0  0  0  0  0  0
  -27.9189  -20.1630   19.9026 H   0  0  0  0  0  0
  -29.0467  -15.3364   21.2793 H   0  0  0  0  0  0
  -29.6595  -21.9731   19.6964 H   0  0  0  0  0  0
  1 25  1  0  0  0
  1 30  2  0  0  0
  1 82  1  0  0  0
  2  3  1  0  0  0
  2 25  1  0  0  0
  2 85  1  0  0  0
  2 86  1  0  0  0
  3  4  1  0  0  0
  3 87  1  0  0  0
  3 88  1  0  0  0
  4  5  1  0  0  0
  4 89  1  0  0  0
  4 90  1  0  0  0
  5  6  1  0  0  0
  5 26  1  0  0  0
  5 91  1  0  0  0
  6 25  1  0  0  0
  6 92  1  0  0  0
  6 93  1  0  0  0
  7  8  2  0  0  0
  7 26  1  0  0  0
  7 29  1  0  0  0
  8  9  1  0  0  0
  8 22  1  0  0  0
  9 10  1  0  0  0
  9 27  2  0  0  0
 10 11  2  0  0  0
 10 15  1  0  0  0
 11 12  1  0  0  0
 11 94  1  0  0  0
 12 13  2  0  0  0
 12 95  1  0  0  0
 13 14  1  0  0  0
 13 31  1  0  0  0
 14 15  2  0  0  0
 14 96  1  0  0  0
 15 97  1  0  0  0
 16 17  2  0  0  0
 16 21  1  0  0  0
 16 31  1  0  0  0
 17 18  1  0  0  0
 17 98  1  0  0  0
 18 19  2  0  0  0
 18 99  1  0  0  0
 19 20  1  0  0  0
 19 24  1  0  0  0
 20 21  2  0  0  0
 20100  1  0  0  0
 21 23  1  0  0  0
 22 28  1  0  0  0
 22 32  2  0  0  0
 26 27  1  0  0  0
 28101  1  0  0  0
 28102  1  0  0  0
 29103  1  0  0  0
 29104  1  0  0  0
 33 34  1  0  0  0
 33 66  1  0  0  0
 33 70  2  0  0  0
 34 36  1  0  0  0
 34 59  1  0  0  0
 34105  1  0  0  0
 35 44  2  0  0  0
 35 45  1  0  0  0
 35 68  1  0  0  0
 36 56  1  0  0  0
 36106  1  0  0  0
 37 39  1  0  0  0
 37 47  1  0  0  0
 37 66  1  0  0  0
 37107  1  0  0  0
 38 43  2  0  0  0
 38 46  1  0  0  0
 38 47  1  0  0  0
 39 64  1  0  0  0
 39 67  2  0  0  0
 40 52  1  0  0  0
 40 53  2  0  0  0
 40 58  1  0  0  0
 41108  1  0  0  0
 41109  1  0  0  0
 41110  1  0  0  0
 41 48  1  0  0  0
 42 43  1  0  0  0
 42 66  1  0  0  0
 42111  1  0  0  0
 42112  1  0  0  0
 43 44  1  0  0  0
 44113  1  0  0  0
 45 46  2  0  0  0
 45114  1  0  0  0
 46115  1  0  0  0
 47116  1  0  0  0
 47117  1  0  0  0
 48 56  1  0  0  0
 48 65  1  0  0  0
 48118  1  0  0  0
 49 50  1  0  0  0
 49 53  1  0  0  0
 49 64  1  0  0  0
 49119  1  0  0  0
 50 51  1  0  0  0
 50120  1  0  0  0
 50121  1  0  0  0
 51 52  1  0  0  0
 51122  1  0  0  0
 51123  1  0  0  0
 52124  1  0  0  0
 52125  1  0  0  0
 53 54  1  0  0  0
 54 55  2  0  0  0
 54126  1  0  0  0
 55 57  1  0  0  0
 55127  1  0  0  0
 56 69  2  0  0  0
 57 58  2  0  0  0
 57128  1  0  0  0
 58129  1  0  0  0
 59 60  1  0  0  0
 59 61  1  0  0  0
 59 62  1  0  0  0
 60130  1  0  0  0
 60131  1  0  0  0
 60132  1  0  0  0
 61133  1  0  0  0
 61134  1  0  0  0
 61135  1  0  0  0
 62136  1  0  0  0
 62137  1  0  0  0
 62138  1  0  0  0
 63 65  1  0  0  0
 63139  1  0  0  0
 63140  1  0  0  0
 63141  1  0  0  0
 64142  1  0  0  0
 65143  1  0  0  0
 68 78  1  0  0  0
 71 72  2  0  0  0
 71 73  1  0  0  0
 71144  1  0  0  0
 72 74  1  0  0  0
 72145  1  0  0  0
 73 76  2  0  0  0
 73146  1  0  0  0
 74 75  2  0  0  0
 74 81  1  0  0  0
 75 76  1  0  0  0
 75 80  1  0  0  0
 76 82  1  0  0  0
 77 78  2  0  0  0
 77 79  1  0  0  0
 77147  1  0  0  0
 78148  1  0  0  0
 79 83  1  0  0  0
 79 84  2  0  0  0
 80149  1  0  0  0
 80150  1  0  0  0
 80151  1  0  0  0
 81 83  1  0  0  0
 81152  1  0  0  0
 81153  1  0  0  0
 82154  1  0  0  0
 83155  1  0  0  0
M  ISO  4   1 100  68 101  78 101  82 100
M  END
> <chiral flag>
0

> <version>
0

> <s_m_source_file>
/data/baiqing/PycharmProjects/Reinvent-master-3.2/result/LINK_invent/BTK/process_docking_weight1_custom_product_contain_oxygen_bond_distance_aromatic_linkinvent_7_9_3/rearranged_h_0064.sdf

> <i_m_source_file_index>
51

> <r_mmod_Potential_Energy-OPLS-2005>
-149.644058227539

> <r_mmod_Stretch_Energy-OPLS-2005>
46.3906860351562

> <r_mmod_Bend_Energy-OPLS-2005>
97.8112716674805

> <r_mmod_Torsional_Energy-OPLS-2005>
213.941040039062

> <r_mmod_Improper_Torsional_Energy-OPLS-2005>
4.91122150421143

> <r_mmod_Van_der_Waal_Energy-OPLS-2005>
162.382446289062

> <r_mmod_Electrostatic_Energy-OPLS-2005>
-465.130096435547

> <r_mmod_Solvation_Energy-OPLS-2005>
-229.020385742188

> <b_mmod_Minimization_Converged-OPLS-2005>
0

> <r_mmod_RMS_Derivative-OPLS-2005>
0.209849938750267

$$$$
51
                    3D
 Structure written by MMmdl.
159168  0  0  1  0            999 V2000
  -30.6205  -14.7136   20.4347 C   0  0  0  0  0  0
  -30.4306  -12.4303   19.4730 C   0  0  0  0  0  0
  -29.5110  -12.5048   18.2341 C   0  0  0  0  0  0
  -28.0358  -12.3378   18.6454 C   0  0  0  0  0  0
  -27.6441  -13.2325   19.8506 C   0  0  2  0  0  0
  -28.6876  -13.1537   20.9867 C   0  0  0  0  0  0
  -25.2513  -13.8201   20.5689 C   0  0  0  0  0  0
  -24.1797  -13.0448   20.9188 C   0  0  0  0  0  0
  -24.6394  -11.6926   20.8738 C   0  0  0  0  0  0
  -23.9072  -10.4299   21.0397 C   0  0  0  0  0  0
  -24.3614   -9.4212   21.9179 C   0  0  0  0  0  0
  -23.6277   -8.2255   22.0765 C   0  0  0  0  0  0
  -22.4256   -8.0298   21.3556 C   0  0  0  0  0  0
  -21.9894   -9.0277   20.4657 C   0  0  0  0  0  0
  -22.7238  -10.2146   20.3054 C   0  0  0  0  0  0
  -21.6853   -6.0732   22.5270 C   0  0  0  0  0  0
  -21.4018   -6.5630   23.8205 C   0  0  0  0  0  0
  -21.3664   -5.6781   24.9169 C   0  0  0  0  0  0
  -21.6041   -4.3047   24.7210 C   0  0  0  0  0  0
  -21.8822   -3.8141   23.4334 C   0  0  0  0  0  0
  -21.9194   -4.6961   22.3392 C   0  0  0  0  0  0
  -22.7816  -13.5243   21.1831 C   0  0  0  0  0  0
  -22.1660   -4.2149   21.0970 F   0  0  0  0  0  0
  -21.5631   -3.4534   25.7725 F   0  0  0  0  0  0
  -29.9965  -13.4897   20.4120 N   0  0  0  0  0  0
  -26.2947  -12.9415   20.3268 N   0  0  0  0  0  0
  -25.9326  -11.6557   20.5719 N   0  0  0  0  0  0
  -22.0436  -12.8273   22.0394 N   0  0  0  0  0  0
  -25.4194  -15.1928   20.4146 N   0  0  0  0  0  0
  -31.8076  -14.8015   20.1015 O   0  0  0  0  0  0
  -21.6634   -6.8885   21.4234 O   0  0  0  0  0  0
  -22.3510  -14.5544   20.6663 O   0  0  0  0  0  0
  -24.6292  -31.8574   23.1984 C   0  0  0  0  0  0
  -25.9112  -32.4770   23.8323 C   0  0  1  0  0  0
  -27.2048  -27.2681   20.1262 C   0  0  0  0  0  0
  -25.5899  -33.8572   24.2239 N   0  0  0  0  0  0
  -23.4248  -30.4828   21.5441 C   0  0  2  0  0  0
  -24.8660  -28.9350   20.1101 C   0  0  0  0  0  0
  -22.7499  -29.4621   22.4924 C   0  0  0  0  0  0
  -18.0294  -28.1429   22.8459 C   0  0  0  0  0  0
  -24.1487  -36.7303   23.2631 C   0  0  0  0  0  0
  -25.9705  -30.7742   21.3739 C   0  0  0  0  0  0
  -26.0403  -29.3974   20.7174 C   0  0  0  0  0  0
  -27.2134  -28.5769   20.7140 C   0  0  0  0  0  0
  -26.0043  -26.8758   19.4883 C   0  0  0  0  0  0
  -24.8527  -27.6827   19.4830 C   0  0  0  0  0  0
  -23.6387  -29.8218   20.1586 C   0  0  0  0  0  0
  -25.4113  -36.3087   24.0322 C   0  0  1  0  0  0
  -20.5893  -28.3727   23.1270 C   0  0  2  0  0  0
  -20.6800  -26.9451   22.5414 C   0  0  0  0  0  0
  -19.5769  -26.6411   21.5227 C   0  0  0  0  0  0
  -18.1947  -26.7961   22.1624 C   0  0  0  0  0  0
  -19.1546  -28.8896   23.2857 C   0  0  0  0  0  0
  -18.9476  -30.1502   23.8870 C   0  0  0  0  0  0
  -17.6476  -30.6619   24.0579 C   0  0  0  0  0  0
  -25.9059  -34.9456   23.5094 C   0  0  0  0  0  0
  -16.5365  -29.9123   23.6342 C   0  0  0  0  0  0
  -16.7283  -28.6558   23.0319 C   0  0  0  0  0  0
  -26.4465  -31.6585   25.0715 C   0  0  0  0  0  0
  -25.3681  -31.3757   26.1438 C   0  0  0  0  0  0
  -27.0268  -30.2984   24.6191 C   0  0  0  0  0  0
  -27.6016  -32.4312   25.7505 C   0  0  0  0  0  0
  -27.5584  -37.1809   24.8457 C   0  0  0  0  0  0
  -21.4208  -29.3063   22.3661 N   0  0  0  0  0  0
  -26.4284  -37.3793   23.9417 N   0  0  0  0  0  0
  -24.6951  -31.0557   22.0953 N   0  0  0  0  0  0
  -23.4213  -28.8155   23.3011 O   0  0  0  0  0  0
  -28.2928  -26.3668   20.1895 O   0  0  0  0  0  0
  -26.5663  -34.8935   22.4683 O   0  0  0  0  0  0
  -23.5450  -32.1378   23.7301 O   0  0  0  0  0  0
  -29.5540  -18.4419   20.7247 C   0  0  0  0  0  0
  -30.6761  -17.3816   18.8603 C   0  0  0  0  0  0
  -30.4503  -19.8387   18.9294 C   0  0  0  0  0  0
  -29.7459  -19.7828   20.1675 C   0  0  0  0  0  0
  -30.0444  -17.2208   20.1122 C   0  0  0  0  0  0
  -30.8687  -18.6515   18.2853 C   0  0  0  0  0  0
  -29.5217  -21.1642   22.2335 C   0  0  0  0  0  0
  -28.5925  -22.2025   20.1499 C   0  0  0  0  0  0
  -29.5941  -23.8962   21.8403 C   0  0  0  0  0  0
  -29.0526  -23.7336   20.4112 C   0  0  2  0  0  0
  -30.8428  -21.1573   18.2729 C   0  0  0  0  0  0
  -28.0047  -24.9000   20.0316 C   0  0  0  0  0  0
  -29.3241  -21.0506   20.8424 N   0  0  0  0  0  0
  -29.8612  -15.8514   20.6568 N   0  0  0  0  0  0
  -30.0572  -20.3309   22.9696 O   0  0  0  0  0  0
  -31.4937  -18.7254   17.0849 F   0  0  0  0  0  0
  -28.9119  -22.6923   23.0177 S   0  0  0  0  0  0
  -31.4723  -12.5426   19.1697 H   0  0  0  0  0  0
  -30.3674  -11.4505   19.9499 H   0  0  0  0  0  0
  -29.7868  -11.7384   17.5089 H   0  0  0  0  0  0
  -29.6445  -13.4636   17.7298 H   0  0  0  0  0  0
  -27.8805  -11.2888   18.8997 H   0  0  0  0  0  0
  -27.3830  -12.5437   17.7958 H   0  0  0  0  0  0
  -27.6431  -14.2553   19.4737 H   0  0  0  0  0  0
  -28.7089  -12.1542   21.4228 H   0  0  0  0  0  0
  -28.4292  -13.8363   21.7975 H   0  0  0  0  0  0
  -25.2762   -9.5673   22.4756 H   0  0  0  0  0  0
  -23.9982   -7.4634   22.7484 H   0  0  0  0  0  0
  -21.0825   -8.8800   19.8952 H   0  0  0  0  0  0
  -22.3706  -10.9687   19.6165 H   0  0  0  0  0  0
  -21.2016   -7.6140   23.9707 H   0  0  0  0  0  0
  -21.1481   -6.0511   25.9068 H   0  0  0  0  0  0
  -22.0596   -2.7607   23.2827 H   0  0  0  0  0  0
  -22.4028  -11.9958   22.4835 H   0  0  0  0  0  0
  -21.1060  -13.1350   22.2567 H   0  0  0  0  0  0
  -24.6491  -15.8414   20.5335 H   0  0  0  0  0  0
  -26.2640  -15.6390   20.0817 H   0  0  0  0  0  0
  -26.7189  -32.5434   23.1080 H   0  0  0  0  0  0
  -24.9952  -33.9699   25.0319 H   0  0  0  0  0  0
  -22.7209  -31.3063   21.4050 H   0  0  0  0  0  0
  -23.3753  -35.9631   23.3277 H   0  0  0  0  0  0
  -24.3578  -36.8948   22.2051 H   0  0  0  0  0  0
  -23.7244  -37.6499   23.6672 H   0  0  0  0  0  0
  -26.1022  -31.5293   20.5982 H   0  0  0  0  0  0
  -26.8510  -30.8300   22.0010 H   0  0  0  0  0  0
  -28.1109  -28.9220   21.2076 H   0  0  0  0  0  0
  -25.9138  -25.9169   19.0016 H   0  0  0  0  0  0
  -23.9527  -27.3232   19.0016 H   0  0  0  0  0  0
  -23.7619  -30.6006   19.4049 H   0  0  0  0  0  0
  -22.7557  -29.2567   19.8544 H   0  0  0  0  0  0
  -25.1295  -36.1925   25.0814 H   0  0  0  0  0  0
  -20.9973  -28.3324   24.1398 H   0  0  0  0  0  0
  -20.5741  -26.2337   23.3619 H   0  0  0  0  0  0
  -21.6671  -26.7509   22.1189 H   0  0  0  0  0  0
  -19.6940  -25.6314   21.1273 H   0  0  0  0  0  0
  -19.6714  -27.3211   20.6747 H   0  0  0  0  0  0
  -17.4213  -26.6667   21.4039 H   0  0  0  0  0  0
  -18.0355  -26.0139   22.9057 H   0  0  0  0  0  0
  -19.7959  -30.7334   24.2199 H   0  0  0  0  0  0
  -17.5044  -31.6288   24.5206 H   0  0  0  0  0  0
  -15.5372  -30.3032   23.7703 H   0  0  0  0  0  0
  -15.8672  -28.0922   22.6991 H   0  0  0  0  0  0
  -24.5864  -30.7090   25.7783 H   0  0  0  0  0  0
  -24.8862  -32.2937   26.4814 H   0  0  0  0  0  0
  -25.7989  -30.8980   27.0247 H   0  0  0  0  0  0
  -26.2825  -29.6788   24.1174 H   0  0  0  0  0  0
  -27.3876  -29.7205   25.4710 H   0  0  0  0  0  0
  -27.8750  -30.4226   23.9454 H   0  0  0  0  0  0
  -27.2603  -33.3611   26.2071 H   0  0  0  0  0  0
  -28.3841  -32.6867   25.0347 H   0  0  0  0  0  0
  -28.0655  -31.8436   26.5440 H   0  0  0  0  0  0
  -28.2585  -38.0124   24.7536 H   0  0  0  0  0  0
  -28.1099  -36.2661   24.6235 H   0  0  0  0  0  0
  -27.2312  -37.1408   25.8861 H   0  0  0  0  0  0
  -20.9398  -29.8777   21.6855 H   0  0  0  0  0  0
  -26.0156  -38.2859   24.1451 H   0  0  0  0  0  0
  -29.0338  -18.3474   21.6676 H   0  0  0  0  0  0
  -31.0302  -16.5248   18.3068 H   0  0  0  0  0  0
  -28.4997  -22.0215   19.0830 H   0  0  0  0  0  0
  -27.5598  -22.1182   20.4915 H   0  0  0  0  0  0
  -29.4148  -24.9038   22.2151 H   0  0  0  0  0  0
  -30.6767  -23.7639   21.8402 H   0  0  0  0  0  0
  -29.9061  -23.9083   19.7554 H   0  0  0  0  0  0
  -30.0386  -21.5219   17.6356 H   0  0  0  0  0  0
  -31.7242  -21.0446   17.6405 H   0  0  0  0  0  0
  -31.0941  -21.9154   19.0142 H   0  0  0  0  0  0
  -27.0933  -24.6800   20.5888 H   0  0  0  0  0  0
  -27.7594  -24.7432   18.9805 H   0  0  0  0  0  0
  -28.9753  -15.6838   21.1100 H   0  0  0  0  0  0
  1 25  1  0  0  0
  1 30  2  0  0  0
  1 84  1  0  0  0
  2  3  1  0  0  0
  2 25  1  0  0  0
  2 88  1  0  0  0
  2 89  1  0  0  0
  3  4  1  0  0  0
  3 90  1  0  0  0
  3 91  1  0  0  0
  4  5  1  0  0  0
  4 92  1  0  0  0
  4 93  1  0  0  0
  5  6  1  0  0  0
  5 26  1  0  0  0
  5 94  1  0  0  0
  6 25  1  0  0  0
  6 95  1  0  0  0
  6 96  1  0  0  0
  7  8  2  0  0  0
  7 26  1  0  0  0
  7 29  1  0  0  0
  8  9  1  0  0  0
  8 22  1  0  0  0
  9 10  1  0  0  0
  9 27  2  0  0  0
 10 11  2  0  0  0
 10 15  1  0  0  0
 11 12  1  0  0  0
 11 97  1  0  0  0
 12 13  2  0  0  0
 12 98  1  0  0  0
 13 14  1  0  0  0
 13 31  1  0  0  0
 14 15  2  0  0  0
 14 99  1  0  0  0
 15100  1  0  0  0
 16 17  2  0  0  0
 16 21  1  0  0  0
 16 31  1  0  0  0
 17 18  1  0  0  0
 17101  1  0  0  0
 18 19  2  0  0  0
 18102  1  0  0  0
 19 20  1  0  0  0
 19 24  1  0  0  0
 20 21  2  0  0  0
 20103  1  0  0  0
 21 23  1  0  0  0
 22 28  1  0  0  0
 22 32  2  0  0  0
 26 27  1  0  0  0
 28104  1  0  0  0
 28105  1  0  0  0
 29106  1  0  0  0
 29107  1  0  0  0
 33 34  1  0  0  0
 33 66  1  0  0  0
 33 70  2  0  0  0
 34 36  1  0  0  0
 34 59  1  0  0  0
 34108  1  0  0  0
 35 44  2  0  0  0
 35 45  1  0  0  0
 35 68  1  0  0  0
 36 56  1  0  0  0
 36109  1  0  0  0
 37 39  1  0  0  0
 37 47  1  0  0  0
 37 66  1  0  0  0
 37110  1  0  0  0
 38 43  2  0  0  0
 38 46  1  0  0  0
 38 47  1  0  0  0
 39 64  1  0  0  0
 39 67  2  0  0  0
 40 52  1  0  0  0
 40 53  2  0  0  0
 40 58  1  0  0  0
 41111  1  0  0  0
 41112  1  0  0  0
 41113  1  0  0  0
 41 48  1  0  0  0
 42 43  1  0  0  0
 42 66  1  0  0  0
 42114  1  0  0  0
 42115  1  0  0  0
 43 44  1  0  0  0
 44116  1  0  0  0
 45 46  2  0  0  0
 45117  1  0  0  0
 46118  1  0  0  0
 47119  1  0  0  0
 47120  1  0  0  0
 48 56  1  0  0  0
 48 65  1  0  0  0
 48121  1  0  0  0
 49 50  1  0  0  0
 49 53  1  0  0  0
 49 64  1  0  0  0
 49122  1  0  0  0
 50 51  1  0  0  0
 50123  1  0  0  0
 50124  1  0  0  0
 51 52  1  0  0  0
 51125  1  0  0  0
 51126  1  0  0  0
 52127  1  0  0  0
 52128  1  0  0  0
 53 54  1  0  0  0
 54 55  2  0  0  0
 54129  1  0  0  0
 55 57  1  0  0  0
 55130  1  0  0  0
 56 69  2  0  0  0
 57 58  2  0  0  0
 57131  1  0  0  0
 58132  1  0  0  0
 59 60  1  0  0  0
 59 61  1  0  0  0
 59 62  1  0  0  0
 60133  1  0  0  0
 60134  1  0  0  0
 60135  1  0  0  0
 61136  1  0  0  0
 61137  1  0  0  0
 61138  1  0  0  0
 62139  1  0  0  0
 62140  1  0  0  0
 62141  1  0  0  0
 63 65  1  0  0  0
 63142  1  0  0  0
 63143  1  0  0  0
 63144  1  0  0  0
 64145  1  0  0  0
 65146  1  0  0  0
 68 82  1  0  0  0
 71 74  2  0  0  0
 71 75  1  0  0  0
 71147  1  0  0  0
 72 75  2  0  0  0
 72 76  1  0  0  0
 72148  1  0  0  0
 73 74  1  0  0  0
 73 76  2  0  0  0
 73 81  1  0  0  0
 74 83  1  0  0  0
 75 84  1  0  0  0
 76 86  1  0  0  0
 77 83  1  0  0  0
 77 85  2  0  0  0
 77 87  1  0  0  0
 78 80  1  0  0  0
 78 83  1  0  0  0
 78149  1  0  0  0
 78150  1  0  0  0
 79 80  1  0  0  0
 79 87  1  0  0  0
 79151  1  0  0  0
 79152  1  0  0  0
 80 82  1  0  0  0
 80153  1  0  0  0
 81154  1  0  0  0
 81155  1  0  0  0
 81156  1  0  0  0
 82157  1  0  0  0
 82158  1  0  0  0
 84159  1  0  0  0
M  ISO  4   1 100  68 101  82 101  84 100
M  END
> <chiral flag>
0

> <version>
0

> <s_m_source_file>
/data/baiqing/PycharmProjects/Reinvent-master-3.2/result/LINK_invent/BTK/process_docking_weight1_custom_product_contain_oxygen_bond_distance_aromatic_linkinvent_7_9_3/rearranged_h_0064.sdf

> <i_m_source_file_index>
52

> <r_mmod_Potential_Energy-OPLS-2005>
246.204483032227

> <r_mmod_Stretch_Energy-OPLS-2005>
125.836090087891

> <r_mmod_Bend_Energy-OPLS-2005>
154.258148193359

> <r_mmod_Torsional_Energy-OPLS-2005>
297.4619140625

> <r_mmod_Improper_Torsional_Energy-OPLS-2005>
4.83852434158325

> <r_mmod_Van_der_Waal_Energy-OPLS-2005>
161.857009887695

> <r_mmod_Electrostatic_Energy-OPLS-2005>
-341.298004150391

> <r_mmod_Solvation_Energy-OPLS-2005>
-235.317184448242

> <b_mmod_Minimization_Converged-OPLS-2005>
0

> <r_mmod_RMS_Derivative-OPLS-2005>
2.32392358779907

$$$$
52
                    3D
 Structure written by MMmdl.
173182  0  0  1  0            999 V2000
  -30.6197  -14.5782   20.5544 C   0  0  0  0  0  0
  -30.4458  -12.3671   19.4324 C   0  0  0  0  0  0
  -29.5049  -12.5159   18.2152 C   0  0  0  0  0  0
  -28.0264  -12.3583   18.6273 C   0  0  0  0  0  0
  -27.6622  -13.2042   19.8761 C   0  0  2  0  0  0
  -28.7056  -12.9890   20.9953 C   0  0  0  0  0  0
  -25.2606  -13.8150   20.5695 C   0  0  0  0  0  0
  -24.1844  -13.0433   20.9176 C   0  0  0  0  0  0
  -24.6392  -11.6898   20.8727 C   0  0  0  0  0  0
  -23.9053  -10.4288   21.0403 C   0  0  0  0  0  0
  -24.3608   -9.4206   21.9182 C   0  0  0  0  0  0
  -23.6286   -8.2240   22.0754 C   0  0  0  0  0  0
  -22.4268   -8.0278   21.3544 C   0  0  0  0  0  0
  -21.9901   -9.0249   20.4645 C   0  0  0  0  0  0
  -22.7226  -10.2131   20.3052 C   0  0  0  0  0  0
  -21.6849   -6.0733   22.5278 C   0  0  0  0  0  0
  -21.4012   -6.5639   23.8212 C   0  0  0  0  0  0
  -21.3658   -5.6793   24.9176 C   0  0  0  0  0  0
  -21.6045   -4.3056   24.7228 C   0  0  0  0  0  0
  -21.8819   -3.8146   23.4349 C   0  0  0  0  0  0
  -21.9193   -4.6962   22.3404 C   0  0  0  0  0  0
  -22.7869  -13.5239   21.1846 C   0  0  0  0  0  0
  -22.1661   -4.2148   21.0980 F   0  0  0  0  0  0
  -21.5630   -3.4539   25.7740 F   0  0  0  0  0  0
  -30.0286  -13.3484   20.4504 N   0  0  0  0  0  0
  -26.3029  -12.9307   20.3367 N   0  0  0  0  0  0
  -25.9318  -11.6471   20.5758 N   0  0  0  0  0  0
  -22.0508  -12.8227   22.0404 N   0  0  0  0  0  0
  -25.4358  -15.1866   20.4141 N   0  0  0  0  0  0
  -31.7351  -14.8152   20.0774 O   0  0  0  0  0  0
  -21.6635   -6.8875   21.4239 O   0  0  0  0  0  0
  -22.3552  -14.5546   20.6703 O   0  0  0  0  0  0
  -24.6207  -31.8628   23.2055 C   0  0  0  0  0  0
  -25.9077  -32.4791   23.8368 C   0  0  1  0  0  0
  -27.2346  -27.3778   20.1073 C   0  0  0  0  0  0
  -25.5912  -33.8591   24.2298 N   0  0  0  0  0  0
  -23.4139  -30.4838   21.5460 C   0  0  2  0  0  0
  -24.8648  -28.9432   20.1127 C   0  0  0  0  0  0
  -22.7455  -29.4626   22.4956 C   0  0  0  0  0  0
  -18.0282  -28.1377   22.8481 C   0  0  0  0  0  0
  -24.1487  -36.7306   23.2641 C   0  0  0  0  0  0
  -25.9482  -30.8093   21.3709 C   0  0  0  0  0  0
  -26.0275  -29.4383   20.7198 C   0  0  0  0  0  0
  -27.2176  -28.6615   20.7189 C   0  0  0  0  0  0
  -26.0597  -26.9151   19.4853 C   0  0  0  0  0  0
  -24.8782  -27.6819   19.4915 C   0  0  0  0  0  0
  -23.6279  -29.8154   20.1613 C   0  0  0  0  0  0
  -25.4105  -36.3088   24.0333 C   0  0  1  0  0  0
  -20.5880  -28.3678   23.1291 C   0  0  2  0  0  0
  -20.6766  -26.9403   22.5411 C   0  0  0  0  0  0
  -19.5740  -26.6382   21.5208 C   0  0  0  0  0  0
  -18.1922  -26.7921   22.1621 C   0  0  0  0  0  0
  -19.1535  -28.8842   23.2881 C   0  0  0  0  0  0
  -18.9463  -30.1446   23.8892 C   0  0  0  0  0  0
  -17.6465  -30.6581   24.0561 C   0  0  0  0  0  0
  -25.9041  -34.9455   23.5110 C   0  0  0  0  0  0
  -16.5354  -29.9082   23.6324 C   0  0  0  0  0  0
  -16.7271  -28.6501   23.0338 C   0  0  0  0  0  0
  -26.4484  -31.6587   25.0717 C   0  0  0  0  0  0
  -25.3737  -31.3719   26.1458 C   0  0  0  0  0  0
  -27.0323  -30.3016   24.6141 C   0  0  0  0  0  0
  -27.6040  -32.4327   25.7489 C   0  0  0  0  0  0
  -27.5574  -37.1803   24.8462 C   0  0  0  0  0  0
  -21.4174  -29.3038   22.3697 N   0  0  0  0  0  0
  -26.4286  -37.3775   23.9406 N   0  0  0  0  0  0
  -24.6788  -31.0679   22.0984 N   0  0  0  0  0  0
  -23.4191  -28.8169   23.3027 O   0  0  0  0  0  0
  -28.3354  -26.5314   20.1059 O   0  0  0  0  0  0
  -26.5612  -34.8912   22.4676 O   0  0  0  0  0  0
  -23.5382  -32.1405   23.7408 O   0  0  0  0  0  0
  -30.1131  -19.1789   20.1026 C   0  0  0  0  0  0
  -30.3097  -17.7724   20.1091 C   0  0  0  0  0  0
  -29.0822  -19.0787   22.3093 C   0  0  0  0  0  0
  -29.1696  -17.6398   22.2461 C   0  0  0  0  0  0
  -29.4748  -19.8692   21.1684 C   0  0  0  0  0  0
  -29.8178  -16.9717   21.1655 C   0  0  0  0  0  0
  -28.0121  -21.8148   20.7178 C   0  0  0  0  0  0
  -27.7412  -23.3543   20.7089 C   0  0  0  0  0  0
  -30.1473  -23.7695   20.8193 C   0  0  0  0  0  0
  -30.4234  -22.2287   20.9771 C   0  0  0  0  0  0
  -28.8016  -24.2420   21.4174 C   0  0  2  0  0  0
  -28.5522  -16.7801   23.3576 C   0  0  0  0  0  0
  -28.7988  -23.9646   22.9414 C   0  0  0  0  0  0
  -27.3179  -20.4561   23.6799 C   0  0  0  0  0  0
  -29.8230  -20.4880   24.3225 C   0  0  0  0  0  0
  -28.5402  -25.8143   21.3463 C   0  0  0  0  0  0
  -28.6682  -19.7232   23.6578 C   0  0  0  0  0  0
  -29.2487  -21.3156   21.0277 N   0  0  0  0  0  0
  -29.8467  -15.5196   21.1578 N   0  0  0  0  0  0
  -27.0581  -21.0784   20.4444 O   0  0  0  0  0  0
  -31.4843  -12.5090   19.1274 H   0  0  0  0  0  0
  -30.3915  -11.3567   19.8401 H   0  0  0  0  0  0
  -29.7585  -11.7794   17.4516 H   0  0  0  0  0  0
  -29.6521  -13.4943   17.7558 H   0  0  0  0  0  0
  -27.8508  -11.3018   18.8345 H   0  0  0  0  0  0
  -27.3720  -12.6154   17.7935 H   0  0  0  0  0  0
  -27.7016  -14.2504   19.5724 H   0  0  0  0  0  0
  -28.7092  -11.9447   21.3101 H   0  0  0  0  0  0
  -28.4454  -13.5530   21.8913 H   0  0  0  0  0  0
  -25.2754   -9.5684   22.4755 H   0  0  0  0  0  0
  -23.9998   -7.4632   22.7471 H   0  0  0  0  0  0
  -21.0833   -8.8763   19.8950 H   0  0  0  0  0  0
  -22.3682  -10.9669   19.6160 H   0  0  0  0  0  0
  -21.2001   -7.6146   23.9715 H   0  0  0  0  0  0
  -21.1482   -6.0524   25.9079 H   0  0  0  0  0  0
  -22.0600   -2.7608   23.2849 H   0  0  0  0  0  0
  -22.4117  -11.9877   22.4776 H   0  0  0  0  0  0
  -21.1132  -13.1258   22.2622 H   0  0  0  0  0  0
  -24.6759  -15.8473   20.5343 H   0  0  0  0  0  0
  -26.2966  -15.6259   20.1129 H   0  0  0  0  0  0
  -26.7148  -32.5498   23.1130 H   0  0  0  0  0  0
  -25.0039  -33.9738   25.0426 H   0  0  0  0  0  0
  -22.7053  -31.3024   21.4033 H   0  0  0  0  0  0
  -23.3734  -35.9652   23.3307 H   0  0  0  0  0  0
  -24.3590  -36.8925   22.2056 H   0  0  0  0  0  0
  -23.7253  -37.6514   23.6663 H   0  0  0  0  0  0
  -26.0705  -31.5727   20.6011 H   0  0  0  0  0  0
  -26.8317  -30.8631   21.9950 H   0  0  0  0  0  0
  -28.1133  -29.0356   21.1955 H   0  0  0  0  0  0
  -26.0556  -25.9426   19.0127 H   0  0  0  0  0  0
  -23.9871  -27.2952   19.0160 H   0  0  0  0  0  0
  -23.7408  -30.5905   19.4026 H   0  0  0  0  0  0
  -22.7508  -29.2385   19.8628 H   0  0  0  0  0  0
  -25.1283  -36.1938   25.0826 H   0  0  0  0  0  0
  -20.9968  -28.3250   24.1414 H   0  0  0  0  0  0
  -20.5666  -26.2288   23.3608 H   0  0  0  0  0  0
  -21.6636  -26.7434   22.1207 H   0  0  0  0  0  0
  -19.6906  -25.6294   21.1233 H   0  0  0  0  0  0
  -19.6678  -27.3199   20.6739 H   0  0  0  0  0  0
  -17.4190  -26.6669   21.4024 H   0  0  0  0  0  0
  -18.0324  -26.0062   22.9015 H   0  0  0  0  0  0
  -19.7943  -30.7255   24.2268 H   0  0  0  0  0  0
  -17.5022  -31.6265   24.5161 H   0  0  0  0  0  0
  -15.5351  -30.2978   23.7659 H   0  0  0  0  0  0
  -15.8671  -28.0827   22.7036 H   0  0  0  0  0  0
  -24.5898  -30.7081   25.7801 H   0  0  0  0  0  0
  -24.8943  -32.2885   26.4902 H   0  0  0  0  0  0
  -25.8072  -30.8888   27.0221 H   0  0  0  0  0  0
  -26.2885  -29.6775   24.1176 H   0  0  0  0  0  0
  -27.4048  -29.7259   25.4624 H   0  0  0  0  0  0
  -27.8741  -30.4311   23.9334 H   0  0  0  0  0  0
  -27.2636  -33.3614   26.2079 H   0  0  0  0  0  0
  -28.3843  -32.6915   25.0324 H   0  0  0  0  0  0
  -28.0715  -31.8452   26.5400 H   0  0  0  0  0  0
  -28.2585  -38.0105   24.7507 H   0  0  0  0  0  0
  -28.1076  -36.2634   24.6285 H   0  0  0  0  0  0
  -27.2302  -37.1455   25.8869 H   0  0  0  0  0  0
  -20.9343  -29.8774   21.6924 H   0  0  0  0  0  0
  -26.0167  -38.2849   24.1403 H   0  0  0  0  0  0
  -30.4493  -19.7364   19.2394 H   0  0  0  0  0  0
  -30.7888  -17.3099   19.2575 H   0  0  0  0  0  0
  -26.7599  -23.5323   21.1504 H   0  0  0  0  0  0
  -27.6560  -23.6610   19.6662 H   0  0  0  0  0  0
  -30.1577  -24.0199   19.7570 H   0  0  0  0  0  0
  -30.9753  -24.3326   21.2513 H   0  0  0  0  0  0
  -31.0112  -22.0747   21.8788 H   0  0  0  0  0  0
  -31.0762  -21.9097   20.1644 H   0  0  0  0  0  0
  -27.5754  -17.1688   23.6468 H   0  0  0  0  0  0
  -29.2003  -16.7620   24.2342 H   0  0  0  0  0  0
  -28.3549  -15.7477   23.0783 H   0  0  0  0  0  0
  -28.9981  -22.9313   23.1897 H   0  0  0  0  0  0
  -27.8350  -24.2064   23.3923 H   0  0  0  0  0  0
  -29.5554  -24.5587   23.4553 H   0  0  0  0  0  0
  -26.5403  -19.8606   23.2008 H   0  0  0  0  0  0
  -27.3406  -21.4312   23.2102 H   0  0  0  0  0  0
  -27.0016  -20.6306   24.7089 H   0  0  0  0  0  0
  -30.6478  -19.8097   24.5444 H   0  0  0  0  0  0
  -29.5121  -20.9359   25.2663 H   0  0  0  0  0  0
  -30.2305  -21.2767   23.7042 H   0  0  0  0  0  0
  -29.3848  -26.3148   21.8214 H   0  0  0  0  0  0
  -27.6963  -26.0312   22.0056 H   0  0  0  0  0  0
  -28.5089  -18.9463   24.3958 H   0  0  0  0  0  0
  -29.0687  -15.1008   21.6414 H   0  0  0  0  0  0
  1 25  1  0  0  0
  1 30  2  0  0  0
  1 89  1  0  0  0
  2  3  1  0  0  0
  2 25  1  0  0  0
  2 91  1  0  0  0
  2 92  1  0  0  0
  3  4  1  0  0  0
  3 93  1  0  0  0
  3 94  1  0  0  0
  4  5  1  0  0  0
  4 95  1  0  0  0
  4 96  1  0  0  0
  5  6  1  0  0  0
  5 26  1  0  0  0
  5 97  1  0  0  0
  6 25  1  0  0  0
  6 98  1  0  0  0
  6 99  1  0  0  0
  7  8  2  0  0  0
  7 26  1  0  0  0
  7 29  1  0  0  0
  8  9  1  0  0  0
  8 22  1  0  0  0
  9 10  1  0  0  0
  9 27  2  0  0  0
 10 11  2  0  0  0
 10 15  1  0  0  0
 11 12  1  0  0  0
 11100  1  0  0  0
 12 13  2  0  0  0
 12101  1  0  0  0
 13 14  1  0  0  0
 13 31  1  0  0  0
 14 15  2  0  0  0
 14102  1  0  0  0
 15103  1  0  0  0
 16 17  2  0  0  0
 16 21  1  0  0  0
 16 31  1  0  0  0
 17 18  1  0  0  0
 17104  1  0  0  0
 18 19  2  0  0  0
 18105  1  0  0  0
 19 20  1  0  0  0
 19 24  1  0  0  0
 20 21  2  0  0  0
 20106  1  0  0  0
 21 23  1  0  0  0
 22 28  1  0  0  0
 22 32  2  0  0  0
 26 27  1  0  0  0
 28107  1  0  0  0
 28108  1  0  0  0
 29109  1  0  0  0
 29110  1  0  0  0
 33 34  1  0  0  0
 33 66  1  0  0  0
 33 70  2  0  0  0
 34 36  1  0  0  0
 34 59  1  0  0  0
 34111  1  0  0  0
 35 44  2  0  0  0
 35 45  1  0  0  0
 35 68  1  0  0  0
 36 56  1  0  0  0
 36112  1  0  0  0
 37 39  1  0  0  0
 37 47  1  0  0  0
 37 66  1  0  0  0
 37113  1  0  0  0
 38 43  2  0  0  0
 38 46  1  0  0  0
 38 47  1  0  0  0
 39 64  1  0  0  0
 39 67  2  0  0  0
 40 52  1  0  0  0
 40 53  2  0  0  0
 40 58  1  0  0  0
 41114  1  0  0  0
 41115  1  0  0  0
 41116  1  0  0  0
 41 48  1  0  0  0
 42 43  1  0  0  0
 42 66  1  0  0  0
 42117  1  0  0  0
 42118  1  0  0  0
 43 44  1  0  0  0
 44119  1  0  0  0
 45 46  2  0  0  0
 45120  1  0  0  0
 46121  1  0  0  0
 47122  1  0  0  0
 47123  1  0  0  0
 48 56  1  0  0  0
 48 65  1  0  0  0
 48124  1  0  0  0
 49 50  1  0  0  0
 49 53  1  0  0  0
 49 64  1  0  0  0
 49125  1  0  0  0
 50 51  1  0  0  0
 50126  1  0  0  0
 50127  1  0  0  0
 51 52  1  0  0  0
 51128  1  0  0  0
 51129  1  0  0  0
 52130  1  0  0  0
 52131  1  0  0  0
 53 54  1  0  0  0
 54 55  2  0  0  0
 54132  1  0  0  0
 55 57  1  0  0  0
 55133  1  0  0  0
 56 69  2  0  0  0
 57 58  2  0  0  0
 57134  1  0  0  0
 58135  1  0  0  0
 59 60  1  0  0  0
 59 61  1  0  0  0
 59 62  1  0  0  0
 60136  1  0  0  0
 60137  1  0  0  0
 60138  1  0  0  0
 61139  1  0  0  0
 61140  1  0  0  0
 61141  1  0  0  0
 62142  1  0  0  0
 62143  1  0  0  0
 62144  1  0  0  0
 63 65  1  0  0  0
 63145  1  0  0  0
 63146  1  0  0  0
 63147  1  0  0  0
 64148  1  0  0  0
 65149  1  0  0  0
 68 86  1  0  0  0
 71 72  2  0  0  0
 71 75  1  0  0  0
 71150  1  0  0  0
 72 76  1  0  0  0
 72151  1  0  0  0
 73 74  1  0  0  0
 73 75  2  0  0  0
 73 87  1  0  0  0
 74 76  2  0  0  0
 74 82  1  0  0  0
 75 88  1  0  0  0
 76 89  1  0  0  0
 77 78  1  0  0  0
 77 88  1  0  0  0
 77 90  2  0  0  0
 78 81  1  0  0  0
 78152  1  0  0  0
 78153  1  0  0  0
 79 80  1  0  0  0
 79 81  1  0  0  0
 79154  1  0  0  0
 79155  1  0  0  0
 80 88  1  0  0  0
 80156  1  0  0  0
 80157  1  0  0  0
 81 83  1  0  0  0
 81 86  1  0  0  0
 82158  1  0  0  0
 82159  1  0  0  0
 82160  1  0  0  0
 83161  1  0  0  0
 83162  1  0  0  0
 83163  1  0  0  0
 84164  1  0  0  0
 84165  1  0  0  0
 84166  1  0  0  0
 84 87  1  0  0  0
 85 87  1  0  0  0
 85167  1  0  0  0
 85168  1  0  0  0
 85169  1  0  0  0
 86170  1  0  0  0
 86171  1  0  0  0
 87172  1  0  0  0
 89173  1  0  0  0
M  ISO  4   1 100  68 101  86 101  89 100
M  END
> <chiral flag>
0

> <version>
0

> <s_m_source_file>
/data/baiqing/PycharmProjects/Reinvent-master-3.2/result/LINK_invent/BTK/process_docking_weight1_custom_product_contain_oxygen_bond_distance_aromatic_linkinvent_7_9_3/rearranged_h_0064.sdf

> <i_m_source_file_index>
53

> <r_mmod_Potential_Energy-OPLS-2005>
172.147430419922

> <r_mmod_Stretch_Energy-OPLS-2005>
76.2543029785156

> <r_mmod_Bend_Energy-OPLS-2005>
165.139144897461

> <r_mmod_Torsional_Energy-OPLS-2005>
333.689117431641

> <r_mmod_Improper_Torsional_Energy-OPLS-2005>
3.34066295623779

> <r_mmod_Van_der_Waal_Energy-OPLS-2005>
163.499221801758

> <r_mmod_Electrostatic_Energy-OPLS-2005>
-387.413208007812

> <r_mmod_Solvation_Energy-OPLS-2005>
-212.788101196289

> <b_mmod_Minimization_Converged-OPLS-2005>
0

> <r_mmod_RMS_Derivative-OPLS-2005>
0.984746158123016

$$$$
53
                    3D
 Structure written by MMmdl.
159168  0  0  1  0            999 V2000
  -30.5746  -14.7922   20.4737 C   0  0  0  0  0  0
  -30.4401  -12.4986   19.4623 C   0  0  0  0  0  0
  -29.5078  -12.4994   18.2308 C   0  0  0  0  0  0
  -28.0402  -12.2958   18.6546 C   0  0  0  0  0  0
  -27.6309  -13.2197   19.8329 C   0  0  2  0  0  0
  -28.6724  -13.1814   20.9664 C   0  0  0  0  0  0
  -25.2478  -13.8135   20.5657 C   0  0  0  0  0  0
  -24.1768  -13.0415   20.9213 C   0  0  0  0  0  0
  -24.6324  -11.6890   20.8726 C   0  0  0  0  0  0
  -23.8988  -10.4282   21.0382 C   0  0  0  0  0  0
  -24.3564   -9.4209   21.9159 C   0  0  0  0  0  0
  -23.6262   -8.2229   22.0724 C   0  0  0  0  0  0
  -22.4255   -8.0252   21.3516 C   0  0  0  0  0  0
  -21.9868   -9.0209   20.4629 C   0  0  0  0  0  0
  -22.7157  -10.2107   20.3043 C   0  0  0  0  0  0
  -21.6855   -6.0711   22.5275 C   0  0  0  0  0  0
  -21.4011   -6.5613   23.8202 C   0  0  0  0  0  0
  -21.3676   -5.6769   24.9168 C   0  0  0  0  0  0
  -21.6047   -4.3028   24.7224 C   0  0  0  0  0  0
  -21.8824   -3.8125   23.4342 C   0  0  0  0  0  0
  -21.9192   -4.6941   22.3398 C   0  0  0  0  0  0
  -22.7798  -13.5233   21.1877 C   0  0  0  0  0  0
  -22.1670   -4.2120   21.0975 F   0  0  0  0  0  0
  -21.5637   -3.4518   25.7737 F   0  0  0  0  0  0
  -29.9627  -13.5620   20.3737 N   0  0  0  0  0  0
  -26.2860  -12.9312   20.3173 N   0  0  0  0  0  0
  -25.9241  -11.6466   20.5676 N   0  0  0  0  0  0
  -22.0423  -12.8242   22.0446 N   0  0  0  0  0  0
  -25.4197  -15.1847   20.4096 N   0  0  0  0  0  0
  -31.7867  -14.8896   20.2533 O   0  0  0  0  0  0
  -21.6635   -6.8848   21.4230 O   0  0  0  0  0  0
  -22.3483  -14.5534   20.6705 O   0  0  0  0  0  0
  -24.6290  -31.8557   23.1984 C   0  0  0  0  0  0
  -25.9139  -32.4748   23.8327 C   0  0  1  0  0  0
  -27.2104  -27.2486   20.1620 C   0  0  0  0  0  0
  -25.5941  -33.8553   24.2254 N   0  0  0  0  0  0
  -23.4282  -30.4793   21.5406 C   0  0  2  0  0  0
  -24.8795  -28.9257   20.1101 C   0  0  0  0  0  0
  -22.7512  -29.4607   22.4892 C   0  0  0  0  0  0
  -18.0311  -28.1409   22.8470 C   0  0  0  0  0  0
  -24.1500  -36.7278   23.2631 C   0  0  0  0  0  0
  -25.9730  -30.7685   21.3817 C   0  0  0  0  0  0
  -26.0491  -29.3899   20.7261 C   0  0  0  0  0  0
  -27.2216  -28.5645   20.7371 C   0  0  0  0  0  0
  -26.0258  -26.8574   19.5066 C   0  0  0  0  0  0
  -24.8739  -27.6696   19.4842 C   0  0  0  0  0  0
  -23.6492  -29.8147   20.1565 C   0  0  0  0  0  0
  -25.4131  -36.3064   24.0316 C   0  0  1  0  0  0
  -20.5919  -28.3709   23.1284 C   0  0  2  0  0  0
  -20.6794  -26.9428   22.5433 C   0  0  0  0  0  0
  -19.5793  -26.6404   21.5209 C   0  0  0  0  0  0
  -18.1954  -26.7967   22.1576 C   0  0  0  0  0  0
  -19.1564  -28.8875   23.2878 C   0  0  0  0  0  0
  -18.9479  -30.1473   23.8903 C   0  0  0  0  0  0
  -17.6470  -30.6595   24.0579 C   0  0  0  0  0  0
  -25.9065  -34.9434   23.5090 C   0  0  0  0  0  0
  -16.5363  -29.9092   23.6335 C   0  0  0  0  0  0
  -16.7296  -28.6517   23.0352 C   0  0  0  0  0  0
  -26.4519  -31.6566   25.0710 C   0  0  0  0  0  0
  -25.3743  -31.3726   26.1435 C   0  0  0  0  0  0
  -27.0349  -30.2966   24.6197 C   0  0  0  0  0  0
  -27.6092  -32.4302   25.7478 C   0  0  0  0  0  0
  -27.5593  -37.1797   24.8465 C   0  0  0  0  0  0
  -21.4216  -29.3055   22.3654 N   0  0  0  0  0  0
  -26.4296  -37.3765   23.9400 N   0  0  0  0  0  0
  -24.6949  -31.0529   22.0960 N   0  0  0  0  0  0
  -23.4219  -28.8121   23.2967 O   0  0  0  0  0  0
  -28.2684  -26.3102   20.2140 O   0  0  0  0  0  0
  -26.5631  -34.8912   22.4652 O   0  0  0  0  0  0
  -23.5452  -32.1364   23.7306 O   0  0  0  0  0  0
  -30.0225  -18.5721   23.2006 C   0  0  0  0  0  0
  -29.6711  -19.7707   22.5573 C   0  0  0  0  0  0
  -29.5122  -18.5488   20.4699 C   0  0  0  0  0  0
  -30.1263  -17.3452   22.5131 C   0  0  0  0  0  0
  -29.4219  -19.8380   21.1690 C   0  0  0  0  0  0
  -29.8626  -17.2740   21.1181 C   0  0  0  0  0  0
  -29.1135  -23.1851   19.3885 C   0  0  0  0  0  0
  -28.5769  -23.6053   20.5396 C   0  0  0  0  0  0
  -29.4383  -21.7444   19.4259 C   0  0  0  0  0  0
  -28.5354  -22.3514   21.4414 C   0  0  0  0  0  0
  -30.4631  -16.1138   23.3422 C   0  0  0  0  0  0
  -28.4412  -25.3566   22.4267 C   0  0  0  0  0  0
  -28.0084  -25.0408   20.9852 C   0  0  1  0  0  0
  -29.0897  -21.2057   20.6305 N   0  0  0  0  0  0
  -29.7510  -15.9209   20.4941 N   0  0  0  0  0  0
  -29.9526  -21.1082   18.5021 O   0  0  0  0  0  0
  -31.4704  -12.6680   19.1446 H   0  0  0  0  0  0
  -30.4305  -11.5308   19.9663 H   0  0  0  0  0  0
  -29.8063  -11.7149   17.5336 H   0  0  0  0  0  0
  -29.6093  -13.4443   17.6940 H   0  0  0  0  0  0
  -27.9309  -11.2507   18.9495 H   0  0  0  0  0  0
  -27.3732  -12.4388   17.8044 H   0  0  0  0  0  0
  -27.6172  -14.2329   19.4280 H   0  0  0  0  0  0
  -28.7230  -12.1859   21.4096 H   0  0  0  0  0  0
  -28.3852  -13.8619   21.7693 H   0  0  0  0  0  0
  -25.2695   -9.5709   22.4743 H   0  0  0  0  0  0
  -23.9973   -7.4623   22.7441 H   0  0  0  0  0  0
  -21.0794   -8.8703   19.8942 H   0  0  0  0  0  0
  -22.3574  -10.9636   19.6168 H   0  0  0  0  0  0
  -21.1994   -7.6118   23.9701 H   0  0  0  0  0  0
  -21.1506   -6.0493   25.9068 H   0  0  0  0  0  0
  -22.0594   -2.7585   23.2842 H   0  0  0  0  0  0
  -22.4041  -11.9949   22.4908 H   0  0  0  0  0  0
  -21.1031  -13.1261   22.2628 H   0  0  0  0  0  0
  -24.6518  -15.8378   20.5261 H   0  0  0  0  0  0
  -26.2615  -15.6242   20.0632 H   0  0  0  0  0  0
  -26.7200  -32.5421   23.1073 H   0  0  0  0  0  0
  -25.0109  -33.9680   25.0412 H   0  0  0  0  0  0
  -22.7250  -31.3040   21.3979 H   0  0  0  0  0  0
  -23.3764  -35.9611   23.3269 H   0  0  0  0  0  0
  -24.3588  -36.8907   22.2049 H   0  0  0  0  0  0
  -23.7260  -37.6475   23.6665 H   0  0  0  0  0  0
  -26.1142  -31.5277   20.6109 H   0  0  0  0  0  0
  -26.8472  -30.8148   22.0181 H   0  0  0  0  0  0
  -28.1142  -28.9121   21.2368 H   0  0  0  0  0  0
  -25.9812  -25.8868   19.0308 H   0  0  0  0  0  0
  -23.9793  -27.3136   18.9917 H   0  0  0  0  0  0
  -23.7745  -30.5921   19.4025 H   0  0  0  0  0  0
  -22.7660  -29.2516   19.8497 H   0  0  0  0  0  0
  -25.1316  -36.1917   25.0806 H   0  0  0  0  0  0
  -21.0019  -28.3312   24.1410 H   0  0  0  0  0  0
  -20.5662  -26.2321   23.3635 H   0  0  0  0  0  0
  -21.6680  -26.7422   22.1255 H   0  0  0  0  0  0
  -19.6938  -25.6310   21.1249 H   0  0  0  0  0  0
  -19.6775  -27.3187   20.6722 H   0  0  0  0  0  0
  -17.4251  -26.6751   21.3950 H   0  0  0  0  0  0
  -18.0285  -26.0076   22.8916 H   0  0  0  0  0  0
  -19.7954  -30.7296   24.2293 H   0  0  0  0  0  0
  -17.5033  -31.6267   24.5209 H   0  0  0  0  0  0
  -15.5364  -30.2982   23.7693 H   0  0  0  0  0  0
  -15.8708  -28.0824   22.7079 H   0  0  0  0  0  0
  -24.5983  -30.6981   25.7784 H   0  0  0  0  0  0
  -24.8853  -32.2874   26.4778 H   0  0  0  0  0  0
  -25.8057  -30.9004   27.0267 H   0  0  0  0  0  0
  -26.2910  -29.6734   24.1208 H   0  0  0  0  0  0
  -27.3981  -29.7225   25.4731 H   0  0  0  0  0  0
  -27.8821  -30.4198   23.9453 H   0  0  0  0  0  0
  -27.2722  -33.3634   26.2012 H   0  0  0  0  0  0
  -28.3915  -32.6796   25.0298 H   0  0  0  0  0  0
  -28.0736  -31.8447   26.5420 H   0  0  0  0  0  0
  -28.2607  -38.0103   24.7514 H   0  0  0  0  0  0
  -28.1092  -36.2627   24.6286 H   0  0  0  0  0  0
  -27.2299  -37.1429   25.8865 H   0  0  0  0  0  0
  -20.9356  -29.8788   21.6888 H   0  0  0  0  0  0
  -26.0176  -38.2833   24.1405 H   0  0  0  0  0  0
  -30.1908  -18.6056   24.2690 H   0  0  0  0  0  0
  -29.6105  -20.6515   23.1769 H   0  0  0  0  0  0
  -29.2783  -18.5329   19.4148 H   0  0  0  0  0  0
  -29.2691  -23.8203   18.5293 H   0  0  0  0  0  0
  -27.5083  -22.1386   21.7464 H   0  0  0  0  0  0
  -29.1337  -22.5390   22.3314 H   0  0  0  0  0  0
  -29.7128  -15.3352   23.2064 H   0  0  0  0  0  0
  -30.4941  -16.3401   24.4076 H   0  0  0  0  0  0
  -31.4405  -15.7196   23.0610 H   0  0  0  0  0  0
  -27.9587  -26.2612   22.7973 H   0  0  0  0  0  0
  -29.5200  -25.4991   22.5055 H   0  0  0  0  0  0
  -28.1598  -24.5557   23.1104 H   0  0  0  0  0  0
  -26.9298  -24.8862   21.0279 H   0  0  0  0  0  0
  -28.8083  -15.6988   20.2177 H   0  0  0  0  0  0
  1 25  1  0  0  0
  1 30  2  0  0  0
  1 85  1  0  0  0
  2  3  1  0  0  0
  2 25  1  0  0  0
  2 87  1  0  0  0
  2 88  1  0  0  0
  3  4  1  0  0  0
  3 89  1  0  0  0
  3 90  1  0  0  0
  4  5  1  0  0  0
  4 91  1  0  0  0
  4 92  1  0  0  0
  5  6  1  0  0  0
  5 26  1  0  0  0
  5 93  1  0  0  0
  6 25  1  0  0  0
  6 94  1  0  0  0
  6 95  1  0  0  0
  7  8  2  0  0  0
  7 26  1  0  0  0
  7 29  1  0  0  0
  8  9  1  0  0  0
  8 22  1  0  0  0
  9 10  1  0  0  0
  9 27  2  0  0  0
 10 11  2  0  0  0
 10 15  1  0  0  0
 11 12  1  0  0  0
 11 96  1  0  0  0
 12 13  2  0  0  0
 12 97  1  0  0  0
 13 14  1  0  0  0
 13 31  1  0  0  0
 14 15  2  0  0  0
 14 98  1  0  0  0
 15 99  1  0  0  0
 16 17  2  0  0  0
 16 21  1  0  0  0
 16 31  1  0  0  0
 17 18  1  0  0  0
 17100  1  0  0  0
 18 19  2  0  0  0
 18101  1  0  0  0
 19 20  1  0  0  0
 19 24  1  0  0  0
 20 21  2  0  0  0
 20102  1  0  0  0
 21 23  1  0  0  0
 22 28  1  0  0  0
 22 32  2  0  0  0
 26 27  1  0  0  0
 28103  1  0  0  0
 28104  1  0  0  0
 29105  1  0  0  0
 29106  1  0  0  0
 33 34  1  0  0  0
 33 66  1  0  0  0
 33 70  2  0  0  0
 34 36  1  0  0  0
 34 59  1  0  0  0
 34107  1  0  0  0
 35 44  2  0  0  0
 35 45  1  0  0  0
 35 68  1  0  0  0
 36 56  1  0  0  0
 36108  1  0  0  0
 37 39  1  0  0  0
 37 47  1  0  0  0
 37 66  1  0  0  0
 37109  1  0  0  0
 38 43  2  0  0  0
 38 46  1  0  0  0
 38 47  1  0  0  0
 39 64  1  0  0  0
 39 67  2  0  0  0
 40 52  1  0  0  0
 40 53  2  0  0  0
 40 58  1  0  0  0
 41110  1  0  0  0
 41111  1  0  0  0
 41112  1  0  0  0
 41 48  1  0  0  0
 42 43  1  0  0  0
 42 66  1  0  0  0
 42113  1  0  0  0
 42114  1  0  0  0
 43 44  1  0  0  0
 44115  1  0  0  0
 45 46  2  0  0  0
 45116  1  0  0  0
 46117  1  0  0  0
 47118  1  0  0  0
 47119  1  0  0  0
 48 56  1  0  0  0
 48 65  1  0  0  0
 48120  1  0  0  0
 49 50  1  0  0  0
 49 53  1  0  0  0
 49 64  1  0  0  0
 49121  1  0  0  0
 50 51  1  0  0  0
 50122  1  0  0  0
 50123  1  0  0  0
 51 52  1  0  0  0
 51124  1  0  0  0
 51125  1  0  0  0
 52126  1  0  0  0
 52127  1  0  0  0
 53 54  1  0  0  0
 54 55  2  0  0  0
 54128  1  0  0  0
 55 57  1  0  0  0
 55129  1  0  0  0
 56 69  2  0  0  0
 57 58  2  0  0  0
 57130  1  0  0  0
 58131  1  0  0  0
 59 60  1  0  0  0
 59 61  1  0  0  0
 59 62  1  0  0  0
 60132  1  0  0  0
 60133  1  0  0  0
 60134  1  0  0  0
 61135  1  0  0  0
 61136  1  0  0  0
 61137  1  0  0  0
 62138  1  0  0  0
 62139  1  0  0  0
 62140  1  0  0  0
 63 65  1  0  0  0
 63141  1  0  0  0
 63142  1  0  0  0
 63143  1  0  0  0
 64144  1  0  0  0
 65145  1  0  0  0
 68 83  1  0  0  0
 71 72  2  0  0  0
 71 74  1  0  0  0
 71146  1  0  0  0
 72 75  1  0  0  0
 72147  1  0  0  0
 73 75  2  0  0  0
 73 76  1  0  0  0
 73148  1  0  0  0
 74 76  2  0  0  0
 74 81  1  0  0  0
 75 84  1  0  0  0
 76 85  1  0  0  0
 77 78  2  0  0  0
 77 79  1  0  0  0
 77149  1  0  0  0
 78 80  1  0  0  0
 78 83  1  0  0  0
 79 84  1  0  0  0
 79 86  2  0  0  0
 80 84  1  0  0  0
 80150  1  0  0  0
 80151  1  0  0  0
 81152  1  0  0  0
 81153  1  0  0  0
 81154  1  0  0  0
 82155  1  0  0  0
 82156  1  0  0  0
 82157  1  0  0  0
 82 83  1  0  0  0
 83158  1  0  0  0
 85159  1  0  0  0
M  ISO  4   1 100  68 101  83 101  85 100
M  END
> <chiral flag>
0

> <version>
0

> <s_m_source_file>
/data/baiqing/PycharmProjects/Reinvent-master-3.2/result/LINK_invent/BTK/process_docking_weight1_custom_product_contain_oxygen_bond_distance_aromatic_linkinvent_7_9_3/rearranged_h_0064.sdf

> <i_m_source_file_index>
54

> <r_mmod_Potential_Energy-OPLS-2005>
304.776641845703

> <r_mmod_Stretch_Energy-OPLS-2005>
136.084686279297

> <r_mmod_Bend_Energy-OPLS-2005>
221.964218139648

> <r_mmod_Torsional_Energy-OPLS-2005>
304.165435791016

> <r_mmod_Improper_Torsional_Energy-OPLS-2005>
10.3198146820068

> <r_mmod_Van_der_Waal_Energy-OPLS-2005>
132.063049316406

> <r_mmod_Electrostatic_Energy-OPLS-2005>
-391.095489501953

> <r_mmod_Solvation_Energy-OPLS-2005>
-219.096160888672

> <b_mmod_Minimization_Converged-OPLS-2005>
0

> <r_mmod_RMS_Derivative-OPLS-2005>
3.44806504249573

$$$$
54
                    3D
 Structure written by MMmdl.
179188  0  0  1  0            999 V2000
  -30.6657  -14.5649   20.4716 C   0  0  0  0  0  0
  -30.4139  -12.3407   19.4493 C   0  0  0  0  0  0
  -29.4920  -12.4790   18.2186 C   0  0  0  0  0  0
  -28.0165  -12.3359   18.6337 C   0  0  0  0  0  0
  -27.6472  -13.2153   19.8583 C   0  0  2  0  0  0
  -28.6895  -13.0777   20.9923 C   0  0  0  0  0  0
  -25.2525  -13.8188   20.5666 C   0  0  0  0  0  0
  -24.1806  -13.0431   20.9190 C   0  0  0  0  0  0
  -24.6378  -11.6911   20.8735 C   0  0  0  0  0  0
  -23.9056  -10.4284   21.0393 C   0  0  0  0  0  0
  -24.3611   -9.4211   21.9181 C   0  0  0  0  0  0
  -23.6293   -8.2245   22.0759 C   0  0  0  0  0  0
  -22.4276   -8.0275   21.3545 C   0  0  0  0  0  0
  -21.9912   -9.0236   20.4637 C   0  0  0  0  0  0
  -22.7232  -10.2124   20.3043 C   0  0  0  0  0  0
  -21.6863   -6.0727   22.5278 C   0  0  0  0  0  0
  -21.4007   -6.5622   23.8207 C   0  0  0  0  0  0
  -21.3653   -5.6782   24.9175 C   0  0  0  0  0  0
  -21.6051   -4.3049   24.7232 C   0  0  0  0  0  0
  -21.8822   -3.8131   23.4351 C   0  0  0  0  0  0
  -21.9190   -4.6948   22.3403 C   0  0  0  0  0  0
  -22.7832  -13.5212   21.1863 C   0  0  0  0  0  0
  -22.1661   -4.2131   21.0986 F   0  0  0  0  0  0
  -21.5627   -3.4535   25.7742 F   0  0  0  0  0  0
  -30.0111  -13.3703   20.4246 N   0  0  0  0  0  0
  -26.2942  -12.9366   20.3297 N   0  0  0  0  0  0
  -25.9302  -11.6524   20.5769 N   0  0  0  0  0  0
  -22.0495  -12.8164   22.0409 N   0  0  0  0  0  0
  -25.4228  -15.1910   20.4068 N   0  0  0  0  0  0
  -31.8526  -14.6629   20.1483 O   0  0  0  0  0  0
  -21.6643   -6.8873   21.4244 O   0  0  0  0  0  0
  -22.3507  -14.5518   20.6732 O   0  0  0  0  0  0
  -24.6215  -31.8621   23.2073 C   0  0  0  0  0  0
  -25.9107  -32.4770   23.8377 C   0  0  1  0  0  0
  -27.2198  -27.4003   20.0998 C   0  0  0  0  0  0
  -25.5940  -33.8572   24.2295 N   0  0  0  0  0  0
  -23.4106  -30.4894   21.5474 C   0  0  2  0  0  0
  -24.8547  -28.9560   20.1067 C   0  0  0  0  0  0
  -22.7454  -29.4649   22.4951 C   0  0  0  0  0  0
  -18.0288  -28.1409   22.8473 C   0  0  0  0  0  0
  -24.1481  -36.7308   23.2638 C   0  0  0  0  0  0
  -25.9419  -30.8204   21.3673 C   0  0  0  0  0  0
  -26.0191  -29.4556   20.7072 C   0  0  0  0  0  0
  -27.2108  -28.6873   20.6957 C   0  0  0  0  0  0
  -26.0448  -26.9273   19.4828 C   0  0  0  0  0  0
  -24.8655  -27.6956   19.4852 C   0  0  0  0  0  0
  -23.6200  -29.8290   20.1599 C   0  0  0  0  0  0
  -25.4111  -36.3073   24.0298 C   0  0  1  0  0  0
  -20.5883  -28.3714   23.1292 C   0  0  2  0  0  0
  -20.6801  -26.9448   22.5427 C   0  0  0  0  0  0
  -19.5779  -26.6403   21.5230 C   0  0  0  0  0  0
  -18.1937  -26.7949   22.1607 C   0  0  0  0  0  0
  -19.1541  -28.8879   23.2865 C   0  0  0  0  0  0
  -18.9461  -30.1465   23.8908 C   0  0  0  0  0  0
  -17.6468  -30.6602   24.0594 C   0  0  0  0  0  0
  -25.9056  -34.9434   23.5098 C   0  0  0  0  0  0
  -16.5359  -29.9118   23.6322 C   0  0  0  0  0  0
  -16.7278  -28.6539   23.0334 C   0  0  0  0  0  0
  -26.4544  -31.6573   25.0715 C   0  0  0  0  0  0
  -25.3819  -31.3629   26.1454 C   0  0  0  0  0  0
  -27.0447  -30.3028   24.6138 C   0  0  0  0  0  0
  -27.6093  -32.4344   25.7513 C   0  0  0  0  0  0
  -27.5574  -37.1775   24.8426 C   0  0  0  0  0  0
  -21.4181  -29.3043   22.3675 N   0  0  0  0  0  0
  -26.4273  -37.3771   23.9393 N   0  0  0  0  0  0
  -24.6751  -31.0723   22.0975 N   0  0  0  0  0  0
  -23.4201  -28.8198   23.3019 O   0  0  0  0  0  0
  -28.3382  -26.5900   20.1240 O   0  0  0  0  0  0
  -26.5618  -34.8901   22.4657 O   0  0  0  0  0  0
  -23.5404  -32.1386   23.7469 O   0  0  0  0  0  0
  -29.6197  -18.1989   20.5516 C   0  0  0  0  0  0
  -30.6591  -17.0126   18.7116 C   0  0  0  0  0  0
  -30.4031  -19.4487   18.5762 C   0  0  0  0  0  0
  -30.0710  -16.9641   19.9953 C   0  0  0  0  0  0
  -29.7711  -19.4440   19.8586 C   0  0  0  0  0  0
  -30.8496  -18.2263   18.0098 C   0  0  0  0  0  0
  -29.3373  -22.5205   16.6985 C   0  0  0  0  0  0
  -28.7134  -22.9275   20.7486 C   0  0  0  0  0  0
  -28.1224  -24.0689   20.2981 C   0  0  0  0  0  0
  -28.5502  -21.6299   20.0839 C   0  0  0  0  0  0
  -27.8386  -20.5427   15.1384 C   0  0  0  0  0  0
  -28.0587  -21.9395   14.5641 C   0  0  0  0  0  0
  -29.0239  -20.1252   16.0168 C   0  0  0  0  0  0
  -28.2687  -22.9935   15.6730 C   0  0  0  0  0  0
  -28.7242  -24.3185   15.0099 C   0  0  0  0  0  0
  -26.9441  -23.2699   16.4207 C   0  0  0  0  0  0
  -31.8269  -17.0574   16.1388 C   0  0  0  0  0  0
  -30.6659  -20.7488   17.7897 C   0  0  0  0  0  0
  -28.2197  -25.4350   20.9913 C   0  0  0  0  0  0
  -29.5973  -21.1927   16.8619 N   0  0  0  0  0  0
  -29.4175  -20.6821   20.5132 N   0  0  0  0  0  0
  -29.9066  -15.6817   20.6641 N   0  0  0  0  0  0
  -29.9318  -23.3857   17.3492 O   0  0  0  0  0  0
  -27.6826  -21.3836   19.2438 O   0  0  0  0  0  0
  -31.4676  -18.2777   16.7752 O   0  0  0  0  0  0
  -31.4575  -12.4344   19.1471 H   0  0  0  0  0  0
  -30.3185  -11.3488   19.8912 H   0  0  0  0  0  0
  -29.7424  -11.7212   17.4752 H   0  0  0  0  0  0
  -29.6477  -13.4453   17.7358 H   0  0  0  0  0  0
  -27.8480  -11.2852   18.8720 H   0  0  0  0  0  0
  -27.3600  -12.5614   17.7923 H   0  0  0  0  0  0
  -27.6662  -14.2482   19.5113 H   0  0  0  0  0  0
  -28.6771  -12.0686   21.4067 H   0  0  0  0  0  0
  -28.4533  -13.7481   21.8190 H   0  0  0  0  0  0
  -25.2762   -9.5695   22.4756 H   0  0  0  0  0  0
  -23.9995   -7.4651   22.7499 H   0  0  0  0  0  0
  -21.0844   -8.8754   19.8943 H   0  0  0  0  0  0
  -22.3691  -10.9659   19.6139 H   0  0  0  0  0  0
  -21.1996   -7.6130   23.9707 H   0  0  0  0  0  0
  -21.1466   -6.0513   25.9084 H   0  0  0  0  0  0
  -22.0600   -2.7587   23.2864 H   0  0  0  0  0  0
  -22.4141  -11.9800   22.4730 H   0  0  0  0  0  0
  -21.1105  -13.1142   22.2646 H   0  0  0  0  0  0
  -24.6519  -15.8426   20.5080 H   0  0  0  0  0  0
  -26.2694  -15.6303   20.0668 H   0  0  0  0  0  0
  -26.7168  -32.5461   23.1131 H   0  0  0  0  0  0
  -25.0041  -33.9706   25.0410 H   0  0  0  0  0  0
  -22.7017  -31.3079   21.4110 H   0  0  0  0  0  0
  -23.3739  -35.9632   23.3208 H   0  0  0  0  0  0
  -24.3576  -36.9054   22.2077 H   0  0  0  0  0  0
  -23.7212  -37.6452   23.6760 H   0  0  0  0  0  0
  -26.0655  -31.5934   20.6070 H   0  0  0  0  0  0
  -26.8233  -30.8636   21.9937 H   0  0  0  0  0  0
  -28.1087  -29.0591   21.1691 H   0  0  0  0  0  0
  -26.0371  -25.9580   19.0019 H   0  0  0  0  0  0
  -23.9722  -27.3140   19.0079 H   0  0  0  0  0  0
  -23.7334  -30.6098   19.4059 H   0  0  0  0  0  0
  -22.7397  -29.2577   19.8601 H   0  0  0  0  0  0
  -25.1283  -36.1907   25.0780 H   0  0  0  0  0  0
  -20.9949  -28.3328   24.1428 H   0  0  0  0  0  0
  -20.5781  -26.2328   23.3617 H   0  0  0  0  0  0
  -21.6663  -26.7540   22.1186 H   0  0  0  0  0  0
  -19.6972  -25.6325   21.1247 H   0  0  0  0  0  0
  -19.6737  -27.3226   20.6775 H   0  0  0  0  0  0
  -17.4231  -26.6698   21.3991 H   0  0  0  0  0  0
  -18.0320  -26.0104   22.9019 H   0  0  0  0  0  0
  -19.7940  -30.7247   24.2324 H   0  0  0  0  0  0
  -17.5033  -31.6268   24.5222 H   0  0  0  0  0  0
  -15.5368  -30.3038   23.7638 H   0  0  0  0  0  0
  -15.8667  -28.0870   22.7052 H   0  0  0  0  0  0
  -24.5998  -30.6986   25.7750 H   0  0  0  0  0  0
  -24.9016  -32.2759   26.4987 H   0  0  0  0  0  0
  -25.8189  -30.8721   27.0163 H   0  0  0  0  0  0
  -26.3002  -29.6657   24.1329 H   0  0  0  0  0  0
  -27.4365  -29.7391   25.4614 H   0  0  0  0  0  0
  -27.8767  -30.4331   23.9203 H   0  0  0  0  0  0
  -27.2686  -33.3672   26.2032 H   0  0  0  0  0  0
  -28.3957  -32.6861   25.0385 H   0  0  0  0  0  0
  -28.0692  -31.8498   26.5485 H   0  0  0  0  0  0
  -28.2491  -38.0174   24.7614 H   0  0  0  0  0  0
  -28.1174  -36.2701   24.6100 H   0  0  0  0  0  0
  -27.2284  -37.1238   25.8820 H   0  0  0  0  0  0
  -20.9384  -29.8740   21.6846 H   0  0  0  0  0  0
  -26.0133  -38.2805   24.1514 H   0  0  0  0  0  0
  -29.1659  -18.1959   21.5336 H   0  0  0  0  0  0
  -30.9759  -16.0858   18.2631 H   0  0  0  0  0  0
  -29.3183  -22.9881   21.6420 H   0  0  0  0  0  0
  -27.5135  -24.0396   19.4058 H   0  0  0  0  0  0
  -27.7144  -19.8165   14.3334 H   0  0  0  0  0  0
  -26.9108  -20.5080   15.7119 H   0  0  0  0  0  0
  -27.2121  -22.2127   13.9343 H   0  0  0  0  0  0
  -28.9290  -21.9143   13.9065 H   0  0  0  0  0  0
  -29.8273  -19.7616   15.3756 H   0  0  0  0  0  0
  -28.7029  -19.2783   16.6235 H   0  0  0  0  0  0
  -29.7257  -24.2309   14.5853 H   0  0  0  0  0  0
  -28.7524  -25.1441   15.7234 H   0  0  0  0  0  0
  -28.0525  -24.6209   14.2055 H   0  0  0  0  0  0
  -26.5953  -22.3970   16.9729 H   0  0  0  0  0  0
  -26.1501  -23.5593   15.7326 H   0  0  0  0  0  0
  -27.0544  -24.0769   17.1446 H   0  0  0  0  0  0
  -32.2253  -17.2654   15.1470 H   0  0  0  0  0  0
  -30.9605  -16.4079   16.0129 H   0  0  0  0  0  0
  -32.5984  -16.5259   16.6977 H   0  0  0  0  0  0
  -31.5702  -20.6450   17.1894 H   0  0  0  0  0  0
  -30.9375  -21.5220   18.5084 H   0  0  0  0  0  0
  -29.0911  -25.4249   21.6454 H   0  0  0  0  0  0
  -27.3587  -25.5262   21.6590 H   0  0  0  0  0  0
  -29.9532  -20.9155   21.3386 H   0  0  0  0  0  0
  -29.0242  -15.5348   21.1328 H   0  0  0  0  0  0
  1 25  1  0  0  0
  1 30  2  0  0  0
  1 92  1  0  0  0
  2  3  1  0  0  0
  2 25  1  0  0  0
  2 96  1  0  0  0
  2 97  1  0  0  0
  3  4  1  0  0  0
  3 98  1  0  0  0
  3 99  1  0  0  0
  4  5  1  0  0  0
  4100  1  0  0  0
  4101  1  0  0  0
  5  6  1  0  0  0
  5 26  1  0  0  0
  5102  1  0  0  0
  6 25  1  0  0  0
  6103  1  0  0  0
  6104  1  0  0  0
  7  8  2  0  0  0
  7 26  1  0  0  0
  7 29  1  0  0  0
  8  9  1  0  0  0
  8 22  1  0  0  0
  9 10  1  0  0  0
  9 27  2  0  0  0
 10 11  2  0  0  0
 10 15  1  0  0  0
 11 12  1  0  0  0
 11105  1  0  0  0
 12 13  2  0  0  0
 12106  1  0  0  0
 13 14  1  0  0  0
 13 31  1  0  0  0
 14 15  2  0  0  0
 14107  1  0  0  0
 15108  1  0  0  0
 16 17  2  0  0  0
 16 21  1  0  0  0
 16 31  1  0  0  0
 17 18  1  0  0  0
 17109  1  0  0  0
 18 19  2  0  0  0
 18110  1  0  0  0
 19 20  1  0  0  0
 19 24  1  0  0  0
 20 21  2  0  0  0
 20111  1  0  0  0
 21 23  1  0  0  0
 22 28  1  0  0  0
 22 32  2  0  0  0
 26 27  1  0  0  0
 28112  1  0  0  0
 28113  1  0  0  0
 29114  1  0  0  0
 29115  1  0  0  0
 33 34  1  0  0  0
 33 66  1  0  0  0
 33 70  2  0  0  0
 34 36  1  0  0  0
 34 59  1  0  0  0
 34116  1  0  0  0
 35 44  2  0  0  0
 35 45  1  0  0  0
 35 68  1  0  0  0
 36 56  1  0  0  0
 36117  1  0  0  0
 37 39  1  0  0  0
 37 47  1  0  0  0
 37 66  1  0  0  0
 37118  1  0  0  0
 38 43  2  0  0  0
 38 46  1  0  0  0
 38 47  1  0  0  0
 39 64  1  0  0  0
 39 67  2  0  0  0
 40 52  1  0  0  0
 40 53  2  0  0  0
 40 58  1  0  0  0
 41119  1  0  0  0
 41120  1  0  0  0
 41121  1  0  0  0
 41 48  1  0  0  0
 42 43  1  0  0  0
 42 66  1  0  0  0
 42122  1  0  0  0
 42123  1  0  0  0
 43 44  1  0  0  0
 44124  1  0  0  0
 45 46  2  0  0  0
 45125  1  0  0  0
 46126  1  0  0  0
 47127  1  0  0  0
 47128  1  0  0  0
 48 56  1  0  0  0
 48 65  1  0  0  0
 48129  1  0  0  0
 49 50  1  0  0  0
 49 53  1  0  0  0
 49 64  1  0  0  0
 49130  1  0  0  0
 50 51  1  0  0  0
 50131  1  0  0  0
 50132  1  0  0  0
 51 52  1  0  0  0
 51133  1  0  0  0
 51134  1  0  0  0
 52135  1  0  0  0
 52136  1  0  0  0
 53 54  1  0  0  0
 54 55  2  0  0  0
 54137  1  0  0  0
 55 57  1  0  0  0
 55138  1  0  0  0
 56 69  2  0  0  0
 57 58  2  0  0  0
 57139  1  0  0  0
 58140  1  0  0  0
 59 60  1  0  0  0
 59 61  1  0  0  0
 59 62  1  0  0  0
 60141  1  0  0  0
 60142  1  0  0  0
 60143  1  0  0  0
 61144  1  0  0  0
 61145  1  0  0  0
 61146  1  0  0  0
 62147  1  0  0  0
 62148  1  0  0  0
 62149  1  0  0  0
 63 65  1  0  0  0
 63150  1  0  0  0
 63151  1  0  0  0
 63152  1  0  0  0
 64153  1  0  0  0
 65154  1  0  0  0
 68 89  1  0  0  0
 71 74  2  0  0  0
 71 75  1  0  0  0
 71155  1  0  0  0
 72 74  1  0  0  0
 72 76  2  0  0  0
 72156  1  0  0  0
 73 75  2  0  0  0
 73 76  1  0  0  0
 73 88  1  0  0  0
 74 92  1  0  0  0
 75 91  1  0  0  0
 76 95  1  0  0  0
 77 84  1  0  0  0
 77 90  1  0  0  0
 77 93  2  0  0  0
 78 79  2  0  0  0
 78 80  1  0  0  0
 78157  1  0  0  0
 79 89  1  0  0  0
 79158  1  0  0  0
 80 91  1  0  0  0
 80 94  2  0  0  0
 81 82  1  0  0  0
 81 83  1  0  0  0
 81159  1  0  0  0
 81160  1  0  0  0
 82 84  1  0  0  0
 82161  1  0  0  0
 82162  1  0  0  0
 83 90  1  0  0  0
 83163  1  0  0  0
 83164  1  0  0  0
 84 85  1  0  0  0
 84 86  1  0  0  0
 85165  1  0  0  0
 85166  1  0  0  0
 85167  1  0  0  0
 86168  1  0  0  0
 86169  1  0  0  0
 86170  1  0  0  0
 87 95  1  0  0  0
 87171  1  0  0  0
 87172  1  0  0  0
 87173  1  0  0  0
 88 90  1  0  0  0
 88174  1  0  0  0
 88175  1  0  0  0
 89176  1  0  0  0
 89177  1  0  0  0
 91178  1  0  0  0
 92179  1  0  0  0
M  ISO  4   1 100  68 101  89 101  92 100
M  END
> <chiral flag>
0

> <version>
0

> <s_m_source_file>
/data/baiqing/PycharmProjects/Reinvent-master-3.2/result/LINK_invent/BTK/process_docking_weight1_custom_product_contain_oxygen_bond_distance_aromatic_linkinvent_7_9_3/rearranged_h_0064.sdf

> <i_m_source_file_index>
55

> <r_mmod_Potential_Energy-OPLS-2005>
61.9044342041016

> <r_mmod_Stretch_Energy-OPLS-2005>
60.0070152282715

> <r_mmod_Bend_Energy-OPLS-2005>
120.865600585938

> <r_mmod_Torsional_Energy-OPLS-2005>
331.199493408203

> <r_mmod_Improper_Torsional_Energy-OPLS-2005>
7.08952713012695

> <r_mmod_Van_der_Waal_Energy-OPLS-2005>
165.260116577148

> <r_mmod_Electrostatic_Energy-OPLS-2005>
-407.626983642578

> <r_mmod_Solvation_Energy-OPLS-2005>
-244.516891479492

> <b_mmod_Minimization_Converged-OPLS-2005>
0

> <r_mmod_RMS_Derivative-OPLS-2005>
3.50039744377136

$$$$
55
                    3D
 Structure written by MMmdl.
153161  0  0  1  0            999 V2000
  -30.7073  -14.6112   20.5243 C   0  0  0  0  0  0
  -30.4152  -12.3621   19.4818 C   0  0  0  0  0  0
  -29.5148  -12.5063   18.2399 C   0  0  0  0  0  0
  -28.0371  -12.3512   18.6448 C   0  0  0  0  0  0
  -27.6543  -13.2337   19.8627 C   0  0  2  0  0  0
  -28.6944  -13.1241   20.9998 C   0  0  0  0  0  0
  -25.2579  -13.8199   20.5711 C   0  0  0  0  0  0
  -24.1838  -13.0438   20.9174 C   0  0  0  0  0  0
  -24.6407  -11.6921   20.8710 C   0  0  0  0  0  0
  -23.9062  -10.4310   21.0388 C   0  0  0  0  0  0
  -24.3609   -9.4229   21.9160 C   0  0  0  0  0  0
  -23.6299   -8.2254   22.0721 C   0  0  0  0  0  0
  -22.4276   -8.0273   21.3543 C   0  0  0  0  0  0
  -21.9922   -9.0240   20.4638 C   0  0  0  0  0  0
  -22.7228  -10.2132   20.3048 C   0  0  0  0  0  0
  -21.6869   -6.0736   22.5285 C   0  0  0  0  0  0
  -21.4002   -6.5651   23.8209 C   0  0  0  0  0  0
  -21.3663   -5.6792   24.9172 C   0  0  0  0  0  0
  -21.6064   -4.3053   24.7221 C   0  0  0  0  0  0
  -21.8803   -3.8144   23.4331 C   0  0  0  0  0  0
  -21.9199   -4.6968   22.3393 C   0  0  0  0  0  0
  -22.7868  -13.5220   21.1894 C   0  0  0  0  0  0
  -22.1673   -4.2156   21.0978 F   0  0  0  0  0  0
  -21.5656   -3.4538   25.7728 F   0  0  0  0  0  0
  -30.0200  -13.4242   20.4395 N   0  0  0  0  0  0
  -26.3017  -12.9421   20.3324 N   0  0  0  0  0  0
  -25.9350  -11.6550   20.5732 N   0  0  0  0  0  0
  -22.0534  -12.8145   22.0427 N   0  0  0  0  0  0
  -25.4302  -15.1921   20.4232 N   0  0  0  0  0  0
  -31.8642  -14.5702   20.1153 O   0  0  0  0  0  0
  -21.6651   -6.8864   21.4242 O   0  0  0  0  0  0
  -22.3552  -14.5552   20.6804 O   0  0  0  0  0  0
  -24.6245  -31.8632   23.2052 C   0  0  0  0  0  0
  -25.9102  -32.4796   23.8368 C   0  0  1  0  0  0
  -27.2189  -27.3374   20.1034 C   0  0  0  0  0  0
  -25.5925  -33.8590   24.2298 N   0  0  0  0  0  0
  -23.4143  -30.4884   21.5494 C   0  0  2  0  0  0
  -24.8562  -28.9483   20.1105 C   0  0  0  0  0  0
  -22.7451  -29.4642   22.4978 C   0  0  0  0  0  0
  -18.0277  -28.1398   22.8489 C   0  0  0  0  0  0
  -24.1477  -36.7299   23.2624 C   0  0  0  0  0  0
  -25.9529  -30.8022   21.3700 C   0  0  0  0  0  0
  -26.0247  -29.4312   20.7097 C   0  0  0  0  0  0
  -27.2051  -28.6361   20.6964 C   0  0  0  0  0  0
  -26.0160  -26.8934   19.5031 C   0  0  0  0  0  0
  -24.8539  -27.6846   19.5003 C   0  0  0  0  0  0
  -23.6251  -29.8249   20.1647 C   0  0  0  0  0  0
  -25.4108  -36.3102   24.0328 C   0  0  1  0  0  0
  -20.5872  -28.3680   23.1307 C   0  0  2  0  0  0
  -20.6755  -26.9405   22.5424 C   0  0  0  0  0  0
  -19.5736  -26.6396   21.5219 C   0  0  0  0  0  0
  -18.1915  -26.7933   22.1624 C   0  0  0  0  0  0
  -19.1531  -28.8860   23.2891 C   0  0  0  0  0  0
  -18.9440  -30.1460   23.8903 C   0  0  0  0  0  0
  -17.6443  -30.6585   24.0573 C   0  0  0  0  0  0
  -25.9039  -34.9469   23.5116 C   0  0  0  0  0  0
  -16.5342  -29.9085   23.6340 C   0  0  0  0  0  0
  -16.7263  -28.6516   23.0343 C   0  0  0  0  0  0
  -26.4490  -31.6577   25.0711 C   0  0  0  0  0  0
  -25.3720  -31.3751   26.1444 C   0  0  0  0  0  0
  -27.0288  -30.2978   24.6141 C   0  0  0  0  0  0
  -27.6064  -32.4283   25.7490 C   0  0  0  0  0  0
  -27.5592  -37.1807   24.8460 C   0  0  0  0  0  0
  -21.4168  -29.3048   22.3713 N   0  0  0  0  0  0
  -26.4301  -37.3791   23.9409 N   0  0  0  0  0  0
  -24.6831  -31.0657   22.0998 N   0  0  0  0  0  0
  -23.4196  -28.8193   23.3054 O   0  0  0  0  0  0
  -28.3715  -26.5433   20.1635 O   0  0  0  0  0  0
  -26.5605  -34.8940   22.4672 O   0  0  0  0  0  0
  -23.5416  -32.1430   23.7391 O   0  0  0  0  0  0
  -29.8918  -21.1440   21.4072 C   0  0  0  0  0  0
  -30.3681  -19.8244   21.6457 C   0  0  0  0  0  0
  -28.4663  -20.2650   19.6833 C   0  0  0  0  0  0
  -28.9310  -18.9310   19.9169 C   0  0  0  0  0  0
  -28.9537  -21.4050   20.3820 C   0  0  0  0  0  0
  -29.9433  -18.6881   20.8989 C   0  0  0  0  0  0
  -28.7587  -23.9948   20.4554 C   0  0  0  0  0  0
  -28.3346  -17.8420   19.0370 C   0  0  0  0  0  0
  -28.4677  -25.2248   19.5131 C   0  0  0  0  0  0
  -30.1224  -15.7759   20.9743 N   0  5  0  0  0  0
  -28.5497  -22.7412   19.9462 N   0  0  0  0  0  0
  -29.1582  -24.1898   21.6069 O   0  0  0  0  0  0
  -32.0102  -17.3464   20.0523 O   0  0  0  0  0  0
  -31.5463  -17.2654   22.4985 O   0  0  0  0  0  0
  -31.0155  -17.1568   21.1274 S   0  0  0  0  0  0
  -31.4661  -12.3982   19.1890 H   0  0  0  0  0  0
  -30.2820  -11.3776   19.9370 H   0  0  0  0  0  0
  -29.7841  -11.7617   17.4895 H   0  0  0  0  0  0
  -29.6807  -13.4807   17.7772 H   0  0  0  0  0  0
  -27.8872  -11.3009   18.8941 H   0  0  0  0  0  0
  -27.3817  -12.5633   17.8000 H   0  0  0  0  0  0
  -27.6690  -14.2682   19.5162 H   0  0  0  0  0  0
  -28.6925  -12.1248   21.4388 H   0  0  0  0  0  0
  -28.4529  -13.8136   21.8094 H   0  0  0  0  0  0
  -25.2770   -9.5728   22.4708 H   0  0  0  0  0  0
  -24.0058   -7.4641   22.7408 H   0  0  0  0  0  0
  -21.0870   -8.8720   19.8924 H   0  0  0  0  0  0
  -22.3673  -10.9643   19.6148 H   0  0  0  0  0  0
  -21.1950   -7.6151   23.9713 H   0  0  0  0  0  0
  -21.1534   -6.0530   25.9083 H   0  0  0  0  0  0
  -22.0574   -2.7603   23.2828 H   0  0  0  0  0  0
  -22.4195  -11.9835   22.4840 H   0  0  0  0  0  0
  -21.1126  -13.1109   22.2640 H   0  0  0  0  0  0
  -24.6760  -15.8513   20.5718 H   0  0  0  0  0  0
  -26.3141  -15.6327   20.2023 H   0  0  0  0  0  0
  -26.7169  -32.5474   23.1126 H   0  0  0  0  0  0
  -25.0075  -33.9707   25.0447 H   0  0  0  0  0  0
  -22.7069  -31.3072   21.4120 H   0  0  0  0  0  0
  -23.3752  -35.9613   23.3292 H   0  0  0  0  0  0
  -24.3573  -36.8896   22.2034 H   0  0  0  0  0  0
  -23.7217  -37.6499   23.6633 H   0  0  0  0  0  0
  -26.0703  -31.5681   20.6016 H   0  0  0  0  0  0
  -26.8406  -30.8555   21.9907 H   0  0  0  0  0  0
  -28.1062  -29.0048   21.1684 H   0  0  0  0  0  0
  -25.9140  -25.9211   19.0504 H   0  0  0  0  0  0
  -23.9499  -27.3065   19.0425 H   0  0  0  0  0  0
  -23.7321  -30.6018   19.4092 H   0  0  0  0  0  0
  -22.7460  -29.2494   19.8685 H   0  0  0  0  0  0
  -25.1276  -36.1978   25.0821 H   0  0  0  0  0  0
  -20.9934  -28.3253   24.1438 H   0  0  0  0  0  0
  -20.5651  -26.2274   23.3613 H   0  0  0  0  0  0
  -21.6618  -26.7431   22.1220 H   0  0  0  0  0  0
  -19.6883  -25.6312   21.1222 H   0  0  0  0  0  0
  -19.6686  -27.3224   20.6769 H   0  0  0  0  0  0
  -17.4179  -26.6692   21.4034 H   0  0  0  0  0  0
  -18.0321  -26.0081   22.9024 H   0  0  0  0  0  0
  -19.7915  -30.7293   24.2252 H   0  0  0  0  0  0
  -17.4992  -31.6249   24.5188 H   0  0  0  0  0  0
  -15.5337  -30.2988   23.7655 H   0  0  0  0  0  0
  -15.8660  -28.0843   22.7033 H   0  0  0  0  0  0
  -24.5954  -30.6996   25.7846 H   0  0  0  0  0  0
  -24.8834  -32.2913   26.4764 H   0  0  0  0  0  0
  -25.8061  -30.9074   27.0283 H   0  0  0  0  0  0
  -26.2846  -29.6799   24.1097 H   0  0  0  0  0  0
  -27.3890  -29.7185   25.4659 H   0  0  0  0  0  0
  -27.8767  -30.4245   23.9403 H   0  0  0  0  0  0
  -27.2693  -33.3611   26.2039 H   0  0  0  0  0  0
  -28.3907  -32.6782   25.0327 H   0  0  0  0  0  0
  -28.0678  -31.8392   26.5433 H   0  0  0  0  0  0
  -28.2616  -38.0100   24.7507 H   0  0  0  0  0  0
  -28.1083  -36.2636   24.6285 H   0  0  0  0  0  0
  -27.2294  -37.1430   25.8855 H   0  0  0  0  0  0
  -20.9343  -29.8783   21.6933 H   0  0  0  0  0  0
  -26.0198  -38.2863   24.1426 H   0  0  0  0  0  0
  -30.3118  -21.9546   21.9850 H   0  0  0  0  0  0
  -31.1512  -19.6912   22.3788 H   0  0  0  0  0  0
  -27.7419  -20.4166   18.8953 H   0  0  0  0  0  0
  -27.2682  -17.7450   19.2479 H   0  0  0  0  0  0
  -28.7820  -16.8628   19.1636 H   0  0  0  0  0  0
  -28.4408  -18.1074   17.9864 H   0  0  0  0  0  0
  -27.6651  -24.9775   18.8274 H   0  0  0  0  0  0
  -29.3383  -25.3008   18.8620 H   0  0  0  0  0  0
  -28.0976  -22.7609   19.0411 H   0  0  0  0  0  0
  1 25  1  0  0  0
  1 30  2  0  0  0
  1 80  1  0  0  0
  2  3  1  0  0  0
  2 25  1  0  0  0
  2 86  1  0  0  0
  2 87  1  0  0  0
  3  4  1  0  0  0
  3 88  1  0  0  0
  3 89  1  0  0  0
  4  5  1  0  0  0
  4 90  1  0  0  0
  4 91  1  0  0  0
  5  6  1  0  0  0
  5 26  1  0  0  0
  5 92  1  0  0  0
  6 25  1  0  0  0
  6 93  1  0  0  0
  6 94  1  0  0  0
  7  8  2  0  0  0
  7 26  1  0  0  0
  7 29  1  0  0  0
  8  9  1  0  0  0
  8 22  1  0  0  0
  9 10  1  0  0  0
  9 27  2  0  0  0
 10 11  2  0  0  0
 10 15  1  0  0  0
 11 12  1  0  0  0
 11 95  1  0  0  0
 12 13  2  0  0  0
 12 96  1  0  0  0
 13 14  1  0  0  0
 13 31  1  0  0  0
 14 15  2  0  0  0
 14 97  1  0  0  0
 15 98  1  0  0  0
 16 17  2  0  0  0
 16 21  1  0  0  0
 16 31  1  0  0  0
 17 18  1  0  0  0
 17 99  1  0  0  0
 18 19  2  0  0  0
 18100  1  0  0  0
 19 20  1  0  0  0
 19 24  1  0  0  0
 20 21  2  0  0  0
 20101  1  0  0  0
 21 23  1  0  0  0
 22 28  1  0  0  0
 22 32  2  0  0  0
 26 27  1  0  0  0
 28102  1  0  0  0
 28103  1  0  0  0
 29104  1  0  0  0
 29105  1  0  0  0
 33 34  1  0  0  0
 33 66  1  0  0  0
 33 70  2  0  0  0
 34 36  1  0  0  0
 34 59  1  0  0  0
 34106  1  0  0  0
 35 44  2  0  0  0
 35 45  1  0  0  0
 35 68  1  0  0  0
 36 56  1  0  0  0
 36107  1  0  0  0
 37 39  1  0  0  0
 37 47  1  0  0  0
 37 66  1  0  0  0
 37108  1  0  0  0
 38 43  2  0  0  0
 38 46  1  0  0  0
 38 47  1  0  0  0
 39 64  1  0  0  0
 39 67  2  0  0  0
 40 52  1  0  0  0
 40 53  2  0  0  0
 40 58  1  0  0  0
 41109  1  0  0  0
 41110  1  0  0  0
 41111  1  0  0  0
 41 48  1  0  0  0
 42 43  1  0  0  0
 42 66  1  0  0  0
 42112  1  0  0  0
 42113  1  0  0  0
 43 44  1  0  0  0
 44114  1  0  0  0
 45 46  2  0  0  0
 45115  1  0  0  0
 46116  1  0  0  0
 47117  1  0  0  0
 47118  1  0  0  0
 48 56  1  0  0  0
 48 65  1  0  0  0
 48119  1  0  0  0
 49 50  1  0  0  0
 49 53  1  0  0  0
 49 64  1  0  0  0
 49120  1  0  0  0
 50 51  1  0  0  0
 50121  1  0  0  0
 50122  1  0  0  0
 51 52  1  0  0  0
 51123  1  0  0  0
 51124  1  0  0  0
 52125  1  0  0  0
 52126  1  0  0  0
 53 54  1  0  0  0
 54 55  2  0  0  0
 54127  1  0  0  0
 55 57  1  0  0  0
 55128  1  0  0  0
 56 69  2  0  0  0
 57 58  2  0  0  0
 57129  1  0  0  0
 58130  1  0  0  0
 59 60  1  0  0  0
 59 61  1  0  0  0
 59 62  1  0  0  0
 60131  1  0  0  0
 60132  1  0  0  0
 60133  1  0  0  0
 61134  1  0  0  0
 61135  1  0  0  0
 61136  1  0  0  0
 62137  1  0  0  0
 62138  1  0  0  0
 62139  1  0  0  0
 63 65  1  0  0  0
 63140  1  0  0  0
 63141  1  0  0  0
 63142  1  0  0  0
 64143  1  0  0  0
 65144  1  0  0  0
 68 79  1  0  0  0
 71 72  2  0  0  0
 71 75  1  0  0  0
 71145  1  0  0  0
 72 76  1  0  0  0
 72146  1  0  0  0
 73 74  1  0  0  0
 73 75  2  0  0  0
 73147  1  0  0  0
 74 76  2  0  0  0
 74 78  1  0  0  0
 75 81  1  0  0  0
 76 85  1  0  0  0
 77 79  1  0  0  0
 77 81  1  0  0  0
 77 82  2  0  0  0
 78148  1  0  0  0
 78149  1  0  0  0
 78150  1  0  0  0
 79151  1  0  0  0
 79152  1  0  0  0
 80 85  1  0  0  0
 81153  1  0  0  0
 83 85  2  0  0  0
 84 85  2  0  0  0
M  CHG  1  80  -1
M  ISO  4   1 100  68 101  79 101  80 100
M  END
> <chiral flag>
0

> <version>
0

> <s_m_source_file>
/data/baiqing/PycharmProjects/Reinvent-master-3.2/result/LINK_invent/BTK/process_docking_weight1_custom_product_contain_oxygen_bond_distance_aromatic_linkinvent_7_9_3/rearranged_h_0064.sdf

> <i_m_source_file_index>
56

> <r_mmod_Potential_Energy-OPLS-2005>
-161.25505065918

> <r_mmod_Stretch_Energy-OPLS-2005>
76.4419250488281

> <r_mmod_Bend_Energy-OPLS-2005>
189.62158203125

> <r_mmod_Torsional_Energy-OPLS-2005>
183.555023193359

> <r_mmod_Improper_Torsional_Energy-OPLS-2005>
4.02200031280518

> <r_mmod_Van_der_Waal_Energy-OPLS-2005>
150.732833862305

> <r_mmod_Electrostatic_Energy-OPLS-2005>
-323.566680908203

> <r_mmod_Solvation_Energy-OPLS-2005>
-483.32373046875

> <b_mmod_Minimization_Converged-OPLS-2005>
0

> <r_mmod_RMS_Derivative-OPLS-2005>
4.12855291366577

$$$$
56
                    3D
 Structure written by MMmdl.
158167  0  0  1  0            999 V2000
  -30.6049  -14.6579   20.4980 C   0  0  0  0  0  0
  -30.4476  -12.4039   19.4514 C   0  0  0  0  0  0
  -29.5133  -12.5076   18.2245 C   0  0  0  0  0  0
  -28.0354  -12.3424   18.6354 C   0  0  0  0  0  0
  -27.6551  -13.2130   19.8621 C   0  0  2  0  0  0
  -28.7003  -13.0664   20.9912 C   0  0  0  0  0  0
  -25.2575  -13.8158   20.5674 C   0  0  0  0  0  0
  -24.1838  -13.0435   20.9198 C   0  0  0  0  0  0
  -24.6396  -11.6904   20.8739 C   0  0  0  0  0  0
  -23.9059  -10.4292   21.0405 C   0  0  0  0  0  0
  -24.3609   -9.4209   21.9181 C   0  0  0  0  0  0
  -23.6283   -8.2245   22.0755 C   0  0  0  0  0  0
  -22.4267   -8.0283   21.3549 C   0  0  0  0  0  0
  -21.9899   -9.0259   20.4653 C   0  0  0  0  0  0
  -22.7228  -10.2136   20.3058 C   0  0  0  0  0  0
  -21.6854   -6.0730   22.5275 C   0  0  0  0  0  0
  -21.4017   -6.5634   23.8209 C   0  0  0  0  0  0
  -21.3660   -5.6787   24.9171 C   0  0  0  0  0  0
  -21.6042   -4.3050   24.7224 C   0  0  0  0  0  0
  -21.8821   -3.8142   23.4344 C   0  0  0  0  0  0
  -21.9195   -4.6959   22.3399 C   0  0  0  0  0  0
  -22.7860  -13.5239   21.1853 C   0  0  0  0  0  0
  -22.1663   -4.2145   21.0977 F   0  0  0  0  0  0
  -21.5627   -3.4535   25.7737 F   0  0  0  0  0  0
  -30.0146  -13.4207   20.4299 N   0  0  0  0  0  0
  -26.2997  -12.9328   20.3298 N   0  0  0  0  0  0
  -25.9321  -11.6491   20.5742 N   0  0  0  0  0  0
  -22.0489  -12.8251   22.0409 N   0  0  0  0  0  0
  -25.4284  -15.1872   20.4050 N   0  0  0  0  0  0
  -31.7676  -14.8365   20.1232 O   0  0  0  0  0  0
  -21.6636   -6.8874   21.4238 O   0  0  0  0  0  0
  -22.3557  -14.5545   20.6688 O   0  0  0  0  0  0
  -24.6278  -31.8601   23.2024 C   0  0  0  0  0  0
  -25.9123  -32.4783   23.8354 C   0  0  1  0  0  0
  -27.2257  -27.3117   20.1104 C   0  0  0  0  0  0
  -25.5934  -33.8581   24.2285 N   0  0  0  0  0  0
  -23.4215  -30.4850   21.5461 C   0  0  2  0  0  0
  -24.8667  -28.9405   20.1136 C   0  0  0  0  0  0
  -22.7482  -29.4636   22.4940 C   0  0  0  0  0  0
  -18.0290  -28.1392   22.8485 C   0  0  0  0  0  0
  -24.1489  -36.7292   23.2632 C   0  0  0  0  0  0
  -25.9644  -30.7892   21.3741 C   0  0  0  0  0  0
  -26.0387  -29.4164   20.7146 C   0  0  0  0  0  0
  -27.2207  -28.6147   20.7019 C   0  0  0  0  0  0
  -26.0228  -26.8917   19.4931 C   0  0  0  0  0  0
  -24.8612  -27.6831   19.4953 C   0  0  0  0  0  0
  -23.6362  -29.8218   20.1616 C   0  0  0  0  0  0
  -25.4112  -36.3084   24.0328 C   0  0  1  0  0  0
  -20.5891  -28.3702   23.1280 C   0  0  2  0  0  0
  -20.6781  -26.9424   22.5411 C   0  0  0  0  0  0
  -19.5756  -26.6390   21.5213 C   0  0  0  0  0  0
  -18.1935  -26.7937   22.1621 C   0  0  0  0  0  0
  -19.1541  -28.8862   23.2880 C   0  0  0  0  0  0
  -18.9462  -30.1458   23.8904 C   0  0  0  0  0  0
  -17.6462  -30.6590   24.0564 C   0  0  0  0  0  0
  -25.9052  -34.9454   23.5107 C   0  0  0  0  0  0
  -16.5354  -29.9090   23.6327 C   0  0  0  0  0  0
  -16.7275  -28.6506   23.0352 C   0  0  0  0  0  0
  -26.4498  -31.6585   25.0722 C   0  0  0  0  0  0
  -25.3727  -31.3736   26.1447 C   0  0  0  0  0  0
  -27.0323  -30.3001   24.6177 C   0  0  0  0  0  0
  -27.6073  -32.4302   25.7486 C   0  0  0  0  0  0
  -27.5587  -37.1793   24.8456 C   0  0  0  0  0  0
  -21.4193  -29.3056   22.3676 N   0  0  0  0  0  0
  -26.4288  -37.3781   23.9414 N   0  0  0  0  0  0
  -24.6904  -31.0611   22.0978 N   0  0  0  0  0  0
  -23.4197  -28.8166   23.3015 O   0  0  0  0  0  0
  -28.3471  -26.4602   20.1482 O   0  0  0  0  0  0
  -26.5618  -34.8920   22.4672 O   0  0  0  0  0  0
  -23.5440  -32.1402   23.7349 O   0  0  0  0  0  0
  -30.8759  -19.3753   20.4374 C   0  0  0  0  0  0
  -30.9517  -17.9456   20.4864 C   0  0  0  0  0  0
  -28.5791  -17.8664   20.8495 C   0  0  0  0  0  0
  -29.6502  -20.0919   20.5783 C   0  0  0  0  0  0
  -29.7975  -17.1462   20.7055 C   0  0  0  0  0  0
  -28.4943  -19.2891   20.7875 C   0  0  0  0  0  0
  -28.9944  -22.4489   19.7846 C   0  0  0  0  0  0
  -29.9283  -23.7835   21.4960 C   0  0  0  0  0  0
  -30.4249  -22.3182   21.5726 C   0  0  0  0  0  0
  -29.3354  -23.9580   20.0879 C   0  0  1  0  0  0
  -30.4204  -24.4075   19.0862 C   0  0  0  0  0  0
  -28.1242  -24.9975   19.9911 C   0  0  0  0  0  0
  -29.6190  -21.5632   20.6182 N   0  0  0  0  0  0
  -29.7593  -15.6838   20.8377 N   0  0  0  0  0  0
  -28.2612  -22.1290   18.8444 O   0  0  0  0  0  0
  -26.9514  -20.0199   21.0621 Cl  0  0  0  0  0  0
  -31.4864  -12.5430   19.1464 H   0  0  0  0  0  0
  -30.3964  -11.4077   19.8940 H   0  0  0  0  0  0
  -29.7815  -11.7530   17.4840 H   0  0  0  0  0  0
  -29.6525  -13.4740   17.7380 H   0  0  0  0  0  0
  -27.8734  -11.2890   18.8669 H   0  0  0  0  0  0
  -27.3823  -12.5716   17.7927 H   0  0  0  0  0  0
  -27.6728  -14.2477   19.5200 H   0  0  0  0  0  0
  -28.7164  -12.0424   21.3672 H   0  0  0  0  0  0
  -28.4408  -13.6900   21.8483 H   0  0  0  0  0  0
  -25.2753   -9.5687   22.4753 H   0  0  0  0  0  0
  -23.9996   -7.4638   22.7472 H   0  0  0  0  0  0
  -21.0831   -8.8778   19.8959 H   0  0  0  0  0  0
  -22.3685  -10.9674   19.6170 H   0  0  0  0  0  0
  -21.2010   -7.6141   23.9710 H   0  0  0  0  0  0
  -21.1478   -6.0516   25.9073 H   0  0  0  0  0  0
  -22.0601   -2.7605   23.2846 H   0  0  0  0  0  0
  -22.4091  -11.9915   22.4812 H   0  0  0  0  0  0
  -21.1106  -13.1295   22.2595 H   0  0  0  0  0  0
  -24.6523  -15.8336   20.4952 H   0  0  0  0  0  0
  -26.2522  -15.6137   20.0022 H   0  0  0  0  0  0
  -26.7195  -32.5449   23.1107 H   0  0  0  0  0  0
  -25.0089  -33.9722   25.0436 H   0  0  0  0  0  0
  -22.7160  -31.3060   21.4037 H   0  0  0  0  0  0
  -23.3762  -35.9613   23.3278 H   0  0  0  0  0  0
  -24.3590  -36.8925   22.2050 H   0  0  0  0  0  0
  -23.7225  -37.6481   23.6665 H   0  0  0  0  0  0
  -26.0963  -31.5530   20.6066 H   0  0  0  0  0  0
  -26.8447  -30.8383   22.0034 H   0  0  0  0  0  0
  -28.1204  -28.9768   21.1791 H   0  0  0  0  0  0
  -25.9363  -25.9352   19.0031 H   0  0  0  0  0  0
  -23.9624  -27.3110   19.0226 H   0  0  0  0  0  0
  -23.7571  -30.5981   19.4053 H   0  0  0  0  0  0
  -22.7556  -29.2529   19.8581 H   0  0  0  0  0  0
  -25.1289  -36.1936   25.0820 H   0  0  0  0  0  0
  -20.9985  -28.3280   24.1400 H   0  0  0  0  0  0
  -20.5686  -26.2310   23.3612 H   0  0  0  0  0  0
  -21.6649  -26.7458   22.1202 H   0  0  0  0  0  0
  -19.6918  -25.6299   21.1244 H   0  0  0  0  0  0
  -19.6689  -27.3197   20.6739 H   0  0  0  0  0  0
  -17.4205  -26.6683   21.4024 H   0  0  0  0  0  0
  -18.0333  -26.0080   22.9017 H   0  0  0  0  0  0
  -19.7936  -30.7271   24.2283 H   0  0  0  0  0  0
  -17.5016  -31.6270   24.5163 H   0  0  0  0  0  0
  -15.5357  -30.2994   23.7645 H   0  0  0  0  0  0
  -15.8674  -28.0819   22.7078 H   0  0  0  0  0  0
  -24.5910  -30.7073   25.7782 H   0  0  0  0  0  0
  -24.8908  -32.2903   26.4854 H   0  0  0  0  0  0
  -25.8044  -30.8930   27.0235 H   0  0  0  0  0  0
  -26.2887  -29.6764   24.1201 H   0  0  0  0  0  0
  -27.4007  -29.7248   25.4682 H   0  0  0  0  0  0
  -27.8770  -30.4272   23.9404 H   0  0  0  0  0  0
  -27.2711  -33.3610   26.2066 H   0  0  0  0  0  0
  -28.3884  -32.6839   25.0306 H   0  0  0  0  0  0
  -28.0743  -31.8416   26.5393 H   0  0  0  0  0  0
  -28.2587  -38.0109   24.7542 H   0  0  0  0  0  0
  -28.1100  -36.2645   24.6233 H   0  0  0  0  0  0
  -27.2314  -37.1386   25.8859 H   0  0  0  0  0  0
  -20.9375  -29.8777   21.6882 H   0  0  0  0  0  0
  -26.0171  -38.2851   24.1438 H   0  0  0  0  0  0
  -31.7923  -19.9301   20.2933 H   0  0  0  0  0  0
  -31.9184  -17.4733   20.3783 H   0  0  0  0  0  0
  -27.6664  -17.3206   21.0393 H   0  0  0  0  0  0
  -30.7258  -24.4953   21.7114 H   0  0  0  0  0  0
  -29.1503  -23.9436   22.2441 H   0  0  0  0  0  0
  -30.3280  -21.9128   22.5804 H   0  0  0  0  0  0
  -31.4750  -22.2515   21.2841 H   0  0  0  0  0  0
  -31.2542  -23.7056   19.0398 H   0  0  0  0  0  0
  -30.8284  -25.3803   19.3609 H   0  0  0  0  0  0
  -30.0132  -24.4979   18.0783 H   0  0  0  0  0  0
  -27.3523  -24.6917   20.6995 H   0  0  0  0  0  0
  -27.7039  -24.8388   18.9983 H   0  0  0  0  0  0
  -28.8598  -15.3257   21.1191 H   0  0  0  0  0  0
  1 25  1  0  0  0
  1 30  2  0  0  0
  1 84  1  0  0  0
  2  3  1  0  0  0
  2 25  1  0  0  0
  2 87  1  0  0  0
  2 88  1  0  0  0
  3  4  1  0  0  0
  3 89  1  0  0  0
  3 90  1  0  0  0
  4  5  1  0  0  0
  4 91  1  0  0  0
  4 92  1  0  0  0
  5  6  1  0  0  0
  5 26  1  0  0  0
  5 93  1  0  0  0
  6 25  1  0  0  0
  6 94  1  0  0  0
  6 95  1  0  0  0
  7  8  2  0  0  0
  7 26  1  0  0  0
  7 29  1  0  0  0
  8  9  1  0  0  0
  8 22  1  0  0  0
  9 10  1  0  0  0
  9 27  2  0  0  0
 10 11  2  0  0  0
 10 15  1  0  0  0
 11 12  1  0  0  0
 11 96  1  0  0  0
 12 13  2  0  0  0
 12 97  1  0  0  0
 13 14  1  0  0  0
 13 31  1  0  0  0
 14 15  2  0  0  0
 14 98  1  0  0  0
 15 99  1  0  0  0
 16 17  2  0  0  0
 16 21  1  0  0  0
 16 31  1  0  0  0
 17 18  1  0  0  0
 17100  1  0  0  0
 18 19  2  0  0  0
 18101  1  0  0  0
 19 20  1  0  0  0
 19 24  1  0  0  0
 20 21  2  0  0  0
 20102  1  0  0  0
 21 23  1  0  0  0
 22 28  1  0  0  0
 22 32  2  0  0  0
 26 27  1  0  0  0
 28103  1  0  0  0
 28104  1  0  0  0
 29105  1  0  0  0
 29106  1  0  0  0
 33 34  1  0  0  0
 33 66  1  0  0  0
 33 70  2  0  0  0
 34 36  1  0  0  0
 34 59  1  0  0  0
 34107  1  0  0  0
 35 44  2  0  0  0
 35 45  1  0  0  0
 35 68  1  0  0  0
 36 56  1  0  0  0
 36108  1  0  0  0
 37 39  1  0  0  0
 37 47  1  0  0  0
 37 66  1  0  0  0
 37109  1  0  0  0
 38 43  2  0  0  0
 38 46  1  0  0  0
 38 47  1  0  0  0
 39 64  1  0  0  0
 39 67  2  0  0  0
 40 52  1  0  0  0
 40 53  2  0  0  0
 40 58  1  0  0  0
 41110  1  0  0  0
 41111  1  0  0  0
 41112  1  0  0  0
 41 48  1  0  0  0
 42 43  1  0  0  0
 42 66  1  0  0  0
 42113  1  0  0  0
 42114  1  0  0  0
 43 44  1  0  0  0
 44115  1  0  0  0
 45 46  2  0  0  0
 45116  1  0  0  0
 46117  1  0  0  0
 47118  1  0  0  0
 47119  1  0  0  0
 48 56  1  0  0  0
 48 65  1  0  0  0
 48120  1  0  0  0
 49 50  1  0  0  0
 49 53  1  0  0  0
 49 64  1  0  0  0
 49121  1  0  0  0
 50 51  1  0  0  0
 50122  1  0  0  0
 50123  1  0  0  0
 51 52  1  0  0  0
 51124  1  0  0  0
 51125  1  0  0  0
 52126  1  0  0  0
 52127  1  0  0  0
 53 54  1  0  0  0
 54 55  2  0  0  0
 54128  1  0  0  0
 55 57  1  0  0  0
 55129  1  0  0  0
 56 69  2  0  0  0
 57 58  2  0  0  0
 57130  1  0  0  0
 58131  1  0  0  0
 59 60  1  0  0  0
 59 61  1  0  0  0
 59 62  1  0  0  0
 60132  1  0  0  0
 60133  1  0  0  0
 60134  1  0  0  0
 61135  1  0  0  0
 61136  1  0  0  0
 61137  1  0  0  0
 62138  1  0  0  0
 62139  1  0  0  0
 62140  1  0  0  0
 63 65  1  0  0  0
 63141  1  0  0  0
 63142  1  0  0  0
 63143  1  0  0  0
 64144  1  0  0  0
 65145  1  0  0  0
 68 82  1  0  0  0
 71 72  2  0  0  0
 71 74  1  0  0  0
 71146  1  0  0  0
 72 75  1  0  0  0
 72147  1  0  0  0
 73 75  2  0  0  0
 73 76  1  0  0  0
 73148  1  0  0  0
 74 76  2  0  0  0
 74 83  1  0  0  0
 75 84  1  0  0  0
 76 86  1  0  0  0
 77 80  1  0  0  0
 77 83  1  0  0  0
 77 85  2  0  0  0
 78 79  1  0  0  0
 78 80  1  0  0  0
 78149  1  0  0  0
 78150  1  0  0  0
 79 83  1  0  0  0
 79151  1  0  0  0
 79152  1  0  0  0
 80 81  1  0  0  0
 80 82  1  0  0  0
 81153  1  0  0  0
 81154  1  0  0  0
 81155  1  0  0  0
 82156  1  0  0  0
 82157  1  0  0  0
 84158  1  0  0  0
M  ISO  4   1 100  68 101  82 101  84 100
M  END
> <chiral flag>
0

> <version>
0

> <s_m_source_file>
/data/baiqing/PycharmProjects/Reinvent-master-3.2/result/LINK_invent/BTK/process_docking_weight1_custom_product_contain_oxygen_bond_distance_aromatic_linkinvent_7_9_3/rearranged_h_0064.sdf

> <i_m_source_file_index>
57

> <r_mmod_Potential_Energy-OPLS-2005>
175.32861328125

> <r_mmod_Stretch_Energy-OPLS-2005>
83.5660018920898

> <r_mmod_Bend_Energy-OPLS-2005>
169.184341430664

> <r_mmod_Torsional_Energy-OPLS-2005>
291.803070068359

> <r_mmod_Improper_Torsional_Energy-OPLS-2005>
5.26578378677368

> <r_mmod_Van_der_Waal_Energy-OPLS-2005>
136.554534912109

> <r_mmod_Electrostatic_Energy-OPLS-2005>
-347.309753417969

> <r_mmod_Solvation_Energy-OPLS-2005>
-216.578491210938

> <b_mmod_Minimization_Converged-OPLS-2005>
0

> <r_mmod_RMS_Derivative-OPLS-2005>
0.812239229679108

$$$$
57
                    3D
 Structure written by MMmdl.
159168  0  0  1  0            999 V2000
  -30.4562  -15.0641   20.3918 C   0  0  0  0  0  0
  -30.4584  -12.6701   19.4857 C   0  0  0  0  0  0
  -29.5324  -12.5307   18.2552 C   0  0  0  0  0  0
  -28.0687  -12.2956   18.6792 C   0  0  0  0  0  0
  -27.6235  -13.2443   19.8221 C   0  0  2  0  0  0
  -28.6690  -13.3147   20.9526 C   0  0  0  0  0  0
  -25.2461  -13.8188   20.5705 C   0  0  0  0  0  0
  -24.1779  -13.0430   20.9251 C   0  0  0  0  0  0
  -24.6385  -11.6911   20.8763 C   0  0  0  0  0  0
  -23.9060  -10.4295   21.0401 C   0  0  0  0  0  0
  -24.3606   -9.4212   21.9179 C   0  0  0  0  0  0
  -23.6283   -8.2245   22.0745 C   0  0  0  0  0  0
  -22.4268   -8.0278   21.3536 C   0  0  0  0  0  0
  -21.9904   -9.0259   20.4648 C   0  0  0  0  0  0
  -22.7226  -10.2143   20.3059 C   0  0  0  0  0  0
  -21.6868   -6.0722   22.5273 C   0  0  0  0  0  0
  -21.4018   -6.5622   23.8203 C   0  0  0  0  0  0
  -21.3660   -5.6771   24.9165 C   0  0  0  0  0  0
  -21.6052   -4.3033   24.7220 C   0  0  0  0  0  0
  -21.8820   -3.8131   23.4335 C   0  0  0  0  0  0
  -21.9189   -4.6947   22.3395 C   0  0  0  0  0  0
  -22.7798  -13.5224   21.1882 C   0  0  0  0  0  0
  -22.1656   -4.2129   21.0972 F   0  0  0  0  0  0
  -21.5631   -3.4520   25.7732 F   0  0  0  0  0  0
  -29.9214  -13.7711   20.3345 N   0  0  0  0  0  0
  -26.2863  -12.9403   20.3178 N   0  0  0  0  0  0
  -25.9317  -11.6541   20.5718 N   0  0  0  0  0  0
  -22.0427  -12.8255   22.0460 N   0  0  0  0  0  0
  -25.4108  -15.1907   20.4056 N   0  0  0  0  0  0
  -31.6817  -15.1614   20.2572 O   0  0  0  0  0  0
  -21.6639   -6.8874   21.4236 O   0  0  0  0  0  0
  -22.3489  -14.5507   20.6679 O   0  0  0  0  0  0
  -24.6495  -31.8370   23.1792 C   0  0  0  0  0  0
  -25.9227  -32.4671   23.8225 C   0  0  1  0  0  0
  -27.2306  -27.0766   20.1701 C   0  0  0  0  0  0
  -25.5938  -33.8475   24.2138 N   0  0  0  0  0  0
  -23.4574  -30.4480   21.5293 C   0  0  2  0  0  0
  -24.9081  -28.8513   20.1237 C   0  0  0  0  0  0
  -22.7602  -29.4502   22.4881 C   0  0  0  0  0  0
  -18.0297  -28.1403   22.8486 C   0  0  0  0  0  0
  -24.1478  -36.7239   23.2644 C   0  0  0  0  0  0
  -26.0159  -30.6936   21.3817 C   0  0  0  0  0  0
  -26.0891  -29.2935   20.7341 C   0  0  0  0  0  0
  -27.2525  -28.4264   20.7259 C   0  0  0  0  0  0
  -26.0162  -26.7333   19.5416 C   0  0  0  0  0  0
  -24.8865  -27.5871   19.5107 C   0  0  0  0  0  0
  -23.6880  -29.7625   20.1558 C   0  0  0  0  0  0
  -25.4114  -36.3026   24.0319 C   0  0  1  0  0  0
  -20.5910  -28.3737   23.1241 C   0  0  2  0  0  0
  -20.6784  -26.9438   22.5414 C   0  0  0  0  0  0
  -19.5760  -26.6387   21.5224 C   0  0  0  0  0  0
  -18.1938  -26.7938   22.1633 C   0  0  0  0  0  0
  -19.1552  -28.8892   23.2849 C   0  0  0  0  0  0
  -18.9468  -30.1481   23.8882 C   0  0  0  0  0  0
  -17.6466  -30.6604   24.0556 C   0  0  0  0  0  0
  -25.9075  -34.9403   23.5054 C   0  0  0  0  0  0
  -16.5358  -29.9098   23.6337 C   0  0  0  0  0  0
  -16.7281  -28.6512   23.0372 C   0  0  0  0  0  0
  -26.4517  -31.6563   25.0700 C   0  0  0  0  0  0
  -25.3677  -31.3772   26.1388 C   0  0  0  0  0  0
  -27.0364  -30.2945   24.6298 C   0  0  0  0  0  0
  -27.6053  -32.4326   25.7483 C   0  0  0  0  0  0
  -27.5568  -37.1769   24.8466 C   0  0  0  0  0  0
  -21.4286  -29.3040   22.3620 N   0  0  0  0  0  0
  -26.4274  -37.3746   23.9421 N   0  0  0  0  0  0
  -24.7286  -31.0159   22.0857 N   0  0  0  0  0  0
  -23.4214  -28.8075   23.3076 O   0  0  0  0  0  0
  -28.3159  -26.1106   20.1342 O   0  0  0  0  0  0
  -26.5688  -34.8922   22.4647 O   0  0  0  0  0  0
  -23.5603  -32.1259   23.6991 O   0  0  0  0  0  0
  -28.1275  -17.7370   21.4580 C   0  0  0  0  0  0
  -29.6714  -19.0189   20.1302 C   0  0  0  0  0  0
  -27.4567  -18.9448   21.8048 C   0  0  0  0  0  0
  -29.0018  -20.3382   20.4641 C   0  0  0  0  0  0
  -29.2605  -17.6562   20.6141 C   0  0  0  0  0  0
  -27.8778  -20.2070   21.2977 C   0  0  0  0  0  0
  -30.6714  -22.0601   19.8124 C   0  0  0  0  0  0
  -26.2447  -18.8483   22.6967 C   0  0  0  0  0  0
  -30.8364  -23.3002   18.9523 C   0  0  0  0  0  0
  -29.4081  -23.5863   18.4977 C   0  0  0  0  0  0
  -28.5550  -23.1337   19.6874 C   0  0  2  0  0  0
  -28.2745  -24.5841   20.5712 C   0  0  0  0  0  0
  -29.3837  -21.8086   20.1105 N   0  0  0  0  0  0
  -26.0135  -19.8652   23.5181 N   0  0  0  0  0  0
  -29.5642  -16.1789   20.1973 N   0  0  0  0  0  0
  -31.6471  -21.3930   20.1711 O   0  0  0  0  0  0
  -25.5339  -17.8450   22.7161 O   0  0  0  0  0  0
  -27.2148  -21.3412   21.6434 F   0  0  0  0  0  0
  -31.4752  -12.8887   19.1556 H   0  0  0  0  0  0
  -30.5164  -11.7367   20.0465 H   0  0  0  0  0  0
  -29.8756  -11.7122   17.6229 H   0  0  0  0  0  0
  -29.5925  -13.4344   17.6479 H   0  0  0  0  0  0
  -27.9886  -11.2613   19.0140 H   0  0  0  0  0  0
  -27.4058  -12.3885   17.8192 H   0  0  0  0  0  0
  -27.5697  -14.2323   19.3659 H   0  0  0  0  0  0
  -28.7929  -12.3499   21.4461 H   0  0  0  0  0  0
  -28.3479  -14.0209   21.7202 H   0  0  0  0  0  0
  -25.2744   -9.5692   22.4757 H   0  0  0  0  0  0
  -23.9983   -7.4640   22.7470 H   0  0  0  0  0  0
  -21.0830   -8.8777   19.8974 H   0  0  0  0  0  0
  -22.3660  -10.9676   19.6172 H   0  0  0  0  0  0
  -21.2013   -7.6125   23.9702 H   0  0  0  0  0  0
  -21.1486   -6.0500   25.9068 H   0  0  0  0  0  0
  -22.0601   -2.7595   23.2839 H   0  0  0  0  0  0
  -22.3994  -11.9940   22.4922 H   0  0  0  0  0  0
  -21.1033  -13.1303   22.2591 H   0  0  0  0  0  0
  -24.6553  -15.8449   20.5805 H   0  0  0  0  0  0
  -26.2406  -15.6433   20.0510 H   0  0  0  0  0  0
  -26.7309  -32.5262   23.0967 H   0  0  0  0  0  0
  -25.0024  -33.9567   25.0248 H   0  0  0  0  0  0
  -22.7640  -31.2750   21.3644 H   0  0  0  0  0  0
  -23.3767  -35.9541   23.3284 H   0  0  0  0  0  0
  -24.3560  -36.8894   22.2060 H   0  0  0  0  0  0
  -23.7198  -37.6416   23.6696 H   0  0  0  0  0  0
  -26.1656  -31.4380   20.5988 H   0  0  0  0  0  0
  -26.8887  -30.7576   22.0205 H   0  0  0  0  0  0
  -28.1641  -28.7720   21.1929 H   0  0  0  0  0  0
  -25.9336  -25.7608   19.0767 H   0  0  0  0  0  0
  -23.9849  -27.2411   19.0242 H   0  0  0  0  0  0
  -23.8327  -30.5280   19.3929 H   0  0  0  0  0  0
  -22.8022  -29.2054   19.8479 H   0  0  0  0  0  0
  -25.1297  -36.1847   25.0811 H   0  0  0  0  0  0
  -20.9975  -28.3325   24.1371 H   0  0  0  0  0  0
  -20.5689  -26.2343   23.3630 H   0  0  0  0  0  0
  -21.6644  -26.7453   22.1193 H   0  0  0  0  0  0
  -19.6914  -25.6287   21.1280 H   0  0  0  0  0  0
  -19.6695  -27.3179   20.6737 H   0  0  0  0  0  0
  -17.4199  -26.6684   21.4041 H   0  0  0  0  0  0
  -18.0343  -26.0085   22.9039 H   0  0  0  0  0  0
  -19.7944  -30.7291   24.2263 H   0  0  0  0  0  0
  -17.5022  -31.6284   24.5152 H   0  0  0  0  0  0
  -15.5361  -30.3001   23.7657 H   0  0  0  0  0  0
  -15.8678  -28.0816   22.7119 H   0  0  0  0  0  0
  -24.5859  -30.7120   25.7699 H   0  0  0  0  0  0
  -24.8855  -32.2958   26.4742 H   0  0  0  0  0  0
  -25.7931  -30.8984   27.0216 H   0  0  0  0  0  0
  -26.2969  -29.6687   24.1285 H   0  0  0  0  0  0
  -27.3933  -29.7240   25.4884 H   0  0  0  0  0  0
  -27.8907  -30.4171   23.9635 H   0  0  0  0  0  0
  -27.2657  -33.3654   26.2000 H   0  0  0  0  0  0
  -28.3890  -32.6835   25.0322 H   0  0  0  0  0  0
  -28.0697  -31.8484   26.5441 H   0  0  0  0  0  0
  -28.2577  -38.0075   24.7531 H   0  0  0  0  0  0
  -28.1073  -36.2603   24.6270 H   0  0  0  0  0  0
  -27.2297  -37.1398   25.8874 H   0  0  0  0  0  0
  -20.9538  -29.8717   21.6741 H   0  0  0  0  0  0
  -26.0144  -38.2814   24.1446 H   0  0  0  0  0  0
  -27.7115  -16.8128   21.8384 H   0  0  0  0  0  0
  -30.5090  -19.0568   19.4484 H   0  0  0  0  0  0
  -31.5104  -23.1184   18.1160 H   0  0  0  0  0  0
  -31.2332  -24.1140   19.5608 H   0  0  0  0  0  0
  -29.1756  -22.9809   17.6197 H   0  0  0  0  0  0
  -29.2532  -24.6281   18.2168 H   0  0  0  0  0  0
  -27.5889  -22.8068   19.3017 H   0  0  0  0  0  0
  -29.0194  -24.5569   21.3662 H   0  0  0  0  0  0
  -27.3329  -24.4465   21.1040 H   0  0  0  0  0  0
  -26.5860  -20.6944   23.4360 H   0  0  0  0  0  0
  -25.2262  -19.8585   24.1482 H   0  0  0  0  0  0
  -28.6860  -15.7295   19.9902 H   0  0  0  0  0  0
  1 25  1  0  0  0
  1 30  2  0  0  0
  1 85  1  0  0  0
  2  3  1  0  0  0
  2 25  1  0  0  0
  2 89  1  0  0  0
  2 90  1  0  0  0
  3  4  1  0  0  0
  3 91  1  0  0  0
  3 92  1  0  0  0
  4  5  1  0  0  0
  4 93  1  0  0  0
  4 94  1  0  0  0
  5  6  1  0  0  0
  5 26  1  0  0  0
  5 95  1  0  0  0
  6 25  1  0  0  0
  6 96  1  0  0  0
  6 97  1  0  0  0
  7  8  2  0  0  0
  7 26  1  0  0  0
  7 29  1  0  0  0
  8  9  1  0  0  0
  8 22  1  0  0  0
  9 10  1  0  0  0
  9 27  2  0  0  0
 10 11  2  0  0  0
 10 15  1  0  0  0
 11 12  1  0  0  0
 11 98  1  0  0  0
 12 13  2  0  0  0
 12 99  1  0  0  0
 13 14  1  0  0  0
 13 31  1  0  0  0
 14 15  2  0  0  0
 14100  1  0  0  0
 15101  1  0  0  0
 16 17  2  0  0  0
 16 21  1  0  0  0
 16 31  1  0  0  0
 17 18  1  0  0  0
 17102  1  0  0  0
 18 19  2  0  0  0
 18103  1  0  0  0
 19 20  1  0  0  0
 19 24  1  0  0  0
 20 21  2  0  0  0
 20104  1  0  0  0
 21 23  1  0  0  0
 22 28  1  0  0  0
 22 32  2  0  0  0
 26 27  1  0  0  0
 28105  1  0  0  0
 28106  1  0  0  0
 29107  1  0  0  0
 29108  1  0  0  0
 33 34  1  0  0  0
 33 66  1  0  0  0
 33 70  2  0  0  0
 34 36  1  0  0  0
 34 59  1  0  0  0
 34109  1  0  0  0
 35 44  2  0  0  0
 35 45  1  0  0  0
 35 68  1  0  0  0
 36 56  1  0  0  0
 36110  1  0  0  0
 37 39  1  0  0  0
 37 47  1  0  0  0
 37 66  1  0  0  0
 37111  1  0  0  0
 38 43  2  0  0  0
 38 46  1  0  0  0
 38 47  1  0  0  0
 39 64  1  0  0  0
 39 67  2  0  0  0
 40 52  1  0  0  0
 40 53  2  0  0  0
 40 58  1  0  0  0
 41112  1  0  0  0
 41113  1  0  0  0
 41114  1  0  0  0
 41 48  1  0  0  0
 42 43  1  0  0  0
 42 66  1  0  0  0
 42115  1  0  0  0
 42116  1  0  0  0
 43 44  1  0  0  0
 44117  1  0  0  0
 45 46  2  0  0  0
 45118  1  0  0  0
 46119  1  0  0  0
 47120  1  0  0  0
 47121  1  0  0  0
 48 56  1  0  0  0
 48 65  1  0  0  0
 48122  1  0  0  0
 49 50  1  0  0  0
 49 53  1  0  0  0
 49 64  1  0  0  0
 49123  1  0  0  0
 50 51  1  0  0  0
 50124  1  0  0  0
 50125  1  0  0  0
 51 52  1  0  0  0
 51126  1  0  0  0
 51127  1  0  0  0
 52128  1  0  0  0
 52129  1  0  0  0
 53 54  1  0  0  0
 54 55  2  0  0  0
 54130  1  0  0  0
 55 57  1  0  0  0
 55131  1  0  0  0
 56 69  2  0  0  0
 57 58  2  0  0  0
 57132  1  0  0  0
 58133  1  0  0  0
 59 60  1  0  0  0
 59 61  1  0  0  0
 59 62  1  0  0  0
 60134  1  0  0  0
 60135  1  0  0  0
 60136  1  0  0  0
 61137  1  0  0  0
 61138  1  0  0  0
 61139  1  0  0  0
 62140  1  0  0  0
 62141  1  0  0  0
 62142  1  0  0  0
 63 65  1  0  0  0
 63143  1  0  0  0
 63144  1  0  0  0
 63145  1  0  0  0
 64146  1  0  0  0
 65147  1  0  0  0
 68 82  1  0  0  0
 71 73  2  0  0  0
 71 75  1  0  0  0
 71148  1  0  0  0
 72 74  1  0  0  0
 72 75  2  0  0  0
 72149  1  0  0  0
 73 76  1  0  0  0
 73 78  1  0  0  0
 74 76  2  0  0  0
 74 83  1  0  0  0
 75 85  1  0  0  0
 76 88  1  0  0  0
 77 79  1  0  0  0
 77 83  1  0  0  0
 77 86  2  0  0  0
 78 84  1  0  0  0
 78 87  2  0  0  0
 79 80  1  0  0  0
 79150  1  0  0  0
 79151  1  0  0  0
 80 81  1  0  0  0
 80152  1  0  0  0
 80153  1  0  0  0
 81 82  1  0  0  0
 81 83  1  0  0  0
 81154  1  0  0  0
 82155  1  0  0  0
 82156  1  0  0  0
 84157  1  0  0  0
 84158  1  0  0  0
 85159  1  0  0  0
M  ISO  4   1 100  68 101  82 101  85 100
M  END
> <chiral flag>
0

> <version>
0

> <s_m_source_file>
/data/baiqing/PycharmProjects/Reinvent-master-3.2/result/LINK_invent/BTK/process_docking_weight1_custom_product_contain_oxygen_bond_distance_aromatic_linkinvent_7_9_3/rearranged_h_0064.sdf

> <i_m_source_file_index>
58

> <r_mmod_Potential_Energy-OPLS-2005>
741.452575683594

> <r_mmod_Stretch_Energy-OPLS-2005>
345.593200683594

> <r_mmod_Bend_Energy-OPLS-2005>
394.995056152344

> <r_mmod_Torsional_Energy-OPLS-2005>
353.408477783203

> <r_mmod_Improper_Torsional_Energy-OPLS-2005>
16.9832038879395

> <r_mmod_Van_der_Waal_Energy-OPLS-2005>
121.575088500977

> <r_mmod_Electrostatic_Energy-OPLS-2005>
-506.951934814453

> <r_mmod_Solvation_Energy-OPLS-2005>
-251.310546875

> <b_mmod_Minimization_Converged-OPLS-2005>
0

> <r_mmod_RMS_Derivative-OPLS-2005>
2.60136342048645

$$$$
58
                    3D
 Structure written by MMmdl.
158166  0  0  1  0            999 V2000
  -30.5385  -14.8815   20.5279 C   0  0  0  0  0  0
  -30.4598  -12.5639   19.4742 C   0  0  0  0  0  0
  -29.5219  -12.5613   18.2433 C   0  0  0  0  0  0
  -28.0503  -12.3485   18.6569 C   0  0  0  0  0  0
  -27.6502  -13.2301   19.8695 C   0  0  2  0  0  0
  -28.7033  -13.1193   20.9926 C   0  0  0  0  0  0
  -25.2557  -13.8180   20.5741 C   0  0  0  0  0  0
  -24.1822  -13.0436   20.9186 C   0  0  0  0  0  0
  -24.6403  -11.6906   20.8727 C   0  0  0  0  0  0
  -23.9072  -10.4289   21.0396 C   0  0  0  0  0  0
  -24.3620   -9.4208   21.9179 C   0  0  0  0  0  0
  -23.6292   -8.2248   22.0752 C   0  0  0  0  0  0
  -22.4269   -8.0284   21.3546 C   0  0  0  0  0  0
  -21.9910   -9.0253   20.4645 C   0  0  0  0  0  0
  -22.7242  -10.2133   20.3046 C   0  0  0  0  0  0
  -21.6854   -6.0742   22.5282 C   0  0  0  0  0  0
  -21.4015   -6.5645   23.8219 C   0  0  0  0  0  0
  -21.3658   -5.6793   24.9178 C   0  0  0  0  0  0
  -21.6044   -4.3057   24.7224 C   0  0  0  0  0  0
  -21.8816   -3.8150   23.4345 C   0  0  0  0  0  0
  -21.9194   -4.6969   22.3401 C   0  0  0  0  0  0
  -22.7843  -13.5230   21.1848 C   0  0  0  0  0  0
  -22.1662   -4.2155   21.0982 F   0  0  0  0  0  0
  -21.5624   -3.4539   25.7737 F   0  0  0  0  0  0
  -29.9764  -13.6030   20.4289 N   0  0  0  0  0  0
  -26.2997  -12.9373   20.3390 N   0  0  0  0  0  0
  -25.9343  -11.6510   20.5764 N   0  0  0  0  0  0
  -22.0480  -12.8230   22.0404 N   0  0  0  0  0  0
  -25.4286  -15.1901   20.4227 N   0  0  0  0  0  0
  -31.6662  -15.0175   20.0341 O   0  0  0  0  0  0
  -21.6635   -6.8882   21.4240 O   0  0  0  0  0  0
  -22.3528  -14.5531   20.6693 O   0  0  0  0  0  0
  -24.6398  -31.8475   23.1923 C   0  0  0  0  0  0
  -25.9184  -32.4711   23.8304 C   0  0  1  0  0  0
  -27.2206  -27.1655   20.1343 C   0  0  0  0  0  0
  -25.5922  -33.8520   24.2197 N   0  0  0  0  0  0
  -23.4429  -30.4678   21.5382 C   0  0  2  0  0  0
  -24.8930  -28.9043   20.1076 C   0  0  0  0  0  0
  -22.7558  -29.4559   22.4878 C   0  0  0  0  0  0
  -18.0299  -28.1401   22.8471 C   0  0  0  0  0  0
  -24.1494  -36.7287   23.2645 C   0  0  0  0  0  0
  -25.9986  -30.7239   21.3957 C   0  0  0  0  0  0
  -26.0671  -29.3405   20.7332 C   0  0  0  0  0  0
  -27.2269  -28.4832   20.7388 C   0  0  0  0  0  0
  -26.0256  -26.8390   19.4508 C   0  0  0  0  0  0
  -24.8835  -27.6656   19.4537 C   0  0  0  0  0  0
  -23.6666  -29.8010   20.1557 C   0  0  0  0  0  0
  -25.4127  -36.3048   24.0314 C   0  0  1  0  0  0
  -20.5907  -28.3726   23.1235 C   0  0  2  0  0  0
  -20.6794  -26.9434   22.5397 C   0  0  0  0  0  0
  -19.5767  -26.6382   21.5209 C   0  0  0  0  0  0
  -18.1946  -26.7943   22.1618 C   0  0  0  0  0  0
  -19.1555  -28.8878   23.2848 C   0  0  0  0  0  0
  -18.9474  -30.1469   23.8880 C   0  0  0  0  0  0
  -17.6475  -30.6598   24.0551 C   0  0  0  0  0  0
  -25.9069  -34.9420   23.5071 C   0  0  0  0  0  0
  -16.5361  -29.9088   23.6337 C   0  0  0  0  0  0
  -16.7283  -28.6502   23.0366 C   0  0  0  0  0  0
  -26.4503  -31.6593   25.0752 C   0  0  0  0  0  0
  -25.3667  -31.3786   26.1426 C   0  0  0  0  0  0
  -27.0406  -30.2987   24.6395 C   0  0  0  0  0  0
  -27.6013  -32.4399   25.7529 C   0  0  0  0  0  0
  -27.5593  -37.1790   24.8458 C   0  0  0  0  0  0
  -21.4255  -29.3056   22.3621 N   0  0  0  0  0  0
  -26.4299  -37.3749   23.9412 N   0  0  0  0  0  0
  -24.7129  -31.0334   22.0965 N   0  0  0  0  0  0
  -23.4211  -28.8113   23.3026 O   0  0  0  0  0  0
  -28.2840  -26.2001   20.2391 O   0  0  0  0  0  0
  -26.5673  -34.8904   22.4660 O   0  0  0  0  0  0
  -23.5516  -32.1356   23.7140 O   0  0  0  0  0  0
  -30.3414  -18.4620   19.8130 C   0  0  0  0  0  0
  -30.1568  -19.8767   19.5158 C   0  0  0  0  0  0
  -28.6680  -20.0993   21.3245 C   0  0  0  0  0  0
  -29.6780  -17.7654   20.8777 C   0  0  0  0  0  0
  -28.8097  -18.6842   21.6112 C   0  0  0  0  0  0
  -29.3218  -20.7815   20.2640 C   0  0  0  0  0  0
  -28.7827  -23.4393   20.5124 C   0  0  0  0  0  0
  -27.9168  -18.2051   22.7555 C   0  0  0  0  0  0
  -30.3732  -15.0475   23.6587 C   0  0  0  0  0  0
  -28.1555  -24.7434   19.7325 C   0  0  0  0  0  0
  -30.6568  -16.2079   22.6824 C   0  0  0  0  0  0
  -29.8706  -16.1755   21.3363 C   0  0  2  0  0  0
  -29.0401  -22.2191   19.8523 N   0  0  0  0  0  0
  -29.0084  -23.5431   21.7210 O   0  0  0  0  0  0
  -28.6081  -15.8466   21.5943 F   0  0  0  0  0  0
  -31.4875  -12.7437   19.1562 H   0  0  0  0  0  0
  -30.4757  -11.5815   19.9486 H   0  0  0  0  0  0
  -29.8290  -11.7906   17.5347 H   0  0  0  0  0  0
  -29.6159  -13.5132   17.7185 H   0  0  0  0  0  0
  -27.9272  -11.2956   18.9130 H   0  0  0  0  0  0
  -27.3865  -12.5365   17.8125 H   0  0  0  0  0  0
  -27.6519  -14.2614   19.5149 H   0  0  0  0  0  0
  -28.7951  -12.0810   21.3163 H   0  0  0  0  0  0
  -28.4018  -13.6458   21.8938 H   0  0  0  0  0  0
  -25.2764   -9.5688   22.4759 H   0  0  0  0  0  0
  -23.9997   -7.4640   22.7476 H   0  0  0  0  0  0
  -21.0843   -8.8777   19.8953 H   0  0  0  0  0  0
  -22.3700  -10.9672   19.6152 H   0  0  0  0  0  0
  -21.2008   -7.6153   23.9725 H   0  0  0  0  0  0
  -21.1483   -6.0524   25.9086 H   0  0  0  0  0  0
  -22.0595   -2.7609   23.2843 H   0  0  0  0  0  0
  -22.4089  -11.9903   22.4816 H   0  0  0  0  0  0
  -21.1095  -13.1265   22.2586 H   0  0  0  0  0  0
  -24.6802  -15.8559   20.5788 H   0  0  0  0  0  0
  -26.3204  -15.6300   20.2307 H   0  0  0  0  0  0
  -26.7259  -32.5316   23.1042 H   0  0  0  0  0  0
  -24.9959  -33.9633   25.0267 H   0  0  0  0  0  0
  -22.7431  -31.2922   21.3875 H   0  0  0  0  0  0
  -23.3746  -35.9624   23.3278 H   0  0  0  0  0  0
  -24.3560  -36.8962   22.2063 H   0  0  0  0  0  0
  -23.7261  -37.6475   23.6712 H   0  0  0  0  0  0
  -26.1611  -31.4818   20.6286 H   0  0  0  0  0  0
  -26.8657  -30.7645   22.0440 H   0  0  0  0  0  0
  -28.1164  -28.8074   21.2590 H   0  0  0  0  0  0
  -25.9194  -25.9138   18.9096 H   0  0  0  0  0  0
  -23.9909  -27.3335   18.9413 H   0  0  0  0  0  0
  -23.7967  -30.5764   19.3996 H   0  0  0  0  0  0
  -22.7833  -29.2377   19.8500 H   0  0  0  0  0  0
  -25.1320  -36.1871   25.0803 H   0  0  0  0  0  0
  -20.9991  -28.3318   24.1363 H   0  0  0  0  0  0
  -20.5693  -26.2349   23.3617 H   0  0  0  0  0  0
  -21.6666  -26.7456   22.1196 H   0  0  0  0  0  0
  -19.6927  -25.6280   21.1269 H   0  0  0  0  0  0
  -19.6706  -27.3159   20.6708 H   0  0  0  0  0  0
  -17.4225  -26.6680   21.4011 H   0  0  0  0  0  0
  -18.0330  -26.0087   22.9015 H   0  0  0  0  0  0
  -19.7949  -30.7277   24.2258 H   0  0  0  0  0  0
  -17.5033  -31.6277   24.5159 H   0  0  0  0  0  0
  -15.5360  -30.2987   23.7682 H   0  0  0  0  0  0
  -15.8682  -28.0803   22.7120 H   0  0  0  0  0  0
  -24.5833  -30.7171   25.7705 H   0  0  0  0  0  0
  -24.8863  -32.2975   26.4806 H   0  0  0  0  0  0
  -25.7910  -30.8952   27.0236 H   0  0  0  0  0  0
  -26.3056  -29.6672   24.1392 H   0  0  0  0  0  0
  -27.3975  -29.7333   25.5014 H   0  0  0  0  0  0
  -27.8977  -30.4210   23.9769 H   0  0  0  0  0  0
  -27.2583  -33.3723   26.2041 H   0  0  0  0  0  0
  -28.3843  -32.6954   25.0373 H   0  0  0  0  0  0
  -28.0687  -31.8600   26.5507 H   0  0  0  0  0  0
  -28.2571  -38.0120   24.7534 H   0  0  0  0  0  0
  -28.1132  -36.2653   24.6254 H   0  0  0  0  0  0
  -27.2309  -37.1392   25.8854 H   0  0  0  0  0  0
  -20.9465  -29.8752   21.6785 H   0  0  0  0  0  0
  -26.0171  -38.2815   24.1403 H   0  0  0  0  0  0
  -31.0192  -17.8979   19.1881 H   0  0  0  0  0  0
  -30.6915  -20.2723   18.6637 H   0  0  0  0  0  0
  -27.9795  -20.6813   21.9211 H   0  0  0  0  0  0
  -27.5796  -19.0354   23.3768 H   0  0  0  0  0  0
  -28.3986  -17.5038   23.4316 H   0  0  0  0  0  0
  -27.0275  -17.7216   22.3513 H   0  0  0  0  0  0
  -30.9547  -15.1657   24.5732 H   0  0  0  0  0  0
  -30.6352  -14.0772   23.2368 H   0  0  0  0  0  0
  -29.3209  -15.0150   23.9441 H   0  0  0  0  0  0
  -27.1065  -24.4655   19.6856 H   0  0  0  0  0  0
  -28.5186  -24.7214   18.7053 H   0  0  0  0  0  0
  -31.7256  -16.2454   22.4693 H   0  0  0  0  0  0
  -30.4765  -17.1369   23.2182 H   0  0  0  0  0  0
  -28.9927  -22.3364   18.8491 H   0  0  0  0  0  0
  1 25  1  0  0  0
  1 30  2  0  0  0
  1 82  1  0  0  0
  2  3  1  0  0  0
  2 25  1  0  0  0
  2 86  1  0  0  0
  2 87  1  0  0  0
  3  4  1  0  0  0
  3 88  1  0  0  0
  3 89  1  0  0  0
  4  5  1  0  0  0
  4 90  1  0  0  0
  4 91  1  0  0  0
  5  6  1  0  0  0
  5 26  1  0  0  0
  5 92  1  0  0  0
  6 25  1  0  0  0
  6 93  1  0  0  0
  6 94  1  0  0  0
  7  8  2  0  0  0
  7 26  1  0  0  0
  7 29  1  0  0  0
  8  9  1  0  0  0
  8 22  1  0  0  0
  9 10  1  0  0  0
  9 27  2  0  0  0
 10 11  2  0  0  0
 10 15  1  0  0  0
 11 12  1  0  0  0
 11 95  1  0  0  0
 12 13  2  0  0  0
 12 96  1  0  0  0
 13 14  1  0  0  0
 13 31  1  0  0  0
 14 15  2  0  0  0
 14 97  1  0  0  0
 15 98  1  0  0  0
 16 17  2  0  0  0
 16 21  1  0  0  0
 16 31  1  0  0  0
 17 18  1  0  0  0
 17 99  1  0  0  0
 18 19  2  0  0  0
 18100  1  0  0  0
 19 20  1  0  0  0
 19 24  1  0  0  0
 20 21  2  0  0  0
 20101  1  0  0  0
 21 23  1  0  0  0
 22 28  1  0  0  0
 22 32  2  0  0  0
 26 27  1  0  0  0
 28102  1  0  0  0
 28103  1  0  0  0
 29104  1  0  0  0
 29105  1  0  0  0
 33 34  1  0  0  0
 33 66  1  0  0  0
 33 70  2  0  0  0
 34 36  1  0  0  0
 34 59  1  0  0  0
 34106  1  0  0  0
 35 44  2  0  0  0
 35 45  1  0  0  0
 35 68  1  0  0  0
 36 56  1  0  0  0
 36107  1  0  0  0
 37 39  1  0  0  0
 37 47  1  0  0  0
 37 66  1  0  0  0
 37108  1  0  0  0
 38 43  2  0  0  0
 38 46  1  0  0  0
 38 47  1  0  0  0
 39 64  1  0  0  0
 39 67  2  0  0  0
 40 52  1  0  0  0
 40 53  2  0  0  0
 40 58  1  0  0  0
 41109  1  0  0  0
 41110  1  0  0  0
 41111  1  0  0  0
 41 48  1  0  0  0
 42 43  1  0  0  0
 42 66  1  0  0  0
 42112  1  0  0  0
 42113  1  0  0  0
 43 44  1  0  0  0
 44114  1  0  0  0
 45 46  2  0  0  0
 45115  1  0  0  0
 46116  1  0  0  0
 47117  1  0  0  0
 47118  1  0  0  0
 48 56  1  0  0  0
 48 65  1  0  0  0
 48119  1  0  0  0
 49 50  1  0  0  0
 49 53  1  0  0  0
 49 64  1  0  0  0
 49120  1  0  0  0
 50 51  1  0  0  0
 50121  1  0  0  0
 50122  1  0  0  0
 51 52  1  0  0  0
 51123  1  0  0  0
 51124  1  0  0  0
 52125  1  0  0  0
 52126  1  0  0  0
 53 54  1  0  0  0
 54 55  2  0  0  0
 54127  1  0  0  0
 55 57  1  0  0  0
 55128  1  0  0  0
 56 69  2  0  0  0
 57 58  2  0  0  0
 57129  1  0  0  0
 58130  1  0  0  0
 59 60  1  0  0  0
 59 61  1  0  0  0
 59 62  1  0  0  0
 60131  1  0  0  0
 60132  1  0  0  0
 60133  1  0  0  0
 61134  1  0  0  0
 61135  1  0  0  0
 61136  1  0  0  0
 62137  1  0  0  0
 62138  1  0  0  0
 62139  1  0  0  0
 63 65  1  0  0  0
 63140  1  0  0  0
 63141  1  0  0  0
 63142  1  0  0  0
 64143  1  0  0  0
 65144  1  0  0  0
 68 80  1  0  0  0
 71 72  2  0  0  0
 71 74  1  0  0  0
 71145  1  0  0  0
 72 76  1  0  0  0
 72146  1  0  0  0
 73 75  1  0  0  0
 73 76  2  0  0  0
 73147  1  0  0  0
 74 75  2  0  0  0
 74 82  1  0  0  0
 75 78  1  0  0  0
 76 83  1  0  0  0
 77 80  1  0  0  0
 77 83  1  0  0  0
 77 84  2  0  0  0
 78148  1  0  0  0
 78149  1  0  0  0
 78150  1  0  0  0
 79 81  1  0  0  0
 79151  1  0  0  0
 79152  1  0  0  0
 79153  1  0  0  0
 80154  1  0  0  0
 80155  1  0  0  0
 81 82  1  0  0  0
 81156  1  0  0  0
 81157  1  0  0  0
 82 85  1  0  0  0
 83158  1  0  0  0
M  ISO  4   1 100  68 101  80 101  82 100
M  END
> <chiral flag>
0

> <version>
0

> <s_m_source_file>
/data/baiqing/PycharmProjects/Reinvent-master-3.2/result/LINK_invent/BTK/process_docking_weight1_custom_product_contain_oxygen_bond_distance_aromatic_linkinvent_7_9_3/rearranged_h_0064.sdf

> <i_m_source_file_index>
59

> <r_mmod_Potential_Energy-OPLS-2005>
552.654846191406

> <r_mmod_Stretch_Energy-OPLS-2005>
225.168853759766

> <r_mmod_Bend_Energy-OPLS-2005>
274.770385742188

> <r_mmod_Torsional_Energy-OPLS-2005>
195.219711303711

> <r_mmod_Improper_Torsional_Energy-OPLS-2005>
3.28558373451233

> <r_mmod_Van_der_Waal_Energy-OPLS-2005>
150.989166259766

> <r_mmod_Electrostatic_Energy-OPLS-2005>
-235.752380371094

> <r_mmod_Solvation_Energy-OPLS-2005>
-213.233917236328

> <b_mmod_Minimization_Converged-OPLS-2005>
0

> <r_mmod_RMS_Derivative-OPLS-2005>
1.63903343677521

$$$$
59
                    3D
 Structure written by MMmdl.
168177  0  0  1  0            999 V2000
  -30.5809  -14.7494   20.4766 C   0  0  0  0  0  0
  -30.4530  -12.4670   19.4535 C   0  0  0  0  0  0
  -29.5104  -12.4946   18.2297 C   0  0  0  0  0  0
  -28.0429  -12.3016   18.6618 C   0  0  0  0  0  0
  -27.6448  -13.2148   19.8505 C   0  0  2  0  0  0
  -28.6944  -13.1527   20.9811 C   0  0  0  0  0  0
  -25.2542  -13.8145   20.5690 C   0  0  0  0  0  0
  -24.1837  -13.0427   20.9180 C   0  0  0  0  0  0
  -24.6407  -11.6886   20.8758 C   0  0  0  0  0  0
  -23.9070  -10.4281   21.0417 C   0  0  0  0  0  0
  -24.3622   -9.4197   21.9193 C   0  0  0  0  0  0
  -23.6306   -8.2237   22.0761 C   0  0  0  0  0  0
  -22.4287   -8.0282   21.3546 C   0  0  0  0  0  0
  -21.9915   -9.0249   20.4647 C   0  0  0  0  0  0
  -22.7242  -10.2129   20.3058 C   0  0  0  0  0  0
  -21.6852   -6.0740   22.5293 C   0  0  0  0  0  0
  -21.4003   -6.5642   23.8218 C   0  0  0  0  0  0
  -21.3647   -5.6794   24.9174 C   0  0  0  0  0  0
  -21.6043   -4.3061   24.7229 C   0  0  0  0  0  0
  -21.8821   -3.8156   23.4350 C   0  0  0  0  0  0
  -21.9195   -4.6972   22.3408 C   0  0  0  0  0  0
  -22.7847  -13.5222   21.1832 C   0  0  0  0  0  0
  -22.1672   -4.2153   21.0990 F   0  0  0  0  0  0
  -21.5622   -3.4550   25.7740 F   0  0  0  0  0  0
  -29.9867  -13.5138   20.3856 N   0  0  0  0  0  0
  -26.2973  -12.9341   20.3317 N   0  0  0  0  0  0
  -25.9338  -11.6486   20.5786 N   0  0  0  0  0  0
  -22.0506  -12.8221   22.0397 N   0  0  0  0  0  0
  -25.4191  -15.1895   20.4097 N   0  0  0  0  0  0
  -31.7852  -14.8845   20.2470 O   0  0  0  0  0  0
  -21.6649   -6.8894   21.4254 O   0  0  0  0  0  0
  -22.3542  -14.5538   20.6686 O   0  0  0  0  0  0
  -24.6234  -31.8589   23.1976 C   0  0  0  0  0  0
  -25.9062  -32.4785   23.8334 C   0  0  1  0  0  0
  -27.2180  -27.2719   20.1161 C   0  0  0  0  0  0
  -25.5857  -33.8601   24.2256 N   0  0  0  0  0  0
  -23.4229  -30.4805   21.5422 C   0  0  2  0  0  0
  -24.8700  -28.9197   20.1111 C   0  0  0  0  0  0
  -22.7467  -29.4627   22.4921 C   0  0  0  0  0  0
  -18.0271  -28.1409   22.8494 C   0  0  0  0  0  0
  -24.1441  -36.7217   23.2680 C   0  0  0  0  0  0
  -25.9701  -30.7510   21.3957 C   0  0  0  0  0  0
  -26.0373  -29.3747   20.7389 C   0  0  0  0  0  0
  -27.2123  -28.5630   20.7370 C   0  0  0  0  0  0
  -26.0485  -26.8908   19.4271 C   0  0  0  0  0  0
  -24.8832  -27.6842   19.4403 C   0  0  0  0  0  0
  -23.6422  -29.8124   20.1604 C   0  0  0  0  0  0
  -25.4091  -36.3083   24.0351 C   0  0  1  0  0  0
  -20.5877  -28.3727   23.1243 C   0  0  2  0  0  0
  -20.6761  -26.9451   22.5397 C   0  0  0  0  0  0
  -19.5741  -26.6394   21.5218 C   0  0  0  0  0  0
  -18.1918  -26.7935   22.1640 C   0  0  0  0  0  0
  -19.1531  -28.8885   23.2878 C   0  0  0  0  0  0
  -18.9503  -30.1494   23.8890 C   0  0  0  0  0  0
  -17.6515  -30.6630   24.0592 C   0  0  0  0  0  0
  -25.9062  -34.9476   23.5122 C   0  0  0  0  0  0
  -16.5398  -29.9138   23.6377 C   0  0  0  0  0  0
  -16.7270  -28.6558   23.0354 C   0  0  0  0  0  0
  -26.4445  -31.6640   25.0757 C   0  0  0  0  0  0
  -25.3651  -31.3727   26.1480 C   0  0  0  0  0  0
  -27.0395  -30.3080   24.6298 C   0  0  0  0  0  0
  -27.6001  -32.4455   25.7447 C   0  0  0  0  0  0
  -27.5564  -37.1741   24.8496 C   0  0  0  0  0  0
  -21.4193  -29.3079   22.3636 N   0  0  0  0  0  0
  -26.4246  -37.3800   23.9490 N   0  0  0  0  0  0
  -24.6896  -31.0506   22.0969 N   0  0  0  0  0  0
  -23.4164  -28.8172   23.3018 O   0  0  0  0  0  0
  -28.3166  -26.3932   20.1224 O   0  0  0  0  0  0
  -26.5699  -34.8943   22.4742 O   0  0  0  0  0  0
  -23.5375  -32.1472   23.7216 O   0  0  0  0  0  0
  -29.5456  -18.3557   23.2449 C   0  0  0  0  0  0
  -29.6889  -17.1620   22.5222 C   0  0  0  0  0  0
  -29.6856  -18.4783   20.4753 C   0  0  0  0  0  0
  -29.5067  -19.6259   22.6269 C   0  0  0  0  0  0
  -29.5781  -19.7526   21.2015 C   0  0  0  0  0  0
  -29.7705  -17.1681   21.1194 C   0  0  0  0  0  0
  -31.3798  -22.8464   20.0759 C   0  0  0  0  0  0
  -30.5260  -23.8849   19.9621 C   0  0  0  0  0  0
  -31.0364  -21.4401   20.2737 C   0  0  0  0  0  0
  -28.6988  -22.2450   20.6455 C   0  0  0  0  0  0
  -29.0089  -23.7008   20.0037 C   0  0  1  0  0  0
  -28.0825  -20.8990   24.2917 C   0  0  0  0  0  0
  -31.2539  -25.4370   18.0969 C   0  0  0  0  0  0
  -29.4525  -20.8021   23.5961 C   0  0  0  0  0  0
  -31.1136  -25.2512   19.6160 C   0  0  0  0  0  0
  -28.1198  -24.9613   20.5409 C   0  0  0  0  0  0
  -29.7469  -21.1187   20.5895 N   0  0  0  0  0  0
  -29.7201  -15.8379   20.4695 N   0  0  0  0  0  0
  -31.9144  -20.5773   20.1673 O   0  0  0  0  0  0
  -31.4848  -12.6332   19.1375 H   0  0  0  0  0  0
  -30.4397  -11.4916   19.9410 H   0  0  0  0  0  0
  -29.7948  -11.7171   17.5198 H   0  0  0  0  0  0
  -29.6158  -13.4447   17.7043 H   0  0  0  0  0  0
  -27.9252  -11.2564   18.9510 H   0  0  0  0  0  0
  -27.3720  -12.4570   17.8164 H   0  0  0  0  0  0
  -27.6360  -14.2290   19.4532 H   0  0  0  0  0  0
  -28.7399  -12.1583   21.4253 H   0  0  0  0  0  0
  -28.4319  -13.8406   21.7881 H   0  0  0  0  0  0
  -25.2764   -9.5680   22.4763 H   0  0  0  0  0  0
  -24.0004   -7.4631   22.7476 H   0  0  0  0  0  0
  -21.0847   -8.8772   19.8953 H   0  0  0  0  0  0
  -22.3711  -10.9670   19.6165 H   0  0  0  0  0  0
  -21.1990   -7.6146   23.9728 H   0  0  0  0  0  0
  -21.1460   -6.0519   25.9075 H   0  0  0  0  0  0
  -22.0609   -2.7620   23.2857 H   0  0  0  0  0  0
  -22.4133  -11.9889   22.4803 H   0  0  0  0  0  0
  -21.1126  -13.1251   22.2617 H   0  0  0  0  0  0
  -24.6339  -15.8240   20.5024 H   0  0  0  0  0  0
  -26.2603  -15.6503   20.0953 H   0  0  0  0  0  0
  -26.7097  -32.5410   23.1029 H   0  0  0  0  0  0
  -24.9948  -33.9767   25.0350 H   0  0  0  0  0  0
  -22.7248  -31.3081   21.3979 H   0  0  0  0  0  0
  -23.3790  -35.9476   23.3342 H   0  0  0  0  0  0
  -24.3518  -36.8830   22.2105 H   0  0  0  0  0  0
  -23.7057  -37.6352   23.6697 H   0  0  0  0  0  0
  -26.1445  -31.5003   20.6219 H   0  0  0  0  0  0
  -26.8348  -30.7796   22.0492 H   0  0  0  0  0  0
  -28.1042  -28.9026   21.2491 H   0  0  0  0  0  0
  -26.0462  -25.9728   18.8552 H   0  0  0  0  0  0
  -24.0061  -27.3515   18.9040 H   0  0  0  0  0  0
  -23.7631  -30.5958   19.4120 H   0  0  0  0  0  0
  -22.7546  -29.2578   19.8522 H   0  0  0  0  0  0
  -25.1232  -36.1946   25.0824 H   0  0  0  0  0  0
  -21.0005  -28.3317   24.1345 H   0  0  0  0  0  0
  -20.5641  -26.2380   23.3622 H   0  0  0  0  0  0
  -21.6622  -26.7432   22.1225 H   0  0  0  0  0  0
  -19.6922  -25.6296   21.1280 H   0  0  0  0  0  0
  -19.6629  -27.3199   20.6743 H   0  0  0  0  0  0
  -17.4160  -26.6669   21.4059 H   0  0  0  0  0  0
  -18.0333  -26.0055   22.9026 H   0  0  0  0  0  0
  -19.8007  -30.7324   24.2180 H   0  0  0  0  0  0
  -17.5110  -31.6305   24.5233 H   0  0  0  0  0  0
  -15.5421  -30.3095   23.7722 H   0  0  0  0  0  0
  -15.8635  -28.0958   22.7025 H   0  0  0  0  0  0
  -24.5771  -30.7158   25.7728 H   0  0  0  0  0  0
  -24.8900  -32.2877   26.5042 H   0  0  0  0  0  0
  -25.7908  -30.8747   27.0204 H   0  0  0  0  0  0
  -26.3021  -29.6745   24.1355 H   0  0  0  0  0  0
  -27.4149  -29.7396   25.4830 H   0  0  0  0  0  0
  -27.8834  -30.4416   23.9526 H   0  0  0  0  0  0
  -27.2608  -33.3790   26.1949 H   0  0  0  0  0  0
  -28.3726  -32.7014   25.0174 H   0  0  0  0  0  0
  -28.0793  -31.8698   26.5372 H   0  0  0  0  0  0
  -28.2559  -38.0080   24.7671 H   0  0  0  0  0  0
  -28.1050  -36.2609   24.6122 H   0  0  0  0  0  0
  -27.2321  -37.1168   25.8911 H   0  0  0  0  0  0
  -20.9386  -29.8769   21.6812 H   0  0  0  0  0  0
  -26.0129  -38.2844   24.1612 H   0  0  0  0  0  0
  -29.4802  -18.2923   24.3231 H   0  0  0  0  0  0
  -29.6979  -16.2305   23.0730 H   0  0  0  0  0  0
  -29.7307  -18.5102   19.3959 H   0  0  0  0  0  0
  -32.4366  -23.0501   19.9715 H   0  0  0  0  0  0
  -27.7729  -21.8588   20.2216 H   0  0  0  0  0  0
  -28.4559  -22.4464   21.6832 H   0  0  0  0  0  0
  -28.7362  -23.6227   18.9495 H   0  0  0  0  0  0
  -28.0732  -21.6776   25.0530 H   0  0  0  0  0  0
  -27.8310  -19.9621   24.7935 H   0  0  0  0  0  0
  -27.2822  -21.1171   23.5844 H   0  0  0  0  0  0
  -31.6969  -26.4050   17.8594 H   0  0  0  0  0  0
  -30.2905  -25.3803   17.5836 H   0  0  0  0  0  0
  -31.9026  -24.6703   17.6691 H   0  0  0  0  0  0
  -29.7464  -21.7492   23.1491 H   0  0  0  0  0  0
  -30.2207  -20.6338   24.3534 H   0  0  0  0  0  0
  -32.1026  -25.3288   20.0719 H   0  0  0  0  0  0
  -30.5668  -26.0712   20.0701 H   0  0  0  0  0  0
  -28.1556  -24.9619   21.6294 H   0  0  0  0  0  0
  -27.0927  -24.6773   20.3188 H   0  0  0  0  0  0
  -28.7756  -15.5177   20.3256 H   0  0  0  0  0  0
  1 25  1  0  0  0
  1 30  2  0  0  0
  1 88  1  0  0  0
  2  3  1  0  0  0
  2 25  1  0  0  0
  2 90  1  0  0  0
  2 91  1  0  0  0
  3  4  1  0  0  0
  3 92  1  0  0  0
  3 93  1  0  0  0
  4  5  1  0  0  0
  4 94  1  0  0  0
  4 95  1  0  0  0
  5  6  1  0  0  0
  5 26  1  0  0  0
  5 96  1  0  0  0
  6 25  1  0  0  0
  6 97  1  0  0  0
  6 98  1  0  0  0
  7  8  2  0  0  0
  7 26  1  0  0  0
  7 29  1  0  0  0
  8  9  1  0  0  0
  8 22  1  0  0  0
  9 10  1  0  0  0
  9 27  2  0  0  0
 10 11  2  0  0  0
 10 15  1  0  0  0
 11 12  1  0  0  0
 11 99  1  0  0  0
 12 13  2  0  0  0
 12100  1  0  0  0
 13 14  1  0  0  0
 13 31  1  0  0  0
 14 15  2  0  0  0
 14101  1  0  0  0
 15102  1  0  0  0
 16 17  2  0  0  0
 16 21  1  0  0  0
 16 31  1  0  0  0
 17 18  1  0  0  0
 17103  1  0  0  0
 18 19  2  0  0  0
 18104  1  0  0  0
 19 20  1  0  0  0
 19 24  1  0  0  0
 20 21  2  0  0  0
 20105  1  0  0  0
 21 23  1  0  0  0
 22 28  1  0  0  0
 22 32  2  0  0  0
 26 27  1  0  0  0
 28106  1  0  0  0
 28107  1  0  0  0
 29108  1  0  0  0
 29109  1  0  0  0
 33 34  1  0  0  0
 33 66  1  0  0  0
 33 70  2  0  0  0
 34 36  1  0  0  0
 34 59  1  0  0  0
 34110  1  0  0  0
 35 44  2  0  0  0
 35 45  1  0  0  0
 35 68  1  0  0  0
 36 56  1  0  0  0
 36111  1  0  0  0
 37 39  1  0  0  0
 37 47  1  0  0  0
 37 66  1  0  0  0
 37112  1  0  0  0
 38 43  2  0  0  0
 38 46  1  0  0  0
 38 47  1  0  0  0
 39 64  1  0  0  0
 39 67  2  0  0  0
 40 52  1  0  0  0
 40 53  2  0  0  0
 40 58  1  0  0  0
 41113  1  0  0  0
 41114  1  0  0  0
 41115  1  0  0  0
 41 48  1  0  0  0
 42 43  1  0  0  0
 42 66  1  0  0  0
 42116  1  0  0  0
 42117  1  0  0  0
 43 44  1  0  0  0
 44118  1  0  0  0
 45 46  2  0  0  0
 45119  1  0  0  0
 46120  1  0  0  0
 47121  1  0  0  0
 47122  1  0  0  0
 48 56  1  0  0  0
 48 65  1  0  0  0
 48123  1  0  0  0
 49 50  1  0  0  0
 49 53  1  0  0  0
 49 64  1  0  0  0
 49124  1  0  0  0
 50 51  1  0  0  0
 50125  1  0  0  0
 50126  1  0  0  0
 51 52  1  0  0  0
 51127  1  0  0  0
 51128  1  0  0  0
 52129  1  0  0  0
 52130  1  0  0  0
 53 54  1  0  0  0
 54 55  2  0  0  0
 54131  1  0  0  0
 55 57  1  0  0  0
 55132  1  0  0  0
 56 69  2  0  0  0
 57 58  2  0  0  0
 57133  1  0  0  0
 58134  1  0  0  0
 59 60  1  0  0  0
 59 61  1  0  0  0
 59 62  1  0  0  0
 60135  1  0  0  0
 60136  1  0  0  0
 60137  1  0  0  0
 61138  1  0  0  0
 61139  1  0  0  0
 61140  1  0  0  0
 62141  1  0  0  0
 62142  1  0  0  0
 62143  1  0  0  0
 63 65  1  0  0  0
 63144  1  0  0  0
 63145  1  0  0  0
 63146  1  0  0  0
 64147  1  0  0  0
 65148  1  0  0  0
 68 86  1  0  0  0
 71 72  2  0  0  0
 71 74  1  0  0  0
 71149  1  0  0  0
 72 76  1  0  0  0
 72150  1  0  0  0
 73 75  1  0  0  0
 73 76  2  0  0  0
 73151  1  0  0  0
 74 75  2  0  0  0
 74 84  1  0  0  0
 75 87  1  0  0  0
 76 88  1  0  0  0
 77 78  2  0  0  0
 77 79  1  0  0  0
 77152  1  0  0  0
 78 81  1  0  0  0
 78 85  1  0  0  0
 79 87  1  0  0  0
 79 89  2  0  0  0
 80 81  1  0  0  0
 80 87  1  0  0  0
 80153  1  0  0  0
 80154  1  0  0  0
 81 86  1  0  0  0
 81155  1  0  0  0
 82 84  1  0  0  0
 82156  1  0  0  0
 82157  1  0  0  0
 82158  1  0  0  0
 83 85  1  0  0  0
 83159  1  0  0  0
 83160  1  0  0  0
 83161  1  0  0  0
 84162  1  0  0  0
 84163  1  0  0  0
 85164  1  0  0  0
 85165  1  0  0  0
 86166  1  0  0  0
 86167  1  0  0  0
 88168  1  0  0  0
M  ISO  4   1 100  68 101  86 101  88 100
M  END
> <chiral flag>
0

> <version>
0

> <s_m_source_file>
/data/baiqing/PycharmProjects/Reinvent-master-3.2/result/LINK_invent/BTK/process_docking_weight1_custom_product_contain_oxygen_bond_distance_aromatic_linkinvent_7_9_3/rearranged_h_0064.sdf

> <i_m_source_file_index>
60

> <r_mmod_Potential_Energy-OPLS-2005>
384.760528564453

> <r_mmod_Stretch_Energy-OPLS-2005>
138.971633911133

> <r_mmod_Bend_Energy-OPLS-2005>
198.734359741211

> <r_mmod_Torsional_Energy-OPLS-2005>
350.252624511719

> <r_mmod_Improper_Torsional_Energy-OPLS-2005>
14.2230606079102

> <r_mmod_Van_der_Waal_Energy-OPLS-2005>
152.117263793945

> <r_mmod_Electrostatic_Energy-OPLS-2005>
-337.439971923828

> <r_mmod_Solvation_Energy-OPLS-2005>
-220.529296875

> <b_mmod_Minimization_Converged-OPLS-2005>
0

> <r_mmod_RMS_Derivative-OPLS-2005>
5.51546764373779

$$$$
61
                    3D
 Structure written by MMmdl.
160169  0  0  1  0            999 V2000
  -30.5763  -14.7532   20.4496 C   0  0  0  0  0  0
  -30.4359  -12.4548   19.4894 C   0  0  0  0  0  0
  -29.5168  -12.5176   18.2465 C   0  0  0  0  0  0
  -28.0395  -12.3467   18.6481 C   0  0  0  0  0  0
  -27.6460  -13.2323   19.8592 C   0  0  2  0  0  0
  -28.6853  -13.1424   20.9993 C   0  0  0  0  0  0
  -25.2529  -13.8202   20.5673 C   0  0  0  0  0  0
  -24.1805  -13.0453   20.9165 C   0  0  0  0  0  0
  -24.6389  -11.6928   20.8708 C   0  0  0  0  0  0
  -23.9051  -10.4308   21.0362 C   0  0  0  0  0  0
  -24.3599   -9.4221   21.9141 C   0  0  0  0  0  0
  -23.6277   -8.2259   22.0709 C   0  0  0  0  0  0
  -22.4258   -8.0296   21.3513 C   0  0  0  0  0  0
  -21.9900   -9.0267   20.4611 C   0  0  0  0  0  0
  -22.7220  -10.2148   20.3010 C   0  0  0  0  0  0
  -21.6842   -6.0753   22.5265 C   0  0  0  0  0  0
  -21.4019   -6.5643   23.8207 C   0  0  0  0  0  0
  -21.3666   -5.6786   24.9162 C   0  0  0  0  0  0
  -21.6040   -4.3045   24.7194 C   0  0  0  0  0  0
  -21.8822   -3.8148   23.4313 C   0  0  0  0  0  0
  -21.9181   -4.6978   22.3383 C   0  0  0  0  0  0
  -22.7831  -13.5232   21.1839 C   0  0  0  0  0  0
  -22.1643   -4.2168   21.0961 F   0  0  0  0  0  0
  -21.5637   -3.4524   25.7704 F   0  0  0  0  0  0
  -29.9897  -13.5069   20.4345 N   0  0  0  0  0  0
  -26.2953  -12.9402   20.3284 N   0  0  0  0  0  0
  -25.9326  -11.6538   20.5722 N   0  0  0  0  0  0
  -22.0487  -12.8228   22.0412 N   0  0  0  0  0  0
  -25.4325  -15.1911   20.4116 N   0  0  0  0  0  0
  -31.7416  -14.8834   20.0595 O   0  0  0  0  0  0
  -21.6605   -6.8905   21.4227 O   0  0  0  0  0  0
  -22.3525  -14.5549   20.6702 O   0  0  0  0  0  0
  -24.6360  -31.8511   23.1957 C   0  0  0  0  0  0
  -25.9180  -32.4720   23.8310 C   0  0  1  0  0  0
  -27.2200  -27.2427   20.1229 C   0  0  0  0  0  0
  -25.5977  -33.8527   24.2246 N   0  0  0  0  0  0
  -23.4333  -30.4747   21.5374 C   0  0  2  0  0  0
  -24.8778  -28.9146   20.1068 C   0  0  0  0  0  0
  -22.7517  -29.4596   22.4881 C   0  0  0  0  0  0
  -18.0283  -28.1410   22.8487 C   0  0  0  0  0  0
  -24.1486  -36.7260   23.2646 C   0  0  0  0  0  0
  -25.9798  -30.7573   21.3772 C   0  0  0  0  0  0
  -26.0479  -29.3787   20.7180 C   0  0  0  0  0  0
  -27.2187  -28.5535   20.7158 C   0  0  0  0  0  0
  -26.0207  -26.8400   19.4966 C   0  0  0  0  0  0
  -24.8692  -27.6549   19.4868 C   0  0  0  0  0  0
  -23.6521  -29.8071   20.1537 C   0  0  0  0  0  0
  -25.4105  -36.3036   24.0336 C   0  0  1  0  0  0
  -20.5898  -28.3715   23.1264 C   0  0  2  0  0  0
  -20.6773  -26.9432   22.5406 C   0  0  0  0  0  0
  -19.5749  -26.6390   21.5222 C   0  0  0  0  0  0
  -18.1922  -26.7953   22.1620 C   0  0  0  0  0  0
  -19.1539  -28.8877   23.2876 C   0  0  0  0  0  0
  -18.9458  -30.1479   23.8901 C   0  0  0  0  0  0
  -17.6459  -30.6615   24.0559 C   0  0  0  0  0  0
  -25.9061  -34.9420   23.5081 C   0  0  0  0  0  0
  -16.5353  -29.9108   23.6346 C   0  0  0  0  0  0
  -16.7265  -28.6522   23.0370 C   0  0  0  0  0  0
  -26.4550  -31.6562   25.0717 C   0  0  0  0  0  0
  -25.3770  -31.3736   26.1436 C   0  0  0  0  0  0
  -27.0433  -30.2982   24.6245 C   0  0  0  0  0  0
  -27.6097  -32.4320   25.7492 C   0  0  0  0  0  0
  -27.5576  -37.1777   24.8466 C   0  0  0  0  0  0
  -21.4215  -29.3058   22.3647 N   0  0  0  0  0  0
  -26.4270  -37.3746   23.9425 N   0  0  0  0  0  0
  -24.7024  -31.0475   22.0930 N   0  0  0  0  0  0
  -23.4203  -28.8124   23.2982 O   0  0  0  0  0  0
  -28.3327  -26.3724   20.2083 O   0  0  0  0  0  0
  -26.5608  -34.8909   22.4633 O   0  0  0  0  0  0
  -23.5511  -32.1324   23.7264 O   0  0  0  0  0  0
  -28.8767  -19.4140   18.4459 C   0  0  0  0  0  0
  -29.3502  -17.0157   18.6617 C   0  0  0  0  0  0
  -29.4497  -18.4735   20.6120 C   0  0  0  0  0  0
  -28.9713  -18.1233   17.8689 C   0  0  0  0  0  0
  -29.1036  -19.6597   19.8210 C   0  0  0  0  0  0
  -29.5936  -17.1328   20.0449 C   0  0  0  0  0  0
  -29.3239  -21.6490   21.4412 C   0  0  0  0  0  0
  -28.6578  -17.8943   16.4262 C   0  0  0  0  0  0
  -29.1641  -23.1938   21.4650 C   0  0  0  0  0  0
  -28.4759  -22.2407   19.4123 C   0  0  0  0  0  0
  -28.2571  -23.5633   20.2783 C   0  0  2  0  0  0
  -28.1132  -19.0648   15.6128 C   0  0  0  0  0  0
  -28.4359  -25.0168   19.5560 C   0  0  0  0  0  0
  -28.9463  -21.0889   20.2711 N   0  0  0  0  0  0
  -29.8072  -15.8624   20.7895 N   0  0  0  0  0  0
  -29.7561  -21.0375   22.4215 O   0  0  0  0  0  0
  -28.7961  -16.8025   15.8679 O   0  0  0  0  0  0
  -31.4788  -12.5839   19.1925 H   0  0  0  0  0  0
  -30.3883  -11.4725   19.9621 H   0  0  0  0  0  0
  -29.7995  -11.7490   17.5260 H   0  0  0  0  0  0
  -29.6474  -13.4750   17.7381 H   0  0  0  0  0  0
  -27.8810  -11.2954   18.8900 H   0  0  0  0  0  0
  -27.3919  -12.5633   17.7978 H   0  0  0  0  0  0
  -27.6500  -14.2581   19.4894 H   0  0  0  0  0  0
  -28.7223  -12.1342   21.4134 H   0  0  0  0  0  0
  -28.4149  -13.7999   21.8258 H   0  0  0  0  0  0
  -25.2759   -9.5684   22.4705 H   0  0  0  0  0  0
  -23.9964   -7.4663   22.7436 H   0  0  0  0  0  0
  -21.0828   -8.8796   19.8932 H   0  0  0  0  0  0
  -22.3679  -10.9676   19.6113 H   0  0  0  0  0  0
  -21.2016   -7.6154   23.9723 H   0  0  0  0  0  0
  -21.1486   -6.0502   25.9071 H   0  0  0  0  0  0
  -22.0598   -2.7612   23.2782 H   0  0  0  0  0  0
  -22.4081  -11.9851   22.4755 H   0  0  0  0  0  0
  -21.1120  -13.1271   22.2647 H   0  0  0  0  0  0
  -24.6844  -15.8640   20.5353 H   0  0  0  0  0  0
  -26.3029  -15.6183   20.1209 H   0  0  0  0  0  0
  -26.7246  -32.5364   23.1050 H   0  0  0  0  0  0
  -25.0202  -33.9645   25.0450 H   0  0  0  0  0  0
  -22.7329  -31.2995   21.3885 H   0  0  0  0  0  0
  -23.3754  -35.9588   23.3265 H   0  0  0  0  0  0
  -24.3597  -36.8918   22.2067 H   0  0  0  0  0  0
  -23.7229  -37.6449   23.6685 H   0  0  0  0  0  0
  -26.1258  -31.5164   20.6076 H   0  0  0  0  0  0
  -26.8564  -30.8034   22.0127 H   0  0  0  0  0  0
  -28.1152  -28.9022   21.2098 H   0  0  0  0  0  0
  -25.9311  -25.8659   19.0427 H   0  0  0  0  0  0
  -23.9682  -27.2908   19.0111 H   0  0  0  0  0  0
  -23.7856  -30.5815   19.3974 H   0  0  0  0  0  0
  -22.7696  -29.2448   19.8446 H   0  0  0  0  0  0
  -25.1292  -36.1859   25.0827 H   0  0  0  0  0  0
  -20.9991  -28.3279   24.1387 H   0  0  0  0  0  0
  -20.5676  -26.2330   23.3612 H   0  0  0  0  0  0
  -21.6637  -26.7462   22.1193 H   0  0  0  0  0  0
  -19.6901  -25.6287   21.1284 H   0  0  0  0  0  0
  -19.6693  -27.3175   20.6735 H   0  0  0  0  0  0
  -17.4200  -26.6719   21.4008 H   0  0  0  0  0  0
  -18.0295  -26.0097   22.9012 H   0  0  0  0  0  0
  -19.7935  -30.7293   24.2273 H   0  0  0  0  0  0
  -17.5018  -31.6306   24.5132 H   0  0  0  0  0  0
  -15.5349  -30.3014   23.7686 H   0  0  0  0  0  0
  -15.8653  -28.0847   22.7102 H   0  0  0  0  0  0
  -24.5940  -30.7089   25.7768 H   0  0  0  0  0  0
  -24.8976  -32.2917   26.4837 H   0  0  0  0  0  0
  -25.8083  -30.8926   27.0221 H   0  0  0  0  0  0
  -26.3048  -29.6675   24.1283 H   0  0  0  0  0  0
  -27.4126  -29.7302   25.4791 H   0  0  0  0  0  0
  -27.8907  -30.4255   23.9507 H   0  0  0  0  0  0
  -27.2702  -33.3626   26.2046 H   0  0  0  0  0  0
  -28.3922  -32.6860   25.0332 H   0  0  0  0  0  0
  -28.0748  -31.8460   26.5426 H   0  0  0  0  0  0
  -28.2561  -38.0107   24.7546 H   0  0  0  0  0  0
  -28.1102  -36.2639   24.6231 H   0  0  0  0  0  0
  -27.2316  -37.1351   25.8876 H   0  0  0  0  0  0
  -20.9397  -29.8802   21.6876 H   0  0  0  0  0  0
  -26.0136  -38.2816   24.1432 H   0  0  0  0  0  0
  -28.6135  -20.2454   17.8105 H   0  0  0  0  0  0
  -29.3987  -16.0391   18.1969 H   0  0  0  0  0  0
  -29.6012  -18.5863   21.6756 H   0  0  0  0  0  0
  -30.1498  -23.6470   21.3557 H   0  0  0  0  0  0
  -28.7406  -23.5291   22.4125 H   0  0  0  0  0  0
  -29.2366  -22.4229   18.6519 H   0  0  0  0  0  0
  -27.5562  -21.9803   18.8875 H   0  0  0  0  0  0
  -27.2322  -23.5308   20.6488 H   0  0  0  0  0  0
  -27.1884  -19.4358   16.0535 H   0  0  0  0  0  0
  -27.8981  -18.7521   14.5909 H   0  0  0  0  0  0
  -28.8398  -19.8752   15.5757 H   0  0  0  0  0  0
  -27.8277  -25.0099   18.6536 H   0  0  0  0  0  0
  -29.4497  -25.0092   19.1550 H   0  0  0  0  0  0
  -29.0387  -15.6268   21.4002 H   0  0  0  0  0  0
  1 25  1  0  0  0
  1 30  2  0  0  0
  1 85  1  0  0  0
  2  3  1  0  0  0
  2 25  1  0  0  0
  2 88  1  0  0  0
  2 89  1  0  0  0
  3  4  1  0  0  0
  3 90  1  0  0  0
  3 91  1  0  0  0
  4  5  1  0  0  0
  4 92  1  0  0  0
  4 93  1  0  0  0
  5  6  1  0  0  0
  5 26  1  0  0  0
  5 94  1  0  0  0
  6 25  1  0  0  0
  6 95  1  0  0  0
  6 96  1  0  0  0
  7  8  2  0  0  0
  7 26  1  0  0  0
  7 29  1  0  0  0
  8  9  1  0  0  0
  8 22  1  0  0  0
  9 10  1  0  0  0
  9 27  2  0  0  0
 10 11  2  0  0  0
 10 15  1  0  0  0
 11 12  1  0  0  0
 11 97  1  0  0  0
 12 13  2  0  0  0
 12 98  1  0  0  0
 13 14  1  0  0  0
 13 31  1  0  0  0
 14 15  2  0  0  0
 14 99  1  0  0  0
 15100  1  0  0  0
 16 17  2  0  0  0
 16 21  1  0  0  0
 16 31  1  0  0  0
 17 18  1  0  0  0
 17101  1  0  0  0
 18 19  2  0  0  0
 18102  1  0  0  0
 19 20  1  0  0  0
 19 24  1  0  0  0
 20 21  2  0  0  0
 20103  1  0  0  0
 21 23  1  0  0  0
 22 28  1  0  0  0
 22 32  2  0  0  0
 26 27  1  0  0  0
 28104  1  0  0  0
 28105  1  0  0  0
 29106  1  0  0  0
 29107  1  0  0  0
 33 34  1  0  0  0
 33 66  1  0  0  0
 33 70  2  0  0  0
 34 36  1  0  0  0
 34 59  1  0  0  0
 34108  1  0  0  0
 35 44  2  0  0  0
 35 45  1  0  0  0
 35 68  1  0  0  0
 36 56  1  0  0  0
 36109  1  0  0  0
 37 39  1  0  0  0
 37 47  1  0  0  0
 37 66  1  0  0  0
 37110  1  0  0  0
 38 43  2  0  0  0
 38 46  1  0  0  0
 38 47  1  0  0  0
 39 64  1  0  0  0
 39 67  2  0  0  0
 40 52  1  0  0  0
 40 53  2  0  0  0
 40 58  1  0  0  0
 41111  1  0  0  0
 41112  1  0  0  0
 41113  1  0  0  0
 41 48  1  0  0  0
 42 43  1  0  0  0
 42 66  1  0  0  0
 42114  1  0  0  0
 42115  1  0  0  0
 43 44  1  0  0  0
 44116  1  0  0  0
 45 46  2  0  0  0
 45117  1  0  0  0
 46118  1  0  0  0
 47119  1  0  0  0
 47120  1  0  0  0
 48 56  1  0  0  0
 48 65  1  0  0  0
 48121  1  0  0  0
 49 50  1  0  0  0
 49 53  1  0  0  0
 49 64  1  0  0  0
 49122  1  0  0  0
 50 51  1  0  0  0
 50123  1  0  0  0
 50124  1  0  0  0
 51 52  1  0  0  0
 51125  1  0  0  0
 51126  1  0  0  0
 52127  1  0  0  0
 52128  1  0  0  0
 53 54  1  0  0  0
 54 55  2  0  0  0
 54129  1  0  0  0
 55 57  1  0  0  0
 55130  1  0  0  0
 56 69  2  0  0  0
 57 58  2  0  0  0
 57131  1  0  0  0
 58132  1  0  0  0
 59 60  1  0  0  0
 59 61  1  0  0  0
 59 62  1  0  0  0
 60133  1  0  0  0
 60134  1  0  0  0
 60135  1  0  0  0
 61136  1  0  0  0
 61137  1  0  0  0
 61138  1  0  0  0
 62139  1  0  0  0
 62140  1  0  0  0
 62141  1  0  0  0
 63 65  1  0  0  0
 63142  1  0  0  0
 63143  1  0  0  0
 63144  1  0  0  0
 64145  1  0  0  0
 65146  1  0  0  0
 68 83  1  0  0  0
 71 74  2  0  0  0
 71 75  1  0  0  0
 71147  1  0  0  0
 72 74  1  0  0  0
 72 76  2  0  0  0
 72148  1  0  0  0
 73 75  2  0  0  0
 73 76  1  0  0  0
 73149  1  0  0  0
 74 78  1  0  0  0
 75 84  1  0  0  0
 76 85  1  0  0  0
 77 79  1  0  0  0
 77 84  1  0  0  0
 77 86  2  0  0  0
 78 82  1  0  0  0
 78 87  2  0  0  0
 79 81  1  0  0  0
 79150  1  0  0  0
 79151  1  0  0  0
 80 81  1  0  0  0
 80 84  1  0  0  0
 80152  1  0  0  0
 80153  1  0  0  0
 81 83  1  0  0  0
 81154  1  0  0  0
 82155  1  0  0  0
 82156  1  0  0  0
 82157  1  0  0  0
 83158  1  0  0  0
 83159  1  0  0  0
 85160  1  0  0  0
M  ISO  4   1 100  68 101  83 101  85 100
M  END
> <chiral flag>
0

> <version>
0

> <s_m_source_file>
/data/baiqing/PycharmProjects/Reinvent-master-3.2/result/LINK_invent/BTK/process_docking_weight1_custom_product_contain_oxygen_bond_distance_aromatic_linkinvent_7_9_3/rearranged_h_0064.sdf

> <i_m_source_file_index>
61

> <r_mmod_Potential_Energy-OPLS-2005>
251.590179443359

> <r_mmod_Stretch_Energy-OPLS-2005>
133.616485595703

> <r_mmod_Bend_Energy-OPLS-2005>
216.498611450195

> <r_mmod_Torsional_Energy-OPLS-2005>
306.560363769531

> <r_mmod_Improper_Torsional_Energy-OPLS-2005>
5.4867115020752

> <r_mmod_Van_der_Waal_Energy-OPLS-2005>
134.95166015625

> <r_mmod_Electrostatic_Energy-OPLS-2005>
-391.526489257812

> <r_mmod_Solvation_Energy-OPLS-2005>
-244.75390625

> <b_mmod_Minimization_Converged-OPLS-2005>
0

> <r_mmod_RMS_Derivative-OPLS-2005>
2.23101496696472

$$$$
62
                    3D
 Structure written by MMmdl.
155164  0  0  1  0            999 V2000
  -30.6216  -14.6360   20.4936 C   0  0  0  0  0  0
  -30.4394  -12.3908   19.4447 C   0  0  0  0  0  0
  -29.5041  -12.5073   18.2196 C   0  0  0  0  0  0
  -28.0282  -12.3422   18.6351 C   0  0  0  0  0  0
  -27.6525  -13.2148   19.8628 C   0  0  2  0  0  0
  -28.7001  -13.0665   20.9895 C   0  0  0  0  0  0
  -25.2550  -13.8158   20.5689 C   0  0  0  0  0  0
  -24.1814  -13.0420   20.9166 C   0  0  0  0  0  0
  -24.6391  -11.6896   20.8731 C   0  0  0  0  0  0
  -23.9065  -10.4280   21.0401 C   0  0  0  0  0  0
  -24.3617   -9.4201   21.9183 C   0  0  0  0  0  0
  -23.6292   -8.2238   22.0753 C   0  0  0  0  0  0
  -22.4273   -8.0277   21.3545 C   0  0  0  0  0  0
  -21.9909   -9.0248   20.4646 C   0  0  0  0  0  0
  -22.7237  -10.2127   20.3052 C   0  0  0  0  0  0
  -21.6849   -6.0740   22.5285 C   0  0  0  0  0  0
  -21.4006   -6.5640   23.8217 C   0  0  0  0  0  0
  -21.3659   -5.6792   24.9179 C   0  0  0  0  0  0
  -21.6044   -4.3057   24.7225 C   0  0  0  0  0  0
  -21.8819   -3.8150   23.4346 C   0  0  0  0  0  0
  -21.9189   -4.6969   22.3406 C   0  0  0  0  0  0
  -22.7838  -13.5220   21.1842 C   0  0  0  0  0  0
  -22.1659   -4.2156   21.0986 F   0  0  0  0  0  0
  -21.5632   -3.4541   25.7738 F   0  0  0  0  0  0
  -30.0156  -13.4094   20.4245 N   0  0  0  0  0  0
  -26.2990  -12.9343   20.3341 N   0  0  0  0  0  0
  -25.9324  -11.6496   20.5766 N   0  0  0  0  0  0
  -22.0486  -12.8216   22.0406 N   0  0  0  0  0  0
  -25.4217  -15.1887   20.4171 N   0  0  0  0  0  0
  -31.7887  -14.7982   20.1251 O   0  0  0  0  0  0
  -21.6634   -6.8879   21.4244 O   0  0  0  0  0  0
  -22.3518  -14.5531   20.6705 O   0  0  0  0  0  0
  -24.6256  -31.8611   23.2037 C   0  0  0  0  0  0
  -25.9109  -32.4787   23.8352 C   0  0  1  0  0  0
  -27.2208  -27.3249   20.1093 C   0  0  0  0  0  0
  -25.5922  -33.8585   24.2281 N   0  0  0  0  0  0
  -23.4179  -30.4874   21.5467 C   0  0  2  0  0  0
  -24.8636  -28.9477   20.1094 C   0  0  0  0  0  0
  -22.7469  -29.4636   22.4935 C   0  0  0  0  0  0
  -18.0288  -28.1384   22.8495 C   0  0  0  0  0  0
  -24.1487  -36.7293   23.2639 C   0  0  0  0  0  0
  -25.9593  -30.7946   21.3733 C   0  0  0  0  0  0
  -26.0331  -29.4224   20.7157 C   0  0  0  0  0  0
  -27.2149  -28.6224   20.7084 C   0  0  0  0  0  0
  -26.0270  -26.9106   19.4700 C   0  0  0  0  0  0
  -24.8626  -27.6972   19.4774 C   0  0  0  0  0  0
  -23.6311  -29.8257   20.1608 C   0  0  0  0  0  0
  -25.4110  -36.3085   24.0332 C   0  0  1  0  0  0
  -20.5890  -28.3684   23.1288 C   0  0  2  0  0  0
  -20.6782  -26.9409   22.5409 C   0  0  0  0  0  0
  -19.5753  -26.6382   21.5218 C   0  0  0  0  0  0
  -18.1932  -26.7926   22.1631 C   0  0  0  0  0  0
  -19.1542  -28.8848   23.2892 C   0  0  0  0  0  0
  -18.9469  -30.1450   23.8909 C   0  0  0  0  0  0
  -17.6470  -30.6589   24.0564 C   0  0  0  0  0  0
  -25.9048  -34.9456   23.5105 C   0  0  0  0  0  0
  -16.5360  -29.9090   23.6329 C   0  0  0  0  0  0
  -16.7275  -28.6506   23.0355 C   0  0  0  0  0  0
  -26.4495  -31.6583   25.0708 C   0  0  0  0  0  0
  -25.3727  -31.3723   26.1433 C   0  0  0  0  0  0
  -27.0331  -30.3013   24.6131 C   0  0  0  0  0  0
  -27.6054  -32.4306   25.7487 C   0  0  0  0  0  0
  -27.5576  -37.1795   24.8466 C   0  0  0  0  0  0
  -21.4183  -29.3044   22.3681 N   0  0  0  0  0  0
  -26.4286  -37.3780   23.9414 N   0  0  0  0  0  0
  -24.6867  -31.0632   22.0985 N   0  0  0  0  0  0
  -23.4202  -28.8169   23.3003 O   0  0  0  0  0  0
  -28.3315  -26.4647   20.1681 O   0  0  0  0  0  0
  -26.5621  -34.8925   22.4674 O   0  0  0  0  0  0
  -23.5423  -32.1392   23.7377 O   0  0  0  0  0  0
  -31.0681  -19.2905   20.3281 C   0  0  0  0  0  0
  -31.0869  -17.8686   20.4531 C   0  0  0  0  0  0
  -28.6839  -19.3093   20.6007 C   0  0  0  0  0  0
  -29.8670  -20.0663   20.3812 C   0  0  0  0  0  0
  -29.8956  -17.1274   20.6533 C   0  0  0  0  0  0
  -28.6997  -17.8884   20.7292 C   0  0  0  0  0  0
  -30.7889  -22.3277   19.6784 C   0  0  0  0  0  0
  -30.3979  -23.8105   19.6260 C   0  0  0  0  0  0
  -28.6580  -22.4135   20.5013 C   0  0  0  0  0  0
  -29.1295  -23.9218   20.4734 C   0  0  2  0  0  0
  -28.0741  -25.0147   20.0064 C   0  0  0  0  0  0
  -29.8313  -21.5397   20.2247 N   0  0  0  0  0  0
  -29.7976  -15.6784   20.8158 N   0  0  0  0  0  0
  -31.8780  -21.9590   19.2299 O   0  0  0  0  0  0
  -27.5302  -17.2321   20.9212 F   0  0  0  0  0  0
  -31.4791  -12.5204   19.1391 H   0  0  0  0  0  0
  -30.3788  -11.3939   19.8843 H   0  0  0  0  0  0
  -29.7674  -11.7583   17.4717 H   0  0  0  0  0  0
  -29.6418  -13.4778   17.7402 H   0  0  0  0  0  0
  -27.8685  -11.2888   18.8686 H   0  0  0  0  0  0
  -27.3705  -12.5677   17.7944 H   0  0  0  0  0  0
  -27.6681  -14.2497   19.5202 H   0  0  0  0  0  0
  -28.7122  -12.0432   21.3679 H   0  0  0  0  0  0
  -28.4486  -13.6955   21.8450 H   0  0  0  0  0  0
  -25.2764   -9.5681   22.4752 H   0  0  0  0  0  0
  -24.0004   -7.4630   22.7469 H   0  0  0  0  0  0
  -21.0843   -8.8764   19.8950 H   0  0  0  0  0  0
  -22.3698  -10.9663   19.6158 H   0  0  0  0  0  0
  -21.1989   -7.6143   23.9725 H   0  0  0  0  0  0
  -21.1482   -6.0519   25.9084 H   0  0  0  0  0  0
  -22.0598   -2.7611   23.2845 H   0  0  0  0  0  0
  -22.4099  -11.9874   22.4790 H   0  0  0  0  0  0
  -21.1109  -13.1248   22.2621 H   0  0  0  0  0  0
  -24.6578  -15.8373   20.5682 H   0  0  0  0  0  0
  -26.2962  -15.6611   20.2195 H   0  0  0  0  0  0
  -26.7174  -32.5467   23.1097 H   0  0  0  0  0  0
  -25.0062  -33.9730   25.0422 H   0  0  0  0  0  0
  -22.7108  -31.3079   21.4061 H   0  0  0  0  0  0
  -23.3754  -35.9621   23.3298 H   0  0  0  0  0  0
  -24.3580  -36.8912   22.2053 H   0  0  0  0  0  0
  -23.7234  -37.6492   23.6661 H   0  0  0  0  0  0
  -26.0850  -31.5570   20.6032 H   0  0  0  0  0  0
  -26.8428  -30.8464   21.9979 H   0  0  0  0  0  0
  -28.1101  -28.9798   21.1974 H   0  0  0  0  0  0
  -25.9574  -25.9605   18.9626 H   0  0  0  0  0  0
  -23.9679  -27.3313   18.9925 H   0  0  0  0  0  0
  -23.7474  -30.6028   19.4046 H   0  0  0  0  0  0
  -22.7515  -29.2538   19.8598 H   0  0  0  0  0  0
  -25.1291  -36.1931   25.0824 H   0  0  0  0  0  0
  -20.9989  -28.3261   24.1407 H   0  0  0  0  0  0
  -20.5695  -26.2294   23.3609 H   0  0  0  0  0  0
  -21.6648  -26.7447   22.1194 H   0  0  0  0  0  0
  -19.6918  -25.6295   21.1243 H   0  0  0  0  0  0
  -19.6692  -27.3199   20.6756 H   0  0  0  0  0  0
  -17.4202  -26.6680   21.4033 H   0  0  0  0  0  0
  -18.0332  -26.0062   22.9022 H   0  0  0  0  0  0
  -19.7948  -30.7261   24.2285 H   0  0  0  0  0  0
  -17.5030  -31.6275   24.5155 H   0  0  0  0  0  0
  -15.5363  -30.3003   23.7644 H   0  0  0  0  0  0
  -15.8674  -28.0828   22.7071 H   0  0  0  0  0  0
  -24.5910  -30.7065   25.7760 H   0  0  0  0  0  0
  -24.8912  -32.2897   26.4831 H   0  0  0  0  0  0
  -25.8045  -30.8917   27.0219 H   0  0  0  0  0  0
  -26.2892  -29.6768   24.1168 H   0  0  0  0  0  0
  -27.4071  -29.7254   25.4605 H   0  0  0  0  0  0
  -27.8744  -30.4318   23.9318 H   0  0  0  0  0  0
  -27.2668  -33.3612   26.2054 H   0  0  0  0  0  0
  -28.3879  -32.6846   25.0324 H   0  0  0  0  0  0
  -28.0701  -31.8427   26.5412 H   0  0  0  0  0  0
  -28.2586  -38.0100   24.7520 H   0  0  0  0  0  0
  -28.1076  -36.2628   24.6280 H   0  0  0  0  0  0
  -27.2295  -37.1430   25.8870 H   0  0  0  0  0  0
  -20.9350  -29.8763   21.6895 H   0  0  0  0  0  0
  -26.0167  -38.2853   24.1425 H   0  0  0  0  0  0
  -32.0250  -19.7725   20.1957 H   0  0  0  0  0  0
  -32.0375  -17.3574   20.4023 H   0  0  0  0  0  0
  -27.7303  -19.8122   20.6625 H   0  0  0  0  0  0
  -30.2116  -24.0840   18.5874 H   0  0  0  0  0  0
  -31.1977  -24.4447   20.0086 H   0  0  0  0  0  0
  -27.9104  -22.2358   19.7265 H   0  0  0  0  0  0
  -28.2008  -22.1633   21.4589 H   0  0  0  0  0  0
  -29.4313  -24.1783   21.4899 H   0  0  0  0  0  0
  -27.1628  -24.7841   20.5615 H   0  0  0  0  0  0
  -27.8472  -24.8262   18.9563 H   0  0  0  0  0  0
  -28.8707  -15.3751   21.0720 H   0  0  0  0  0  0
  1 25  1  0  0  0
  1 30  2  0  0  0
  1 83  1  0  0  0
  2  3  1  0  0  0
  2 25  1  0  0  0
  2 86  1  0  0  0
  2 87  1  0  0  0
  3  4  1  0  0  0
  3 88  1  0  0  0
  3 89  1  0  0  0
  4  5  1  0  0  0
  4 90  1  0  0  0
  4 91  1  0  0  0
  5  6  1  0  0  0
  5 26  1  0  0  0
  5 92  1  0  0  0
  6 25  1  0  0  0
  6 93  1  0  0  0
  6 94  1  0  0  0
  7  8  2  0  0  0
  7 26  1  0  0  0
  7 29  1  0  0  0
  8  9  1  0  0  0
  8 22  1  0  0  0
  9 10  1  0  0  0
  9 27  2  0  0  0
 10 11  2  0  0  0
 10 15  1  0  0  0
 11 12  1  0  0  0
 11 95  1  0  0  0
 12 13  2  0  0  0
 12 96  1  0  0  0
 13 14  1  0  0  0
 13 31  1  0  0  0
 14 15  2  0  0  0
 14 97  1  0  0  0
 15 98  1  0  0  0
 16 17  2  0  0  0
 16 21  1  0  0  0
 16 31  1  0  0  0
 17 18  1  0  0  0
 17 99  1  0  0  0
 18 19  2  0  0  0
 18100  1  0  0  0
 19 20  1  0  0  0
 19 24  1  0  0  0
 20 21  2  0  0  0
 20101  1  0  0  0
 21 23  1  0  0  0
 22 28  1  0  0  0
 22 32  2  0  0  0
 26 27  1  0  0  0
 28102  1  0  0  0
 28103  1  0  0  0
 29104  1  0  0  0
 29105  1  0  0  0
 33 34  1  0  0  0
 33 66  1  0  0  0
 33 70  2  0  0  0
 34 36  1  0  0  0
 34 59  1  0  0  0
 34106  1  0  0  0
 35 44  2  0  0  0
 35 45  1  0  0  0
 35 68  1  0  0  0
 36 56  1  0  0  0
 36107  1  0  0  0
 37 39  1  0  0  0
 37 47  1  0  0  0
 37 66  1  0  0  0
 37108  1  0  0  0
 38 43  2  0  0  0
 38 46  1  0  0  0
 38 47  1  0  0  0
 39 64  1  0  0  0
 39 67  2  0  0  0
 40 52  1  0  0  0
 40 53  2  0  0  0
 40 58  1  0  0  0
 41109  1  0  0  0
 41110  1  0  0  0
 41111  1  0  0  0
 41 48  1  0  0  0
 42 43  1  0  0  0
 42 66  1  0  0  0
 42112  1  0  0  0
 42113  1  0  0  0
 43 44  1  0  0  0
 44114  1  0  0  0
 45 46  2  0  0  0
 45115  1  0  0  0
 46116  1  0  0  0
 47117  1  0  0  0
 47118  1  0  0  0
 48 56  1  0  0  0
 48 65  1  0  0  0
 48119  1  0  0  0
 49 50  1  0  0  0
 49 53  1  0  0  0
 49 64  1  0  0  0
 49120  1  0  0  0
 50 51  1  0  0  0
 50121  1  0  0  0
 50122  1  0  0  0
 51 52  1  0  0  0
 51123  1  0  0  0
 51124  1  0  0  0
 52125  1  0  0  0
 52126  1  0  0  0
 53 54  1  0  0  0
 54 55  2  0  0  0
 54127  1  0  0  0
 55 57  1  0  0  0
 55128  1  0  0  0
 56 69  2  0  0  0
 57 58  2  0  0  0
 57129  1  0  0  0
 58130  1  0  0  0
 59 60  1  0  0  0
 59 61  1  0  0  0
 59 62  1  0  0  0
 60131  1  0  0  0
 60132  1  0  0  0
 60133  1  0  0  0
 61134  1  0  0  0
 61135  1  0  0  0
 61136  1  0  0  0
 62137  1  0  0  0
 62138  1  0  0  0
 62139  1  0  0  0
 63 65  1  0  0  0
 63140  1  0  0  0
 63141  1  0  0  0
 63142  1  0  0  0
 64143  1  0  0  0
 65144  1  0  0  0
 68 81  1  0  0  0
 71 72  2  0  0  0
 71 74  1  0  0  0
 71145  1  0  0  0
 72 75  1  0  0  0
 72146  1  0  0  0
 73 74  2  0  0  0
 73 76  1  0  0  0
 73147  1  0  0  0
 74 82  1  0  0  0
 75 76  2  0  0  0
 75 83  1  0  0  0
 76 85  1  0  0  0
 77 78  1  0  0  0
 77 82  1  0  0  0
 77 84  2  0  0  0
 78 80  1  0  0  0
 78148  1  0  0  0
 78149  1  0  0  0
 79 80  1  0  0  0
 79 82  1  0  0  0
 79150  1  0  0  0
 79151  1  0  0  0
 80 81  1  0  0  0
 80152  1  0  0  0
 81153  1  0  0  0
 81154  1  0  0  0
 83155  1  0  0  0
M  ISO  4   1 100  68 101  81 101  83 100
M  END
> <chiral flag>
0

> <version>
0

> <s_m_source_file>
/data/baiqing/PycharmProjects/Reinvent-master-3.2/result/LINK_invent/BTK/process_docking_weight1_custom_product_contain_oxygen_bond_distance_aromatic_linkinvent_7_9_3/rearranged_h_0064.sdf

> <i_m_source_file_index>
62

> <r_mmod_Potential_Energy-OPLS-2005>
77.1957092285156

> <r_mmod_Stretch_Energy-OPLS-2005>
77.9300765991211

> <r_mmod_Bend_Energy-OPLS-2005>
163.4208984375

> <r_mmod_Torsional_Energy-OPLS-2005>
257.959747314453

> <r_mmod_Improper_Torsional_Energy-OPLS-2005>
4.53385448455811

> <r_mmod_Van_der_Waal_Energy-OPLS-2005>
149.647888183594

> <r_mmod_Electrostatic_Energy-OPLS-2005>
-410.917633056641

> <r_mmod_Solvation_Energy-OPLS-2005>
-213.570922851562

> <b_mmod_Minimization_Converged-OPLS-2005>
0

> <r_mmod_RMS_Derivative-OPLS-2005>
0.817499816417694

$$$$
63
                    3D
 Structure written by MMmdl.
167176  0  0  1  0            999 V2000
  -30.6243  -14.6403   20.5127 C   0  0  0  0  0  0
  -30.4393  -12.3938   19.4594 C   0  0  0  0  0  0
  -29.5106  -12.5109   18.2297 C   0  0  0  0  0  0
  -28.0330  -12.3477   18.6389 C   0  0  0  0  0  0
  -27.6548  -13.2177   19.8673 C   0  0  2  0  0  0
  -28.6972  -13.0696   20.9991 C   0  0  0  0  0  0
  -25.2549  -13.8163   20.5653 C   0  0  0  0  0  0
  -24.1825  -13.0432   20.9186 C   0  0  0  0  0  0
  -24.6402  -11.6905   20.8744 C   0  0  0  0  0  0
  -23.9070  -10.4291   21.0411 C   0  0  0  0  0  0
  -24.3617   -9.4205   21.9191 C   0  0  0  0  0  0
  -23.6292   -8.2241   22.0758 C   0  0  0  0  0  0
  -22.4274   -8.0281   21.3547 C   0  0  0  0  0  0
  -21.9913   -9.0253   20.4645 C   0  0  0  0  0  0
  -22.7245  -10.2133   20.3059 C   0  0  0  0  0  0
  -21.6852   -6.0738   22.5280 C   0  0  0  0  0  0
  -21.4014   -6.5640   23.8212 C   0  0  0  0  0  0
  -21.3658   -5.6793   24.9174 C   0  0  0  0  0  0
  -21.6043   -4.3058   24.7225 C   0  0  0  0  0  0
  -21.8820   -3.8150   23.4344 C   0  0  0  0  0  0
  -21.9191   -4.6967   22.3402 C   0  0  0  0  0  0
  -22.7848  -13.5229   21.1846 C   0  0  0  0  0  0
  -22.1661   -4.2155   21.0980 F   0  0  0  0  0  0
  -21.5625   -3.4542   25.7735 F   0  0  0  0  0  0
  -30.0156  -13.4131   20.4415 N   0  0  0  0  0  0
  -26.2995  -12.9354   20.3329 N   0  0  0  0  0  0
  -25.9334  -11.6509   20.5774 N   0  0  0  0  0  0
  -22.0487  -12.8218   22.0397 N   0  0  0  0  0  0
  -25.4225  -15.1872   20.3978 N   0  0  0  0  0  0
  -31.7761  -14.8049   20.0989 O   0  0  0  0  0  0
  -21.6637   -6.8880   21.4242 O   0  0  0  0  0  0
  -22.3537  -14.5536   20.6697 O   0  0  0  0  0  0
  -24.6259  -31.8605   23.2037 C   0  0  0  0  0  0
  -25.9112  -32.4786   23.8356 C   0  0  1  0  0  0
  -27.2243  -27.3259   20.1139 C   0  0  0  0  0  0
  -25.5932  -33.8584   24.2291 N   0  0  0  0  0  0
  -23.4184  -30.4852   21.5468 C   0  0  2  0  0  0
  -24.8654  -28.9455   20.1094 C   0  0  0  0  0  0
  -22.7472  -29.4623   22.4942 C   0  0  0  0  0  0
  -18.0282  -28.1376   22.8475 C   0  0  0  0  0  0
  -24.1492  -36.7290   23.2637 C   0  0  0  0  0  0
  -25.9597  -30.7946   21.3732 C   0  0  0  0  0  0
  -26.0344  -29.4235   20.7145 C   0  0  0  0  0  0
  -27.2170  -28.6250   20.7074 C   0  0  0  0  0  0
  -26.0305  -26.9053   19.4791 C   0  0  0  0  0  0
  -24.8657  -27.6919   19.4820 C   0  0  0  0  0  0
  -23.6325  -29.8233   20.1606 C   0  0  0  0  0  0
  -25.4114  -36.3085   24.0336 C   0  0  1  0  0  0
  -20.5883  -28.3676   23.1289 C   0  0  2  0  0  0
  -20.6772  -26.9401   22.5406 C   0  0  0  0  0  0
  -19.5751  -26.6378   21.5205 C   0  0  0  0  0  0
  -18.1926  -26.7918   22.1615 C   0  0  0  0  0  0
  -19.1536  -28.8843   23.2873 C   0  0  0  0  0  0
  -18.9464  -30.1444   23.8896 C   0  0  0  0  0  0
  -17.6466  -30.6578   24.0559 C   0  0  0  0  0  0
  -25.9053  -34.9455   23.5112 C   0  0  0  0  0  0
  -16.5353  -29.9078   23.6331 C   0  0  0  0  0  0
  -16.7272  -28.6498   23.0344 C   0  0  0  0  0  0
  -26.4501  -31.6583   25.0716 C   0  0  0  0  0  0
  -25.3735  -31.3704   26.1439 C   0  0  0  0  0  0
  -27.0347  -30.3018   24.6146 C   0  0  0  0  0  0
  -27.6057  -32.4313   25.7496 C   0  0  0  0  0  0
  -27.5579  -37.1802   24.8466 C   0  0  0  0  0  0
  -21.4186  -29.3042   22.3697 N   0  0  0  0  0  0
  -26.4291  -37.3777   23.9412 N   0  0  0  0  0  0
  -24.6869  -31.0624   22.0990 N   0  0  0  0  0  0
  -23.4202  -28.8156   23.3009 O   0  0  0  0  0  0
  -28.3388  -26.4713   20.1780 O   0  0  0  0  0  0
  -26.5607  -34.8921   22.4670 O   0  0  0  0  0  0
  -23.5426  -32.1395   23.7377 O   0  0  0  0  0  0
  -30.7785  -19.2183   19.7375 C   0  0  0  0  0  0
  -30.8080  -17.8029   19.9109 C   0  0  0  0  0  0
  -28.9393  -19.3900   21.2614 C   0  0  0  0  0  0
  -28.9627  -17.9709   21.4451 C   0  0  0  0  0  0
  -29.8507  -20.0711   20.4105 C   0  0  0  0  0  0
  -29.9009  -17.1323   20.7708 C   0  0  0  0  0  0
  -30.8301  -22.3301   19.7899 C   0  0  0  0  0  0
  -28.6689  -22.4345   20.5484 C   0  0  0  0  0  0
  -30.4398  -23.8255   19.6900 C   0  0  1  0  0  0
  -29.1490  -23.9379   20.5158 C   0  0  1  0  0  0
  -27.9507  -17.3555   22.3978 C   0  0  0  0  0  0
  -32.1997  -24.6330   21.4467 C   0  0  0  0  0  0
  -32.6028  -25.0511   18.9836 C   0  0  0  0  0  0
  -28.0950  -25.0197   20.0179 C   0  0  0  0  0  0
  -31.5318  -24.8714   20.0759 C   0  0  0  0  0  0
  -29.8236  -21.5448   20.2448 N   0  0  0  0  0  0
  -29.8385  -15.6763   20.9471 N   0  0  0  0  0  0
  -31.9615  -21.9440   19.4811 O   0  0  0  0  0  0
  -31.4814  -12.5174   19.1588 H   0  0  0  0  0  0
  -30.3733  -11.3974   19.8987 H   0  0  0  0  0  0
  -29.7766  -11.7614   17.4828 H   0  0  0  0  0  0
  -29.6526  -13.4820   17.7524 H   0  0  0  0  0  0
  -27.8696  -11.2941   18.8693 H   0  0  0  0  0  0
  -27.3794  -12.5782   17.7969 H   0  0  0  0  0  0
  -27.6751  -14.2541   19.5300 H   0  0  0  0  0  0
  -28.7069  -12.0471   21.3788 H   0  0  0  0  0  0
  -28.4374  -13.6970   21.8529 H   0  0  0  0  0  0
  -25.2762   -9.5681   22.4767 H   0  0  0  0  0  0
  -23.9998   -7.4634   22.7480 H   0  0  0  0  0  0
  -21.0845   -8.8775   19.8950 H   0  0  0  0  0  0
  -22.3709  -10.9671   19.6164 H   0  0  0  0  0  0
  -21.2011   -7.6147   23.9719 H   0  0  0  0  0  0
  -21.1476   -6.0522   25.9076 H   0  0  0  0  0  0
  -22.0600   -2.7614   23.2843 H   0  0  0  0  0  0
  -22.4095  -11.9870   22.4773 H   0  0  0  0  0  0
  -21.1105  -13.1248   22.2601 H   0  0  0  0  0  0
  -24.6459  -15.8336   20.4816 H   0  0  0  0  0  0
  -26.2566  -15.6185   20.0209 H   0  0  0  0  0  0
  -26.7176  -32.5468   23.1099 H   0  0  0  0  0  0
  -25.0104  -33.9733   25.0452 H   0  0  0  0  0  0
  -22.7116  -31.3056   21.4048 H   0  0  0  0  0  0
  -23.3763  -35.9611   23.3293 H   0  0  0  0  0  0
  -24.3584  -36.8911   22.2050 H   0  0  0  0  0  0
  -23.7234  -37.6489   23.6659 H   0  0  0  0  0  0
  -26.0857  -31.5591   20.6052 H   0  0  0  0  0  0
  -26.8426  -30.8450   21.9988 H   0  0  0  0  0  0
  -28.1123  -28.9855   21.1941 H   0  0  0  0  0  0
  -25.9630  -25.9488   18.9831 H   0  0  0  0  0  0
  -23.9709  -27.3224   18.9999 H   0  0  0  0  0  0
  -23.7496  -30.6010   19.4056 H   0  0  0  0  0  0
  -22.7539  -29.2511   19.8571 H   0  0  0  0  0  0
  -25.1290  -36.1936   25.0828 H   0  0  0  0  0  0
  -20.9966  -28.3239   24.1414 H   0  0  0  0  0  0
  -20.5670  -26.2281   23.3598 H   0  0  0  0  0  0
  -21.6643  -26.7424   22.1203 H   0  0  0  0  0  0
  -19.6919  -25.6291   21.1229 H   0  0  0  0  0  0
  -19.6701  -27.3195   20.6741 H   0  0  0  0  0  0
  -17.4197  -26.6667   21.4016 H   0  0  0  0  0  0
  -18.0327  -26.0052   22.9008 H   0  0  0  0  0  0
  -19.7943  -30.7254   24.2270 H   0  0  0  0  0  0
  -17.5023  -31.6264   24.5150 H   0  0  0  0  0  0
  -15.5356  -30.2981   23.7662 H   0  0  0  0  0  0
  -15.8668  -28.0824   22.7061 H   0  0  0  0  0  0
  -24.5945  -30.7014   25.7767 H   0  0  0  0  0  0
  -24.8889  -32.2863   26.4835 H   0  0  0  0  0  0
  -25.8065  -30.8913   27.0229 H   0  0  0  0  0  0
  -26.2914  -29.6769   24.1184 H   0  0  0  0  0  0
  -27.4083  -29.7266   25.4625 H   0  0  0  0  0  0
  -27.8761  -30.4323   23.9335 H   0  0  0  0  0  0
  -27.2675  -33.3628   26.2042 H   0  0  0  0  0  0
  -28.3892  -32.6837   25.0340 H   0  0  0  0  0  0
  -28.0691  -31.8451   26.5440 H   0  0  0  0  0  0
  -28.2584  -38.0110   24.7519 H   0  0  0  0  0  0
  -28.1089  -36.2640   24.6286 H   0  0  0  0  0  0
  -27.2299  -37.1439   25.8869 H   0  0  0  0  0  0
  -20.9358  -29.8783   21.6927 H   0  0  0  0  0  0
  -26.0177  -38.2853   24.1414 H   0  0  0  0  0  0
  -31.4945  -19.6305   19.0436 H   0  0  0  0  0  0
  -31.5378  -17.2377   19.3491 H   0  0  0  0  0  0
  -28.2046  -19.9660   21.8049 H   0  0  0  0  0  0
  -27.9026  -22.2648   19.7913 H   0  0  0  0  0  0
  -28.2271  -22.1997   21.5165 H   0  0  0  0  0  0
  -30.1719  -23.9819   18.6441 H   0  0  0  0  0  0
  -29.4032  -24.1982   21.5424 H   0  0  0  0  0  0
  -27.3383  -18.1175   22.8811 H   0  0  0  0  0  0
  -28.4566  -16.7928   23.1827 H   0  0  0  0  0  0
  -27.2810  -16.6809   21.8665 H   0  0  0  0  0  0
  -31.4743  -24.5819   22.2577 H   0  0  0  0  0  0
  -32.8862  -25.4452   21.6894 H   0  0  0  0  0  0
  -32.7786  -23.7094   21.4614 H   0  0  0  0  0  0
  -32.1513  -25.2789   18.0177 H   0  0  0  0  0  0
  -33.2179  -24.1598   18.8607 H   0  0  0  0  0  0
  -33.2735  -25.8761   19.2269 H   0  0  0  0  0  0
  -27.1752  -24.7830   20.5550 H   0  0  0  0  0  0
  -27.8915  -24.8262   18.9641 H   0  0  0  0  0  0
  -31.0217  -25.8330   20.1470 H   0  0  0  0  0  0
  -28.9824  -15.3518   21.3684 H   0  0  0  0  0  0
  1 25  1  0  0  0
  1 30  2  0  0  0
  1 87  1  0  0  0
  2  3  1  0  0  0
  2 25  1  0  0  0
  2 89  1  0  0  0
  2 90  1  0  0  0
  3  4  1  0  0  0
  3 91  1  0  0  0
  3 92  1  0  0  0
  4  5  1  0  0  0
  4 93  1  0  0  0
  4 94  1  0  0  0
  5  6  1  0  0  0
  5 26  1  0  0  0
  5 95  1  0  0  0
  6 25  1  0  0  0
  6 96  1  0  0  0
  6 97  1  0  0  0
  7  8  2  0  0  0
  7 26  1  0  0  0
  7 29  1  0  0  0
  8  9  1  0  0  0
  8 22  1  0  0  0
  9 10  1  0  0  0
  9 27  2  0  0  0
 10 11  2  0  0  0
 10 15  1  0  0  0
 11 12  1  0  0  0
 11 98  1  0  0  0
 12 13  2  0  0  0
 12 99  1  0  0  0
 13 14  1  0  0  0
 13 31  1  0  0  0
 14 15  2  0  0  0
 14100  1  0  0  0
 15101  1  0  0  0
 16 17  2  0  0  0
 16 21  1  0  0  0
 16 31  1  0  0  0
 17 18  1  0  0  0
 17102  1  0  0  0
 18 19  2  0  0  0
 18103  1  0  0  0
 19 20  1  0  0  0
 19 24  1  0  0  0
 20 21  2  0  0  0
 20104  1  0  0  0
 21 23  1  0  0  0
 22 28  1  0  0  0
 22 32  2  0  0  0
 26 27  1  0  0  0
 28105  1  0  0  0
 28106  1  0  0  0
 29107  1  0  0  0
 29108  1  0  0  0
 33 34  1  0  0  0
 33 66  1  0  0  0
 33 70  2  0  0  0
 34 36  1  0  0  0
 34 59  1  0  0  0
 34109  1  0  0  0
 35 44  2  0  0  0
 35 45  1  0  0  0
 35 68  1  0  0  0
 36 56  1  0  0  0
 36110  1  0  0  0
 37 39  1  0  0  0
 37 47  1  0  0  0
 37 66  1  0  0  0
 37111  1  0  0  0
 38 43  2  0  0  0
 38 46  1  0  0  0
 38 47  1  0  0  0
 39 64  1  0  0  0
 39 67  2  0  0  0
 40 52  1  0  0  0
 40 53  2  0  0  0
 40 58  1  0  0  0
 41112  1  0  0  0
 41113  1  0  0  0
 41114  1  0  0  0
 41 48  1  0  0  0
 42 43  1  0  0  0
 42 66  1  0  0  0
 42115  1  0  0  0
 42116  1  0  0  0
 43 44  1  0  0  0
 44117  1  0  0  0
 45 46  2  0  0  0
 45118  1  0  0  0
 46119  1  0  0  0
 47120  1  0  0  0
 47121  1  0  0  0
 48 56  1  0  0  0
 48 65  1  0  0  0
 48122  1  0  0  0
 49 50  1  0  0  0
 49 53  1  0  0  0
 49 64  1  0  0  0
 49123  1  0  0  0
 50 51  1  0  0  0
 50124  1  0  0  0
 50125  1  0  0  0
 51 52  1  0  0  0
 51126  1  0  0  0
 51127  1  0  0  0
 52128  1  0  0  0
 52129  1  0  0  0
 53 54  1  0  0  0
 54 55  2  0  0  0
 54130  1  0  0  0
 55 57  1  0  0  0
 55131  1  0  0  0
 56 69  2  0  0  0
 57 58  2  0  0  0
 57132  1  0  0  0
 58133  1  0  0  0
 59 60  1  0  0  0
 59 61  1  0  0  0
 59 62  1  0  0  0
 60134  1  0  0  0
 60135  1  0  0  0
 60136  1  0  0  0
 61137  1  0  0  0
 61138  1  0  0  0
 61139  1  0  0  0
 62140  1  0  0  0
 62141  1  0  0  0
 62142  1  0  0  0
 63 65  1  0  0  0
 63143  1  0  0  0
 63144  1  0  0  0
 63145  1  0  0  0
 64146  1  0  0  0
 65147  1  0  0  0
 68 84  1  0  0  0
 71 72  2  0  0  0
 71 75  1  0  0  0
 71148  1  0  0  0
 72 76  1  0  0  0
 72149  1  0  0  0
 73 74  1  0  0  0
 73 75  2  0  0  0
 73150  1  0  0  0
 74 76  2  0  0  0
 74 81  1  0  0  0
 75 86  1  0  0  0
 76 87  1  0  0  0
 77 86  1  0  0  0
 77 88  2  0  0  0
 77 79  1  0  0  0
 78 80  1  0  0  0
 78 86  1  0  0  0
 78151  1  0  0  0
 78152  1  0  0  0
 79 80  1  0  0  0
 79 85  1  0  0  0
 79153  1  0  0  0
 80 84  1  0  0  0
 80154  1  0  0  0
 81155  1  0  0  0
 81156  1  0  0  0
 81157  1  0  0  0
 82158  1  0  0  0
 82159  1  0  0  0
 82160  1  0  0  0
 82 85  1  0  0  0
 83 85  1  0  0  0
 83161  1  0  0  0
 83162  1  0  0  0
 83163  1  0  0  0
 84164  1  0  0  0
 84165  1  0  0  0
 85166  1  0  0  0
 87167  1  0  0  0
M  ISO  4   1 100  68 101  84 101  87 100
M  END
> <chiral flag>
0

> <version>
0

> <s_m_source_file>
/data/baiqing/PycharmProjects/Reinvent-master-3.2/result/LINK_invent/BTK/process_docking_weight1_custom_product_contain_oxygen_bond_distance_aromatic_linkinvent_7_9_3/rearranged_h_0064.sdf

> <i_m_source_file_index>
63

> <r_mmod_Potential_Energy-OPLS-2005>
147.914016723633

> <r_mmod_Stretch_Energy-OPLS-2005>
83.3942489624023

> <r_mmod_Bend_Energy-OPLS-2005>
169.036758422852

> <r_mmod_Torsional_Energy-OPLS-2005>
253.828796386719

> <r_mmod_Improper_Torsional_Energy-OPLS-2005>
3.59230589866638

> <r_mmod_Van_der_Waal_Energy-OPLS-2005>
148.836273193359

> <r_mmod_Electrostatic_Energy-OPLS-2005>
-343.483795166016

> <r_mmod_Solvation_Energy-OPLS-2005>
-214.981246948242

> <b_mmod_Minimization_Converged-OPLS-2005>
0

> <r_mmod_RMS_Derivative-OPLS-2005>
0.896277487277985

$$$$
64
                    3D
 Structure written by MMmdl.
167176  0  0  1  0            999 V2000
  -30.4402  -15.3781   20.3508 C   0  0  0  0  0  0
  -30.4249  -12.8951   19.5228 C   0  0  0  0  0  0
  -29.5310  -12.5890   18.2947 C   0  0  0  0  0  0
  -28.0910  -12.2884   18.7371 C   0  0  0  0  0  0
  -27.6016  -13.2856   19.8139 C   0  0  2  0  0  0
  -28.6321  -13.5363   20.9367 C   0  0  0  0  0  0
  -25.2360  -13.8263   20.5779 C   0  0  0  0  0  0
  -24.1724  -13.0434   20.9279 C   0  0  0  0  0  0
  -24.6394  -11.6936   20.8772 C   0  0  0  0  0  0
  -23.9097  -10.4294   21.0400 C   0  0  0  0  0  0
  -24.3634   -9.4209   21.9184 C   0  0  0  0  0  0
  -23.6301   -8.2246   22.0754 C   0  0  0  0  0  0
  -22.4286   -8.0282   21.3542 C   0  0  0  0  0  0
  -21.9921   -9.0256   20.4648 C   0  0  0  0  0  0
  -22.7256  -10.2133   20.3057 C   0  0  0  0  0  0
  -21.6856   -6.0740   22.5278 C   0  0  0  0  0  0
  -21.4014   -6.5645   23.8204 C   0  0  0  0  0  0
  -21.3650   -5.6798   24.9170 C   0  0  0  0  0  0
  -21.6042   -4.3056   24.7221 C   0  0  0  0  0  0
  -21.8822   -3.8146   23.4343 C   0  0  0  0  0  0
  -21.9198   -4.6967   22.3402 C   0  0  0  0  0  0
  -22.7742  -13.5187   21.1908 C   0  0  0  0  0  0
  -22.1669   -4.2146   21.0981 F   0  0  0  0  0  0
  -21.5623   -3.4540   25.7736 F   0  0  0  0  0  0
  -29.8437  -14.0719   20.2887 N   0  0  0  0  0  0
  -26.2788  -12.9552   20.3226 N   0  0  0  0  0  0
  -25.9334  -11.6651   20.5734 N   0  0  0  0  0  0
  -22.0404  -12.8172   22.0459 N   0  0  0  0  0  0
  -25.3997  -15.2002   20.4217 N   0  0  0  0  0  0
  -31.6709  -15.2615   20.2290 O   0  0  0  0  0  0
  -21.6643   -6.8874   21.4236 O   0  0  0  0  0  0
  -22.3427  -14.5486   20.6744 O   0  0  0  0  0  0
  -24.6677  -31.8148   23.1651 C   0  0  0  0  0  0
  -25.9333  -32.4527   23.8132 C   0  0  1  0  0  0
  -27.2154  -26.8657   20.2010 C   0  0  0  0  0  0
  -25.5986  -33.8353   24.2029 N   0  0  0  0  0  0
  -23.4853  -30.4263   21.5134 C   0  0  2  0  0  0
  -24.9406  -28.8024   20.1108 C   0  0  0  0  0  0
  -22.7694  -29.4402   22.4739 C   0  0  0  0  0  0
  -18.0333  -28.1410   22.8452 C   0  0  0  0  0  0
  -24.1482  -36.7177   23.2653 C   0  0  0  0  0  0
  -26.0585  -30.6026   21.4069 C   0  0  0  0  0  0
  -26.1232  -29.1866   20.7528 C   0  0  0  0  0  0
  -27.2530  -28.2403   20.7726 C   0  0  0  0  0  0
  -26.0118  -26.6595   19.4877 C   0  0  0  0  0  0
  -24.9144  -27.5616   19.4548 C   0  0  0  0  0  0
  -23.7296  -29.7386   20.1408 C   0  0  0  0  0  0
  -25.4124  -36.2917   24.0286 C   0  0  1  0  0  0
  -20.5962  -28.3758   23.1172 C   0  0  2  0  0  0
  -20.6798  -26.9435   22.5406 C   0  0  0  0  0  0
  -19.5774  -26.6378   21.5221 C   0  0  0  0  0  0
  -18.1956  -26.7945   22.1618 C   0  0  0  0  0  0
  -19.1598  -28.8909   23.2791 C   0  0  0  0  0  0
  -18.9518  -30.1504   23.8819 C   0  0  0  0  0  0
  -17.6511  -30.6600   24.0555 C   0  0  0  0  0  0
  -25.9112  -34.9309   23.4981 C   0  0  0  0  0  0
  -16.5398  -29.9081   23.6349 C   0  0  0  0  0  0
  -16.7317  -28.6503   23.0353 C   0  0  0  0  0  0
  -26.4581  -31.6506   25.0688 C   0  0  0  0  0  0
  -25.3685  -31.3790   26.1322 C   0  0  0  0  0  0
  -27.0496  -30.2858   24.6491 C   0  0  0  0  0  0
  -27.6048  -32.4361   25.7496 C   0  0  0  0  0  0
  -27.5547  -37.1733   24.8468 C   0  0  0  0  0  0
  -21.4359  -29.3038   22.3501 N   0  0  0  0  0  0
  -26.4246  -37.3677   23.9426 N   0  0  0  0  0  0
  -24.7588  -30.9760   22.0820 N   0  0  0  0  0  0
  -23.4217  -28.7991   23.3019 O   0  0  0  0  0  0
  -28.2120  -25.7328   20.2793 O   0  0  0  0  0  0
  -26.5733  -34.8857   22.4584 O   0  0  0  0  0  0
  -23.5730  -32.1174   23.6678 O   0  0  0  0  0  0
  -31.5242  -18.1981   19.5054 C   0  0  0  0  0  0
  -32.1839  -19.3443   19.2190 C   0  0  0  0  0  0
  -30.2061  -18.3044   20.0839 C   0  0  0  0  0  0
  -29.8120  -19.8278   20.1098 C   0  0  0  0  0  0
  -29.0971  -22.6532   20.0211 C   0  0  0  0  0  0
  -27.1564  -23.5661   21.4892 C   0  0  2  0  0  0
  -28.0080  -24.0560   20.2655 C   0  0  1  0  0  0
  -27.5838  -22.1724   22.1586 C   0  0  1  0  0  0
  -25.6498  -23.5793   21.1422 C   0  0  0  0  0  0
  -27.5996  -20.9683   24.4789 C   0  0  0  0  0  0
  -26.5300  -23.1816   24.3589 C   0  0  0  0  0  0
  -27.4352  -19.6259   21.6519 C   0  0  0  0  0  0
  -26.8274  -21.9096   23.5234 C   0  0  0  0  0  0
  -28.8238  -21.0628   20.3927 N   0  0  0  0  0  0
  -27.5944  -21.0044   21.1612 N   0  0  0  0  0  0
  -29.7575  -16.7403   20.3784 N   0  0  0  0  0  0
  -31.2388  -20.7138   19.5630 S   0  0  0  0  0  0
  -31.4351  -13.1023   19.1707 H   0  0  0  0  0  0
  -30.5196  -12.0178   20.1646 H   0  0  0  0  0  0
  -29.9340  -11.7493   17.7277 H   0  0  0  0  0  0
  -29.5315  -13.4455   17.6194 H   0  0  0  0  0  0
  -28.0782  -11.2774   19.1443 H   0  0  0  0  0  0
  -27.4160  -12.2833   17.8790 H   0  0  0  0  0  0
  -27.4936  -14.2300   19.2785 H   0  0  0  0  0  0
  -28.8351  -12.6303   21.5099 H   0  0  0  0  0  0
  -28.2491  -14.2725   21.6442 H   0  0  0  0  0  0
  -25.2771   -9.5689   22.4766 H   0  0  0  0  0  0
  -24.0004   -7.4640   22.7473 H   0  0  0  0  0  0
  -21.0845   -8.8774   19.8956 H   0  0  0  0  0  0
  -22.3698  -10.9675   19.6172 H   0  0  0  0  0  0
  -21.2007   -7.6151   23.9707 H   0  0  0  0  0  0
  -21.1465   -6.0525   25.9066 H   0  0  0  0  0  0
  -22.0609   -2.7604   23.2845 H   0  0  0  0  0  0
  -22.4049  -11.9844   22.4846 H   0  0  0  0  0  0
  -21.1011  -13.1166   22.2654 H   0  0  0  0  0  0
  -24.6274  -15.8476   20.5330 H   0  0  0  0  0  0
  -26.2410  -15.6405   20.0747 H   0  0  0  0  0  0
  -26.7379  -32.5037   23.0822 H   0  0  0  0  0  0
  -25.0081  -33.9431   25.0144 H   0  0  0  0  0  0
  -22.8019  -31.2587   21.3355 H   0  0  0  0  0  0
  -23.3751  -35.9503   23.3280 H   0  0  0  0  0  0
  -24.3556  -36.8865   22.2081 H   0  0  0  0  0  0
  -23.7252  -37.6350   23.6753 H   0  0  0  0  0  0
  -26.2499  -31.3397   20.6245 H   0  0  0  0  0  0
  -26.9143  -30.6547   22.0686 H   0  0  0  0  0  0
  -28.1445  -28.5357   21.3073 H   0  0  0  0  0  0
  -25.8834  -25.7192   18.9740 H   0  0  0  0  0  0
  -24.0240  -27.2653   18.9196 H   0  0  0  0  0  0
  -23.8932  -30.5070   19.3844 H   0  0  0  0  0  0
  -22.8382  -29.1975   19.8181 H   0  0  0  0  0  0
  -25.1333  -36.1674   25.0776 H   0  0  0  0  0  0
  -21.0051  -28.3350   24.1299 H   0  0  0  0  0  0
  -20.5701  -26.2369   23.3640 H   0  0  0  0  0  0
  -21.6649  -26.7407   22.1208 H   0  0  0  0  0  0
  -19.6947  -25.6283   21.1264 H   0  0  0  0  0  0
  -19.6709  -27.3162   20.6736 H   0  0  0  0  0  0
  -17.4232  -26.6710   21.4009 H   0  0  0  0  0  0
  -18.0319  -26.0108   22.9028 H   0  0  0  0  0  0
  -19.8005  -30.7341   24.2128 H   0  0  0  0  0  0
  -17.5068  -31.6264   24.5187 H   0  0  0  0  0  0
  -15.5395  -30.2959   23.7725 H   0  0  0  0  0  0
  -15.8711  -28.0807   22.7089 H   0  0  0  0  0  0
  -24.5883  -30.7115   25.7635 H   0  0  0  0  0  0
  -24.8851  -32.2999   26.4597 H   0  0  0  0  0  0
  -25.7881  -30.9063   27.0206 H   0  0  0  0  0  0
  -26.3185  -29.6488   24.1492 H   0  0  0  0  0  0
  -27.3997  -29.7268   25.5186 H   0  0  0  0  0  0
  -27.9131  -30.4022   23.9935 H   0  0  0  0  0  0
  -27.2585  -33.3721   26.1898 H   0  0  0  0  0  0
  -28.3936  -32.6835   25.0378 H   0  0  0  0  0  0
  -28.0616  -31.8608   26.5558 H   0  0  0  0  0  0
  -28.2531  -38.0053   24.7501 H   0  0  0  0  0  0
  -28.1062  -36.2577   24.6296 H   0  0  0  0  0  0
  -27.2255  -37.1370   25.8863 H   0  0  0  0  0  0
  -20.9622  -29.8712   21.6607 H   0  0  0  0  0  0
  -26.0065  -38.2710   24.1473 H   0  0  0  0  0  0
  -32.0244  -17.2750   19.2822 H   0  0  0  0  0  0
  -33.1819  -19.4630   18.8119 H   0  0  0  0  0  0
  -30.0014  -22.9210   20.5684 H   0  0  0  0  0  0
  -29.3844  -22.6842   18.9694 H   0  0  0  0  0  0
  -27.3254  -24.3402   22.2357 H   0  0  0  0  0  0
  -27.3690  -23.9569   19.3884 H   0  0  0  0  0  0
  -28.6153  -22.3114   22.4879 H   0  0  0  0  0  0
  -25.4381  -22.9673   20.2662 H   0  0  0  0  0  0
  -25.3061  -24.5901   20.9388 H   0  0  0  0  0  0
  -25.0211  -23.2008   21.9455 H   0  0  0  0  0  0
  -27.5455  -19.9213   24.1945 H   0  0  0  0  0  0
  -27.1925  -21.0031   25.4899 H   0  0  0  0  0  0
  -28.6530  -21.2435   24.5496 H   0  0  0  0  0  0
  -25.8613  -23.8863   23.8667 H   0  0  0  0  0  0
  -27.4477  -23.7149   24.6125 H   0  0  0  0  0  0
  -26.0314  -22.9303   25.2969 H   0  0  0  0  0  0
  -26.5055  -19.5232   22.2114 H   0  0  0  0  0  0
  -28.2730  -19.3322   22.2841 H   0  0  0  0  0  0
  -27.3693  -18.9294   20.8151 H   0  0  0  0  0  0
  -25.8609  -21.4540   23.3015 H   0  0  0  0  0  0
  -28.7682  -16.6472   20.5498 H   0  0  0  0  0  0
  1 25  1  0  0  0
  1 30  2  0  0  0
  1 86  1  0  0  0
  2  3  1  0  0  0
  2 25  1  0  0  0
  2 88  1  0  0  0
  2 89  1  0  0  0
  3  4  1  0  0  0
  3 90  1  0  0  0
  3 91  1  0  0  0
  4  5  1  0  0  0
  4 92  1  0  0  0
  4 93  1  0  0  0
  5  6  1  0  0  0
  5 26  1  0  0  0
  5 94  1  0  0  0
  6 25  1  0  0  0
  6 95  1  0  0  0
  6 96  1  0  0  0
  7  8  2  0  0  0
  7 26  1  0  0  0
  7 29  1  0  0  0
  8  9  1  0  0  0
  8 22  1  0  0  0
  9 10  1  0  0  0
  9 27  2  0  0  0
 10 11  2  0  0  0
 10 15  1  0  0  0
 11 12  1  0  0  0
 11 97  1  0  0  0
 12 13  2  0  0  0
 12 98  1  0  0  0
 13 14  1  0  0  0
 13 31  1  0  0  0
 14 15  2  0  0  0
 14 99  1  0  0  0
 15100  1  0  0  0
 16 17  2  0  0  0
 16 21  1  0  0  0
 16 31  1  0  0  0
 17 18  1  0  0  0
 17101  1  0  0  0
 18 19  2  0  0  0
 18102  1  0  0  0
 19 20  1  0  0  0
 19 24  1  0  0  0
 20 21  2  0  0  0
 20103  1  0  0  0
 21 23  1  0  0  0
 22 28  1  0  0  0
 22 32  2  0  0  0
 26 27  1  0  0  0
 28104  1  0  0  0
 28105  1  0  0  0
 29106  1  0  0  0
 29107  1  0  0  0
 33 34  1  0  0  0
 33 66  1  0  0  0
 33 70  2  0  0  0
 34 36  1  0  0  0
 34 59  1  0  0  0
 34108  1  0  0  0
 35 44  2  0  0  0
 35 45  1  0  0  0
 35 68  1  0  0  0
 36 56  1  0  0  0
 36109  1  0  0  0
 37 39  1  0  0  0
 37 47  1  0  0  0
 37 66  1  0  0  0
 37110  1  0  0  0
 38 43  2  0  0  0
 38 46  1  0  0  0
 38 47  1  0  0  0
 39 64  1  0  0  0
 39 67  2  0  0  0
 40 52  1  0  0  0
 40 53  2  0  0  0
 40 58  1  0  0  0
 41111  1  0  0  0
 41112  1  0  0  0
 41113  1  0  0  0
 41 48  1  0  0  0
 42 43  1  0  0  0
 42 66  1  0  0  0
 42114  1  0  0  0
 42115  1  0  0  0
 43 44  1  0  0  0
 44116  1  0  0  0
 45 46  2  0  0  0
 45117  1  0  0  0
 46118  1  0  0  0
 47119  1  0  0  0
 47120  1  0  0  0
 48 56  1  0  0  0
 48 65  1  0  0  0
 48121  1  0  0  0
 49 50  1  0  0  0
 49 53  1  0  0  0
 49 64  1  0  0  0
 49122  1  0  0  0
 50 51  1  0  0  0
 50123  1  0  0  0
 50124  1  0  0  0
 51 52  1  0  0  0
 51125  1  0  0  0
 51126  1  0  0  0
 52127  1  0  0  0
 52128  1  0  0  0
 53 54  1  0  0  0
 54 55  2  0  0  0
 54129  1  0  0  0
 55 57  1  0  0  0
 55130  1  0  0  0
 56 69  2  0  0  0
 57 58  2  0  0  0
 57131  1  0  0  0
 58132  1  0  0  0
 59 60  1  0  0  0
 59 61  1  0  0  0
 59 62  1  0  0  0
 60133  1  0  0  0
 60134  1  0  0  0
 60135  1  0  0  0
 61136  1  0  0  0
 61137  1  0  0  0
 61138  1  0  0  0
 62139  1  0  0  0
 62140  1  0  0  0
 62141  1  0  0  0
 63 65  1  0  0  0
 63142  1  0  0  0
 63143  1  0  0  0
 63144  1  0  0  0
 64145  1  0  0  0
 65146  1  0  0  0
 68 77  1  0  0  0
 71 72  2  0  0  0
 71 73  1  0  0  0
 71147  1  0  0  0
 72 87  1  0  0  0
 72148  1  0  0  0
 73 74  2  0  0  0
 73 86  1  0  0  0
 74 84  1  0  0  0
 74 87  1  0  0  0
 75 77  1  0  0  0
 75 84  1  0  0  0
 75149  1  0  0  0
 75150  1  0  0  0
 76 77  1  0  0  0
 76 78  1  0  0  0
 76 79  1  0  0  0
 76151  1  0  0  0
 77152  1  0  0  0
 78 83  1  0  0  0
 78 85  1  0  0  0
 78153  1  0  0  0
 79154  1  0  0  0
 79155  1  0  0  0
 79156  1  0  0  0
 80157  1  0  0  0
 80158  1  0  0  0
 80159  1  0  0  0
 80 83  1  0  0  0
 81 83  1  0  0  0
 81160  1  0  0  0
 81161  1  0  0  0
 81162  1  0  0  0
 82 85  1  0  0  0
 82163  1  0  0  0
 82164  1  0  0  0
 82165  1  0  0  0
 83166  1  0  0  0
 84 85  1  0  0  0
 86167  1  0  0  0
M  ISO  4   1 100  68 101  77 101  86 100
M  END
> <chiral flag>
0

> <version>
0

> <s_m_source_file>
/data/baiqing/PycharmProjects/Reinvent-master-3.2/result/LINK_invent/BTK/process_docking_weight1_custom_product_contain_oxygen_bond_distance_aromatic_linkinvent_7_9_3/rearranged_h_0064.sdf

> <i_m_source_file_index>
64

> <r_mmod_Potential_Energy-OPLS-2005>
1770.57885742188

> <r_mmod_Stretch_Energy-OPLS-2005>
754.878967285156

> <r_mmod_Bend_Energy-OPLS-2005>
587.325073242188

> <r_mmod_Torsional_Energy-OPLS-2005>
293.933380126953

> <r_mmod_Improper_Torsional_Energy-OPLS-2005>
3.66227865219116

> <r_mmod_Van_der_Waal_Energy-OPLS-2005>
160.71257019043

> <r_mmod_Electrostatic_Energy-OPLS-2005>
-386.588836669922

> <r_mmod_Solvation_Energy-OPLS-2005>
-208.730590820312

> <b_mmod_Minimization_Converged-OPLS-2005>
0

> <r_mmod_RMS_Derivative-OPLS-2005>
2.66091156005859

$$$$
65
                    3D
 Structure written by MMmdl.
162171  0  0  1  0            999 V2000
  -30.6944  -14.4446   20.4841 C   0  0  0  0  0  0
  -30.4150  -12.2528   19.4286 C   0  0  0  0  0  0
  -29.4985  -12.4720   18.2060 C   0  0  0  0  0  0
  -28.0108  -12.3536   18.6088 C   0  0  0  0  0  0
  -27.6545  -13.1953   19.8654 C   0  0  2  0  0  0
  -28.7044  -13.0135   20.9909 C   0  0  0  0  0  0
  -25.2556  -13.8153   20.5688 C   0  0  0  0  0  0
  -24.1797  -13.0442   20.9173 C   0  0  0  0  0  0
  -24.6338  -11.6896   20.8754 C   0  0  0  0  0  0
  -23.8994  -10.4314   21.0412 C   0  0  0  0  0  0
  -24.3561   -9.4243   21.9169 C   0  0  0  0  0  0
  -23.6265   -8.2278   22.0728 C   0  0  0  0  0  0
  -22.4241   -8.0303   21.3536 C   0  0  0  0  0  0
  -21.9889   -9.0254   20.4613 C   0  0  0  0  0  0
  -22.7214  -10.2135   20.3014 C   0  0  0  0  0  0
  -21.6876   -6.0757   22.5290 C   0  0  0  0  0  0
  -21.4074   -6.5670   23.8239 C   0  0  0  0  0  0
  -21.3664   -5.6787   24.9168 C   0  0  0  0  0  0
  -21.6008   -4.3049   24.7201 C   0  0  0  0  0  0
  -21.8805   -3.8165   23.4321 C   0  0  0  0  0  0
  -21.9215   -4.6991   22.3383 C   0  0  0  0  0  0
  -22.7837  -13.5261   21.1885 C   0  0  0  0  0  0
  -22.1671   -4.2199   21.0962 F   0  0  0  0  0  0
  -21.5556   -3.4517   25.7698 F   0  0  0  0  0  0
  -30.0351  -13.2631   20.4169 N   0  0  0  0  0  0
  -26.2974  -12.9286   20.3350 N   0  0  0  0  0  0
  -25.9260  -11.6449   20.5784 N   0  0  0  0  0  0
  -22.0480  -12.8208   22.0405 N   0  0  0  0  0  0
  -25.4269  -15.1886   20.4136 N   0  0  0  0  0  0
  -31.8911  -14.5816   20.2299 O   0  0  0  0  0  0
  -21.6599   -6.8914   21.4273 O   0  0  0  0  0  0
  -22.3544  -14.5628   20.6842 O   0  0  0  0  0  0
  -24.6123  -31.8684   23.2102 C   0  0  0  0  0  0
  -25.9038  -32.4839   23.8385 C   0  0  1  0  0  0
  -27.2361  -27.4473   20.0791 C   0  0  0  0  0  0
  -25.5902  -33.8627   24.2316 N   0  0  0  0  0  0
  -23.3993  -30.4933   21.5497 C   0  0  2  0  0  0
  -24.8429  -28.9553   20.1160 C   0  0  0  0  0  0
  -22.7399  -29.4681   22.4999 C   0  0  0  0  0  0
  -18.0272  -28.1379   22.8492 C   0  0  0  0  0  0
  -24.1491  -36.7297   23.2642 C   0  0  0  0  0  0
  -25.9255  -30.8408   21.3535 C   0  0  0  0  0  0
  -26.0035  -29.4727   20.7056 C   0  0  0  0  0  0
  -27.2015  -28.7261   20.6811 C   0  0  0  0  0  0
  -26.0574  -26.9461   19.4782 C   0  0  0  0  0  0
  -24.8639  -27.6905   19.5062 C   0  0  0  0  0  0
  -23.6044  -29.8215   20.1657 C   0  0  0  0  0  0
  -25.4114  -36.3107   24.0336 C   0  0  1  0  0  0
  -20.5861  -28.3661   23.1312 C   0  0  2  0  0  0
  -20.6762  -26.9403   22.5405 C   0  0  0  0  0  0
  -19.5748  -26.6383   21.5204 C   0  0  0  0  0  0
  -18.1930  -26.7940   22.1613 C   0  0  0  0  0  0
  -19.1526  -28.8835   23.2905 C   0  0  0  0  0  0
  -18.9459  -30.1444   23.8913 C   0  0  0  0  0  0
  -17.6461  -30.6593   24.0574 C   0  0  0  0  0  0
  -25.9027  -34.9477   23.5121 C   0  0  0  0  0  0
  -16.5350  -29.9100   23.6323 C   0  0  0  0  0  0
  -16.7263  -28.6514   23.0350 C   0  0  0  0  0  0
  -26.4486  -31.6606   25.0690 C   0  0  0  0  0  0
  -25.3757  -31.3682   26.1449 C   0  0  0  0  0  0
  -27.0287  -30.3071   24.5996 C   0  0  0  0  0  0
  -27.6095  -32.4301   25.7429 C   0  0  0  0  0  0
  -27.5589  -37.1791   24.8475 C   0  0  0  0  0  0
  -21.4140  -29.3047   22.3730 N   0  0  0  0  0  0
  -26.4301  -37.3789   23.9426 N   0  0  0  0  0  0
  -24.6651  -31.0812   22.0982 N   0  0  0  0  0  0
  -23.4194  -28.8228   23.3033 O   0  0  0  0  0  0
  -28.4268  -26.7520   20.0800 O   0  0  0  0  0  0
  -26.5591  -34.8935   22.4688 O   0  0  0  0  0  0
  -23.5322  -32.1409   23.7509 O   0  0  0  0  0  0
  -28.9194  -17.7203   22.9602 C   0  0  0  0  0  0
  -29.3948  -16.5729   22.2997 C   0  0  0  0  0  0
  -29.1996  -17.7545   20.1782 C   0  0  0  0  0  0
  -28.5759  -18.8907   22.2429 C   0  0  0  0  0  0
  -28.7354  -18.9205   20.8292 C   0  0  0  0  0  0
  -29.5254  -16.5882   20.8977 C   0  0  0  0  0  0
  -27.6671  -20.0662   18.9283 C   0  0  0  0  0  0
  -29.1247  -24.7172   18.8918 C   0  0  0  0  0  0
  -27.6720  -21.4225   18.2411 C   0  0  0  0  0  0
  -29.0829  -21.3778   20.2095 C   0  0  0  0  0  0
  -28.2975  -22.3449   19.2942 C   0  0  1  0  0  0
  -28.0013  -20.0525   23.0319 C   0  0  0  0  0  0
  -28.4007  -25.3138   20.1178 C   0  0  0  0  0  0
  -28.4359  -20.0736   20.0334 N   0  0  0  0  0  0
  -29.8928  -15.4565   20.1413 N   0  0  0  0  0  0
  -29.1186  -23.3900   18.6652 N   0  0  0  0  0  0
  -27.0105  -19.1129   18.4898 O   0  0  0  0  0  0
  -29.7514  -25.4561   18.1267 O   0  0  0  0  0  0
  -31.4662  -12.3275   19.1433 H   0  0  0  0  0  0
  -30.2758  -11.2495   19.8388 H   0  0  0  0  0  0
  -29.7305  -11.7469   17.4279 H   0  0  0  0  0  0
  -29.6871  -13.4547   17.7712 H   0  0  0  0  0  0
  -27.7929  -11.3002   18.7875 H   0  0  0  0  0  0
  -27.3767  -12.6471   17.7740 H   0  0  0  0  0  0
  -27.6768  -14.2352   19.5438 H   0  0  0  0  0  0
  -28.6640  -12.0054   21.4054 H   0  0  0  0  0  0
  -28.5014  -13.6979   21.8171 H   0  0  0  0  0  0
  -25.2701   -9.5711   22.4735 H   0  0  0  0  0  0
  -24.0004   -7.4669   22.7434 H   0  0  0  0  0  0
  -21.0838   -8.8751   19.8896 H   0  0  0  0  0  0
  -22.3705  -10.9641   19.6081 H   0  0  0  0  0  0
  -21.2137   -7.6194   23.9774 H   0  0  0  0  0  0
  -21.1485   -6.0500   25.9072 H   0  0  0  0  0  0
  -22.0584   -2.7622   23.2797 H   0  0  0  0  0  0
  -22.4137  -11.9910   22.4819 H   0  0  0  0  0  0
  -21.1069  -13.1208   22.2569 H   0  0  0  0  0  0
  -24.6619  -15.8458   20.5267 H   0  0  0  0  0  0
  -26.3013  -15.6338   20.1642 H   0  0  0  0  0  0
  -26.7119  -32.5545   23.1152 H   0  0  0  0  0  0
  -25.0090  -33.9788   25.0496 H   0  0  0  0  0  0
  -22.6871  -31.3092   21.4110 H   0  0  0  0  0  0
  -23.3746  -35.9635   23.3312 H   0  0  0  0  0  0
  -24.3590  -36.8888   22.2053 H   0  0  0  0  0  0
  -23.7233  -37.6509   23.6637 H   0  0  0  0  0  0
  -26.0205  -31.6020   20.5769 H   0  0  0  0  0  0
  -26.8221  -30.9073   21.9582 H   0  0  0  0  0  0
  -28.1034  -29.1276   21.1225 H   0  0  0  0  0  0
  -26.0455  -25.9954   18.9669 H   0  0  0  0  0  0
  -23.9718  -27.2887   19.0449 H   0  0  0  0  0  0
  -23.7129  -30.5928   19.4038 H   0  0  0  0  0  0
  -22.7260  -29.2417   19.8742 H   0  0  0  0  0  0
  -25.1283  -36.1973   25.0819 H   0  0  0  0  0  0
  -20.9956  -28.3229   24.1437 H   0  0  0  0  0  0
  -20.5647  -26.2283   23.3598 H   0  0  0  0  0  0
  -21.6639  -26.7443   22.1222 H   0  0  0  0  0  0
  -19.6910  -25.6292   21.1245 H   0  0  0  0  0  0
  -19.6702  -27.3185   20.6732 H   0  0  0  0  0  0
  -17.4200  -26.6684   21.4027 H   0  0  0  0  0  0
  -18.0340  -26.0095   22.9009 H   0  0  0  0  0  0
  -19.7932  -30.7258   24.2314 H   0  0  0  0  0  0
  -17.5013  -31.6283   24.5167 H   0  0  0  0  0  0
  -15.5351  -30.3009   23.7636 H   0  0  0  0  0  0
  -15.8666  -28.0830   22.7066 H   0  0  0  0  0  0
  -24.5967  -30.7000   25.7787 H   0  0  0  0  0  0
  -24.8902  -32.2807   26.4909 H   0  0  0  0  0  0
  -25.8118  -30.8856   27.0202 H   0  0  0  0  0  0
  -26.2776  -29.6839   24.1141 H   0  0  0  0  0  0
  -27.4215  -29.7315   25.4385 H   0  0  0  0  0  0
  -27.8545  -30.4447   23.9007 H   0  0  0  0  0  0
  -27.2789  -33.3623   26.2028 H   0  0  0  0  0  0
  -28.3889  -32.6819   25.0216 H   0  0  0  0  0  0
  -28.0798  -31.8394   26.5306 H   0  0  0  0  0  0
  -28.2610  -38.0082   24.7521 H   0  0  0  0  0  0
  -28.1059  -36.2610   24.6284 H   0  0  0  0  0  0
  -27.2299  -37.1434   25.8873 H   0  0  0  0  0  0
  -20.9296  -29.8752   21.6939 H   0  0  0  0  0  0
  -26.0176  -38.2861   24.1440 H   0  0  0  0  0  0
  -28.7984  -17.6820   24.0342 H   0  0  0  0  0  0
  -29.6308  -15.6942   22.8823 H   0  0  0  0  0  0
  -29.3024  -17.7505   19.1025 H   0  0  0  0  0  0
  -26.6667  -21.7355   17.9569 H   0  0  0  0  0  0
  -28.2791  -21.3528   17.3351 H   0  0  0  0  0  0
  -29.0965  -21.7226   21.2414 H   0  0  0  0  0  0
  -30.1208  -21.2815   19.8818 H   0  0  0  0  0  0
  -27.4809  -22.7739   19.8727 H   0  0  0  0  0  0
  -27.4424  -19.6850   23.8934 H   0  0  0  0  0  0
  -27.3138  -20.6586   22.4439 H   0  0  0  0  0  0
  -28.8011  -20.6879   23.4108 H   0  0  0  0  0  0
  -28.9537  -25.0071   21.0068 H   0  0  0  0  0  0
  -27.3999  -24.9038   20.2381 H   0  0  0  0  0  0
  -29.8680  -15.5992   19.1431 H   0  0  0  0  0  0
  -29.6720  -23.0984   17.8703 H   0  0  0  0  0  0
  1 25  1  0  0  0
  1 30  2  0  0  0
  1 85  1  0  0  0
  2  3  1  0  0  0
  2 25  1  0  0  0
  2 89  1  0  0  0
  2 90  1  0  0  0
  3  4  1  0  0  0
  3 91  1  0  0  0
  3 92  1  0  0  0
  4  5  1  0  0  0
  4 93  1  0  0  0
  4 94  1  0  0  0
  5  6  1  0  0  0
  5 26  1  0  0  0
  5 95  1  0  0  0
  6 25  1  0  0  0
  6 96  1  0  0  0
  6 97  1  0  0  0
  7  8  2  0  0  0
  7 26  1  0  0  0
  7 29  1  0  0  0
  8  9  1  0  0  0
  8 22  1  0  0  0
  9 10  1  0  0  0
  9 27  2  0  0  0
 10 11  2  0  0  0
 10 15  1  0  0  0
 11 12  1  0  0  0
 11 98  1  0  0  0
 12 13  2  0  0  0
 12 99  1  0  0  0
 13 14  1  0  0  0
 13 31  1  0  0  0
 14 15  2  0  0  0
 14100  1  0  0  0
 15101  1  0  0  0
 16 17  2  0  0  0
 16 21  1  0  0  0
 16 31  1  0  0  0
 17 18  1  0  0  0
 17102  1  0  0  0
 18 19  2  0  0  0
 18103  1  0  0  0
 19 20  1  0  0  0
 19 24  1  0  0  0
 20 21  2  0  0  0
 20104  1  0  0  0
 21 23  1  0  0  0
 22 28  1  0  0  0
 22 32  2  0  0  0
 26 27  1  0  0  0
 28105  1  0  0  0
 28106  1  0  0  0
 29107  1  0  0  0
 29108  1  0  0  0
 33 34  1  0  0  0
 33 66  1  0  0  0
 33 70  2  0  0  0
 34 36  1  0  0  0
 34 59  1  0  0  0
 34109  1  0  0  0
 35 44  2  0  0  0
 35 45  1  0  0  0
 35 68  1  0  0  0
 36 56  1  0  0  0
 36110  1  0  0  0
 37 39  1  0  0  0
 37 47  1  0  0  0
 37 66  1  0  0  0
 37111  1  0  0  0
 38 43  2  0  0  0
 38 46  1  0  0  0
 38 47  1  0  0  0
 39 64  1  0  0  0
 39 67  2  0  0  0
 40 52  1  0  0  0
 40 53  2  0  0  0
 40 58  1  0  0  0
 41112  1  0  0  0
 41113  1  0  0  0
 41114  1  0  0  0
 41 48  1  0  0  0
 42 43  1  0  0  0
 42 66  1  0  0  0
 42115  1  0  0  0
 42116  1  0  0  0
 43 44  1  0  0  0
 44117  1  0  0  0
 45 46  2  0  0  0
 45118  1  0  0  0
 46119  1  0  0  0
 47120  1  0  0  0
 47121  1  0  0  0
 48 56  1  0  0  0
 48 65  1  0  0  0
 48122  1  0  0  0
 49 50  1  0  0  0
 49 53  1  0  0  0
 49 64  1  0  0  0
 49123  1  0  0  0
 50 51  1  0  0  0
 50124  1  0  0  0
 50125  1  0  0  0
 51 52  1  0  0  0
 51126  1  0  0  0
 51127  1  0  0  0
 52128  1  0  0  0
 52129  1  0  0  0
 53 54  1  0  0  0
 54 55  2  0  0  0
 54130  1  0  0  0
 55 57  1  0  0  0
 55131  1  0  0  0
 56 69  2  0  0  0
 57 58  2  0  0  0
 57132  1  0  0  0
 58133  1  0  0  0
 59 60  1  0  0  0
 59 61  1  0  0  0
 59 62  1  0  0  0
 60134  1  0  0  0
 60135  1  0  0  0
 60136  1  0  0  0
 61137  1  0  0  0
 61138  1  0  0  0
 61139  1  0  0  0
 62140  1  0  0  0
 62141  1  0  0  0
 62142  1  0  0  0
 63 65  1  0  0  0
 63143  1  0  0  0
 63144  1  0  0  0
 63145  1  0  0  0
 64146  1  0  0  0
 65147  1  0  0  0
 68 83  1  0  0  0
 71 72  2  0  0  0
 71 74  1  0  0  0
 71148  1  0  0  0
 72 76  1  0  0  0
 72149  1  0  0  0
 73 75  1  0  0  0
 73 76  2  0  0  0
 73150  1  0  0  0
 74 75  2  0  0  0
 74 82  1  0  0  0
 75 84  1  0  0  0
 76 85  1  0  0  0
 77 79  1  0  0  0
 77 84  1  0  0  0
 77 87  2  0  0  0
 78 83  1  0  0  0
 78 86  1  0  0  0
 78 88  2  0  0  0
 79 81  1  0  0  0
 79151  1  0  0  0
 79152  1  0  0  0
 80 81  1  0  0  0
 80 84  1  0  0  0
 80153  1  0  0  0
 80154  1  0  0  0
 81 86  1  0  0  0
 81155  1  0  0  0
 82156  1  0  0  0
 82157  1  0  0  0
 82158  1  0  0  0
 83159  1  0  0  0
 83160  1  0  0  0
 85161  1  0  0  0
 86162  1  0  0  0
M  ISO  4   1 100  68 101  83 101  85 100
M  END
> <chiral flag>
0

> <version>
0

> <s_m_source_file>
/data/baiqing/PycharmProjects/Reinvent-master-3.2/result/LINK_invent/BTK/process_docking_weight1_custom_product_contain_oxygen_bond_distance_aromatic_linkinvent_7_9_3/rearranged_h_0064.sdf

> <i_m_source_file_index>
65

> <r_mmod_Potential_Energy-OPLS-2005>
98.6987762451172

> <r_mmod_Stretch_Energy-OPLS-2005>
36.2573432922363

> <r_mmod_Bend_Energy-OPLS-2005>
140.543533325195

> <r_mmod_Torsional_Energy-OPLS-2005>
351.095520019531

> <r_mmod_Improper_Torsional_Energy-OPLS-2005>
27.3064785003662

> <r_mmod_Van_der_Waal_Energy-OPLS-2005>
146.112289428711

> <r_mmod_Electrostatic_Energy-OPLS-2005>
-364.141967773438

> <r_mmod_Solvation_Energy-OPLS-2005>
-257.030792236328

> <b_mmod_Minimization_Converged-OPLS-2005>
0

> <r_mmod_RMS_Derivative-OPLS-2005>
5.10730743408203

$$$$
66
                    3D
 Structure written by MMmdl.
159167  0  0  1  0            999 V2000
  -30.6658  -14.5355   20.5270 C   0  0  0  0  0  0
  -30.4255  -12.3311   19.4502 C   0  0  0  0  0  0
  -29.5063  -12.5004   18.2213 C   0  0  0  0  0  0
  -28.0226  -12.3673   18.6196 C   0  0  0  0  0  0
  -27.6591  -13.2148   19.8690 C   0  0  2  0  0  0
  -28.6971  -13.0253   21.0002 C   0  0  0  0  0  0
  -25.2596  -13.8192   20.5665 C   0  0  0  0  0  0
  -24.1854  -13.0460   20.9169 C   0  0  0  0  0  0
  -24.6405  -11.6929   20.8711 C   0  0  0  0  0  0
  -23.9063  -10.4330   21.0392 C   0  0  0  0  0  0
  -24.3620   -9.4253   21.9174 C   0  0  0  0  0  0
  -23.6313   -8.2276   22.0742 C   0  0  0  0  0  0
  -22.4295   -8.0291   21.3536 C   0  0  0  0  0  0
  -21.9915   -9.0264   20.4648 C   0  0  0  0  0  0
  -22.7228  -10.2156   20.3050 C   0  0  0  0  0  0
  -21.6867   -6.0742   22.5287 C   0  0  0  0  0  0
  -21.4026   -6.5644   23.8221 C   0  0  0  0  0  0
  -21.3662   -5.6796   24.9184 C   0  0  0  0  0  0
  -21.6046   -4.3062   24.7223 C   0  0  0  0  0  0
  -21.8830   -3.8147   23.4349 C   0  0  0  0  0  0
  -21.9203   -4.6967   22.3406 C   0  0  0  0  0  0
  -22.7879  -13.5255   21.1842 C   0  0  0  0  0  0
  -22.1664   -4.2155   21.0985 F   0  0  0  0  0  0
  -21.5628   -3.4547   25.7737 F   0  0  0  0  0  0
  -30.0279  -13.3329   20.4542 N   0  0  0  0  0  0
  -26.3024  -12.9354   20.3302 N   0  0  0  0  0  0
  -25.9338  -11.6513   20.5746 N   0  0  0  0  0  0
  -22.0524  -12.8242   22.0400 N   0  0  0  0  0  0
  -25.4344  -15.1917   20.4084 N   0  0  0  0  0  0
  -31.8040  -14.7045   20.0786 O   0  0  0  0  0  0
  -21.6657   -6.8887   21.4244 O   0  0  0  0  0  0
  -22.3555  -14.5546   20.6675 O   0  0  0  0  0  0
  -24.6198  -31.8639   23.2069 C   0  0  0  0  0  0
  -25.9071  -32.4799   23.8365 C   0  0  1  0  0  0
  -27.2240  -27.3858   20.1150 C   0  0  0  0  0  0
  -25.5904  -33.8595   24.2285 N   0  0  0  0  0  0
  -23.4089  -30.4870   21.5498 C   0  0  2  0  0  0
  -24.8523  -28.9468   20.1136 C   0  0  0  0  0  0
  -22.7439  -29.4635   22.4997 C   0  0  0  0  0  0
  -18.0275  -28.1382   22.8491 C   0  0  0  0  0  0
  -24.1481  -36.7311   23.2639 C   0  0  0  0  0  0
  -25.9412  -30.8165   21.3636 C   0  0  0  0  0  0
  -26.0171  -29.4479   20.7088 C   0  0  0  0  0  0
  -27.2085  -28.6796   20.6962 C   0  0  0  0  0  0
  -26.0399  -26.9110   19.5074 C   0  0  0  0  0  0
  -24.8622  -27.6816   19.5049 C   0  0  0  0  0  0
  -23.6166  -29.8182   20.1649 C   0  0  0  0  0  0
  -25.4101  -36.3100   24.0332 C   0  0  1  0  0  0
  -20.5868  -28.3669   23.1320 C   0  0  2  0  0  0
  -20.6753  -26.9401   22.5424 C   0  0  0  0  0  0
  -19.5730  -26.6383   21.5222 C   0  0  0  0  0  0
  -18.1916  -26.7927   22.1634 C   0  0  0  0  0  0
  -19.1525  -28.8845   23.2896 C   0  0  0  0  0  0
  -18.9448  -30.1448   23.8906 C   0  0  0  0  0  0
  -17.6449  -30.6581   24.0567 C   0  0  0  0  0  0
  -25.9038  -34.9467   23.5110 C   0  0  0  0  0  0
  -16.5341  -29.9083   23.6322 C   0  0  0  0  0  0
  -16.7263  -28.6503   23.0344 C   0  0  0  0  0  0
  -26.4467  -31.6608   25.0723 C   0  0  0  0  0  0
  -25.3722  -31.3744   26.1477 C   0  0  0  0  0  0
  -27.0296  -30.3041   24.6138 C   0  0  0  0  0  0
  -27.6029  -32.4353   25.7486 C   0  0  0  0  0  0
  -27.5578  -37.1801   24.8456 C   0  0  0  0  0  0
  -21.4164  -29.3027   22.3739 N   0  0  0  0  0  0
  -26.4281  -37.3791   23.9424 N   0  0  0  0  0  0
  -24.6753  -31.0710   22.0986 N   0  0  0  0  0  0
  -23.4197  -28.8188   23.3055 O   0  0  0  0  0  0
  -28.3711  -26.6056   20.1459 O   0  0  0  0  0  0
  -26.5615  -34.8933   22.4685 O   0  0  0  0  0  0
  -23.5385  -32.1409   23.7438 O   0  0  0  0  0  0
  -29.8017  -17.0316   18.9947 C   0  0  0  0  0  0
  -29.6355  -18.2998   18.4064 C   0  0  0  0  0  0
  -29.7365  -18.0711   21.1906 C   0  0  0  0  0  0
  -29.5929  -19.3750   20.6099 C   0  0  0  0  0  0
  -29.8570  -16.8929   20.3990 C   0  0  0  0  0  0
  -29.5347  -19.4630   19.1958 C   0  0  0  0  0  0
  -28.6812  -23.3020   22.8796 C   0  0  0  0  0  0
  -29.5238  -20.6128   21.4995 C   0  0  0  0  0  0
  -30.3403  -24.2762   19.4194 C   0  0  0  0  0  0
  -28.1905  -25.1957   20.4595 C   0  0  0  0  0  0
  -29.5855  -23.1624   21.6352 C   0  0  2  0  0  0
  -29.5507  -24.4636   20.7281 C   0  0  1  0  0  0
  -29.9356  -15.5805   20.9911 N   0  0  0  0  0  0
  -29.4559  -21.8505   20.9350 N   0  0  0  0  0  0
  -28.9108  -24.0685   23.8188 O   0  0  0  0  0  0
  -29.5871  -20.4647   22.7229 O   0  0  0  0  0  0
  -29.3839  -20.6565   18.5680 F   0  0  0  0  0  0
  -31.4717  -12.4299   19.1565 H   0  0  0  0  0  0
  -30.3274  -11.3273   19.8652 H   0  0  0  0  0  0
  -29.7578  -11.7569   17.4623 H   0  0  0  0  0  0
  -29.6788  -13.4769   17.7664 H   0  0  0  0  0  0
  -27.8266  -11.3127   18.8145 H   0  0  0  0  0  0
  -27.3822  -12.6429   17.7806 H   0  0  0  0  0  0
  -27.6927  -14.2592   19.5571 H   0  0  0  0  0  0
  -28.6837  -11.9948   21.3598 H   0  0  0  0  0  0
  -28.4534  -13.6445   21.8639 H   0  0  0  0  0  0
  -25.2761   -9.5739   22.4733 H   0  0  0  0  0  0
  -24.0045   -7.4674   22.7455 H   0  0  0  0  0  0
  -21.0843   -8.8779   19.8952 H   0  0  0  0  0  0
  -22.3683  -10.9684   19.6154 H   0  0  0  0  0  0
  -21.2007   -7.6149   23.9716 H   0  0  0  0  0  0
  -21.1464   -6.0533   25.9097 H   0  0  0  0  0  0
  -22.0592   -2.7603   23.2853 H   0  0  0  0  0  0
  -22.4119  -11.9902   22.4808 H   0  0  0  0  0  0
  -21.1135  -13.1256   22.2563 H   0  0  0  0  0  0
  -24.6752  -15.8536   20.5242 H   0  0  0  0  0  0
  -26.2938  -15.6274   20.0982 H   0  0  0  0  0  0
  -26.7145  -32.5484   23.1124 H   0  0  0  0  0  0
  -25.0031  -33.9740   25.0423 H   0  0  0  0  0  0
  -22.6994  -31.3054   21.4106 H   0  0  0  0  0  0
  -23.3741  -35.9643   23.3285 H   0  0  0  0  0  0
  -24.3580  -36.8951   22.2055 H   0  0  0  0  0  0
  -23.7226  -37.6510   23.6668 H   0  0  0  0  0  0
  -26.0571  -31.5798   20.5928 H   0  0  0  0  0  0
  -26.8290  -30.8698   21.9821 H   0  0  0  0  0  0
  -28.1069  -29.0617   21.1606 H   0  0  0  0  0  0
  -26.0094  -25.9424   19.0304 H   0  0  0  0  0  0
  -23.9677  -27.2925   19.0373 H   0  0  0  0  0  0
  -23.7256  -30.5919   19.4044 H   0  0  0  0  0  0
  -22.7383  -29.2396   19.8711 H   0  0  0  0  0  0
  -25.1275  -36.1945   25.0819 H   0  0  0  0  0  0
  -20.9936  -28.3218   24.1450 H   0  0  0  0  0  0
  -20.5654  -26.2272   23.3612 H   0  0  0  0  0  0
  -21.6624  -26.7437   22.1214 H   0  0  0  0  0  0
  -19.6885  -25.6297   21.1241 H   0  0  0  0  0  0
  -19.6663  -27.3202   20.6759 H   0  0  0  0  0  0
  -17.4183  -26.6682   21.4038 H   0  0  0  0  0  0
  -18.0308  -26.0064   22.9022 H   0  0  0  0  0  0
  -19.7925  -30.7268   24.2271 H   0  0  0  0  0  0
  -17.5004  -31.6266   24.5170 H   0  0  0  0  0  0
  -15.5341  -30.2991   23.7644 H   0  0  0  0  0  0
  -15.8663  -28.0833   22.7044 H   0  0  0  0  0  0
  -24.5861  -30.7126   25.7826 H   0  0  0  0  0  0
  -24.8951  -32.2911   26.4950 H   0  0  0  0  0  0
  -25.8061  -30.8888   27.0228 H   0  0  0  0  0  0
  -26.2848  -29.6818   24.1159 H   0  0  0  0  0  0
  -27.4013  -29.7270   25.4618 H   0  0  0  0  0  0
  -27.8709  -30.4350   23.9326 H   0  0  0  0  0  0
  -27.2615  -33.3630   26.2097 H   0  0  0  0  0  0
  -28.3806  -32.6971   25.0297 H   0  0  0  0  0  0
  -28.0738  -31.8474   26.5377 H   0  0  0  0  0  0
  -28.2584  -38.0114   24.7538 H   0  0  0  0  0  0
  -28.1090  -36.2651   24.6226 H   0  0  0  0  0  0
  -27.2316  -37.1383   25.8866 H   0  0  0  0  0  0
  -20.9350  -29.8751   21.6951 H   0  0  0  0  0  0
  -26.0161  -38.2866   24.1451 H   0  0  0  0  0  0
  -29.8632  -16.1644   18.3505 H   0  0  0  0  0  0
  -29.5852  -18.3856   17.3310 H   0  0  0  0  0  0
  -29.7683  -17.9778   22.2669 H   0  0  0  0  0  0
  -27.8092  -22.6506   22.8537 H   0  0  0  0  0  0
  -30.4620  -25.2285   18.9004 H   0  0  0  0  0  0
  -29.8300  -23.5958   18.7367 H   0  0  0  0  0  0
  -31.3375  -23.8782   19.6096 H   0  0  0  0  0  0
  -27.5467  -25.1455   21.3377 H   0  0  0  0  0  0
  -27.6624  -24.6754   19.6599 H   0  0  0  0  0  0
  -30.6041  -23.1226   22.0246 H   0  0  0  0  0  0
  -30.1196  -25.1902   21.3116 H   0  0  0  0  0  0
  -29.1498  -15.3275   21.5728 H   0  0  0  0  0  0
  -29.4063  -21.8699   19.9233 H   0  0  0  0  0  0
  1 25  1  0  0  0
  1 30  2  0  0  0
  1 83  1  0  0  0
  2  3  1  0  0  0
  2 25  1  0  0  0
  2 88  1  0  0  0
  2 89  1  0  0  0
  3  4  1  0  0  0
  3 90  1  0  0  0
  3 91  1  0  0  0
  4  5  1  0  0  0
  4 92  1  0  0  0
  4 93  1  0  0  0
  5  6  1  0  0  0
  5 26  1  0  0  0
  5 94  1  0  0  0
  6 25  1  0  0  0
  6 95  1  0  0  0
  6 96  1  0  0  0
  7  8  2  0  0  0
  7 26  1  0  0  0
  7 29  1  0  0  0
  8  9  1  0  0  0
  8 22  1  0  0  0
  9 10  1  0  0  0
  9 27  2  0  0  0
 10 11  2  0  0  0
 10 15  1  0  0  0
 11 12  1  0  0  0
 11 97  1  0  0  0
 12 13  2  0  0  0
 12 98  1  0  0  0
 13 14  1  0  0  0
 13 31  1  0  0  0
 14 15  2  0  0  0
 14 99  1  0  0  0
 15100  1  0  0  0
 16 17  2  0  0  0
 16 21  1  0  0  0
 16 31  1  0  0  0
 17 18  1  0  0  0
 17101  1  0  0  0
 18 19  2  0  0  0
 18102  1  0  0  0
 19 20  1  0  0  0
 19 24  1  0  0  0
 20 21  2  0  0  0
 20103  1  0  0  0
 21 23  1  0  0  0
 22 28  1  0  0  0
 22 32  2  0  0  0
 26 27  1  0  0  0
 28104  1  0  0  0
 28105  1  0  0  0
 29106  1  0  0  0
 29107  1  0  0  0
 33 34  1  0  0  0
 33 66  1  0  0  0
 33 70  2  0  0  0
 34 36  1  0  0  0
 34 59  1  0  0  0
 34108  1  0  0  0
 35 44  2  0  0  0
 35 45  1  0  0  0
 35 68  1  0  0  0
 36 56  1  0  0  0
 36109  1  0  0  0
 37 39  1  0  0  0
 37 47  1  0  0  0
 37 66  1  0  0  0
 37110  1  0  0  0
 38 43  2  0  0  0
 38 46  1  0  0  0
 38 47  1  0  0  0
 39 64  1  0  0  0
 39 67  2  0  0  0
 40 52  1  0  0  0
 40 53  2  0  0  0
 40 58  1  0  0  0
 41111  1  0  0  0
 41112  1  0  0  0
 41113  1  0  0  0
 41 48  1  0  0  0
 42 43  1  0  0  0
 42 66  1  0  0  0
 42114  1  0  0  0
 42115  1  0  0  0
 43 44  1  0  0  0
 44116  1  0  0  0
 45 46  2  0  0  0
 45117  1  0  0  0
 46118  1  0  0  0
 47119  1  0  0  0
 47120  1  0  0  0
 48 56  1  0  0  0
 48 65  1  0  0  0
 48121  1  0  0  0
 49 50  1  0  0  0
 49 53  1  0  0  0
 49 64  1  0  0  0
 49122  1  0  0  0
 50 51  1  0  0  0
 50123  1  0  0  0
 50124  1  0  0  0
 51 52  1  0  0  0
 51125  1  0  0  0
 51126  1  0  0  0
 52127  1  0  0  0
 52128  1  0  0  0
 53 54  1  0  0  0
 54 55  2  0  0  0
 54129  1  0  0  0
 55 57  1  0  0  0
 55130  1  0  0  0
 56 69  2  0  0  0
 57 58  2  0  0  0
 57131  1  0  0  0
 58132  1  0  0  0
 59 60  1  0  0  0
 59 61  1  0  0  0
 59 62  1  0  0  0
 60133  1  0  0  0
 60134  1  0  0  0
 60135  1  0  0  0
 61136  1  0  0  0
 61137  1  0  0  0
 61138  1  0  0  0
 62139  1  0  0  0
 62140  1  0  0  0
 62141  1  0  0  0
 63 65  1  0  0  0
 63142  1  0  0  0
 63143  1  0  0  0
 63144  1  0  0  0
 64145  1  0  0  0
 65146  1  0  0  0
 68 80  1  0  0  0
 71 72  2  0  0  0
 71 75  1  0  0  0
 71147  1  0  0  0
 72 76  1  0  0  0
 72148  1  0  0  0
 73 74  1  0  0  0
 73 75  2  0  0  0
 73149  1  0  0  0
 74 76  2  0  0  0
 74 78  1  0  0  0
 75 83  1  0  0  0
 76 87  1  0  0  0
 77 81  1  0  0  0
 77 85  2  0  0  0
 77150  1  0  0  0
 78 84  1  0  0  0
 78 86  2  0  0  0
 79151  1  0  0  0
 79152  1  0  0  0
 79153  1  0  0  0
 79 82  1  0  0  0
 80 82  1  0  0  0
 80154  1  0  0  0
 80155  1  0  0  0
 81 82  1  0  0  0
 81 84  1  0  0  0
 81156  1  0  0  0
 82157  1  0  0  0
 83158  1  0  0  0
 84159  1  0  0  0
M  ISO  4   1 100  68 101  80 101  83 100
M  END
> <chiral flag>
0

> <version>
0

> <s_m_source_file>
/data/baiqing/PycharmProjects/Reinvent-master-3.2/result/LINK_invent/BTK/process_docking_weight1_custom_product_contain_oxygen_bond_distance_aromatic_linkinvent_7_9_3/rearranged_h_0064.sdf

> <i_m_source_file_index>
66

> <r_mmod_Potential_Energy-OPLS-2005>
-111.698402404785

> <r_mmod_Stretch_Energy-OPLS-2005>
54.6954765319824

> <r_mmod_Bend_Energy-OPLS-2005>
117.536293029785

> <r_mmod_Torsional_Energy-OPLS-2005>
253.021835327148

> <r_mmod_Improper_Torsional_Energy-OPLS-2005>
5.15264511108398

> <r_mmod_Van_der_Waal_Energy-OPLS-2005>
161.706832885742

> <r_mmod_Electrostatic_Energy-OPLS-2005>
-487.248718261719

> <r_mmod_Solvation_Energy-OPLS-2005>
-239.515869140625

> <b_mmod_Minimization_Converged-OPLS-2005>
0

> <r_mmod_RMS_Derivative-OPLS-2005>
2.69119334220886

$$$$
67
                    3D
 Structure written by MMmdl.
158166  0  0  1  0            999 V2000
  -30.6086  -14.7248   20.4886 C   0  0  0  0  0  0
  -30.4293  -12.4375   19.5000 C   0  0  0  0  0  0
  -29.5206  -12.5181   18.2522 C   0  0  0  0  0  0
  -28.0403  -12.3538   18.6468 C   0  0  0  0  0  0
  -27.6457  -13.2375   19.8604 C   0  0  2  0  0  0
  -28.6798  -13.1425   21.0046 C   0  0  0  0  0  0
  -25.2491  -13.8210   20.5706 C   0  0  0  0  0  0
  -24.1787  -13.0437   20.9209 C   0  0  0  0  0  0
  -24.6392  -11.6925   20.8736 C   0  0  0  0  0  0
  -23.9079  -10.4289   21.0390 C   0  0  0  0  0  0
  -24.3625   -9.4202   21.9164 C   0  0  0  0  0  0
  -23.6300   -8.2238   22.0733 C   0  0  0  0  0  0
  -22.4278   -8.0280   21.3540 C   0  0  0  0  0  0
  -21.9919   -9.0250   20.4641 C   0  0  0  0  0  0
  -22.7250  -10.2132   20.3041 C   0  0  0  0  0  0
  -21.6859   -6.0727   22.5287 C   0  0  0  0  0  0
  -21.4015   -6.5630   23.8222 C   0  0  0  0  0  0
  -21.3665   -5.6775   24.9180 C   0  0  0  0  0  0
  -21.6056   -4.3043   24.7222 C   0  0  0  0  0  0
  -21.8817   -3.8138   23.4340 C   0  0  0  0  0  0
  -21.9184   -4.6957   22.3403 C   0  0  0  0  0  0
  -22.7808  -13.5215   21.1874 C   0  0  0  0  0  0
  -22.1658   -4.2146   21.0981 F   0  0  0  0  0  0
  -21.5629   -3.4534   25.7736 F   0  0  0  0  0  0
  -29.9943  -13.4904   20.4510 N   0  0  0  0  0  0
  -26.2935  -12.9445   20.3284 N   0  0  0  0  0  0
  -25.9322  -11.6581   20.5727 N   0  0  0  0  0  0
  -22.0457  -12.8216   22.0439 N   0  0  0  0  0  0
  -25.4203  -15.1940   20.4148 N   0  0  0  0  0  0
  -31.7613  -14.8455   20.0647 O   0  0  0  0  0  0
  -21.6647   -6.8872   21.4245 O   0  0  0  0  0  0
  -22.3488  -14.5517   20.6718 O   0  0  0  0  0  0
  -24.6330  -31.8538   23.1982 C   0  0  0  0  0  0
  -25.9159  -32.4740   23.8319 C   0  0  1  0  0  0
  -27.2183  -27.2598   20.1350 C   0  0  0  0  0  0
  -25.5955  -33.8544   24.2226 N   0  0  0  0  0  0
  -23.4288  -30.4770   21.5408 C   0  0  2  0  0  0
  -24.8757  -28.9296   20.1039 C   0  0  0  0  0  0
  -22.7515  -29.4589   22.4902 C   0  0  0  0  0  0
  -18.0290  -28.1399   22.8458 C   0  0  0  0  0  0
  -24.1488  -36.7283   23.2637 C   0  0  0  0  0  0
  -25.9742  -30.7667   21.3793 C   0  0  0  0  0  0
  -26.0465  -29.3908   20.7199 C   0  0  0  0  0  0
  -27.2183  -28.5678   20.7258 C   0  0  0  0  0  0
  -26.0309  -26.8776   19.4671 C   0  0  0  0  0  0
  -24.8747  -27.6816   19.4634 C   0  0  0  0  0  0
  -23.6452  -29.8134   20.1556 C   0  0  0  0  0  0
  -25.4117  -36.3052   24.0305 C   0  0  1  0  0  0
  -20.5890  -28.3702   23.1264 C   0  0  2  0  0  0
  -20.6778  -26.9414   22.5418 C   0  0  0  0  0  0
  -19.5761  -26.6372   21.5215 C   0  0  0  0  0  0
  -18.1937  -26.7934   22.1613 C   0  0  0  0  0  0
  -19.1543  -28.8869   23.2847 C   0  0  0  0  0  0
  -18.9468  -30.1470   23.8862 C   0  0  0  0  0  0
  -17.6469  -30.6594   24.0560 C   0  0  0  0  0  0
  -25.9068  -34.9430   23.5061 C   0  0  0  0  0  0
  -16.5356  -29.9091   23.6337 C   0  0  0  0  0  0
  -16.7277  -28.6519   23.0331 C   0  0  0  0  0  0
  -26.4518  -31.6575   25.0718 C   0  0  0  0  0  0
  -25.3735  -31.3750   26.1434 C   0  0  0  0  0  0
  -27.0375  -30.2982   24.6231 C   0  0  0  0  0  0
  -27.6054  -32.4322   25.7516 C   0  0  0  0  0  0
  -27.5567  -37.1795   24.8456 C   0  0  0  0  0  0
  -21.4221  -29.3048   22.3667 N   0  0  0  0  0  0
  -26.4278  -37.3762   23.9405 N   0  0  0  0  0  0
  -24.6973  -31.0502   22.0957 N   0  0  0  0  0  0
  -23.4206  -28.8137   23.3013 O   0  0  0  0  0  0
  -28.3047  -26.3545   20.2334 O   0  0  0  0  0  0
  -26.5647  -34.8915   22.4636 O   0  0  0  0  0  0
  -23.5481  -32.1378   23.7267 O   0  0  0  0  0  0
  -29.4765  -17.0465   18.7980 C   0  0  0  0  0  0
  -29.6562  -18.4730   20.7533 C   0  0  0  0  0  0
  -29.2239  -18.1813   18.0053 C   0  0  0  0  0  0
  -29.3166  -19.4970   18.5534 C   0  0  0  0  0  0
  -29.7304  -17.1331   20.1767 C   0  0  0  0  0  0
  -29.4335  -19.6870   19.9665 C   0  0  0  0  0  0
  -28.8315  -17.9299   16.5766 C   0  0  0  0  0  0
  -28.6239  -22.1742   20.2240 C   0  0  0  0  0  0
  -29.3676  -20.6900   17.5917 C   0  0  0  0  0  0
  -28.9888  -23.6909   20.6090 C   0  0  0  0  0  0
  -28.0660  -24.8831   20.0024 C   0  0  0  0  0  0
  -27.7368  -18.5586   16.1710 N   0  0  0  0  0  0
  -29.4224  -21.0736   20.5360 N   0  0  0  0  0  0
  -29.8836  -15.8415   20.8900 N   0  0  0  0  0  0
  -29.4347  -17.1277   15.8673 O   0  0  0  0  0  0
  -27.5508  -21.9990   19.6450 O   0  0  0  0  0  0
  -31.4765  -12.5462   19.2129 H   0  0  0  0  0  0
  -30.3522  -11.4538   19.9671 H   0  0  0  0  0  0
  -29.8043  -11.7525   17.5291 H   0  0  0  0  0  0
  -29.6665  -13.4780   17.7532 H   0  0  0  0  0  0
  -27.8774  -11.3035   18.8880 H   0  0  0  0  0  0
  -27.3973  -12.5757   17.7943 H   0  0  0  0  0  0
  -27.6521  -14.2679   19.5020 H   0  0  0  0  0  0
  -28.6959  -12.1367   21.4280 H   0  0  0  0  0  0
  -28.4072  -13.8076   21.8244 H   0  0  0  0  0  0
  -25.2761   -9.5696   22.4733 H   0  0  0  0  0  0
  -24.0028   -7.4626   22.7449 H   0  0  0  0  0  0
  -21.0846   -8.8761   19.8945 H   0  0  0  0  0  0
  -22.3692  -10.9661   19.6149 H   0  0  0  0  0  0
  -21.2016   -7.6138   23.9736 H   0  0  0  0  0  0
  -21.1496   -6.0499   25.9088 H   0  0  0  0  0  0
  -22.0589   -2.7602   23.2843 H   0  0  0  0  0  0
  -22.4081  -11.9890   22.4854 H   0  0  0  0  0  0
  -21.1066  -13.1233   22.2632 H   0  0  0  0  0  0
  -24.6567  -15.8508   20.5267 H   0  0  0  0  0  0
  -26.2752  -15.6320   20.0940 H   0  0  0  0  0  0
  -26.7233  -32.5379   23.1074 H   0  0  0  0  0  0
  -25.0094  -33.9670   25.0361 H   0  0  0  0  0  0
  -22.7257  -31.2997   21.3974 H   0  0  0  0  0  0
  -23.3736  -35.9631   23.3304 H   0  0  0  0  0  0
  -24.3581  -36.8908   22.2052 H   0  0  0  0  0  0
  -23.7263  -37.6484   23.6685 H   0  0  0  0  0  0
  -26.1146  -31.5263   20.6092 H   0  0  0  0  0  0
  -26.8539  -30.8155   22.0106 H   0  0  0  0  0  0
  -28.1100  -28.9117   21.2315 H   0  0  0  0  0  0
  -25.9632  -25.9305   18.9532 H   0  0  0  0  0  0
  -23.9828  -27.3273   18.9639 H   0  0  0  0  0  0
  -23.7703  -30.5919   19.4023 H   0  0  0  0  0  0
  -22.7640  -29.2459   19.8500 H   0  0  0  0  0  0
  -25.1307  -36.1879   25.0794 H   0  0  0  0  0  0
  -20.9966  -28.3290   24.1389 H   0  0  0  0  0  0
  -20.5675  -26.2317   23.3632 H   0  0  0  0  0  0
  -21.6651  -26.7447   22.1227 H   0  0  0  0  0  0
  -19.6938  -25.6275   21.1267 H   0  0  0  0  0  0
  -19.6713  -27.3163   20.6729 H   0  0  0  0  0  0
  -17.4215  -26.6655   21.4012 H   0  0  0  0  0  0
  -18.0342  -26.0091   22.9024 H   0  0  0  0  0  0
  -19.7950  -30.7287   24.2208 H   0  0  0  0  0  0
  -17.5032  -31.6270   24.5178 H   0  0  0  0  0  0
  -15.5355  -30.2987   23.7690 H   0  0  0  0  0  0
  -15.8674  -28.0851   22.7031 H   0  0  0  0  0  0
  -24.5911  -30.7096   25.7779 H   0  0  0  0  0  0
  -24.8938  -32.2931   26.4828 H   0  0  0  0  0  0
  -25.8043  -30.8957   27.0230 H   0  0  0  0  0  0
  -26.2978  -29.6716   24.1240 H   0  0  0  0  0  0
  -27.4026  -29.7261   25.4770 H   0  0  0  0  0  0
  -27.8868  -30.4238   23.9514 H   0  0  0  0  0  0
  -27.2644  -33.3618   26.2089 H   0  0  0  0  0  0
  -28.3897  -32.6877   25.0380 H   0  0  0  0  0  0
  -28.0707  -31.8453   26.5445 H   0  0  0  0  0  0
  -28.2578  -38.0094   24.7498 H   0  0  0  0  0  0
  -28.1059  -36.2621   24.6284 H   0  0  0  0  0  0
  -27.2293  -37.1456   25.8859 H   0  0  0  0  0  0
  -20.9422  -29.8759   21.6857 H   0  0  0  0  0  0
  -26.0134  -38.2821   24.1422 H   0  0  0  0  0  0
  -29.4324  -16.0739   18.3243 H   0  0  0  0  0  0
  -29.7797  -18.5714   21.8228 H   0  0  0  0  0  0
  -29.8093  -20.4243   16.6313 H   0  0  0  0  0  0
  -29.9958  -21.4941   17.9702 H   0  0  0  0  0  0
  -28.3690  -21.0803   17.3992 H   0  0  0  0  0  0
  -30.0252  -23.8660   20.3211 H   0  0  0  0  0  0
  -28.9672  -23.7609   21.6960 H   0  0  0  0  0  0
  -27.0614  -24.6483   20.3520 H   0  0  0  0  0  0
  -28.0402  -24.7511   18.9204 H   0  0  0  0  0  0
  -27.2700  -19.1839   16.8120 H   0  0  0  0  0  0
  -27.3635  -18.4128   15.2454 H   0  0  0  0  0  0
  -30.1346  -21.2538   21.2314 H   0  0  0  0  0  0
  -29.1170  -15.6270   21.5114 H   0  0  0  0  0  0
  1 25  1  0  0  0
  1 30  2  0  0  0
  1 84  1  0  0  0
  2  3  1  0  0  0
  2 25  1  0  0  0
  2 87  1  0  0  0
  2 88  1  0  0  0
  3  4  1  0  0  0
  3 89  1  0  0  0
  3 90  1  0  0  0
  4  5  1  0  0  0
  4 91  1  0  0  0
  4 92  1  0  0  0
  5  6  1  0  0  0
  5 26  1  0  0  0
  5 93  1  0  0  0
  6 25  1  0  0  0
  6 94  1  0  0  0
  6 95  1  0  0  0
  7  8  2  0  0  0
  7 26  1  0  0  0
  7 29  1  0  0  0
  8  9  1  0  0  0
  8 22  1  0  0  0
  9 10  1  0  0  0
  9 27  2  0  0  0
 10 11  2  0  0  0
 10 15  1  0  0  0
 11 12  1  0  0  0
 11 96  1  0  0  0
 12 13  2  0  0  0
 12 97  1  0  0  0
 13 14  1  0  0  0
 13 31  1  0  0  0
 14 15  2  0  0  0
 14 98  1  0  0  0
 15 99  1  0  0  0
 16 17  2  0  0  0
 16 21  1  0  0  0
 16 31  1  0  0  0
 17 18  1  0  0  0
 17100  1  0  0  0
 18 19  2  0  0  0
 18101  1  0  0  0
 19 20  1  0  0  0
 19 24  1  0  0  0
 20 21  2  0  0  0
 20102  1  0  0  0
 21 23  1  0  0  0
 22 28  1  0  0  0
 22 32  2  0  0  0
 26 27  1  0  0  0
 28103  1  0  0  0
 28104  1  0  0  0
 29105  1  0  0  0
 29106  1  0  0  0
 33 34  1  0  0  0
 33 66  1  0  0  0
 33 70  2  0  0  0
 34 36  1  0  0  0
 34 59  1  0  0  0
 34107  1  0  0  0
 35 44  2  0  0  0
 35 45  1  0  0  0
 35 68  1  0  0  0
 36 56  1  0  0  0
 36108  1  0  0  0
 37 39  1  0  0  0
 37 47  1  0  0  0
 37 66  1  0  0  0
 37109  1  0  0  0
 38 43  2  0  0  0
 38 46  1  0  0  0
 38 47  1  0  0  0
 39 64  1  0  0  0
 39 67  2  0  0  0
 40 52  1  0  0  0
 40 53  2  0  0  0
 40 58  1  0  0  0
 41110  1  0  0  0
 41111  1  0  0  0
 41112  1  0  0  0
 41 48  1  0  0  0
 42 43  1  0  0  0
 42 66  1  0  0  0
 42113  1  0  0  0
 42114  1  0  0  0
 43 44  1  0  0  0
 44115  1  0  0  0
 45 46  2  0  0  0
 45116  1  0  0  0
 46117  1  0  0  0
 47118  1  0  0  0
 47119  1  0  0  0
 48 56  1  0  0  0
 48 65  1  0  0  0
 48120  1  0  0  0
 49 50  1  0  0  0
 49 53  1  0  0  0
 49 64  1  0  0  0
 49121  1  0  0  0
 50 51  1  0  0  0
 50122  1  0  0  0
 50123  1  0  0  0
 51 52  1  0  0  0
 51124  1  0  0  0
 51125  1  0  0  0
 52126  1  0  0  0
 52127  1  0  0  0
 53 54  1  0  0  0
 54 55  2  0  0  0
 54128  1  0  0  0
 55 57  1  0  0  0
 55129  1  0  0  0
 56 69  2  0  0  0
 57 58  2  0  0  0
 57130  1  0  0  0
 58131  1  0  0  0
 59 60  1  0  0  0
 59 61  1  0  0  0
 59 62  1  0  0  0
 60132  1  0  0  0
 60133  1  0  0  0
 60134  1  0  0  0
 61135  1  0  0  0
 61136  1  0  0  0
 61137  1  0  0  0
 62138  1  0  0  0
 62139  1  0  0  0
 62140  1  0  0  0
 63 65  1  0  0  0
 63141  1  0  0  0
 63142  1  0  0  0
 63143  1  0  0  0
 64144  1  0  0  0
 65145  1  0  0  0
 68 81  1  0  0  0
 71 73  2  0  0  0
 71 75  1  0  0  0
 71146  1  0  0  0
 72 75  2  0  0  0
 72 76  1  0  0  0
 72147  1  0  0  0
 73 74  1  0  0  0
 73 77  1  0  0  0
 74 76  2  0  0  0
 74 79  1  0  0  0
 75 84  1  0  0  0
 76 83  1  0  0  0
 77 82  1  0  0  0
 77 85  2  0  0  0
 78 80  1  0  0  0
 78 83  1  0  0  0
 78 86  2  0  0  0
 79148  1  0  0  0
 79149  1  0  0  0
 79150  1  0  0  0
 80 81  1  0  0  0
 80151  1  0  0  0
 80152  1  0  0  0
 81153  1  0  0  0
 81154  1  0  0  0
 82155  1  0  0  0
 82156  1  0  0  0
 83157  1  0  0  0
 84158  1  0  0  0
M  ISO  4   1 100  68 101  81 101  84 100
M  END
> <chiral flag>
0

> <version>
0

> <s_m_source_file>
/data/baiqing/PycharmProjects/Reinvent-master-3.2/result/LINK_invent/BTK/process_docking_weight1_custom_product_contain_oxygen_bond_distance_aromatic_linkinvent_7_9_3/rearranged_h_0064.sdf

> <i_m_source_file_index>
67

> <r_mmod_Potential_Energy-OPLS-2005>
10.3001298904419

> <r_mmod_Stretch_Energy-OPLS-2005>
133.180145263672

> <r_mmod_Bend_Energy-OPLS-2005>
159.890625

> <r_mmod_Torsional_Energy-OPLS-2005>
296.170318603516

> <r_mmod_Improper_Torsional_Energy-OPLS-2005>
6.25492000579834

> <r_mmod_Van_der_Waal_Energy-OPLS-2005>
155.040573120117

> <r_mmod_Electrostatic_Energy-OPLS-2005>
-554.413757324219

> <r_mmod_Solvation_Energy-OPLS-2005>
-268.337036132812

> <b_mmod_Minimization_Converged-OPLS-2005>
0

> <r_mmod_RMS_Derivative-OPLS-2005>
2.59375762939453

$$$$
68
                    3D
 Structure written by MMmdl.
159168  0  0  1  0            999 V2000
  -30.5119  -14.9027   20.4359 C   0  0  0  0  0  0
  -30.4540  -12.5557   19.4873 C   0  0  0  0  0  0
  -29.5249  -12.5288   18.2496 C   0  0  0  0  0  0
  -28.0546  -12.3196   18.6640 C   0  0  0  0  0  0
  -27.6378  -13.2342   19.8447 C   0  0  2  0  0  0
  -28.6826  -13.2090   20.9817 C   0  0  0  0  0  0
  -25.2497  -13.8178   20.5683 C   0  0  0  0  0  0
  -24.1800  -13.0428   20.9227 C   0  0  0  0  0  0
  -24.6397  -11.6908   20.8755 C   0  0  0  0  0  0
  -23.9072  -10.4288   21.0412 C   0  0  0  0  0  0
  -24.3621   -9.4201   21.9188 C   0  0  0  0  0  0
  -23.6293   -8.2239   22.0755 C   0  0  0  0  0  0
  -22.4276   -8.0280   21.3544 C   0  0  0  0  0  0
  -21.9913   -9.0255   20.4648 C   0  0  0  0  0  0
  -22.7245  -10.2132   20.3059 C   0  0  0  0  0  0
  -21.6852   -6.0734   22.5278 C   0  0  0  0  0  0
  -21.4013   -6.5638   23.8211 C   0  0  0  0  0  0
  -21.3659   -5.6792   24.9174 C   0  0  0  0  0  0
  -21.6045   -4.3054   24.7225 C   0  0  0  0  0  0
  -21.8819   -3.8145   23.4347 C   0  0  0  0  0  0
  -21.9192   -4.6961   22.3402 C   0  0  0  0  0  0
  -22.7822  -13.5212   21.1881 C   0  0  0  0  0  0
  -22.1663   -4.2147   21.0980 F   0  0  0  0  0  0
  -21.5629   -3.4538   25.7739 F   0  0  0  0  0  0
  -29.9672  -13.6242   20.3992 N   0  0  0  0  0  0
  -26.2917  -12.9386   20.3239 N   0  0  0  0  0  0
  -25.9325  -11.6531   20.5733 N   0  0  0  0  0  0
  -22.0463  -12.8208   22.0437 N   0  0  0  0  0  0
  -25.4168  -15.1897   20.4050 N   0  0  0  0  0  0
  -31.7047  -15.0433   20.1412 O   0  0  0  0  0  0
  -21.6638   -6.8879   21.4241 O   0  0  0  0  0  0
  -22.3509  -14.5514   20.6719 O   0  0  0  0  0  0
  -24.6409  -31.8467   23.1898 C   0  0  0  0  0  0
  -25.9193  -32.4709   23.8282 C   0  0  1  0  0  0
  -27.2218  -27.1649   20.1545 C   0  0  0  0  0  0
  -25.5951  -33.8514   24.2203 N   0  0  0  0  0  0
  -23.4436  -30.4655   21.5352 C   0  0  2  0  0  0
  -24.8937  -28.8925   20.1152 C   0  0  0  0  0  0
  -22.7558  -29.4559   22.4877 C   0  0  0  0  0  0
  -18.0304  -28.1393   22.8482 C   0  0  0  0  0  0
  -24.1489  -36.7260   23.2642 C   0  0  0  0  0  0
  -25.9969  -30.7294   21.3841 C   0  0  0  0  0  0
  -26.0704  -29.3413   20.7299 C   0  0  0  0  0  0
  -27.2384  -28.4945   20.7298 C   0  0  0  0  0  0
  -26.0218  -26.8081   19.5042 C   0  0  0  0  0  0
  -24.8802  -27.6374   19.4875 C   0  0  0  0  0  0
  -23.6693  -29.7923   20.1555 C   0  0  0  0  0  0
  -25.4121  -36.3042   24.0319 C   0  0  1  0  0  0
  -20.5915  -28.3719   23.1242 C   0  0  2  0  0  0
  -20.6787  -26.9424   22.5405 C   0  0  0  0  0  0
  -19.5759  -26.6382   21.5212 C   0  0  0  0  0  0
  -18.1942  -26.7933   22.1625 C   0  0  0  0  0  0
  -19.1560  -28.8874   23.2855 C   0  0  0  0  0  0
  -18.9476  -30.1471   23.8878 C   0  0  0  0  0  0
  -17.6472  -30.6590   24.0560 C   0  0  0  0  0  0
  -25.9072  -34.9418   23.5069 C   0  0  0  0  0  0
  -16.5365  -29.9083   23.6335 C   0  0  0  0  0  0
  -16.7289  -28.6501   23.0357 C   0  0  0  0  0  0
  -26.4522  -31.6567   25.0714 C   0  0  0  0  0  0
  -25.3712  -31.3747   26.1414 C   0  0  0  0  0  0
  -27.0385  -30.2967   24.6274 C   0  0  0  0  0  0
  -27.6053  -32.4330   25.7502 C   0  0  0  0  0  0
  -27.5575  -37.1786   24.8466 C   0  0  0  0  0  0
  -21.4254  -29.3049   22.3620 N   0  0  0  0  0  0
  -26.4286  -37.3752   23.9411 N   0  0  0  0  0  0
  -24.7135  -31.0345   22.0920 N   0  0  0  0  0  0
  -23.4210  -28.8111   23.3024 O   0  0  0  0  0  0
  -28.2896  -26.2047   20.1631 O   0  0  0  0  0  0
  -26.5655  -34.8912   22.4646 O   0  0  0  0  0  0
  -23.5535  -32.1335   23.7131 O   0  0  0  0  0  0
  -30.3513  -19.9349   20.5819 C   0  0  0  0  0  0
  -30.5959  -18.4940   20.5495 C   0  0  0  0  0  0
  -28.2694  -18.1373   20.4689 C   0  0  0  0  0  0
  -28.0059  -19.5636   20.4739 C   0  0  0  0  0  0
  -29.0486  -20.5604   20.5743 C   0  0  0  0  0  0
  -29.5535  -17.5060   20.5245 C   0  0  0  0  0  0
  -28.5205  -22.2106   22.2942 C   0  0  0  0  0  0
  -26.5592  -19.9737   20.4557 C   0  0  0  0  0  0
  -27.8695  -23.5048   22.8117 C   0  0  0  0  0  0
  -28.3256  -24.7967   22.1266 C   0  0  0  0  0  0
  -28.7974  -23.3387   20.0974 C   0  0  0  0  0  0
  -28.0578  -24.7465   20.6265 C   0  0  2  0  0  0
  -28.7716  -22.0274   20.9662 N   0  0  0  0  0  0
  -26.2293  -20.9245   19.5928 N   0  0  0  0  0  0
  -29.6182  -15.9815   20.6165 N   0  0  0  0  0  0
  -28.7542  -21.3395   23.1395 O   0  0  0  0  0  0
  -25.7216  -19.4188   21.1641 O   0  0  0  0  0  0
  -31.4853  -12.7311   19.1769 H   0  0  0  0  0  0
  -30.4539  -11.5897   19.9947 H   0  0  0  0  0  0
  -29.8349  -11.7427   17.5600 H   0  0  0  0  0  0
  -29.6191  -13.4686   17.7033 H   0  0  0  0  0  0
  -27.9394  -11.2738   18.9517 H   0  0  0  0  0  0
  -27.3938  -12.4749   17.8103 H   0  0  0  0  0  0
  -27.6148  -14.2454   19.4383 H   0  0  0  0  0  0
  -28.7579  -12.2126   21.4198 H   0  0  0  0  0  0
  -28.3880  -13.8760   21.7936 H   0  0  0  0  0  0
  -25.2763   -9.5674   22.4765 H   0  0  0  0  0  0
  -23.9998   -7.4628   22.7476 H   0  0  0  0  0  0
  -21.0842   -8.8778   19.8954 H   0  0  0  0  0  0
  -22.3705  -10.9673   19.6171 H   0  0  0  0  0  0
  -21.2007   -7.6145   23.9714 H   0  0  0  0  0  0
  -21.1481   -6.0521   25.9076 H   0  0  0  0  0  0
  -22.0598   -2.7606   23.2849 H   0  0  0  0  0  0
  -22.4076  -11.9871   22.4832 H   0  0  0  0  0  0
  -21.1080  -13.1233   22.2635 H   0  0  0  0  0  0
  -24.6414  -15.8359   20.5061 H   0  0  0  0  0  0
  -26.2323  -15.6159   19.9878 H   0  0  0  0  0  0
  -26.7260  -32.5330   23.1017 H   0  0  0  0  0  0
  -25.0079  -33.9631   25.0337 H   0  0  0  0  0  0
  -22.7445  -31.2900   21.3805 H   0  0  0  0  0  0
  -23.3758  -35.9584   23.3296 H   0  0  0  0  0  0
  -24.3573  -36.8900   22.2057 H   0  0  0  0  0  0
  -23.7239  -37.6452   23.6683 H   0  0  0  0  0  0
  -26.1468  -31.4833   20.6101 H   0  0  0  0  0  0
  -26.8692  -30.7820   22.0241 H   0  0  0  0  0  0
  -28.1397  -28.8369   21.2189 H   0  0  0  0  0  0
  -25.9522  -25.8499   19.0096 H   0  0  0  0  0  0
  -23.9836  -27.2889   18.9938 H   0  0  0  0  0  0
  -23.8051  -30.5655   19.3983 H   0  0  0  0  0  0
  -22.7848  -29.2326   19.8461 H   0  0  0  0  0  0
  -25.1305  -36.1874   25.0810 H   0  0  0  0  0  0
  -21.0005  -28.3307   24.1364 H   0  0  0  0  0  0
  -20.5677  -26.2332   23.3623 H   0  0  0  0  0  0
  -21.6652  -26.7430   22.1201 H   0  0  0  0  0  0
  -19.6920  -25.6288   21.1251 H   0  0  0  0  0  0
  -19.6691  -27.3183   20.6733 H   0  0  0  0  0  0
  -17.4209  -26.6683   21.4031 H   0  0  0  0  0  0
  -18.0340  -26.0078   22.9024 H   0  0  0  0  0  0
  -19.7953  -30.7295   24.2236 H   0  0  0  0  0  0
  -17.5025  -31.6267   24.5167 H   0  0  0  0  0  0
  -15.5363  -30.2975   23.7667 H   0  0  0  0  0  0
  -15.8692  -28.0810   22.7081 H   0  0  0  0  0  0
  -24.5896  -30.7093   25.7735 H   0  0  0  0  0  0
  -24.8896  -32.2926   26.4796 H   0  0  0  0  0  0
  -25.8000  -30.8950   27.0222 H   0  0  0  0  0  0
  -26.2998  -29.6693   24.1272 H   0  0  0  0  0  0
  -27.4003  -29.7262   25.4840 H   0  0  0  0  0  0
  -27.8903  -30.4212   23.9584 H   0  0  0  0  0  0
  -27.2644  -33.3644   26.2035 H   0  0  0  0  0  0
  -28.3888  -32.6869   25.0349 H   0  0  0  0  0  0
  -28.0696  -31.8487   26.5457 H   0  0  0  0  0  0
  -28.2584  -38.0090   24.7514 H   0  0  0  0  0  0
  -28.1079  -36.2620   24.6290 H   0  0  0  0  0  0
  -27.2295  -37.1429   25.8870 H   0  0  0  0  0  0
  -20.9467  -29.8758   21.6795 H   0  0  0  0  0  0
  -26.0157  -38.2822   24.1415 H   0  0  0  0  0  0
  -31.2127  -20.5790   20.6900 H   0  0  0  0  0  0
  -31.6205  -18.1533   20.6014 H   0  0  0  0  0  0
  -27.4063  -17.4870   20.4433 H   0  0  0  0  0  0
  -28.0586  -23.5875   23.8824 H   0  0  0  0  0  0
  -26.7899  -23.3941   22.7049 H   0  0  0  0  0  0
  -29.3870  -24.9667   22.3110 H   0  0  0  0  0  0
  -27.7968  -25.6395   22.5732 H   0  0  0  0  0  0
  -29.8532  -23.5644   19.9468 H   0  0  0  0  0  0
  -28.4147  -23.0949   19.1071 H   0  0  0  0  0  0
  -26.9917  -24.5525   20.5104 H   0  0  0  0  0  0
  -26.9293  -21.3073   18.9761 H   0  0  0  0  0  0
  -25.2688  -21.2216   19.5073 H   0  0  0  0  0  0
  -28.7076  -15.5908   20.8010 H   0  0  0  0  0  0
  1 25  1  0  0  0
  1 30  2  0  0  0
  1 85  1  0  0  0
  2  3  1  0  0  0
  2 25  1  0  0  0
  2 88  1  0  0  0
  2 89  1  0  0  0
  3  4  1  0  0  0
  3 90  1  0  0  0
  3 91  1  0  0  0
  4  5  1  0  0  0
  4 92  1  0  0  0
  4 93  1  0  0  0
  5  6  1  0  0  0
  5 26  1  0  0  0
  5 94  1  0  0  0
  6 25  1  0  0  0
  6 95  1  0  0  0
  6 96  1  0  0  0
  7  8  2  0  0  0
  7 26  1  0  0  0
  7 29  1  0  0  0
  8  9  1  0  0  0
  8 22  1  0  0  0
  9 10  1  0  0  0
  9 27  2  0  0  0
 10 11  2  0  0  0
 10 15  1  0  0  0
 11 12  1  0  0  0
 11 97  1  0  0  0
 12 13  2  0  0  0
 12 98  1  0  0  0
 13 14  1  0  0  0
 13 31  1  0  0  0
 14 15  2  0  0  0
 14 99  1  0  0  0
 15100  1  0  0  0
 16 17  2  0  0  0
 16 21  1  0  0  0
 16 31  1  0  0  0
 17 18  1  0  0  0
 17101  1  0  0  0
 18 19  2  0  0  0
 18102  1  0  0  0
 19 20  1  0  0  0
 19 24  1  0  0  0
 20 21  2  0  0  0
 20103  1  0  0  0
 21 23  1  0  0  0
 22 28  1  0  0  0
 22 32  2  0  0  0
 26 27  1  0  0  0
 28104  1  0  0  0
 28105  1  0  0  0
 29106  1  0  0  0
 29107  1  0  0  0
 33 34  1  0  0  0
 33 66  1  0  0  0
 33 70  2  0  0  0
 34 36  1  0  0  0
 34 59  1  0  0  0
 34108  1  0  0  0
 35 44  2  0  0  0
 35 45  1  0  0  0
 35 68  1  0  0  0
 36 56  1  0  0  0
 36109  1  0  0  0
 37 39  1  0  0  0
 37 47  1  0  0  0
 37 66  1  0  0  0
 37110  1  0  0  0
 38 43  2  0  0  0
 38 46  1  0  0  0
 38 47  1  0  0  0
 39 64  1  0  0  0
 39 67  2  0  0  0
 40 52  1  0  0  0
 40 53  2  0  0  0
 40 58  1  0  0  0
 41111  1  0  0  0
 41112  1  0  0  0
 41113  1  0  0  0
 41 48  1  0  0  0
 42 43  1  0  0  0
 42 66  1  0  0  0
 42114  1  0  0  0
 42115  1  0  0  0
 43 44  1  0  0  0
 44116  1  0  0  0
 45 46  2  0  0  0
 45117  1  0  0  0
 46118  1  0  0  0
 47119  1  0  0  0
 47120  1  0  0  0
 48 56  1  0  0  0
 48 65  1  0  0  0
 48121  1  0  0  0
 49 50  1  0  0  0
 49 53  1  0  0  0
 49 64  1  0  0  0
 49122  1  0  0  0
 50 51  1  0  0  0
 50123  1  0  0  0
 50124  1  0  0  0
 51 52  1  0  0  0
 51125  1  0  0  0
 51126  1  0  0  0
 52127  1  0  0  0
 52128  1  0  0  0
 53 54  1  0  0  0
 54 55  2  0  0  0
 54129  1  0  0  0
 55 57  1  0  0  0
 55130  1  0  0  0
 56 69  2  0  0  0
 57 58  2  0  0  0
 57131  1  0  0  0
 58132  1  0  0  0
 59 60  1  0  0  0
 59 61  1  0  0  0
 59 62  1  0  0  0
 60133  1  0  0  0
 60134  1  0  0  0
 60135  1  0  0  0
 61136  1  0  0  0
 61137  1  0  0  0
 61138  1  0  0  0
 62139  1  0  0  0
 62140  1  0  0  0
 62141  1  0  0  0
 63 65  1  0  0  0
 63142  1  0  0  0
 63143  1  0  0  0
 63144  1  0  0  0
 64145  1  0  0  0
 65146  1  0  0  0
 68 82  1  0  0  0
 71 72  2  0  0  0
 71 75  1  0  0  0
 71147  1  0  0  0
 72 76  1  0  0  0
 72148  1  0  0  0
 73 74  1  0  0  0
 73 76  2  0  0  0
 73149  1  0  0  0
 74 75  2  0  0  0
 74 78  1  0  0  0
 75 83  1  0  0  0
 76 85  1  0  0  0
 77 79  1  0  0  0
 77 83  1  0  0  0
 77 86  2  0  0  0
 78 84  1  0  0  0
 78 87  2  0  0  0
 79 80  1  0  0  0
 79150  1  0  0  0
 79151  1  0  0  0
 80 82  1  0  0  0
 80152  1  0  0  0
 80153  1  0  0  0
 81 82  1  0  0  0
 81 83  1  0  0  0
 81154  1  0  0  0
 81155  1  0  0  0
 82156  1  0  0  0
 84157  1  0  0  0
 84158  1  0  0  0
 85159  1  0  0  0
M  ISO  4   1 100  68 101  82 101  85 100
M  END
> <chiral flag>
0

> <version>
0

> <s_m_source_file>
/data/baiqing/PycharmProjects/Reinvent-master-3.2/result/LINK_invent/BTK/process_docking_weight1_custom_product_contain_oxygen_bond_distance_aromatic_linkinvent_7_9_3/rearranged_h_0064.sdf

> <i_m_source_file_index>
68

> <r_mmod_Potential_Energy-OPLS-2005>
353.256713867188

> <r_mmod_Stretch_Energy-OPLS-2005>
220.609069824219

> <r_mmod_Bend_Energy-OPLS-2005>
254.300430297852

> <r_mmod_Torsional_Energy-OPLS-2005>
332.202056884766

> <r_mmod_Improper_Torsional_Energy-OPLS-2005>
8.03916454315186

> <r_mmod_Van_der_Waal_Energy-OPLS-2005>
134.866714477539

> <r_mmod_Electrostatic_Energy-OPLS-2005>
-496.097808837891

> <r_mmod_Solvation_Energy-OPLS-2005>
-264.228729248047

> <b_mmod_Minimization_Converged-OPLS-2005>
0

> <r_mmod_RMS_Derivative-OPLS-2005>
0.433131724596024

$$$$
69
                    3D
 Structure written by MMmdl.
151159  0  0  1  0            999 V2000
  -30.6197  -14.7111   20.4502 C   0  0  0  0  0  0
  -30.4310  -12.4208   19.4960 C   0  0  0  0  0  0
  -29.5253  -12.5170   18.2481 C   0  0  0  0  0  0
  -28.0428  -12.3536   18.6418 C   0  0  0  0  0  0
  -27.6501  -13.2359   19.8581 C   0  0  2  0  0  0
  -28.6874  -13.1497   21.0007 C   0  0  0  0  0  0
  -25.2558  -13.8211   20.5710 C   0  0  0  0  0  0
  -24.1834  -13.0444   20.9191 C   0  0  0  0  0  0
  -24.6430  -11.6928   20.8731 C   0  0  0  0  0  0
  -23.9107  -10.4301   21.0384 C   0  0  0  0  0  0
  -24.3651   -9.4206   21.9165 C   0  0  0  0  0  0
  -23.6312   -8.2246   22.0747 C   0  0  0  0  0  0
  -22.4288   -8.0288   21.3543 C   0  0  0  0  0  0
  -21.9932   -9.0267   20.4647 C   0  0  0  0  0  0
  -22.7281  -10.2136   20.3038 C   0  0  0  0  0  0
  -21.6854   -6.0734   22.5276 C   0  0  0  0  0  0
  -21.4024   -6.5634   23.8216 C   0  0  0  0  0  0
  -21.3662   -5.6784   24.9174 C   0  0  0  0  0  0
  -21.6045   -4.3050   24.7219 C   0  0  0  0  0  0
  -21.8824   -3.8141   23.4344 C   0  0  0  0  0  0
  -21.9202   -4.6961   22.3403 C   0  0  0  0  0  0
  -22.7851  -13.5211   21.1847 C   0  0  0  0  0  0
  -22.1661   -4.2148   21.0977 F   0  0  0  0  0  0
  -21.5632   -3.4534   25.7732 F   0  0  0  0  0  0
  -29.9999  -13.4834   20.4331 N   0  0  0  0  0  0
  -26.2988  -12.9427   20.3277 N   0  0  0  0  0  0
  -25.9367  -11.6565   20.5735 N   0  0  0  0  0  0
  -22.0512  -12.8194   22.0416 N   0  0  0  0  0  0
  -25.4287  -15.1940   20.4207 N   0  0  0  0  0  0
  -31.7975  -14.8066   20.0899 O   0  0  0  0  0  0
  -21.6639   -6.8886   21.4238 O   0  0  0  0  0  0
  -22.3524  -14.5512   20.6689 O   0  0  0  0  0  0
  -24.6353  -31.8557   23.2001 C   0  0  0  0  0  0
  -25.9157  -32.4787   23.8358 C   0  0  1  0  0  0
  -27.2070  -27.2576   20.1141 C   0  0  0  0  0  0
  -25.5936  -33.8586   24.2279 N   0  0  0  0  0  0
  -23.4316  -30.4831   21.5439 C   0  0  2  0  0  0
  -24.8741  -28.9377   20.1076 C   0  0  0  0  0  0
  -22.7548  -29.4605   22.4904 C   0  0  0  0  0  0
  -18.0301  -28.1407   22.8503 C   0  0  0  0  0  0
  -24.1483  -36.7280   23.2638 C   0  0  0  0  0  0
  -25.9823  -30.7707   21.3774 C   0  0  0  0  0  0
  -26.0516  -29.3961   20.7113 C   0  0  0  0  0  0
  -27.2251  -28.5718   20.6941 C   0  0  0  0  0  0
  -25.9986  -26.8689   19.4886 C   0  0  0  0  0  0
  -24.8538  -27.6842   19.4829 C   0  0  0  0  0  0
  -23.6488  -29.8280   20.1575 C   0  0  0  0  0  0
  -25.4116  -36.3099   24.0336 C   0  0  1  0  0  0
  -20.5919  -28.3695   23.1277 C   0  0  2  0  0  0
  -20.6793  -26.9412   22.5408 C   0  0  0  0  0  0
  -19.5758  -26.6392   21.5223 C   0  0  0  0  0  0
  -18.1935  -26.7959   22.1632 C   0  0  0  0  0  0
  -19.1559  -28.8869   23.2891 C   0  0  0  0  0  0
  -18.9464  -30.1470   23.8916 C   0  0  0  0  0  0
  -17.6458  -30.6598   24.0565 C   0  0  0  0  0  0
  -25.9055  -34.9465   23.5112 C   0  0  0  0  0  0
  -16.5351  -29.9098   23.6327 C   0  0  0  0  0  0
  -16.7287  -28.6515   23.0367 C   0  0  0  0  0  0
  -26.4497  -31.6631   25.0761 C   0  0  0  0  0  0
  -25.3702  -31.3776   26.1465 C   0  0  0  0  0  0
  -27.0322  -30.3055   24.6226 C   0  0  0  0  0  0
  -27.6062  -32.4369   25.7516 C   0  0  0  0  0  0
  -27.5589  -37.1802   24.8474 C   0  0  0  0  0  0
  -21.4247  -29.3039   22.3670 N   0  0  0  0  0  0
  -26.4291  -37.3786   23.9427 N   0  0  0  0  0  0
  -24.7033  -31.0540   22.0965 N   0  0  0  0  0  0
  -23.4250  -28.8126   23.2983 O   0  0  0  0  0  0
  -28.2909  -26.3468   20.1705 O   0  0  0  0  0  0
  -26.5614  -34.8922   22.4670 O   0  0  0  0  0  0
  -23.5499  -32.1341   23.7302 O   0  0  0  0  0  0
  -29.5788  -18.4673   20.5943 C   0  0  0  0  0  0
  -30.2992  -17.1798   18.6584 C   0  0  0  0  0  0
  -29.9361  -17.1710   20.0236 C   0  0  0  0  0  0
  -29.6068  -19.7197   19.8418 C   0  0  0  0  0  0
  -30.3441  -18.3703   17.9112 C   0  0  0  0  0  0
  -30.0236  -19.6152   18.4880 C   0  0  0  0  0  0
  -28.7984  -22.2020   19.8166 C   0  0  0  0  0  0
  -29.0557  -23.6968   20.3444 C   0  0  0  0  0  0
  -28.0101  -24.8771   19.9752 C   0  0  0  0  0  0
  -29.3593  -21.0773   20.4090 N   0  0  0  0  0  0
  -29.8697  -15.8508   20.7046 N   0  0  0  0  0  0
  -28.0438  -22.0684   18.8506 O   0  0  0  0  0  0
  -30.7227  -18.3159   16.6110 F   0  0  0  0  0  0
  -30.1767  -20.7220   17.7211 F   0  0  0  0  0  0
  -31.4813  -12.5151   19.2129 H   0  0  0  0  0  0
  -30.3381  -11.4384   19.9648 H   0  0  0  0  0  0
  -29.8088  -11.7601   17.5163 H   0  0  0  0  0  0
  -29.6756  -13.4833   17.7639 H   0  0  0  0  0  0
  -27.8804  -11.3025   18.8808 H   0  0  0  0  0  0
  -27.3993  -12.5758   17.7897 H   0  0  0  0  0  0
  -27.6532  -14.2652   19.4971 H   0  0  0  0  0  0
  -28.7044  -12.1494   21.4363 H   0  0  0  0  0  0
  -28.4264  -13.8315   21.8125 H   0  0  0  0  0  0
  -25.2804   -9.5662   22.4737 H   0  0  0  0  0  0
  -24.0017   -7.4627   22.7458 H   0  0  0  0  0  0
  -21.0859   -8.8802   19.8949 H   0  0  0  0  0  0
  -22.3752  -10.9676   19.6138 H   0  0  0  0  0  0
  -21.2013   -7.6145   23.9722 H   0  0  0  0  0  0
  -21.1478   -6.0508   25.9080 H   0  0  0  0  0  0
  -22.0606   -2.7600   23.2840 H   0  0  0  0  0  0
  -22.4128  -11.9853   22.4793 H   0  0  0  0  0  0
  -21.1131  -13.1215   22.2629 H   0  0  0  0  0  0
  -24.6718  -15.8562   20.5539 H   0  0  0  0  0  0
  -26.2880  -15.6336   20.1175 H   0  0  0  0  0  0
  -26.7238  -32.5429   23.1116 H   0  0  0  0  0  0
  -25.0148  -33.9743   25.0469 H   0  0  0  0  0  0
  -22.7262  -31.3048   21.4044 H   0  0  0  0  0  0
  -23.3771  -35.9592   23.3309 H   0  0  0  0  0  0
  -24.3559  -36.8871   22.2045 H   0  0  0  0  0  0
  -23.7194  -37.6472   23.6637 H   0  0  0  0  0  0
  -26.1246  -31.5347   20.6121 H   0  0  0  0  0  0
  -26.8610  -30.8181   22.0100 H   0  0  0  0  0  0
  -28.1350  -28.9223   21.1600 H   0  0  0  0  0  0
  -25.8914  -25.9090   19.0076 H   0  0  0  0  0  0
  -23.9510  -27.3288   19.0036 H   0  0  0  0  0  0
  -23.7789  -30.6093   19.4072 H   0  0  0  0  0  0
  -22.7662  -29.2663   19.8493 H   0  0  0  0  0  0
  -25.1288  -36.1950   25.0828 H   0  0  0  0  0  0
  -21.0011  -28.3264   24.1399 H   0  0  0  0  0  0
  -20.5692  -26.2302   23.3609 H   0  0  0  0  0  0
  -21.6653  -26.7441   22.1178 H   0  0  0  0  0  0
  -19.6891  -25.6295   21.1266 H   0  0  0  0  0  0
  -19.6694  -27.3202   20.6751 H   0  0  0  0  0  0
  -17.4199  -26.6721   21.4035 H   0  0  0  0  0  0
  -18.0309  -26.0108   22.9031 H   0  0  0  0  0  0
  -19.7927  -30.7296   24.2303 H   0  0  0  0  0  0
  -17.4996  -31.6280   24.5164 H   0  0  0  0  0  0
  -15.5350  -30.2996   23.7643 H   0  0  0  0  0  0
  -15.8692  -28.0827   22.7091 H   0  0  0  0  0  0
  -24.5915  -30.7080   25.7789 H   0  0  0  0  0  0
  -24.8837  -32.2932   26.4846 H   0  0  0  0  0  0
  -25.8001  -30.8993   27.0276 H   0  0  0  0  0  0
  -26.2884  -29.6842   24.1220 H   0  0  0  0  0  0
  -27.3977  -29.7288   25.4733 H   0  0  0  0  0  0
  -27.8788  -30.4348   23.9479 H   0  0  0  0  0  0
  -27.2704  -33.3703   26.2044 H   0  0  0  0  0  0
  -28.3883  -32.6871   25.0341 H   0  0  0  0  0  0
  -28.0717  -31.8519   26.5455 H   0  0  0  0  0  0
  -28.2610  -38.0100   24.7548 H   0  0  0  0  0  0
  -28.1078  -36.2635   24.6271 H   0  0  0  0  0  0
  -27.2308  -37.1411   25.8874 H   0  0  0  0  0  0
  -20.9437  -29.8774   21.6887 H   0  0  0  0  0  0
  -26.0186  -38.2865   24.1442 H   0  0  0  0  0  0
  -29.2844  -18.5043   21.6326 H   0  0  0  0  0  0
  -30.5467  -16.2618   18.1477 H   0  0  0  0  0  0
  -30.0207  -23.9834   19.9274 H   0  0  0  0  0  0
  -29.2016  -23.6705   21.4238 H   0  0  0  0  0  0
  -27.7318  -24.7373   18.9293 H   0  0  0  0  0  0
  -27.1126  -24.6525   20.5533 H   0  0  0  0  0  0
  -29.7532  -21.2338   21.3264 H   0  0  0  0  0  0
  -29.0317  -15.6886   21.2445 H   0  0  0  0  0  0
  1 25  1  0  0  0
  1 30  2  0  0  0
  1 81  1  0  0  0
  2  3  1  0  0  0
  2 25  1  0  0  0
  2 85  1  0  0  0
  2 86  1  0  0  0
  3  4  1  0  0  0
  3 87  1  0  0  0
  3 88  1  0  0  0
  4  5  1  0  0  0
  4 89  1  0  0  0
  4 90  1  0  0  0
  5  6  1  0  0  0
  5 26  1  0  0  0
  5 91  1  0  0  0
  6 25  1  0  0  0
  6 92  1  0  0  0
  6 93  1  0  0  0
  7  8  2  0  0  0
  7 26  1  0  0  0
  7 29  1  0  0  0
  8  9  1  0  0  0
  8 22  1  0  0  0
  9 10  1  0  0  0
  9 27  2  0  0  0
 10 11  2  0  0  0
 10 15  1  0  0  0
 11 12  1  0  0  0
 11 94  1  0  0  0
 12 13  2  0  0  0
 12 95  1  0  0  0
 13 14  1  0  0  0
 13 31  1  0  0  0
 14 15  2  0  0  0
 14 96  1  0  0  0
 15 97  1  0  0  0
 16 17  2  0  0  0
 16 21  1  0  0  0
 16 31  1  0  0  0
 17 18  1  0  0  0
 17 98  1  0  0  0
 18 19  2  0  0  0
 18 99  1  0  0  0
 19 20  1  0  0  0
 19 24  1  0  0  0
 20 21  2  0  0  0
 20100  1  0  0  0
 21 23  1  0  0  0
 22 28  1  0  0  0
 22 32  2  0  0  0
 26 27  1  0  0  0
 28101  1  0  0  0
 28102  1  0  0  0
 29103  1  0  0  0
 29104  1  0  0  0
 33 34  1  0  0  0
 33 66  1  0  0  0
 33 70  2  0  0  0
 34 36  1  0  0  0
 34 59  1  0  0  0
 34105  1  0  0  0
 35 44  2  0  0  0
 35 45  1  0  0  0
 35 68  1  0  0  0
 36 56  1  0  0  0
 36106  1  0  0  0
 37 39  1  0  0  0
 37 47  1  0  0  0
 37 66  1  0  0  0
 37107  1  0  0  0
 38 43  2  0  0  0
 38 46  1  0  0  0
 38 47  1  0  0  0
 39 64  1  0  0  0
 39 67  2  0  0  0
 40 52  1  0  0  0
 40 53  2  0  0  0
 40 58  1  0  0  0
 41108  1  0  0  0
 41109  1  0  0  0
 41110  1  0  0  0
 41 48  1  0  0  0
 42 43  1  0  0  0
 42 66  1  0  0  0
 42111  1  0  0  0
 42112  1  0  0  0
 43 44  1  0  0  0
 44113  1  0  0  0
 45 46  2  0  0  0
 45114  1  0  0  0
 46115  1  0  0  0
 47116  1  0  0  0
 47117  1  0  0  0
 48 56  1  0  0  0
 48 65  1  0  0  0
 48118  1  0  0  0
 49 50  1  0  0  0
 49 53  1  0  0  0
 49 64  1  0  0  0
 49119  1  0  0  0
 50 51  1  0  0  0
 50120  1  0  0  0
 50121  1  0  0  0
 51 52  1  0  0  0
 51122  1  0  0  0
 51123  1  0  0  0
 52124  1  0  0  0
 52125  1  0  0  0
 53 54  1  0  0  0
 54 55  2  0  0  0
 54126  1  0  0  0
 55 57  1  0  0  0
 55127  1  0  0  0
 56 69  2  0  0  0
 57 58  2  0  0  0
 57128  1  0  0  0
 58129  1  0  0  0
 59 60  1  0  0  0
 59 61  1  0  0  0
 59 62  1  0  0  0
 60130  1  0  0  0
 60131  1  0  0  0
 60132  1  0  0  0
 61133  1  0  0  0
 61134  1  0  0  0
 61135  1  0  0  0
 62136  1  0  0  0
 62137  1  0  0  0
 62138  1  0  0  0
 63 65  1  0  0  0
 63139  1  0  0  0
 63140  1  0  0  0
 63141  1  0  0  0
 64142  1  0  0  0
 65143  1  0  0  0
 68 79  1  0  0  0
 71 73  2  0  0  0
 71 74  1  0  0  0
 71144  1  0  0  0
 72 73  1  0  0  0
 72 75  2  0  0  0
 72145  1  0  0  0
 73 81  1  0  0  0
 74 76  2  0  0  0
 74 80  1  0  0  0
 75 76  1  0  0  0
 75 83  1  0  0  0
 76 84  1  0  0  0
 77 78  1  0  0  0
 77 80  1  0  0  0
 77 82  2  0  0  0
 78 79  1  0  0  0
 78146  1  0  0  0
 78147  1  0  0  0
 79148  1  0  0  0
 79149  1  0  0  0
 80150  1  0  0  0
 81151  1  0  0  0
M  ISO  4   1 100  68 101  79 101  81 100
M  END
> <chiral flag>
0

> <version>
0

> <s_m_source_file>
/data/baiqing/PycharmProjects/Reinvent-master-3.2/result/LINK_invent/BTK/process_docking_weight1_custom_product_contain_oxygen_bond_distance_aromatic_linkinvent_7_9_3/rearranged_h_0064.sdf

> <i_m_source_file_index>
69

> <r_mmod_Potential_Energy-OPLS-2005>
160.08561706543

> <r_mmod_Stretch_Energy-OPLS-2005>
125.210174560547

> <r_mmod_Bend_Energy-OPLS-2005>
153.561889648438

> <r_mmod_Torsional_Energy-OPLS-2005>
258.341522216797

> <r_mmod_Improper_Torsional_Energy-OPLS-2005>
5.30402660369873

> <r_mmod_Van_der_Waal_Energy-OPLS-2005>
147.201766967773

> <r_mmod_Electrostatic_Energy-OPLS-2005>
-372.536346435547

> <r_mmod_Solvation_Energy-OPLS-2005>
-236.908645629883

> <b_mmod_Minimization_Converged-OPLS-2005>
0

> <r_mmod_RMS_Derivative-OPLS-2005>
2.90260577201843

$$$$
70
                    3D
 Structure written by MMmdl.
156164  0  0  1  0            999 V2000
  -30.5814  -14.7186   20.4617 C   0  0  0  0  0  0
  -30.4500  -12.4235   19.4515 C   0  0  0  0  0  0
  -29.5254  -12.5221   18.2156 C   0  0  0  0  0  0
  -28.0379  -12.3827   18.6117 C   0  0  0  0  0  0
  -27.6569  -13.2310   19.8538 C   0  0  2  0  0  0
  -28.7054  -13.0850   20.9818 C   0  0  0  0  0  0
  -25.2564  -13.8191   20.5643 C   0  0  0  0  0  0
  -24.1824  -13.0443   20.9153 C   0  0  0  0  0  0
  -24.6387  -11.6926   20.8652 C   0  0  0  0  0  0
  -23.9045  -10.4313   21.0372 C   0  0  0  0  0  0
  -24.3571   -9.4248   21.9201 C   0  0  0  0  0  0
  -23.6283   -8.2252   22.0744 C   0  0  0  0  0  0
  -22.4280   -8.0259   21.3512 C   0  0  0  0  0  0
  -21.9891   -9.0255   20.4630 C   0  0  0  0  0  0
  -22.7191  -10.2164   20.3044 C   0  0  0  0  0  0
  -21.6873   -6.0709   22.5261 C   0  0  0  0  0  0
  -21.4012   -6.5617   23.8190 C   0  0  0  0  0  0
  -21.3658   -5.6744   24.9155 C   0  0  0  0  0  0
  -21.6061   -4.2999   24.7199 C   0  0  0  0  0  0
  -21.8843   -3.8100   23.4315 C   0  0  0  0  0  0
  -21.9175   -4.6930   22.3386 C   0  0  0  0  0  0
  -22.7849  -13.5268   21.1806 C   0  0  0  0  0  0
  -22.1672   -4.2119   21.0976 F   0  0  0  0  0  0
  -21.5622   -3.4495   25.7719 F   0  0  0  0  0  0
  -30.0154  -13.4597   20.4198 N   0  0  0  0  0  0
  -26.3002  -12.9391   20.3222 N   0  0  0  0  0  0
  -25.9334  -11.6539   20.5664 N   0  0  0  0  0  0
  -22.0380  -12.8370   22.0330 N   0  0  0  0  0  0
  -25.4330  -15.1902   20.4145 N   0  0  0  0  0  0
  -31.7260  -14.9071   20.0421 O   0  0  0  0  0  0
  -21.6600   -6.8875   21.4242 O   0  0  0  0  0  0
  -22.3587  -14.5591   20.6648 O   0  0  0  0  0  0
  -24.6413  -31.8566   23.2044 C   0  0  0  0  0  0
  -25.9250  -32.4730   23.8375 C   0  0  1  0  0  0
  -27.1803  -27.2164   20.1184 C   0  0  0  0  0  0
  -25.6061  -33.8544   24.2293 N   0  0  0  0  0  0
  -23.4289  -30.4910   21.5519 C   0  0  2  0  0  0
  -24.8657  -28.9403   20.1097 C   0  0  0  0  0  0
  -22.7525  -29.4664   22.4975 C   0  0  0  0  0  0
  -18.0288  -28.1387   22.8445 C   0  0  0  0  0  0
  -24.1503  -36.7256   23.2633 C   0  0  0  0  0  0
  -25.9830  -30.7543   21.3914 C   0  0  0  0  0  0
  -26.0426  -29.3744   20.7254 C   0  0  0  0  0  0
  -27.2056  -28.5275   20.7225 C   0  0  0  0  0  0
  -25.9758  -26.8828   19.4530 C   0  0  0  0  0  0
  -24.8358  -27.6982   19.4634 C   0  0  0  0  0  0
  -23.6420  -29.8344   20.1641 C   0  0  0  0  0  0
  -25.4117  -36.3049   24.0338 C   0  0  1  0  0  0
  -20.5861  -28.3729   23.1252 C   0  0  2  0  0  0
  -20.6772  -26.9481   22.5375 C   0  0  0  0  0  0
  -19.5771  -26.6383   21.5185 C   0  0  0  0  0  0
  -18.1932  -26.7921   22.1584 C   0  0  0  0  0  0
  -19.1515  -28.8876   23.2821 C   0  0  0  0  0  0
  -18.9455  -30.1470   23.8873 C   0  0  0  0  0  0
  -17.6450  -30.6602   24.0522 C   0  0  0  0  0  0
  -25.9081  -34.9455   23.5086 C   0  0  0  0  0  0
  -16.5342  -29.9073   23.6335 C   0  0  0  0  0  0
  -16.7254  -28.6459   23.0380 C   0  0  0  0  0  0
  -26.4576  -31.6551   25.0800 C   0  0  0  0  0  0
  -25.3765  -31.3701   26.1487 C   0  0  0  0  0  0
  -27.0394  -30.2933   24.6340 C   0  0  0  0  0  0
  -27.6145  -32.4275   25.7542 C   0  0  0  0  0  0
  -27.5578  -37.1782   24.8450 C   0  0  0  0  0  0
  -21.4232  -29.3092   22.3685 N   0  0  0  0  0  0
  -26.4248  -37.3782   23.9453 N   0  0  0  0  0  0
  -24.7033  -31.0529   22.1022 N   0  0  0  0  0  0
  -23.4200  -28.8198   23.3081 O   0  0  0  0  0  0
  -28.2319  -26.2531   20.1941 O   0  0  0  0  0  0
  -26.5620  -34.8922   22.4638 O   0  0  0  0  0  0
  -23.5583  -32.1444   23.7310 O   0  0  0  0  0  0
  -28.8711  -17.9775   21.5818 C   0  0  0  0  0  0
  -28.5392  -19.3498   21.3685 C   0  0  0  0  0  0
  -30.1895  -17.9661   19.5713 C   0  0  0  0  0  0
  -29.8309  -19.3509   19.3176 C   0  0  0  0  0  0
  -29.6740  -17.2176   20.6785 C   0  0  0  0  0  0
  -28.9398  -20.0777   20.2091 C   0  0  0  0  0  0
  -30.3817  -19.9835   18.0282 C   0  0  0  0  0  0
  -28.2441  -24.9120   18.2009 C   0  0  0  0  0  0
  -28.7398  -23.4671   20.3081 C   0  0  0  0  0  0
  -28.0014  -24.8160   19.7219 C   0  0  1  0  0  0
  -29.7694  -15.7474   20.8994 N   0  0  0  0  0  0
  -27.7746  -21.7263   18.3646 O   0  0  0  0  0  0
  -26.7382  -21.6320   20.6258 O   0  0  0  0  0  0
  -27.9838  -21.7143   19.8224 S   0  0  0  0  0  0
  -31.4933  -12.5542   19.1552 H   0  0  0  0  0  0
  -30.3874  -11.4297   19.8996 H   0  0  0  0  0  0
  -29.7919  -11.7467   17.4961 H   0  0  0  0  0  0
  -29.6913  -13.4736   17.7072 H   0  0  0  0  0  0
  -27.8387  -11.3302   18.8117 H   0  0  0  0  0  0
  -27.4041  -12.6585   17.7670 H   0  0  0  0  0  0
  -27.6751  -14.2723   19.5286 H   0  0  0  0  0  0
  -28.7221  -12.0557   21.3422 H   0  0  0  0  0  0
  -28.4396  -13.6958   21.8502 H   0  0  0  0  0  0
  -25.2725   -9.5738   22.4771 H   0  0  0  0  0  0
  -23.9966   -7.4653   22.7508 H   0  0  0  0  0  0
  -21.0778   -8.8794   19.8996 H   0  0  0  0  0  0
  -22.3638  -10.9682   19.6104 H   0  0  0  0  0  0
  -21.2021   -7.6148   23.9716 H   0  0  0  0  0  0
  -21.1470   -6.0453   25.9062 H   0  0  0  0  0  0
  -22.0619   -2.7572   23.2791 H   0  0  0  0  0  0
  -22.3875  -12.0061   22.4854 H   0  0  0  0  0  0
  -21.1023  -13.1523   22.2451 H   0  0  0  0  0  0
  -24.6798  -15.8534   20.5602 H   0  0  0  0  0  0
  -26.2863  -15.6207   20.0757 H   0  0  0  0  0  0
  -26.7321  -32.5319   23.1117 H   0  0  0  0  0  0
  -25.0335  -33.9631   25.0522 H   0  0  0  0  0  0
  -22.7244  -31.3134   21.4157 H   0  0  0  0  0  0
  -23.3774  -35.9559   23.3241 H   0  0  0  0  0  0
  -24.3609  -36.8944   22.2055 H   0  0  0  0  0  0
  -23.7229  -37.6443   23.6661 H   0  0  0  0  0  0
  -26.1414  -31.5151   20.6218 H   0  0  0  0  0  0
  -26.8541  -30.7831   22.0361 H   0  0  0  0  0  0
  -28.0961  -28.8552   21.2349 H   0  0  0  0  0  0
  -25.8471  -25.9529   18.9237 H   0  0  0  0  0  0
  -23.9402  -27.3604   18.9588 H   0  0  0  0  0  0
  -23.7722  -30.6132   19.4124 H   0  0  0  0  0  0
  -22.7509  -29.2833   19.8545 H   0  0  0  0  0  0
  -25.1293  -36.1864   25.0814 H   0  0  0  0  0  0
  -20.9917  -28.3311   24.1369 H   0  0  0  0  0  0
  -20.5681  -26.2401   23.3573 H   0  0  0  0  0  0
  -21.6645  -26.7506   22.1202 H   0  0  0  0  0  0
  -19.6957  -25.6264   21.1289 H   0  0  0  0  0  0
  -19.6687  -27.3112   20.6644 H   0  0  0  0  0  0
  -17.4205  -26.6638   21.3956 H   0  0  0  0  0  0
  -18.0364  -26.0057   22.8993 H   0  0  0  0  0  0
  -19.7931  -30.7253   24.2271 H   0  0  0  0  0  0
  -17.5014  -31.6287   24.5115 H   0  0  0  0  0  0
  -15.5333  -30.2961   23.7711 H   0  0  0  0  0  0
  -15.8631  -28.0758   22.7170 H   0  0  0  0  0  0
  -24.5961  -30.7046   25.7804 H   0  0  0  0  0  0
  -24.8923  -32.2841   26.4921 H   0  0  0  0  0  0
  -25.8086  -30.8877   27.0253 H   0  0  0  0  0  0
  -26.2982  -29.6685   24.1355 H   0  0  0  0  0  0
  -27.3997  -29.7250   25.4921 H   0  0  0  0  0  0
  -27.8916  -30.4179   23.9663 H   0  0  0  0  0  0
  -27.2810  -33.3589   26.2124 H   0  0  0  0  0  0
  -28.3938  -32.6812   25.0345 H   0  0  0  0  0  0
  -28.0822  -31.8397   26.5447 H   0  0  0  0  0  0
  -28.2554  -38.0138   24.7583 H   0  0  0  0  0  0
  -28.1125  -36.2670   24.6114 H   0  0  0  0  0  0
  -27.2329  -37.1261   25.8863 H   0  0  0  0  0  0
  -20.9494  -29.8763   21.6797 H   0  0  0  0  0  0
  -26.0127  -38.2857   24.1410 H   0  0  0  0  0  0
  -28.4320  -17.5035   22.4541 H   0  0  0  0  0  0
  -27.8792  -19.8242   22.0865 H   0  0  0  0  0  0
  -30.8149  -17.4548   18.8468 H   0  0  0  0  0  0
  -31.3267  -19.5284   17.7122 H   0  0  0  0  0  0
  -30.5875  -21.0506   18.1313 H   0  0  0  0  0  0
  -29.6924  -19.8641   17.1887 H   0  0  0  0  0  0
  -27.6804  -24.1571   17.6552 H   0  0  0  0  0  0
  -29.3011  -24.7822   17.9576 H   0  0  0  0  0  0
  -27.9364  -25.8765   17.7938 H   0  0  0  0  0  0
  -28.7376  -23.4874   21.3978 H   0  0  0  0  0  0
  -29.7860  -23.4346   20.0099 H   0  0  0  0  0  0
  -26.9581  -24.5779   19.9221 H   0  0  0  0  0  0
  -28.9860  -15.3724   21.4131 H   0  0  0  0  0  0
  1 25  1  0  0  0
  1 30  2  0  0  0
  1 81  1  0  0  0
  2  3  1  0  0  0
  2 25  1  0  0  0
  2 85  1  0  0  0
  2 86  1  0  0  0
  3  4  1  0  0  0
  3 87  1  0  0  0
  3 88  1  0  0  0
  4  5  1  0  0  0
  4 89  1  0  0  0
  4 90  1  0  0  0
  5  6  1  0  0  0
  5 26  1  0  0  0
  5 91  1  0  0  0
  6 25  1  0  0  0
  6 92  1  0  0  0
  6 93  1  0  0  0
  7  8  2  0  0  0
  7 26  1  0  0  0
  7 29  1  0  0  0
  8  9  1  0  0  0
  8 22  1  0  0  0
  9 10  1  0  0  0
  9 27  2  0  0  0
 10 11  2  0  0  0
 10 15  1  0  0  0
 11 12  1  0  0  0
 11 94  1  0  0  0
 12 13  2  0  0  0
 12 95  1  0  0  0
 13 14  1  0  0  0
 13 31  1  0  0  0
 14 15  2  0  0  0
 14 96  1  0  0  0
 15 97  1  0  0  0
 16 17  2  0  0  0
 16 21  1  0  0  0
 16 31  1  0  0  0
 17 18  1  0  0  0
 17 98  1  0  0  0
 18 19  2  0  0  0
 18 99  1  0  0  0
 19 20  1  0  0  0
 19 24  1  0  0  0
 20 21  2  0  0  0
 20100  1  0  0  0
 21 23  1  0  0  0
 22 28  1  0  0  0
 22 32  2  0  0  0
 26 27  1  0  0  0
 28101  1  0  0  0
 28102  1  0  0  0
 29103  1  0  0  0
 29104  1  0  0  0
 33 34  1  0  0  0
 33 66  1  0  0  0
 33 70  2  0  0  0
 34 36  1  0  0  0
 34 59  1  0  0  0
 34105  1  0  0  0
 35 44  2  0  0  0
 35 45  1  0  0  0
 35 68  1  0  0  0
 36 56  1  0  0  0
 36106  1  0  0  0
 37 39  1  0  0  0
 37 47  1  0  0  0
 37 66  1  0  0  0
 37107  1  0  0  0
 38 43  2  0  0  0
 38 46  1  0  0  0
 38 47  1  0  0  0
 39 64  1  0  0  0
 39 67  2  0  0  0
 40 52  1  0  0  0
 40 53  2  0  0  0
 40 58  1  0  0  0
 41108  1  0  0  0
 41109  1  0  0  0
 41110  1  0  0  0
 41 48  1  0  0  0
 42 43  1  0  0  0
 42 66  1  0  0  0
 42111  1  0  0  0
 42112  1  0  0  0
 43 44  1  0  0  0
 44113  1  0  0  0
 45 46  2  0  0  0
 45114  1  0  0  0
 46115  1  0  0  0
 47116  1  0  0  0
 47117  1  0  0  0
 48 56  1  0  0  0
 48 65  1  0  0  0
 48118  1  0  0  0
 49 50  1  0  0  0
 49 53  1  0  0  0
 49 64  1  0  0  0
 49119  1  0  0  0
 50 51  1  0  0  0
 50120  1  0  0  0
 50121  1  0  0  0
 51 52  1  0  0  0
 51122  1  0  0  0
 51123  1  0  0  0
 52124  1  0  0  0
 52125  1  0  0  0
 53 54  1  0  0  0
 54 55  2  0  0  0
 54126  1  0  0  0
 55 57  1  0  0  0
 55127  1  0  0  0
 56 69  2  0  0  0
 57 58  2  0  0  0
 57128  1  0  0  0
 58129  1  0  0  0
 59 60  1  0  0  0
 59 61  1  0  0  0
 59 62  1  0  0  0
 60130  1  0  0  0
 60131  1  0  0  0
 60132  1  0  0  0
 61133  1  0  0  0
 61134  1  0  0  0
 61135  1  0  0  0
 62136  1  0  0  0
 62137  1  0  0  0
 62138  1  0  0  0
 63 65  1  0  0  0
 63139  1  0  0  0
 63140  1  0  0  0
 63141  1  0  0  0
 64142  1  0  0  0
 65143  1  0  0  0
 68 80  1  0  0  0
 71 72  2  0  0  0
 71 75  1  0  0  0
 71144  1  0  0  0
 72 76  1  0  0  0
 72145  1  0  0  0
 73 74  1  0  0  0
 73 75  2  0  0  0
 73146  1  0  0  0
 74 76  2  0  0  0
 74 77  1  0  0  0
 75 81  1  0  0  0
 76 84  1  0  0  0
 77147  1  0  0  0
 77148  1  0  0  0
 77149  1  0  0  0
 78150  1  0  0  0
 78151  1  0  0  0
 78152  1  0  0  0
 78 80  1  0  0  0
 79 80  1  0  0  0
 79153  1  0  0  0
 79154  1  0  0  0
 79 84  1  0  0  0
 80155  1  0  0  0
 81156  1  0  0  0
 82 84  2  0  0  0
 83 84  2  0  0  0
M  ISO  4   1 100  68 101  80 101  81 100
M  END
> <chiral flag>
0

> <version>
0

> <s_m_source_file>
/data/baiqing/PycharmProjects/Reinvent-master-3.2/result/LINK_invent/BTK/process_docking_weight1_custom_product_contain_oxygen_bond_distance_aromatic_linkinvent_7_9_3/rearranged_h_0064.sdf

> <i_m_source_file_index>
70

> <r_mmod_Potential_Energy-OPLS-2005>
205.721557617188

> <r_mmod_Stretch_Energy-OPLS-2005>
157.541076660156

> <r_mmod_Bend_Energy-OPLS-2005>
218.064254760742

> <r_mmod_Torsional_Energy-OPLS-2005>
222.057769775391

> <r_mmod_Improper_Torsional_Energy-OPLS-2005>
5.648756980896

> <r_mmod_Van_der_Waal_Energy-OPLS-2005>
135.482925415039

> <r_mmod_Electrostatic_Energy-OPLS-2005>
-375.834320068359

> <r_mmod_Solvation_Energy-OPLS-2005>
-254.891250610352

> <b_mmod_Minimization_Converged-OPLS-2005>
0

> <r_mmod_RMS_Derivative-OPLS-2005>
11.1068420410156

$$$$
71
                    3D
 Structure written by MMmdl.
161170  0  0  1  0            999 V2000
  -30.6047  -14.7591   20.4715 C   0  0  0  0  0  0
  -30.4454  -12.4777   19.4493 C   0  0  0  0  0  0
  -29.5117  -12.5080   18.2187 C   0  0  0  0  0  0
  -28.0376  -12.3283   18.6332 C   0  0  0  0  0  0
  -27.6399  -13.2289   19.8342 C   0  0  2  0  0  0
  -28.6888  -13.1736   20.9636 C   0  0  0  0  0  0
  -25.2500  -13.8163   20.5638 C   0  0  0  0  0  0
  -24.1807  -13.0415   20.9183 C   0  0  0  0  0  0
  -24.6404  -11.6906   20.8734 C   0  0  0  0  0  0
  -23.9075  -10.4296   21.0407 C   0  0  0  0  0  0
  -24.3616   -9.4221   21.9194 C   0  0  0  0  0  0
  -23.6289   -8.2256   22.0782 C   0  0  0  0  0  0
  -22.4283   -8.0278   21.3553 C   0  0  0  0  0  0
  -21.9913   -9.0260   20.4663 C   0  0  0  0  0  0
  -22.7248  -10.2132   20.3066 C   0  0  0  0  0  0
  -21.6846   -6.0727   22.5284 C   0  0  0  0  0  0
  -21.4013   -6.5634   23.8216 C   0  0  0  0  0  0
  -21.3651   -5.6786   24.9173 C   0  0  0  0  0  0
  -21.6040   -4.3056   24.7228 C   0  0  0  0  0  0
  -21.8816   -3.8150   23.4354 C   0  0  0  0  0  0
  -21.9201   -4.6957   22.3407 C   0  0  0  0  0  0
  -22.7832  -13.5214   21.1838 C   0  0  0  0  0  0
  -22.1665   -4.2145   21.0978 F   0  0  0  0  0  0
  -21.5623   -3.4543   25.7743 F   0  0  0  0  0  0
  -29.9804  -13.5367   20.3699 N   0  0  0  0  0  0
  -26.2931  -12.9376   20.3200 N   0  0  0  0  0  0
  -25.9326  -11.6526   20.5712 N   0  0  0  0  0  0
  -22.0460  -12.8246   22.0404 N   0  0  0  0  0  0
  -25.4100  -15.1883   20.3983 N   0  0  0  0  0  0
  -31.8134  -14.8522   20.2393 O   0  0  0  0  0  0
  -21.6637   -6.8881   21.4254 O   0  0  0  0  0  0
  -22.3540  -14.5529   20.6679 O   0  0  0  0  0  0
  -24.6288  -31.8515   23.2034 C   0  0  0  0  0  0
  -25.9115  -32.4754   23.8355 C   0  0  1  0  0  0
  -27.1941  -27.2596   20.1230 C   0  0  0  0  0  0
  -25.5905  -33.8543   24.2255 N   0  0  0  0  0  0
  -23.4216  -30.4862   21.5451 C   0  0  2  0  0  0
  -24.8665  -28.9413   20.1054 C   0  0  0  0  0  0
  -22.7479  -29.4590   22.4884 C   0  0  0  0  0  0
  -18.0273  -28.1318   22.8443 C   0  0  0  0  0  0
  -24.1512  -36.7288   23.2631 C   0  0  0  0  0  0
  -25.9684  -30.7704   21.3801 C   0  0  0  0  0  0
  -26.0400  -29.3957   20.7205 C   0  0  0  0  0  0
  -27.2091  -28.5650   20.7233 C   0  0  0  0  0  0
  -25.9966  -26.8819   19.4772 C   0  0  0  0  0  0
  -24.8475  -27.6919   19.4749 C   0  0  0  0  0  0
  -23.6410  -29.8322   20.1577 C   0  0  0  0  0  0
  -25.4131  -36.3063   24.0322 C   0  0  1  0  0  0
  -20.5880  -28.3614   23.1241 C   0  0  2  0  0  0
  -20.6740  -26.9325   22.5379 C   0  0  0  0  0  0
  -19.5740  -26.6313   21.5149 C   0  0  0  0  0  0
  -18.1892  -26.7855   22.1562 C   0  0  0  0  0  0
  -19.1538  -28.8791   23.2831 C   0  0  0  0  0  0
  -18.9486  -30.1403   23.8833 C   0  0  0  0  0  0
  -17.6481  -30.6513   24.0536 C   0  0  0  0  0  0
  -25.9047  -34.9428   23.5097 C   0  0  0  0  0  0
  -16.5364  -29.9008   23.6328 C   0  0  0  0  0  0
  -16.7273  -28.6446   23.0320 C   0  0  0  0  0  0
  -26.4515  -31.6602   25.0747 C   0  0  0  0  0  0
  -25.3734  -31.3755   26.1484 C   0  0  0  0  0  0
  -27.0380  -30.3033   24.6201 C   0  0  0  0  0  0
  -27.6076  -32.4339   25.7513 C   0  0  0  0  0  0
  -27.5591  -37.1794   24.8446 C   0  0  0  0  0  0
  -21.4177  -29.3002   22.3675 N   0  0  0  0  0  0
  -26.4299  -37.3770   23.9412 N   0  0  0  0  0  0
  -24.6920  -31.0526   22.1020 N   0  0  0  0  0  0
  -23.4216  -28.8076   23.2896 O   0  0  0  0  0  0
  -28.2680  -26.3392   20.1753 O   0  0  0  0  0  0
  -26.5625  -34.8906   22.4668 O   0  0  0  0  0  0
  -23.5464  -32.1340   23.7373 O   0  0  0  0  0  0
  -30.8360  -18.5979   22.8993 C   0  0  0  0  0  0
  -30.6995  -17.3617   22.2485 C   0  0  0  0  0  0
  -29.5728  -18.5222   20.4258 C   0  0  0  0  0  0
  -30.3742  -19.8075   22.3401 C   0  0  0  0  0  0
  -29.7367  -19.8316   21.0622 C   0  0  0  0  0  0
  -30.0486  -17.2642   21.0048 C   0  0  0  0  0  0
  -29.9615  -21.6619   19.3421 C   0  0  0  0  0  0
  -29.6239  -23.1497   19.0991 C   0  0  0  0  0  0
  -28.5617  -22.2901   21.0244 C   0  0  0  0  0  0
  -29.0396  -23.7015   20.4216 C   0  0  1  0  0  0
  -30.6642  -21.0612   23.1479 C   0  0  0  0  0  0
  -30.1409  -24.2962   21.3259 C   0  0  0  0  0  0
  -27.9337  -24.8700   20.2302 C   0  0  0  0  0  0
  -29.3689  -21.1504   20.4425 N   0  0  0  0  0  0
  -29.7992  -15.8934   20.4958 N   0  0  0  0  0  0
  -30.7017  -21.0401   18.5726 O   0  0  0  0  0  0
  -31.4790  -12.6361   19.1331 H   0  0  0  0  0  0
  -30.4239  -11.5029   19.9394 H   0  0  0  0  0  0
  -29.8005  -11.7325   17.5082 H   0  0  0  0  0  0
  -29.6320  -13.4564   17.6922 H   0  0  0  0  0  0
  -27.8944  -11.2802   18.8949 H   0  0  0  0  0  0
  -27.3846  -12.5244   17.7811 H   0  0  0  0  0  0
  -27.6246  -14.2476   19.4454 H   0  0  0  0  0  0
  -28.7347  -12.1780   21.4072 H   0  0  0  0  0  0
  -28.4253  -13.8646   21.7678 H   0  0  0  0  0  0
  -25.2746   -9.5693   22.4795 H   0  0  0  0  0  0
  -23.9977   -7.4652   22.7522 H   0  0  0  0  0  0
  -21.0839   -8.8773   19.8982 H   0  0  0  0  0  0
  -22.3693  -10.9666   19.6182 H   0  0  0  0  0  0
  -21.2004   -7.6143   23.9713 H   0  0  0  0  0  0
  -21.1465   -6.0520   25.9069 H   0  0  0  0  0  0
  -22.0607   -2.7615   23.2852 H   0  0  0  0  0  0
  -22.4032  -11.9866   22.4761 H   0  0  0  0  0  0
  -21.1082  -13.1317   22.2580 H   0  0  0  0  0  0
  -24.6176  -15.8197   20.4610 H   0  0  0  0  0  0
  -26.2349  -15.6371   20.0231 H   0  0  0  0  0  0
  -26.7151  -32.5420   23.1063 H   0  0  0  0  0  0
  -25.0144  -33.9716   25.0463 H   0  0  0  0  0  0
  -22.7191  -31.3116   21.4046 H   0  0  0  0  0  0
  -23.3788  -35.9603   23.3243 H   0  0  0  0  0  0
  -24.3597  -36.8975   22.2058 H   0  0  0  0  0  0
  -23.7249  -37.6453   23.6705 H   0  0  0  0  0  0
  -26.1082  -31.5368   20.6174 H   0  0  0  0  0  0
  -26.8463  -30.8135   22.0105 H   0  0  0  0  0  0
  -28.1022  -28.8893   21.2394 H   0  0  0  0  0  0
  -25.8973  -25.9358   18.9717 H   0  0  0  0  0  0
  -23.9490  -27.3336   18.9910 H   0  0  0  0  0  0
  -23.7652  -30.6170   19.4091 H   0  0  0  0  0  0
  -22.7549  -29.2759   19.8466 H   0  0  0  0  0  0
  -25.1312  -36.1914   25.0818 H   0  0  0  0  0  0
  -20.9968  -28.3168   24.1361 H   0  0  0  0  0  0
  -20.5555  -26.2213   23.3569 H   0  0  0  0  0  0
  -21.6637  -26.7282   22.1255 H   0  0  0  0  0  0
  -19.6920  -25.6215   21.1197 H   0  0  0  0  0  0
  -19.6747  -27.3122   20.6666 H   0  0  0  0  0  0
  -17.4190  -26.6588   21.3943 H   0  0  0  0  0  0
  -18.0325  -26.0000   22.8991 H   0  0  0  0  0  0
  -19.8013  -30.7189   24.2178 H   0  0  0  0  0  0
  -17.5078  -31.6230   24.5107 H   0  0  0  0  0  0
  -15.5377  -30.2884   23.7707 H   0  0  0  0  0  0
  -15.8670  -28.0764   22.7007 H   0  0  0  0  0  0
  -24.6000  -30.6963   25.7885 H   0  0  0  0  0  0
  -24.8819  -32.2903   26.4803 H   0  0  0  0  0  0
  -25.8097  -30.9105   27.0333 H   0  0  0  0  0  0
  -26.2973  -29.6745   24.1235 H   0  0  0  0  0  0
  -27.4099  -29.7352   25.4733 H   0  0  0  0  0  0
  -27.8840  -30.4346   23.9442 H   0  0  0  0  0  0
  -27.2731  -33.3728   26.1947 H   0  0  0  0  0  0
  -28.3975  -32.6710   25.0374 H   0  0  0  0  0  0
  -28.0593  -31.8502   26.5549 H   0  0  0  0  0  0
  -28.2560  -38.0148   24.7548 H   0  0  0  0  0  0
  -28.1143  -36.2666   24.6200 H   0  0  0  0  0  0
  -27.2285  -37.1326   25.8841 H   0  0  0  0  0  0
  -20.9258  -29.8943   21.7143 H   0  0  0  0  0  0
  -26.0174  -38.2828   24.1504 H   0  0  0  0  0  0
  -31.3242  -18.6085   23.8641 H   0  0  0  0  0  0
  -31.0755  -16.4746   22.7412 H   0  0  0  0  0  0
  -29.0661  -18.4872   19.4696 H   0  0  0  0  0  0
  -28.8967  -23.1865   18.2890 H   0  0  0  0  0  0
  -30.5052  -23.7050   18.7687 H   0  0  0  0  0  0
  -27.5186  -22.1190   20.7511 H   0  0  0  0  0  0
  -28.5663  -22.3048   22.1109 H   0  0  0  0  0  0
  -31.4174  -20.8839   23.9183 H   0  0  0  0  0  0
  -29.7747  -21.4167   23.6687 H   0  0  0  0  0  0
  -31.0654  -21.8407   22.5079 H   0  0  0  0  0  0
  -31.0059  -23.6452   21.4159 H   0  0  0  0  0  0
  -29.7538  -24.4974   22.3262 H   0  0  0  0  0  0
  -30.5225  -25.2396   20.9328 H   0  0  0  0  0  0
  -27.2171  -24.7641   21.0473 H   0  0  0  0  0  0
  -27.3932  -24.6031   19.3240 H   0  0  0  0  0  0
  -28.8287  -15.6985   20.3103 H   0  0  0  0  0  0
  1 25  1  0  0  0
  1 30  2  0  0  0
  1 85  1  0  0  0
  2  3  1  0  0  0
  2 25  1  0  0  0
  2 87  1  0  0  0
  2 88  1  0  0  0
  3  4  1  0  0  0
  3 89  1  0  0  0
  3 90  1  0  0  0
  4  5  1  0  0  0
  4 91  1  0  0  0
  4 92  1  0  0  0
  5  6  1  0  0  0
  5 26  1  0  0  0
  5 93  1  0  0  0
  6 25  1  0  0  0
  6 94  1  0  0  0
  6 95  1  0  0  0
  7  8  2  0  0  0
  7 26  1  0  0  0
  7 29  1  0  0  0
  8  9  1  0  0  0
  8 22  1  0  0  0
  9 10  1  0  0  0
  9 27  2  0  0  0
 10 11  2  0  0  0
 10 15  1  0  0  0
 11 12  1  0  0  0
 11 96  1  0  0  0
 12 13  2  0  0  0
 12 97  1  0  0  0
 13 14  1  0  0  0
 13 31  1  0  0  0
 14 15  2  0  0  0
 14 98  1  0  0  0
 15 99  1  0  0  0
 16 17  2  0  0  0
 16 21  1  0  0  0
 16 31  1  0  0  0
 17 18  1  0  0  0
 17100  1  0  0  0
 18 19  2  0  0  0
 18101  1  0  0  0
 19 20  1  0  0  0
 19 24  1  0  0  0
 20 21  2  0  0  0
 20102  1  0  0  0
 21 23  1  0  0  0
 22 28  1  0  0  0
 22 32  2  0  0  0
 26 27  1  0  0  0
 28103  1  0  0  0
 28104  1  0  0  0
 29105  1  0  0  0
 29106  1  0  0  0
 33 34  1  0  0  0
 33 66  1  0  0  0
 33 70  2  0  0  0
 34 36  1  0  0  0
 34 59  1  0  0  0
 34107  1  0  0  0
 35 44  2  0  0  0
 35 45  1  0  0  0
 35 68  1  0  0  0
 36 56  1  0  0  0
 36108  1  0  0  0
 37 39  1  0  0  0
 37 47  1  0  0  0
 37 66  1  0  0  0
 37109  1  0  0  0
 38 43  2  0  0  0
 38 46  1  0  0  0
 38 47  1  0  0  0
 39 64  1  0  0  0
 39 67  2  0  0  0
 40 52  1  0  0  0
 40 53  2  0  0  0
 40 58  1  0  0  0
 41110  1  0  0  0
 41111  1  0  0  0
 41112  1  0  0  0
 41 48  1  0  0  0
 42 43  1  0  0  0
 42 66  1  0  0  0
 42113  1  0  0  0
 42114  1  0  0  0
 43 44  1  0  0  0
 44115  1  0  0  0
 45 46  2  0  0  0
 45116  1  0  0  0
 46117  1  0  0  0
 47118  1  0  0  0
 47119  1  0  0  0
 48 56  1  0  0  0
 48 65  1  0  0  0
 48120  1  0  0  0
 49 50  1  0  0  0
 49 53  1  0  0  0
 49 64  1  0  0  0
 49121  1  0  0  0
 50 51  1  0  0  0
 50122  1  0  0  0
 50123  1  0  0  0
 51 52  1  0  0  0
 51124  1  0  0  0
 51125  1  0  0  0
 52126  1  0  0  0
 52127  1  0  0  0
 53 54  1  0  0  0
 54 55  2  0  0  0
 54128  1  0  0  0
 55 57  1  0  0  0
 55129  1  0  0  0
 56 69  2  0  0  0
 57 58  2  0  0  0
 57130  1  0  0  0
 58131  1  0  0  0
 59 60  1  0  0  0
 59 61  1  0  0  0
 59 62  1  0  0  0
 60132  1  0  0  0
 60133  1  0  0  0
 60134  1  0  0  0
 61135  1  0  0  0
 61136  1  0  0  0
 61137  1  0  0  0
 62138  1  0  0  0
 62139  1  0  0  0
 62140  1  0  0  0
 63 65  1  0  0  0
 63141  1  0  0  0
 63142  1  0  0  0
 63143  1  0  0  0
 64144  1  0  0  0
 65145  1  0  0  0
 68 83  1  0  0  0
 71 72  2  0  0  0
 71 74  1  0  0  0
 71146  1  0  0  0
 72 76  1  0  0  0
 72147  1  0  0  0
 73 75  1  0  0  0
 73 76  2  0  0  0
 73148  1  0  0  0
 74 75  2  0  0  0
 74 81  1  0  0  0
 75 84  1  0  0  0
 76 85  1  0  0  0
 77 78  1  0  0  0
 77 84  1  0  0  0
 77 86  2  0  0  0
 78 80  1  0  0  0
 78149  1  0  0  0
 78150  1  0  0  0
 79 80  1  0  0  0
 79 84  1  0  0  0
 79151  1  0  0  0
 79152  1  0  0  0
 80 82  1  0  0  0
 80 83  1  0  0  0
 81153  1  0  0  0
 81154  1  0  0  0
 81155  1  0  0  0
 82156  1  0  0  0
 82157  1  0  0  0
 82158  1  0  0  0
 83159  1  0  0  0
 83160  1  0  0  0
 85161  1  0  0  0
M  ISO  4   1 100  68 101  83 101  85 100
M  END
> <chiral flag>
0

> <version>
0

> <s_m_source_file>
/data/baiqing/PycharmProjects/Reinvent-master-3.2/result/LINK_invent/BTK/process_docking_weight1_custom_product_contain_oxygen_bond_distance_aromatic_linkinvent_7_9_3/rearranged_h_0064.sdf

> <i_m_source_file_index>
71

> <r_mmod_Potential_Energy-OPLS-2005>
313.830169677734

> <r_mmod_Stretch_Energy-OPLS-2005>
128.164672851562

> <r_mmod_Bend_Energy-OPLS-2005>
191.887969970703

> <r_mmod_Torsional_Energy-OPLS-2005>
325.903747558594

> <r_mmod_Improper_Torsional_Energy-OPLS-2005>
10.4829120635986

> <r_mmod_Van_der_Waal_Energy-OPLS-2005>
140.76188659668

> <r_mmod_Electrostatic_Energy-OPLS-2005>
-350.648620605469

> <r_mmod_Solvation_Energy-OPLS-2005>
-228.107452392578

> <b_mmod_Minimization_Converged-OPLS-2005>
0

> <r_mmod_RMS_Derivative-OPLS-2005>
4.69398736953735

$$$$
72
                    3D
 Structure written by MMmdl.
167175  0  0  1  0            999 V2000
  -30.6988  -14.3898   20.6477 C   0  0  0  0  0  0
  -30.4300  -12.2801   19.3838 C   0  0  0  0  0  0
  -29.4909  -12.5216   18.1844 C   0  0  0  0  0  0
  -28.0076  -12.3982   18.5952 C   0  0  0  0  0  0
  -27.6701  -13.1919   19.8856 C   0  0  2  0  0  0
  -28.7106  -12.8793   20.9824 C   0  0  0  0  0  0
  -25.2627  -13.8132   20.5670 C   0  0  0  0  0  0
  -24.1840  -13.0431   20.9158 C   0  0  0  0  0  0
  -24.6366  -11.6901   20.8713 C   0  0  0  0  0  0
  -23.9020  -10.4293   21.0395 C   0  0  0  0  0  0
  -24.3588   -9.4217   21.9182 C   0  0  0  0  0  0
  -23.6265   -8.2245   22.0753 C   0  0  0  0  0  0
  -22.4247   -8.0290   21.3540 C   0  0  0  0  0  0
  -21.9875   -9.0261   20.4656 C   0  0  0  0  0  0
  -22.7185  -10.2138   20.3065 C   0  0  0  0  0  0
  -21.6865   -6.0720   22.5278 C   0  0  0  0  0  0
  -21.4016   -6.5628   23.8201 C   0  0  0  0  0  0
  -21.3652   -5.6790   24.9165 C   0  0  0  0  0  0
  -21.6054   -4.3049   24.7227 C   0  0  0  0  0  0
  -21.8814   -3.8134   23.4342 C   0  0  0  0  0  0
  -21.9185   -4.6951   22.3398 C   0  0  0  0  0  0
  -22.7880  -13.5276   21.1826 C   0  0  0  0  0  0
  -22.1657   -4.2142   21.0973 F   0  0  0  0  0  0
  -21.5629   -3.4539   25.7727 F   0  0  0  0  0  0
  -30.0463  -13.2143   20.4492 N   0  0  0  0  0  0
  -26.3063  -12.9270   20.3401 N   0  0  0  0  0  0
  -25.9295  -11.6449   20.5744 N   0  0  0  0  0  0
  -22.0497  -12.8288   22.0378 N   0  0  0  0  0  0
  -25.4399  -15.1830   20.4068 N   0  0  0  0  0  0
  -31.7848  -14.6679   20.1275 O   0  0  0  0  0  0
  -21.6634   -6.8866   21.4228 O   0  0  0  0  0  0
  -22.3584  -14.5586   20.6671 O   0  0  0  0  0  0
  -24.6105  -31.8736   23.2165 C   0  0  0  0  0  0
  -25.9028  -32.4858   23.8436 C   0  0  1  0  0  0
  -27.2257  -27.4635   20.0722 C   0  0  0  0  0  0
  -25.5899  -33.8648   24.2364 N   0  0  0  0  0  0
  -23.3921  -30.5027   21.5609 C   0  0  2  0  0  0
  -24.8328  -28.9774   20.1206 C   0  0  0  0  0  0
  -22.7376  -29.4680   22.5026 C   0  0  0  0  0  0
  -18.0265  -28.1380   22.8503 C   0  0  0  0  0  0
  -24.1472  -36.7316   23.2636 C   0  0  0  0  0  0
  -25.9213  -30.8488   21.3614 C   0  0  0  0  0  0
  -25.9961  -29.4844   20.7093 C   0  0  0  0  0  0
  -27.1917  -28.7334   20.6891 C   0  0  0  0  0  0
  -26.0305  -26.9668   19.4887 C   0  0  0  0  0  0
  -24.8415  -27.7132   19.5156 C   0  0  0  0  0  0
  -23.5945  -29.8431   20.1727 C   0  0  0  0  0  0
  -25.4096  -36.3129   24.0344 C   0  0  1  0  0  0
  -20.5849  -28.3642   23.1346 C   0  0  2  0  0  0
  -20.6741  -26.9378   22.5417 C   0  0  0  0  0  0
  -19.5722  -26.6391   21.5210 C   0  0  0  0  0  0
  -18.1909  -26.7934   22.1628 C   0  0  0  0  0  0
  -19.1515  -28.8835   23.2922 C   0  0  0  0  0  0
  -18.9437  -30.1447   23.8925 C   0  0  0  0  0  0
  -17.6439  -30.6588   24.0576 C   0  0  0  0  0  0
  -25.9026  -34.9491   23.5148 C   0  0  0  0  0  0
  -16.5330  -29.9094   23.6328 C   0  0  0  0  0  0
  -16.7257  -28.6509   23.0354 C   0  0  0  0  0  0
  -26.4463  -31.6625   25.0743 C   0  0  0  0  0  0
  -25.3760  -31.3719   26.1520 C   0  0  0  0  0  0
  -27.0278  -30.3077   24.6077 C   0  0  0  0  0  0
  -27.6059  -32.4331   25.7503 C   0  0  0  0  0  0
  -27.5570  -37.1817   24.8472 C   0  0  0  0  0  0
  -21.4108  -29.3029   22.3777 N   0  0  0  0  0  0
  -26.4289  -37.3813   23.9413 N   0  0  0  0  0  0
  -24.6613  -31.0876   22.1062 N   0  0  0  0  0  0
  -23.4169  -28.8219   23.3055 O   0  0  0  0  0  0
  -28.4173  -26.7631   20.0548 O   0  0  0  0  0  0
  -26.5565  -34.8943   22.4699 O   0  0  0  0  0  0
  -23.5313  -32.1481   23.7597 O   0  0  0  0  0  0
  -31.4356  -17.2170   21.9054 C   0  0  0  0  0  0
  -29.0150  -17.4295   21.6290 C   0  0  0  0  0  0
  -31.5154  -18.5924   22.2099 C   0  0  0  0  0  0
  -29.1013  -18.8079   21.8966 C   0  0  0  0  0  0
  -30.1794  -16.6308   21.6191 C   0  0  0  0  0  0
  -30.3485  -19.3851   22.1941 C   0  0  0  0  0  0
  -29.7868  -24.8601   19.3150 C   0  0  0  0  0  0
  -32.8167  -22.6596   19.4581 C   0  0  0  0  0  0
  -31.7104  -20.4382   19.4581 C   0  0  0  0  0  0
  -28.4137  -25.5366   19.3265 C   0  0  0  0  0  0
  -30.3062  -22.4790   19.4794 C   0  0  0  0  0  0
  -31.7448  -21.9120   21.5798 C   0  0  0  0  0  0
  -31.6184  -21.8705   20.0245 C   0  0  0  0  0  0
  -30.9340  -21.2737   24.0778 N   0  0  0  0  0  0
  -30.0009  -15.2445   21.4116 N   0  0  0  0  0  0
  -29.9039  -23.7551   20.0611 N   0  0  0  0  0  0
  -30.6638  -25.2304   18.5341 O   0  0  0  0  0  0
  -29.1303  -21.7520   22.2461 O   0  0  0  0  0  0
  -30.4165  -21.1330   22.6061 S   0  0  2  0  0  0
  -31.4732  -12.3932   19.0839 H   0  0  0  0  0  0
  -30.3321  -11.2526   19.7369 H   0  0  0  0  0  0
  -29.7101  -11.8109   17.3860 H   0  0  0  0  0  0
  -29.6732  -13.5137   17.7680 H   0  0  0  0  0  0
  -27.7901  -11.3405   18.7450 H   0  0  0  0  0  0
  -27.3653  -12.7275   17.7771 H   0  0  0  0  0  0
  -27.7403  -14.2518   19.6452 H   0  0  0  0  0  0
  -28.6815  -11.8161   21.2294 H   0  0  0  0  0  0
  -28.4724  -13.3819   21.9208 H   0  0  0  0  0  0
  -25.2741   -9.5701   22.4744 H   0  0  0  0  0  0
  -23.9991   -7.4636   22.7473 H   0  0  0  0  0  0
  -21.0805   -8.8765   19.8974 H   0  0  0  0  0  0
  -22.3639  -10.9671   19.6183 H   0  0  0  0  0  0
  -21.2012   -7.6149   23.9707 H   0  0  0  0  0  0
  -21.1486   -6.0519   25.9068 H   0  0  0  0  0  0
  -22.0597   -2.7606   23.2846 H   0  0  0  0  0  0
  -22.4100  -11.9975   22.4817 H   0  0  0  0  0  0
  -21.1141  -13.1362   22.2594 H   0  0  0  0  0  0
  -24.6751  -15.8420   20.5037 H   0  0  0  0  0  0
  -26.2842  -15.6059   20.0427 H   0  0  0  0  0  0
  -26.7094  -32.5573   23.1203 H   0  0  0  0  0  0
  -25.0095  -33.9848   25.0537 H   0  0  0  0  0  0
  -22.6784  -31.3199   21.4294 H   0  0  0  0  0  0
  -23.3740  -35.9644   23.3323 H   0  0  0  0  0  0
  -24.3564  -36.8900   22.2042 H   0  0  0  0  0  0
  -23.7223  -37.6533   23.6633 H   0  0  0  0  0  0
  -26.0230  -31.6203   20.5964 H   0  0  0  0  0  0
  -26.8124  -30.9044   21.9735 H   0  0  0  0  0  0
  -28.0922  -29.1305   21.1336 H   0  0  0  0  0  0
  -25.9761  -26.0088   18.9966 H   0  0  0  0  0  0
  -23.9427  -27.3159   19.0652 H   0  0  0  0  0  0
  -23.6991  -30.6228   19.4166 H   0  0  0  0  0  0
  -22.7166  -29.2656   19.8768 H   0  0  0  0  0  0
  -25.1266  -36.2005   25.0836 H   0  0  0  0  0  0
  -20.9933  -28.3195   24.1477 H   0  0  0  0  0  0
  -20.5627  -26.2248   23.3600 H   0  0  0  0  0  0
  -21.6619  -26.7436   22.1222 H   0  0  0  0  0  0
  -19.6868  -25.6315   21.1229 H   0  0  0  0  0  0
  -19.6667  -27.3217   20.6756 H   0  0  0  0  0  0
  -17.4165  -26.6690   21.4037 H   0  0  0  0  0  0
  -18.0305  -26.0080   22.9025 H   0  0  0  0  0  0
  -19.7918  -30.7258   24.2289 H   0  0  0  0  0  0
  -17.5006  -31.6273   24.5167 H   0  0  0  0  0  0
  -15.5337  -30.3000   23.7655 H   0  0  0  0  0  0
  -15.8656  -28.0845   22.7047 H   0  0  0  0  0  0
  -24.5938  -30.7044   25.7883 H   0  0  0  0  0  0
  -24.8939  -32.2863   26.4990 H   0  0  0  0  0  0
  -25.8147  -30.8902   27.0268 H   0  0  0  0  0  0
  -26.2806  -29.6873   24.1114 H   0  0  0  0  0  0
  -27.4047  -29.7281   25.4513 H   0  0  0  0  0  0
  -27.8644  -30.4408   23.9214 H   0  0  0  0  0  0
  -27.2695  -33.3620   26.2127 H   0  0  0  0  0  0
  -28.3855  -32.6910   25.0318 H   0  0  0  0  0  0
  -28.0753  -31.8427   26.5389 H   0  0  0  0  0  0
  -28.2616  -38.0085   24.7501 H   0  0  0  0  0  0
  -28.1037  -36.2623   24.6318 H   0  0  0  0  0  0
  -27.2294  -37.1495   25.8879 H   0  0  0  0  0  0
  -20.9242  -29.8775   21.7035 H   0  0  0  0  0  0
  -26.0177  -38.2891   24.1435 H   0  0  0  0  0  0
  -32.3349  -16.6196   21.9190 H   0  0  0  0  0  0
  -28.0424  -16.9975   21.4373 H   0  0  0  0  0  0
  -32.4669  -19.0430   22.4454 H   0  0  0  0  0  0
  -28.2091  -19.4179   21.8947 H   0  0  0  0  0  0
  -33.7668  -22.1967   19.7308 H   0  0  0  0  0  0
  -32.8343  -23.6871   19.8277 H   0  0  0  0  0  0
  -32.7863  -22.7098   18.3689 H   0  0  0  0  0  0
  -31.7245  -20.4482   18.3681 H   0  0  0  0  0  0
  -30.8455  -19.8351   19.7248 H   0  0  0  0  0  0
  -32.6057  -19.9157   19.7903 H   0  0  0  0  0  0
  -27.6858  -24.8362   19.7433 H   0  0  0  0  0  0
  -28.1382  -25.7244   18.2876 H   0  0  0  0  0  0
  -29.4787  -21.7921   19.6577 H   0  0  0  0  0  0
  -30.3691  -22.5612   18.3907 H   0  0  0  0  0  0
  -31.7920  -22.9509   21.9070 H   0  0  0  0  0  0
  -32.6844  -21.4577   21.8901 H   0  0  0  0  0  0
  -31.7566  -20.6817   24.2453 H   0  0  0  0  0  0
  -29.0986  -14.8776   21.6757 H   0  0  0  0  0  0
  -29.2174  -23.6603   20.7987 H   0  0  0  0  0  0
  1 25  1  0  0  0
  1 30  2  0  0  0
  1 85  1  0  0  0
  2  3  1  0  0  0
  2 25  1  0  0  0
  2 90  1  0  0  0
  2 91  1  0  0  0
  3  4  1  0  0  0
  3 92  1  0  0  0
  3 93  1  0  0  0
  4  5  1  0  0  0
  4 94  1  0  0  0
  4 95  1  0  0  0
  5  6  1  0  0  0
  5 26  1  0  0  0
  5 96  1  0  0  0
  6 25  1  0  0  0
  6 97  1  0  0  0
  6 98  1  0  0  0
  7  8  2  0  0  0
  7 26  1  0  0  0
  7 29  1  0  0  0
  8  9  1  0  0  0
  8 22  1  0  0  0
  9 10  1  0  0  0
  9 27  2  0  0  0
 10 11  2  0  0  0
 10 15  1  0  0  0
 11 12  1  0  0  0
 11 99  1  0  0  0
 12 13  2  0  0  0
 12100  1  0  0  0
 13 14  1  0  0  0
 13 31  1  0  0  0
 14 15  2  0  0  0
 14101  1  0  0  0
 15102  1  0  0  0
 16 17  2  0  0  0
 16 21  1  0  0  0
 16 31  1  0  0  0
 17 18  1  0  0  0
 17103  1  0  0  0
 18 19  2  0  0  0
 18104  1  0  0  0
 19 20  1  0  0  0
 19 24  1  0  0  0
 20 21  2  0  0  0
 20105  1  0  0  0
 21 23  1  0  0  0
 22 28  1  0  0  0
 22 32  2  0  0  0
 26 27  1  0  0  0
 28106  1  0  0  0
 28107  1  0  0  0
 29108  1  0  0  0
 29109  1  0  0  0
 33 34  1  0  0  0
 33 66  1  0  0  0
 33 70  2  0  0  0
 34 36  1  0  0  0
 34 59  1  0  0  0
 34110  1  0  0  0
 35 44  2  0  0  0
 35 45  1  0  0  0
 35 68  1  0  0  0
 36 56  1  0  0  0
 36111  1  0  0  0
 37 39  1  0  0  0
 37 47  1  0  0  0
 37 66  1  0  0  0
 37112  1  0  0  0
 38 43  2  0  0  0
 38 46  1  0  0  0
 38 47  1  0  0  0
 39 64  1  0  0  0
 39 67  2  0  0  0
 40 52  1  0  0  0
 40 53  2  0  0  0
 40 58  1  0  0  0
 41113  1  0  0  0
 41114  1  0  0  0
 41115  1  0  0  0
 41 48  1  0  0  0
 42 43  1  0  0  0
 42 66  1  0  0  0
 42116  1  0  0  0
 42117  1  0  0  0
 43 44  1  0  0  0
 44118  1  0  0  0
 45 46  2  0  0  0
 45119  1  0  0  0
 46120  1  0  0  0
 47121  1  0  0  0
 47122  1  0  0  0
 48 56  1  0  0  0
 48 65  1  0  0  0
 48123  1  0  0  0
 49 50  1  0  0  0
 49 53  1  0  0  0
 49 64  1  0  0  0
 49124  1  0  0  0
 50 51  1  0  0  0
 50125  1  0  0  0
 50126  1  0  0  0
 51 52  1  0  0  0
 51127  1  0  0  0
 51128  1  0  0  0
 52129  1  0  0  0
 52130  1  0  0  0
 53 54  1  0  0  0
 54 55  2  0  0  0
 54131  1  0  0  0
 55 57  1  0  0  0
 55132  1  0  0  0
 56 69  2  0  0  0
 57 58  2  0  0  0
 57133  1  0  0  0
 58134  1  0  0  0
 59 60  1  0  0  0
 59 61  1  0  0  0
 59 62  1  0  0  0
 60135  1  0  0  0
 60136  1  0  0  0
 60137  1  0  0  0
 61138  1  0  0  0
 61139  1  0  0  0
 61140  1  0  0  0
 62141  1  0  0  0
 62142  1  0  0  0
 62143  1  0  0  0
 63 65  1  0  0  0
 63144  1  0  0  0
 63145  1  0  0  0
 63146  1  0  0  0
 64147  1  0  0  0
 65148  1  0  0  0
 68 80  1  0  0  0
 71 73  2  0  0  0
 71 75  1  0  0  0
 71149  1  0  0  0
 72 74  1  0  0  0
 72 75  2  0  0  0
 72150  1  0  0  0
 73 76  1  0  0  0
 73151  1  0  0  0
 74 76  2  0  0  0
 74152  1  0  0  0
 75 85  1  0  0  0
 76 89  1  0  0  0
 77 80  1  0  0  0
 77 86  1  0  0  0
 77 87  2  0  0  0
 78153  1  0  0  0
 78154  1  0  0  0
 78155  1  0  0  0
 78 83  1  0  0  0
 79 83  1  0  0  0
 79156  1  0  0  0
 79157  1  0  0  0
 79158  1  0  0  0
 80159  1  0  0  0
 80160  1  0  0  0
 81 83  1  0  0  0
 81 86  1  0  0  0
 81161  1  0  0  0
 81162  1  0  0  0
 82 83  1  0  0  0
 82163  1  0  0  0
 82164  1  0  0  0
 82 89  1  0  0  0
 84 89  2  0  0  0
 84165  1  0  0  0
 85166  1  0  0  0
 86167  1  0  0  0
 88 89  2  0  0  0
M  ISO  4   1 100  68 101  80 101  85 100
M  END
> <chiral flag>
0

> <version>
0

> <s_m_source_file>
/data/baiqing/PycharmProjects/Reinvent-master-3.2/result/LINK_invent/BTK/process_docking_weight1_custom_product_contain_oxygen_bond_distance_aromatic_linkinvent_7_9_3/rearranged_h_0064.sdf

> <i_m_source_file_index>
72

> <r_mmod_Potential_Energy-OPLS-2005>
-271.151245117188

> <r_mmod_Stretch_Energy-OPLS-2005>
34.3194198608398

> <r_mmod_Bend_Energy-OPLS-2005>
119.532257080078

> <r_mmod_Torsional_Energy-OPLS-2005>
229.885437011719

> <r_mmod_Improper_Torsional_Energy-OPLS-2005>
8.33963775634766

> <r_mmod_Van_der_Waal_Energy-OPLS-2005>
156.276885986328

> <r_mmod_Electrostatic_Energy-OPLS-2005>
-551.015075683594

> <r_mmod_Solvation_Energy-OPLS-2005>
-277.784576416016

> <b_mmod_Minimization_Converged-OPLS-2005>
0

> <r_mmod_RMS_Derivative-OPLS-2005>
4.27372646331787

$$$$
73
                    3D
 Structure written by MMmdl.
158166  0  0  1  0            999 V2000
  -30.7263  -14.4819   20.5807 C   0  0  0  0  0  0
  -30.4158  -12.3176   19.4291 C   0  0  0  0  0  0
  -29.4926  -12.5088   18.2090 C   0  0  0  0  0  0
  -28.0159  -12.3635   18.6229 C   0  0  0  0  0  0
  -27.6590  -13.2125   19.8723 C   0  0  2  0  0  0
  -28.7019  -13.0207   20.9974 C   0  0  0  0  0  0
  -25.2578  -13.8171   20.5680 C   0  0  0  0  0  0
  -24.1836  -13.0441   20.9180 C   0  0  0  0  0  0
  -24.6399  -11.6909   20.8739 C   0  0  0  0  0  0
  -23.9067  -10.4294   21.0407 C   0  0  0  0  0  0
  -24.3620   -9.4210   21.9186 C   0  0  0  0  0  0
  -23.6298   -8.2243   22.0760 C   0  0  0  0  0  0
  -22.4281   -8.0281   21.3549 C   0  0  0  0  0  0
  -21.9915   -9.0251   20.4645 C   0  0  0  0  0  0
  -22.7242  -10.2130   20.3056 C   0  0  0  0  0  0
  -21.6851   -6.0733   22.5279 C   0  0  0  0  0  0
  -21.4007   -6.5637   23.8211 C   0  0  0  0  0  0
  -21.3660   -5.6794   24.9175 C   0  0  0  0  0  0
  -21.6047   -4.3056   24.7227 C   0  0  0  0  0  0
  -21.8820   -3.8147   23.4347 C   0  0  0  0  0  0
  -21.9192   -4.6962   22.3402 C   0  0  0  0  0  0
  -22.7857  -13.5236   21.1844 C   0  0  0  0  0  0
  -22.1662   -4.2148   21.0979 F   0  0  0  0  0  0
  -21.5634   -3.4542   25.7743 F   0  0  0  0  0  0
  -30.0317  -13.3179   20.4403 N   0  0  0  0  0  0
  -26.3016  -12.9351   20.3363 N   0  0  0  0  0  0
  -25.9329  -11.6504   20.5772 N   0  0  0  0  0  0
  -22.0499  -12.8223   22.0395 N   0  0  0  0  0  0
  -25.4306  -15.1890   20.4076 N   0  0  0  0  0  0
  -31.8478  -14.6332   20.0891 O   0  0  0  0  0  0
  -21.6642   -6.8880   21.4244 O   0  0  0  0  0  0
  -22.3547  -14.5549   20.6701 O   0  0  0  0  0  0
  -24.6187  -31.8677   23.2107 C   0  0  0  0  0  0
  -25.9073  -32.4818   23.8405 C   0  0  1  0  0  0
  -27.2204  -27.4021   20.0970 C   0  0  0  0  0  0
  -25.5926  -33.8618   24.2334 N   0  0  0  0  0  0
  -23.4062  -30.4951   21.5528 C   0  0  2  0  0  0
  -24.8500  -28.9679   20.1095 C   0  0  0  0  0  0
  -22.7420  -29.4671   22.4977 C   0  0  0  0  0  0
  -18.0270  -28.1385   22.8491 C   0  0  0  0  0  0
  -24.1484  -36.7302   23.2638 C   0  0  0  0  0  0
  -25.9412  -30.8233   21.3709 C   0  0  0  0  0  0
  -26.0158  -29.4593   20.7111 C   0  0  0  0  0  0
  -27.2049  -28.6858   20.7007 C   0  0  0  0  0  0
  -26.0347  -26.9524   19.4643 C   0  0  0  0  0  0
  -24.8567  -27.7153   19.4808 C   0  0  0  0  0  0
  -23.6142  -29.8369   20.1647 C   0  0  0  0  0  0
  -25.4107  -36.3104   24.0335 C   0  0  1  0  0  0
  -20.5862  -28.3683   23.1303 C   0  0  2  0  0  0
  -20.6769  -26.9418   22.5412 C   0  0  0  0  0  0
  -19.5746  -26.6391   21.5214 C   0  0  0  0  0  0
  -18.1920  -26.7932   22.1620 C   0  0  0  0  0  0
  -19.1519  -28.8850   23.2894 C   0  0  0  0  0  0
  -18.9451  -30.1455   23.8905 C   0  0  0  0  0  0
  -17.6455  -30.6592   24.0570 C   0  0  0  0  0  0
  -25.9045  -34.9471   23.5127 C   0  0  0  0  0  0
  -16.5345  -29.9094   23.6338 C   0  0  0  0  0  0
  -16.7260  -28.6511   23.0358 C   0  0  0  0  0  0
  -26.4486  -31.6596   25.0739 C   0  0  0  0  0  0
  -25.3741  -31.3703   26.1479 C   0  0  0  0  0  0
  -27.0331  -30.3035   24.6144 C   0  0  0  0  0  0
  -27.6057  -32.4316   25.7508 C   0  0  0  0  0  0
  -27.5581  -37.1800   24.8462 C   0  0  0  0  0  0
  -21.4146  -29.3050   22.3706 N   0  0  0  0  0  0
  -26.4286  -37.3796   23.9420 N   0  0  0  0  0  0
  -24.6738  -31.0757   22.1026 N   0  0  0  0  0  0
  -23.4180  -28.8202   23.3021 O   0  0  0  0  0  0
  -28.3508  -26.5934   20.1575 O   0  0  0  0  0  0
  -26.5599  -34.8923   22.4684 O   0  0  0  0  0  0
  -23.5371  -32.1444   23.7484 O   0  0  0  0  0  0
  -31.4175  -19.5306   21.8127 C   0  0  0  0  0  0
  -29.6218  -17.9494   21.3183 C   0  0  0  0  0  0
  -31.8953  -17.1393   21.6401 C   0  0  0  0  0  0
  -30.0521  -19.2896   21.5490 C   0  0  0  0  0  0
  -32.3346  -18.4610   21.8615 C   0  0  0  0  0  0
  -30.5360  -16.8605   21.3534 C   0  0  0  0  0  0
  -29.0886  -20.4151   21.6092 C   0  0  0  0  0  0
  -28.5851  -22.8703   21.2626 C   0  0  0  0  0  0
  -33.7938  -18.7220   22.1809 C   0  0  0  0  0  0
  -29.1719  -24.2079   20.7268 C   0  0  0  0  0  0
  -28.0825  -25.1639   20.1468 C   0  0  0  0  0  0
  -30.0656  -15.5133   21.1570 N   0  0  0  0  0  0
  -29.3953  -21.6664   21.1528 N   0  0  0  0  0  0
  -27.9072  -20.1591   22.1820 N   0  3  0  0  0  0
  -27.4699  -22.8362   21.7987 O   0  0  0  0  0  0
  -31.4616  -12.3995   19.1283 H   0  0  0  0  0  0
  -30.3040  -11.3122   19.8377 H   0  0  0  0  0  0
  -29.7353  -11.7826   17.4320 H   0  0  0  0  0  0
  -29.6570  -13.4942   17.7700 H   0  0  0  0  0  0
  -27.8340  -11.3080   18.8282 H   0  0  0  0  0  0
  -27.3626  -12.6269   17.7899 H   0  0  0  0  0  0
  -27.6956  -14.2566   19.5609 H   0  0  0  0  0  0
  -28.6809  -11.9936   21.3641 H   0  0  0  0  0  0
  -28.4623  -13.6437   21.8604 H   0  0  0  0  0  0
  -25.2762   -9.5678   22.4761 H   0  0  0  0  0  0
  -24.0003   -7.4636   22.7484 H   0  0  0  0  0  0
  -21.0844   -8.8762   19.8955 H   0  0  0  0  0  0
  -22.3700  -10.9664   19.6162 H   0  0  0  0  0  0
  -21.1991   -7.6147   23.9712 H   0  0  0  0  0  0
  -21.1482   -6.0527   25.9078 H   0  0  0  0  0  0
  -22.0598   -2.7611   23.2851 H   0  0  0  0  0  0
  -22.4112  -11.9873   22.4759 H   0  0  0  0  0  0
  -21.1119  -13.1249   22.2612 H   0  0  0  0  0  0
  -24.6620  -15.8437   20.5041 H   0  0  0  0  0  0
  -26.2775  -15.6220   20.0621 H   0  0  0  0  0  0
  -26.7142  -32.5515   23.1164 H   0  0  0  0  0  0
  -25.0102  -33.9786   25.0498 H   0  0  0  0  0  0
  -22.6961  -31.3136   21.4168 H   0  0  0  0  0  0
  -23.3752  -35.9629   23.3299 H   0  0  0  0  0  0
  -24.3577  -36.8918   22.2052 H   0  0  0  0  0  0
  -23.7226  -37.6501   23.6652 H   0  0  0  0  0  0
  -26.0616  -31.5909   20.6050 H   0  0  0  0  0  0
  -26.8266  -30.8708   21.9932 H   0  0  0  0  0  0
  -28.0987  -29.0551   21.1835 H   0  0  0  0  0  0
  -25.9882  -25.9994   18.9585 H   0  0  0  0  0  0
  -23.9636  -27.3345   19.0040 H   0  0  0  0  0  0
  -23.7235  -30.6167   19.4100 H   0  0  0  0  0  0
  -22.7364  -29.2614   19.8656 H   0  0  0  0  0  0
  -25.1280  -36.1968   25.0827 H   0  0  0  0  0  0
  -20.9954  -28.3258   24.1425 H   0  0  0  0  0  0
  -20.5690  -26.2293   23.3601 H   0  0  0  0  0  0
  -21.6637  -26.7470   22.1197 H   0  0  0  0  0  0
  -19.6913  -25.6305   21.1242 H   0  0  0  0  0  0
  -19.6686  -27.3205   20.6747 H   0  0  0  0  0  0
  -17.4193  -26.6682   21.4018 H   0  0  0  0  0  0
  -18.0316  -26.0069   22.9010 H   0  0  0  0  0  0
  -19.7928  -30.7272   24.2273 H   0  0  0  0  0  0
  -17.5012  -31.6270   24.5178 H   0  0  0  0  0  0
  -15.5350  -30.3005   23.7662 H   0  0  0  0  0  0
  -15.8653  -28.0841   22.7077 H   0  0  0  0  0  0
  -24.5921  -30.7046   25.7809 H   0  0  0  0  0  0
  -24.8929  -32.2861   26.4923 H   0  0  0  0  0  0
  -25.8090  -30.8874   27.0239 H   0  0  0  0  0  0
  -26.2893  -29.6783   24.1193 H   0  0  0  0  0  0
  -27.4083  -29.7284   25.4620 H   0  0  0  0  0  0
  -27.8730  -30.4347   23.9318 H   0  0  0  0  0  0
  -27.2684  -33.3617   26.2095 H   0  0  0  0  0  0
  -28.3869  -32.6875   25.0338 H   0  0  0  0  0  0
  -28.0720  -31.8432   26.5421 H   0  0  0  0  0  0
  -28.2580  -38.0119   24.7552 H   0  0  0  0  0  0
  -28.1098  -36.2652   24.6238 H   0  0  0  0  0  0
  -27.2301  -37.1387   25.8864 H   0  0  0  0  0  0
  -20.9302  -29.8789   21.6943 H   0  0  0  0  0  0
  -26.0170  -38.2865   24.1456 H   0  0  0  0  0  0
  -31.7639  -20.5343   22.0191 H   0  0  0  0  0  0
  -28.5771  -17.7533   21.1198 H   0  0  0  0  0  0
  -32.6195  -16.3408   21.7132 H   0  0  0  0  0  0
  -33.9875  -19.7831   22.3402 H   0  0  0  0  0  0
  -34.4308  -18.3814   21.3644 H   0  0  0  0  0  0
  -34.0852  -18.1886   23.0862 H   0  0  0  0  0  0
  -29.9436  -24.0192   19.9811 H   0  0  0  0  0  0
  -29.6627  -24.6960   21.5684 H   0  0  0  0  0  0
  -27.1609  -25.0019   20.7083 H   0  0  0  0  0  0
  -27.8800  -24.8536   19.1206 H   0  0  0  0  0  0
  -29.1058  -15.3252   21.4015 H   0  0  0  0  0  0
  -30.2974  -21.6895   20.7032 H   0  0  0  0  0  0
  -27.7233  -19.2685   22.6155 H   0  0  0  0  0  0
  -27.2533  -20.9250   22.2927 H   0  0  0  0  0  0
  1 25  1  0  0  0
  1 30  2  0  0  0
  1 82  1  0  0  0
  2  3  1  0  0  0
  2 25  1  0  0  0
  2 86  1  0  0  0
  2 87  1  0  0  0
  3  4  1  0  0  0
  3 88  1  0  0  0
  3 89  1  0  0  0
  4  5  1  0  0  0
  4 90  1  0  0  0
  4 91  1  0  0  0
  5  6  1  0  0  0
  5 26  1  0  0  0
  5 92  1  0  0  0
  6 25  1  0  0  0
  6 93  1  0  0  0
  6 94  1  0  0  0
  7  8  2  0  0  0
  7 26  1  0  0  0
  7 29  1  0  0  0
  8  9  1  0  0  0
  8 22  1  0  0  0
  9 10  1  0  0  0
  9 27  2  0  0  0
 10 11  2  0  0  0
 10 15  1  0  0  0
 11 12  1  0  0  0
 11 95  1  0  0  0
 12 13  2  0  0  0
 12 96  1  0  0  0
 13 14  1  0  0  0
 13 31  1  0  0  0
 14 15  2  0  0  0
 14 97  1  0  0  0
 15 98  1  0  0  0
 16 17  2  0  0  0
 16 21  1  0  0  0
 16 31  1  0  0  0
 17 18  1  0  0  0
 17 99  1  0  0  0
 18 19  2  0  0  0
 18100  1  0  0  0
 19 20  1  0  0  0
 19 24  1  0  0  0
 20 21  2  0  0  0
 20101  1  0  0  0
 21 23  1  0  0  0
 22 28  1  0  0  0
 22 32  2  0  0  0
 26 27  1  0  0  0
 28102  1  0  0  0
 28103  1  0  0  0
 29104  1  0  0  0
 29105  1  0  0  0
 33 34  1  0  0  0
 33 66  1  0  0  0
 33 70  2  0  0  0
 34 36  1  0  0  0
 34 59  1  0  0  0
 34106  1  0  0  0
 35 44  2  0  0  0
 35 45  1  0  0  0
 35 68  1  0  0  0
 36 56  1  0  0  0
 36107  1  0  0  0
 37 39  1  0  0  0
 37 47  1  0  0  0
 37 66  1  0  0  0
 37108  1  0  0  0
 38 43  2  0  0  0
 38 46  1  0  0  0
 38 47  1  0  0  0
 39 64  1  0  0  0
 39 67  2  0  0  0
 40 52  1  0  0  0
 40 53  2  0  0  0
 40 58  1  0  0  0
 41109  1  0  0  0
 41110  1  0  0  0
 41111  1  0  0  0
 41 48  1  0  0  0
 42 43  1  0  0  0
 42 66  1  0  0  0
 42112  1  0  0  0
 42113  1  0  0  0
 43 44  1  0  0  0
 44114  1  0  0  0
 45 46  2  0  0  0
 45115  1  0  0  0
 46116  1  0  0  0
 47117  1  0  0  0
 47118  1  0  0  0
 48 56  1  0  0  0
 48 65  1  0  0  0
 48119  1  0  0  0
 49 50  1  0  0  0
 49 53  1  0  0  0
 49 64  1  0  0  0
 49120  1  0  0  0
 50 51  1  0  0  0
 50121  1  0  0  0
 50122  1  0  0  0
 51 52  1  0  0  0
 51123  1  0  0  0
 51124  1  0  0  0
 52125  1  0  0  0
 52126  1  0  0  0
 53 54  1  0  0  0
 54 55  2  0  0  0
 54127  1  0  0  0
 55 57  1  0  0  0
 55128  1  0  0  0
 56 69  2  0  0  0
 57 58  2  0  0  0
 57129  1  0  0  0
 58130  1  0  0  0
 59 60  1  0  0  0
 59 61  1  0  0  0
 59 62  1  0  0  0
 60131  1  0  0  0
 60132  1  0  0  0
 60133  1  0  0  0
 61134  1  0  0  0
 61135  1  0  0  0
 61136  1  0  0  0
 62137  1  0  0  0
 62138  1  0  0  0
 62139  1  0  0  0
 63 65  1  0  0  0
 63140  1  0  0  0
 63141  1  0  0  0
 63142  1  0  0  0
 64143  1  0  0  0
 65144  1  0  0  0
 68 81  1  0  0  0
 71 74  2  0  0  0
 71 75  1  0  0  0
 71145  1  0  0  0
 72 74  1  0  0  0
 72 76  2  0  0  0
 72146  1  0  0  0
 73 75  2  0  0  0
 73 76  1  0  0  0
 73147  1  0  0  0
 74 77  1  0  0  0
 75 79  1  0  0  0
 76 82  1  0  0  0
 77 83  1  0  0  0
 77 84  2  0  0  0
 78 80  1  0  0  0
 78 83  1  0  0  0
 78 85  2  0  0  0
 79148  1  0  0  0
 79149  1  0  0  0
 79150  1  0  0  0
 80 81  1  0  0  0
 80151  1  0  0  0
 80152  1  0  0  0
 81153  1  0  0  0
 81154  1  0  0  0
 82155  1  0  0  0
 83156  1  0  0  0
 84157  1  0  0  0
 84158  1  0  0  0
M  CHG  1  84   1
M  ISO  4   1 100  68 101  81 101  82 100
M  END
> <chiral flag>
0

> <version>
0

> <s_m_source_file>
/data/baiqing/PycharmProjects/Reinvent-master-3.2/result/LINK_invent/BTK/process_docking_weight1_custom_product_contain_oxygen_bond_distance_aromatic_linkinvent_7_9_3/rearranged_h_0064.sdf

> <i_m_source_file_index>
73

> <r_mmod_Potential_Energy-OPLS-2005>
-316.369384765625

> <r_mmod_Stretch_Energy-OPLS-2005>
47.8905715942383

> <r_mmod_Bend_Energy-OPLS-2005>
109.318237304688

> <r_mmod_Torsional_Energy-OPLS-2005>
213.003890991211

> <r_mmod_Improper_Torsional_Energy-OPLS-2005>
4.00907897949219

> <r_mmod_Van_der_Waal_Energy-OPLS-2005>
181.209655761719

> <r_mmod_Electrostatic_Energy-OPLS-2005>
-443.001892089844

> <r_mmod_Solvation_Energy-OPLS-2005>
-447.913238525391

> <b_mmod_Minimization_Converged-OPLS-2005>
0

> <r_mmod_RMS_Derivative-OPLS-2005>
0.82887876033783

$$$$
74
                    3D
 Structure written by MMmdl.
161170  0  0  1  0            999 V2000
  -30.6193  -14.7356   20.4739 C   0  0  0  0  0  0
  -30.4370  -12.4428   19.4997 C   0  0  0  0  0  0
  -29.5243  -12.4990   18.2533 C   0  0  0  0  0  0
  -28.0423  -12.3514   18.6494 C   0  0  0  0  0  0
  -27.6490  -13.2389   19.8606 C   0  0  2  0  0  0
  -28.6875  -13.1563   21.0026 C   0  0  0  0  0  0
  -25.2506  -13.8219   20.5676 C   0  0  0  0  0  0
  -24.1796  -13.0458   20.9182 C   0  0  0  0  0  0
  -24.6399  -11.6940   20.8705 C   0  0  0  0  0  0
  -23.9063  -10.4305   21.0382 C   0  0  0  0  0  0
  -24.3631   -9.4219   21.9158 C   0  0  0  0  0  0
  -23.6308   -8.2249   22.0745 C   0  0  0  0  0  0
  -22.4290   -8.0273   21.3541 C   0  0  0  0  0  0
  -21.9913   -9.0246   20.4652 C   0  0  0  0  0  0
  -22.7227  -10.2128   20.3034 C   0  0  0  0  0  0
  -21.6854   -6.0728   22.5272 C   0  0  0  0  0  0
  -21.4022   -6.5633   23.8204 C   0  0  0  0  0  0
  -21.3659   -5.6782   24.9161 C   0  0  0  0  0  0
  -21.6048   -4.3044   24.7215 C   0  0  0  0  0  0
  -21.8812   -3.8139   23.4325 C   0  0  0  0  0  0
  -21.9187   -4.6960   22.3390 C   0  0  0  0  0  0
  -22.7807  -13.5231   21.1847 C   0  0  0  0  0  0
  -22.1649   -4.2142   21.0967 F   0  0  0  0  0  0
  -21.5638   -3.4536   25.7731 F   0  0  0  0  0  0
  -29.9987  -13.5033   20.4412 N   0  0  0  0  0  0
  -26.2959  -12.9448   20.3281 N   0  0  0  0  0  0
  -25.9338  -11.6583   20.5736 N   0  0  0  0  0  0
  -22.0434  -12.8243   22.0413 N   0  0  0  0  0  0
  -25.4199  -15.1946   20.4126 N   0  0  0  0  0  0
  -31.7811  -14.8462   20.0725 O   0  0  0  0  0  0
  -21.6642   -6.8882   21.4240 O   0  0  0  0  0  0
  -22.3469  -14.5521   20.6683 O   0  0  0  0  0  0
  -24.6327  -31.8560   23.2004 C   0  0  0  0  0  0
  -25.9153  -32.4749   23.8360 C   0  0  1  0  0  0
  -27.2085  -27.2423   20.1317 C   0  0  0  0  0  0
  -25.5950  -33.8557   24.2267 N   0  0  0  0  0  0
  -23.4289  -30.4817   21.5432 C   0  0  2  0  0  0
  -24.8736  -28.9332   20.1046 C   0  0  0  0  0  0
  -22.7512  -29.4622   22.4907 C   0  0  0  0  0  0
  -18.0299  -28.1388   22.8465 C   0  0  0  0  0  0
  -24.1484  -36.7280   23.2643 C   0  0  0  0  0  0
  -25.9780  -30.7571   21.3916 C   0  0  0  0  0  0
  -26.0439  -29.3810   20.7291 C   0  0  0  0  0  0
  -27.2078  -28.5445   20.7416 C   0  0  0  0  0  0
  -26.0229  -26.8885   19.4413 C   0  0  0  0  0  0
  -24.8712  -27.6951   19.4481 C   0  0  0  0  0  0
  -23.6465  -29.8226   20.1563 C   0  0  0  0  0  0
  -25.4110  -36.3065   24.0331 C   0  0  1  0  0  0
  -20.5906  -28.3719   23.1247 C   0  0  2  0  0  0
  -20.6791  -26.9435   22.5408 C   0  0  0  0  0  0
  -19.5766  -26.6380   21.5212 C   0  0  0  0  0  0
  -18.1939  -26.7926   22.1608 C   0  0  0  0  0  0
  -19.1552  -28.8869   23.2844 C   0  0  0  0  0  0
  -18.9475  -30.1464   23.8870 C   0  0  0  0  0  0
  -17.6478  -30.6589   24.0559 C   0  0  0  0  0  0
  -25.9063  -34.9439   23.5097 C   0  0  0  0  0  0
  -16.5369  -29.9089   23.6328 C   0  0  0  0  0  0
  -16.7288  -28.6506   23.0345 C   0  0  0  0  0  0
  -26.4499  -31.6593   25.0772 C   0  0  0  0  0  0
  -25.3713  -31.3786   26.1494 C   0  0  0  0  0  0
  -27.0373  -30.2995   24.6333 C   0  0  0  0  0  0
  -27.6040  -32.4360   25.7538 C   0  0  0  0  0  0
  -27.5573  -37.1792   24.8453 C   0  0  0  0  0  0
  -21.4224  -29.3056   22.3632 N   0  0  0  0  0  0
  -26.4273  -37.3769   23.9410 N   0  0  0  0  0  0
  -24.6984  -31.0511   22.0996 N   0  0  0  0  0  0
  -23.4202  -28.8169   23.3022 O   0  0  0  0  0  0
  -28.2898  -26.3259   20.2361 O   0  0  0  0  0  0
  -26.5630  -34.8912   22.4662 O   0  0  0  0  0  0
  -23.5473  -32.1408   23.7267 O   0  0  0  0  0  0
  -29.2191  -19.5401   18.6179 C   0  0  0  0  0  0
  -29.7014  -18.4926   20.7651 C   0  0  0  0  0  0
  -29.2831  -18.2708   18.0069 C   0  0  0  0  0  0
  -29.4290  -19.7131   20.0042 C   0  0  0  0  0  0
  -29.7619  -17.1623   20.1575 C   0  0  0  0  0  0
  -29.5401  -17.1072   18.7601 C   0  0  0  0  0  0
  -30.4570  -21.8462   20.8512 C   0  0  0  0  0  0
  -28.3178  -22.1324   20.1352 C   0  0  0  0  0  0
  -30.2453  -23.3862   20.7500 C   0  0  1  0  0  0
  -28.7234  -23.5855   20.6526 C   0  0  1  0  0  0
  -29.0663  -18.1406   16.5114 C   0  0  0  0  0  0
  -30.8922  -24.1811   21.9012 C   0  0  0  0  0  0
  -28.1264  -24.8718   19.8549 C   0  0  0  0  0  0
  -29.3710  -21.1214   20.4982 N   0  0  0  0  0  0
  -29.8992  -15.8579   20.8635 N   0  0  0  0  0  0
  -31.5297  -21.3643   21.2328 O   0  0  0  0  0  0
  -29.5204  -15.9149   18.1183 F   0  0  0  0  0  0
  -31.4812  -12.5553   19.2050 H   0  0  0  0  0  0
  -30.3712  -11.4656   19.9809 H   0  0  0  0  0  0
  -29.8030  -11.7108   17.5526 H   0  0  0  0  0  0
  -29.6739  -13.4407   17.7236 H   0  0  0  0  0  0
  -27.8708  -11.3021   18.8914 H   0  0  0  0  0  0
  -27.3984  -12.5722   17.7964 H   0  0  0  0  0  0
  -27.6553  -14.2669   19.4961 H   0  0  0  0  0  0
  -28.7080  -12.1522   21.4322 H   0  0  0  0  0  0
  -28.4175  -13.8264   21.8201 H   0  0  0  0  0  0
  -25.2774   -9.5716   22.4719 H   0  0  0  0  0  0
  -24.0020   -7.4657   22.7476 H   0  0  0  0  0  0
  -21.0816   -8.8768   19.8977 H   0  0  0  0  0  0
  -22.3669  -10.9665   19.6148 H   0  0  0  0  0  0
  -21.2023   -7.6152   23.9713 H   0  0  0  0  0  0
  -21.1490   -6.0509   25.9068 H   0  0  0  0  0  0
  -22.0595   -2.7602   23.2819 H   0  0  0  0  0  0
  -22.4051  -11.9950   22.4906 H   0  0  0  0  0  0
  -21.1046  -13.1273   22.2588 H   0  0  0  0  0  0
  -24.6619  -15.8541   20.5497 H   0  0  0  0  0  0
  -26.2757  -15.6311   20.0935 H   0  0  0  0  0  0
  -26.7225  -32.5369   23.1106 H   0  0  0  0  0  0
  -25.0101  -33.9693   25.0417 H   0  0  0  0  0  0
  -22.7253  -31.3049   21.4016 H   0  0  0  0  0  0
  -23.3753  -35.9603   23.3282 H   0  0  0  0  0  0
  -24.3592  -36.8927   22.2065 H   0  0  0  0  0  0
  -23.7231  -37.6469   23.6688 H   0  0  0  0  0  0
  -26.1344  -31.5192   20.6259 H   0  0  0  0  0  0
  -26.8492  -30.7925   22.0356 H   0  0  0  0  0  0
  -28.0935  -28.8739   21.2663 H   0  0  0  0  0  0
  -25.9368  -25.9687   18.8847 H   0  0  0  0  0  0
  -23.9834  -27.3565   18.9309 H   0  0  0  0  0  0
  -23.7705  -30.6032   19.4048 H   0  0  0  0  0  0
  -22.7615  -29.2613   19.8496 H   0  0  0  0  0  0
  -25.1287  -36.1910   25.0823 H   0  0  0  0  0  0
  -20.9986  -28.3319   24.1370 H   0  0  0  0  0  0
  -20.5692  -26.2352   23.3629 H   0  0  0  0  0  0
  -21.6661  -26.7454   22.1212 H   0  0  0  0  0  0
  -19.6942  -25.6280   21.1258 H   0  0  0  0  0  0
  -19.6698  -27.3174   20.6725 H   0  0  0  0  0  0
  -17.4221  -26.6675   21.3996 H   0  0  0  0  0  0
  -18.0326  -26.0076   22.9005 H   0  0  0  0  0  0
  -19.7960  -30.7270   24.2229 H   0  0  0  0  0  0
  -17.5044  -31.6259   24.5178 H   0  0  0  0  0  0
  -15.5369  -30.2985   23.7666 H   0  0  0  0  0  0
  -15.8686  -28.0821   22.7065 H   0  0  0  0  0  0
  -24.5858  -30.7157   25.7843 H   0  0  0  0  0  0
  -24.8940  -32.2975   26.4904 H   0  0  0  0  0  0
  -25.8015  -30.8976   27.0286 H   0  0  0  0  0  0
  -26.3003  -29.6724   24.1298 H   0  0  0  0  0  0
  -27.3951  -29.7283   25.4910 H   0  0  0  0  0  0
  -27.8918  -30.4243   23.9682 H   0  0  0  0  0  0
  -27.2624  -33.3653   26.2105 H   0  0  0  0  0  0
  -28.3841  -32.6938   25.0367 H   0  0  0  0  0  0
  -28.0724  -31.8516   26.5463 H   0  0  0  0  0  0
  -28.2575  -38.0104   24.7511 H   0  0  0  0  0  0
  -28.1079  -36.2633   24.6243 H   0  0  0  0  0  0
  -27.2305  -37.1407   25.8861 H   0  0  0  0  0  0
  -20.9434  -29.8772   21.6814 H   0  0  0  0  0  0
  -26.0148  -38.2834   24.1419 H   0  0  0  0  0  0
  -29.0289  -20.4018   17.9934 H   0  0  0  0  0  0
  -29.8550  -18.5852   21.8326 H   0  0  0  0  0  0
  -28.1918  -22.1571   19.0527 H   0  0  0  0  0  0
  -27.3607  -21.8280   20.5628 H   0  0  0  0  0  0
  -30.7020  -23.6953   19.8093 H   0  0  0  0  0  0
  -28.3433  -23.6611   21.6732 H   0  0  0  0  0  0
  -28.9839  -19.1151   16.0302 H   0  0  0  0  0  0
  -28.1583  -17.5748   16.3023 H   0  0  0  0  0  0
  -29.9051  -17.6156   16.0522 H   0  0  0  0  0  0
  -30.4225  -23.9521   22.8585 H   0  0  0  0  0  0
  -30.7971  -25.2541   21.7309 H   0  0  0  0  0  0
  -31.9562  -23.9626   21.9957 H   0  0  0  0  0  0
  -27.0691  -24.6241   19.8713 H   0  0  0  0  0  0
  -28.4329  -24.7913   18.8120 H   0  0  0  0  0  0
  -29.1138  -15.6387   21.4553 H   0  0  0  0  0  0
  1 25  1  0  0  0
  1 30  2  0  0  0
  1 85  1  0  0  0
  2  3  1  0  0  0
  2 25  1  0  0  0
  2 88  1  0  0  0
  2 89  1  0  0  0
  3  4  1  0  0  0
  3 90  1  0  0  0
  3 91  1  0  0  0
  4  5  1  0  0  0
  4 92  1  0  0  0
  4 93  1  0  0  0
  5  6  1  0  0  0
  5 26  1  0  0  0
  5 94  1  0  0  0
  6 25  1  0  0  0
  6 95  1  0  0  0
  6 96  1  0  0  0
  7  8  2  0  0  0
  7 26  1  0  0  0
  7 29  1  0  0  0
  8  9  1  0  0  0
  8 22  1  0  0  0
  9 10  1  0  0  0
  9 27  2  0  0  0
 10 11  2  0  0  0
 10 15  1  0  0  0
 11 12  1  0  0  0
 11 97  1  0  0  0
 12 13  2  0  0  0
 12 98  1  0  0  0
 13 14  1  0  0  0
 13 31  1  0  0  0
 14 15  2  0  0  0
 14 99  1  0  0  0
 15100  1  0  0  0
 16 17  2  0  0  0
 16 21  1  0  0  0
 16 31  1  0  0  0
 17 18  1  0  0  0
 17101  1  0  0  0
 18 19  2  0  0  0
 18102  1  0  0  0
 19 20  1  0  0  0
 19 24  1  0  0  0
 20 21  2  0  0  0
 20103  1  0  0  0
 21 23  1  0  0  0
 22 28  1  0  0  0
 22 32  2  0  0  0
 26 27  1  0  0  0
 28104  1  0  0  0
 28105  1  0  0  0
 29106  1  0  0  0
 29107  1  0  0  0
 33 34  1  0  0  0
 33 66  1  0  0  0
 33 70  2  0  0  0
 34 36  1  0  0  0
 34 59  1  0  0  0
 34108  1  0  0  0
 35 44  2  0  0  0
 35 45  1  0  0  0
 35 68  1  0  0  0
 36 56  1  0  0  0
 36109  1  0  0  0
 37 39  1  0  0  0
 37 47  1  0  0  0
 37 66  1  0  0  0
 37110  1  0  0  0
 38 43  2  0  0  0
 38 46  1  0  0  0
 38 47  1  0  0  0
 39 64  1  0  0  0
 39 67  2  0  0  0
 40 52  1  0  0  0
 40 53  2  0  0  0
 40 58  1  0  0  0
 41111  1  0  0  0
 41112  1  0  0  0
 41113  1  0  0  0
 41 48  1  0  0  0
 42 43  1  0  0  0
 42 66  1  0  0  0
 42114  1  0  0  0
 42115  1  0  0  0
 43 44  1  0  0  0
 44116  1  0  0  0
 45 46  2  0  0  0
 45117  1  0  0  0
 46118  1  0  0  0
 47119  1  0  0  0
 47120  1  0  0  0
 48 56  1  0  0  0
 48 65  1  0  0  0
 48121  1  0  0  0
 49 50  1  0  0  0
 49 53  1  0  0  0
 49 64  1  0  0  0
 49122  1  0  0  0
 50 51  1  0  0  0
 50123  1  0  0  0
 50124  1  0  0  0
 51 52  1  0  0  0
 51125  1  0  0  0
 51126  1  0  0  0
 52127  1  0  0  0
 52128  1  0  0  0
 53 54  1  0  0  0
 54 55  2  0  0  0
 54129  1  0  0  0
 55 57  1  0  0  0
 55130  1  0  0  0
 56 69  2  0  0  0
 57 58  2  0  0  0
 57131  1  0  0  0
 58132  1  0  0  0
 59 60  1  0  0  0
 59 61  1  0  0  0
 59 62  1  0  0  0
 60133  1  0  0  0
 60134  1  0  0  0
 60135  1  0  0  0
 61136  1  0  0  0
 61137  1  0  0  0
 61138  1  0  0  0
 62139  1  0  0  0
 62140  1  0  0  0
 62141  1  0  0  0
 63 65  1  0  0  0
 63142  1  0  0  0
 63143  1  0  0  0
 63144  1  0  0  0
 64145  1  0  0  0
 65146  1  0  0  0
 68 83  1  0  0  0
 71 73  2  0  0  0
 71 74  1  0  0  0
 71147  1  0  0  0
 72 74  2  0  0  0
 72 75  1  0  0  0
 72148  1  0  0  0
 73 76  1  0  0  0
 73 81  1  0  0  0
 74 84  1  0  0  0
 75 76  2  0  0  0
 75 85  1  0  0  0
 76 87  1  0  0  0
 77 79  1  0  0  0
 77 84  1  0  0  0
 77 86  2  0  0  0
 78 80  1  0  0  0
 78 84  1  0  0  0
 78149  1  0  0  0
 78150  1  0  0  0
 79 80  1  0  0  0
 79 82  1  0  0  0
 79151  1  0  0  0
 80 83  1  0  0  0
 80152  1  0  0  0
 81153  1  0  0  0
 81154  1  0  0  0
 81155  1  0  0  0
 82156  1  0  0  0
 82157  1  0  0  0
 82158  1  0  0  0
 83159  1  0  0  0
 83160  1  0  0  0
 85161  1  0  0  0
M  ISO  4   1 100  68 101  83 101  85 100
M  END
> <chiral flag>
0

> <version>
0

> <s_m_source_file>
/data/baiqing/PycharmProjects/Reinvent-master-3.2/result/LINK_invent/BTK/process_docking_weight1_custom_product_contain_oxygen_bond_distance_aromatic_linkinvent_7_9_3/rearranged_h_0064.sdf

> <i_m_source_file_index>
74

> <r_mmod_Potential_Energy-OPLS-2005>
282.444946289062

> <r_mmod_Stretch_Energy-OPLS-2005>
128.4599609375

> <r_mmod_Bend_Energy-OPLS-2005>
200.845489501953

> <r_mmod_Torsional_Energy-OPLS-2005>
320.997039794922

> <r_mmod_Improper_Torsional_Energy-OPLS-2005>
6.13273572921753

> <r_mmod_Van_der_Waal_Energy-OPLS-2005>
137.618392944336

> <r_mmod_Electrostatic_Energy-OPLS-2005>
-375.503387451172

> <r_mmod_Solvation_Energy-OPLS-2005>
-227.080261230469

> <b_mmod_Minimization_Converged-OPLS-2005>
0

> <r_mmod_RMS_Derivative-OPLS-2005>
2.98463463783264

$$$$
75
                    3D
 Structure written by MMmdl.
159168  0  0  1  0            999 V2000
  -30.6139  -14.7041   20.4650 C   0  0  0  0  0  0
  -30.4294  -12.4286   19.4698 C   0  0  0  0  0  0
  -29.5056  -12.5140   18.2343 C   0  0  0  0  0  0
  -28.0298  -12.3516   18.6427 C   0  0  0  0  0  0
  -27.6469  -13.2289   19.8636 C   0  0  2  0  0  0
  -28.6914  -13.1270   20.9984 C   0  0  0  0  0  0
  -25.2527  -13.8197   20.5728 C   0  0  0  0  0  0
  -24.1803  -13.0449   20.9212 C   0  0  0  0  0  0
  -24.6386  -11.6926   20.8750 C   0  0  0  0  0  0
  -23.9054  -10.4299   21.0410 C   0  0  0  0  0  0
  -24.3608   -9.4209   21.9180 C   0  0  0  0  0  0
  -23.6291   -8.2243   22.0750 C   0  0  0  0  0  0
  -22.4275   -8.0276   21.3543 C   0  0  0  0  0  0
  -21.9912   -9.0244   20.4642 C   0  0  0  0  0  0
  -22.7233  -10.2128   20.3056 C   0  0  0  0  0  0
  -21.6858   -6.0733   22.5281 C   0  0  0  0  0  0
  -21.4014   -6.5638   23.8213 C   0  0  0  0  0  0
  -21.3666   -5.6792   24.9175 C   0  0  0  0  0  0
  -21.6045   -4.3057   24.7229 C   0  0  0  0  0  0
  -21.8820   -3.8151   23.4352 C   0  0  0  0  0  0
  -21.9196   -4.6963   22.3404 C   0  0  0  0  0  0
  -22.7827  -13.5231   21.1867 C   0  0  0  0  0  0
  -22.1667   -4.2149   21.0983 F   0  0  0  0  0  0
  -21.5631   -3.4541   25.7743 F   0  0  0  0  0  0
  -30.0011  -13.4727   20.4303 N   0  0  0  0  0  0
  -26.2959  -12.9399   20.3352 N   0  0  0  0  0  0
  -25.9324  -11.6542   20.5787 N   0  0  0  0  0  0
  -22.0471  -12.8211   22.0412 N   0  0  0  0  0  0
  -25.4244  -15.1920   20.4155 N   0  0  0  0  0  0
  -31.7735  -14.8312   20.0602 O   0  0  0  0  0  0
  -21.6647   -6.8874   21.4238 O   0  0  0  0  0  0
  -22.3508  -14.5533   20.6719 O   0  0  0  0  0  0
  -24.6301  -31.8564   23.2004 C   0  0  0  0  0  0
  -25.9140  -32.4757   23.8344 C   0  0  1  0  0  0
  -27.2220  -27.2704   20.1243 C   0  0  0  0  0  0
  -25.5944  -33.8558   24.2268 N   0  0  0  0  0  0
  -23.4259  -30.4784   21.5442 C   0  0  2  0  0  0
  -24.8745  -28.9318   20.1072 C   0  0  0  0  0  0
  -22.7497  -29.4607   22.4944 C   0  0  0  0  0  0
  -18.0292  -28.1373   22.8496 C   0  0  0  0  0  0
  -24.1492  -36.7281   23.2635 C   0  0  0  0  0  0
  -25.9712  -30.7703   21.3821 C   0  0  0  0  0  0
  -26.0437  -29.3941   20.7238 C   0  0  0  0  0  0
  -27.2161  -28.5728   20.7284 C   0  0  0  0  0  0
  -26.0375  -26.8941   19.4482 C   0  0  0  0  0  0
  -24.8775  -27.6904   19.4573 C   0  0  0  0  0  0
  -23.6414  -29.8115   20.1603 C   0  0  0  0  0  0
  -25.4116  -36.3067   24.0327 C   0  0  1  0  0  0
  -20.5893  -28.3691   23.1285 C   0  0  2  0  0  0
  -20.6785  -26.9412   22.5409 C   0  0  0  0  0  0
  -19.5754  -26.6379   21.5219 C   0  0  0  0  0  0
  -18.1931  -26.7922   22.1627 C   0  0  0  0  0  0
  -19.1541  -28.8852   23.2879 C   0  0  0  0  0  0
  -18.9457  -30.1461   23.8887 C   0  0  0  0  0  0
  -17.6451  -30.6581   24.0560 C   0  0  0  0  0  0
  -25.9057  -34.9440   23.5096 C   0  0  0  0  0  0
  -16.5349  -29.9071   23.6330 C   0  0  0  0  0  0
  -16.7279  -28.6483   23.0367 C   0  0  0  0  0  0
  -26.4505  -31.6573   25.0730 C   0  0  0  0  0  0
  -25.3736  -31.3708   26.1454 C   0  0  0  0  0  0
  -27.0359  -30.2988   24.6217 C   0  0  0  0  0  0
  -27.6052  -32.4322   25.7506 C   0  0  0  0  0  0
  -27.5581  -37.1789   24.8459 C   0  0  0  0  0  0
  -21.4209  -29.3036   22.3682 N   0  0  0  0  0  0
  -26.4289  -37.3767   23.9410 N   0  0  0  0  0  0
  -24.6947  -31.0537   22.0981 N   0  0  0  0  0  0
  -23.4201  -28.8150   23.3046 O   0  0  0  0  0  0
  -28.3156  -26.3759   20.2198 O   0  0  0  0  0  0
  -26.5616  -34.8916   22.4654 O   0  0  0  0  0  0
  -23.5458  -32.1390   23.7304 O   0  0  0  0  0  0
  -28.9248  -18.0258   17.9545 C   0  0  0  0  0  0
  -29.2424  -16.9104   18.7413 C   0  0  0  0  0  0
  -29.7292  -18.4225   20.5781 C   0  0  0  0  0  0
  -29.0287  -19.3513   18.4338 C   0  0  0  0  0  0
  -29.4417  -19.6200   19.7811 C   0  0  0  0  0  0
  -29.6657  -17.0585   20.0723 C   0  0  0  0  0  0
  -30.8531  -21.3337   20.8255 C   0  0  0  0  0  0
  -31.5387  -22.6402   20.3986 C   0  0  0  0  0  0
  -28.8534  -22.2644   19.7915 C   0  0  0  0  0  0
  -28.9473  -23.7009   20.5382 C   0  0  2  0  0  0
  -28.7455  -20.4241   17.3913 C   0  0  0  0  0  0
  -28.1518  -24.9281   19.8441 C   0  0  0  0  0  0
  -29.6572  -21.0376   20.2565 N   0  0  0  0  0  0
  -29.8728  -15.8114   20.8359 N   0  0  0  0  0  0
  -31.4272  -20.6106   21.6467 O   0  0  0  0  0  0
  -30.6712  -24.1655   20.8775 S   0  0  0  0  0  0
  -31.4699  -12.5473   19.1646 H   0  0  0  0  0  0
  -30.3660  -11.4417   19.9304 H   0  0  0  0  0  0
  -29.7756  -11.7497   17.5049 H   0  0  0  0  0  0
  -29.6453  -13.4739   17.7341 H   0  0  0  0  0  0
  -27.8643  -11.2981   18.8737 H   0  0  0  0  0  0
  -27.3803  -12.5803   17.7970 H   0  0  0  0  0  0
  -27.6518  -14.2589   19.5089 H   0  0  0  0  0  0
  -28.7133  -12.1194   21.4153 H   0  0  0  0  0  0
  -28.4299  -13.7874   21.8262 H   0  0  0  0  0  0
  -25.2759   -9.5689   22.4747 H   0  0  0  0  0  0
  -24.0013   -7.4638   22.7465 H   0  0  0  0  0  0
  -21.0853   -8.8746   19.8933 H   0  0  0  0  0  0
  -22.3692  -10.9653   19.6159 H   0  0  0  0  0  0
  -21.1990   -7.6148   23.9711 H   0  0  0  0  0  0
  -21.1496   -6.0533   25.9074 H   0  0  0  0  0  0
  -22.0592   -2.7614   23.2866 H   0  0  0  0  0  0
  -22.4136  -11.9889   22.4801 H   0  0  0  0  0  0
  -21.1065  -13.1189   22.2591 H   0  0  0  0  0  0
  -24.6589  -15.8478   20.5230 H   0  0  0  0  0  0
  -26.2783  -15.6314   20.0963 H   0  0  0  0  0  0
  -26.7206  -32.5415   23.1085 H   0  0  0  0  0  0
  -25.0112  -33.9700   25.0429 H   0  0  0  0  0  0
  -22.7202  -31.2988   21.3983 H   0  0  0  0  0  0
  -23.3765  -35.9600   23.3275 H   0  0  0  0  0  0
  -24.3583  -36.8933   22.2054 H   0  0  0  0  0  0
  -23.7245  -37.6471   23.6679 H   0  0  0  0  0  0
  -26.1120  -31.5323   20.6143 H   0  0  0  0  0  0
  -26.8485  -30.8168   22.0156 H   0  0  0  0  0  0
  -28.1059  -28.9166   21.2377 H   0  0  0  0  0  0
  -25.9644  -25.9653   18.9050 H   0  0  0  0  0  0
  -23.9900  -27.3382   18.9500 H   0  0  0  0  0  0
  -23.7522  -30.5847   19.3998 H   0  0  0  0  0  0
  -22.7622  -29.2362   19.8635 H   0  0  0  0  0  0
  -25.1301  -36.1907   25.0820 H   0  0  0  0  0  0
  -20.9978  -28.3265   24.1412 H   0  0  0  0  0  0
  -20.5707  -26.2296   23.3611 H   0  0  0  0  0  0
  -21.6653  -26.7448   22.1194 H   0  0  0  0  0  0
  -19.6919  -25.6291   21.1249 H   0  0  0  0  0  0
  -19.6689  -27.3192   20.6750 H   0  0  0  0  0  0
  -17.4211  -26.6698   21.4014 H   0  0  0  0  0  0
  -18.0305  -26.0049   22.8999 H   0  0  0  0  0  0
  -19.7932  -30.7294   24.2246 H   0  0  0  0  0  0
  -17.4997  -31.6262   24.5159 H   0  0  0  0  0  0
  -15.5346  -30.2962   23.7658 H   0  0  0  0  0  0
  -15.8681  -28.0793   22.7096 H   0  0  0  0  0  0
  -24.5927  -30.7034   25.7785 H   0  0  0  0  0  0
  -24.8912  -32.2872   26.4863 H   0  0  0  0  0  0
  -25.8075  -30.8902   27.0235 H   0  0  0  0  0  0
  -26.2944  -29.6727   24.1240 H   0  0  0  0  0  0
  -27.4034  -29.7252   25.4736 H   0  0  0  0  0  0
  -27.8824  -30.4254   23.9467 H   0  0  0  0  0  0
  -27.2654  -33.3635   26.2049 H   0  0  0  0  0  0
  -28.3880  -32.6868   25.0349 H   0  0  0  0  0  0
  -28.0696  -31.8476   26.5457 H   0  0  0  0  0  0
  -28.2573  -38.0107   24.7536 H   0  0  0  0  0  0
  -28.1108  -36.2646   24.6253 H   0  0  0  0  0  0
  -27.2301  -37.1396   25.8859 H   0  0  0  0  0  0
  -20.9406  -29.8734   21.6861 H   0  0  0  0  0  0
  -26.0168  -38.2838   24.1420 H   0  0  0  0  0  0
  -28.6118  -17.8448   16.9353 H   0  0  0  0  0  0
  -29.1371  -15.9278   18.3016 H   0  0  0  0  0  0
  -30.0270  -18.5486   21.6079 H   0  0  0  0  0  0
  -31.6335  -22.6276   19.3123 H   0  0  0  0  0  0
  -32.5563  -22.6685   20.7874 H   0  0  0  0  0  0
  -29.1538  -22.4984   18.7753 H   0  0  0  0  0  0
  -27.8041  -21.9720   19.7495 H   0  0  0  0  0  0
  -28.5064  -23.5611   21.5261 H   0  0  0  0  0  0
  -28.5290  -19.9930   16.4132 H   0  0  0  0  0  0
  -29.6179  -21.0608   17.2474 H   0  0  0  0  0  0
  -27.8737  -21.0224   17.6525 H   0  0  0  0  0  0
  -27.1130  -24.6338   19.9788 H   0  0  0  0  0  0
  -28.3403  -24.8808   18.7716 H   0  0  0  0  0  0
  -29.0898  -15.5702   21.4257 H   0  0  0  0  0  0
  1 25  1  0  0  0
  1 30  2  0  0  0
  1 84  1  0  0  0
  2  3  1  0  0  0
  2 25  1  0  0  0
  2 87  1  0  0  0
  2 88  1  0  0  0
  3  4  1  0  0  0
  3 89  1  0  0  0
  3 90  1  0  0  0
  4  5  1  0  0  0
  4 91  1  0  0  0
  4 92  1  0  0  0
  5  6  1  0  0  0
  5 26  1  0  0  0
  5 93  1  0  0  0
  6 25  1  0  0  0
  6 94  1  0  0  0
  6 95  1  0  0  0
  7  8  2  0  0  0
  7 26  1  0  0  0
  7 29  1  0  0  0
  8  9  1  0  0  0
  8 22  1  0  0  0
  9 10  1  0  0  0
  9 27  2  0  0  0
 10 11  2  0  0  0
 10 15  1  0  0  0
 11 12  1  0  0  0
 11 96  1  0  0  0
 12 13  2  0  0  0
 12 97  1  0  0  0
 13 14  1  0  0  0
 13 31  1  0  0  0
 14 15  2  0  0  0
 14 98  1  0  0  0
 15 99  1  0  0  0
 16 17  2  0  0  0
 16 21  1  0  0  0
 16 31  1  0  0  0
 17 18  1  0  0  0
 17100  1  0  0  0
 18 19  2  0  0  0
 18101  1  0  0  0
 19 20  1  0  0  0
 19 24  1  0  0  0
 20 21  2  0  0  0
 20102  1  0  0  0
 21 23  1  0  0  0
 22 28  1  0  0  0
 22 32  2  0  0  0
 26 27  1  0  0  0
 28103  1  0  0  0
 28104  1  0  0  0
 29105  1  0  0  0
 29106  1  0  0  0
 33 34  1  0  0  0
 33 66  1  0  0  0
 33 70  2  0  0  0
 34 36  1  0  0  0
 34 59  1  0  0  0
 34107  1  0  0  0
 35 44  2  0  0  0
 35 45  1  0  0  0
 35 68  1  0  0  0
 36 56  1  0  0  0
 36108  1  0  0  0
 37 39  1  0  0  0
 37 47  1  0  0  0
 37 66  1  0  0  0
 37109  1  0  0  0
 38 43  2  0  0  0
 38 46  1  0  0  0
 38 47  1  0  0  0
 39 64  1  0  0  0
 39 67  2  0  0  0
 40 52  1  0  0  0
 40 53  2  0  0  0
 40 58  1  0  0  0
 41110  1  0  0  0
 41111  1  0  0  0
 41112  1  0  0  0
 41 48  1  0  0  0
 42 43  1  0  0  0
 42 66  1  0  0  0
 42113  1  0  0  0
 42114  1  0  0  0
 43 44  1  0  0  0
 44115  1  0  0  0
 45 46  2  0  0  0
 45116  1  0  0  0
 46117  1  0  0  0
 47118  1  0  0  0
 47119  1  0  0  0
 48 56  1  0  0  0
 48 65  1  0  0  0
 48120  1  0  0  0
 49 50  1  0  0  0
 49 53  1  0  0  0
 49 64  1  0  0  0
 49121  1  0  0  0
 50 51  1  0  0  0
 50122  1  0  0  0
 50123  1  0  0  0
 51 52  1  0  0  0
 51124  1  0  0  0
 51125  1  0  0  0
 52126  1  0  0  0
 52127  1  0  0  0
 53 54  1  0  0  0
 54 55  2  0  0  0
 54128  1  0  0  0
 55 57  1  0  0  0
 55129  1  0  0  0
 56 69  2  0  0  0
 57 58  2  0  0  0
 57130  1  0  0  0
 58131  1  0  0  0
 59 60  1  0  0  0
 59 61  1  0  0  0
 59 62  1  0  0  0
 60132  1  0  0  0
 60133  1  0  0  0
 60134  1  0  0  0
 61135  1  0  0  0
 61136  1  0  0  0
 61137  1  0  0  0
 62138  1  0  0  0
 62139  1  0  0  0
 62140  1  0  0  0
 63 65  1  0  0  0
 63141  1  0  0  0
 63142  1  0  0  0
 63143  1  0  0  0
 64144  1  0  0  0
 65145  1  0  0  0
 68 82  1  0  0  0
 71 72  2  0  0  0
 71 74  1  0  0  0
 71146  1  0  0  0
 72 76  1  0  0  0
 72147  1  0  0  0
 73 75  1  0  0  0
 73 76  2  0  0  0
 73148  1  0  0  0
 74 75  2  0  0  0
 74 81  1  0  0  0
 75 83  1  0  0  0
 76 84  1  0  0  0
 77 78  1  0  0  0
 77 83  1  0  0  0
 77 85  2  0  0  0
 78 86  1  0  0  0
 78149  1  0  0  0
 78150  1  0  0  0
 79 80  1  0  0  0
 79 83  1  0  0  0
 79151  1  0  0  0
 79152  1  0  0  0
 80 82  1  0  0  0
 80 86  1  0  0  0
 80153  1  0  0  0
 81154  1  0  0  0
 81155  1  0  0  0
 81156  1  0  0  0
 82157  1  0  0  0
 82158  1  0  0  0
 84159  1  0  0  0
M  ISO  4   1 100  68 101  82 101  84 100
M  END
> <chiral flag>
0

> <version>
0

> <s_m_source_file>
/data/baiqing/PycharmProjects/Reinvent-master-3.2/result/LINK_invent/BTK/process_docking_weight1_custom_product_contain_oxygen_bond_distance_aromatic_linkinvent_7_9_3/rearranged_h_0064.sdf

> <i_m_source_file_index>
75

> <r_mmod_Potential_Energy-OPLS-2005>
317.839721679688

> <r_mmod_Stretch_Energy-OPLS-2005>
133.721481323242

> <r_mmod_Bend_Energy-OPLS-2005>
172.707733154297

> <r_mmod_Torsional_Energy-OPLS-2005>
328.377990722656

> <r_mmod_Improper_Torsional_Energy-OPLS-2005>
6.82330799102783

> <r_mmod_Van_der_Waal_Energy-OPLS-2005>
158.674789428711

> <r_mmod_Electrostatic_Energy-OPLS-2005>
-314.792694091797

> <r_mmod_Solvation_Energy-OPLS-2005>
-242.156097412109

> <b_mmod_Minimization_Converged-OPLS-2005>
0

> <r_mmod_RMS_Derivative-OPLS-2005>
1.70427632331848

$$$$
76
                    3D
 Structure written by MMmdl.
157166  0  0  1  0            999 V2000
  -30.6142  -14.7665   20.4738 C   0  0  0  0  0  0
  -30.4380  -12.4712   19.4978 C   0  0  0  0  0  0
  -29.5297  -12.5255   18.2458 C   0  0  0  0  0  0
  -28.0528  -12.3442   18.6470 C   0  0  0  0  0  0
  -27.6553  -13.2396   19.8543 C   0  0  2  0  0  0
  -28.6931  -13.1733   21.0007 C   0  0  0  0  0  0
  -25.2595  -13.8213   20.5682 C   0  0  0  0  0  0
  -24.1869  -13.0475   20.9196 C   0  0  0  0  0  0
  -24.6458  -11.6944   20.8731 C   0  0  0  0  0  0
  -23.9093  -10.4330   21.0405 C   0  0  0  0  0  0
  -24.3654   -9.4262   21.9183 C   0  0  0  0  0  0
  -23.6348   -8.2279   22.0754 C   0  0  0  0  0  0
  -22.4341   -8.0301   21.3532 C   0  0  0  0  0  0
  -21.9949   -9.0275   20.4642 C   0  0  0  0  0  0
  -22.7264  -10.2175   20.3051 C   0  0  0  0  0  0
  -21.6855   -6.0782   22.5292 C   0  0  0  0  0  0
  -21.3995   -6.5665   23.8234 C   0  0  0  0  0  0
  -21.3658   -5.6795   24.9175 C   0  0  0  0  0  0
  -21.6060   -4.3061   24.7218 C   0  0  0  0  0  0
  -21.8815   -3.8171   23.4323 C   0  0  0  0  0  0
  -21.9188   -4.7004   22.3398 C   0  0  0  0  0  0
  -22.7882  -13.5279   21.1814 C   0  0  0  0  0  0
  -22.1676   -4.2186   21.0983 F   0  0  0  0  0  0
  -21.5638   -3.4535   25.7726 F   0  0  0  0  0  0
  -29.9986  -13.5329   20.4359 N   0  0  0  0  0  0
  -26.3039  -12.9431   20.3276 N   0  0  0  0  0  0
  -25.9416  -11.6570   20.5741 N   0  0  0  0  0  0
  -22.0480  -12.8294   22.0355 N   0  0  0  0  0  0
  -25.4323  -15.1928   20.4103 N   0  0  0  0  0  0
  -31.7778  -14.8712   20.0678 O   0  0  0  0  0  0
  -21.6674   -6.8932   21.4260 O   0  0  0  0  0  0
  -22.3564  -14.5584   20.6655 O   0  0  0  0  0  0
  -24.6348  -31.8556   23.1986 C   0  0  0  0  0  0
  -25.9178  -32.4748   23.8334 C   0  0  1  0  0  0
  -27.2067  -27.2296   20.1503 C   0  0  0  0  0  0
  -25.5951  -33.8533   24.2255 N   0  0  0  0  0  0
  -23.4322  -30.4829   21.5433 C   0  0  2  0  0  0
  -24.8775  -28.9331   20.1087 C   0  0  0  0  0  0
  -22.7541  -29.4633   22.4911 C   0  0  0  0  0  0
  -18.0305  -28.1387   22.8483 C   0  0  0  0  0  0
  -24.1479  -36.7296   23.2645 C   0  0  0  0  0  0
  -25.9830  -30.7591   21.3861 C   0  0  0  0  0  0
  -26.0507  -29.3798   20.7309 C   0  0  0  0  0  0
  -27.2162  -28.5392   20.7491 C   0  0  0  0  0  0
  -26.0217  -26.8898   19.4545 C   0  0  0  0  0  0
  -24.8724  -27.6977   19.4537 C   0  0  0  0  0  0
  -23.6482  -29.8194   20.1586 C   0  0  0  0  0  0
  -25.4097  -36.3080   24.0345 C   0  0  1  0  0  0
  -20.5911  -28.3712   23.1252 C   0  0  2  0  0  0
  -20.6772  -26.9427   22.5393 C   0  0  0  0  0  0
  -19.5748  -26.6384   21.5201 C   0  0  0  0  0  0
  -18.1936  -26.7925   22.1615 C   0  0  0  0  0  0
  -19.1556  -28.8865   23.2859 C   0  0  0  0  0  0
  -18.9476  -30.1460   23.8887 C   0  0  0  0  0  0
  -17.6475  -30.6582   24.0557 C   0  0  0  0  0  0
  -25.9050  -34.9443   23.5112 C   0  0  0  0  0  0
  -16.5361  -29.9072   23.6324 C   0  0  0  0  0  0
  -16.7294  -28.6483   23.0350 C   0  0  0  0  0  0
  -26.4495  -31.6575   25.0749 C   0  0  0  0  0  0
  -25.3707  -31.3718   26.1469 C   0  0  0  0  0  0
  -27.0347  -30.2991   24.6267 C   0  0  0  0  0  0
  -27.6062  -32.4299   25.7516 C   0  0  0  0  0  0
  -27.5579  -37.1804   24.8470 C   0  0  0  0  0  0
  -21.4246  -29.3073   22.3653 N   0  0  0  0  0  0
  -26.4288  -37.3777   23.9419 N   0  0  0  0  0  0
  -24.7026  -31.0500   22.0981 N   0  0  0  0  0  0
  -23.4239  -28.8175   23.3006 O   0  0  0  0  0  0
  -28.2489  -26.2602   20.2492 O   0  0  0  0  0  0
  -26.5611  -34.8945   22.4678 O   0  0  0  0  0  0
  -23.5482  -32.1394   23.7256 O   0  0  0  0  0  0
  -29.3102  -19.5909   18.6042 C   0  0  0  0  0  0
  -29.6240  -17.1656   18.7609 C   0  0  0  0  0  0
  -29.8598  -23.2422   21.3449 C   0  0  0  0  0  0
  -29.6639  -18.5448   20.7737 C   0  0  0  0  0  0
  -29.4031  -18.3244   17.9941 C   0  0  0  0  0  0
  -28.6848  -23.4936   20.5629 C   0  0  0  0  0  0
  -29.4218  -19.7698   19.9994 C   0  0  0  0  0  0
  -29.7755  -17.2140   20.1637 C   0  0  0  0  0  0
  -30.2092  -21.9043   21.2669 C   0  0  0  0  0  0
  -28.3950  -22.2101   20.0720 C   0  0  0  0  0  0
  -29.2587  -18.1987   16.4898 C   0  0  0  0  0  0
  -27.7885  -24.8216   20.4162 C   0  0  0  0  0  0
  -29.3244  -21.1909   20.4579 N   0  0  0  0  0  0
  -29.8981  -15.9004   20.8577 N   0  0  0  0  0  0
  -31.2751  -21.2812   21.8462 O   0  0  0  0  0  0
  -27.3320  -21.8651   19.2894 O   0  0  0  0  0  0
  -31.4850  -12.5810   19.2149 H   0  0  0  0  0  0
  -30.3690  -11.4933   19.9764 H   0  0  0  0  0  0
  -29.8425  -11.7633   17.5306 H   0  0  0  0  0  0
  -29.6525  -13.4865   17.7360 H   0  0  0  0  0  0
  -27.9073  -11.2969   18.9090 H   0  0  0  0  0  0
  -27.3978  -12.5393   17.7957 H   0  0  0  0  0  0
  -27.6550  -14.2642   19.4813 H   0  0  0  0  0  0
  -28.7211  -12.1793   21.4461 H   0  0  0  0  0  0
  -28.4237  -13.8541   21.8085 H   0  0  0  0  0  0
  -25.2810   -9.5791   22.4724 H   0  0  0  0  0  0
  -24.0097   -7.4688   22.7489 H   0  0  0  0  0  0
  -21.0863   -8.8779   19.8954 H   0  0  0  0  0  0
  -22.3704  -10.9705   19.6137 H   0  0  0  0  0  0
  -21.1981   -7.6179   23.9751 H   0  0  0  0  0  0
  -21.1476   -6.0518   25.9083 H   0  0  0  0  0  0
  -22.0597   -2.7633   23.2800 H   0  0  0  0  0  0
  -22.4071  -11.9997   22.4838 H   0  0  0  0  0  0
  -21.1057  -13.1337   22.2444 H   0  0  0  0  0  0
  -24.6683  -15.8515   20.5197 H   0  0  0  0  0  0
  -26.2983  -15.6259   20.1129 H   0  0  0  0  0  0
  -26.7263  -32.5381   23.1080 H   0  0  0  0  0  0
  -25.0096  -33.9593   25.0406 H   0  0  0  0  0  0
  -22.7353  -31.3094   21.3998 H   0  0  0  0  0  0
  -23.3749  -35.9626   23.3300 H   0  0  0  0  0  0
  -24.3600  -36.8912   22.2070 H   0  0  0  0  0  0
  -23.7222  -37.6501   23.6649 H   0  0  0  0  0  0
  -26.1273  -31.5155   20.6111 H   0  0  0  0  0  0
  -26.8611  -30.8101   22.0181 H   0  0  0  0  0  0
  -28.0991  -28.8689   21.2767 H   0  0  0  0  0  0
  -25.9337  -25.9730   18.8955 H   0  0  0  0  0  0
  -23.9851  -27.3611   18.9348 H   0  0  0  0  0  0
  -23.7690  -30.5932   19.4014 H   0  0  0  0  0  0
  -22.7672  -29.2501   19.8568 H   0  0  0  0  0  0
  -25.1276  -36.1939   25.0838 H   0  0  0  0  0  0
  -21.0010  -28.3293   24.1372 H   0  0  0  0  0  0
  -20.5652  -26.2355   23.3612 H   0  0  0  0  0  0
  -21.6647  -26.7420   22.1224 H   0  0  0  0  0  0
  -19.6902  -25.6284   21.1246 H   0  0  0  0  0  0
  -19.6661  -27.3176   20.6712 H   0  0  0  0  0  0
  -17.4204  -26.6696   21.4004 H   0  0  0  0  0  0
  -18.0332  -26.0053   22.9000 H   0  0  0  0  0  0
  -19.7947  -30.7271   24.2270 H   0  0  0  0  0  0
  -17.5016  -31.6262   24.5160 H   0  0  0  0  0  0
  -15.5353  -30.2962   23.7627 H   0  0  0  0  0  0
  -15.8703  -28.0777   22.7073 H   0  0  0  0  0  0
  -24.5905  -30.7031   25.7810 H   0  0  0  0  0  0
  -24.8842  -32.2865   26.4865 H   0  0  0  0  0  0
  -25.8021  -30.8934   27.0278 H   0  0  0  0  0  0
  -26.2942  -29.6733   24.1273 H   0  0  0  0  0  0
  -27.4008  -29.7257   25.4797 H   0  0  0  0  0  0
  -27.8838  -30.4263   23.9552 H   0  0  0  0  0  0
  -27.2709  -33.3625   26.2062 H   0  0  0  0  0  0
  -28.3888  -32.6804   25.0343 H   0  0  0  0  0  0
  -28.0735  -31.8447   26.5444 H   0  0  0  0  0  0
  -28.2606  -38.0092   24.7518 H   0  0  0  0  0  0
  -28.1064  -36.2629   24.6279 H   0  0  0  0  0  0
  -27.2326  -37.1460   25.8884 H   0  0  0  0  0  0
  -20.9446  -29.8834   21.6876 H   0  0  0  0  0  0
  -26.0183  -38.2883   24.1348 H   0  0  0  0  0  0
  -29.1514  -20.4557   17.9733 H   0  0  0  0  0  0
  -29.6518  -16.2146   18.2467 H   0  0  0  0  0  0
  -30.3920  -23.9809   21.9292 H   0  0  0  0  0  0
  -29.7620  -18.6311   21.8460 H   0  0  0  0  0  0
  -29.1064  -19.1722   16.0212 H   0  0  0  0  0  0
  -28.4005  -17.5726   16.2434 H   0  0  0  0  0  0
  -30.1521  -17.7420   16.0603 H   0  0  0  0  0  0
  -27.1368  -24.8175   21.2920 H   0  0  0  0  0  0
  -27.1563  -24.5457   19.5782 H   0  0  0  0  0  0
  -29.1340  -15.7012   21.4860 H   0  0  0  0  0  0
  -31.7989  -21.9426   22.2916 H   0  0  0  0  0  0
  -26.8245  -22.6490   19.1082 H   0  0  0  0  0  0
  1 25  1  0  0  0
  1 30  2  0  0  0
  1 84  1  0  0  0
  2  3  1  0  0  0
  2 25  1  0  0  0
  2 87  1  0  0  0
  2 88  1  0  0  0
  3  4  1  0  0  0
  3 89  1  0  0  0
  3 90  1  0  0  0
  4  5  1  0  0  0
  4 91  1  0  0  0
  4 92  1  0  0  0
  5  6  1  0  0  0
  5 26  1  0  0  0
  5 93  1  0  0  0
  6 25  1  0  0  0
  6 94  1  0  0  0
  6 95  1  0  0  0
  7  8  2  0  0  0
  7 26  1  0  0  0
  7 29  1  0  0  0
  8  9  1  0  0  0
  8 22  1  0  0  0
  9 10  1  0  0  0
  9 27  2  0  0  0
 10 11  2  0  0  0
 10 15  1  0  0  0
 11 12  1  0  0  0
 11 96  1  0  0  0
 12 13  2  0  0  0
 12 97  1  0  0  0
 13 14  1  0  0  0
 13 31  1  0  0  0
 14 15  2  0  0  0
 14 98  1  0  0  0
 15 99  1  0  0  0
 16 17  2  0  0  0
 16 21  1  0  0  0
 16 31  1  0  0  0
 17 18  1  0  0  0
 17100  1  0  0  0
 18 19  2  0  0  0
 18101  1  0  0  0
 19 20  1  0  0  0
 19 24  1  0  0  0
 20 21  2  0  0  0
 20102  1  0  0  0
 21 23  1  0  0  0
 22 28  1  0  0  0
 22 32  2  0  0  0
 26 27  1  0  0  0
 28103  1  0  0  0
 28104  1  0  0  0
 29105  1  0  0  0
 29106  1  0  0  0
 33 34  1  0  0  0
 33 66  1  0  0  0
 33 70  2  0  0  0
 34 36  1  0  0  0
 34 59  1  0  0  0
 34107  1  0  0  0
 35 44  2  0  0  0
 35 45  1  0  0  0
 35 68  1  0  0  0
 36 56  1  0  0  0
 36108  1  0  0  0
 37 39  1  0  0  0
 37 47  1  0  0  0
 37 66  1  0  0  0
 37109  1  0  0  0
 38 43  2  0  0  0
 38 46  1  0  0  0
 38 47  1  0  0  0
 39 64  1  0  0  0
 39 67  2  0  0  0
 40 52  1  0  0  0
 40 53  2  0  0  0
 40 58  1  0  0  0
 41110  1  0  0  0
 41111  1  0  0  0
 41112  1  0  0  0
 41 48  1  0  0  0
 42 43  1  0  0  0
 42 66  1  0  0  0
 42113  1  0  0  0
 42114  1  0  0  0
 43 44  1  0  0  0
 44115  1  0  0  0
 45 46  2  0  0  0
 45116  1  0  0  0
 46117  1  0  0  0
 47118  1  0  0  0
 47119  1  0  0  0
 48 56  1  0  0  0
 48 65  1  0  0  0
 48120  1  0  0  0
 49 50  1  0  0  0
 49 53  1  0  0  0
 49 64  1  0  0  0
 49121  1  0  0  0
 50 51  1  0  0  0
 50122  1  0  0  0
 50123  1  0  0  0
 51 52  1  0  0  0
 51124  1  0  0  0
 51125  1  0  0  0
 52126  1  0  0  0
 52127  1  0  0  0
 53 54  1  0  0  0
 54 55  2  0  0  0
 54128  1  0  0  0
 55 57  1  0  0  0
 55129  1  0  0  0
 56 69  2  0  0  0
 57 58  2  0  0  0
 57130  1  0  0  0
 58131  1  0  0  0
 59 60  1  0  0  0
 59 61  1  0  0  0
 59 62  1  0  0  0
 60132  1  0  0  0
 60133  1  0  0  0
 60134  1  0  0  0
 61135  1  0  0  0
 61136  1  0  0  0
 61137  1  0  0  0
 62138  1  0  0  0
 62139  1  0  0  0
 62140  1  0  0  0
 63 65  1  0  0  0
 63141  1  0  0  0
 63142  1  0  0  0
 63143  1  0  0  0
 64144  1  0  0  0
 65145  1  0  0  0
 68 82  1  0  0  0
 71 75  2  0  0  0
 71 77  1  0  0  0
 71146  1  0  0  0
 72 75  1  0  0  0
 72 78  2  0  0  0
 72147  1  0  0  0
 73 76  1  0  0  0
 73 79  2  0  0  0
 73148  1  0  0  0
 74 77  2  0  0  0
 74 78  1  0  0  0
 74149  1  0  0  0
 75 81  1  0  0  0
 76 80  2  0  0  0
 76 82  1  0  0  0
 77 83  1  0  0  0
 78 84  1  0  0  0
 79 83  1  0  0  0
 79 85  1  0  0  0
 80 83  1  0  0  0
 80 86  1  0  0  0
 81150  1  0  0  0
 81151  1  0  0  0
 81152  1  0  0  0
 82153  1  0  0  0
 82154  1  0  0  0
 84155  1  0  0  0
 85156  1  0  0  0
 86157  1  0  0  0
M  ISO  4   1 100  68 101  82 101  84 100
M  END
> <chiral flag>
0

> <version>
0

> <s_m_source_file>
/data/baiqing/PycharmProjects/Reinvent-master-3.2/result/LINK_invent/BTK/process_docking_weight1_custom_product_contain_oxygen_bond_distance_aromatic_linkinvent_7_9_3/rearranged_h_0064.sdf

> <i_m_source_file_index>
76

> <r_mmod_Potential_Energy-OPLS-2005>
288.713317871094

> <r_mmod_Stretch_Energy-OPLS-2005>
139.545806884766

> <r_mmod_Bend_Energy-OPLS-2005>
183.423980712891

> <r_mmod_Torsional_Energy-OPLS-2005>
269.808654785156

> <r_mmod_Improper_Torsional_Energy-OPLS-2005>
5.77381992340088

> <r_mmod_Van_der_Waal_Energy-OPLS-2005>
137.101638793945

> <r_mmod_Electrostatic_Energy-OPLS-2005>
-314.6943359375

> <r_mmod_Solvation_Energy-OPLS-2005>
-238.677764892578

> <b_mmod_Minimization_Converged-OPLS-2005>
0

> <r_mmod_RMS_Derivative-OPLS-2005>
4.75653791427612

$$$$
77
                    3D
 Structure written by MMmdl.
156164  0  0  1  0            999 V2000
  -30.6077  -14.7796   20.4373 C   0  0  0  0  0  0
  -30.4329  -12.4772   19.4776 C   0  0  0  0  0  0
  -29.5154  -12.5070   18.2355 C   0  0  0  0  0  0
  -28.0428  -12.3263   18.6500 C   0  0  0  0  0  0
  -27.6367  -13.2331   19.8433 C   0  0  2  0  0  0
  -28.6814  -13.2002   20.9800 C   0  0  0  0  0  0
  -25.2469  -13.8206   20.5668 C   0  0  0  0  0  0
  -24.1776  -13.0446   20.9200 C   0  0  0  0  0  0
  -24.6384  -11.6918   20.8715 C   0  0  0  0  0  0
  -23.9067  -10.4308   21.0413 C   0  0  0  0  0  0
  -24.3614   -9.4221   21.9184 C   0  0  0  0  0  0
  -23.6300   -8.2254   22.0743 C   0  0  0  0  0  0
  -22.4272   -8.0288   21.3551 C   0  0  0  0  0  0
  -21.9906   -9.0252   20.4639 C   0  0  0  0  0  0
  -22.7242  -10.2137   20.3065 C   0  0  0  0  0  0
  -21.6846   -6.0744   22.5285 C   0  0  0  0  0  0
  -21.4015   -6.5641   23.8222 C   0  0  0  0  0  0
  -21.3657   -5.6778   24.9167 C   0  0  0  0  0  0
  -21.6052   -4.3045   24.7209 C   0  0  0  0  0  0
  -21.8817   -3.8150   23.4326 C   0  0  0  0  0  0
  -21.9183   -4.6969   22.3390 C   0  0  0  0  0  0
  -22.7817  -13.5235   21.1881 C   0  0  0  0  0  0
  -22.1665   -4.2174   21.0969 F   0  0  0  0  0  0
  -21.5627   -3.4514   25.7708 F   0  0  0  0  0  0
  -29.9761  -13.5528   20.3885 N   0  0  0  0  0  0
  -26.2887  -12.9413   20.3215 N   0  0  0  0  0  0
  -25.9314  -11.6548   20.5708 N   0  0  0  0  0  0
  -22.0468  -12.8223   22.0431 N   0  0  0  0  0  0
  -25.4157  -15.1923   20.4136 N   0  0  0  0  0  0
  -31.8104  -14.8439   20.1802 O   0  0  0  0  0  0
  -21.6656   -6.8881   21.4243 O   0  0  0  0  0  0
  -22.3518  -14.5555   20.6738 O   0  0  0  0  0  0
  -24.6314  -31.8531   23.1948 C   0  0  0  0  0  0
  -25.9155  -32.4727   23.8298 C   0  0  1  0  0  0
  -27.2340  -27.2681   20.1121 C   0  0  0  0  0  0
  -25.5953  -33.8528   24.2235 N   0  0  0  0  0  0
  -23.4274  -30.4722   21.5392 C   0  0  2  0  0  0
  -24.8740  -28.9064   20.1176 C   0  0  0  0  0  0
  -22.7490  -29.4598   22.4921 C   0  0  0  0  0  0
  -18.0293  -28.1382   22.8479 C   0  0  0  0  0  0
  -24.1493  -36.7291   23.2630 C   0  0  0  0  0  0
  -25.9692  -30.7640   21.3698 C   0  0  0  0  0  0
  -26.0461  -29.3838   20.7169 C   0  0  0  0  0  0
  -27.2304  -28.5800   20.6964 C   0  0  0  0  0  0
  -26.0334  -26.8382   19.5117 C   0  0  0  0  0  0
  -24.8705  -27.6390   19.5100 C   0  0  0  0  0  0
  -23.6452  -29.7981   20.1586 C   0  0  0  0  0  0
  -25.4118  -36.3050   24.0310 C   0  0  1  0  0  0
  -20.5891  -28.3708   23.1279 C   0  0  2  0  0  0
  -20.6791  -26.9427   22.5410 C   0  0  0  0  0  0
  -19.5768  -26.6380   21.5212 C   0  0  0  0  0  0
  -18.1949  -26.7924   22.1615 C   0  0  0  0  0  0
  -19.1542  -28.8860   23.2872 C   0  0  0  0  0  0
  -18.9464  -30.1452   23.8906 C   0  0  0  0  0  0
  -17.6467  -30.6579   24.0570 C   0  0  0  0  0  0
  -25.9056  -34.9418   23.5074 C   0  0  0  0  0  0
  -16.5364  -29.9083   23.6317 C   0  0  0  0  0  0
  -16.7280  -28.6492   23.0354 C   0  0  0  0  0  0
  -26.4513  -31.6563   25.0697 C   0  0  0  0  0  0
  -25.3739  -31.3740   26.1440 C   0  0  0  0  0  0
  -27.0353  -30.2974   24.6177 C   0  0  0  0  0  0
  -27.6038  -32.4320   25.7504 C   0  0  0  0  0  0
  -27.5578  -37.1801   24.8452 C   0  0  0  0  0  0
  -21.4197  -29.3059   22.3668 N   0  0  0  0  0  0
  -26.4282  -37.3760   23.9390 N   0  0  0  0  0  0
  -24.6953  -31.0476   22.0924 N   0  0  0  0  0  0
  -23.4189  -28.8166   23.3046 O   0  0  0  0  0  0
  -28.3705  -26.4343   20.0533 O   0  0  0  0  0  0
  -26.5635  -34.8902   22.4647 O   0  0  0  0  0  0
  -23.5465  -32.1381   23.7246 O   0  0  0  0  0  0
  -31.7907  -19.1012   21.3717 C   0  0  0  0  0  0
  -30.9798  -20.1589   20.9108 C   0  0  0  0  0  0
  -31.4172  -17.7480   21.2153 C   0  0  0  0  0  0
  -29.3809  -18.4967   20.1262 C   0  0  0  0  0  0
  -29.7471  -19.9076   20.2689 C   0  0  0  0  0  0
  -30.2016  -17.3803   20.5917 C   0  0  0  0  0  0
  -28.9686  -21.1126   19.6472 C   0  0  0  0  0  0
  -29.7033  -24.1400   18.5090 C   0  0  0  0  0  0
  -29.2778  -24.9773   17.3064 C   0  0  0  0  0  0
  -28.3343  -24.9912   20.4837 C   0  0  0  0  0  0
  -28.6040  -23.7210   19.5047 C   0  0  2  0  0  0
  -29.8255  -15.9369   20.5094 N   0  0  0  0  0  0
  -29.0250  -22.3955   20.1743 N   0  0  0  0  0  0
  -28.3065  -20.9036   18.6292 O   0  0  0  0  0  0
  -30.8924  -23.8367   18.6394 O   0  0  0  0  0  0
  -31.4752  -12.6092   19.1847 H   0  0  0  0  0  0
  -30.3807  -11.5075   19.9731 H   0  0  0  0  0  0
  -29.8007  -11.7271   17.5277 H   0  0  0  0  0  0
  -29.6371  -13.4532   17.7073 H   0  0  0  0  0  0
  -27.9094  -11.2791   18.9221 H   0  0  0  0  0  0
  -27.3895  -12.5071   17.7959 H   0  0  0  0  0  0
  -27.6199  -14.2439   19.4390 H   0  0  0  0  0  0
  -28.7248  -12.2148   21.4426 H   0  0  0  0  0  0
  -28.4112  -13.8947   21.7751 H   0  0  0  0  0  0
  -25.2779   -9.5687   22.4724 H   0  0  0  0  0  0
  -24.0017   -7.4634   22.7434 H   0  0  0  0  0  0
  -21.0847   -8.8771   19.8938 H   0  0  0  0  0  0
  -22.3715  -10.9655   19.6161 H   0  0  0  0  0  0
  -21.2053   -7.6152   23.9718 H   0  0  0  0  0  0
  -21.1474   -6.0526   25.9069 H   0  0  0  0  0  0
  -22.0601   -2.7613   23.2814 H   0  0  0  0  0  0
  -22.4093  -11.9917   22.4878 H   0  0  0  0  0  0
  -21.1070  -13.1220   22.2605 H   0  0  0  0  0  0
  -24.6427  -15.8398   20.5289 H   0  0  0  0  0  0
  -26.2597  -15.6324   20.0756 H   0  0  0  0  0  0
  -26.7226  -32.5388   23.1030 H   0  0  0  0  0  0
  -25.0135  -33.9647   25.0404 H   0  0  0  0  0  0
  -22.7259  -31.2962   21.3919 H   0  0  0  0  0  0
  -23.3739  -35.9642   23.3273 H   0  0  0  0  0  0
  -24.3595  -36.8942   22.2050 H   0  0  0  0  0  0
  -23.7268  -37.6486   23.6690 H   0  0  0  0  0  0
  -26.1027  -31.5207   20.5958 H   0  0  0  0  0  0
  -26.8457  -30.8173   22.0036 H   0  0  0  0  0  0
  -28.1358  -28.9526   21.1546 H   0  0  0  0  0  0
  -25.9936  -25.8698   19.0331 H   0  0  0  0  0  0
  -23.9708  -27.2671   19.0392 H   0  0  0  0  0  0
  -23.7719  -30.5713   19.3994 H   0  0  0  0  0  0
  -22.7608  -29.2356   19.8532 H   0  0  0  0  0  0
  -25.1288  -36.1887   25.0801 H   0  0  0  0  0  0
  -20.9966  -28.3284   24.1406 H   0  0  0  0  0  0
  -20.5703  -26.2318   23.3614 H   0  0  0  0  0  0
  -21.6670  -26.7465   22.1218 H   0  0  0  0  0  0
  -19.6944  -25.6289   21.1253 H   0  0  0  0  0  0
  -19.6698  -27.3181   20.6737 H   0  0  0  0  0  0
  -17.4224  -26.6674   21.4015 H   0  0  0  0  0  0
  -18.0340  -26.0058   22.8993 H   0  0  0  0  0  0
  -19.7942  -30.7256   24.2299 H   0  0  0  0  0  0
  -17.5023  -31.6260   24.5173 H   0  0  0  0  0  0
  -15.5366  -30.3002   23.7605 H   0  0  0  0  0  0
  -15.8683  -28.0796   22.7089 H   0  0  0  0  0  0
  -24.5895  -30.7094   25.7796 H   0  0  0  0  0  0
  -24.8979  -32.2939   26.4848 H   0  0  0  0  0  0
  -25.8074  -30.8946   27.0225 H   0  0  0  0  0  0
  -26.2929  -29.6729   24.1196 H   0  0  0  0  0  0
  -27.4033  -29.7220   25.4676 H   0  0  0  0  0  0
  -27.8806  -30.4235   23.9406 H   0  0  0  0  0  0
  -27.2588  -33.3609   26.2060 H   0  0  0  0  0  0
  -28.3874  -32.6902   25.0365 H   0  0  0  0  0  0
  -28.0680  -31.8482   26.5456 H   0  0  0  0  0  0
  -28.2564  -38.0122   24.7506 H   0  0  0  0  0  0
  -28.1098  -36.2654   24.6253 H   0  0  0  0  0  0
  -27.2312  -37.1417   25.8857 H   0  0  0  0  0  0
  -20.9390  -29.8796   21.6880 H   0  0  0  0  0  0
  -26.0148  -38.2824   24.1408 H   0  0  0  0  0  0
  -32.7332  -19.3343   21.8479 H   0  0  0  0  0  0
  -31.3329  -21.1744   21.0299 H   0  0  0  0  0  0
  -32.0898  -16.9950   21.5987 H   0  0  0  0  0  0
  -28.4523  -18.2703   19.6217 H   0  0  0  0  0  0
  -28.2011  -25.1428   17.3094 H   0  0  0  0  0  0
  -29.5406  -24.4702   16.3798 H   0  0  0  0  0  0
  -29.7715  -25.9481   17.3182 H   0  0  0  0  0  0
  -29.0825  -24.9367   21.2751 H   0  0  0  0  0  0
  -27.3833  -24.8157   20.9868 H   0  0  0  0  0  0
  -27.6919  -23.5350   18.9368 H   0  0  0  0  0  0
  -28.8323  -15.7681   20.5151 H   0  0  0  0  0  0
  -29.5448  -22.4892   21.0358 H   0  0  0  0  0  0
  1 25  1  0  0  0
  1 30  2  0  0  0
  1 82  1  0  0  0
  2  3  1  0  0  0
  2 25  1  0  0  0
  2 86  1  0  0  0
  2 87  1  0  0  0
  3  4  1  0  0  0
  3 88  1  0  0  0
  3 89  1  0  0  0
  4  5  1  0  0  0
  4 90  1  0  0  0
  4 91  1  0  0  0
  5  6  1  0  0  0
  5 26  1  0  0  0
  5 92  1  0  0  0
  6 25  1  0  0  0
  6 93  1  0  0  0
  6 94  1  0  0  0
  7  8  2  0  0  0
  7 26  1  0  0  0
  7 29  1  0  0  0
  8  9  1  0  0  0
  8 22  1  0  0  0
  9 10  1  0  0  0
  9 27  2  0  0  0
 10 11  2  0  0  0
 10 15  1  0  0  0
 11 12  1  0  0  0
 11 95  1  0  0  0
 12 13  2  0  0  0
 12 96  1  0  0  0
 13 14  1  0  0  0
 13 31  1  0  0  0
 14 15  2  0  0  0
 14 97  1  0  0  0
 15 98  1  0  0  0
 16 17  2  0  0  0
 16 21  1  0  0  0
 16 31  1  0  0  0
 17 18  1  0  0  0
 17 99  1  0  0  0
 18 19  2  0  0  0
 18100  1  0  0  0
 19 20  1  0  0  0
 19 24  1  0  0  0
 20 21  2  0  0  0
 20101  1  0  0  0
 21 23  1  0  0  0
 22 28  1  0  0  0
 22 32  2  0  0  0
 26 27  1  0  0  0
 28102  1  0  0  0
 28103  1  0  0  0
 29104  1  0  0  0
 29105  1  0  0  0
 33 34  1  0  0  0
 33 66  1  0  0  0
 33 70  2  0  0  0
 34 36  1  0  0  0
 34 59  1  0  0  0
 34106  1  0  0  0
 35 44  2  0  0  0
 35 45  1  0  0  0
 35 68  1  0  0  0
 36 56  1  0  0  0
 36107  1  0  0  0
 37 39  1  0  0  0
 37 47  1  0  0  0
 37 66  1  0  0  0
 37108  1  0  0  0
 38 43  2  0  0  0
 38 46  1  0  0  0
 38 47  1  0  0  0
 39 64  1  0  0  0
 39 67  2  0  0  0
 40 52  1  0  0  0
 40 53  2  0  0  0
 40 58  1  0  0  0
 41109  1  0  0  0
 41110  1  0  0  0
 41111  1  0  0  0
 41 48  1  0  0  0
 42 43  1  0  0  0
 42 66  1  0  0  0
 42112  1  0  0  0
 42113  1  0  0  0
 43 44  1  0  0  0
 44114  1  0  0  0
 45 46  2  0  0  0
 45115  1  0  0  0
 46116  1  0  0  0
 47117  1  0  0  0
 47118  1  0  0  0
 48 56  1  0  0  0
 48 65  1  0  0  0
 48119  1  0  0  0
 49 50  1  0  0  0
 49 53  1  0  0  0
 49 64  1  0  0  0
 49120  1  0  0  0
 50 51  1  0  0  0
 50121  1  0  0  0
 50122  1  0  0  0
 51 52  1  0  0  0
 51123  1  0  0  0
 51124  1  0  0  0
 52125  1  0  0  0
 52126  1  0  0  0
 53 54  1  0  0  0
 54 55  2  0  0  0
 54127  1  0  0  0
 55 57  1  0  0  0
 55128  1  0  0  0
 56 69  2  0  0  0
 57 58  2  0  0  0
 57129  1  0  0  0
 58130  1  0  0  0
 59 60  1  0  0  0
 59 61  1  0  0  0
 59 62  1  0  0  0
 60131  1  0  0  0
 60132  1  0  0  0
 60133  1  0  0  0
 61134  1  0  0  0
 61135  1  0  0  0
 61136  1  0  0  0
 62137  1  0  0  0
 62138  1  0  0  0
 62139  1  0  0  0
 63 65  1  0  0  0
 63140  1  0  0  0
 63141  1  0  0  0
 63142  1  0  0  0
 64143  1  0  0  0
 65144  1  0  0  0
 68 80  1  0  0  0
 71 72  2  0  0  0
 71 73  1  0  0  0
 71145  1  0  0  0
 72 75  1  0  0  0
 72146  1  0  0  0
 73 76  2  0  0  0
 73147  1  0  0  0
 74 75  2  0  0  0
 74 76  1  0  0  0
 74148  1  0  0  0
 75 77  1  0  0  0
 76 82  1  0  0  0
 77 83  1  0  0  0
 77 84  2  0  0  0
 78 79  1  0  0  0
 78 81  1  0  0  0
 78 85  2  0  0  0
 79149  1  0  0  0
 79150  1  0  0  0
 79151  1  0  0  0
 80152  1  0  0  0
 80153  1  0  0  0
 80 81  1  0  0  0
 81 83  1  0  0  0
 81154  1  0  0  0
 82155  1  0  0  0
 83156  1  0  0  0
M  ISO  4   1 100  68 101  80 101  82 100
M  END
> <chiral flag>
0

> <version>
0

> <s_m_source_file>
/data/baiqing/PycharmProjects/Reinvent-master-3.2/result/LINK_invent/BTK/process_docking_weight1_custom_product_contain_oxygen_bond_distance_aromatic_linkinvent_7_9_3/rearranged_h_0064.sdf

> <i_m_source_file_index>
77

> <r_mmod_Potential_Energy-OPLS-2005>
18.2588500976562

> <r_mmod_Stretch_Energy-OPLS-2005>
130.826187133789

> <r_mmod_Bend_Energy-OPLS-2005>
162.726928710938

> <r_mmod_Torsional_Energy-OPLS-2005>
250.659362792969

> <r_mmod_Improper_Torsional_Energy-OPLS-2005>
7.1004056930542

> <r_mmod_Van_der_Waal_Energy-OPLS-2005>
130.780868530273

> <r_mmod_Electrostatic_Energy-OPLS-2005>
-507.944274902344

> <r_mmod_Solvation_Energy-OPLS-2005>
-244.08186340332

> <b_mmod_Minimization_Converged-OPLS-2005>
0

> <r_mmod_RMS_Derivative-OPLS-2005>
4.77002477645874

$$$$
78
                    3D
 Structure written by MMmdl.
156164  0  0  1  0            999 V2000
  -30.5814  -14.7186   20.4617 C   0  0  0  0  0  0
  -30.4500  -12.4235   19.4515 C   0  0  0  0  0  0
  -29.5254  -12.5221   18.2156 C   0  0  0  0  0  0
  -28.0379  -12.3827   18.6117 C   0  0  0  0  0  0
  -27.6569  -13.2310   19.8538 C   0  0  2  0  0  0
  -28.7054  -13.0850   20.9818 C   0  0  0  0  0  0
  -25.2564  -13.8191   20.5643 C   0  0  0  0  0  0
  -24.1824  -13.0443   20.9153 C   0  0  0  0  0  0
  -24.6387  -11.6926   20.8652 C   0  0  0  0  0  0
  -23.9045  -10.4313   21.0372 C   0  0  0  0  0  0
  -24.3571   -9.4248   21.9201 C   0  0  0  0  0  0
  -23.6283   -8.2252   22.0744 C   0  0  0  0  0  0
  -22.4280   -8.0259   21.3512 C   0  0  0  0  0  0
  -21.9891   -9.0255   20.4630 C   0  0  0  0  0  0
  -22.7191  -10.2164   20.3044 C   0  0  0  0  0  0
  -21.6873   -6.0709   22.5261 C   0  0  0  0  0  0
  -21.4012   -6.5617   23.8190 C   0  0  0  0  0  0
  -21.3658   -5.6744   24.9155 C   0  0  0  0  0  0
  -21.6061   -4.2999   24.7199 C   0  0  0  0  0  0
  -21.8843   -3.8100   23.4315 C   0  0  0  0  0  0
  -21.9175   -4.6930   22.3386 C   0  0  0  0  0  0
  -22.7849  -13.5268   21.1806 C   0  0  0  0  0  0
  -22.1672   -4.2119   21.0976 F   0  0  0  0  0  0
  -21.5622   -3.4495   25.7719 F   0  0  0  0  0  0
  -30.0154  -13.4597   20.4198 N   0  0  0  0  0  0
  -26.3002  -12.9391   20.3222 N   0  0  0  0  0  0
  -25.9334  -11.6539   20.5664 N   0  0  0  0  0  0
  -22.0380  -12.8370   22.0330 N   0  0  0  0  0  0
  -25.4330  -15.1902   20.4145 N   0  0  0  0  0  0
  -31.7260  -14.9071   20.0421 O   0  0  0  0  0  0
  -21.6600   -6.8875   21.4242 O   0  0  0  0  0  0
  -22.3587  -14.5591   20.6648 O   0  0  0  0  0  0
  -24.6413  -31.8566   23.2044 C   0  0  0  0  0  0
  -25.9250  -32.4730   23.8375 C   0  0  1  0  0  0
  -27.1803  -27.2164   20.1184 C   0  0  0  0  0  0
  -25.6061  -33.8544   24.2293 N   0  0  0  0  0  0
  -23.4289  -30.4910   21.5519 C   0  0  2  0  0  0
  -24.8657  -28.9403   20.1097 C   0  0  0  0  0  0
  -22.7525  -29.4664   22.4975 C   0  0  0  0  0  0
  -18.0288  -28.1387   22.8445 C   0  0  0  0  0  0
  -24.1503  -36.7256   23.2633 C   0  0  0  0  0  0
  -25.9830  -30.7543   21.3914 C   0  0  0  0  0  0
  -26.0426  -29.3744   20.7254 C   0  0  0  0  0  0
  -27.2056  -28.5275   20.7225 C   0  0  0  0  0  0
  -25.9758  -26.8828   19.4530 C   0  0  0  0  0  0
  -24.8358  -27.6982   19.4634 C   0  0  0  0  0  0
  -23.6420  -29.8344   20.1641 C   0  0  0  0  0  0
  -25.4117  -36.3049   24.0338 C   0  0  1  0  0  0
  -20.5861  -28.3729   23.1252 C   0  0  2  0  0  0
  -20.6772  -26.9481   22.5375 C   0  0  0  0  0  0
  -19.5771  -26.6383   21.5185 C   0  0  0  0  0  0
  -18.1932  -26.7921   22.1584 C   0  0  0  0  0  0
  -19.1515  -28.8876   23.2821 C   0  0  0  0  0  0
  -18.9455  -30.1470   23.8873 C   0  0  0  0  0  0
  -17.6450  -30.6602   24.0522 C   0  0  0  0  0  0
  -25.9081  -34.9455   23.5086 C   0  0  0  0  0  0
  -16.5342  -29.9073   23.6335 C   0  0  0  0  0  0
  -16.7254  -28.6459   23.0380 C   0  0  0  0  0  0
  -26.4576  -31.6551   25.0800 C   0  0  0  0  0  0
  -25.3765  -31.3701   26.1487 C   0  0  0  0  0  0
  -27.0394  -30.2933   24.6340 C   0  0  0  0  0  0
  -27.6145  -32.4275   25.7542 C   0  0  0  0  0  0
  -27.5578  -37.1782   24.8450 C   0  0  0  0  0  0
  -21.4232  -29.3092   22.3685 N   0  0  0  0  0  0
  -26.4248  -37.3782   23.9453 N   0  0  0  0  0  0
  -24.7033  -31.0529   22.1022 N   0  0  0  0  0  0
  -23.4200  -28.8198   23.3081 O   0  0  0  0  0  0
  -28.2319  -26.2531   20.1941 O   0  0  0  0  0  0
  -26.5620  -34.8922   22.4638 O   0  0  0  0  0  0
  -23.5583  -32.1444   23.7310 O   0  0  0  0  0  0
  -28.8711  -17.9775   21.5818 C   0  0  0  0  0  0
  -28.5392  -19.3498   21.3685 C   0  0  0  0  0  0
  -30.1895  -17.9661   19.5713 C   0  0  0  0  0  0
  -29.8309  -19.3509   19.3176 C   0  0  0  0  0  0
  -29.6740  -17.2176   20.6785 C   0  0  0  0  0  0
  -28.9398  -20.0777   20.2091 C   0  0  0  0  0  0
  -30.3817  -19.9835   18.0282 C   0  0  0  0  0  0
  -28.2441  -24.9120   18.2009 C   0  0  0  0  0  0
  -28.7398  -23.4671   20.3081 C   0  0  0  0  0  0
  -28.0014  -24.8160   19.7219 C   0  0  1  0  0  0
  -29.7694  -15.7474   20.8994 N   0  0  0  0  0  0
  -27.7746  -21.7263   18.3646 O   0  0  0  0  0  0
  -26.7382  -21.6320   20.6258 O   0  0  0  0  0  0
  -27.9838  -21.7143   19.8224 S   0  0  0  0  0  0
  -31.4933  -12.5542   19.1552 H   0  0  0  0  0  0
  -30.3874  -11.4297   19.8996 H   0  0  0  0  0  0
  -29.7919  -11.7467   17.4961 H   0  0  0  0  0  0
  -29.6913  -13.4736   17.7072 H   0  0  0  0  0  0
  -27.8387  -11.3302   18.8117 H   0  0  0  0  0  0
  -27.4041  -12.6585   17.7670 H   0  0  0  0  0  0
  -27.6751  -14.2723   19.5286 H   0  0  0  0  0  0
  -28.7221  -12.0557   21.3422 H   0  0  0  0  0  0
  -28.4396  -13.6958   21.8502 H   0  0  0  0  0  0
  -25.2725   -9.5738   22.4771 H   0  0  0  0  0  0
  -23.9966   -7.4653   22.7508 H   0  0  0  0  0  0
  -21.0778   -8.8794   19.8996 H   0  0  0  0  0  0
  -22.3638  -10.9682   19.6104 H   0  0  0  0  0  0
  -21.2021   -7.6148   23.9716 H   0  0  0  0  0  0
  -21.1470   -6.0453   25.9062 H   0  0  0  0  0  0
  -22.0619   -2.7572   23.2791 H   0  0  0  0  0  0
  -22.3875  -12.0061   22.4854 H   0  0  0  0  0  0
  -21.1023  -13.1523   22.2451 H   0  0  0  0  0  0
  -24.6798  -15.8534   20.5602 H   0  0  0  0  0  0
  -26.2863  -15.6207   20.0757 H   0  0  0  0  0  0
  -26.7321  -32.5319   23.1117 H   0  0  0  0  0  0
  -25.0335  -33.9631   25.0522 H   0  0  0  0  0  0
  -22.7244  -31.3134   21.4157 H   0  0  0  0  0  0
  -23.3774  -35.9559   23.3241 H   0  0  0  0  0  0
  -24.3609  -36.8944   22.2055 H   0  0  0  0  0  0
  -23.7229  -37.6443   23.6661 H   0  0  0  0  0  0
  -26.1414  -31.5151   20.6218 H   0  0  0  0  0  0
  -26.8541  -30.7831   22.0361 H   0  0  0  0  0  0
  -28.0961  -28.8552   21.2349 H   0  0  0  0  0  0
  -25.8471  -25.9529   18.9237 H   0  0  0  0  0  0
  -23.9402  -27.3604   18.9588 H   0  0  0  0  0  0
  -23.7722  -30.6132   19.4124 H   0  0  0  0  0  0
  -22.7509  -29.2833   19.8545 H   0  0  0  0  0  0
  -25.1293  -36.1864   25.0814 H   0  0  0  0  0  0
  -20.9917  -28.3311   24.1369 H   0  0  0  0  0  0
  -20.5681  -26.2401   23.3573 H   0  0  0  0  0  0
  -21.6645  -26.7506   22.1202 H   0  0  0  0  0  0
  -19.6957  -25.6264   21.1289 H   0  0  0  0  0  0
  -19.6687  -27.3112   20.6644 H   0  0  0  0  0  0
  -17.4205  -26.6638   21.3956 H   0  0  0  0  0  0
  -18.0364  -26.0057   22.8993 H   0  0  0  0  0  0
  -19.7931  -30.7253   24.2271 H   0  0  0  0  0  0
  -17.5014  -31.6287   24.5115 H   0  0  0  0  0  0
  -15.5333  -30.2961   23.7711 H   0  0  0  0  0  0
  -15.8631  -28.0758   22.7170 H   0  0  0  0  0  0
  -24.5961  -30.7046   25.7804 H   0  0  0  0  0  0
  -24.8923  -32.2841   26.4921 H   0  0  0  0  0  0
  -25.8086  -30.8877   27.0253 H   0  0  0  0  0  0
  -26.2982  -29.6685   24.1355 H   0  0  0  0  0  0
  -27.3997  -29.7250   25.4921 H   0  0  0  0  0  0
  -27.8916  -30.4179   23.9663 H   0  0  0  0  0  0
  -27.2810  -33.3589   26.2124 H   0  0  0  0  0  0
  -28.3938  -32.6812   25.0345 H   0  0  0  0  0  0
  -28.0822  -31.8397   26.5447 H   0  0  0  0  0  0
  -28.2554  -38.0138   24.7583 H   0  0  0  0  0  0
  -28.1125  -36.2670   24.6114 H   0  0  0  0  0  0
  -27.2329  -37.1261   25.8863 H   0  0  0  0  0  0
  -20.9494  -29.8763   21.6797 H   0  0  0  0  0  0
  -26.0127  -38.2857   24.1410 H   0  0  0  0  0  0
  -28.4320  -17.5035   22.4541 H   0  0  0  0  0  0
  -27.8792  -19.8242   22.0865 H   0  0  0  0  0  0
  -30.8149  -17.4548   18.8468 H   0  0  0  0  0  0
  -31.3267  -19.5284   17.7122 H   0  0  0  0  0  0
  -30.5875  -21.0506   18.1313 H   0  0  0  0  0  0
  -29.6924  -19.8641   17.1887 H   0  0  0  0  0  0
  -27.6804  -24.1571   17.6552 H   0  0  0  0  0  0
  -29.3011  -24.7822   17.9576 H   0  0  0  0  0  0
  -27.9364  -25.8765   17.7938 H   0  0  0  0  0  0
  -28.7376  -23.4874   21.3978 H   0  0  0  0  0  0
  -29.7860  -23.4346   20.0099 H   0  0  0  0  0  0
  -26.9581  -24.5779   19.9221 H   0  0  0  0  0  0
  -28.9860  -15.3724   21.4131 H   0  0  0  0  0  0
  1 25  1  0  0  0
  1 30  2  0  0  0
  1 81  1  0  0  0
  2  3  1  0  0  0
  2 25  1  0  0  0
  2 85  1  0  0  0
  2 86  1  0  0  0
  3  4  1  0  0  0
  3 87  1  0  0  0
  3 88  1  0  0  0
  4  5  1  0  0  0
  4 89  1  0  0  0
  4 90  1  0  0  0
  5  6  1  0  0  0
  5 26  1  0  0  0
  5 91  1  0  0  0
  6 25  1  0  0  0
  6 92  1  0  0  0
  6 93  1  0  0  0
  7  8  2  0  0  0
  7 26  1  0  0  0
  7 29  1  0  0  0
  8  9  1  0  0  0
  8 22  1  0  0  0
  9 10  1  0  0  0
  9 27  2  0  0  0
 10 11  2  0  0  0
 10 15  1  0  0  0
 11 12  1  0  0  0
 11 94  1  0  0  0
 12 13  2  0  0  0
 12 95  1  0  0  0
 13 14  1  0  0  0
 13 31  1  0  0  0
 14 15  2  0  0  0
 14 96  1  0  0  0
 15 97  1  0  0  0
 16 17  2  0  0  0
 16 21  1  0  0  0
 16 31  1  0  0  0
 17 18  1  0  0  0
 17 98  1  0  0  0
 18 19  2  0  0  0
 18 99  1  0  0  0
 19 20  1  0  0  0
 19 24  1  0  0  0
 20 21  2  0  0  0
 20100  1  0  0  0
 21 23  1  0  0  0
 22 28  1  0  0  0
 22 32  2  0  0  0
 26 27  1  0  0  0
 28101  1  0  0  0
 28102  1  0  0  0
 29103  1  0  0  0
 29104  1  0  0  0
 33 34  1  0  0  0
 33 66  1  0  0  0
 33 70  2  0  0  0
 34 36  1  0  0  0
 34 59  1  0  0  0
 34105  1  0  0  0
 35 44  2  0  0  0
 35 45  1  0  0  0
 35 68  1  0  0  0
 36 56  1  0  0  0
 36106  1  0  0  0
 37 39  1  0  0  0
 37 47  1  0  0  0
 37 66  1  0  0  0
 37107  1  0  0  0
 38 43  2  0  0  0
 38 46  1  0  0  0
 38 47  1  0  0  0
 39 64  1  0  0  0
 39 67  2  0  0  0
 40 52  1  0  0  0
 40 53  2  0  0  0
 40 58  1  0  0  0
 41108  1  0  0  0
 41109  1  0  0  0
 41110  1  0  0  0
 41 48  1  0  0  0
 42 43  1  0  0  0
 42 66  1  0  0  0
 42111  1  0  0  0
 42112  1  0  0  0
 43 44  1  0  0  0
 44113  1  0  0  0
 45 46  2  0  0  0
 45114  1  0  0  0
 46115  1  0  0  0
 47116  1  0  0  0
 47117  1  0  0  0
 48 56  1  0  0  0
 48 65  1  0  0  0
 48118  1  0  0  0
 49 50  1  0  0  0
 49 53  1  0  0  0
 49 64  1  0  0  0
 49119  1  0  0  0
 50 51  1  0  0  0
 50120  1  0  0  0
 50121  1  0  0  0
 51 52  1  0  0  0
 51122  1  0  0  0
 51123  1  0  0  0
 52124  1  0  0  0
 52125  1  0  0  0
 53 54  1  0  0  0
 54 55  2  0  0  0
 54126  1  0  0  0
 55 57  1  0  0  0
 55127  1  0  0  0
 56 69  2  0  0  0
 57 58  2  0  0  0
 57128  1  0  0  0
 58129  1  0  0  0
 59 60  1  0  0  0
 59 61  1  0  0  0
 59 62  1  0  0  0
 60130  1  0  0  0
 60131  1  0  0  0
 60132  1  0  0  0
 61133  1  0  0  0
 61134  1  0  0  0
 61135  1  0  0  0
 62136  1  0  0  0
 62137  1  0  0  0
 62138  1  0  0  0
 63 65  1  0  0  0
 63139  1  0  0  0
 63140  1  0  0  0
 63141  1  0  0  0
 64142  1  0  0  0
 65143  1  0  0  0
 68 80  1  0  0  0
 71 72  2  0  0  0
 71 75  1  0  0  0
 71144  1  0  0  0
 72 76  1  0  0  0
 72145  1  0  0  0
 73 74  1  0  0  0
 73 75  2  0  0  0
 73146  1  0  0  0
 74 76  2  0  0  0
 74 77  1  0  0  0
 75 81  1  0  0  0
 76 84  1  0  0  0
 77147  1  0  0  0
 77148  1  0  0  0
 77149  1  0  0  0
 78150  1  0  0  0
 78151  1  0  0  0
 78152  1  0  0  0
 78 80  1  0  0  0
 79 80  1  0  0  0
 79153  1  0  0  0
 79154  1  0  0  0
 79 84  1  0  0  0
 80155  1  0  0  0
 81156  1  0  0  0
 82 84  2  0  0  0
 83 84  2  0  0  0
M  ISO  4   1 100  68 101  80 101  81 100
M  END
> <chiral flag>
0

> <version>
0

> <s_m_source_file>
/data/baiqing/PycharmProjects/Reinvent-master-3.2/result/LINK_invent/BTK/process_docking_weight1_custom_product_contain_oxygen_bond_distance_aromatic_linkinvent_7_9_3/rearranged_h_0064.sdf

> <i_m_source_file_index>
78

> <r_mmod_Potential_Energy-OPLS-2005>
205.721557617188

> <r_mmod_Stretch_Energy-OPLS-2005>
157.541076660156

> <r_mmod_Bend_Energy-OPLS-2005>
218.064254760742

> <r_mmod_Torsional_Energy-OPLS-2005>
222.057769775391

> <r_mmod_Improper_Torsional_Energy-OPLS-2005>
5.648756980896

> <r_mmod_Van_der_Waal_Energy-OPLS-2005>
135.482925415039

> <r_mmod_Electrostatic_Energy-OPLS-2005>
-375.834320068359

> <r_mmod_Solvation_Energy-OPLS-2005>
-254.891250610352

> <b_mmod_Minimization_Converged-OPLS-2005>
0

> <r_mmod_RMS_Derivative-OPLS-2005>
11.1068420410156

$$$$
79
                    3D
 Structure written by MMmdl.
157166  0  0  1  0            999 V2000
  -30.6086  -14.7583   20.4308 C   0  0  0  0  0  0
  -30.4295  -12.4560   19.4903 C   0  0  0  0  0  0
  -29.5136  -12.5028   18.2484 C   0  0  0  0  0  0
  -28.0398  -12.3279   18.6598 C   0  0  0  0  0  0
  -27.6404  -13.2349   19.8551 C   0  0  2  0  0  0
  -28.6832  -13.1809   20.9917 C   0  0  0  0  0  0
  -25.2506  -13.8209   20.5723 C   0  0  0  0  0  0
  -24.1799  -13.0449   20.9223 C   0  0  0  0  0  0
  -24.6382  -11.6921   20.8762 C   0  0  0  0  0  0
  -23.9062  -10.4293   21.0413 C   0  0  0  0  0  0
  -24.3615   -9.4205   21.9189 C   0  0  0  0  0  0
  -23.6287   -8.2239   22.0737 C   0  0  0  0  0  0
  -22.4270   -8.0278   21.3537 C   0  0  0  0  0  0
  -21.9906   -9.0252   20.4642 C   0  0  0  0  0  0
  -22.7234  -10.2137   20.3058 C   0  0  0  0  0  0
  -21.6856   -6.0729   22.5286 C   0  0  0  0  0  0
  -21.4019   -6.5638   23.8219 C   0  0  0  0  0  0
  -21.3658   -5.6793   24.9187 C   0  0  0  0  0  0
  -21.6043   -4.3053   24.7236 C   0  0  0  0  0  0
  -21.8819   -3.8138   23.4359 C   0  0  0  0  0  0
  -21.9187   -4.6954   22.3415 C   0  0  0  0  0  0
  -22.7823  -13.5232   21.1874 C   0  0  0  0  0  0
  -22.1660   -4.2131   21.0994 F   0  0  0  0  0  0
  -21.5612   -3.4536   25.7752 F   0  0  0  0  0  0
  -29.9871  -13.5281   20.4151 N   0  0  0  0  0  0
  -26.2924  -12.9412   20.3309 N   0  0  0  0  0  0
  -25.9314  -11.6549   20.5779 N   0  0  0  0  0  0
  -22.0442  -12.8243   22.0426 N   0  0  0  0  0  0
  -25.4185  -15.1944   20.4175 N   0  0  0  0  0  0
  -31.7969  -14.8338   20.1031 O   0  0  0  0  0  0
  -21.6627   -6.8878   21.4249 O   0  0  0  0  0  0
  -22.3522  -14.5519   20.6685 O   0  0  0  0  0  0
  -24.6346  -31.8537   23.2006 C   0  0  0  0  0  0
  -25.9159  -32.4751   23.8352 C   0  0  1  0  0  0
  -27.2027  -27.2271   20.1328 C   0  0  0  0  0  0
  -25.5938  -33.8553   24.2269 N   0  0  0  0  0  0
  -23.4334  -30.4812   21.5430 C   0  0  2  0  0  0
  -24.8807  -28.9377   20.1044 C   0  0  0  0  0  0
  -22.7530  -29.4585   22.4876 C   0  0  0  0  0  0
  -18.0306  -28.1374   22.8493 C   0  0  0  0  0  0
  -24.1485  -36.7284   23.2636 C   0  0  0  0  0  0
  -25.9857  -30.7562   21.3892 C   0  0  0  0  0  0
  -26.0552  -29.3791   20.7276 C   0  0  0  0  0  0
  -27.2196  -28.5367   20.7342 C   0  0  0  0  0  0
  -26.0064  -26.8848   19.4548 C   0  0  0  0  0  0
  -24.8647  -27.7008   19.4537 C   0  0  0  0  0  0
  -23.6536  -29.8255   20.1562 C   0  0  0  0  0  0
  -25.4109  -36.3067   24.0328 C   0  0  1  0  0  0
  -20.5913  -28.3691   23.1249 C   0  0  2  0  0  0
  -20.6782  -26.9404   22.5396 C   0  0  0  0  0  0
  -19.5755  -26.6368   21.5203 C   0  0  0  0  0  0
  -18.1941  -26.7912   22.1632 C   0  0  0  0  0  0
  -19.1558  -28.8852   23.2867 C   0  0  0  0  0  0
  -18.9471  -30.1444   23.8897 C   0  0  0  0  0  0
  -17.6466  -30.6576   24.0554 C   0  0  0  0  0  0
  -25.9048  -34.9434   23.5097 C   0  0  0  0  0  0
  -16.5358  -29.9066   23.6324 C   0  0  0  0  0  0
  -16.7288  -28.6474   23.0368 C   0  0  0  0  0  0
  -26.4511  -31.6583   25.0749 C   0  0  0  0  0  0
  -25.3722  -31.3761   26.1464 C   0  0  0  0  0  0
  -27.0345  -30.2986   24.6265 C   0  0  0  0  0  0
  -27.6060  -32.4324   25.7521 C   0  0  0  0  0  0
  -27.5580  -37.1792   24.8460 C   0  0  0  0  0  0
  -21.4229  -29.3044   22.3637 N   0  0  0  0  0  0
  -26.4287  -37.3766   23.9413 N   0  0  0  0  0  0
  -24.7043  -31.0488   22.0995 N   0  0  0  0  0  0
  -23.4221  -28.8106   23.2965 O   0  0  0  0  0  0
  -28.2449  -26.2573   20.2281 O   0  0  0  0  0  0
  -26.5615  -34.8905   22.4663 O   0  0  0  0  0  0
  -23.5485  -32.1358   23.7285 O   0  0  0  0  0  0
  -30.6296  -18.4762   17.9524 C   0  0  0  0  0  0
  -30.5136  -17.2824   18.6850 C   0  0  0  0  0  0
  -29.6924  -23.2431   21.2899 C   0  0  0  0  0  0
  -29.5601  -18.5577   20.5263 C   0  0  0  0  0  0
  -30.2437  -19.7225   18.4866 C   0  0  0  0  0  0
  -28.6748  -23.4815   20.3106 C   0  0  0  0  0  0
  -29.6838  -19.8232   19.7919 C   0  0  0  0  0  0
  -29.9891  -17.2575   19.9956 C   0  0  0  0  0  0
  -30.0848  -21.9171   21.2482 C   0  0  0  0  0  0
  -28.4921  -22.1963   19.7712 C   0  0  0  0  0  0
  -30.4751  -20.9490   17.6101 C   0  0  0  0  0  0
  -27.8486  -24.8154   19.9685 C   0  0  0  0  0  0
  -29.3847  -21.2033   20.2793 N   0  0  0  0  0  0
  -29.8576  -15.9151   20.6457 N   0  0  0  0  0  0
  -31.0556  -21.2981   21.9768 O   0  0  0  0  0  0
  -27.5851  -21.8227   18.8236 O   0  0  0  0  0  0
  -31.4706  -12.5707   19.1857 H   0  0  0  0  0  0
  -30.3703  -11.4830   19.9803 H   0  0  0  0  0  0
  -29.7935  -11.7215   17.5405 H   0  0  0  0  0  0
  -29.6446  -13.4537   17.7294 H   0  0  0  0  0  0
  -27.9024  -11.2809   18.9323 H   0  0  0  0  0  0
  -27.3833  -12.5077   17.8088 H   0  0  0  0  0  0
  -27.6317  -14.2537   19.4676 H   0  0  0  0  0  0
  -28.7180  -12.1844   21.4348 H   0  0  0  0  0  0
  -28.4146  -13.8672   21.7965 H   0  0  0  0  0  0
  -25.2752   -9.5663   22.4784 H   0  0  0  0  0  0
  -23.9967   -7.4627   22.7471 H   0  0  0  0  0  0
  -21.0812   -8.8793   19.8971 H   0  0  0  0  0  0
  -22.3679  -10.9682   19.6174 H   0  0  0  0  0  0
  -21.2021   -7.6147   23.9725 H   0  0  0  0  0  0
  -21.1478   -6.0524   25.9095 H   0  0  0  0  0  0
  -22.0588   -2.7590   23.2881 H   0  0  0  0  0  0
  -22.4033  -11.9936   22.4899 H   0  0  0  0  0  0
  -21.1052  -13.1286   22.2586 H   0  0  0  0  0  0
  -24.6481  -15.8446   20.5303 H   0  0  0  0  0  0
  -26.2646  -15.6381   20.0824 H   0  0  0  0  0  0
  -26.7230  -32.5393   23.1097 H   0  0  0  0  0  0
  -25.0101  -33.9686   25.0427 H   0  0  0  0  0  0
  -22.7302  -31.3046   21.3997 H   0  0  0  0  0  0
  -23.3747  -35.9617   23.3284 H   0  0  0  0  0  0
  -24.3590  -36.8917   22.2057 H   0  0  0  0  0  0
  -23.7224  -37.6477   23.6666 H   0  0  0  0  0  0
  -26.1311  -31.5172   20.6215 H   0  0  0  0  0  0
  -26.8617  -30.8029   22.0241 H   0  0  0  0  0  0
  -28.1094  -28.8597   21.2568 H   0  0  0  0  0  0
  -25.8930  -25.9501   18.9294 H   0  0  0  0  0  0
  -23.9720  -27.3643   18.9443 H   0  0  0  0  0  0
  -23.7786  -30.6052   19.4043 H   0  0  0  0  0  0
  -22.7719  -29.2602   19.8490 H   0  0  0  0  0  0
  -25.1283  -36.1923   25.0820 H   0  0  0  0  0  0
  -21.0021  -28.3268   24.1363 H   0  0  0  0  0  0
  -20.5671  -26.2304   23.3602 H   0  0  0  0  0  0
  -21.6646  -26.7402   22.1188 H   0  0  0  0  0  0
  -19.6910  -25.6275   21.1234 H   0  0  0  0  0  0
  -19.6685  -27.3175   20.6732 H   0  0  0  0  0  0
  -17.4199  -26.6664   21.4041 H   0  0  0  0  0  0
  -18.0350  -26.0049   22.9026 H   0  0  0  0  0  0
  -19.7938  -30.7260   24.2279 H   0  0  0  0  0  0
  -17.5010  -31.6258   24.5144 H   0  0  0  0  0  0
  -15.5355  -30.2968   23.7627 H   0  0  0  0  0  0
  -15.8689  -28.0771   22.7111 H   0  0  0  0  0  0
  -24.5903  -30.7097   25.7807 H   0  0  0  0  0  0
  -24.8909  -32.2940   26.4847 H   0  0  0  0  0  0
  -25.8028  -30.8974   27.0268 H   0  0  0  0  0  0
  -26.2939  -29.6741   24.1258 H   0  0  0  0  0  0
  -27.3964  -29.7247   25.4805 H   0  0  0  0  0  0
  -27.8849  -30.4240   23.9561 H   0  0  0  0  0  0
  -27.2679  -33.3646   26.2058 H   0  0  0  0  0  0
  -28.3898  -32.6844   25.0366 H   0  0  0  0  0  0
  -28.0694  -31.8467   26.5470 H   0  0  0  0  0  0
  -28.2575  -38.0111   24.7516 H   0  0  0  0  0  0
  -28.1091  -36.2633   24.6263 H   0  0  0  0  0  0
  -27.2301  -37.1415   25.8864 H   0  0  0  0  0  0
  -20.9413  -29.8811   21.6880 H   0  0  0  0  0  0
  -26.0160  -38.2837   24.1422 H   0  0  0  0  0  0
  -31.0379  -18.4247   16.9522 H   0  0  0  0  0  0
  -30.8296  -16.3703   18.1951 H   0  0  0  0  0  0
  -30.1023  -23.9862   21.9589 H   0  0  0  0  0  0
  -29.1405  -18.5987   21.5208 H   0  0  0  0  0  0
  -31.1970  -20.7461   16.8201 H   0  0  0  0  0  0
  -30.8642  -21.7898   18.1840 H   0  0  0  0  0  0
  -29.5443  -21.2544   17.1323 H   0  0  0  0  0  0
  -26.8961  -24.6433   20.4748 H   0  0  0  0  0  0
  -27.6554  -24.7379   18.8982 H   0  0  0  0  0  0
  -28.9924  -15.7616   21.1413 H   0  0  0  0  0  0
  -31.4696  -21.9507   22.5331 H   0  0  0  0  0  0
  -27.0021  -22.5556   18.6572 H   0  0  0  0  0  0
  1 25  1  0  0  0
  1 30  2  0  0  0
  1 84  1  0  0  0
  2  3  1  0  0  0
  2 25  1  0  0  0
  2 87  1  0  0  0
  2 88  1  0  0  0
  3  4  1  0  0  0
  3 89  1  0  0  0
  3 90  1  0  0  0
  4  5  1  0  0  0
  4 91  1  0  0  0
  4 92  1  0  0  0
  5  6  1  0  0  0
  5 26  1  0  0  0
  5 93  1  0  0  0
  6 25  1  0  0  0
  6 94  1  0  0  0
  6 95  1  0  0  0
  7  8  2  0  0  0
  7 26  1  0  0  0
  7 29  1  0  0  0
  8  9  1  0  0  0
  8 22  1  0  0  0
  9 10  1  0  0  0
  9 27  2  0  0  0
 10 11  2  0  0  0
 10 15  1  0  0  0
 11 12  1  0  0  0
 11 96  1  0  0  0
 12 13  2  0  0  0
 12 97  1  0  0  0
 13 14  1  0  0  0
 13 31  1  0  0  0
 14 15  2  0  0  0
 14 98  1  0  0  0
 15 99  1  0  0  0
 16 17  2  0  0  0
 16 21  1  0  0  0
 16 31  1  0  0  0
 17 18  1  0  0  0
 17100  1  0  0  0
 18 19  2  0  0  0
 18101  1  0  0  0
 19 20  1  0  0  0
 19 24  1  0  0  0
 20 21  2  0  0  0
 20102  1  0  0  0
 21 23  1  0  0  0
 22 28  1  0  0  0
 22 32  2  0  0  0
 26 27  1  0  0  0
 28103  1  0  0  0
 28104  1  0  0  0
 29105  1  0  0  0
 29106  1  0  0  0
 33 34  1  0  0  0
 33 66  1  0  0  0
 33 70  2  0  0  0
 34 36  1  0  0  0
 34 59  1  0  0  0
 34107  1  0  0  0
 35 44  2  0  0  0
 35 45  1  0  0  0
 35 68  1  0  0  0
 36 56  1  0  0  0
 36108  1  0  0  0
 37 39  1  0  0  0
 37 47  1  0  0  0
 37 66  1  0  0  0
 37109  1  0  0  0
 38 43  2  0  0  0
 38 46  1  0  0  0
 38 47  1  0  0  0
 39 64  1  0  0  0
 39 67  2  0  0  0
 40 52  1  0  0  0
 40 53  2  0  0  0
 40 58  1  0  0  0
 41110  1  0  0  0
 41111  1  0  0  0
 41112  1  0  0  0
 41 48  1  0  0  0
 42 43  1  0  0  0
 42 66  1  0  0  0
 42113  1  0  0  0
 42114  1  0  0  0
 43 44  1  0  0  0
 44115  1  0  0  0
 45 46  2  0  0  0
 45116  1  0  0  0
 46117  1  0  0  0
 47118  1  0  0  0
 47119  1  0  0  0
 48 56  1  0  0  0
 48 65  1  0  0  0
 48120  1  0  0  0
 49 50  1  0  0  0
 49 53  1  0  0  0
 49 64  1  0  0  0
 49121  1  0  0  0
 50 51  1  0  0  0
 50122  1  0  0  0
 50123  1  0  0  0
 51 52  1  0  0  0
 51124  1  0  0  0
 51125  1  0  0  0
 52126  1  0  0  0
 52127  1  0  0  0
 53 54  1  0  0  0
 54 55  2  0  0  0
 54128  1  0  0  0
 55 57  1  0  0  0
 55129  1  0  0  0
 56 69  2  0  0  0
 57 58  2  0  0  0
 57130  1  0  0  0
 58131  1  0  0  0
 59 60  1  0  0  0
 59 61  1  0  0  0
 59 62  1  0  0  0
 60132  1  0  0  0
 60133  1  0  0  0
 60134  1  0  0  0
 61135  1  0  0  0
 61136  1  0  0  0
 61137  1  0  0  0
 62138  1  0  0  0
 62139  1  0  0  0
 62140  1  0  0  0
 63 65  1  0  0  0
 63141  1  0  0  0
 63142  1  0  0  0
 63143  1  0  0  0
 64144  1  0  0  0
 65145  1  0  0  0
 68 82  1  0  0  0
 71 72  2  0  0  0
 71 75  1  0  0  0
 71146  1  0  0  0
 72 78  1  0  0  0
 72147  1  0  0  0
 73 76  1  0  0  0
 73 79  2  0  0  0
 73148  1  0  0  0
 74 77  1  0  0  0
 74 78  2  0  0  0
 74149  1  0  0  0
 75 77  2  0  0  0
 75 81  1  0  0  0
 76 80  2  0  0  0
 76 82  1  0  0  0
 77 83  1  0  0  0
 78 84  1  0  0  0
 79 83  1  0  0  0
 79 85  1  0  0  0
 80 83  1  0  0  0
 80 86  1  0  0  0
 81150  1  0  0  0
 81151  1  0  0  0
 81152  1  0  0  0
 82153  1  0  0  0
 82154  1  0  0  0
 84155  1  0  0  0
 85156  1  0  0  0
 86157  1  0  0  0
M  ISO  4   1 100  68 101  82 101  84 100
M  END
> <chiral flag>
0

> <version>
0

> <s_m_source_file>
/data/baiqing/PycharmProjects/Reinvent-master-3.2/result/LINK_invent/BTK/process_docking_weight1_custom_product_contain_oxygen_bond_distance_aromatic_linkinvent_7_9_3/rearranged_h_0064.sdf

> <i_m_source_file_index>
79

> <r_mmod_Potential_Energy-OPLS-2005>
269.605804443359

> <r_mmod_Stretch_Energy-OPLS-2005>
138.95344543457

> <r_mmod_Bend_Energy-OPLS-2005>
176.241088867188

> <r_mmod_Torsional_Energy-OPLS-2005>
257.243072509766

> <r_mmod_Improper_Torsional_Energy-OPLS-2005>
6.0416841506958

> <r_mmod_Van_der_Waal_Energy-OPLS-2005>
145.537872314453

> <r_mmod_Electrostatic_Energy-OPLS-2005>
-321.878295898438

> <r_mmod_Solvation_Energy-OPLS-2005>
-239.235748291016

> <b_mmod_Minimization_Converged-OPLS-2005>
0

> <r_mmod_RMS_Derivative-OPLS-2005>
2.35827112197876

$$$$
80
                    3D
 Structure written by MMmdl.
162171  0  0  1  0            999 V2000
  -30.5716  -15.0571   20.3301 C   0  0  0  0  0  0
  -30.4207  -12.6594   19.4853 C   0  0  0  0  0  0
  -29.5091  -12.5292   18.2458 C   0  0  0  0  0  0
  -28.0509  -12.3071   18.6786 C   0  0  0  0  0  0
  -27.6150  -13.2663   19.8174 C   0  0  2  0  0  0
  -28.6661  -13.3889   20.9400 C   0  0  0  0  0  0
  -25.2421  -13.8247   20.5734 C   0  0  0  0  0  0
  -24.1777  -13.0438   20.9255 C   0  0  0  0  0  0
  -24.6415  -11.6933   20.8759 C   0  0  0  0  0  0
  -23.9110  -10.4298   21.0393 C   0  0  0  0  0  0
  -24.3668   -9.4213   21.9166 C   0  0  0  0  0  0
  -23.6327   -8.2254   22.0748 C   0  0  0  0  0  0
  -22.4303   -8.0306   21.3548 C   0  0  0  0  0  0
  -21.9936   -9.0284   20.4647 C   0  0  0  0  0  0
  -22.7274  -10.2149   20.3047 C   0  0  0  0  0  0
  -21.6864   -6.0747   22.5282 C   0  0  0  0  0  0
  -21.4018   -6.5645   23.8218 C   0  0  0  0  0  0
  -21.3668   -5.6796   24.9178 C   0  0  0  0  0  0
  -21.6056   -4.3060   24.7226 C   0  0  0  0  0  0
  -21.8817   -3.8160   23.4346 C   0  0  0  0  0  0
  -21.9201   -4.6975   22.3402 C   0  0  0  0  0  0
  -22.7808  -13.5198   21.1907 C   0  0  0  0  0  0
  -22.1665   -4.2169   21.0963 F   0  0  0  0  0  0
  -21.5635   -3.4532   25.7729 F   0  0  0  0  0  0
  -29.9160  -13.8147   20.2957 N   0  0  0  0  0  0
  -26.2850  -12.9502   20.3236 N   0  0  0  0  0  0
  -25.9348  -11.6619   20.5750 N   0  0  0  0  0  0
  -22.0455  -12.8190   22.0454 N   0  0  0  0  0  0
  -25.4074  -15.1971   20.4116 N   0  0  0  0  0  0
  -31.8028  -14.9621   20.2580 O   0  0  0  0  0  0
  -21.6669   -6.8903   21.4245 O   0  0  0  0  0  0
  -22.3480  -14.5489   20.6727 O   0  0  0  0  0  0
  -24.6497  -31.8369   23.1854 C   0  0  0  0  0  0
  -25.9247  -32.4627   23.8249 C   0  0  1  0  0  0
  -27.1968  -27.0510   20.1529 C   0  0  0  0  0  0
  -25.5980  -33.8452   24.2140 N   0  0  0  0  0  0
  -23.4555  -30.4558   21.5303 C   0  0  2  0  0  0
  -24.9047  -28.8740   20.1068 C   0  0  0  0  0  0
  -22.7589  -29.4490   22.4813 C   0  0  0  0  0  0
  -18.0305  -28.1358   22.8456 C   0  0  0  0  0  0
  -24.1494  -36.7201   23.2641 C   0  0  0  0  0  0
  -26.0216  -30.6764   21.4060 C   0  0  0  0  0  0
  -26.0856  -29.2855   20.7366 C   0  0  0  0  0  0
  -27.2297  -28.3909   20.7455 C   0  0  0  0  0  0
  -25.9978  -26.7698   19.4658 C   0  0  0  0  0  0
  -24.8797  -27.6317   19.4558 C   0  0  0  0  0  0
  -23.6877  -29.7876   20.1503 C   0  0  0  0  0  0
  -25.4126  -36.2983   24.0310 C   0  0  1  0  0  0
  -20.5921  -28.3685   23.1206 C   0  0  2  0  0  0
  -20.6762  -26.9363   22.5416 C   0  0  0  0  0  0
  -19.5746  -26.6335   21.5209 C   0  0  0  0  0  0
  -18.1925  -26.7897   22.1608 C   0  0  0  0  0  0
  -19.1562  -28.8832   23.2826 C   0  0  0  0  0  0
  -18.9494  -30.1432   23.8843 C   0  0  0  0  0  0
  -17.6495  -30.6559   24.0519 C   0  0  0  0  0  0
  -25.9098  -34.9360   23.5022 C   0  0  0  0  0  0
  -16.5373  -29.9041   23.6341 C   0  0  0  0  0  0
  -16.7287  -28.6461   23.0361 C   0  0  0  0  0  0
  -26.4531  -31.6556   25.0748 C   0  0  0  0  0  0
  -25.3662  -31.3845   26.1407 C   0  0  0  0  0  0
  -27.0400  -30.2906   24.6487 C   0  0  0  0  0  0
  -27.6040  -32.4364   25.7521 C   0  0  0  0  0  0
  -27.5581  -37.1750   24.8448 C   0  0  0  0  0  0
  -21.4274  -29.3004   22.3565 N   0  0  0  0  0  0
  -26.4264  -37.3729   23.9428 N   0  0  0  0  0  0
  -24.7282  -31.0133   22.0919 N   0  0  0  0  0  0
  -23.4204  -28.8023   23.2971 O   0  0  0  0  0  0
  -28.2008  -25.9926   20.2466 O   0  0  0  0  0  0
  -26.5697  -34.8862   22.4613 O   0  0  0  0  0  0
  -23.5600  -32.1312   23.7004 O   0  0  0  0  0  0
  -32.4240  -18.3118   18.1612 C   0  0  0  0  0  0
  -31.5328  -17.4126   18.7592 C   0  0  0  0  0  0
  -31.2097  -20.0962   19.1744 C   0  0  0  0  0  0
  -32.2948  -19.6678   18.4125 C   0  0  0  0  0  0
  -30.1827  -19.2648   19.7170 C   0  0  0  0  0  0
  -30.4643  -17.7319   19.6622 C   0  0  0  0  0  0
  -28.4084  -22.1160   21.5634 C   0  0  0  0  0  0
  -28.8524  -20.6729   21.4445 C   0  0  0  0  0  0
  -27.7219  -22.6252   22.6603 C   0  0  0  0  0  0
  -28.7621  -21.6246   19.3806 C   0  0  0  0  0  0
  -28.7379  -22.9681   20.3074 C   0  0  1  0  0  0
  -33.2667  -20.6703   17.8160 C   0  0  0  0  0  0
  -27.3766  -21.7691   23.8788 C   0  0  0  0  0  0
  -27.9213  -24.4570   19.9195 C   0  0  0  0  0  0
  -29.1265  -20.3180   20.1604 N   0  0  0  0  0  0
  -29.9260  -16.3655   20.2293 N   0  0  0  0  0  0
  -27.2741  -23.7748   22.8673 O   0  5  0  0  0  0
  -28.9707  -19.8658   22.3666 O   0  0  0  0  0  0
  -31.4527  -12.7943   19.1592 H   0  0  0  0  0  0
  -30.4117  -11.7353   20.0672 H   0  0  0  0  0  0
  -29.8404  -11.7057   17.6109 H   0  0  0  0  0  0
  -29.5829  -13.4307   17.6346 H   0  0  0  0  0  0
  -27.9697  -11.2743   19.0169 H   0  0  0  0  0  0
  -27.3823  -12.4021   17.8219 H   0  0  0  0  0  0
  -27.5465  -14.2481   19.3478 H   0  0  0  0  0  0
  -28.7891  -12.4453   21.4753 H   0  0  0  0  0  0
  -28.3571  -14.1303   21.6771 H   0  0  0  0  0  0
  -25.2804   -9.5700   22.4761 H   0  0  0  0  0  0
  -24.0059   -7.4637   22.7433 H   0  0  0  0  0  0
  -21.0889   -8.8800   19.8929 H   0  0  0  0  0  0
  -22.3733  -10.9712   19.6191 H   0  0  0  0  0  0
  -21.1999   -7.6150   23.9729 H   0  0  0  0  0  0
  -21.1491   -6.0512   25.9077 H   0  0  0  0  0  0
  -22.0586   -2.7623   23.2826 H   0  0  0  0  0  0
  -22.4109  -11.9905   22.4927 H   0  0  0  0  0  0
  -21.1044  -13.1189   22.2567 H   0  0  0  0  0  0
  -24.6372  -15.8485   20.5156 H   0  0  0  0  0  0
  -26.2493  -15.6352   20.0596 H   0  0  0  0  0  0
  -26.7288  -32.5158   23.0948 H   0  0  0  0  0  0
  -25.0113  -33.9582   25.0273 H   0  0  0  0  0  0
  -22.7608  -31.2828   21.3720 H   0  0  0  0  0  0
  -23.3802  -35.9491   23.3264 H   0  0  0  0  0  0
  -24.3587  -36.8891   22.2069 H   0  0  0  0  0  0
  -23.7217  -37.6355   23.6723 H   0  0  0  0  0  0
  -26.2144  -31.4347   20.6454 H   0  0  0  0  0  0
  -26.8769  -30.7031   22.0694 H   0  0  0  0  0  0
  -28.1175  -28.6968   21.2789 H   0  0  0  0  0  0
  -25.8849  -25.8254   18.9517 H   0  0  0  0  0  0
  -23.9831  -27.3087   18.9453 H   0  0  0  0  0  0
  -23.8334  -30.5641   19.3998 H   0  0  0  0  0  0
  -22.8006  -29.2402   19.8291 H   0  0  0  0  0  0
  -25.1332  -36.1783   25.0812 H   0  0  0  0  0  0
  -21.0025  -28.3274   24.1323 H   0  0  0  0  0  0
  -20.5594  -26.2298   23.3657 H   0  0  0  0  0  0
  -21.6630  -26.7288   22.1241 H   0  0  0  0  0  0
  -19.6901  -25.6253   21.1234 H   0  0  0  0  0  0
  -19.6700  -27.3131   20.6737 H   0  0  0  0  0  0
  -17.4207  -26.6656   21.3998 H   0  0  0  0  0  0
  -18.0275  -26.0028   22.8989 H   0  0  0  0  0  0
  -19.7973  -30.7240   24.2188 H   0  0  0  0  0  0
  -17.5046  -31.6238   24.5121 H   0  0  0  0  0  0
  -15.5368  -30.2919   23.7695 H   0  0  0  0  0  0
  -15.8688  -28.0746   22.7136 H   0  0  0  0  0  0
  -24.5907  -30.7088   25.7790 H   0  0  0  0  0  0
  -24.8752  -32.3038   26.4593 H   0  0  0  0  0  0
  -25.7896  -30.9243   27.0334 H   0  0  0  0  0  0
  -26.3063  -29.6602   24.1444 H   0  0  0  0  0  0
  -27.3854  -29.7269   25.5165 H   0  0  0  0  0  0
  -27.9038  -30.4075   23.9943 H   0  0  0  0  0  0
  -27.2642  -33.3757   26.1891 H   0  0  0  0  0  0
  -28.3929  -32.6773   25.0387 H   0  0  0  0  0  0
  -28.0574  -31.8613   26.5598 H   0  0  0  0  0  0
  -28.2530  -38.0106   24.7560 H   0  0  0  0  0  0
  -28.1143  -36.2647   24.6182 H   0  0  0  0  0  0
  -27.2304  -37.1258   25.8841 H   0  0  0  0  0  0
  -20.9491  -29.8790   21.6807 H   0  0  0  0  0  0
  -26.0116  -38.2780   24.1498 H   0  0  0  0  0  0
  -33.2184  -17.9484   17.5220 H   0  0  0  0  0  0
  -31.7393  -16.4012   18.4589 H   0  0  0  0  0  0
  -31.1833  -21.1655   19.3259 H   0  0  0  0  0  0
  -29.3546  -21.7782   18.4785 H   0  0  0  0  0  0
  -27.7547  -21.4575   18.9939 H   0  0  0  0  0  0
  -29.7841  -23.2521   20.4160 H   0  0  0  0  0  0
  -33.6846  -20.3020   16.8780 H   0  0  0  0  0  0
  -34.0917  -20.8707   18.5000 H   0  0  0  0  0  0
  -32.7700  -21.6183   17.6025 H   0  0  0  0  0  0
  -26.9334  -22.3417   24.6969 H   0  0  0  0  0  0
  -28.2625  -21.2907   24.2951 H   0  0  0  0  0  0
  -26.6656  -20.9837   23.6217 H   0  0  0  0  0  0
  -26.8712  -24.2733   20.1479 H   0  0  0  0  0  0
  -27.9480  -24.4749   18.8295 H   0  0  0  0  0  0
  -28.9404  -16.3542   20.4454 H   0  0  0  0  0  0
  1 25  1  0  0  0
  1 30  2  0  0  0
  1 86  1  0  0  0
  2  3  1  0  0  0
  2 25  1  0  0  0
  2 89  1  0  0  0
  2 90  1  0  0  0
  3  4  1  0  0  0
  3 91  1  0  0  0
  3 92  1  0  0  0
  4  5  1  0  0  0
  4 93  1  0  0  0
  4 94  1  0  0  0
  5  6  1  0  0  0
  5 26  1  0  0  0
  5 95  1  0  0  0
  6 25  1  0  0  0
  6 96  1  0  0  0
  6 97  1  0  0  0
  7  8  2  0  0  0
  7 26  1  0  0  0
  7 29  1  0  0  0
  8  9  1  0  0  0
  8 22  1  0  0  0
  9 10  1  0  0  0
  9 27  2  0  0  0
 10 11  2  0  0  0
 10 15  1  0  0  0
 11 12  1  0  0  0
 11 98  1  0  0  0
 12 13  2  0  0  0
 12 99  1  0  0  0
 13 14  1  0  0  0
 13 31  1  0  0  0
 14 15  2  0  0  0
 14100  1  0  0  0
 15101  1  0  0  0
 16 17  2  0  0  0
 16 21  1  0  0  0
 16 31  1  0  0  0
 17 18  1  0  0  0
 17102  1  0  0  0
 18 19  2  0  0  0
 18103  1  0  0  0
 19 20  1  0  0  0
 19 24  1  0  0  0
 20 21  2  0  0  0
 20104  1  0  0  0
 21 23  1  0  0  0
 22 28  1  0  0  0
 22 32  2  0  0  0
 26 27  1  0  0  0
 28105  1  0  0  0
 28106  1  0  0  0
 29107  1  0  0  0
 29108  1  0  0  0
 33 34  1  0  0  0
 33 66  1  0  0  0
 33 70  2  0  0  0
 34 36  1  0  0  0
 34 59  1  0  0  0
 34109  1  0  0  0
 35 44  2  0  0  0
 35 45  1  0  0  0
 35 68  1  0  0  0
 36 56  1  0  0  0
 36110  1  0  0  0
 37 39  1  0  0  0
 37 47  1  0  0  0
 37 66  1  0  0  0
 37111  1  0  0  0
 38 43  2  0  0  0
 38 46  1  0  0  0
 38 47  1  0  0  0
 39 64  1  0  0  0
 39 67  2  0  0  0
 40 52  1  0  0  0
 40 53  2  0  0  0
 40 58  1  0  0  0
 41112  1  0  0  0
 41113  1  0  0  0
 41114  1  0  0  0
 41 48  1  0  0  0
 42 43  1  0  0  0
 42 66  1  0  0  0
 42115  1  0  0  0
 42116  1  0  0  0
 43 44  1  0  0  0
 44117  1  0  0  0
 45 46  2  0  0  0
 45118  1  0  0  0
 46119  1  0  0  0
 47120  1  0  0  0
 47121  1  0  0  0
 48 56  1  0  0  0
 48 65  1  0  0  0
 48122  1  0  0  0
 49 50  1  0  0  0
 49 53  1  0  0  0
 49 64  1  0  0  0
 49123  1  0  0  0
 50 51  1  0  0  0
 50124  1  0  0  0
 50125  1  0  0  0
 51 52  1  0  0  0
 51126  1  0  0  0
 51127  1  0  0  0
 52128  1  0  0  0
 52129  1  0  0  0
 53 54  1  0  0  0
 54 55  2  0  0  0
 54130  1  0  0  0
 55 57  1  0  0  0
 55131  1  0  0  0
 56 69  2  0  0  0
 57 58  2  0  0  0
 57132  1  0  0  0
 58133  1  0  0  0
 59 60  1  0  0  0
 59 61  1  0  0  0
 59 62  1  0  0  0
 60134  1  0  0  0
 60135  1  0  0  0
 60136  1  0  0  0
 61137  1  0  0  0
 61138  1  0  0  0
 61139  1  0  0  0
 62140  1  0  0  0
 62141  1  0  0  0
 62142  1  0  0  0
 63 65  1  0  0  0
 63143  1  0  0  0
 63144  1  0  0  0
 63145  1  0  0  0
 64146  1  0  0  0
 65147  1  0  0  0
 68 84  1  0  0  0
 71 72  2  0  0  0
 71 74  1  0  0  0
 71148  1  0  0  0
 72 76  1  0  0  0
 72149  1  0  0  0
 73 74  2  0  0  0
 73 75  1  0  0  0
 73150  1  0  0  0
 74 82  1  0  0  0
 75 76  2  0  0  0
 75 85  1  0  0  0
 76 86  1  0  0  0
 77 78  1  0  0  0
 77 79  2  0  0  0
 77 81  1  0  0  0
 78 85  1  0  0  0
 78 88  2  0  0  0
 79 83  1  0  0  0
 79 87  1  0  0  0
 80 81  1  0  0  0
 80 85  1  0  0  0
 80151  1  0  0  0
 80152  1  0  0  0
 81 84  1  0  0  0
 81153  1  0  0  0
 82154  1  0  0  0
 82155  1  0  0  0
 82156  1  0  0  0
 83157  1  0  0  0
 83158  1  0  0  0
 83159  1  0  0  0
 84160  1  0  0  0
 84161  1  0  0  0
 86162  1  0  0  0
M  CHG  1  87  -1
M  ISO  4   1 100  68 101  84 101  86 100
M  END
> <chiral flag>
0

> <version>
0

> <s_m_source_file>
/data/baiqing/PycharmProjects/Reinvent-master-3.2/result/LINK_invent/BTK/process_docking_weight1_custom_product_contain_oxygen_bond_distance_aromatic_linkinvent_7_9_3/rearranged_h_0064.sdf

> <i_m_source_file_index>
80

> <r_mmod_Potential_Energy-OPLS-2005>
735.78369140625

> <r_mmod_Stretch_Energy-OPLS-2005>
384.083801269531

> <r_mmod_Bend_Energy-OPLS-2005>
473.437774658203

> <r_mmod_Torsional_Energy-OPLS-2005>
319.726013183594

> <r_mmod_Improper_Torsional_Energy-OPLS-2005>
6.94977235794067

> <r_mmod_Van_der_Waal_Energy-OPLS-2005>
164.563369750977

> <r_mmod_Electrostatic_Energy-OPLS-2005>
-414.761627197266

> <r_mmod_Solvation_Energy-OPLS-2005>
-484.659088134766

> <b_mmod_Minimization_Converged-OPLS-2005>
0

> <r_mmod_RMS_Derivative-OPLS-2005>
4.28346872329712

$$$$
81
                    3D
 Structure written by MMmdl.
159168  0  0  1  0            999 V2000
  -30.6094  -14.7392   20.4474 C   0  0  0  0  0  0
  -30.4312  -12.4518   19.4575 C   0  0  0  0  0  0
  -29.5043  -12.5040   18.2238 C   0  0  0  0  0  0
  -28.0301  -12.3319   18.6410 C   0  0  0  0  0  0
  -27.6379  -13.2296   19.8454 C   0  0  2  0  0  0
  -28.6882  -13.1668   20.9752 C   0  0  0  0  0  0
  -25.2500  -13.8187   20.5707 C   0  0  0  0  0  0
  -24.1791  -13.0433   20.9205 C   0  0  0  0  0  0
  -24.6382  -11.6912   20.8741 C   0  0  0  0  0  0
  -23.9062  -10.4289   21.0406 C   0  0  0  0  0  0
  -24.3613   -9.4209   21.9184 C   0  0  0  0  0  0
  -23.6294   -8.2238   22.0748 C   0  0  0  0  0  0
  -22.4273   -8.0274   21.3543 C   0  0  0  0  0  0
  -21.9913   -9.0241   20.4641 C   0  0  0  0  0  0
  -22.7233  -10.2126   20.3056 C   0  0  0  0  0  0
  -21.6852   -6.0727   22.5276 C   0  0  0  0  0  0
  -21.4014   -6.5636   23.8205 C   0  0  0  0  0  0
  -21.3664   -5.6794   24.9170 C   0  0  0  0  0  0
  -21.6049   -4.3053   24.7230 C   0  0  0  0  0  0
  -21.8820   -3.8141   23.4352 C   0  0  0  0  0  0
  -21.9195   -4.6955   22.3406 C   0  0  0  0  0  0
  -22.7817  -13.5216   21.1876 C   0  0  0  0  0  0
  -22.1661   -4.2146   21.0983 F   0  0  0  0  0  0
  -21.5633   -3.4537   25.7741 F   0  0  0  0  0  0
  -29.9831  -13.5164   20.3801 N   0  0  0  0  0  0
  -26.2920  -12.9390   20.3274 N   0  0  0  0  0  0
  -25.9313  -11.6532   20.5746 N   0  0  0  0  0  0
  -22.0472  -12.8193   22.0429 N   0  0  0  0  0  0
  -25.4170  -15.1913   20.4129 N   0  0  0  0  0  0
  -31.8147  -14.8220   20.1902 O   0  0  0  0  0  0
  -21.6645   -6.8870   21.4237 O   0  0  0  0  0  0
  -22.3505  -14.5525   20.6728 O   0  0  0  0  0  0
  -24.6310  -31.8548   23.1982 C   0  0  0  0  0  0
  -25.9143  -32.4746   23.8334 C   0  0  1  0  0  0
  -27.2244  -27.2762   20.1398 C   0  0  0  0  0  0
  -25.5945  -33.8547   24.2260 N   0  0  0  0  0  0
  -23.4261  -30.4757   21.5407 C   0  0  2  0  0  0
  -24.8730  -28.9116   20.1207 C   0  0  0  0  0  0
  -22.7485  -29.4614   22.4929 C   0  0  0  0  0  0
  -18.0281  -28.1405   22.8486 C   0  0  0  0  0  0
  -24.1485  -36.7272   23.2643 C   0  0  0  0  0  0
  -25.9682  -30.7743   21.3705 C   0  0  0  0  0  0
  -26.0427  -29.3936   20.7215 C   0  0  0  0  0  0
  -27.2246  -28.5902   20.7119 C   0  0  0  0  0  0
  -26.0324  -26.8412   19.5305 C   0  0  0  0  0  0
  -24.8707  -27.6429   19.5154 C   0  0  0  0  0  0
  -23.6436  -29.7999   20.1604 C   0  0  0  0  0  0
  -25.4111  -36.3054   24.0329 C   0  0  1  0  0  0
  -20.5882  -28.3709   23.1268 C   0  0  2  0  0  0
  -20.6776  -26.9427   22.5407 C   0  0  0  0  0  0
  -19.5751  -26.6396   21.5215 C   0  0  0  0  0  0
  -18.1925  -26.7950   22.1617 C   0  0  0  0  0  0
  -19.1534  -28.8872   23.2874 C   0  0  0  0  0  0
  -18.9460  -30.1472   23.8896 C   0  0  0  0  0  0
  -17.6457  -30.6602   24.0561 C   0  0  0  0  0  0
  -25.9057  -34.9426   23.5093 C   0  0  0  0  0  0
  -16.5348  -29.9092   23.6342 C   0  0  0  0  0  0
  -16.7265  -28.6513   23.0359 C   0  0  0  0  0  0
  -26.4524  -31.6574   25.0717 C   0  0  0  0  0  0
  -25.3753  -31.3702   26.1437 C   0  0  0  0  0  0
  -27.0390  -30.2992   24.6212 C   0  0  0  0  0  0
  -27.6074  -32.4327   25.7483 C   0  0  0  0  0  0
  -27.5570  -37.1783   24.8464 C   0  0  0  0  0  0
  -21.4195  -29.3055   22.3658 N   0  0  0  0  0  0
  -26.4275  -37.3759   23.9421 N   0  0  0  0  0  0
  -24.6944  -31.0532   22.0940 N   0  0  0  0  0  0
  -23.4180  -28.8167   23.3043 O   0  0  0  0  0  0
  -28.3520  -26.4403   20.0810 O   0  0  0  0  0  0
  -26.5613  -34.8904   22.4652 O   0  0  0  0  0  0
  -23.5466  -32.1354   23.7297 O   0  0  0  0  0  0
  -30.8942  -20.0335   21.2999 C   0  0  0  0  0  0
  -31.3062  -17.6163   21.4849 C   0  0  0  0  0  0
  -29.3895  -18.4486   20.2362 C   0  0  0  0  0  0
  -31.6637  -18.9491   21.7738 C   0  0  0  0  0  0
  -29.7452  -19.8442   20.4982 C   0  0  0  0  0  0
  -30.1629  -17.3065   20.7157 C   0  0  0  0  0  0
  -28.8693  -21.1712   18.6071 C   0  0  0  0  0  0
  -28.5004  -22.5397   17.9674 C   0  0  0  0  0  0
  -28.9859  -22.3848   20.7307 C   0  0  0  0  0  0
  -28.2940  -23.6643   20.0317 C   0  0  1  0  0  0
  -32.9146  -19.2163   22.5888 C   0  0  0  0  0  0
  -28.3793  -25.1102   20.7634 C   0  0  0  0  0  0
  -29.0874  -21.0751   19.9475 N   0  0  0  0  0  0
  -29.8122  -15.8759   20.5203 N   0  0  0  0  0  0
  -28.9348  -20.1970   17.8483 O   0  0  0  0  0  0
  -28.8872  -23.6839   18.7465 O   0  0  0  0  0  0
  -31.4715  -12.5819   19.1523 H   0  0  0  0  0  0
  -30.3780  -11.4763   19.9434 H   0  0  0  0  0  0
  -29.7837  -11.7308   17.5071 H   0  0  0  0  0  0
  -29.6313  -13.4566   17.7066 H   0  0  0  0  0  0
  -27.8827  -11.2827   18.8991 H   0  0  0  0  0  0
  -27.3727  -12.5321   17.7940 H   0  0  0  0  0  0
  -27.6269  -14.2506   19.4641 H   0  0  0  0  0  0
  -28.7269  -12.1712   21.4187 H   0  0  0  0  0  0
  -28.4320  -13.8548   21.7832 H   0  0  0  0  0  0
  -25.2755   -9.5694   22.4763 H   0  0  0  0  0  0
  -24.0007   -7.4638   22.7467 H   0  0  0  0  0  0
  -21.0841   -8.8745   19.8950 H   0  0  0  0  0  0
  -22.3673  -10.9659   19.6165 H   0  0  0  0  0  0
  -21.1995   -7.6143   23.9709 H   0  0  0  0  0  0
  -21.1489   -6.0523   25.9075 H   0  0  0  0  0  0
  -22.0598   -2.7605   23.2852 H   0  0  0  0  0  0
  -22.4086  -11.9852   22.4812 H   0  0  0  0  0  0
  -21.1089  -13.1208   22.2639 H   0  0  0  0  0  0
  -24.6456  -15.8404   20.5262 H   0  0  0  0  0  0
  -26.2577  -15.6381   20.0728 H   0  0  0  0  0  0
  -26.7203  -32.5402   23.1078 H   0  0  0  0  0  0
  -25.0130  -33.9692   25.0430 H   0  0  0  0  0  0
  -22.7238  -31.2978   21.3902 H   0  0  0  0  0  0
  -23.3748  -35.9599   23.3289 H   0  0  0  0  0  0
  -24.3572  -36.8917   22.2061 H   0  0  0  0  0  0
  -23.7236  -37.6465   23.6679 H   0  0  0  0  0  0
  -26.0996  -31.5331   20.5971 H   0  0  0  0  0  0
  -26.8492  -30.8291   21.9988 H   0  0  0  0  0  0
  -28.1312  -28.9652   21.1640 H   0  0  0  0  0  0
  -25.9998  -25.8675   19.0611 H   0  0  0  0  0  0
  -23.9721  -27.2679   19.0447 H   0  0  0  0  0  0
  -23.7661  -30.5703   19.3985 H   0  0  0  0  0  0
  -22.7624  -29.2302   19.8596 H   0  0  0  0  0  0
  -25.1295  -36.1891   25.0819 H   0  0  0  0  0  0
  -20.9976  -28.3298   24.1388 H   0  0  0  0  0  0
  -20.5693  -26.2325   23.3622 H   0  0  0  0  0  0
  -21.6645  -26.7467   22.1188 H   0  0  0  0  0  0
  -19.6917  -25.6307   21.1254 H   0  0  0  0  0  0
  -19.6694  -27.3200   20.6744 H   0  0  0  0  0  0
  -17.4205  -26.6710   21.4009 H   0  0  0  0  0  0
  -18.0301  -26.0089   22.9007 H   0  0  0  0  0  0
  -19.7930  -30.7293   24.2265 H   0  0  0  0  0  0
  -17.5004  -31.6285   24.5164 H   0  0  0  0  0  0
  -15.5347  -30.2991   23.7682 H   0  0  0  0  0  0
  -15.8662  -28.0831   22.7087 H   0  0  0  0  0  0
  -24.5968  -30.7007   25.7764 H   0  0  0  0  0  0
  -24.8907  -32.2860   26.4834 H   0  0  0  0  0  0
  -25.8092  -30.8913   27.0228 H   0  0  0  0  0  0
  -26.2981  -29.6699   24.1269 H   0  0  0  0  0  0
  -27.4108  -29.7294   25.4744 H   0  0  0  0  0  0
  -27.8836  -30.4265   23.9433 H   0  0  0  0  0  0
  -27.2690  -33.3651   26.2010 H   0  0  0  0  0  0
  -28.3904  -32.6852   25.0320 H   0  0  0  0  0  0
  -28.0720  -31.8490   26.5441 H   0  0  0  0  0  0
  -28.2568  -38.0095   24.7520 H   0  0  0  0  0  0
  -28.1086  -36.2628   24.6275 H   0  0  0  0  0  0
  -27.2286  -37.1404   25.8864 H   0  0  0  0  0  0
  -20.9392  -29.8736   21.6816 H   0  0  0  0  0  0
  -26.0150  -38.2826   24.1439 H   0  0  0  0  0  0
  -31.2425  -21.0306   21.5232 H   0  0  0  0  0  0
  -31.9243  -16.8220   21.8799 H   0  0  0  0  0  0
  -28.5135  -18.2520   19.6338 H   0  0  0  0  0  0
  -27.4272  -22.5669   17.7701 H   0  0  0  0  0  0
  -28.9934  -22.6156   16.9975 H   0  0  0  0  0  0
  -28.4809  -22.1793   21.6747 H   0  0  0  0  0  0
  -29.9969  -22.6912   20.9924 H   0  0  0  0  0  0
  -27.2287  -23.4612   19.9019 H   0  0  0  0  0  0
  -32.9155  -20.2239   23.0068 H   0  0  0  0  0  0
  -33.8021  -19.1058   21.9645 H   0  0  0  0  0  0
  -32.9943  -18.5119   23.4170 H   0  0  0  0  0  0
  -29.3342  -25.1192   21.2877 H   0  0  0  0  0  0
  -27.6385  -25.1244   21.5644 H   0  0  0  0  0  0
  -28.8245  -15.6823   20.4621 H   0  0  0  0  0  0
  1 25  1  0  0  0
  1 30  2  0  0  0
  1 84  1  0  0  0
  2  3  1  0  0  0
  2 25  1  0  0  0
  2 87  1  0  0  0
  2 88  1  0  0  0
  3  4  1  0  0  0
  3 89  1  0  0  0
  3 90  1  0  0  0
  4  5  1  0  0  0
  4 91  1  0  0  0
  4 92  1  0  0  0
  5  6  1  0  0  0
  5 26  1  0  0  0
  5 93  1  0  0  0
  6 25  1  0  0  0
  6 94  1  0  0  0
  6 95  1  0  0  0
  7  8  2  0  0  0
  7 26  1  0  0  0
  7 29  1  0  0  0
  8  9  1  0  0  0
  8 22  1  0  0  0
  9 10  1  0  0  0
  9 27  2  0  0  0
 10 11  2  0  0  0
 10 15  1  0  0  0
 11 12  1  0  0  0
 11 96  1  0  0  0
 12 13  2  0  0  0
 12 97  1  0  0  0
 13 14  1  0  0  0
 13 31  1  0  0  0
 14 15  2  0  0  0
 14 98  1  0  0  0
 15 99  1  0  0  0
 16 17  2  0  0  0
 16 21  1  0  0  0
 16 31  1  0  0  0
 17 18  1  0  0  0
 17100  1  0  0  0
 18 19  2  0  0  0
 18101  1  0  0  0
 19 20  1  0  0  0
 19 24  1  0  0  0
 20 21  2  0  0  0
 20102  1  0  0  0
 21 23  1  0  0  0
 22 28  1  0  0  0
 22 32  2  0  0  0
 26 27  1  0  0  0
 28103  1  0  0  0
 28104  1  0  0  0
 29105  1  0  0  0
 29106  1  0  0  0
 33 34  1  0  0  0
 33 66  1  0  0  0
 33 70  2  0  0  0
 34 36  1  0  0  0
 34 59  1  0  0  0
 34107  1  0  0  0
 35 44  2  0  0  0
 35 45  1  0  0  0
 35 68  1  0  0  0
 36 56  1  0  0  0
 36108  1  0  0  0
 37 39  1  0  0  0
 37 47  1  0  0  0
 37 66  1  0  0  0
 37109  1  0  0  0
 38 43  2  0  0  0
 38 46  1  0  0  0
 38 47  1  0  0  0
 39 64  1  0  0  0
 39 67  2  0  0  0
 40 52  1  0  0  0
 40 53  2  0  0  0
 40 58  1  0  0  0
 41110  1  0  0  0
 41111  1  0  0  0
 41112  1  0  0  0
 41 48  1  0  0  0
 42 43  1  0  0  0
 42 66  1  0  0  0
 42113  1  0  0  0
 42114  1  0  0  0
 43 44  1  0  0  0
 44115  1  0  0  0
 45 46  2  0  0  0
 45116  1  0  0  0
 46117  1  0  0  0
 47118  1  0  0  0
 47119  1  0  0  0
 48 56  1  0  0  0
 48 65  1  0  0  0
 48120  1  0  0  0
 49 50  1  0  0  0
 49 53  1  0  0  0
 49 64  1  0  0  0
 49121  1  0  0  0
 50 51  1  0  0  0
 50122  1  0  0  0
 50123  1  0  0  0
 51 52  1  0  0  0
 51124  1  0  0  0
 51125  1  0  0  0
 52126  1  0  0  0
 52127  1  0  0  0
 53 54  1  0  0  0
 54 55  2  0  0  0
 54128  1  0  0  0
 55 57  1  0  0  0
 55129  1  0  0  0
 56 69  2  0  0  0
 57 58  2  0  0  0
 57130  1  0  0  0
 58131  1  0  0  0
 59 60  1  0  0  0
 59 61  1  0  0  0
 59 62  1  0  0  0
 60132  1  0  0  0
 60133  1  0  0  0
 60134  1  0  0  0
 61135  1  0  0  0
 61136  1  0  0  0
 61137  1  0  0  0
 62138  1  0  0  0
 62139  1  0  0  0
 62140  1  0  0  0
 63 65  1  0  0  0
 63141  1  0  0  0
 63142  1  0  0  0
 63143  1  0  0  0
 64144  1  0  0  0
 65145  1  0  0  0
 68 82  1  0  0  0
 71 74  2  0  0  0
 71 75  1  0  0  0
 71146  1  0  0  0
 72 74  1  0  0  0
 72 76  2  0  0  0
 72147  1  0  0  0
 73 75  2  0  0  0
 73 76  1  0  0  0
 73148  1  0  0  0
 74 81  1  0  0  0
 75 83  1  0  0  0
 76 84  1  0  0  0
 77 78  1  0  0  0
 77 83  1  0  0  0
 77 85  2  0  0  0
 78 86  1  0  0  0
 78149  1  0  0  0
 78150  1  0  0  0
 79 80  1  0  0  0
 79 83  1  0  0  0
 79151  1  0  0  0
 79152  1  0  0  0
 80 82  1  0  0  0
 80 86  1  0  0  0
 80153  1  0  0  0
 81154  1  0  0  0
 81155  1  0  0  0
 81156  1  0  0  0
 82157  1  0  0  0
 82158  1  0  0  0
 84159  1  0  0  0
M  ISO  4   1 100  68 101  82 101  84 100
M  END
> <chiral flag>
0

> <version>
0

> <s_m_source_file>
/data/baiqing/PycharmProjects/Reinvent-master-3.2/result/LINK_invent/BTK/process_docking_weight1_custom_product_contain_oxygen_bond_distance_aromatic_linkinvent_7_9_3/rearranged_h_0064.sdf

> <i_m_source_file_index>
81

> <r_mmod_Potential_Energy-OPLS-2005>
301.347747802734

> <r_mmod_Stretch_Energy-OPLS-2005>
126.907333374023

> <r_mmod_Bend_Energy-OPLS-2005>
169.329574584961

> <r_mmod_Torsional_Energy-OPLS-2005>
296.923706054688

> <r_mmod_Improper_Torsional_Energy-OPLS-2005>
7.78491115570068

> <r_mmod_Van_der_Waal_Energy-OPLS-2005>
148.14794921875

> <r_mmod_Electrostatic_Energy-OPLS-2005>
-292.944946289062

> <r_mmod_Solvation_Energy-OPLS-2005>
-231.523376464844

> <b_mmod_Minimization_Converged-OPLS-2005>
0

> <r_mmod_RMS_Derivative-OPLS-2005>
1.6585818529129

$$$$
82
                    3D
 Structure written by MMmdl.
164173  0  0  1  0            999 V2000
  -30.6456  -14.7343   20.4403 C   0  0  0  0  0  0
  -30.4238  -12.4477   19.4819 C   0  0  0  0  0  0
  -29.5054  -12.4995   18.2416 C   0  0  0  0  0  0
  -28.0327  -12.3290   18.6568 C   0  0  0  0  0  0
  -27.6391  -13.2360   19.8523 C   0  0  2  0  0  0
  -28.6847  -13.1911   20.9873 C   0  0  0  0  0  0
  -25.2498  -13.8205   20.5692 C   0  0  0  0  0  0
  -24.1791  -13.0444   20.9196 C   0  0  0  0  0  0
  -24.6386  -11.6936   20.8763 C   0  0  0  0  0  0
  -23.9068  -10.4297   21.0410 C   0  0  0  0  0  0
  -24.3619   -9.4209   21.9187 C   0  0  0  0  0  0
  -23.6290   -8.2249   22.0763 C   0  0  0  0  0  0
  -22.4276   -8.0271   21.3543 C   0  0  0  0  0  0
  -21.9920   -9.0251   20.4647 C   0  0  0  0  0  0
  -22.7251  -10.2132   20.3051 C   0  0  0  0  0  0
  -21.6858   -6.0720   22.5271 C   0  0  0  0  0  0
  -21.4025   -6.5635   23.8195 C   0  0  0  0  0  0
  -21.3661   -5.6792   24.9163 C   0  0  0  0  0  0
  -21.6040   -4.3049   24.7232 C   0  0  0  0  0  0
  -21.8818   -3.8138   23.4350 C   0  0  0  0  0  0
  -21.9196   -4.6948   22.3399 C   0  0  0  0  0  0
  -22.7803  -13.5220   21.1847 C   0  0  0  0  0  0
  -22.1654   -4.2127   21.0977 F   0  0  0  0  0  0
  -21.5636   -3.4537   25.7749 F   0  0  0  0  0  0
  -29.9858  -13.5256   20.3991 N   0  0  0  0  0  0
  -26.2928  -12.9428   20.3316 N   0  0  0  0  0  0
  -25.9319  -11.6563   20.5797 N   0  0  0  0  0  0
  -22.0462  -12.8201   22.0405 N   0  0  0  0  0  0
  -25.4207  -15.1931   20.4089 N   0  0  0  0  0  0
  -31.8485  -14.7523   20.1798 O   0  0  0  0  0  0
  -21.6639   -6.8869   21.4232 O   0  0  0  0  0  0
  -22.3483  -14.5522   20.6696 O   0  0  0  0  0  0
  -24.6382  -31.8500   23.1942 C   0  0  0  0  0  0
  -25.9183  -32.4725   23.8329 C   0  0  1  0  0  0
  -27.2104  -27.2244   20.1261 C   0  0  0  0  0  0
  -25.5960  -33.8544   24.2234 N   0  0  0  0  0  0
  -23.4377  -30.4683   21.5398 C   0  0  2  0  0  0
  -24.8769  -28.9075   20.1087 C   0  0  0  0  0  0
  -22.7593  -29.4546   22.4932 C   0  0  0  0  0  0
  -18.0289  -28.1437   22.8435 C   0  0  0  0  0  0
  -24.1496  -36.7261   23.2637 C   0  0  0  0  0  0
  -25.9901  -30.7461   21.3829 C   0  0  0  0  0  0
  -26.0527  -29.3714   20.7117 C   0  0  0  0  0  0
  -27.2216  -28.5432   20.6986 C   0  0  0  0  0  0
  -26.0022  -26.8175   19.5205 C   0  0  0  0  0  0
  -24.8580  -27.6406   19.5017 C   0  0  0  0  0  0
  -23.6553  -29.8031   20.1560 C   0  0  0  0  0  0
  -25.4134  -36.3069   24.0324 C   0  0  1  0  0  0
  -20.5896  -28.3711   23.1268 C   0  0  2  0  0  0
  -20.6779  -26.9431   22.5401 C   0  0  0  0  0  0
  -19.5750  -26.6389   21.5218 C   0  0  0  0  0  0
  -18.1911  -26.7959   22.1605 C   0  0  0  0  0  0
  -19.1551  -28.8895   23.2814 C   0  0  0  0  0  0
  -18.9455  -30.1477   23.8846 C   0  0  0  0  0  0
  -17.6457  -30.6599   24.0556 C   0  0  0  0  0  0
  -25.9094  -34.9435   23.5098 C   0  0  0  0  0  0
  -16.5349  -29.9088   23.6364 C   0  0  0  0  0  0
  -16.7275  -28.6536   23.0347 C   0  0  0  0  0  0
  -26.4541  -31.6612   25.0782 C   0  0  0  0  0  0
  -25.3743  -31.3714   26.1483 C   0  0  0  0  0  0
  -27.0425  -30.3028   24.6337 C   0  0  0  0  0  0
  -27.6099  -32.4418   25.7528 C   0  0  0  0  0  0
  -27.5594  -37.1750   24.8470 C   0  0  0  0  0  0
  -21.4298  -29.3012   22.3686 N   0  0  0  0  0  0
  -26.4299  -37.3768   23.9443 N   0  0  0  0  0  0
  -24.7077  -31.0441   22.0919 N   0  0  0  0  0  0
  -23.4285  -28.8087   23.3040 O   0  0  0  0  0  0
  -28.3223  -26.3508   20.2233 O   0  0  0  0  0  0
  -26.5671  -34.8899   22.4667 O   0  0  0  0  0  0
  -23.5523  -32.1365   23.7192 O   0  0  0  0  0  0
  -29.5453  -18.5379   20.5442 C   0  0  0  0  0  0
  -31.3713  -17.5298   19.3168 C   0  0  0  0  0  0
  -31.1137  -19.9833   19.3191 C   0  0  0  0  0  0
  -29.9298  -19.8875   20.1173 C   0  0  0  0  0  0
  -30.2672  -17.3194   20.1747 C   0  0  0  0  0  0
  -31.7936  -18.8079   18.9204 C   0  0  0  0  0  0
  -29.4934  -21.7965   21.6689 C   0  0  0  0  0  0
  -31.7458  -21.2805   18.9449 C   0  0  0  0  0  0
  -29.1493  -23.3035   21.6289 C   0  0  0  0  0  0
  -28.6444  -22.1974   19.5923 C   0  0  0  0  0  0
  -28.2504  -23.5342   20.3941 C   0  0  1  0  0  0
  -32.6093  -21.9387   20.0000 C   0  0  0  0  0  0
  -26.7672  -23.3872   20.7861 C   0  0  0  0  0  0
  -28.4170  -24.9707   19.6190 C   0  0  0  0  0  0
  -31.6088  -21.8364   17.8146 N   0  0  0  0  0  0
  -29.2343  -21.1538   20.5120 N   0  0  0  0  0  0
  -29.9174  -15.9187   20.5800 N   0  0  0  0  0  0
  -29.9663  -21.2679   22.6787 O   0  0  0  0  0  0
  -32.9042  -18.8910   18.1423 F   0  0  0  0  0  0
  -31.4658  -12.5508   19.1763 H   0  0  0  0  0  0
  -30.3555  -11.4769   19.9763 H   0  0  0  0  0  0
  -29.7845  -11.7210   17.5307 H   0  0  0  0  0  0
  -29.6326  -13.4522   17.7235 H   0  0  0  0  0  0
  -27.8870  -11.2831   18.9267 H   0  0  0  0  0  0
  -27.3746  -12.5168   17.8066 H   0  0  0  0  0  0
  -27.6297  -14.2533   19.4621 H   0  0  0  0  0  0
  -28.7177  -12.2036   21.4496 H   0  0  0  0  0  0
  -28.4240  -13.8912   21.7828 H   0  0  0  0  0  0
  -25.2760   -9.5683   22.4769 H   0  0  0  0  0  0
  -23.9988   -7.4640   22.7492 H   0  0  0  0  0  0
  -21.0853   -8.8769   19.8949 H   0  0  0  0  0  0
  -22.3704  -10.9670   19.6158 H   0  0  0  0  0  0
  -21.2015   -7.6142   23.9696 H   0  0  0  0  0  0
  -21.1491   -6.0521   25.9056 H   0  0  0  0  0  0
  -22.0600   -2.7605   23.2862 H   0  0  0  0  0  0
  -22.4092  -11.9853   22.4774 H   0  0  0  0  0  0
  -21.1073  -13.1218   22.2613 H   0  0  0  0  0  0
  -24.6569  -15.8530   20.5035 H   0  0  0  0  0  0
  -26.2682  -15.6255   20.0654 H   0  0  0  0  0  0
  -26.7238  -32.5295   23.1049 H   0  0  0  0  0  0
  -25.0115  -33.9692   25.0384 H   0  0  0  0  0  0
  -22.7275  -31.2822   21.3899 H   0  0  0  0  0  0
  -23.3801  -35.9552   23.3312 H   0  0  0  0  0  0
  -24.3549  -36.8904   22.2046 H   0  0  0  0  0  0
  -23.7179  -37.6427   23.6684 H   0  0  0  0  0  0
  -26.1637  -31.5147   20.6289 H   0  0  0  0  0  0
  -26.8554  -30.7645   22.0339 H   0  0  0  0  0  0
  -28.1325  -28.8840   21.1683 H   0  0  0  0  0  0
  -25.9023  -25.8259   19.1074 H   0  0  0  0  0  0
  -23.9460  -27.2771   19.0488 H   0  0  0  0  0  0
  -23.7943  -30.5787   19.4026 H   0  0  0  0  0  0
  -22.7675  -29.2477   19.8480 H   0  0  0  0  0  0
  -25.1284  -36.1916   25.0798 H   0  0  0  0  0  0
  -20.9899  -28.3251   24.1440 H   0  0  0  0  0  0
  -20.5753  -26.2290   23.3583 H   0  0  0  0  0  0
  -21.6615  -26.7490   22.1126 H   0  0  0  0  0  0
  -19.6952  -25.6307   21.1237 H   0  0  0  0  0  0
  -19.6724  -27.3204   20.6745 H   0  0  0  0  0  0
  -17.4200  -26.6719   21.3996 H   0  0  0  0  0  0
  -18.0282  -26.0129   22.9019 H   0  0  0  0  0  0
  -19.7926  -30.7293   24.2228 H   0  0  0  0  0  0
  -17.5009  -31.6273   24.5164 H   0  0  0  0  0  0
  -15.5343  -30.2966   23.7737 H   0  0  0  0  0  0
  -15.8673  -28.0838   22.7102 H   0  0  0  0  0  0
  -24.5924  -30.7099   25.7747 H   0  0  0  0  0  0
  -24.8927  -32.2850   26.4978 H   0  0  0  0  0  0
  -25.8017  -30.8799   27.0231 H   0  0  0  0  0  0
  -26.3035  -29.6715   24.1389 H   0  0  0  0  0  0
  -27.4120  -29.7358   25.4891 H   0  0  0  0  0  0
  -27.8918  -30.4334   23.9628 H   0  0  0  0  0  0
  -27.2730  -33.3750   26.2060 H   0  0  0  0  0  0
  -28.3876  -32.6953   25.0316 H   0  0  0  0  0  0
  -28.0844  -31.8615   26.5446 H   0  0  0  0  0  0
  -28.2558  -38.0099   24.7579 H   0  0  0  0  0  0
  -28.1133  -36.2617   24.6227 H   0  0  0  0  0  0
  -27.2313  -37.1312   25.8867 H   0  0  0  0  0  0
  -20.9596  -29.8698   21.6788 H   0  0  0  0  0  0
  -26.0201  -38.2847   24.1453 H   0  0  0  0  0  0
  -28.6784  -18.4415   21.1817 H   0  0  0  0  0  0
  -31.9533  -16.7121   18.9255 H   0  0  0  0  0  0
  -30.0868  -23.8539   21.5383 H   0  0  0  0  0  0
  -28.6668  -23.6112   22.5580 H   0  0  0  0  0  0
  -29.3317  -22.4446   18.7918 H   0  0  0  0  0  0
  -27.7756  -21.7562   19.0992 H   0  0  0  0  0  0
  -32.7319  -21.2846   20.8635 H   0  0  0  0  0  0
  -32.1654  -22.8750   20.3386 H   0  0  0  0  0  0
  -33.5976  -22.1557   19.5961 H   0  0  0  0  0  0
  -26.5651  -22.4167   21.2422 H   0  0  0  0  0  0
  -26.1274  -23.4651   19.9047 H   0  0  0  0  0  0
  -26.4578  -24.1605   21.4911 H   0  0  0  0  0  0
  -27.7997  -24.9473   18.7243 H   0  0  0  0  0  0
  -29.4293  -24.9506   19.2140 H   0  0  0  0  0  0
  -31.0085  -21.3031   17.1946 H   0  0  0  0  0  0
  -28.9791  -15.7884   20.9233 H   0  0  0  0  0  0
  1 25  1  0  0  0
  1 30  2  0  0  0
  1 87  1  0  0  0
  2  3  1  0  0  0
  2 25  1  0  0  0
  2 90  1  0  0  0
  2 91  1  0  0  0
  3  4  1  0  0  0
  3 92  1  0  0  0
  3 93  1  0  0  0
  4  5  1  0  0  0
  4 94  1  0  0  0
  4 95  1  0  0  0
  5  6  1  0  0  0
  5 26  1  0  0  0
  5 96  1  0  0  0
  6 25  1  0  0  0
  6 97  1  0  0  0
  6 98  1  0  0  0
  7  8  2  0  0  0
  7 26  1  0  0  0
  7 29  1  0  0  0
  8  9  1  0  0  0
  8 22  1  0  0  0
  9 10  1  0  0  0
  9 27  2  0  0  0
 10 11  2  0  0  0
 10 15  1  0  0  0
 11 12  1  0  0  0
 11 99  1  0  0  0
 12 13  2  0  0  0
 12100  1  0  0  0
 13 14  1  0  0  0
 13 31  1  0  0  0
 14 15  2  0  0  0
 14101  1  0  0  0
 15102  1  0  0  0
 16 17  2  0  0  0
 16 21  1  0  0  0
 16 31  1  0  0  0
 17 18  1  0  0  0
 17103  1  0  0  0
 18 19  2  0  0  0
 18104  1  0  0  0
 19 20  1  0  0  0
 19 24  1  0  0  0
 20 21  2  0  0  0
 20105  1  0  0  0
 21 23  1  0  0  0
 22 28  1  0  0  0
 22 32  2  0  0  0
 26 27  1  0  0  0
 28106  1  0  0  0
 28107  1  0  0  0
 29108  1  0  0  0
 29109  1  0  0  0
 33 34  1  0  0  0
 33 66  1  0  0  0
 33 70  2  0  0  0
 34 36  1  0  0  0
 34 59  1  0  0  0
 34110  1  0  0  0
 35 44  2  0  0  0
 35 45  1  0  0  0
 35 68  1  0  0  0
 36 56  1  0  0  0
 36111  1  0  0  0
 37 39  1  0  0  0
 37 47  1  0  0  0
 37 66  1  0  0  0
 37112  1  0  0  0
 38 43  2  0  0  0
 38 46  1  0  0  0
 38 47  1  0  0  0
 39 64  1  0  0  0
 39 67  2  0  0  0
 40 52  1  0  0  0
 40 53  2  0  0  0
 40 58  1  0  0  0
 41113  1  0  0  0
 41114  1  0  0  0
 41115  1  0  0  0
 41 48  1  0  0  0
 42 43  1  0  0  0
 42 66  1  0  0  0
 42116  1  0  0  0
 42117  1  0  0  0
 43 44  1  0  0  0
 44118  1  0  0  0
 45 46  2  0  0  0
 45119  1  0  0  0
 46120  1  0  0  0
 47121  1  0  0  0
 47122  1  0  0  0
 48 56  1  0  0  0
 48 65  1  0  0  0
 48123  1  0  0  0
 49 50  1  0  0  0
 49 53  1  0  0  0
 49 64  1  0  0  0
 49124  1  0  0  0
 50 51  1  0  0  0
 50125  1  0  0  0
 50126  1  0  0  0
 51 52  1  0  0  0
 51127  1  0  0  0
 51128  1  0  0  0
 52129  1  0  0  0
 52130  1  0  0  0
 53 54  1  0  0  0
 54 55  2  0  0  0
 54131  1  0  0  0
 55 57  1  0  0  0
 55132  1  0  0  0
 56 69  2  0  0  0
 57 58  2  0  0  0
 57133  1  0  0  0
 58134  1  0  0  0
 59 60  1  0  0  0
 59 61  1  0  0  0
 59 62  1  0  0  0
 60135  1  0  0  0
 60136  1  0  0  0
 60137  1  0  0  0
 61138  1  0  0  0
 61139  1  0  0  0
 61140  1  0  0  0
 62141  1  0  0  0
 62142  1  0  0  0
 62143  1  0  0  0
 63 65  1  0  0  0
 63144  1  0  0  0
 63145  1  0  0  0
 63146  1  0  0  0
 64147  1  0  0  0
 65148  1  0  0  0
 68 84  1  0  0  0
 71 74  2  0  0  0
 71 75  1  0  0  0
 71149  1  0  0  0
 72 75  2  0  0  0
 72 76  1  0  0  0
 72150  1  0  0  0
 73 74  1  0  0  0
 73 76  2  0  0  0
 73 78  1  0  0  0
 74 86  1  0  0  0
 75 87  1  0  0  0
 76 89  1  0  0  0
 77 79  1  0  0  0
 77 86  1  0  0  0
 77 88  2  0  0  0
 78 82  1  0  0  0
 78 85  2  0  0  0
 79 81  1  0  0  0
 79151  1  0  0  0
 79152  1  0  0  0
 80 81  1  0  0  0
 80 86  1  0  0  0
 80153  1  0  0  0
 80154  1  0  0  0
 81 83  1  0  0  0
 81 84  1  0  0  0
 82155  1  0  0  0
 82156  1  0  0  0
 82157  1  0  0  0
 83158  1  0  0  0
 83159  1  0  0  0
 83160  1  0  0  0
 84161  1  0  0  0
 84162  1  0  0  0
 85163  1  0  0  0
 87164  1  0  0  0
M  ISO  4   1 100  68 101  84 101  87 100
M  END
> <chiral flag>
0

> <version>
0

> <s_m_source_file>
/data/baiqing/PycharmProjects/Reinvent-master-3.2/result/LINK_invent/BTK/process_docking_weight1_custom_product_contain_oxygen_bond_distance_aromatic_linkinvent_7_9_3/rearranged_h_0064.sdf

> <i_m_source_file_index>
82

> <r_mmod_Potential_Energy-OPLS-2005>
370.676910400391

> <r_mmod_Stretch_Energy-OPLS-2005>
141.214721679688

> <r_mmod_Bend_Energy-OPLS-2005>
213.536575317383

> <r_mmod_Torsional_Energy-OPLS-2005>
328.076141357422

> <r_mmod_Improper_Torsional_Energy-OPLS-2005>
6.01705598831177

> <r_mmod_Van_der_Waal_Energy-OPLS-2005>
139.480438232422

> <r_mmod_Electrostatic_Energy-OPLS-2005>
-324.385864257812

> <r_mmod_Solvation_Energy-OPLS-2005>
-228.565795898438

> <b_mmod_Minimization_Converged-OPLS-2005>
0

> <r_mmod_RMS_Derivative-OPLS-2005>
3.92017507553101

$$$$
83
                    3D
 Structure written by MMmdl.
169178  0  0  1  0            999 V2000
  -30.6993  -14.4651   20.5116 C   0  0  0  0  0  0
  -30.4324  -12.2979   19.3957 C   0  0  0  0  0  0
  -29.4852  -12.4996   18.1954 C   0  0  0  0  0  0
  -28.0107  -12.3530   18.6238 C   0  0  0  0  0  0
  -27.6653  -13.1623   19.9015 C   0  0  2  0  0  0
  -28.7288  -12.9553   21.0041 C   0  0  0  0  0  0
  -25.2654  -13.8044   20.5727 C   0  0  0  0  0  0
  -24.1831  -13.0396   20.9212 C   0  0  0  0  0  0
  -24.6323  -11.6840   20.8791 C   0  0  0  0  0  0
  -23.8973  -10.4256   21.0426 C   0  0  0  0  0  0
  -24.3542   -9.4190   21.9205 C   0  0  0  0  0  0
  -23.6255   -8.2212   22.0755 C   0  0  0  0  0  0
  -22.4245   -8.0253   21.3536 C   0  0  0  0  0  0
  -21.9861   -9.0222   20.4646 C   0  0  0  0  0  0
  -22.7158  -10.2111   20.3068 C   0  0  0  0  0  0
  -21.6831   -6.0721   22.5272 C   0  0  0  0  0  0
  -21.3993   -6.5637   23.8202 C   0  0  0  0  0  0
  -21.3639   -5.6791   24.9171 C   0  0  0  0  0  0
  -21.6047   -4.3050   24.7219 C   0  0  0  0  0  0
  -21.8822   -3.8142   23.4336 C   0  0  0  0  0  0
  -21.9191   -4.6960   22.3401 C   0  0  0  0  0  0
  -22.7876  -13.5281   21.1842 C   0  0  0  0  0  0
  -22.1661   -4.2154   21.0974 F   0  0  0  0  0  0
  -21.5638   -3.4527   25.7724 F   0  0  0  0  0  0
  -30.0478  -13.2744   20.4252 N   0  0  0  0  0  0
  -26.3040  -12.9085   20.3565 N   0  0  0  0  0  0
  -25.9255  -11.6302   20.5900 N   0  0  0  0  0  0
  -22.0451  -12.8296   22.0369 N   0  0  0  0  0  0
  -25.4505  -15.1738   20.4069 N   0  0  0  0  0  0
  -31.8550  -14.6323   20.1139 O   0  0  0  0  0  0
  -21.6617   -6.8847   21.4226 O   0  0  0  0  0  0
  -22.3614  -14.5610   20.6703 O   0  0  0  0  0  0
  -24.6098  -31.8681   23.2129 C   0  0  0  0  0  0
  -25.8998  -32.4835   23.8400 C   0  0  1  0  0  0
  -27.2618  -27.4637   20.0937 C   0  0  0  0  0  0
  -25.5888  -33.8647   24.2364 N   0  0  0  0  0  0
  -23.4019  -30.4880   21.5484 C   0  0  2  0  0  0
  -24.8561  -28.9541   20.1196 C   0  0  0  0  0  0
  -22.7392  -29.4631   22.4976 C   0  0  0  0  0  0
  -18.0271  -28.1354   22.8466 C   0  0  0  0  0  0
  -24.1474  -36.7331   23.2648 C   0  0  0  0  0  0
  -25.9240  -30.8398   21.3647 C   0  0  0  0  0  0
  -26.0080  -29.4712   20.7243 C   0  0  0  0  0  0
  -27.2101  -28.7305   20.7241 C   0  0  0  0  0  0
  -26.0930  -26.9627   19.4853 C   0  0  0  0  0  0
  -24.8884  -27.6916   19.5035 C   0  0  0  0  0  0
  -23.6155  -29.8159   20.1633 C   0  0  0  0  0  0
  -25.4103  -36.3160   24.0371 C   0  0  1  0  0  0
  -20.5852  -28.3652   23.1315 C   0  0  2  0  0  0
  -20.6764  -26.9396   22.5407 C   0  0  0  0  0  0
  -19.5759  -26.6383   21.5188 C   0  0  0  0  0  0
  -18.1936  -26.7902   22.1599 C   0  0  0  0  0  0
  -19.1513  -28.8824   23.2883 C   0  0  0  0  0  0
  -18.9444  -30.1428   23.8891 C   0  0  0  0  0  0
  -17.6451  -30.6568   24.0544 C   0  0  0  0  0  0
  -25.9018  -34.9506   23.5159 C   0  0  0  0  0  0
  -16.5342  -29.9065   23.6306 C   0  0  0  0  0  0
  -16.7262  -28.6472   23.0335 C   0  0  0  0  0  0
  -26.4466  -31.6605   25.0704 C   0  0  0  0  0  0
  -25.3760  -31.3677   26.1464 C   0  0  0  0  0  0
  -27.0311  -30.3050   24.6072 C   0  0  0  0  0  0
  -27.6042  -32.4318   25.7480 C   0  0  0  0  0  0
  -27.5591  -37.1823   24.8460 C   0  0  0  0  0  0
  -21.4124  -29.3017   22.3707 N   0  0  0  0  0  0
  -26.4299  -37.3834   23.9422 N   0  0  0  0  0  0
  -24.6627  -31.0806   22.1015 N   0  0  0  0  0  0
  -23.4150  -28.8190   23.3042 O   0  0  0  0  0  0
  -28.3879  -26.6725   19.9942 O   0  0  0  0  0  0
  -26.5563  -34.8941   22.4708 O   0  0  0  0  0  0
  -23.5295  -32.1423   23.7533 O   0  0  0  0  0  0
  -31.8954  -25.5170   17.9145 C   0  0  0  0  0  0
  -30.1917  -19.3839   19.1473 C   0  0  0  0  0  0
  -32.3035  -24.2494   17.4633 C   0  0  0  0  0  0
  -29.3014  -18.4373   18.6299 C   0  0  0  0  0  0
  -32.1134  -24.7606   20.2220 C   0  0  0  0  0  0
  -30.9719  -17.7625   20.8065 C   0  0  0  0  0  0
  -32.5066  -23.4738   19.7783 C   0  0  0  0  0  0
  -31.8053  -25.7851   19.2945 C   0  0  0  0  0  0
  -31.0239  -19.0647   20.2448 C   0  0  0  0  0  0
  -32.6160  -23.2312   18.3859 C   0  0  0  0  0  0
  -29.2411  -17.1542   19.1902 C   0  0  0  0  0  0
  -30.0670  -16.8016   20.2865 C   0  0  0  0  0  0
  -31.6426  -21.3585   20.8430 C   0  0  0  0  0  0
  -30.5772  -27.6419   20.4485 C   0  0  0  0  0  0
  -32.7956  -22.3709   20.8067 C   0  0  0  0  0  0
  -29.4239  -26.7723   20.9744 C   0  0  0  0  0  0
  -33.0412  -21.9975   17.8948 N   0  0  0  0  0  0
  -28.3763  -16.2385   18.6098 N   0  0  0  0  0  0
  -31.5634  -27.1238   19.6967 N   0  0  0  0  0  0
  -31.9346  -20.0472   20.7251 N   0  0  0  0  0  0
  -29.9323  -15.5060   20.8640 N   0  0  0  0  0  0
  -30.4855  -21.7635   21.0047 O   0  0  0  0  0  0
  -30.5822  -28.8473   20.7052 O   0  0  0  0  0  0
  -31.4705  -12.4095   19.0723 H   0  0  0  0  0  0
  -30.3521  -11.2838   19.7878 H   0  0  0  0  0  0
  -29.7128  -11.7742   17.4129 H   0  0  0  0  0  0
  -29.6457  -13.4844   17.7502 H   0  0  0  0  0  0
  -27.8176  -11.2946   18.7992 H   0  0  0  0  0  0
  -27.3530  -12.6517   17.8061 H   0  0  0  0  0  0
  -27.6864  -14.2029   19.6355 H   0  0  0  0  0  0
  -28.7237  -11.9175   21.3431 H   0  0  0  0  0  0
  -28.5101  -13.5537   21.8904 H   0  0  0  0  0  0
  -25.2673   -9.5694   22.4785 H   0  0  0  0  0  0
  -23.9969   -7.4610   22.7474 H   0  0  0  0  0  0
  -21.0791   -8.8749   19.8960 H   0  0  0  0  0  0
  -22.3616  -10.9671   19.6194 H   0  0  0  0  0  0
  -21.1963   -7.6140   23.9702 H   0  0  0  0  0  0
  -21.1466   -6.0517   25.9075 H   0  0  0  0  0  0
  -22.0624   -2.7615   23.2821 H   0  0  0  0  0  0
  -22.4005  -11.9941   22.4768 H   0  0  0  0  0  0
  -21.1088  -13.1385   22.2542 H   0  0  0  0  0  0
  -24.6937  -15.8408   20.5079 H   0  0  0  0  0  0
  -26.2947  -15.5943   20.0276 H   0  0  0  0  0  0
  -26.7076  -32.5585   23.1174 H   0  0  0  0  0  0
  -25.0053  -33.9801   25.0522 H   0  0  0  0  0  0
  -22.6900  -31.3036   21.4047 H   0  0  0  0  0  0
  -23.3771  -35.9619   23.3302 H   0  0  0  0  0  0
  -24.3537  -36.8927   22.2049 H   0  0  0  0  0  0
  -23.7174  -37.6544   23.6610 H   0  0  0  0  0  0
  -26.0244  -31.6026   20.5916 H   0  0  0  0  0  0
  -26.8140  -30.9017   21.9775 H   0  0  0  0  0  0
  -28.0871  -29.1515   21.1920 H   0  0  0  0  0  0
  -26.1214  -26.0001   18.9936 H   0  0  0  0  0  0
  -24.0051  -27.2843   19.0313 H   0  0  0  0  0  0
  -23.7260  -30.5838   19.3962 H   0  0  0  0  0  0
  -22.7431  -29.2290   19.8695 H   0  0  0  0  0  0
  -25.1265  -36.2048   25.0869 H   0  0  0  0  0  0
  -20.9948  -28.3214   24.1435 H   0  0  0  0  0  0
  -20.5676  -26.2264   23.3590 H   0  0  0  0  0  0
  -21.6644  -26.7438   22.1221 H   0  0  0  0  0  0
  -19.6947  -25.6302   21.1205 H   0  0  0  0  0  0
  -19.6721  -27.3188   20.6713 H   0  0  0  0  0  0
  -17.4228  -26.6638   21.3979 H   0  0  0  0  0  0
  -18.0347  -26.0030   22.8976 H   0  0  0  0  0  0
  -19.7926  -30.7227   24.2272 H   0  0  0  0  0  0
  -17.5008  -31.6257   24.5128 H   0  0  0  0  0  0
  -15.5334  -30.2972   23.7636 H   0  0  0  0  0  0
  -15.8654  -28.0796   22.7059 H   0  0  0  0  0  0
  -24.5897  -30.7066   25.7794 H   0  0  0  0  0  0
  -24.9012  -32.2838   26.4980 H   0  0  0  0  0  0
  -25.8138  -30.8787   27.0167 H   0  0  0  0  0  0
  -26.2849  -29.6797   24.1151 H   0  0  0  0  0  0
  -27.4139  -29.7277   25.4500 H   0  0  0  0  0  0
  -27.8642  -30.4396   23.9173 H   0  0  0  0  0  0
  -27.2637  -33.3585   26.2095 H   0  0  0  0  0  0
  -28.3842  -32.6910   25.0312 H   0  0  0  0  0  0
  -28.0704  -31.8411   26.5370 H   0  0  0  0  0  0
  -28.2630  -38.0110   24.7553 H   0  0  0  0  0  0
  -28.1086  -36.2659   24.6239 H   0  0  0  0  0  0
  -27.2300  -37.1411   25.8860 H   0  0  0  0  0  0
  -20.9297  -29.8739   21.6917 H   0  0  0  0  0  0
  -26.0222  -38.2924   24.1449 H   0  0  0  0  0  0
  -31.6713  -26.2889   17.1908 H   0  0  0  0  0  0
  -30.2327  -20.3608   18.6856 H   0  0  0  0  0  0
  -32.3885  -24.0748   16.3977 H   0  0  0  0  0  0
  -28.6740  -18.7062   17.7916 H   0  0  0  0  0  0
  -32.0744  -24.9609   21.2834 H   0  0  0  0  0  0
  -31.6114  -17.4999   21.6377 H   0  0  0  0  0  0
  -32.9144  -22.8047   21.7999 H   0  0  0  0  0  0
  -33.7371  -21.8741   20.5660 H   0  0  0  0  0  0
  -29.0546  -27.1570   21.9257 H   0  0  0  0  0  0
  -29.7837  -25.7673   21.1854 H   0  0  0  0  0  0
  -33.2754  -21.9260   16.9101 H   0  0  0  0  0  0
  -33.6303  -21.4153   18.4790 H   0  0  0  0  0  0
  -28.0767  -16.4502   17.6636 H   0  0  0  0  0  0
  -28.6378  -15.2655   18.7011 H   0  0  0  0  0  0
  -32.1770  -27.8182   19.2959 H   0  0  0  0  0  0
  -32.8986  -19.7617   20.8454 H   0  0  0  0  0  0
  -28.9878  -15.2482   21.1058 H   0  0  0  0  0  0
  1 25  1  0  0  0
  1 30  2  0  0  0
  1 91  1  0  0  0
  2  3  1  0  0  0
  2 25  1  0  0  0
  2 94  1  0  0  0
  2 95  1  0  0  0
  3  4  1  0  0  0
  3 96  1  0  0  0
  3 97  1  0  0  0
  4  5  1  0  0  0
  4 98  1  0  0  0
  4 99  1  0  0  0
  5  6  1  0  0  0
  5 26  1  0  0  0
  5100  1  0  0  0
  6 25  1  0  0  0
  6101  1  0  0  0
  6102  1  0  0  0
  7  8  2  0  0  0
  7 26  1  0  0  0
  7 29  1  0  0  0
  8  9  1  0  0  0
  8 22  1  0  0  0
  9 10  1  0  0  0
  9 27  2  0  0  0
 10 11  2  0  0  0
 10 15  1  0  0  0
 11 12  1  0  0  0
 11103  1  0  0  0
 12 13  2  0  0  0
 12104  1  0  0  0
 13 14  1  0  0  0
 13 31  1  0  0  0
 14 15  2  0  0  0
 14105  1  0  0  0
 15106  1  0  0  0
 16 17  2  0  0  0
 16 21  1  0  0  0
 16 31  1  0  0  0
 17 18  1  0  0  0
 17107  1  0  0  0
 18 19  2  0  0  0
 18108  1  0  0  0
 19 20  1  0  0  0
 19 24  1  0  0  0
 20 21  2  0  0  0
 20109  1  0  0  0
 21 23  1  0  0  0
 22 28  1  0  0  0
 22 32  2  0  0  0
 26 27  1  0  0  0
 28110  1  0  0  0
 28111  1  0  0  0
 29112  1  0  0  0
 29113  1  0  0  0
 33 34  1  0  0  0
 33 66  1  0  0  0
 33 70  2  0  0  0
 34 36  1  0  0  0
 34 59  1  0  0  0
 34114  1  0  0  0
 35 44  2  0  0  0
 35 45  1  0  0  0
 35 68  1  0  0  0
 36 56  1  0  0  0
 36115  1  0  0  0
 37 39  1  0  0  0
 37 47  1  0  0  0
 37 66  1  0  0  0
 37116  1  0  0  0
 38 43  2  0  0  0
 38 46  1  0  0  0
 38 47  1  0  0  0
 39 64  1  0  0  0
 39 67  2  0  0  0
 40 52  1  0  0  0
 40 53  2  0  0  0
 40 58  1  0  0  0
 41117  1  0  0  0
 41118  1  0  0  0
 41119  1  0  0  0
 41 48  1  0  0  0
 42 43  1  0  0  0
 42 66  1  0  0  0
 42120  1  0  0  0
 42121  1  0  0  0
 43 44  1  0  0  0
 44122  1  0  0  0
 45 46  2  0  0  0
 45123  1  0  0  0
 46124  1  0  0  0
 47125  1  0  0  0
 47126  1  0  0  0
 48 56  1  0  0  0
 48 65  1  0  0  0
 48127  1  0  0  0
 49 50  1  0  0  0
 49 53  1  0  0  0
 49 64  1  0  0  0
 49128  1  0  0  0
 50 51  1  0  0  0
 50129  1  0  0  0
 50130  1  0  0  0
 51 52  1  0  0  0
 51131  1  0  0  0
 51132  1  0  0  0
 52133  1  0  0  0
 52134  1  0  0  0
 53 54  1  0  0  0
 54 55  2  0  0  0
 54135  1  0  0  0
 55 57  1  0  0  0
 55136  1  0  0  0
 56 69  2  0  0  0
 57 58  2  0  0  0
 57137  1  0  0  0
 58138  1  0  0  0
 59 60  1  0  0  0
 59 61  1  0  0  0
 59 62  1  0  0  0
 60139  1  0  0  0
 60140  1  0  0  0
 60141  1  0  0  0
 61142  1  0  0  0
 61143  1  0  0  0
 61144  1  0  0  0
 62145  1  0  0  0
 62146  1  0  0  0
 62147  1  0  0  0
 63 65  1  0  0  0
 63148  1  0  0  0
 63149  1  0  0  0
 63150  1  0  0  0
 64151  1  0  0  0
 65152  1  0  0  0
 68 86  1  0  0  0
 71 73  2  0  0  0
 71 78  1  0  0  0
 71153  1  0  0  0
 72 74  2  0  0  0
 72 79  1  0  0  0
 72154  1  0  0  0
 73 80  1  0  0  0
 73155  1  0  0  0
 74 81  1  0  0  0
 74156  1  0  0  0
 75 77  1  0  0  0
 75 78  2  0  0  0
 75157  1  0  0  0
 76 79  2  0  0  0
 76 82  1  0  0  0
 76158  1  0  0  0
 77 80  2  0  0  0
 77 85  1  0  0  0
 78 89  1  0  0  0
 79 90  1  0  0  0
 80 87  1  0  0  0
 81 82  2  0  0  0
 81 88  1  0  0  0
 82 91  1  0  0  0
 83 85  1  0  0  0
 83 90  1  0  0  0
 83 92  2  0  0  0
 84 86  1  0  0  0
 84 89  1  0  0  0
 84 93  2  0  0  0
 85159  1  0  0  0
 85160  1  0  0  0
 86161  1  0  0  0
 86162  1  0  0  0
 87163  1  0  0  0
 87164  1  0  0  0
 88165  1  0  0  0
 88166  1  0  0  0
 89167  1  0  0  0
 90168  1  0  0  0
 91169  1  0  0  0
M  ISO  4   1 100  68 101  86 101  91 100
M  END
> <chiral flag>
0

> <version>
0

> <s_m_source_file>
/data/baiqing/PycharmProjects/Reinvent-master-3.2/result/LINK_invent/BTK/process_docking_weight1_custom_product_contain_oxygen_bond_distance_aromatic_linkinvent_7_9_3/rearranged_h_0064.sdf

> <i_m_source_file_index>
83

> <r_mmod_Potential_Energy-OPLS-2005>
-210.063537597656

> <r_mmod_Stretch_Energy-OPLS-2005>
38.3445472717285

> <r_mmod_Bend_Energy-OPLS-2005>
113.361724853516

> <r_mmod_Torsional_Energy-OPLS-2005>
321.401306152344

> <r_mmod_Improper_Torsional_Energy-OPLS-2005>
16.1940288543701

> <r_mmod_Van_der_Waal_Energy-OPLS-2005>
174.663619995117

> <r_mmod_Electrostatic_Energy-OPLS-2005>
-620.537414550781

> <r_mmod_Solvation_Energy-OPLS-2005>
-266.412933349609

> <b_mmod_Minimization_Converged-OPLS-2005>
0

> <r_mmod_RMS_Derivative-OPLS-2005>
3.56368255615234

$$$$
84
                    3D
 Structure written by MMmdl.
163171  0  0  1  0            999 V2000
  -30.7011  -14.4955   20.5898 C   0  0  0  0  0  0
  -30.4261  -12.3277   19.4291 C   0  0  0  0  0  0
  -29.4981  -12.5127   18.2106 C   0  0  0  0  0  0
  -28.0199  -12.3669   18.6225 C   0  0  0  0  0  0
  -27.6618  -13.2103   19.8754 C   0  0  2  0  0  0
  -28.7028  -12.9983   20.9985 C   0  0  0  0  0  0
  -25.2588  -13.8174   20.5687 C   0  0  0  0  0  0
  -24.1838  -13.0445   20.9175 C   0  0  0  0  0  0
  -24.6390  -11.6914   20.8730 C   0  0  0  0  0  0
  -23.9060  -10.4299   21.0400 C   0  0  0  0  0  0
  -24.3618   -9.4214   21.9172 C   0  0  0  0  0  0
  -23.6295   -8.2252   22.0746 C   0  0  0  0  0  0
  -22.4278   -8.0287   21.3540 C   0  0  0  0  0  0
  -21.9915   -9.0258   20.4644 C   0  0  0  0  0  0
  -22.7239  -10.2137   20.3049 C   0  0  0  0  0  0
  -21.6853   -6.0747   22.5281 C   0  0  0  0  0  0
  -21.4014   -6.5645   23.8216 C   0  0  0  0  0  0
  -21.3660   -5.6791   24.9174 C   0  0  0  0  0  0
  -21.6046   -4.3054   24.7218 C   0  0  0  0  0  0
  -21.8818   -3.8154   23.4337 C   0  0  0  0  0  0
  -21.9189   -4.6978   22.3401 C   0  0  0  0  0  0
  -22.7864  -13.5247   21.1834 C   0  0  0  0  0  0
  -22.1656   -4.2168   21.0977 F   0  0  0  0  0  0
  -21.5630   -3.4529   25.7727 F   0  0  0  0  0  0
  -30.0335  -13.3144   20.4497 N   0  0  0  0  0  0
  -26.3023  -12.9345   20.3364 N   0  0  0  0  0  0
  -25.9319  -11.6503   20.5762 N   0  0  0  0  0  0
  -22.0493  -12.8247   22.0394 N   0  0  0  0  0  0
  -25.4314  -15.1894   20.4113 N   0  0  0  0  0  0
  -31.7972  -14.6894   20.0652 O   0  0  0  0  0  0
  -21.6638   -6.8889   21.4244 O   0  0  0  0  0  0
  -22.3559  -14.5553   20.6680 O   0  0  0  0  0  0
  -24.6189  -31.8671   23.2105 C   0  0  0  0  0  0
  -25.9073  -32.4815   23.8399 C   0  0  1  0  0  0
  -27.2253  -27.3949   20.0908 C   0  0  0  0  0  0
  -25.5924  -33.8618   24.2325 N   0  0  0  0  0  0
  -23.4074  -30.4947   21.5517 C   0  0  2  0  0  0
  -24.8511  -28.9649   20.1108 C   0  0  0  0  0  0
  -22.7436  -29.4657   22.4965 C   0  0  0  0  0  0
  -18.0276  -28.1384   22.8489 C   0  0  0  0  0  0
  -24.1491  -36.7307   23.2636 C   0  0  0  0  0  0
  -25.9438  -30.8197   21.3726 C   0  0  0  0  0  0
  -26.0173  -29.4547   20.7120 C   0  0  0  0  0  0
  -27.2050  -28.6781   20.6999 C   0  0  0  0  0  0
  -26.0337  -26.9456   19.4674 C   0  0  0  0  0  0
  -24.8569  -27.7115   19.4846 C   0  0  0  0  0  0
  -23.6170  -29.8367   20.1640 C   0  0  0  0  0  0
  -25.4114  -36.3108   24.0333 C   0  0  1  0  0  0
  -20.5872  -28.3681   23.1298 C   0  0  2  0  0  0
  -20.6770  -26.9414   22.5413 C   0  0  0  0  0  0
  -19.5746  -26.6389   21.5216 C   0  0  0  0  0  0
  -18.1922  -26.7927   22.1627 C   0  0  0  0  0  0
  -19.1529  -28.8852   23.2888 C   0  0  0  0  0  0
  -18.9455  -30.1456   23.8898 C   0  0  0  0  0  0
  -17.6458  -30.6586   24.0572 C   0  0  0  0  0  0
  -25.9050  -34.9474   23.5128 C   0  0  0  0  0  0
  -16.5348  -29.9090   23.6330 C   0  0  0  0  0  0
  -16.7266  -28.6512   23.0341 C   0  0  0  0  0  0
  -26.4487  -31.6601   25.0738 C   0  0  0  0  0  0
  -25.3742  -31.3718   26.1475 C   0  0  0  0  0  0
  -27.0325  -30.3033   24.6149 C   0  0  0  0  0  0
  -27.6058  -32.4327   25.7498 C   0  0  0  0  0  0
  -27.5579  -37.1811   24.8464 C   0  0  0  0  0  0
  -21.4161  -29.3043   22.3701 N   0  0  0  0  0  0
  -26.4294  -37.3795   23.9405 N   0  0  0  0  0  0
  -24.6748  -31.0750   22.1023 N   0  0  0  0  0  0
  -23.4197  -28.8180   23.3003 O   0  0  0  0  0  0
  -28.3740  -26.6067   20.1305 O   0  0  0  0  0  0
  -26.5602  -34.8926   22.4683 O   0  0  0  0  0  0
  -23.5374  -32.1439   23.7485 O   0  0  0  0  0  0
  -29.9528  -19.3278   20.7782 C   0  0  0  0  0  0
  -29.6702  -17.5360   19.1518 C   0  0  0  0  0  0
  -29.3003  -19.8625   18.5031 C   0  0  0  0  0  0
  -29.9897  -17.9348   20.4670 C   0  0  0  0  0  0
  -29.6114  -20.3170   19.8108 C   0  0  0  0  0  0
  -29.3304  -18.4926   18.1814 C   0  0  0  0  0  0
  -29.2467  -22.8238   19.4927 C   0  0  0  0  0  0
  -32.1086  -16.0717   23.2814 C   0  0  0  0  0  0
  -32.9061  -17.4494   21.2925 C   0  0  0  0  0  0
  -29.3722  -24.2259   20.1563 C   0  0  0  0  0  0
  -28.2325  -25.2118   19.7441 C   0  0  0  0  0  0
  -30.3525  -16.8888   21.5492 C   0  0  1  0  0  0
  -31.7304  -17.1414   22.2408 C   0  0  0  0  0  0
  -29.6069  -21.7154   20.1964 N   0  0  0  0  0  0
  -30.0333  -15.4651   21.2519 N   0  0  0  0  0  0
  -28.8259  -22.7731   18.3354 O   0  0  0  0  0  0
  -29.0307  -18.0918   16.9231 F   0  0  0  0  0  0
  -31.4709  -12.4293   19.1297 H   0  0  0  0  0  0
  -30.3321  -11.3184   19.8321 H   0  0  0  0  0  0
  -29.7441  -11.7837   17.4368 H   0  0  0  0  0  0
  -29.6611  -13.4970   17.7674 H   0  0  0  0  0  0
  -27.8348  -11.3109   18.8224 H   0  0  0  0  0  0
  -27.3693  -12.6361   17.7898 H   0  0  0  0  0  0
  -27.7035  -14.2575   19.5746 H   0  0  0  0  0  0
  -28.6861  -11.9613   21.3374 H   0  0  0  0  0  0
  -28.4526  -13.5911   21.8793 H   0  0  0  0  0  0
  -25.2762   -9.5696   22.4742 H   0  0  0  0  0  0
  -24.0008   -7.4648   22.7463 H   0  0  0  0  0  0
  -21.0845   -8.8779   19.8950 H   0  0  0  0  0  0
  -22.3695  -10.9676   19.6160 H   0  0  0  0  0  0
  -21.2005   -7.6152   23.9729 H   0  0  0  0  0  0
  -21.1483   -6.0514   25.9079 H   0  0  0  0  0  0
  -22.0596   -2.7618   23.2824 H   0  0  0  0  0  0
  -22.4093  -11.9915   22.4811 H   0  0  0  0  0  0
  -21.1111  -13.1286   22.2576 H   0  0  0  0  0  0
  -24.6660  -15.8457   20.5211 H   0  0  0  0  0  0
  -26.2872  -15.6293   20.0963 H   0  0  0  0  0  0
  -26.7140  -32.5504   23.1153 H   0  0  0  0  0  0
  -25.0100  -33.9788   25.0488 H   0  0  0  0  0  0
  -22.6973  -31.3132   21.4167 H   0  0  0  0  0  0
  -23.3756  -35.9639   23.3316 H   0  0  0  0  0  0
  -24.3578  -36.8907   22.2046 H   0  0  0  0  0  0
  -23.7247  -37.6516   23.6646 H   0  0  0  0  0  0
  -26.0690  -31.5894   20.6097 H   0  0  0  0  0  0
  -26.8273  -30.8627   21.9980 H   0  0  0  0  0  0
  -28.1011  -29.0533   21.1745 H   0  0  0  0  0  0
  -25.9736  -25.9962   18.9572 H   0  0  0  0  0  0
  -23.9624  -27.3322   19.0091 H   0  0  0  0  0  0
  -23.7319  -30.6171   19.4108 H   0  0  0  0  0  0
  -22.7382  -29.2642   19.8608 H   0  0  0  0  0  0
  -25.1297  -36.1968   25.0827 H   0  0  0  0  0  0
  -20.9965  -28.3254   24.1418 H   0  0  0  0  0  0
  -20.5687  -26.2294   23.3609 H   0  0  0  0  0  0
  -21.6637  -26.7458   22.1201 H   0  0  0  0  0  0
  -19.6911  -25.6304   21.1235 H   0  0  0  0  0  0
  -19.6677  -27.3210   20.6754 H   0  0  0  0  0  0
  -17.4197  -26.6678   21.4022 H   0  0  0  0  0  0
  -18.0317  -26.0068   22.9022 H   0  0  0  0  0  0
  -19.7933  -30.7273   24.2259 H   0  0  0  0  0  0
  -17.5015  -31.6261   24.5181 H   0  0  0  0  0  0
  -15.5351  -30.2997   23.7652 H   0  0  0  0  0  0
  -15.8663  -28.0844   22.7035 H   0  0  0  0  0  0
  -24.5916  -30.7067   25.7806 H   0  0  0  0  0  0
  -24.8939  -32.2881   26.4914 H   0  0  0  0  0  0
  -25.8082  -30.8888   27.0237 H   0  0  0  0  0  0
  -26.2885  -29.6784   24.1191 H   0  0  0  0  0  0
  -27.4060  -29.7276   25.4627 H   0  0  0  0  0  0
  -27.8741  -30.4334   23.9342 H   0  0  0  0  0  0
  -27.2673  -33.3619   26.2091 H   0  0  0  0  0  0
  -28.3855  -32.6893   25.0317 H   0  0  0  0  0  0
  -28.0743  -31.8446   26.5397 H   0  0  0  0  0  0
  -28.2609  -38.0096   24.7507 H   0  0  0  0  0  0
  -28.1062  -36.2627   24.6302 H   0  0  0  0  0  0
  -27.2292  -37.1477   25.8866 H   0  0  0  0  0  0
  -20.9321  -29.8781   21.6935 H   0  0  0  0  0  0
  -26.0181  -38.2872   24.1406 H   0  0  0  0  0  0
  -30.1918  -19.6401   21.7850 H   0  0  0  0  0  0
  -29.6816  -16.4968   18.8632 H   0  0  0  0  0  0
  -29.0367  -20.5350   17.7035 H   0  0  0  0  0  0
  -32.9862  -16.3753   23.8522 H   0  0  0  0  0  0
  -32.3420  -15.1113   22.8227 H   0  0  0  0  0  0
  -31.2987  -15.9156   23.9942 H   0  0  0  0  0  0
  -33.7766  -17.7813   21.8586 H   0  0  0  0  0  0
  -32.6686  -18.2473   20.5889 H   0  0  0  0  0  0
  -33.2158  -16.5818   20.7155 H   0  0  0  0  0  0
  -30.3345  -24.6453   19.8631 H   0  0  0  0  0  0
  -29.3939  -24.1199   21.2411 H   0  0  0  0  0  0
  -27.3214  -24.8024   20.1840 H   0  0  0  0  0  0
  -28.1050  -25.1940   18.6605 H   0  0  0  0  0  0
  -29.6247  -17.1023   22.3339 H   0  0  0  0  0  0
  -31.5994  -18.0607   22.8141 H   0  0  0  0  0  0
  -29.9176  -21.9008   21.1407 H   0  0  0  0  0  0
  -29.1407  -15.1634   21.6113 H   0  0  0  0  0  0
  1 25  1  0  0  0
  1 30  2  0  0  0
  1 85  1  0  0  0
  2  3  1  0  0  0
  2 25  1  0  0  0
  2 88  1  0  0  0
  2 89  1  0  0  0
  3  4  1  0  0  0
  3 90  1  0  0  0
  3 91  1  0  0  0
  4  5  1  0  0  0
  4 92  1  0  0  0
  4 93  1  0  0  0
  5  6  1  0  0  0
  5 26  1  0  0  0
  5 94  1  0  0  0
  6 25  1  0  0  0
  6 95  1  0  0  0
  6 96  1  0  0  0
  7  8  2  0  0  0
  7 26  1  0  0  0
  7 29  1  0  0  0
  8  9  1  0  0  0
  8 22  1  0  0  0
  9 10  1  0  0  0
  9 27  2  0  0  0
 10 11  2  0  0  0
 10 15  1  0  0  0
 11 12  1  0  0  0
 11 97  1  0  0  0
 12 13  2  0  0  0
 12 98  1  0  0  0
 13 14  1  0  0  0
 13 31  1  0  0  0
 14 15  2  0  0  0
 14 99  1  0  0  0
 15100  1  0  0  0
 16 17  2  0  0  0
 16 21  1  0  0  0
 16 31  1  0  0  0
 17 18  1  0  0  0
 17101  1  0  0  0
 18 19  2  0  0  0
 18102  1  0  0  0
 19 20  1  0  0  0
 19 24  1  0  0  0
 20 21  2  0  0  0
 20103  1  0  0  0
 21 23  1  0  0  0
 22 28  1  0  0  0
 22 32  2  0  0  0
 26 27  1  0  0  0
 28104  1  0  0  0
 28105  1  0  0  0
 29106  1  0  0  0
 29107  1  0  0  0
 33 34  1  0  0  0
 33 66  1  0  0  0
 33 70  2  0  0  0
 34 36  1  0  0  0
 34 59  1  0  0  0
 34108  1  0  0  0
 35 44  2  0  0  0
 35 45  1  0  0  0
 35 68  1  0  0  0
 36 56  1  0  0  0
 36109  1  0  0  0
 37 39  1  0  0  0
 37 47  1  0  0  0
 37 66  1  0  0  0
 37110  1  0  0  0
 38 43  2  0  0  0
 38 46  1  0  0  0
 38 47  1  0  0  0
 39 64  1  0  0  0
 39 67  2  0  0  0
 40 52  1  0  0  0
 40 53  2  0  0  0
 40 58  1  0  0  0
 41111  1  0  0  0
 41112  1  0  0  0
 41113  1  0  0  0
 41 48  1  0  0  0
 42 43  1  0  0  0
 42 66  1  0  0  0
 42114  1  0  0  0
 42115  1  0  0  0
 43 44  1  0  0  0
 44116  1  0  0  0
 45 46  2  0  0  0
 45117  1  0  0  0
 46118  1  0  0  0
 47119  1  0  0  0
 47120  1  0  0  0
 48 56  1  0  0  0
 48 65  1  0  0  0
 48121  1  0  0  0
 49 50  1  0  0  0
 49 53  1  0  0  0
 49 64  1  0  0  0
 49122  1  0  0  0
 50 51  1  0  0  0
 50123  1  0  0  0
 50124  1  0  0  0
 51 52  1  0  0  0
 51125  1  0  0  0
 51126  1  0  0  0
 52127  1  0  0  0
 52128  1  0  0  0
 53 54  1  0  0  0
 54 55  2  0  0  0
 54129  1  0  0  0
 55 57  1  0  0  0
 55130  1  0  0  0
 56 69  2  0  0  0
 57 58  2  0  0  0
 57131  1  0  0  0
 58132  1  0  0  0
 59 60  1  0  0  0
 59 61  1  0  0  0
 59 62  1  0  0  0
 60133  1  0  0  0
 60134  1  0  0  0
 60135  1  0  0  0
 61136  1  0  0  0
 61137  1  0  0  0
 61138  1  0  0  0
 62139  1  0  0  0
 62140  1  0  0  0
 62141  1  0  0  0
 63 65  1  0  0  0
 63142  1  0  0  0
 63143  1  0  0  0
 63144  1  0  0  0
 64145  1  0  0  0
 65146  1  0  0  0
 68 81  1  0  0  0
 71 74  2  0  0  0
 71 75  1  0  0  0
 71147  1  0  0  0
 72 74  1  0  0  0
 72 76  2  0  0  0
 72148  1  0  0  0
 73 75  2  0  0  0
 73 76  1  0  0  0
 73149  1  0  0  0
 74 82  1  0  0  0
 75 84  1  0  0  0
 76 87  1  0  0  0
 77 80  1  0  0  0
 77 84  1  0  0  0
 77 86  2  0  0  0
 78150  1  0  0  0
 78151  1  0  0  0
 78152  1  0  0  0
 78 83  1  0  0  0
 79 83  1  0  0  0
 79153  1  0  0  0
 79154  1  0  0  0
 79155  1  0  0  0
 80 81  1  0  0  0
 80156  1  0  0  0
 80157  1  0  0  0
 81158  1  0  0  0
 81159  1  0  0  0
 82 83  1  0  0  0
 82 85  1  0  0  0
 82160  1  0  0  0
 83161  1  0  0  0
 84162  1  0  0  0
 85163  1  0  0  0
M  ISO  4   1 100  68 101  81 101  85 100
M  END
> <chiral flag>
0

> <version>
0

> <s_m_source_file>
/data/baiqing/PycharmProjects/Reinvent-master-3.2/result/LINK_invent/BTK/process_docking_weight1_custom_product_contain_oxygen_bond_distance_aromatic_linkinvent_7_9_3/rearranged_h_0064.sdf

> <i_m_source_file_index>
84

> <r_mmod_Potential_Energy-OPLS-2005>
-119.303169250488

> <r_mmod_Stretch_Energy-OPLS-2005>
52.7138900756836

> <r_mmod_Bend_Energy-OPLS-2005>
131.43017578125

> <r_mmod_Torsional_Energy-OPLS-2005>
201.604415893555

> <r_mmod_Improper_Torsional_Energy-OPLS-2005>
2.4803192615509

> <r_mmod_Van_der_Waal_Energy-OPLS-2005>
163.377792358398

> <r_mmod_Electrostatic_Energy-OPLS-2005>
-464.056640625

> <r_mmod_Solvation_Energy-OPLS-2005>
-224.765930175781

> <b_mmod_Minimization_Converged-OPLS-2005>
0

> <r_mmod_RMS_Derivative-OPLS-2005>
1.12066733837128

$$$$
85
                    3D
 Structure written by MMmdl.
166175  0  0  1  0            999 V2000
  -30.6129  -14.7432   20.4781 C   0  0  0  0  0  0
  -30.4350  -12.4546   19.4905 C   0  0  0  0  0  0
  -29.5220  -12.5240   18.2452 C   0  0  0  0  0  0
  -28.0462  -12.3465   18.6501 C   0  0  0  0  0  0
  -27.6512  -13.2344   19.8625 C   0  0  2  0  0  0
  -28.6889  -13.1509   21.0043 C   0  0  0  0  0  0
  -25.2562  -13.8207   20.5719 C   0  0  0  0  0  0
  -24.1825  -13.0463   20.9164 C   0  0  0  0  0  0
  -24.6402  -11.6942   20.8696 C   0  0  0  0  0  0
  -23.9074  -10.4316   21.0387 C   0  0  0  0  0  0
  -24.3628   -9.4238   21.9166 C   0  0  0  0  0  0
  -23.6303   -8.2271   22.0754 C   0  0  0  0  0  0
  -22.4274   -8.0296   21.3561 C   0  0  0  0  0  0
  -21.9907   -9.0264   20.4657 C   0  0  0  0  0  0
  -22.7242  -10.2138   20.3052 C   0  0  0  0  0  0
  -21.6855   -6.0743   22.5284 C   0  0  0  0  0  0
  -21.4026   -6.5649   23.8220 C   0  0  0  0  0  0
  -21.3652   -5.6799   24.9176 C   0  0  0  0  0  0
  -21.6030   -4.3063   24.7220 C   0  0  0  0  0  0
  -21.8823   -3.8165   23.4340 C   0  0  0  0  0  0
  -21.9202   -4.6977   22.3403 C   0  0  0  0  0  0
  -22.7848  -13.5249   21.1830 C   0  0  0  0  0  0
  -22.1674   -4.2186   21.0969 F   0  0  0  0  0  0
  -21.5615   -3.4539   25.7727 F   0  0  0  0  0  0
  -29.9983  -13.5077   20.4420 N   0  0  0  0  0  0
  -26.2989  -12.9413   20.3310 N   0  0  0  0  0  0
  -25.9327  -11.6553   20.5699 N   0  0  0  0  0  0
  -22.0482  -12.8250   22.0374 N   0  0  0  0  0  0
  -25.4305  -15.1918   20.4197 N   0  0  0  0  0  0
  -31.7716  -14.8538   20.0651 O   0  0  0  0  0  0
  -21.6649   -6.8885   21.4247 O   0  0  0  0  0  0
  -22.3533  -14.5561   20.6685 O   0  0  0  0  0  0
  -24.6352  -31.8538   23.1958 C   0  0  0  0  0  0
  -25.9161  -32.4744   23.8318 C   0  0  1  0  0  0
  -27.2201  -27.2251   20.1301 C   0  0  0  0  0  0
  -25.5923  -33.8538   24.2231 N   0  0  0  0  0  0
  -23.4328  -30.4762   21.5414 C   0  0  2  0  0  0
  -24.8824  -28.9252   20.1075 C   0  0  0  0  0  0
  -22.7508  -29.4600   22.4904 C   0  0  0  0  0  0
  -18.0297  -28.1397   22.8461 C   0  0  0  0  0  0
  -24.1488  -36.7285   23.2638 C   0  0  0  0  0  0
  -25.9830  -30.7527   21.3851 C   0  0  0  0  0  0
  -26.0558  -29.3724   20.7291 C   0  0  0  0  0  0
  -27.2225  -28.5319   20.7388 C   0  0  0  0  0  0
  -26.0258  -26.8789   19.4498 C   0  0  0  0  0  0
  -24.8760  -27.6872   19.4550 C   0  0  0  0  0  0
  -23.6524  -29.8107   20.1575 C   0  0  0  0  0  0
  -25.4115  -36.3062   24.0320 C   0  0  1  0  0  0
  -20.5894  -28.3712   23.1251 C   0  0  2  0  0  0
  -20.6780  -26.9423   22.5401 C   0  0  0  0  0  0
  -19.5760  -26.6389   21.5198 C   0  0  0  0  0  0
  -18.1940  -26.7936   22.1610 C   0  0  0  0  0  0
  -19.1549  -28.8874   23.2847 C   0  0  0  0  0  0
  -18.9477  -30.1468   23.8878 C   0  0  0  0  0  0
  -17.6474  -30.6590   24.0566 C   0  0  0  0  0  0
  -25.9052  -34.9430   23.5087 C   0  0  0  0  0  0
  -16.5364  -29.9084   23.6333 C   0  0  0  0  0  0
  -16.7282  -28.6508   23.0341 C   0  0  0  0  0  0
  -26.4504  -31.6575   25.0722 C   0  0  0  0  0  0
  -25.3698  -31.3758   26.1425 C   0  0  0  0  0  0
  -27.0360  -30.2980   24.6251 C   0  0  0  0  0  0
  -27.6047  -32.4323   25.7501 C   0  0  0  0  0  0
  -27.5579  -37.1790   24.8456 C   0  0  0  0  0  0
  -21.4212  -29.3055   22.3634 N   0  0  0  0  0  0
  -26.4287  -37.3768   23.9404 N   0  0  0  0  0  0
  -24.7026  -31.0462   22.0964 N   0  0  0  0  0  0
  -23.4187  -28.8138   23.3020 O   0  0  0  0  0  0
  -28.2797  -26.2699   20.2228 O   0  0  0  0  0  0
  -26.5635  -34.8917   22.4660 O   0  0  0  0  0  0
  -23.5485  -32.1380   23.7214 O   0  0  0  0  0  0
  -29.2654  -19.4917   18.5133 C   0  0  0  0  0  0
  -29.5704  -17.0712   18.7450 C   0  0  0  0  0  0
  -29.9094  -23.2479   21.0910 C   0  0  0  0  0  0
  -29.6517  -18.5211   20.7096 C   0  0  0  0  0  0
  -29.3225  -18.2023   17.9460 C   0  0  0  0  0  0
  -28.7647  -23.4903   20.2572 C   0  0  0  0  0  0
  -29.4087  -19.7211   19.8999 C   0  0  0  0  0  0
  -29.7533  -17.1709   20.1400 C   0  0  0  0  0  0
  -30.2036  -21.8932   21.1110 C   0  0  0  0  0  0
  -28.4486  -22.1880   19.8431 C   0  0  0  0  0  0
  -30.0841  -17.3314   14.3308 C   0  0  0  0  0  0
  -31.1278  -19.1326   15.6319 C   0  0  0  0  0  0
  -29.0740  -18.0195   16.4573 C   0  0  0  0  0  0
  -27.9519  -24.8281   19.8786 C   0  0  0  0  0  0
  -29.3325  -21.1628   20.3051 N   0  0  0  0  0  0
  -29.8918  -15.8716   20.8579 N   0  0  0  0  0  0
  -30.3297  -17.8849   15.6815 N   0  3  0  0  0  0
  -31.2160  -21.2572   21.7648 O   0  0  0  0  0  0
  -27.3937  -21.8446   19.0510 O   0  0  0  0  0  0
  -31.4812  -12.5651   19.1978 H   0  0  0  0  0  0
  -30.3613  -11.4712   19.9580 H   0  0  0  0  0  0
  -29.8068  -11.7607   17.5201 H   0  0  0  0  0  0
  -29.6568  -13.4829   17.7404 H   0  0  0  0  0  0
  -27.8985  -11.2946   18.8983 H   0  0  0  0  0  0
  -27.3939  -12.5539   17.8025 H   0  0  0  0  0  0
  -27.6546  -14.2630   19.4992 H   0  0  0  0  0  0
  -28.7178  -12.1452   21.4263 H   0  0  0  0  0  0
  -28.4123  -13.8151   21.8255 H   0  0  0  0  0  0
  -25.2779   -9.5737   22.4726 H   0  0  0  0  0  0
  -24.0054   -7.4663   22.7452 H   0  0  0  0  0  0
  -21.0848   -8.8753   19.8948 H   0  0  0  0  0  0
  -22.3693  -10.9659   19.6158 H   0  0  0  0  0  0
  -21.2030   -7.6160   23.9736 H   0  0  0  0  0  0
  -21.1459   -6.0520   25.9079 H   0  0  0  0  0  0
  -22.0605   -2.7631   23.2809 H   0  0  0  0  0  0
  -22.4095  -11.9946   22.4838 H   0  0  0  0  0  0
  -21.1089  -13.1268   22.2528 H   0  0  0  0  0  0
  -24.6706  -15.8513   20.5458 H   0  0  0  0  0  0
  -26.2913  -15.6330   20.1205 H   0  0  0  0  0  0
  -26.7226  -32.5387   23.1054 H   0  0  0  0  0  0
  -25.0038  -33.9658   25.0357 H   0  0  0  0  0  0
  -22.7326  -31.3008   21.3927 H   0  0  0  0  0  0
  -23.3749  -35.9618   23.3288 H   0  0  0  0  0  0
  -24.3589  -36.8918   22.2056 H   0  0  0  0  0  0
  -23.7244  -37.6480   23.6679 H   0  0  0  0  0  0
  -26.1257  -31.5080   20.6113 H   0  0  0  0  0  0
  -26.8583  -30.8042   22.0210 H   0  0  0  0  0  0
  -28.1069  -28.8597   21.2649 H   0  0  0  0  0  0
  -25.9277  -25.9481   18.9121 H   0  0  0  0  0  0
  -23.9846  -27.3453   18.9481 H   0  0  0  0  0  0
  -23.7689  -30.5848   19.3980 H   0  0  0  0  0  0
  -22.7711  -29.2388   19.8580 H   0  0  0  0  0  0
  -25.1298  -36.1903   25.0814 H   0  0  0  0  0  0
  -20.9985  -28.3303   24.1375 H   0  0  0  0  0  0
  -20.5662  -26.2329   23.3610 H   0  0  0  0  0  0
  -21.6655  -26.7437   22.1219 H   0  0  0  0  0  0
  -19.6925  -25.6293   21.1248 H   0  0  0  0  0  0
  -19.6698  -27.3185   20.6714 H   0  0  0  0  0  0
  -17.4201  -26.6654   21.4023 H   0  0  0  0  0  0
  -18.0356  -26.0090   22.9024 H   0  0  0  0  0  0
  -19.7959  -30.7280   24.2229 H   0  0  0  0  0  0
  -17.5041  -31.6268   24.5170 H   0  0  0  0  0  0
  -15.5366  -30.2988   23.7675 H   0  0  0  0  0  0
  -15.8681  -28.0829   22.7065 H   0  0  0  0  0  0
  -24.5872  -30.7110   25.7752 H   0  0  0  0  0  0
  -24.8897  -32.2941   26.4810 H   0  0  0  0  0  0
  -25.7988  -30.8959   27.0229 H   0  0  0  0  0  0
  -26.2970  -29.6709   24.1253 H   0  0  0  0  0  0
  -27.3986  -29.7270   25.4808 H   0  0  0  0  0  0
  -27.8874  -30.4228   23.9558 H   0  0  0  0  0  0
  -27.2645  -33.3628   26.2057 H   0  0  0  0  0  0
  -28.3873  -32.6858   25.0338 H   0  0  0  0  0  0
  -28.0699  -31.8457   26.5430 H   0  0  0  0  0  0
  -28.2582  -38.0100   24.7521 H   0  0  0  0  0  0
  -28.1087  -36.2630   24.6261 H   0  0  0  0  0  0
  -27.2303  -37.1428   25.8859 H   0  0  0  0  0  0
  -20.9400  -29.8772   21.6833 H   0  0  0  0  0  0
  -26.0160  -38.2841   24.1403 H   0  0  0  0  0  0
  -29.1070  -20.3330   17.8530 H   0  0  0  0  0  0
  -29.5755  -16.0996   18.2704 H   0  0  0  0  0  0
  -30.4707  -24.0033   21.6231 H   0  0  0  0  0  0
  -29.7679  -18.6441   21.7764 H   0  0  0  0  0  0
  -31.0164  -17.2176   13.7782 H   0  0  0  0  0  0
  -29.4298  -17.9819   13.7497 H   0  0  0  0  0  0
  -29.6171  -16.3480   14.3907 H   0  0  0  0  0  0
  -32.0287  -18.9940   15.0334 H   0  0  0  0  0  0
  -31.4470  -19.4393   16.6272 H   0  0  0  0  0  0
  -30.5578  -19.9506   15.1917 H   0  0  0  0  0  0
  -28.4729  -18.8445   16.0730 H   0  0  0  0  0  0
  -28.4629  -17.1237   16.3337 H   0  0  0  0  0  0
  -26.9637  -24.6092   20.2842 H   0  0  0  0  0  0
  -27.8543  -24.7935   18.7919 H   0  0  0  0  0  0
  -29.1249  -15.6682   21.4832 H   0  0  0  0  0  0
  -30.8919  -17.2030   16.1678 H   0  0  0  0  0  0
  -31.6890  -21.9055   22.2800 H   0  0  0  0  0  0
  -27.2782  -20.9024   19.1155 H   0  0  0  0  0  0
  1 25  1  0  0  0
  1 30  2  0  0  0
  1 86  1  0  0  0
  2  3  1  0  0  0
  2 25  1  0  0  0
  2 90  1  0  0  0
  2 91  1  0  0  0
  3  4  1  0  0  0
  3 92  1  0  0  0
  3 93  1  0  0  0
  4  5  1  0  0  0
  4 94  1  0  0  0
  4 95  1  0  0  0
  5  6  1  0  0  0
  5 26  1  0  0  0
  5 96  1  0  0  0
  6 25  1  0  0  0
  6 97  1  0  0  0
  6 98  1  0  0  0
  7  8  2  0  0  0
  7 26  1  0  0  0
  7 29  1  0  0  0
  8  9  1  0  0  0
  8 22  1  0  0  0
  9 10  1  0  0  0
  9 27  2  0  0  0
 10 11  2  0  0  0
 10 15  1  0  0  0
 11 12  1  0  0  0
 11 99  1  0  0  0
 12 13  2  0  0  0
 12100  1  0  0  0
 13 14  1  0  0  0
 13 31  1  0  0  0
 14 15  2  0  0  0
 14101  1  0  0  0
 15102  1  0  0  0
 16 17  2  0  0  0
 16 21  1  0  0  0
 16 31  1  0  0  0
 17 18  1  0  0  0
 17103  1  0  0  0
 18 19  2  0  0  0
 18104  1  0  0  0
 19 20  1  0  0  0
 19 24  1  0  0  0
 20 21  2  0  0  0
 20105  1  0  0  0
 21 23  1  0  0  0
 22 28  1  0  0  0
 22 32  2  0  0  0
 26 27  1  0  0  0
 28106  1  0  0  0
 28107  1  0  0  0
 29108  1  0  0  0
 29109  1  0  0  0
 33 34  1  0  0  0
 33 66  1  0  0  0
 33 70  2  0  0  0
 34 36  1  0  0  0
 34 59  1  0  0  0
 34110  1  0  0  0
 35 44  2  0  0  0
 35 45  1  0  0  0
 35 68  1  0  0  0
 36 56  1  0  0  0
 36111  1  0  0  0
 37 39  1  0  0  0
 37 47  1  0  0  0
 37 66  1  0  0  0
 37112  1  0  0  0
 38 43  2  0  0  0
 38 46  1  0  0  0
 38 47  1  0  0  0
 39 64  1  0  0  0
 39 67  2  0  0  0
 40 52  1  0  0  0
 40 53  2  0  0  0
 40 58  1  0  0  0
 41113  1  0  0  0
 41114  1  0  0  0
 41115  1  0  0  0
 41 48  1  0  0  0
 42 43  1  0  0  0
 42 66  1  0  0  0
 42116  1  0  0  0
 42117  1  0  0  0
 43 44  1  0  0  0
 44118  1  0  0  0
 45 46  2  0  0  0
 45119  1  0  0  0
 46120  1  0  0  0
 47121  1  0  0  0
 47122  1  0  0  0
 48 56  1  0  0  0
 48 65  1  0  0  0
 48123  1  0  0  0
 49 50  1  0  0  0
 49 53  1  0  0  0
 49 64  1  0  0  0
 49124  1  0  0  0
 50 51  1  0  0  0
 50125  1  0  0  0
 50126  1  0  0  0
 51 52  1  0  0  0
 51127  1  0  0  0
 51128  1  0  0  0
 52129  1  0  0  0
 52130  1  0  0  0
 53 54  1  0  0  0
 54 55  2  0  0  0
 54131  1  0  0  0
 55 57  1  0  0  0
 55132  1  0  0  0
 56 69  2  0  0  0
 57 58  2  0  0  0
 57133  1  0  0  0
 58134  1  0  0  0
 59 60  1  0  0  0
 59 61  1  0  0  0
 59 62  1  0  0  0
 60135  1  0  0  0
 60136  1  0  0  0
 60137  1  0  0  0
 61138  1  0  0  0
 61139  1  0  0  0
 61140  1  0  0  0
 62141  1  0  0  0
 62142  1  0  0  0
 62143  1  0  0  0
 63 65  1  0  0  0
 63144  1  0  0  0
 63145  1  0  0  0
 63146  1  0  0  0
 64147  1  0  0  0
 65148  1  0  0  0
 68 84  1  0  0  0
 71 75  2  0  0  0
 71 77  1  0  0  0
 71149  1  0  0  0
 72 75  1  0  0  0
 72 78  2  0  0  0
 72150  1  0  0  0
 73 76  1  0  0  0
 73 79  2  0  0  0
 73151  1  0  0  0
 74 77  2  0  0  0
 74 78  1  0  0  0
 74152  1  0  0  0
 75 83  1  0  0  0
 76 80  2  0  0  0
 76 84  1  0  0  0
 77 85  1  0  0  0
 78 86  1  0  0  0
 79 85  1  0  0  0
 79 88  1  0  0  0
 80 85  1  0  0  0
 80 89  1  0  0  0
 81153  1  0  0  0
 81154  1  0  0  0
 81155  1  0  0  0
 81 87  1  0  0  0
 82 87  1  0  0  0
 82156  1  0  0  0
 82157  1  0  0  0
 82158  1  0  0  0
 83 87  1  0  0  0
 83159  1  0  0  0
 83160  1  0  0  0
 84161  1  0  0  0
 84162  1  0  0  0
 86163  1  0  0  0
 87164  1  0  0  0
 88165  1  0  0  0
 89166  1  0  0  0
M  CHG  1  87   1
M  ISO  4   1 100  68 101  84 101  86 100
M  END
> <chiral flag>
0

> <version>
0

> <s_m_source_file>
/data/baiqing/PycharmProjects/Reinvent-master-3.2/result/LINK_invent/BTK/process_docking_weight1_custom_product_contain_oxygen_bond_distance_aromatic_linkinvent_7_9_3/rearranged_h_0064.sdf

> <i_m_source_file_index>
85

> <r_mmod_Potential_Energy-OPLS-2005>
95.2526702880859

> <r_mmod_Stretch_Energy-OPLS-2005>
140.736663818359

> <r_mmod_Bend_Energy-OPLS-2005>
191.801574707031

> <r_mmod_Torsional_Energy-OPLS-2005>
255.174407958984

> <r_mmod_Improper_Torsional_Energy-OPLS-2005>
5.51268482208252

> <r_mmod_Van_der_Waal_Energy-OPLS-2005>
138.357833862305

> <r_mmod_Electrostatic_Energy-OPLS-2005>
-248.992309570312

> <r_mmod_Solvation_Energy-OPLS-2005>
-485.812622070312

> <b_mmod_Minimization_Converged-OPLS-2005>
0

> <r_mmod_RMS_Derivative-OPLS-2005>
2.9600510597229

$$$$
86
                    3D
 Structure written by MMmdl.
172181  0  0  1  0            999 V2000
  -30.5299  -15.0279   20.3419 C   0  0  0  0  0  0
  -30.4502  -12.6353   19.4607 C   0  0  0  0  0  0
  -29.5160  -12.5068   18.2364 C   0  0  0  0  0  0
  -28.0605  -12.2713   18.6896 C   0  0  0  0  0  0
  -27.6298  -13.2338   19.8252 C   0  0  2  0  0  0
  -28.6928  -13.3265   20.9409 C   0  0  0  0  0  0
  -25.2595  -13.8057   20.5758 C   0  0  0  0  0  0
  -24.1808  -13.0344   20.9137 C   0  0  0  0  0  0
  -24.6407  -11.6828   20.8668 C   0  0  0  0  0  0
  -23.9055  -10.4230   21.0326 C   0  0  0  0  0  0
  -24.3629   -9.4153   21.9116 C   0  0  0  0  0  0
  -23.6293   -8.2194   22.0725 C   0  0  0  0  0  0
  -22.4268   -8.0236   21.3529 C   0  0  0  0  0  0
  -21.9890   -9.0175   20.4607 C   0  0  0  0  0  0
  -22.7221  -10.2054   20.2982 C   0  0  0  0  0  0
  -21.6861   -6.0671   22.5236 C   0  0  0  0  0  0
  -21.4025   -6.5594   23.8162 C   0  0  0  0  0  0
  -21.3686   -5.6765   24.9136 C   0  0  0  0  0  0
  -21.6067   -4.3024   24.7213 C   0  0  0  0  0  0
  -21.8842   -3.8103   23.4345 C   0  0  0  0  0  0
  -21.9208   -4.6897   22.3386 C   0  0  0  0  0  0
  -22.7878  -13.5121   21.1791 C   0  0  0  0  0  0
  -22.1658   -4.2080   21.0962 F   0  0  0  0  0  0
  -21.5670   -3.4524   25.7743 F   0  0  0  0  0  0
  -29.9363  -13.7608   20.2893 N   0  0  0  0  0  0
  -26.2956  -12.9249   20.3270 N   0  0  0  0  0  0
  -25.9348  -11.6420   20.5730 N   0  0  0  0  0  0
  -22.0622  -12.8004   22.0378 N   0  0  0  0  0  0
  -25.4622  -15.1735   20.4564 N   0  0  0  0  0  0
  -31.7614  -15.0549   20.2266 O   0  0  0  0  0  0
  -21.6664   -6.8815   21.4203 O   0  0  0  0  0  0
  -22.3531  -14.5414   20.6679 O   0  0  0  0  0  0
  -24.6446  -31.8317   23.1895 C   0  0  0  0  0  0
  -25.9221  -32.4613   23.8242 C   0  0  1  0  0  0
  -27.2282  -27.0842   20.1093 C   0  0  0  0  0  0
  -25.5992  -33.8451   24.2139 N   0  0  0  0  0  0
  -23.4494  -30.4490   21.5380 C   0  0  2  0  0  0
  -24.9058  -28.8684   20.1111 C   0  0  0  0  0  0
  -22.7545  -29.4453   22.4895 C   0  0  0  0  0  0
  -18.0227  -28.1348   22.8351 C   0  0  0  0  0  0
  -24.1511  -36.7241   23.2635 C   0  0  0  0  0  0
  -26.0120  -30.6886   21.3987 C   0  0  0  0  0  0
  -26.0891  -29.2979   20.7257 C   0  0  0  0  0  0
  -27.2460  -28.4200   20.7092 C   0  0  0  0  0  0
  -26.0033  -26.7573   19.4912 C   0  0  0  0  0  0
  -24.8756  -27.6095   19.4934 C   0  0  0  0  0  0
  -23.6861  -29.7853   20.1556 C   0  0  0  0  0  0
  -25.4146  -36.3009   24.0275 C   0  0  1  0  0  0
  -20.5839  -28.3665   23.1348 C   0  0  2  0  0  0
  -20.6706  -26.9358   22.5495 C   0  0  0  0  0  0
  -19.5725  -26.6368   21.5169 C   0  0  0  0  0  0
  -18.1885  -26.7898   22.1507 C   0  0  0  0  0  0
  -19.1468  -28.8815   23.2840 C   0  0  0  0  0  0
  -18.9388  -30.1398   23.8829 C   0  0  0  0  0  0
  -17.6398  -30.6514   24.0533 C   0  0  0  0  0  0
  -25.9082  -34.9360   23.5006 C   0  0  0  0  0  0
  -16.5323  -29.9015   23.6252 C   0  0  0  0  0  0
  -16.7205  -28.6470   23.0196 C   0  0  0  0  0  0
  -26.4530  -31.6566   25.0729 C   0  0  0  0  0  0
  -25.3697  -31.3802   26.1403 C   0  0  0  0  0  0
  -27.0413  -30.2953   24.6387 C   0  0  0  0  0  0
  -27.5999  -32.4387   25.7544 C   0  0  0  0  0  0
  -27.5574  -37.1790   24.8454 C   0  0  0  0  0  0
  -21.4199  -29.3005   22.3742 N   0  0  0  0  0  0
  -26.4298  -37.3722   23.9380 N   0  0  0  0  0  0
  -24.7225  -31.0114   22.0966 N   0  0  0  0  0  0
  -23.4188  -28.7985   23.3017 O   0  0  0  0  0  0
  -28.2911  -26.0914   20.1647 O   0  0  0  0  0  0
  -26.5641  -34.8867   22.4581 O   0  0  0  0  0  0
  -23.5588  -32.1305   23.7085 O   0  0  0  0  0  0
  -28.5458  -17.3196   22.5115 C   0  0  0  0  0  0
  -27.4038  -17.4694   21.6790 C   0  0  0  0  0  0
  -29.8261  -17.6353   21.9849 C   0  0  0  0  0  0
  -27.5378  -18.1696   20.4437 C   0  0  0  0  0  0
  -28.7971  -18.7846   20.1933 C   0  0  0  0  0  0
  -29.8089  -17.7221   20.5850 C   0  0  0  0  0  0
  -27.8132  -20.9621   21.2752 C   0  0  0  0  0  0
  -23.8867  -18.3347   20.2316 C   0  0  0  0  0  0
  -29.1128  -21.6327   19.5874 C   0  0  0  0  0  0
  -28.5866  -23.0852   20.2602 C   0  0  2  0  0  0
  -27.3853  -22.4539   20.9808 C   0  0  1  0  0  0
  -26.1315  -22.4543   20.0535 C   0  0  0  0  0  0
  -26.3215  -18.4398   19.5638 C   0  0  0  0  0  0
  -28.3279  -24.6340   19.5443 C   0  0  0  0  0  0
  -27.0587  -23.2397   22.2812 C   0  0  0  0  0  0
  -28.7154  -20.3674   20.4226 N   0  0  0  0  0  0
  -22.8944  -18.9522   20.8705 N   0  0  0  0  0  0
  -23.6172  -17.2309   19.5361 N   0  3  0  0  0  0
  -29.7428  -16.2170   20.1484 N   0  0  0  0  0  0
  -25.1252  -18.8414   20.3172 N   0  0  0  0  0  0
  -27.3465  -20.4084   22.2718 O   0  0  0  0  0  0
  -25.8695  -22.9012   22.7939 F   0  0  0  0  0  0
  -31.4743  -12.8128   19.1379 H   0  0  0  0  0  0
  -30.4716  -11.7048   20.0301 H   0  0  0  0  0  0
  -29.8417  -11.6947   17.5840 H   0  0  0  0  0  0
  -29.5749  -13.4157   17.6366 H   0  0  0  0  0  0
  -27.9924  -11.2437   19.0518 H   0  0  0  0  0  0
  -27.3771  -12.3390   17.8435 H   0  0  0  0  0  0
  -27.5604  -14.2146   19.3542 H   0  0  0  0  0  0
  -28.8217  -12.3632   21.4376 H   0  0  0  0  0  0
  -28.4109  -14.0462   21.7107 H   0  0  0  0  0  0
  -25.2794   -9.5670   22.4633 H   0  0  0  0  0  0
  -24.0046   -7.4613   22.7455 H   0  0  0  0  0  0
  -21.0827   -8.8657   19.8904 H   0  0  0  0  0  0
  -22.3659  -10.9578   19.6067 H   0  0  0  0  0  0
  -21.1995   -7.6103   23.9623 H   0  0  0  0  0  0
  -21.1513   -6.0514   25.9036 H   0  0  0  0  0  0
  -22.0623   -2.7565   23.2859 H   0  0  0  0  0  0
  -22.4493  -11.9703   22.4626 H   0  0  0  0  0  0
  -21.1206  -13.0775   22.2641 H   0  0  0  0  0  0
  -24.8570  -15.6818   21.0918 H   0  0  0  0  0  0
  -26.4326  -15.3999   20.6325 H   0  0  0  0  0  0
  -26.7241  -32.5161   23.0936 H   0  0  0  0  0  0
  -25.0176  -33.9568   25.0299 H   0  0  0  0  0  0
  -22.7492  -31.2714   21.3824 H   0  0  0  0  0  0
  -23.3766  -35.9587   23.3289 H   0  0  0  0  0  0
  -24.3597  -36.8904   22.2062 H   0  0  0  0  0  0
  -23.7287  -37.6420   23.6713 H   0  0  0  0  0  0
  -26.1735  -31.4537   20.6384 H   0  0  0  0  0  0
  -26.8732  -30.7341   22.0534 H   0  0  0  0  0  0
  -28.1523  -28.7409   21.2086 H   0  0  0  0  0  0
  -25.8624  -25.7889   19.0338 H   0  0  0  0  0  0
  -23.9561  -27.2707   19.0374 H   0  0  0  0  0  0
  -23.8522  -30.5746   19.4204 H   0  0  0  0  0  0
  -22.7987  -29.2479   19.8198 H   0  0  0  0  0  0
  -25.1372  -36.1781   25.0762 H   0  0  0  0  0  0
  -20.9866  -28.3265   24.1514 H   0  0  0  0  0  0
  -20.5404  -26.2269   23.3705 H   0  0  0  0  0  0
  -21.6677  -26.7329   22.1598 H   0  0  0  0  0  0
  -19.6867  -25.6306   21.1198 H   0  0  0  0  0  0
  -19.6773  -27.3179   20.6674 H   0  0  0  0  0  0
  -17.4225  -26.6666   21.3801 H   0  0  0  0  0  0
  -18.0134  -26.0080   22.8934 H   0  0  0  0  0  0
  -19.7889  -30.7276   24.2134 H   0  0  0  0  0  0
  -17.4910  -31.6149   24.5185 H   0  0  0  0  0  0
  -15.5307  -30.2828   23.7606 H   0  0  0  0  0  0
  -15.8583  -28.0844   22.6873 H   0  0  0  0  0  0
  -24.5845  -30.7195   25.7721 H   0  0  0  0  0  0
  -24.8938  -32.3027   26.4745 H   0  0  0  0  0  0
  -25.7944  -30.9003   27.0227 H   0  0  0  0  0  0
  -26.3072  -29.6659   24.1354 H   0  0  0  0  0  0
  -27.3954  -29.7266   25.4986 H   0  0  0  0  0  0
  -27.8998  -30.4157   23.9776 H   0  0  0  0  0  0
  -27.2516  -33.3694   26.2035 H   0  0  0  0  0  0
  -28.3874  -32.6951   25.0456 H   0  0  0  0  0  0
  -28.0600  -31.8594   26.5562 H   0  0  0  0  0  0
  -28.2571  -38.0103   24.7498 H   0  0  0  0  0  0
  -28.1093  -36.2625   24.6303 H   0  0  0  0  0  0
  -27.2284  -37.1459   25.8854 H   0  0  0  0  0  0
  -20.9377  -29.8771   21.7025 H   0  0  0  0  0  0
  -26.0130  -38.2768   24.1411 H   0  0  0  0  0  0
  -28.4574  -16.8559   23.4831 H   0  0  0  0  0  0
  -26.4454  -17.1159   22.0300 H   0  0  0  0  0  0
  -30.7108  -17.2872   22.5031 H   0  0  0  0  0  0
  -30.1997  -21.6579   19.4839 H   0  0  0  0  0  0
  -28.7097  -21.5150   18.5798 H   0  0  0  0  0  0
  -29.3432  -23.2928   21.0173 H   0  0  0  0  0  0
  -25.3097  -21.8780   20.4784 H   0  0  0  0  0  0
  -26.3442  -22.0477   19.0653 H   0  0  0  0  0  0
  -25.7410  -23.4588   19.8962 H   0  0  0  0  0  0
  -26.1182  -17.5450   18.9776 H   0  0  0  0  0  0
  -26.5489  -19.2277   18.8448 H   0  0  0  0  0  0
  -27.5135  -24.5234   18.8328 H   0  0  0  0  0  0
  -29.1832  -24.7408   18.8726 H   0  0  0  0  0  0
  -27.0264  -24.3154   22.1076 H   0  0  0  0  0  0
  -27.7975  -23.0689   23.0623 H   0  0  0  0  0  0
  -21.9575  -18.5774   20.9036 H   0  0  0  0  0  0
  -23.0132  -19.8607   21.2977 H   0  0  0  0  0  0
  -24.3549  -16.5649   19.3108 H   0  0  0  0  0  0
  -22.6864  -16.8468   19.4734 H   0  0  0  0  0  0
  -28.8274  -15.9684   19.8071 H   0  0  0  0  0  0
  -25.2910  -19.5733   20.9934 H   0  0  0  0  0  0
  1 25  1  0  0  0
  1 30  2  0  0  0
  1 89  1  0  0  0
  2  3  1  0  0  0
  2 25  1  0  0  0
  2 93  1  0  0  0
  2 94  1  0  0  0
  3  4  1  0  0  0
  3 95  1  0  0  0
  3 96  1  0  0  0
  4  5  1  0  0  0
  4 97  1  0  0  0
  4 98  1  0  0  0
  5  6  1  0  0  0
  5 26  1  0  0  0
  5 99  1  0  0  0
  6 25  1  0  0  0
  6100  1  0  0  0
  6101  1  0  0  0
  7  8  2  0  0  0
  7 26  1  0  0  0
  7 29  1  0  0  0
  8  9  1  0  0  0
  8 22  1  0  0  0
  9 10  1  0  0  0
  9 27  2  0  0  0
 10 11  2  0  0  0
 10 15  1  0  0  0
 11 12  1  0  0  0
 11102  1  0  0  0
 12 13  2  0  0  0
 12103  1  0  0  0
 13 14  1  0  0  0
 13 31  1  0  0  0
 14 15  2  0  0  0
 14104  1  0  0  0
 15105  1  0  0  0
 16 17  2  0  0  0
 16 21  1  0  0  0
 16 31  1  0  0  0
 17 18  1  0  0  0
 17106  1  0  0  0
 18 19  2  0  0  0
 18107  1  0  0  0
 19 20  1  0  0  0
 19 24  1  0  0  0
 20 21  2  0  0  0
 20108  1  0  0  0
 21 23  1  0  0  0
 22 28  1  0  0  0
 22 32  2  0  0  0
 26 27  1  0  0  0
 28109  1  0  0  0
 28110  1  0  0  0
 29111  1  0  0  0
 29112  1  0  0  0
 33 34  1  0  0  0
 33 66  1  0  0  0
 33 70  2  0  0  0
 34 36  1  0  0  0
 34 59  1  0  0  0
 34113  1  0  0  0
 35 44  2  0  0  0
 35 45  1  0  0  0
 35 68  1  0  0  0
 36 56  1  0  0  0
 36114  1  0  0  0
 37 39  1  0  0  0
 37 47  1  0  0  0
 37 66  1  0  0  0
 37115  1  0  0  0
 38 43  2  0  0  0
 38 46  1  0  0  0
 38 47  1  0  0  0
 39 64  1  0  0  0
 39 67  2  0  0  0
 40 52  1  0  0  0
 40 53  2  0  0  0
 40 58  1  0  0  0
 41116  1  0  0  0
 41117  1  0  0  0
 41118  1  0  0  0
 41 48  1  0  0  0
 42 43  1  0  0  0
 42 66  1  0  0  0
 42119  1  0  0  0
 42120  1  0  0  0
 43 44  1  0  0  0
 44121  1  0  0  0
 45 46  2  0  0  0
 45122  1  0  0  0
 46123  1  0  0  0
 47124  1  0  0  0
 47125  1  0  0  0
 48 56  1  0  0  0
 48 65  1  0  0  0
 48126  1  0  0  0
 49 50  1  0  0  0
 49 53  1  0  0  0
 49 64  1  0  0  0
 49127  1  0  0  0
 50 51  1  0  0  0
 50128  1  0  0  0
 50129  1  0  0  0
 51 52  1  0  0  0
 51130  1  0  0  0
 51131  1  0  0  0
 52132  1  0  0  0
 52133  1  0  0  0
 53 54  1  0  0  0
 54 55  2  0  0  0
 54134  1  0  0  0
 55 57  1  0  0  0
 55135  1  0  0  0
 56 69  2  0  0  0
 57 58  2  0  0  0
 57136  1  0  0  0
 58137  1  0  0  0
 59 60  1  0  0  0
 59 61  1  0  0  0
 59 62  1  0  0  0
 60138  1  0  0  0
 60139  1  0  0  0
 60140  1  0  0  0
 61141  1  0  0  0
 61142  1  0  0  0
 61143  1  0  0  0
 62144  1  0  0  0
 62145  1  0  0  0
 62146  1  0  0  0
 63 65  1  0  0  0
 63147  1  0  0  0
 63148  1  0  0  0
 63149  1  0  0  0
 64150  1  0  0  0
 65151  1  0  0  0
 68 84  1  0  0  0
 71 72  2  0  0  0
 71 73  1  0  0  0
 71152  1  0  0  0
 72 74  1  0  0  0
 72153  1  0  0  0
 73 76  2  0  0  0
 73154  1  0  0  0
 74 75  2  0  0  0
 74 83  1  0  0  0
 75 76  1  0  0  0
 75 86  1  0  0  0
 76 89  1  0  0  0
 77 81  1  0  0  0
 77 86  1  0  0  0
 77 91  2  0  0  0
 78 87  1  0  0  0
 78 88  2  0  0  0
 78 90  1  0  0  0
 79 80  1  0  0  0
 79 86  1  0  0  0
 79155  1  0  0  0
 79156  1  0  0  0
 80 81  1  0  0  0
 80 84  1  0  0  0
 80157  1  0  0  0
 81 82  1  0  0  0
 81 85  1  0  0  0
 82158  1  0  0  0
 82159  1  0  0  0
 82160  1  0  0  0
 83 90  1  0  0  0
 83161  1  0  0  0
 83162  1  0  0  0
 84163  1  0  0  0
 84164  1  0  0  0
 85 92  1  0  0  0
 85165  1  0  0  0
 85166  1  0  0  0
 87167  1  0  0  0
 87168  1  0  0  0
 88169  1  0  0  0
 88170  1  0  0  0
 89171  1  0  0  0
 90172  1  0  0  0
M  CHG  1  88   1
M  ISO  4   1 100  68 101  84 101  89 100
M  END
> <chiral flag>
0

> <version>
0

> <s_m_source_file>
/data/baiqing/PycharmProjects/Reinvent-master-3.2/result/LINK_invent/BTK/process_docking_weight1_custom_product_contain_oxygen_bond_distance_aromatic_linkinvent_7_9_3/rearranged_h_0064.sdf

> <i_m_source_file_index>
86

> <r_mmod_Potential_Energy-OPLS-2005>
910.296020507812

> <r_mmod_Stretch_Energy-OPLS-2005>
367.257598876953

> <r_mmod_Bend_Energy-OPLS-2005>
417.719757080078

> <r_mmod_Torsional_Energy-OPLS-2005>
588.789489746094

> <r_mmod_Improper_Torsional_Energy-OPLS-2005>
62.3268203735352

> <r_mmod_Van_der_Waal_Energy-OPLS-2005>
148.163330078125

> <r_mmod_Electrostatic_Energy-OPLS-2005>
-485.185882568359

> <r_mmod_Solvation_Energy-OPLS-2005>
-438.028594970703

> <b_mmod_Minimization_Converged-OPLS-2005>
0

> <r_mmod_RMS_Derivative-OPLS-2005>
7.63262844085693

$$$$
87
                    3D
 Structure written by MMmdl.
154162  0  0  1  0            999 V2000
  -30.7249  -14.4759   20.5726 C   0  0  0  0  0  0
  -30.4145  -12.3115   19.4256 C   0  0  0  0  0  0
  -29.4911  -12.4991   18.2062 C   0  0  0  0  0  0
  -28.0132  -12.3622   18.6199 C   0  0  0  0  0  0
  -27.6577  -13.2118   19.8695 C   0  0  2  0  0  0
  -28.7011  -13.0209   20.9936 C   0  0  0  0  0  0
  -25.2574  -13.8174   20.5682 C   0  0  0  0  0  0
  -24.1835  -13.0443   20.9185 C   0  0  0  0  0  0
  -24.6395  -11.6910   20.8736 C   0  0  0  0  0  0
  -23.9064  -10.4294   21.0409 C   0  0  0  0  0  0
  -24.3616   -9.4209   21.9188 C   0  0  0  0  0  0
  -23.6290   -8.2244   22.0755 C   0  0  0  0  0  0
  -22.4273   -8.0285   21.3545 C   0  0  0  0  0  0
  -21.9914   -9.0257   20.4644 C   0  0  0  0  0  0
  -22.7239  -10.2137   20.3055 C   0  0  0  0  0  0
  -21.6851   -6.0739   22.5279 C   0  0  0  0  0  0
  -21.4012   -6.5642   23.8213 C   0  0  0  0  0  0
  -21.3658   -5.6794   24.9175 C   0  0  0  0  0  0
  -21.6044   -4.3058   24.7225 C   0  0  0  0  0  0
  -21.8820   -3.8151   23.4346 C   0  0  0  0  0  0
  -21.9192   -4.6967   22.3402 C   0  0  0  0  0  0
  -22.7860  -13.5236   21.1854 C   0  0  0  0  0  0
  -22.1662   -4.2152   21.0979 F   0  0  0  0  0  0
  -21.5629   -3.4542   25.7737 F   0  0  0  0  0  0
  -30.0280  -13.3148   20.4309 N   0  0  0  0  0  0
  -26.3007  -12.9352   20.3352 N   0  0  0  0  0  0
  -25.9321  -11.6507   20.5765 N   0  0  0  0  0  0
  -22.0507  -12.8218   22.0405 N   0  0  0  0  0  0
  -25.4294  -15.1894   20.4081 N   0  0  0  0  0  0
  -31.8599  -14.6200   20.1097 O   0  0  0  0  0  0
  -21.6638   -6.8881   21.4241 O   0  0  0  0  0  0
  -22.3544  -14.5547   20.6708 O   0  0  0  0  0  0
  -24.6175  -31.8680   23.2113 C   0  0  0  0  0  0
  -25.9064  -32.4821   23.8408 C   0  0  1  0  0  0
  -27.2230  -27.4091   20.0931 C   0  0  0  0  0  0
  -25.5913  -33.8621   24.2336 N   0  0  0  0  0  0
  -23.4052  -30.4949   21.5532 C   0  0  2  0  0  0
  -24.8485  -28.9664   20.1110 C   0  0  0  0  0  0
  -22.7424  -29.4664   22.4984 C   0  0  0  0  0  0
  -18.0275  -28.1380   22.8497 C   0  0  0  0  0  0
  -24.1487  -36.7309   23.2641 C   0  0  0  0  0  0
  -25.9393  -30.8250   21.3705 C   0  0  0  0  0  0
  -26.0133  -29.4610   20.7110 C   0  0  0  0  0  0
  -27.2031  -28.6908   20.6988 C   0  0  0  0  0  0
  -26.0372  -26.9509   19.4672 C   0  0  0  0  0  0
  -24.8574  -27.7120   19.4846 C   0  0  0  0  0  0
  -23.6127  -29.8351   20.1657 C   0  0  0  0  0  0
  -25.4109  -36.3112   24.0339 C   0  0  1  0  0  0
  -20.5870  -28.3676   23.1310 C   0  0  2  0  0  0
  -20.6766  -26.9410   22.5414 C   0  0  0  0  0  0
  -19.5738  -26.6385   21.5215 C   0  0  0  0  0  0
  -18.1919  -26.7927   22.1626 C   0  0  0  0  0  0
  -19.1527  -28.8845   23.2898 C   0  0  0  0  0  0
  -18.9452  -30.1452   23.8905 C   0  0  0  0  0  0
  -17.6455  -30.6589   24.0564 C   0  0  0  0  0  0
  -25.9038  -34.9476   23.5132 C   0  0  0  0  0  0
  -16.5345  -29.9089   23.6330 C   0  0  0  0  0  0
  -16.7263  -28.6504   23.0355 C   0  0  0  0  0  0
  -26.4481  -31.6598   25.0740 C   0  0  0  0  0  0
  -25.3737  -31.3685   26.1473 C   0  0  0  0  0  0
  -27.0334  -30.3048   24.6131 C   0  0  0  0  0  0
  -27.6052  -32.4324   25.7505 C   0  0  0  0  0  0
  -27.5582  -37.1808   24.8468 C   0  0  0  0  0  0
  -21.4151  -29.3041   22.3718 N   0  0  0  0  0  0
  -26.4298  -37.3797   23.9409 N   0  0  0  0  0  0
  -24.6726  -31.0766   22.1027 N   0  0  0  0  0  0
  -23.4190  -28.8195   23.3023 O   0  0  0  0  0  0
  -28.3698  -26.6268   20.1398 O   0  0  0  0  0  0
  -26.5596  -34.8927   22.4690 O   0  0  0  0  0  0
  -23.5360  -32.1444   23.7492 O   0  0  0  0  0  0
  -32.3618  -18.2138   22.3260 C   0  0  0  0  0  0
  -31.6787  -19.3798   21.9369 C   0  0  0  0  0  0
  -31.8242  -16.9463   22.0475 C   0  0  0  0  0  0
  -29.8919  -18.0102   21.0063 C   0  0  0  0  0  0
  -30.4306  -19.3036   21.2693 C   0  0  0  0  0  0
  -30.5904  -16.8247   21.3706 C   0  0  0  0  0  0
  -29.9674  -21.7907   20.9767 C   0  0  0  0  0  0
  -28.9618  -22.7790   20.3497 C   0  0  0  0  0  0
  -29.2974  -24.2959   20.5163 C   0  0  0  0  0  0
  -28.1820  -25.2051   19.9495 C   0  0  0  0  0  0
  -29.6984  -20.4679   20.8360 N   0  0  0  0  0  0
  -30.0502  -15.5250   21.0947 N   0  0  0  0  0  0
  -30.9474  -22.2404   21.5735 O   0  0  0  0  0  0
  -31.4601  -12.3951   19.1240 H   0  0  0  0  0  0
  -30.3055  -11.3077   19.8391 H   0  0  0  0  0  0
  -29.7316  -11.7660   17.4350 H   0  0  0  0  0  0
  -29.6607  -13.4807   17.7602 H   0  0  0  0  0  0
  -27.8242  -11.3075   18.8235 H   0  0  0  0  0  0
  -27.3627  -12.6302   17.7866 H   0  0  0  0  0  0
  -27.6938  -14.2556   19.5566 H   0  0  0  0  0  0
  -28.6796  -11.9950   21.3645 H   0  0  0  0  0  0
  -28.4660  -13.6492   21.8540 H   0  0  0  0  0  0
  -25.2761   -9.5687   22.4761 H   0  0  0  0  0  0
  -24.0002   -7.4638   22.7476 H   0  0  0  0  0  0
  -21.0849   -8.8774   19.8947 H   0  0  0  0  0  0
  -22.3701  -10.9676   19.6161 H   0  0  0  0  0  0
  -21.2005   -7.6151   23.9716 H   0  0  0  0  0  0
  -21.1479   -6.0526   25.9077 H   0  0  0  0  0  0
  -22.0601   -2.7614   23.2844 H   0  0  0  0  0  0
  -22.4124  -11.9861   22.4760 H   0  0  0  0  0  0
  -21.1129  -13.1243   22.2632 H   0  0  0  0  0  0
  -24.6633  -15.8459   20.5134 H   0  0  0  0  0  0
  -26.2799  -15.6257   20.0751 H   0  0  0  0  0  0
  -26.7130  -32.5527   23.1167 H   0  0  0  0  0  0
  -25.0075  -33.9782   25.0487 H   0  0  0  0  0  0
  -22.6944  -31.3130   21.4179 H   0  0  0  0  0  0
  -23.3758  -35.9633   23.3305 H   0  0  0  0  0  0
  -24.3574  -36.8926   22.2053 H   0  0  0  0  0  0
  -23.7230  -37.6510   23.6655 H   0  0  0  0  0  0
  -26.0600  -31.5943   20.6063 H   0  0  0  0  0  0
  -26.8241  -30.8712   21.9935 H   0  0  0  0  0  0
  -28.0986  -29.0652   21.1752 H   0  0  0  0  0  0
  -25.9925  -25.9991   18.9587 H   0  0  0  0  0  0
  -23.9649  -27.3288   19.0090 H   0  0  0  0  0  0
  -23.7214  -30.6138   19.4097 H   0  0  0  0  0  0
  -22.7348  -29.2583   19.8690 H   0  0  0  0  0  0
  -25.1284  -36.1980   25.0833 H   0  0  0  0  0  0
  -20.9961  -28.3245   24.1430 H   0  0  0  0  0  0
  -20.5684  -26.2279   23.3602 H   0  0  0  0  0  0
  -21.6634  -26.7459   22.1197 H   0  0  0  0  0  0
  -19.6900  -25.6299   21.1235 H   0  0  0  0  0  0
  -19.6675  -27.3198   20.6749 H   0  0  0  0  0  0
  -17.4193  -26.6696   21.4021 H   0  0  0  0  0  0
  -18.0304  -26.0064   22.9015 H   0  0  0  0  0  0
  -19.7930  -30.7267   24.2272 H   0  0  0  0  0  0
  -17.5013  -31.6269   24.5168 H   0  0  0  0  0  0
  -15.5345  -30.2993   23.7650 H   0  0  0  0  0  0
  -15.8665  -28.0822   22.7066 H   0  0  0  0  0  0
  -24.5923  -30.7027   25.7791 H   0  0  0  0  0  0
  -24.8910  -32.2829   26.4934 H   0  0  0  0  0  0
  -25.8086  -30.8839   27.0225 H   0  0  0  0  0  0
  -26.2896  -29.6789   24.1192 H   0  0  0  0  0  0
  -27.4118  -29.7302   25.4596 H   0  0  0  0  0  0
  -27.8719  -30.4377   23.9290 H   0  0  0  0  0  0
  -27.2672  -33.3617   26.2105 H   0  0  0  0  0  0
  -28.3848  -32.6898   25.0322 H   0  0  0  0  0  0
  -28.0738  -31.8438   26.5402 H   0  0  0  0  0  0
  -28.2601  -38.0107   24.7534 H   0  0  0  0  0  0
  -28.1082  -36.2640   24.6284 H   0  0  0  0  0  0
  -27.2295  -37.1449   25.8870 H   0  0  0  0  0  0
  -20.9308  -29.8772   21.6950 H   0  0  0  0  0  0
  -26.0191  -38.2877   24.1413 H   0  0  0  0  0  0
  -33.3101  -18.2927   22.8387 H   0  0  0  0  0  0
  -32.1516  -20.3206   22.1691 H   0  0  0  0  0  0
  -32.3733  -16.0678   22.3580 H   0  0  0  0  0  0
  -28.9424  -17.9244   20.4971 H   0  0  0  0  0  0
  -27.9860  -22.5773   20.7934 H   0  0  0  0  0  0
  -28.8721  -22.5442   19.2886 H   0  0  0  0  0  0
  -30.2427  -24.5241   20.0228 H   0  0  0  0  0  0
  -29.4366  -24.5237   21.5737 H   0  0  0  0  0  0
  -27.2592  -24.8875   20.4387 H   0  0  0  0  0  0
  -28.0679  -25.0057   18.8828 H   0  0  0  0  0  0
  -28.8428  -20.2730   20.3335 H   0  0  0  0  0  0
  -29.0649  -15.3863   21.2601 H   0  0  0  0  0  0
  1 25  1  0  0  0
  1 30  2  0  0  0
  1 82  1  0  0  0
  2  3  1  0  0  0
  2 25  1  0  0  0
  2 84  1  0  0  0
  2 85  1  0  0  0
  3  4  1  0  0  0
  3 86  1  0  0  0
  3 87  1  0  0  0
  4  5  1  0  0  0
  4 88  1  0  0  0
  4 89  1  0  0  0
  5  6  1  0  0  0
  5 26  1  0  0  0
  5 90  1  0  0  0
  6 25  1  0  0  0
  6 91  1  0  0  0
  6 92  1  0  0  0
  7  8  2  0  0  0
  7 26  1  0  0  0
  7 29  1  0  0  0
  8  9  1  0  0  0
  8 22  1  0  0  0
  9 10  1  0  0  0
  9 27  2  0  0  0
 10 11  2  0  0  0
 10 15  1  0  0  0
 11 12  1  0  0  0
 11 93  1  0  0  0
 12 13  2  0  0  0
 12 94  1  0  0  0
 13 14  1  0  0  0
 13 31  1  0  0  0
 14 15  2  0  0  0
 14 95  1  0  0  0
 15 96  1  0  0  0
 16 17  2  0  0  0
 16 21  1  0  0  0
 16 31  1  0  0  0
 17 18  1  0  0  0
 17 97  1  0  0  0
 18 19  2  0  0  0
 18 98  1  0  0  0
 19 20  1  0  0  0
 19 24  1  0  0  0
 20 21  2  0  0  0
 20 99  1  0  0  0
 21 23  1  0  0  0
 22 28  1  0  0  0
 22 32  2  0  0  0
 26 27  1  0  0  0
 28100  1  0  0  0
 28101  1  0  0  0
 29102  1  0  0  0
 29103  1  0  0  0
 33 34  1  0  0  0
 33 66  1  0  0  0
 33 70  2  0  0  0
 34 36  1  0  0  0
 34 59  1  0  0  0
 34104  1  0  0  0
 35 44  2  0  0  0
 35 45  1  0  0  0
 35 68  1  0  0  0
 36 56  1  0  0  0
 36105  1  0  0  0
 37 39  1  0  0  0
 37 47  1  0  0  0
 37 66  1  0  0  0
 37106  1  0  0  0
 38 43  2  0  0  0
 38 46  1  0  0  0
 38 47  1  0  0  0
 39 64  1  0  0  0
 39 67  2  0  0  0
 40 52  1  0  0  0
 40 53  2  0  0  0
 40 58  1  0  0  0
 41107  1  0  0  0
 41108  1  0  0  0
 41109  1  0  0  0
 41 48  1  0  0  0
 42 43  1  0  0  0
 42 66  1  0  0  0
 42110  1  0  0  0
 42111  1  0  0  0
 43 44  1  0  0  0
 44112  1  0  0  0
 45 46  2  0  0  0
 45113  1  0  0  0
 46114  1  0  0  0
 47115  1  0  0  0
 47116  1  0  0  0
 48 56  1  0  0  0
 48 65  1  0  0  0
 48117  1  0  0  0
 49 50  1  0  0  0
 49 53  1  0  0  0
 49 64  1  0  0  0
 49118  1  0  0  0
 50 51  1  0  0  0
 50119  1  0  0  0
 50120  1  0  0  0
 51 52  1  0  0  0
 51121  1  0  0  0
 51122  1  0  0  0
 52123  1  0  0  0
 52124  1  0  0  0
 53 54  1  0  0  0
 54 55  2  0  0  0
 54125  1  0  0  0
 55 57  1  0  0  0
 55126  1  0  0  0
 56 69  2  0  0  0
 57 58  2  0  0  0
 57127  1  0  0  0
 58128  1  0  0  0
 59 60  1  0  0  0
 59 61  1  0  0  0
 59 62  1  0  0  0
 60129  1  0  0  0
 60130  1  0  0  0
 60131  1  0  0  0
 61132  1  0  0  0
 61133  1  0  0  0
 61134  1  0  0  0
 62135  1  0  0  0
 62136  1  0  0  0
 62137  1  0  0  0
 63 65  1  0  0  0
 63138  1  0  0  0
 63139  1  0  0  0
 63140  1  0  0  0
 64141  1  0  0  0
 65142  1  0  0  0
 68 80  1  0  0  0
 71 72  2  0  0  0
 71 73  1  0  0  0
 71143  1  0  0  0
 72 75  1  0  0  0
 72144  1  0  0  0
 73 76  2  0  0  0
 73145  1  0  0  0
 74 75  2  0  0  0
 74 76  1  0  0  0
 74146  1  0  0  0
 75 81  1  0  0  0
 76 82  1  0  0  0
 77 78  1  0  0  0
 77 81  1  0  0  0
 77 83  2  0  0  0
 78 79  1  0  0  0
 78147  1  0  0  0
 78148  1  0  0  0
 79 80  1  0  0  0
 79149  1  0  0  0
 79150  1  0  0  0
 80151  1  0  0  0
 80152  1  0  0  0
 81153  1  0  0  0
 82154  1  0  0  0
M  ISO  4   1 100  68 101  80 101  82 100
M  END
> <chiral flag>
0

> <version>
0

> <s_m_source_file>
/data/baiqing/PycharmProjects/Reinvent-master-3.2/result/LINK_invent/BTK/process_docking_weight1_custom_product_contain_oxygen_bond_distance_aromatic_linkinvent_7_9_3/rearranged_h_0064.sdf

> <i_m_source_file_index>
87

> <r_mmod_Potential_Energy-OPLS-2005>
-82.9036636352539

> <r_mmod_Stretch_Energy-OPLS-2005>
43.5146064758301

> <r_mmod_Bend_Energy-OPLS-2005>
102.434417724609

> <r_mmod_Torsional_Energy-OPLS-2005>
222.946380615234

> <r_mmod_Improper_Torsional_Energy-OPLS-2005>
3.56133818626404

> <r_mmod_Van_der_Waal_Energy-OPLS-2005>
167.015167236328

> <r_mmod_Electrostatic_Energy-OPLS-2005>
-401.277069091797

> <r_mmod_Solvation_Energy-OPLS-2005>
-238.666366577148

> <b_mmod_Minimization_Converged-OPLS-2005>
0

> <r_mmod_RMS_Derivative-OPLS-2005>
0.538797676563263

$$$$
88
                    3D
 Structure written by MMmdl.
159168  0  0  1  0            999 V2000
  -30.6418  -14.7576   20.4627 C   0  0  0  0  0  0
  -30.4177  -12.4624   19.4869 C   0  0  0  0  0  0
  -29.5056  -12.5024   18.2433 C   0  0  0  0  0  0
  -28.0339  -12.3265   18.6572 C   0  0  0  0  0  0
  -27.6368  -13.2389   19.8492 C   0  0  2  0  0  0
  -28.6786  -13.2022   20.9882 C   0  0  0  0  0  0
  -25.2478  -13.8220   20.5711 C   0  0  0  0  0  0
  -24.1784  -13.0450   20.9223 C   0  0  0  0  0  0
  -24.6383  -11.6929   20.8755 C   0  0  0  0  0  0
  -23.9071  -10.4300   21.0410 C   0  0  0  0  0  0
  -24.3618   -9.4209   21.9185 C   0  0  0  0  0  0
  -23.6289   -8.2244   22.0754 C   0  0  0  0  0  0
  -22.4278   -8.0283   21.3537 C   0  0  0  0  0  0
  -21.9915   -9.0262   20.4644 C   0  0  0  0  0  0
  -22.7244  -10.2141   20.3058 C   0  0  0  0  0  0
  -21.6855   -6.0737   22.5276 C   0  0  0  0  0  0
  -21.4012   -6.5638   23.8210 C   0  0  0  0  0  0
  -21.3657   -5.6788   24.9173 C   0  0  0  0  0  0
  -21.6051   -4.3055   24.7223 C   0  0  0  0  0  0
  -21.8815   -3.8147   23.4344 C   0  0  0  0  0  0
  -21.9190   -4.6964   22.3399 C   0  0  0  0  0  0
  -22.7804  -13.5223   21.1869 C   0  0  0  0  0  0
  -22.1661   -4.2147   21.0977 F   0  0  0  0  0  0
  -21.5628   -3.4540   25.7736 F   0  0  0  0  0  0
  -29.9781  -13.5474   20.4016 N   0  0  0  0  0  0
  -26.2909  -12.9437   20.3289 N   0  0  0  0  0  0
  -25.9313  -11.6572   20.5770 N   0  0  0  0  0  0
  -22.0454  -12.8209   22.0429 N   0  0  0  0  0  0
  -25.4157  -15.1944   20.4119 N   0  0  0  0  0  0
  -31.8284  -14.7707   20.1328 O   0  0  0  0  0  0
  -21.6641   -6.8882   21.4241 O   0  0  0  0  0  0
  -22.3488  -14.5531   20.6718 O   0  0  0  0  0  0
  -24.6341  -31.8549   23.2017 C   0  0  0  0  0  0
  -25.9170  -32.4750   23.8341 C   0  0  1  0  0  0
  -27.1976  -27.2257   20.1233 C   0  0  0  0  0  0
  -25.5948  -33.8550   24.2247 N   0  0  0  0  0  0
  -23.4300  -30.4833   21.5457 C   0  0  2  0  0  0
  -24.8739  -28.9391   20.1046 C   0  0  0  0  0  0
  -22.7510  -29.4611   22.4909 C   0  0  0  0  0  0
  -18.0286  -28.1381   22.8479 C   0  0  0  0  0  0
  -24.1488  -36.7287   23.2638 C   0  0  0  0  0  0
  -25.9800  -30.7536   21.3926 C   0  0  0  0  0  0
  -26.0473  -29.3760   20.7317 C   0  0  0  0  0  0
  -27.2068  -28.5265   20.7441 C   0  0  0  0  0  0
  -26.0139  -26.9041   19.4144 C   0  0  0  0  0  0
  -24.8654  -27.7123   19.4333 C   0  0  0  0  0  0
  -23.6477  -29.8294   20.1582 C   0  0  0  0  0  0
  -25.4111  -36.3064   24.0322 C   0  0  1  0  0  0
  -20.5889  -28.3705   23.1253 C   0  0  2  0  0  0
  -20.6783  -26.9418   22.5401 C   0  0  0  0  0  0
  -19.5761  -26.6381   21.5203 C   0  0  0  0  0  0
  -18.1933  -26.7921   22.1614 C   0  0  0  0  0  0
  -19.1537  -28.8858   23.2863 C   0  0  0  0  0  0
  -18.9469  -30.1456   23.8890 C   0  0  0  0  0  0
  -17.6473  -30.6594   24.0557 C   0  0  0  0  0  0
  -25.9061  -34.9438   23.5091 C   0  0  0  0  0  0
  -16.5363  -29.9089   23.6336 C   0  0  0  0  0  0
  -16.7274  -28.6500   23.0366 C   0  0  0  0  0  0
  -26.4512  -31.6578   25.0746 C   0  0  0  0  0  0
  -25.3719  -31.3738   26.1453 C   0  0  0  0  0  0
  -27.0372  -30.2984   24.6277 C   0  0  0  0  0  0
  -27.6057  -32.4337   25.7519 C   0  0  0  0  0  0
  -27.5577  -37.1791   24.8457 C   0  0  0  0  0  0
  -21.4216  -29.3055   22.3645 N   0  0  0  0  0  0
  -26.4279  -37.3767   23.9408 N   0  0  0  0  0  0
  -24.7003  -31.0487   22.1019 N   0  0  0  0  0  0
  -23.4194  -28.8133   23.3009 O   0  0  0  0  0  0
  -28.2477  -26.2675   20.2434 O   0  0  0  0  0  0
  -26.5641  -34.8923   22.4671 O   0  0  0  0  0  0
  -23.5487  -32.1387   23.7311 O   0  0  0  0  0  0
  -31.3586  -20.1121   20.4650 C   0  0  0  0  0  0
  -31.7488  -17.6970   20.5442 C   0  0  0  0  0  0
  -28.2349  -23.0400   21.7282 C   0  0  0  0  0  0
  -29.4846  -18.5664   20.6732 C   0  0  0  0  0  0
  -32.2458  -19.0186   20.4724 C   0  0  0  0  0  0
  -28.5462  -23.4961   20.4068 C   0  0  0  0  0  0
  -29.9681  -19.9490   20.5930 C   0  0  0  0  0  0
  -30.3658  -17.3917   20.6256 C   0  0  0  0  0  0
  -28.6375  -21.7289   21.8847 C   0  0  0  0  0  0
  -29.1524  -22.3592   19.8464 C   0  0  0  0  0  0
  -33.7086  -19.2897   20.3932 C   0  0  0  0  0  0
  -34.6583  -18.1857   20.8455 C   0  0  0  0  0  0
  -28.0650  -24.8571   19.7106 C   0  0  0  0  0  0
  -29.2359  -21.2372   20.7296 N   0  0  0  0  0  0
  -29.9337  -15.9485   20.6834 N   0  0  0  0  0  0
  -34.1808  -20.3675   20.0201 O   0  0  0  0  0  0
  -28.5360  -20.9414   22.9917 O   0  0  0  0  0  0
  -29.6269  -22.2339   18.5758 O   0  0  0  0  0  0
  -31.4610  -12.5608   19.1841 H   0  0  0  0  0  0
  -30.3473  -11.4948   19.9864 H   0  0  0  0  0  0
  -29.7916  -11.7201   17.5396 H   0  0  0  0  0  0
  -29.6317  -13.4498   17.7182 H   0  0  0  0  0  0
  -27.8975  -11.2802   18.9341 H   0  0  0  0  0  0
  -27.3752  -12.5033   17.8060 H   0  0  0  0  0  0
  -27.6246  -14.2553   19.4549 H   0  0  0  0  0  0
  -28.7171  -12.2155   21.4535 H   0  0  0  0  0  0
  -28.4110  -13.9043   21.7795 H   0  0  0  0  0  0
  -25.2763   -9.5686   22.4759 H   0  0  0  0  0  0
  -23.9997   -7.4642   22.7473 H   0  0  0  0  0  0
  -21.0846   -8.8785   19.8947 H   0  0  0  0  0  0
  -22.3706  -10.9678   19.6167 H   0  0  0  0  0  0
  -21.2007   -7.6146   23.9711 H   0  0  0  0  0  0
  -21.1482   -6.0522   25.9075 H   0  0  0  0  0  0
  -22.0598   -2.7607   23.2846 H   0  0  0  0  0  0
  -22.4085  -11.9878   22.4815 H   0  0  0  0  0  0
  -21.1069  -13.1223   22.2632 H   0  0  0  0  0  0
  -24.6460  -15.8455   20.5224 H   0  0  0  0  0  0
  -26.2590  -15.6349   20.0676 H   0  0  0  0  0  0
  -26.7231  -32.5381   23.1070 H   0  0  0  0  0  0
  -25.0057  -33.9651   25.0367 H   0  0  0  0  0  0
  -22.7292  -31.3084   21.4072 H   0  0  0  0  0  0
  -23.3755  -35.9613   23.3282 H   0  0  0  0  0  0
  -24.3582  -36.8928   22.2056 H   0  0  0  0  0  0
  -23.7230  -37.6477   23.6681 H   0  0  0  0  0  0
  -26.1280  -31.5152   20.6251 H   0  0  0  0  0  0
  -26.8549  -30.7963   22.0289 H   0  0  0  0  0  0
  -28.0931  -28.8443   21.2750 H   0  0  0  0  0  0
  -25.9081  -26.0073   18.8268 H   0  0  0  0  0  0
  -23.9767  -27.3892   18.9078 H   0  0  0  0  0  0
  -23.7753  -30.6130   19.4098 H   0  0  0  0  0  0
  -22.7628  -29.2677   19.8503 H   0  0  0  0  0  0
  -25.1291  -36.1915   25.0812 H   0  0  0  0  0  0
  -20.9970  -28.3301   24.1376 H   0  0  0  0  0  0
  -20.5682  -26.2313   23.3613 H   0  0  0  0  0  0
  -21.6651  -26.7445   22.1194 H   0  0  0  0  0  0
  -19.6927  -25.6288   21.1248 H   0  0  0  0  0  0
  -19.6702  -27.3188   20.6733 H   0  0  0  0  0  0
  -17.4199  -26.6662   21.4028 H   0  0  0  0  0  0
  -18.0342  -26.0064   22.9014 H   0  0  0  0  0  0
  -19.7956  -30.7256   24.2265 H   0  0  0  0  0  0
  -17.5043  -31.6278   24.5164 H   0  0  0  0  0  0
  -15.5363  -30.3000   23.7674 H   0  0  0  0  0  0
  -15.8667  -28.0826   22.7095 H   0  0  0  0  0  0
  -24.5915  -30.7064   25.7774 H   0  0  0  0  0  0
  -24.8893  -32.2912   26.4845 H   0  0  0  0  0  0
  -25.8022  -30.8944   27.0254 H   0  0  0  0  0  0
  -26.2972  -29.6709   24.1288 H   0  0  0  0  0  0
  -27.3994  -29.7276   25.4831 H   0  0  0  0  0  0
  -27.8879  -30.4219   23.9571 H   0  0  0  0  0  0
  -27.2656  -33.3652   26.2051 H   0  0  0  0  0  0
  -28.3884  -32.6861   25.0358 H   0  0  0  0  0  0
  -28.0701  -31.8496   26.5468 H   0  0  0  0  0  0
  -28.2571  -38.0115   24.7547 H   0  0  0  0  0  0
  -28.1099  -36.2649   24.6235 H   0  0  0  0  0  0
  -27.2307  -37.1376   25.8861 H   0  0  0  0  0  0
  -20.9403  -29.8792   21.6865 H   0  0  0  0  0  0
  -26.0170  -38.2832   24.1449 H   0  0  0  0  0  0
  -31.7615  -21.1156   20.4205 H   0  0  0  0  0  0
  -32.4803  -16.9099   20.5456 H   0  0  0  0  0  0
  -27.7218  -23.6186   22.4840 H   0  0  0  0  0  0
  -28.4207  -18.4124   20.7849 H   0  0  0  0  0  0
  -34.3099  -17.7514   21.7830 H   0  0  0  0  0  0
  -35.6589  -18.5853   21.0090 H   0  0  0  0  0  0
  -34.7143  -17.3998   20.0937 H   0  0  0  0  0  0
  -27.0099  -24.6099   19.6824 H   0  0  0  0  0  0
  -28.4037  -24.8481   18.6739 H   0  0  0  0  0  0
  -28.9508  -15.8031   20.8600 H   0  0  0  0  0  0
  -28.1339  -21.4582   23.6839 H   0  0  0  0  0  0
  -29.8979  -21.3298   18.4514 H   0  0  0  0  0  0
  1 25  1  0  0  0
  1 30  2  0  0  0
  1 85  1  0  0  0
  2  3  1  0  0  0
  2 25  1  0  0  0
  2 89  1  0  0  0
  2 90  1  0  0  0
  3  4  1  0  0  0
  3 91  1  0  0  0
  3 92  1  0  0  0
  4  5  1  0  0  0
  4 93  1  0  0  0
  4 94  1  0  0  0
  5  6  1  0  0  0
  5 26  1  0  0  0
  5 95  1  0  0  0
  6 25  1  0  0  0
  6 96  1  0  0  0
  6 97  1  0  0  0
  7  8  2  0  0  0
  7 26  1  0  0  0
  7 29  1  0  0  0
  8  9  1  0  0  0
  8 22  1  0  0  0
  9 10  1  0  0  0
  9 27  2  0  0  0
 10 11  2  0  0  0
 10 15  1  0  0  0
 11 12  1  0  0  0
 11 98  1  0  0  0
 12 13  2  0  0  0
 12 99  1  0  0  0
 13 14  1  0  0  0
 13 31  1  0  0  0
 14 15  2  0  0  0
 14100  1  0  0  0
 15101  1  0  0  0
 16 17  2  0  0  0
 16 21  1  0  0  0
 16 31  1  0  0  0
 17 18  1  0  0  0
 17102  1  0  0  0
 18 19  2  0  0  0
 18103  1  0  0  0
 19 20  1  0  0  0
 19 24  1  0  0  0
 20 21  2  0  0  0
 20104  1  0  0  0
 21 23  1  0  0  0
 22 28  1  0  0  0
 22 32  2  0  0  0
 26 27  1  0  0  0
 28105  1  0  0  0
 28106  1  0  0  0
 29107  1  0  0  0
 29108  1  0  0  0
 33 34  1  0  0  0
 33 66  1  0  0  0
 33 70  2  0  0  0
 34 36  1  0  0  0
 34 59  1  0  0  0
 34109  1  0  0  0
 35 44  2  0  0  0
 35 45  1  0  0  0
 35 68  1  0  0  0
 36 56  1  0  0  0
 36110  1  0  0  0
 37 39  1  0  0  0
 37 47  1  0  0  0
 37 66  1  0  0  0
 37111  1  0  0  0
 38 43  2  0  0  0
 38 46  1  0  0  0
 38 47  1  0  0  0
 39 64  1  0  0  0
 39 67  2  0  0  0
 40 52  1  0  0  0
 40 53  2  0  0  0
 40 58  1  0  0  0
 41112  1  0  0  0
 41113  1  0  0  0
 41114  1  0  0  0
 41 48  1  0  0  0
 42 43  1  0  0  0
 42 66  1  0  0  0
 42115  1  0  0  0
 42116  1  0  0  0
 43 44  1  0  0  0
 44117  1  0  0  0
 45 46  2  0  0  0
 45118  1  0  0  0
 46119  1  0  0  0
 47120  1  0  0  0
 47121  1  0  0  0
 48 56  1  0  0  0
 48 65  1  0  0  0
 48122  1  0  0  0
 49 50  1  0  0  0
 49 53  1  0  0  0
 49 64  1  0  0  0
 49123  1  0  0  0
 50 51  1  0  0  0
 50124  1  0  0  0
 50125  1  0  0  0
 51 52  1  0  0  0
 51126  1  0  0  0
 51127  1  0  0  0
 52128  1  0  0  0
 52129  1  0  0  0
 53 54  1  0  0  0
 54 55  2  0  0  0
 54130  1  0  0  0
 55 57  1  0  0  0
 55131  1  0  0  0
 56 69  2  0  0  0
 57 58  2  0  0  0
 57132  1  0  0  0
 58133  1  0  0  0
 59 60  1  0  0  0
 59 61  1  0  0  0
 59 62  1  0  0  0
 60134  1  0  0  0
 60135  1  0  0  0
 60136  1  0  0  0
 61137  1  0  0  0
 61138  1  0  0  0
 61139  1  0  0  0
 62140  1  0  0  0
 62141  1  0  0  0
 62142  1  0  0  0
 63 65  1  0  0  0
 63143  1  0  0  0
 63144  1  0  0  0
 63145  1  0  0  0
 64146  1  0  0  0
 65147  1  0  0  0
 68 83  1  0  0  0
 71 75  2  0  0  0
 71 77  1  0  0  0
 71148  1  0  0  0
 72 75  1  0  0  0
 72 78  2  0  0  0
 72149  1  0  0  0
 73 76  1  0  0  0
 73 79  2  0  0  0
 73150  1  0  0  0
 74 77  2  0  0  0
 74 78  1  0  0  0
 74151  1  0  0  0
 75 81  1  0  0  0
 76 80  2  0  0  0
 76 83  1  0  0  0
 77 84  1  0  0  0
 78 85  1  0  0  0
 79 84  1  0  0  0
 79 87  1  0  0  0
 80 84  1  0  0  0
 80 88  1  0  0  0
 81 82  1  0  0  0
 81 86  2  0  0  0
 82152  1  0  0  0
 82153  1  0  0  0
 82154  1  0  0  0
 83155  1  0  0  0
 83156  1  0  0  0
 85157  1  0  0  0
 87158  1  0  0  0
 88159  1  0  0  0
M  ISO  4   1 100  68 101  83 101  85 100
M  END
> <chiral flag>
0

> <version>
0

> <s_m_source_file>
/data/baiqing/PycharmProjects/Reinvent-master-3.2/result/LINK_invent/BTK/process_docking_weight1_custom_product_contain_oxygen_bond_distance_aromatic_linkinvent_7_9_3/rearranged_h_0064.sdf

> <i_m_source_file_index>
88

> <r_mmod_Potential_Energy-OPLS-2005>
239.069244384766

> <r_mmod_Stretch_Energy-OPLS-2005>
141.721618652344

> <r_mmod_Bend_Energy-OPLS-2005>
192.111572265625

> <r_mmod_Torsional_Energy-OPLS-2005>
263.518371582031

> <r_mmod_Improper_Torsional_Energy-OPLS-2005>
7.74152994155884

> <r_mmod_Van_der_Waal_Energy-OPLS-2005>
154.687576293945

> <r_mmod_Electrostatic_Energy-OPLS-2005>
-384.538269042969

> <r_mmod_Solvation_Energy-OPLS-2005>
-242.628158569336

> <b_mmod_Minimization_Converged-OPLS-2005>
0

> <r_mmod_RMS_Derivative-OPLS-2005>
1.93999338150024

$$$$
89
                    3D
 Structure written by MMmdl.
171180  0  0  1  0            999 V2000
  -30.6068  -14.7562   20.4774 C   0  0  0  0  0  0
  -30.4342  -12.4629   19.4929 C   0  0  0  0  0  0
  -29.5168  -12.5257   18.2494 C   0  0  0  0  0  0
  -28.0402  -12.3480   18.6506 C   0  0  0  0  0  0
  -27.6453  -13.2320   19.8632 C   0  0  2  0  0  0
  -28.6861  -13.1615   21.0040 C   0  0  0  0  0  0
  -25.2525  -13.8219   20.5701 C   0  0  0  0  0  0
  -24.1798  -13.0464   20.9172 C   0  0  0  0  0  0
  -24.6393  -11.6936   20.8727 C   0  0  0  0  0  0
  -23.9078  -10.4295   21.0380 C   0  0  0  0  0  0
  -24.3624   -9.4201   21.9159 C   0  0  0  0  0  0
  -23.6306   -8.2234   22.0748 C   0  0  0  0  0  0
  -22.4277   -8.0280   21.3542 C   0  0  0  0  0  0
  -21.9917   -9.0257   20.4638 C   0  0  0  0  0  0
  -22.7242  -10.2132   20.3040 C   0  0  0  0  0  0
  -21.6838   -6.0751   22.5283 C   0  0  0  0  0  0
  -21.3993   -6.5653   23.8216 C   0  0  0  0  0  0
  -21.3659   -5.6796   24.9174 C   0  0  0  0  0  0
  -21.6041   -4.3066   24.7219 C   0  0  0  0  0  0
  -21.8814   -3.8164   23.4329 C   0  0  0  0  0  0
  -21.9186   -4.6986   22.3397 C   0  0  0  0  0  0
  -22.7814  -13.5238   21.1839 C   0  0  0  0  0  0
  -22.1661   -4.2181   21.0972 F   0  0  0  0  0  0
  -21.5638   -3.4532   25.7725 F   0  0  0  0  0  0
  -29.9962  -13.5177   20.4415 N   0  0  0  0  0  0
  -26.2952  -12.9414   20.3328 N   0  0  0  0  0  0
  -25.9326  -11.6561   20.5760 N   0  0  0  0  0  0
  -22.0465  -12.8223   22.0399 N   0  0  0  0  0  0
  -25.4268  -15.1939   20.4198 N   0  0  0  0  0  0
  -31.7536  -14.8831   20.0393 O   0  0  0  0  0  0
  -21.6620   -6.8892   21.4251 O   0  0  0  0  0  0
  -22.3493  -14.5560   20.6723 O   0  0  0  0  0  0
  -24.6348  -31.8525   23.1967 C   0  0  0  0  0  0
  -25.9164  -32.4746   23.8321 C   0  0  1  0  0  0
  -27.2225  -27.2474   20.1310 C   0  0  0  0  0  0
  -25.5951  -33.8541   24.2256 N   0  0  0  0  0  0
  -23.4294  -30.4744   21.5415 C   0  0  2  0  0  0
  -24.8738  -28.9161   20.1060 C   0  0  0  0  0  0
  -22.7514  -29.4583   22.4936 C   0  0  0  0  0  0
  -18.0287  -28.1391   22.8483 C   0  0  0  0  0  0
  -24.1472  -36.7268   23.2639 C   0  0  0  0  0  0
  -25.9736  -30.7644   21.3713 C   0  0  0  0  0  0
  -26.0435  -29.3830   20.7170 C   0  0  0  0  0  0
  -27.2148  -28.5596   20.7186 C   0  0  0  0  0  0
  -26.0239  -26.8437   19.4999 C   0  0  0  0  0  0
  -24.8718  -27.6566   19.4846 C   0  0  0  0  0  0
  -23.6441  -29.8052   20.1565 C   0  0  0  0  0  0
  -25.4099  -36.3065   24.0339 C   0  0  1  0  0  0
  -20.5889  -28.3686   23.1284 C   0  0  2  0  0  0
  -20.6764  -26.9408   22.5416 C   0  0  0  0  0  0
  -19.5744  -26.6383   21.5211 C   0  0  0  0  0  0
  -18.1921  -26.7938   22.1611 C   0  0  0  0  0  0
  -19.1540  -28.8860   23.2869 C   0  0  0  0  0  0
  -18.9458  -30.1462   23.8888 C   0  0  0  0  0  0
  -17.6453  -30.6590   24.0550 C   0  0  0  0  0  0
  -25.9050  -34.9438   23.5104 C   0  0  0  0  0  0
  -16.5345  -29.9083   23.6337 C   0  0  0  0  0  0
  -16.7265  -28.6501   23.0358 C   0  0  0  0  0  0
  -26.4517  -31.6580   25.0729 C   0  0  0  0  0  0
  -25.3742  -31.3735   26.1465 C   0  0  0  0  0  0
  -27.0347  -30.2997   24.6203 C   0  0  0  0  0  0
  -27.6090  -32.4305   25.7490 C   0  0  0  0  0  0
  -27.5577  -37.1781   24.8456 C   0  0  0  0  0  0
  -21.4214  -29.3033   22.3686 N   0  0  0  0  0  0
  -26.4262  -37.3782   23.9438 N   0  0  0  0  0  0
  -24.6995  -31.0487   22.0945 N   0  0  0  0  0  0
  -23.4212  -28.8148   23.3046 O   0  0  0  0  0  0
  -28.3427  -26.3840   20.2254 O   0  0  0  0  0  0
  -26.5611  -34.8919   22.4669 O   0  0  0  0  0  0
  -23.5496  -32.1339   23.7276 O   0  0  0  0  0  0
  -28.2972  -19.3158   18.8341 C   0  0  0  0  0  0
  -28.8409  -16.9282   19.0023 C   0  0  0  0  0  0
  -29.5937  -18.4883   20.7156 C   0  0  0  0  0  0
  -28.1777  -17.9902   18.3578 C   0  0  0  0  0  0
  -29.0085  -19.6398   20.0146 C   0  0  0  0  0  0
  -29.5278  -17.1123   20.2157 C   0  0  0  0  0  0
  -29.6806  -21.7002   21.4139 C   0  0  0  0  0  0
  -27.2689  -17.6696   17.2117 C   0  0  0  0  0  0
  -29.5352  -23.2462   21.4153 C   0  0  0  0  0  0
  -28.4007  -22.2255   19.6044 C   0  0  0  0  0  0
  -28.3941  -23.5873   20.4339 C   0  0  2  0  0  0
  -23.7084  -18.7927   17.1773 C   0  0  0  0  0  0
  -24.9882  -18.2209   15.0946 C   0  0  0  0  0  0
  -24.4137  -16.4207   16.7835 C   0  0  0  0  0  0
  -28.4412  -25.0048   19.6237 C   0  0  0  0  0  0
  -24.8151  -17.8980   16.5911 C   0  0  0  0  0  0
  -29.0294  -21.0987   20.3936 N   0  0  0  0  0  0
  -29.8963  -15.8614   20.9306 N   0  0  0  0  0  0
  -26.0402  -18.1959   17.3364 N   0  0  0  0  0  0
  -30.3405  -21.1236   22.2836 O   0  0  0  0  0  0
  -27.6159  -16.8911   16.3221 O   0  0  0  0  0  0
  -31.4787  -12.5812   19.1983 H   0  0  0  0  0  0
  -30.3735  -11.4827   19.9680 H   0  0  0  0  0  0
  -29.8048  -11.7627   17.5253 H   0  0  0  0  0  0
  -29.6436  -13.4878   17.7487 H   0  0  0  0  0  0
  -27.8862  -11.2952   18.8923 H   0  0  0  0  0  0
  -27.3919  -12.5618   17.7996 H   0  0  0  0  0  0
  -27.6361  -14.2551   19.4946 H   0  0  0  0  0  0
  -28.7155  -12.1617   21.4385 H   0  0  0  0  0  0
  -28.4070  -13.8338   21.8163 H   0  0  0  0  0  0
  -25.2769   -9.5675   22.4724 H   0  0  0  0  0  0
  -24.0013   -7.4623   22.7467 H   0  0  0  0  0  0
  -21.0830   -8.8769   19.8950 H   0  0  0  0  0  0
  -22.3697  -10.9667   19.6150 H   0  0  0  0  0  0
  -21.1976   -7.6156   23.9724 H   0  0  0  0  0  0
  -21.1498   -6.0524   25.9080 H   0  0  0  0  0  0
  -22.0602   -2.7636   23.2802 H   0  0  0  0  0  0
  -22.4089  -11.9878   22.4772 H   0  0  0  0  0  0
  -21.1090  -13.1258   22.2665 H   0  0  0  0  0  0
  -24.6661  -15.8498   20.5488 H   0  0  0  0  0  0
  -26.2953  -15.6398   20.1577 H   0  0  0  0  0  0
  -26.7242  -32.5393   23.1065 H   0  0  0  0  0  0
  -25.0145  -33.9653   25.0437 H   0  0  0  0  0  0
  -22.7263  -31.2981   21.3989 H   0  0  0  0  0  0
  -23.3750  -35.9577   23.3255 H   0  0  0  0  0  0
  -24.3583  -36.8929   22.2064 H   0  0  0  0  0  0
  -23.7181  -37.6445   23.6672 H   0  0  0  0  0  0
  -26.1050  -31.5215   20.5962 H   0  0  0  0  0  0
  -26.8554  -30.8216   21.9977 H   0  0  0  0  0  0
  -28.1094  -28.9107   21.2134 H   0  0  0  0  0  0
  -25.9318  -25.8715   19.0415 H   0  0  0  0  0  0
  -23.9753  -27.2920   19.0015 H   0  0  0  0  0  0
  -23.7614  -30.5804   19.3979 H   0  0  0  0  0  0
  -22.7604  -29.2374   19.8600 H   0  0  0  0  0  0
  -25.1272  -36.1906   25.0827 H   0  0  0  0  0  0
  -20.9971  -28.3253   24.1402 H   0  0  0  0  0  0
  -20.5652  -26.2298   23.3616 H   0  0  0  0  0  0
  -21.6641  -26.7429   22.1229 H   0  0  0  0  0  0
  -19.6900  -25.6288   21.1260 H   0  0  0  0  0  0
  -19.6697  -27.3180   20.6734 H   0  0  0  0  0  0
  -17.4207  -26.6691   21.3993 H   0  0  0  0  0  0
  -18.0296  -26.0085   22.9008 H   0  0  0  0  0  0
  -19.7932  -30.7276   24.2253 H   0  0  0  0  0  0
  -17.5008  -31.6274   24.5146 H   0  0  0  0  0  0
  -15.5343  -30.2971   23.7671 H   0  0  0  0  0  0
  -15.8663  -28.0811   22.7081 H   0  0  0  0  0  0
  -24.5940  -30.7040   25.7826 H   0  0  0  0  0  0
  -24.8893  -32.2892   26.4855 H   0  0  0  0  0  0
  -25.8084  -30.8973   27.0264 H   0  0  0  0  0  0
  -26.2918  -29.6761   24.1213 H   0  0  0  0  0  0
  -27.4016  -29.7258   25.4720 H   0  0  0  0  0  0
  -27.8806  -30.4279   23.9445 H   0  0  0  0  0  0
  -27.2737  -33.3625   26.2045 H   0  0  0  0  0  0
  -28.3904  -32.6823   25.0312 H   0  0  0  0  0  0
  -28.0745  -31.8434   26.5413 H   0  0  0  0  0  0
  -28.2568  -38.0109   24.7575 H   0  0  0  0  0  0
  -28.1099  -36.2651   24.6171 H   0  0  0  0  0  0
  -27.2323  -37.1315   25.8863 H   0  0  0  0  0  0
  -20.9407  -29.8747   21.6877 H   0  0  0  0  0  0
  -26.0137  -38.2846   24.1475 H   0  0  0  0  0  0
  -27.8000  -20.0904   18.2693 H   0  0  0  0  0  0
  -28.7264  -15.9346   18.5948 H   0  0  0  0  0  0
  -30.0871  -18.6568   21.6606 H   0  0  0  0  0  0
  -30.4767  -23.6822   21.0825 H   0  0  0  0  0  0
  -29.3281  -23.6175   22.4197 H   0  0  0  0  0  0
  -28.9870  -22.3528   18.6926 H   0  0  0  0  0  0
  -27.3828  -21.9761   19.3030 H   0  0  0  0  0  0
  -27.4680  -23.5939   21.0112 H   0  0  0  0  0  0
  -22.7548  -18.6346   16.6713 H   0  0  0  0  0  0
  -23.9544  -19.8515   17.0812 H   0  0  0  0  0  0
  -23.5466  -18.5904   18.2379 H   0  0  0  0  0  0
  -24.0401  -18.1314   14.5620 H   0  0  0  0  0  0
  -25.6892  -17.5407   14.6092 H   0  0  0  0  0  0
  -25.3544  -19.2374   14.9424 H   0  0  0  0  0  0
  -23.4955  -16.1849   16.2437 H   0  0  0  0  0  0
  -24.2436  -16.1841   17.8347 H   0  0  0  0  0  0
  -25.1818  -15.7377   16.4208 H   0  0  0  0  0  0
  -27.7561  -24.9218   18.7833 H   0  0  0  0  0  0
  -29.4135  -25.0178   19.1297 H   0  0  0  0  0  0
  -29.1793  -15.5789   21.5813 H   0  0  0  0  0  0
  -25.9246  -18.8056   18.1338 H   0  0  0  0  0  0
  1 25  1  0  0  0
  1 30  2  0  0  0
  1 88  1  0  0  0
  2  3  1  0  0  0
  2 25  1  0  0  0
  2 92  1  0  0  0
  2 93  1  0  0  0
  3  4  1  0  0  0
  3 94  1  0  0  0
  3 95  1  0  0  0
  4  5  1  0  0  0
  4 96  1  0  0  0
  4 97  1  0  0  0
  5  6  1  0  0  0
  5 26  1  0  0  0
  5 98  1  0  0  0
  6 25  1  0  0  0
  6 99  1  0  0  0
  6100  1  0  0  0
  7  8  2  0  0  0
  7 26  1  0  0  0
  7 29  1  0  0  0
  8  9  1  0  0  0
  8 22  1  0  0  0
  9 10  1  0  0  0
  9 27  2  0  0  0
 10 11  2  0  0  0
 10 15  1  0  0  0
 11 12  1  0  0  0
 11101  1  0  0  0
 12 13  2  0  0  0
 12102  1  0  0  0
 13 14  1  0  0  0
 13 31  1  0  0  0
 14 15  2  0  0  0
 14103  1  0  0  0
 15104  1  0  0  0
 16 17  2  0  0  0
 16 21  1  0  0  0
 16 31  1  0  0  0
 17 18  1  0  0  0
 17105  1  0  0  0
 18 19  2  0  0  0
 18106  1  0  0  0
 19 20  1  0  0  0
 19 24  1  0  0  0
 20 21  2  0  0  0
 20107  1  0  0  0
 21 23  1  0  0  0
 22 28  1  0  0  0
 22 32  2  0  0  0
 26 27  1  0  0  0
 28108  1  0  0  0
 28109  1  0  0  0
 29110  1  0  0  0
 29111  1  0  0  0
 33 34  1  0  0  0
 33 66  1  0  0  0
 33 70  2  0  0  0
 34 36  1  0  0  0
 34 59  1  0  0  0
 34112  1  0  0  0
 35 44  2  0  0  0
 35 45  1  0  0  0
 35 68  1  0  0  0
 36 56  1  0  0  0
 36113  1  0  0  0
 37 39  1  0  0  0
 37 47  1  0  0  0
 37 66  1  0  0  0
 37114  1  0  0  0
 38 43  2  0  0  0
 38 46  1  0  0  0
 38 47  1  0  0  0
 39 64  1  0  0  0
 39 67  2  0  0  0
 40 52  1  0  0  0
 40 53  2  0  0  0
 40 58  1  0  0  0
 41115  1  0  0  0
 41116  1  0  0  0
 41117  1  0  0  0
 41 48  1  0  0  0
 42 43  1  0  0  0
 42 66  1  0  0  0
 42118  1  0  0  0
 42119  1  0  0  0
 43 44  1  0  0  0
 44120  1  0  0  0
 45 46  2  0  0  0
 45121  1  0  0  0
 46122  1  0  0  0
 47123  1  0  0  0
 47124  1  0  0  0
 48 56  1  0  0  0
 48 65  1  0  0  0
 48125  1  0  0  0
 49 50  1  0  0  0
 49 53  1  0  0  0
 49 64  1  0  0  0
 49126  1  0  0  0
 50 51  1  0  0  0
 50127  1  0  0  0
 50128  1  0  0  0
 51 52  1  0  0  0
 51129  1  0  0  0
 51130  1  0  0  0
 52131  1  0  0  0
 52132  1  0  0  0
 53 54  1  0  0  0
 54 55  2  0  0  0
 54133  1  0  0  0
 55 57  1  0  0  0
 55134  1  0  0  0
 56 69  2  0  0  0
 57 58  2  0  0  0
 57135  1  0  0  0
 58136  1  0  0  0
 59 60  1  0  0  0
 59 61  1  0  0  0
 59 62  1  0  0  0
 60137  1  0  0  0
 60138  1  0  0  0
 60139  1  0  0  0
 61140  1  0  0  0
 61141  1  0  0  0
 61142  1  0  0  0
 62143  1  0  0  0
 62144  1  0  0  0
 62145  1  0  0  0
 63 65  1  0  0  0
 63146  1  0  0  0
 63147  1  0  0  0
 63148  1  0  0  0
 64149  1  0  0  0
 65150  1  0  0  0
 68 85  1  0  0  0
 71 74  2  0  0  0
 71 75  1  0  0  0
 71151  1  0  0  0
 72 74  1  0  0  0
 72 76  2  0  0  0
 72152  1  0  0  0
 73 75  2  0  0  0
 73 76  1  0  0  0
 73153  1  0  0  0
 74 78  1  0  0  0
 75 87  1  0  0  0
 76 88  1  0  0  0
 77 79  1  0  0  0
 77 87  1  0  0  0
 77 90  2  0  0  0
 78 89  1  0  0  0
 78 91  2  0  0  0
 79 81  1  0  0  0
 79154  1  0  0  0
 79155  1  0  0  0
 80 81  1  0  0  0
 80 87  1  0  0  0
 80156  1  0  0  0
 80157  1  0  0  0
 81 85  1  0  0  0
 81158  1  0  0  0
 82159  1  0  0  0
 82160  1  0  0  0
 82161  1  0  0  0
 82 86  1  0  0  0
 83 86  1  0  0  0
 83162  1  0  0  0
 83163  1  0  0  0
 83164  1  0  0  0
 84 86  1  0  0  0
 84165  1  0  0  0
 84166  1  0  0  0
 84167  1  0  0  0
 85168  1  0  0  0
 85169  1  0  0  0
 86 89  1  0  0  0
 88170  1  0  0  0
 89171  1  0  0  0
M  ISO  4   1 100  68 101  85 101  88 100
M  END
> <chiral flag>
0

> <version>
0

> <s_m_source_file>
/data/baiqing/PycharmProjects/Reinvent-master-3.2/result/LINK_invent/BTK/process_docking_weight1_custom_product_contain_oxygen_bond_distance_aromatic_linkinvent_7_9_3/rearranged_h_0064.sdf

> <i_m_source_file_index>
89

> <r_mmod_Potential_Energy-OPLS-2005>
222.689056396484

> <r_mmod_Stretch_Energy-OPLS-2005>
135.77262878418

> <r_mmod_Bend_Energy-OPLS-2005>
231.524505615234

> <r_mmod_Torsional_Energy-OPLS-2005>
307.267547607422

> <r_mmod_Improper_Torsional_Energy-OPLS-2005>
7.90157699584961

> <r_mmod_Van_der_Waal_Energy-OPLS-2005>
125.655090332031

> <r_mmod_Electrostatic_Energy-OPLS-2005>
-426.648345947266

> <r_mmod_Solvation_Energy-OPLS-2005>
-247.569763183594

> <b_mmod_Minimization_Converged-OPLS-2005>
0

> <r_mmod_RMS_Derivative-OPLS-2005>
2.4437141418457

$$$$
90
                    3D
 Structure written by MMmdl.
152160  0  0  1  0            999 V2000
  -30.5744  -14.8060   20.4025 C   0  0  0  0  0  0
  -30.4328  -12.4767   19.4941 C   0  0  0  0  0  0
  -29.5173  -12.4807   18.2507 C   0  0  0  0  0  0
  -28.0404  -12.3215   18.6596 C   0  0  0  0  0  0
  -27.6384  -13.2359   19.8487 C   0  0  2  0  0  0
  -28.6794  -13.1968   20.9882 C   0  0  0  0  0  0
  -25.2477  -13.8210   20.5677 C   0  0  0  0  0  0
  -24.1776  -13.0439   20.9199 C   0  0  0  0  0  0
  -24.6386  -11.6920   20.8736 C   0  0  0  0  0  0
  -23.9067  -10.4292   21.0389 C   0  0  0  0  0  0
  -24.3616   -9.4205   21.9166 C   0  0  0  0  0  0
  -23.6291   -8.2236   22.0742 C   0  0  0  0  0  0
  -22.4268   -8.0282   21.3542 C   0  0  0  0  0  0
  -21.9909   -9.0246   20.4632 C   0  0  0  0  0  0
  -22.7239  -10.2124   20.3040 C   0  0  0  0  0  0
  -21.6850   -6.0736   22.5285 C   0  0  0  0  0  0
  -21.4001   -6.5637   23.8221 C   0  0  0  0  0  0
  -21.3675   -5.6796   24.9185 C   0  0  0  0  0  0
  -21.6053   -4.3057   24.7233 C   0  0  0  0  0  0
  -21.8821   -3.8151   23.4349 C   0  0  0  0  0  0
  -21.9185   -4.6964   22.3403 C   0  0  0  0  0  0
  -22.7800  -13.5198   21.1892 C   0  0  0  0  0  0
  -22.1642   -4.2153   21.0979 F   0  0  0  0  0  0
  -21.5655   -3.4540   25.7750 F   0  0  0  0  0  0
  -29.9756  -13.5597   20.4018 N   0  0  0  0  0  0
  -26.2913  -12.9426   20.3275 N   0  0  0  0  0  0
  -25.9320  -11.6568   20.5758 N   0  0  0  0  0  0
  -22.0476  -12.8163   22.0462 N   0  0  0  0  0  0
  -25.4162  -15.1938   20.4105 N   0  0  0  0  0  0
  -31.7732  -14.8859   20.1150 O   0  0  0  0  0  0
  -21.6639   -6.8873   21.4245 O   0  0  0  0  0  0
  -22.3462  -14.5513   20.6783 O   0  0  0  0  0  0
  -24.6337  -31.8518   23.1953 C   0  0  0  0  0  0
  -25.9156  -32.4738   23.8314 C   0  0  1  0  0  0
  -27.2289  -27.2331   20.1270 C   0  0  0  0  0  0
  -25.5940  -33.8543   24.2236 N   0  0  0  0  0  0
  -23.4337  -30.4739   21.5358 C   0  0  2  0  0  0
  -24.8852  -28.9177   20.1055 C   0  0  0  0  0  0
  -22.7512  -29.4595   22.4862 C   0  0  0  0  0  0
  -18.0287  -28.1393   22.8488 C   0  0  0  0  0  0
  -24.1497  -36.7278   23.2644 C   0  0  0  0  0  0
  -25.9826  -30.7558   21.3814 C   0  0  0  0  0  0
  -26.0558  -29.3770   20.7203 C   0  0  0  0  0  0
  -27.2264  -28.5458   20.7226 C   0  0  0  0  0  0
  -26.0289  -26.8488   19.4855 C   0  0  0  0  0  0
  -24.8793  -27.6634   19.4768 C   0  0  0  0  0  0
  -23.6559  -29.8063   20.1522 C   0  0  0  0  0  0
  -25.4125  -36.3058   24.0326 C   0  0  1  0  0  0
  -20.5900  -28.3713   23.1246 C   0  0  2  0  0  0
  -20.6769  -26.9421   22.5403 C   0  0  0  0  0  0
  -19.5740  -26.6385   21.5212 C   0  0  0  0  0  0
  -18.1924  -26.7936   22.1622 C   0  0  0  0  0  0
  -19.1547  -28.8868   23.2870 C   0  0  0  0  0  0
  -18.9465  -30.1471   23.8893 C   0  0  0  0  0  0
  -17.6463  -30.6595   24.0567 C   0  0  0  0  0  0
  -25.9061  -34.9432   23.5083 C   0  0  0  0  0  0
  -16.5357  -29.9093   23.6335 C   0  0  0  0  0  0
  -16.7276  -28.6511   23.0360 C   0  0  0  0  0  0
  -26.4517  -31.6576   25.0714 C   0  0  0  0  0  0
  -25.3726  -31.3717   26.1416 C   0  0  0  0  0  0
  -27.0407  -30.3003   24.6237 C   0  0  0  0  0  0
  -27.6059  -32.4341   25.7477 C   0  0  0  0  0  0
  -27.5582  -37.1795   24.8468 C   0  0  0  0  0  0
  -21.4212  -29.3068   22.3628 N   0  0  0  0  0  0
  -26.4296  -37.3759   23.9409 N   0  0  0  0  0  0
  -24.7022  -31.0465   22.0936 N   0  0  0  0  0  0
  -23.4199  -28.8134   23.2969 O   0  0  0  0  0  0
  -28.3186  -26.3217   20.2218 O   0  0  0  0  0  0
  -26.5626  -34.8913   22.4649 O   0  0  0  0  0  0
  -23.5480  -32.1350   23.7233 O   0  0  0  0  0  0
  -30.1518  -18.6294   17.8157 C   0  0  0  0  0  0
  -29.8694  -19.8429   18.4569 C   0  0  0  0  0  0
  -29.5050  -18.6053   20.5122 C   0  0  0  0  0  0
  -30.0850  -17.3883   18.4805 C   0  0  0  0  0  0
  -29.4753  -19.9026   19.8099 C   0  0  0  0  0  0
  -29.8372  -17.3114   19.8838 C   0  0  0  0  0  0
  -28.7401  -23.7848   20.3578 C   0  0  0  0  0  0
  -28.2644  -24.9596   19.7628 C   0  0  0  0  0  0
  -28.6884  -22.4176   19.6983 C   0  0  0  0  0  0
  -30.1830  -16.1617   17.5918 C   0  0  0  0  0  0
  -29.1521  -21.2698   20.3644 N   0  0  0  0  0  0
  -29.7868  -15.9575   20.5535 N   0  0  0  0  0  0
  -28.2094  -22.3062   18.5669 O   0  0  0  0  0  0
  -31.4733  -12.6043   19.1902 H   0  0  0  0  0  0
  -30.3854  -11.5101   19.9978 H   0  0  0  0  0  0
  -29.8053  -11.6817   17.5680 H   0  0  0  0  0  0
  -29.6531  -13.4022   17.6907 H   0  0  0  0  0  0
  -27.8964  -11.2770   18.9393 H   0  0  0  0  0  0
  -27.3881  -12.4997   17.8031 H   0  0  0  0  0  0
  -27.6269  -14.2519   19.4548 H   0  0  0  0  0  0
  -28.7208  -12.2081   21.4484 H   0  0  0  0  0  0
  -28.4074  -13.8918   21.7847 H   0  0  0  0  0  0
  -25.2766   -9.5695   22.4738 H   0  0  0  0  0  0
  -24.0016   -7.4628   22.7456 H   0  0  0  0  0  0
  -21.0845   -8.8742   19.8930 H   0  0  0  0  0  0
  -22.3680  -10.9648   19.6144 H   0  0  0  0  0  0
  -21.1965   -7.6141   23.9723 H   0  0  0  0  0  0
  -21.1509   -6.0523   25.9088 H   0  0  0  0  0  0
  -22.0586   -2.7613   23.2857 H   0  0  0  0  0  0
  -22.4081  -11.9770   22.4759 H   0  0  0  0  0  0
  -21.1125  -13.1208   22.2763 H   0  0  0  0  0  0
  -24.6488  -15.8485   20.5216 H   0  0  0  0  0  0
  -26.2690  -15.6375   20.0942 H   0  0  0  0  0  0
  -26.7221  -32.5384   23.1052 H   0  0  0  0  0  0
  -25.0122  -33.9682   25.0406 H   0  0  0  0  0  0
  -22.7341  -31.2988   21.3846 H   0  0  0  0  0  0
  -23.3768  -35.9600   23.3288 H   0  0  0  0  0  0
  -24.3596  -36.8918   22.2067 H   0  0  0  0  0  0
  -23.7243  -37.6470   23.6686 H   0  0  0  0  0  0
  -26.1308  -31.5185   20.6164 H   0  0  0  0  0  0
  -26.8553  -30.8027   22.0203 H   0  0  0  0  0  0
  -28.1181  -28.8881   21.2295 H   0  0  0  0  0  0
  -25.9403  -25.8843   19.0109 H   0  0  0  0  0  0
  -23.9819  -27.3052   18.9915 H   0  0  0  0  0  0
  -23.7832  -30.5816   19.3953 H   0  0  0  0  0  0
  -22.7756  -29.2391   19.8454 H   0  0  0  0  0  0
  -25.1314  -36.1896   25.0822 H   0  0  0  0  0  0
  -21.0008  -28.3297   24.1362 H   0  0  0  0  0  0
  -20.5663  -26.2331   23.3624 H   0  0  0  0  0  0
  -21.6636  -26.7428   22.1201 H   0  0  0  0  0  0
  -19.6898  -25.6289   21.1253 H   0  0  0  0  0  0
  -19.6679  -27.3184   20.6735 H   0  0  0  0  0  0
  -17.4197  -26.6710   21.4021 H   0  0  0  0  0  0
  -18.0309  -26.0073   22.9010 H   0  0  0  0  0  0
  -19.7940  -30.7289   24.2262 H   0  0  0  0  0  0
  -17.5015  -31.6273   24.5165 H   0  0  0  0  0  0
  -15.5361  -30.2996   23.7656 H   0  0  0  0  0  0
  -15.8675  -28.0830   22.7079 H   0  0  0  0  0  0
  -24.5911  -30.7072   25.7709 H   0  0  0  0  0  0
  -24.8918  -32.2888   26.4834 H   0  0  0  0  0  0
  -25.8028  -30.8878   27.0192 H   0  0  0  0  0  0
  -26.3019  -29.6699   24.1280 H   0  0  0  0  0  0
  -27.4115  -29.7319   25.4775 H   0  0  0  0  0  0
  -27.8870  -30.4295   23.9485 H   0  0  0  0  0  0
  -27.2666  -33.3661   26.2005 H   0  0  0  0  0  0
  -28.3875  -32.6868   25.0301 H   0  0  0  0  0  0
  -28.0716  -31.8503   26.5424 H   0  0  0  0  0  0
  -28.2580  -38.0109   24.7529 H   0  0  0  0  0  0
  -28.1096  -36.2643   24.6274 H   0  0  0  0  0  0
  -27.2302  -37.1406   25.8868 H   0  0  0  0  0  0
  -20.9388  -29.8836   21.6875 H   0  0  0  0  0  0
  -26.0169  -38.2827   24.1413 H   0  0  0  0  0  0
  -30.3892  -18.6605   16.7606 H   0  0  0  0  0  0
  -29.9500  -20.7393   17.8605 H   0  0  0  0  0  0
  -29.2517  -18.5992   21.5620 H   0  0  0  0  0  0
  -29.1913  -23.8557   21.3352 H   0  0  0  0  0  0
  -27.8156  -24.9084   18.7804 H   0  0  0  0  0  0
  -30.1449  -16.4251   16.5345 H   0  0  0  0  0  0
  -29.3195  -15.5257   17.7780 H   0  0  0  0  0  0
  -31.1064  -15.6085   17.7517 H   0  0  0  0  0  0
  -29.3326  -21.3958   21.3509 H   0  0  0  0  0  0
  -28.9289  -15.7817   21.0552 H   0  0  0  0  0  0
  1 25  1  0  0  0
  1 30  2  0  0  0
  1 82  1  0  0  0
  2  3  1  0  0  0
  2 25  1  0  0  0
  2 84  1  0  0  0
  2 85  1  0  0  0
  3  4  1  0  0  0
  3 86  1  0  0  0
  3 87  1  0  0  0
  4  5  1  0  0  0
  4 88  1  0  0  0
  4 89  1  0  0  0
  5  6  1  0  0  0
  5 26  1  0  0  0
  5 90  1  0  0  0
  6 25  1  0  0  0
  6 91  1  0  0  0
  6 92  1  0  0  0
  7  8  2  0  0  0
  7 26  1  0  0  0
  7 29  1  0  0  0
  8  9  1  0  0  0
  8 22  1  0  0  0
  9 10  1  0  0  0
  9 27  2  0  0  0
 10 11  2  0  0  0
 10 15  1  0  0  0
 11 12  1  0  0  0
 11 93  1  0  0  0
 12 13  2  0  0  0
 12 94  1  0  0  0
 13 14  1  0  0  0
 13 31  1  0  0  0
 14 15  2  0  0  0
 14 95  1  0  0  0
 15 96  1  0  0  0
 16 17  2  0  0  0
 16 21  1  0  0  0
 16 31  1  0  0  0
 17 18  1  0  0  0
 17 97  1  0  0  0
 18 19  2  0  0  0
 18 98  1  0  0  0
 19 20  1  0  0  0
 19 24  1  0  0  0
 20 21  2  0  0  0
 20 99  1  0  0  0
 21 23  1  0  0  0
 22 28  1  0  0  0
 22 32  2  0  0  0
 26 27  1  0  0  0
 28100  1  0  0  0
 28101  1  0  0  0
 29102  1  0  0  0
 29103  1  0  0  0
 33 34  1  0  0  0
 33 66  1  0  0  0
 33 70  2  0  0  0
 34 36  1  0  0  0
 34 59  1  0  0  0
 34104  1  0  0  0
 35 44  2  0  0  0
 35 45  1  0  0  0
 35 68  1  0  0  0
 36 56  1  0  0  0
 36105  1  0  0  0
 37 39  1  0  0  0
 37 47  1  0  0  0
 37 66  1  0  0  0
 37106  1  0  0  0
 38 43  2  0  0  0
 38 46  1  0  0  0
 38 47  1  0  0  0
 39 64  1  0  0  0
 39 67  2  0  0  0
 40 52  1  0  0  0
 40 53  2  0  0  0
 40 58  1  0  0  0
 41107  1  0  0  0
 41108  1  0  0  0
 41109  1  0  0  0
 41 48  1  0  0  0
 42 43  1  0  0  0
 42 66  1  0  0  0
 42110  1  0  0  0
 42111  1  0  0  0
 43 44  1  0  0  0
 44112  1  0  0  0
 45 46  2  0  0  0
 45113  1  0  0  0
 46114  1  0  0  0
 47115  1  0  0  0
 47116  1  0  0  0
 48 56  1  0  0  0
 48 65  1  0  0  0
 48117  1  0  0  0
 49 50  1  0  0  0
 49 53  1  0  0  0
 49 64  1  0  0  0
 49118  1  0  0  0
 50 51  1  0  0  0
 50119  1  0  0  0
 50120  1  0  0  0
 51 52  1  0  0  0
 51121  1  0  0  0
 51122  1  0  0  0
 52123  1  0  0  0
 52124  1  0  0  0
 53 54  1  0  0  0
 54 55  2  0  0  0
 54125  1  0  0  0
 55 57  1  0  0  0
 55126  1  0  0  0
 56 69  2  0  0  0
 57 58  2  0  0  0
 57127  1  0  0  0
 58128  1  0  0  0
 59 60  1  0  0  0
 59 61  1  0  0  0
 59 62  1  0  0  0
 60129  1  0  0  0
 60130  1  0  0  0
 60131  1  0  0  0
 61132  1  0  0  0
 61133  1  0  0  0
 61134  1  0  0  0
 62135  1  0  0  0
 62136  1  0  0  0
 62137  1  0  0  0
 63 65  1  0  0  0
 63138  1  0  0  0
 63139  1  0  0  0
 63140  1  0  0  0
 64141  1  0  0  0
 65142  1  0  0  0
 68 78  1  0  0  0
 71 72  2  0  0  0
 71 74  1  0  0  0
 71143  1  0  0  0
 72 75  1  0  0  0
 72144  1  0  0  0
 73 75  2  0  0  0
 73 76  1  0  0  0
 73145  1  0  0  0
 74 76  2  0  0  0
 74 80  1  0  0  0
 75 81  1  0  0  0
 76 82  1  0  0  0
 77 78  2  0  0  0
 77 79  1  0  0  0
 77146  1  0  0  0
 78147  1  0  0  0
 79 81  1  0  0  0
 79 83  2  0  0  0
 80148  1  0  0  0
 80149  1  0  0  0
 80150  1  0  0  0
 81151  1  0  0  0
 82152  1  0  0  0
M  ISO  4   1 100  68 101  78 101  82 100
M  END
> <chiral flag>
0

> <version>
0

> <s_m_source_file>
/data/baiqing/PycharmProjects/Reinvent-master-3.2/result/LINK_invent/BTK/process_docking_weight1_custom_product_contain_oxygen_bond_distance_aromatic_linkinvent_7_9_3/rearranged_h_0064.sdf

> <i_m_source_file_index>
90

> <r_mmod_Potential_Energy-OPLS-2005>
219.323928833008

> <r_mmod_Stretch_Energy-OPLS-2005>
156.102005004883

> <r_mmod_Bend_Energy-OPLS-2005>
173.246215820312

> <r_mmod_Torsional_Energy-OPLS-2005>
260.843444824219

> <r_mmod_Improper_Torsional_Energy-OPLS-2005>
5.73012542724609

> <r_mmod_Van_der_Waal_Energy-OPLS-2005>
148.972320556641

> <r_mmod_Electrostatic_Energy-OPLS-2005>
-406.466217041016

> <r_mmod_Solvation_Energy-OPLS-2005>
-230.542221069336

> <b_mmod_Minimization_Converged-OPLS-2005>
0

> <r_mmod_RMS_Derivative-OPLS-2005>
2.04637885093689

$$$$
91
                    3D
 Structure written by MMmdl.
150159  0  0  1  0            999 V2000
  -30.5692  -14.7421   20.4850 C   0  0  0  0  0  0
  -30.4511  -12.4556   19.4667 C   0  0  0  0  0  0
  -29.5167  -12.5196   18.2354 C   0  0  0  0  0  0
  -28.0415  -12.3384   18.6472 C   0  0  0  0  0  0
  -27.6514  -13.2208   19.8618 C   0  0  2  0  0  0
  -28.6968  -13.1055   20.9942 C   0  0  0  0  0  0
  -25.2559  -13.8174   20.5689 C   0  0  0  0  0  0
  -24.1830  -13.0437   20.9196 C   0  0  0  0  0  0
  -24.6401  -11.6907   20.8741 C   0  0  0  0  0  0
  -23.9068  -10.4291   21.0407 C   0  0  0  0  0  0
  -24.3618   -9.4205   21.9186 C   0  0  0  0  0  0
  -23.6292   -8.2241   22.0755 C   0  0  0  0  0  0
  -22.4275   -8.0280   21.3543 C   0  0  0  0  0  0
  -21.9909   -9.0255   20.4647 C   0  0  0  0  0  0
  -22.7237  -10.2136   20.3058 C   0  0  0  0  0  0
  -21.6853   -6.0734   22.5277 C   0  0  0  0  0  0
  -21.4013   -6.5638   23.8211 C   0  0  0  0  0  0
  -21.3661   -5.6792   24.9174 C   0  0  0  0  0  0
  -21.6046   -4.3055   24.7226 C   0  0  0  0  0  0
  -21.8819   -3.8144   23.4347 C   0  0  0  0  0  0
  -21.9194   -4.6961   22.3402 C   0  0  0  0  0  0
  -22.7851  -13.5229   21.1858 C   0  0  0  0  0  0
  -22.1663   -4.2146   21.0980 F   0  0  0  0  0  0
  -21.5630   -3.4539   25.7739 F   0  0  0  0  0  0
  -30.0028  -13.4861   20.4307 N   0  0  0  0  0  0
  -26.2984  -12.9356   20.3309 N   0  0  0  0  0  0
  -25.9333  -11.6509   20.5755 N   0  0  0  0  0  0
  -22.0493  -12.8223   22.0415 N   0  0  0  0  0  0
  -25.4275  -15.1895   20.4100 N   0  0  0  0  0  0
  -31.7264  -14.9244   20.0924 O   0  0  0  0  0  0
  -21.6639   -6.8876   21.4239 O   0  0  0  0  0  0
  -22.3536  -14.5535   20.6704 O   0  0  0  0  0  0
  -24.6314  -31.8549   23.1984 C   0  0  0  0  0  0
  -25.9134  -32.4756   23.8333 C   0  0  1  0  0  0
  -27.2250  -27.2670   20.1294 C   0  0  0  0  0  0
  -25.5927  -33.8558   24.2257 N   0  0  0  0  0  0
  -23.4299  -30.4768   21.5412 C   0  0  2  0  0  0
  -24.8813  -28.9255   20.1089 C   0  0  0  0  0  0
  -22.7508  -29.4598   22.4904 C   0  0  0  0  0  0
  -18.0293  -28.1387   22.8484 C   0  0  0  0  0  0
  -24.1489  -36.7287   23.2640 C   0  0  0  0  0  0
  -25.9762  -30.7685   21.3801 C   0  0  0  0  0  0
  -26.0527  -29.3913   20.7223 C   0  0  0  0  0  0
  -27.2303  -28.5734   20.7248 C   0  0  0  0  0  0
  -26.0356  -26.8726   19.4803 C   0  0  0  0  0  0
  -24.8772  -27.6731   19.4764 C   0  0  0  0  0  0
  -23.6501  -29.8107   20.1576 C   0  0  0  0  0  0
  -25.4115  -36.3072   24.0326 C   0  0  1  0  0  0
  -20.5898  -28.3700   23.1263 C   0  0  2  0  0  0
  -20.6781  -26.9416   22.5405 C   0  0  0  0  0  0
  -19.5756  -26.6381   21.5211 C   0  0  0  0  0  0
  -18.1937  -26.7927   22.1628 C   0  0  0  0  0  0
  -19.1547  -28.8861   23.2868 C   0  0  0  0  0  0
  -18.9469  -30.1460   23.8888 C   0  0  0  0  0  0
  -17.6468  -30.6588   24.0562 C   0  0  0  0  0  0
  -25.9054  -34.9440   23.5096 C   0  0  0  0  0  0
  -16.5358  -29.9085   23.6332 C   0  0  0  0  0  0
  -16.7280  -28.6503   23.0354 C   0  0  0  0  0  0
  -26.4501  -31.6579   25.0723 C   0  0  0  0  0  0
  -25.3721  -31.3735   26.1441 C   0  0  0  0  0  0
  -27.0351  -30.2993   24.6217 C   0  0  0  0  0  0
  -27.6049  -32.4325   25.7499 C   0  0  0  0  0  0
  -27.5577  -37.1802   24.8467 C   0  0  0  0  0  0
  -21.4213  -29.3046   22.3649 N   0  0  0  0  0  0
  -26.4294  -37.3768   23.9402 N   0  0  0  0  0  0
  -24.6980  -31.0509   22.0963 N   0  0  0  0  0  0
  -23.4201  -28.8136   23.3008 O   0  0  0  0  0  0
  -28.2753  -26.3204   20.1787 O   0  0  0  0  0  0
  -26.5632  -34.8914   22.4668 O   0  0  0  0  0  0
  -23.5459  -32.1370   23.7272 O   0  0  0  0  0  0
  -28.4147  -19.3382   21.3791 C   0  0  0  0  0  0
  -28.6190  -17.9253   21.4410 C   0  0  0  0  0  0
  -30.5052  -18.1406   20.0189 C   0  0  0  0  0  0
  -29.2142  -20.2597   20.6377 C   0  0  0  0  0  0
  -29.6714  -17.2542   20.7664 C   0  0  0  0  0  0
  -30.2800  -19.5711   19.9586 C   0  0  0  0  0  0
  -28.4329  -23.7445   20.6059 C   0  0  0  0  0  0
  -27.9293  -22.5503   21.2765 C   0  0  0  0  0  0
  -27.9469  -25.0473   20.7329 C   0  0  0  0  0  0
  -29.4929  -22.8503   19.8929 C   0  0  0  0  0  0
  -28.8819  -21.7191   20.6560 N   0  0  0  0  0  0
  -29.7268  -15.7694   20.8755 N   0  0  0  0  0  0
  -27.0121  -22.4075   22.0586 O   0  0  0  0  0  0
  -31.1316  -20.3109   19.2077 F   0  0  0  0  0  0
  -31.4873  -12.6086   19.1603 H   0  0  0  0  0  0
  -30.4187  -11.4666   19.9261 H   0  0  0  0  0  0
  -29.7977  -11.7565   17.5082 H   0  0  0  0  0  0
  -29.6392  -13.4802   17.7325 H   0  0  0  0  0  0
  -27.8950  -11.2863   18.8949 H   0  0  0  0  0  0
  -27.3838  -12.5451   17.8020 H   0  0  0  0  0  0
  -27.6590  -14.2508   19.5047 H   0  0  0  0  0  0
  -28.7335  -12.0856   21.3802 H   0  0  0  0  0  0
  -28.4237  -13.7328   21.8440 H   0  0  0  0  0  0
  -25.2766   -9.5679   22.4757 H   0  0  0  0  0  0
  -24.0002   -7.4631   22.7474 H   0  0  0  0  0  0
  -21.0839   -8.8773   19.8953 H   0  0  0  0  0  0
  -22.3696  -10.9675   19.6166 H   0  0  0  0  0  0
  -21.2003   -7.6146   23.9713 H   0  0  0  0  0  0
  -21.1484   -6.0523   25.9077 H   0  0  0  0  0  0
  -22.0597   -2.7606   23.2849 H   0  0  0  0  0  0
  -22.4110  -11.9886   22.4805 H   0  0  0  0  0  0
  -21.1109  -13.1249   22.2618 H   0  0  0  0  0  0
  -24.6575  -15.8417   20.5111 H   0  0  0  0  0  0
  -26.2692  -15.6257   20.0557 H   0  0  0  0  0  0
  -26.7202  -32.5412   23.1077 H   0  0  0  0  0  0
  -25.0057  -33.9692   25.0390 H   0  0  0  0  0  0
  -22.7266  -31.2991   21.3942 H   0  0  0  0  0  0
  -23.3747  -35.9625   23.3312 H   0  0  0  0  0  0
  -24.3575  -36.8900   22.2053 H   0  0  0  0  0  0
  -23.7250  -37.6494   23.6659 H   0  0  0  0  0  0
  -26.1149  -31.5293   20.6105 H   0  0  0  0  0  0
  -26.8530  -30.8180   22.0142 H   0  0  0  0  0  0
  -28.1244  -28.9185   21.2249 H   0  0  0  0  0  0
  -25.9906  -25.9060   18.9985 H   0  0  0  0  0  0
  -23.9820  -27.3108   18.9898 H   0  0  0  0  0  0
  -23.7730  -30.5874   19.4019 H   0  0  0  0  0  0
  -22.7692  -29.2432   19.8524 H   0  0  0  0  0  0
  -25.1299  -36.1923   25.0821 H   0  0  0  0  0  0
  -20.9994  -28.3282   24.1382 H   0  0  0  0  0  0
  -20.5678  -26.2313   23.3613 H   0  0  0  0  0  0
  -21.6649  -26.7436   22.1201 H   0  0  0  0  0  0
  -19.6918  -25.6290   21.1246 H   0  0  0  0  0  0
  -19.6690  -27.3187   20.6737 H   0  0  0  0  0  0
  -17.4204  -26.6666   21.4035 H   0  0  0  0  0  0
  -18.0347  -26.0071   22.9028 H   0  0  0  0  0  0
  -19.7944  -30.7279   24.2254 H   0  0  0  0  0  0
  -17.5022  -31.6267   24.5165 H   0  0  0  0  0  0
  -15.5359  -30.2987   23.7655 H   0  0  0  0  0  0
  -15.8680  -28.0818   22.7075 H   0  0  0  0  0  0
  -24.5883  -30.7104   25.7763 H   0  0  0  0  0  0
  -24.8932  -32.2912   26.4868 H   0  0  0  0  0  0
  -25.8030  -30.8900   27.0218 H   0  0  0  0  0  0
  -26.2942  -29.6738   24.1227 H   0  0  0  0  0  0
  -27.4010  -29.7259   25.4744 H   0  0  0  0  0  0
  -27.8829  -30.4260   23.9480 H   0  0  0  0  0  0
  -27.2645  -33.3622   26.2070 H   0  0  0  0  0  0
  -28.3863  -32.6891   25.0335 H   0  0  0  0  0  0
  -28.0714  -31.8458   26.5423 H   0  0  0  0  0  0
  -28.2605  -38.0089   24.7496 H   0  0  0  0  0  0
  -28.1064  -36.2619   24.6320 H   0  0  0  0  0  0
  -27.2292  -37.1482   25.8870 H   0  0  0  0  0  0
  -20.9399  -29.8771   21.6856 H   0  0  0  0  0  0
  -26.0176  -38.2846   24.1388 H   0  0  0  0  0  0
  -27.5767  -19.7268   21.9396 H   0  0  0  0  0  0
  -27.9237  -17.3468   22.0337 H   0  0  0  0  0  0
  -31.3323  -17.7308   19.4585 H   0  0  0  0  0  0
  -27.1165  -25.1720   21.4163 H   0  0  0  0  0  0
  -30.5402  -22.9998   20.1597 H   0  0  0  0  0  0
  -29.3912  -22.7119   18.8152 H   0  0  0  0  0  0
  -28.8841  -15.3800   21.2699 H   0  0  0  0  0  0
  1 25  1  0  0  0
  1 30  2  0  0  0
  1 82  1  0  0  0
  2  3  1  0  0  0
  2 25  1  0  0  0
  2 85  1  0  0  0
  2 86  1  0  0  0
  3  4  1  0  0  0
  3 87  1  0  0  0
  3 88  1  0  0  0
  4  5  1  0  0  0
  4 89  1  0  0  0
  4 90  1  0  0  0
  5  6  1  0  0  0
  5 26  1  0  0  0
  5 91  1  0  0  0
  6 25  1  0  0  0
  6 92  1  0  0  0
  6 93  1  0  0  0
  7  8  2  0  0  0
  7 26  1  0  0  0
  7 29  1  0  0  0
  8  9  1  0  0  0
  8 22  1  0  0  0
  9 10  1  0  0  0
  9 27  2  0  0  0
 10 11  2  0  0  0
 10 15  1  0  0  0
 11 12  1  0  0  0
 11 94  1  0  0  0
 12 13  2  0  0  0
 12 95  1  0  0  0
 13 14  1  0  0  0
 13 31  1  0  0  0
 14 15  2  0  0  0
 14 96  1  0  0  0
 15 97  1  0  0  0
 16 17  2  0  0  0
 16 21  1  0  0  0
 16 31  1  0  0  0
 17 18  1  0  0  0
 17 98  1  0  0  0
 18 19  2  0  0  0
 18 99  1  0  0  0
 19 20  1  0  0  0
 19 24  1  0  0  0
 20 21  2  0  0  0
 20100  1  0  0  0
 21 23  1  0  0  0
 22 28  1  0  0  0
 22 32  2  0  0  0
 26 27  1  0  0  0
 28101  1  0  0  0
 28102  1  0  0  0
 29103  1  0  0  0
 29104  1  0  0  0
 33 34  1  0  0  0
 33 66  1  0  0  0
 33 70  2  0  0  0
 34 36  1  0  0  0
 34 59  1  0  0  0
 34105  1  0  0  0
 35 44  2  0  0  0
 35 45  1  0  0  0
 35 68  1  0  0  0
 36 56  1  0  0  0
 36106  1  0  0  0
 37 39  1  0  0  0
 37 47  1  0  0  0
 37 66  1  0  0  0
 37107  1  0  0  0
 38 43  2  0  0  0
 38 46  1  0  0  0
 38 47  1  0  0  0
 39 64  1  0  0  0
 39 67  2  0  0  0
 40 52  1  0  0  0
 40 53  2  0  0  0
 40 58  1  0  0  0
 41108  1  0  0  0
 41109  1  0  0  0
 41110  1  0  0  0
 41 48  1  0  0  0
 42 43  1  0  0  0
 42 66  1  0  0  0
 42111  1  0  0  0
 42112  1  0  0  0
 43 44  1  0  0  0
 44113  1  0  0  0
 45 46  2  0  0  0
 45114  1  0  0  0
 46115  1  0  0  0
 47116  1  0  0  0
 47117  1  0  0  0
 48 56  1  0  0  0
 48 65  1  0  0  0
 48118  1  0  0  0
 49 50  1  0  0  0
 49 53  1  0  0  0
 49 64  1  0  0  0
 49119  1  0  0  0
 50 51  1  0  0  0
 50120  1  0  0  0
 50121  1  0  0  0
 51 52  1  0  0  0
 51122  1  0  0  0
 51123  1  0  0  0
 52124  1  0  0  0
 52125  1  0  0  0
 53 54  1  0  0  0
 54 55  2  0  0  0
 54126  1  0  0  0
 55 57  1  0  0  0
 55127  1  0  0  0
 56 69  2  0  0  0
 57 58  2  0  0  0
 57128  1  0  0  0
 58129  1  0  0  0
 59 60  1  0  0  0
 59 61  1  0  0  0
 59 62  1  0  0  0
 60130  1  0  0  0
 60131  1  0  0  0
 60132  1  0  0  0
 61133  1  0  0  0
 61134  1  0  0  0
 61135  1  0  0  0
 62136  1  0  0  0
 62137  1  0  0  0
 62138  1  0  0  0
 63 65  1  0  0  0
 63139  1  0  0  0
 63140  1  0  0  0
 63141  1  0  0  0
 64142  1  0  0  0
 65143  1  0  0  0
 68 79  1  0  0  0
 71 72  2  0  0  0
 71 74  1  0  0  0
 71144  1  0  0  0
 72 75  1  0  0  0
 72145  1  0  0  0
 73 75  2  0  0  0
 73 76  1  0  0  0
 73146  1  0  0  0
 74 76  2  0  0  0
 74 81  1  0  0  0
 75 82  1  0  0  0
 76 84  1  0  0  0
 77 78  1  0  0  0
 77 79  2  0  0  0
 77 80  1  0  0  0
 78 81  1  0  0  0
 78 83  2  0  0  0
 79147  1  0  0  0
 80 81  1  0  0  0
 80148  1  0  0  0
 80149  1  0  0  0
 82150  1  0  0  0
M  ISO  4   1 100  68 101  79 101  82 100
M  END
> <chiral flag>
0

> <version>
0

> <s_m_source_file>
/data/baiqing/PycharmProjects/Reinvent-master-3.2/result/LINK_invent/BTK/process_docking_weight1_custom_product_contain_oxygen_bond_distance_aromatic_linkinvent_7_9_3/rearranged_h_0064.sdf

> <i_m_source_file_index>
91

> <r_mmod_Potential_Energy-OPLS-2005>
227.970703125

> <r_mmod_Stretch_Energy-OPLS-2005>
107.681640625

> <r_mmod_Bend_Energy-OPLS-2005>
270.576690673828

> <r_mmod_Torsional_Energy-OPLS-2005>
220.03254699707

> <r_mmod_Improper_Torsional_Energy-OPLS-2005>
3.48363852500916

> <r_mmod_Van_der_Waal_Energy-OPLS-2005>
134.12727355957

> <r_mmod_Electrostatic_Energy-OPLS-2005>
-381.995819091797

> <r_mmod_Solvation_Energy-OPLS-2005>
-213.960922241211

> <b_mmod_Minimization_Converged-OPLS-2005>
0

> <r_mmod_RMS_Derivative-OPLS-2005>
0.390327841043472

$$$$
92
                    3D
 Structure written by MMmdl.
155164  0  0  1  0            999 V2000
  -30.6302  -14.7474   20.4561 C   0  0  0  0  0  0
  -30.4304  -12.4470   19.4912 C   0  0  0  0  0  0
  -29.5138  -12.4681   18.2480 C   0  0  0  0  0  0
  -28.0408  -12.3022   18.6670 C   0  0  0  0  0  0
  -27.6402  -13.2288   19.8452 C   0  0  2  0  0  0
  -28.6832  -13.1994   20.9839 C   0  0  0  0  0  0
  -25.2565  -13.8190   20.5759 C   0  0  0  0  0  0
  -24.1844  -13.0447   20.9221 C   0  0  0  0  0  0
  -24.6425  -11.6922   20.8759 C   0  0  0  0  0  0
  -23.9086  -10.4307   21.0414 C   0  0  0  0  0  0
  -24.3639   -9.4214   21.9183 C   0  0  0  0  0  0
  -23.6313   -8.2242   22.0751 C   0  0  0  0  0  0
  -22.4286   -8.0296   21.3541 C   0  0  0  0  0  0
  -21.9931   -9.0279   20.4649 C   0  0  0  0  0  0
  -22.7257  -10.2160   20.3070 C   0  0  0  0  0  0
  -21.6864   -6.0752   22.5283 C   0  0  0  0  0  0
  -21.4004   -6.5650   23.8210 C   0  0  0  0  0  0
  -21.3655   -5.6792   24.9164 C   0  0  0  0  0  0
  -21.6047   -4.3056   24.7209 C   0  0  0  0  0  0
  -21.8820   -3.8157   23.4331 C   0  0  0  0  0  0
  -21.9196   -4.6981   22.3390 C   0  0  0  0  0  0
  -22.7869  -13.5244   21.1871 C   0  0  0  0  0  0
  -22.1676   -4.2169   21.0968 F   0  0  0  0  0  0
  -21.5636   -3.4542   25.7722 F   0  0  0  0  0  0
  -29.9828  -13.5336   20.3925 N   0  0  0  0  0  0
  -26.2955  -12.9383   20.3291 N   0  0  0  0  0  0
  -25.9345  -11.6531   20.5761 N   0  0  0  0  0  0
  -22.0533  -12.8236   22.0446 N   0  0  0  0  0  0
  -25.4320  -15.1923   20.4289 N   0  0  0  0  0  0
  -31.8224  -14.8060   20.1461 O   0  0  0  0  0  0
  -21.6645   -6.8904   21.4238 O   0  0  0  0  0  0
  -22.3553  -14.5536   20.6695 O   0  0  0  0  0  0
  -24.6312  -31.8515   23.1932 C   0  0  0  0  0  0
  -25.9145  -32.4720   23.8284 C   0  0  1  0  0  0
  -27.2203  -27.2401   20.1586 C   0  0  0  0  0  0
  -25.5935  -33.8526   24.2205 N   0  0  0  0  0  0
  -23.4300  -30.4715   21.5355 C   0  0  2  0  0  0
  -24.8788  -28.9066   20.1163 C   0  0  0  0  0  0
  -22.7516  -29.4585   22.4896 C   0  0  0  0  0  0
  -18.0302  -28.1348   22.8555 C   0  0  0  0  0  0
  -24.1497  -36.7263   23.2637 C   0  0  0  0  0  0
  -25.9769  -30.7562   21.3792 C   0  0  0  0  0  0
  -26.0495  -29.3774   20.7249 C   0  0  0  0  0  0
  -27.2258  -28.5591   20.7275 C   0  0  0  0  0  0
  -26.0251  -26.8283   19.5342 C   0  0  0  0  0  0
  -24.8714  -27.6395   19.5084 C   0  0  0  0  0  0
  -23.6500  -29.7976   20.1549 C   0  0  0  0  0  0
  -25.4118  -36.3024   24.0308 C   0  0  1  0  0  0
  -20.5902  -28.3734   23.1280 C   0  0  2  0  0  0
  -20.6805  -26.9426   22.5501 C   0  0  0  0  0  0
  -19.5752  -26.6295   21.5347 C   0  0  0  0  0  0
  -18.2001  -26.7792   22.1900 C   0  0  0  0  0  0
  -19.1552  -28.8903   23.2841 C   0  0  0  0  0  0
  -18.9459  -30.1582   23.8697 C   0  0  0  0  0  0
  -17.6442  -30.6676   24.0374 C   0  0  0  0  0  0
  -25.9072  -34.9410   23.5056 C   0  0  0  0  0  0
  -16.5340  -29.9072   23.6289 C   0  0  0  0  0  0
  -16.7280  -28.6441   23.0429 C   0  0  0  0  0  0
  -26.4496  -31.6563   25.0702 C   0  0  0  0  0  0
  -25.3713  -31.3754   26.1430 C   0  0  0  0  0  0
  -27.0366  -30.2956   24.6265 C   0  0  0  0  0  0
  -27.6023  -32.4338   25.7485 C   0  0  0  0  0  0
  -27.5565  -37.1780   24.8461 C   0  0  0  0  0  0
  -21.4226  -29.3039   22.3637 N   0  0  0  0  0  0
  -26.4281  -37.3732   23.9389 N   0  0  0  0  0  0
  -24.6986  -31.0465   22.0919 N   0  0  0  0  0  0
  -23.4207  -28.8132   23.3027 O   0  0  0  0  0  0
  -28.3195  -26.3533   20.1663 O   0  0  0  0  0  0
  -26.5656  -34.8900   22.4630 O   0  0  0  0  0  0
  -23.5464  -32.1370   23.7196 O   0  0  0  0  0  0
  -29.4908  -18.5129   20.4332 C   0  0  0  0  0  0
  -31.2347  -20.0173   21.2067 C   0  0  0  0  0  0
  -31.5786  -17.5970   21.2989 C   0  0  0  0  0  0
  -29.9365  -19.8925   20.6546 C   0  0  0  0  0  0
  -30.3008  -17.3332   20.7550 C   0  0  0  0  0  0
  -32.0352  -18.9068   21.5236 C   0  0  0  0  0  0
  -29.3720  -22.4358   20.8450 C   0  0  0  0  0  0
  -27.7384  -22.7560   19.1860 C   0  0  0  0  0  0
  -28.2675  -21.2851   19.2032 C   0  0  0  0  0  0
  -28.7279  -23.6076   20.0044 C   0  0  1  0  0  0
  -28.1584  -24.9600   20.7249 C   0  0  0  0  0  0
  -29.2081  -21.1637   20.3187 N   0  0  0  0  0  0
  -29.8753  -15.9079   20.6223 N   0  0  0  0  0  0
  -29.9620  -22.6834   21.9007 O   0  0  0  0  0  0
  -33.2647  -19.1016   22.0601 F   0  0  0  0  0  0
  -31.4735  -12.5556   19.1912 H   0  0  0  0  0  0
  -30.3680  -11.4844   20.0038 H   0  0  0  0  0  0
  -29.7976  -11.6673   17.5632 H   0  0  0  0  0  0
  -29.6416  -13.4037   17.7017 H   0  0  0  0  0  0
  -27.9021  -11.2603   18.9618 H   0  0  0  0  0  0
  -27.3847  -12.4641   17.8109 H   0  0  0  0  0  0
  -27.6247  -14.2379   19.4330 H   0  0  0  0  0  0
  -28.7185  -12.2202   21.4628 H   0  0  0  0  0  0
  -28.4180  -13.9152   21.7641 H   0  0  0  0  0  0
  -25.2801   -9.5693   22.4737 H   0  0  0  0  0  0
  -24.0034   -7.4633   22.7475 H   0  0  0  0  0  0
  -21.0858   -8.8813   19.8960 H   0  0  0  0  0  0
  -22.3730  -10.9702   19.6183 H   0  0  0  0  0  0
  -21.1987   -7.6156   23.9715 H   0  0  0  0  0  0
  -21.1473   -6.0528   25.9072 H   0  0  0  0  0  0
  -22.0600   -2.7625   23.2815 H   0  0  0  0  0  0
  -22.4157  -11.9873   22.4758 H   0  0  0  0  0  0
  -21.1156  -13.1255   22.2666 H   0  0  0  0  0  0
  -24.6795  -15.8535   20.5915 H   0  0  0  0  0  0
  -26.2957  -15.6365   20.1443 H   0  0  0  0  0  0
  -26.7195  -32.5351   23.1002 H   0  0  0  0  0  0
  -25.0049  -33.9651   25.0329 H   0  0  0  0  0  0
  -22.7266  -31.2927   21.3834 H   0  0  0  0  0  0
  -23.3757  -35.9608   23.3305 H   0  0  0  0  0  0
  -24.3576  -36.8888   22.2052 H   0  0  0  0  0  0
  -23.7289  -37.6470   23.6680 H   0  0  0  0  0  0
  -26.1297  -31.5163   20.6133 H   0  0  0  0  0  0
  -26.8479  -30.7982   22.0206 H   0  0  0  0  0  0
  -28.1251  -28.9120   21.2122 H   0  0  0  0  0  0
  -25.9776  -25.8486   19.0781 H   0  0  0  0  0  0
  -23.9727  -27.2684   19.0335 H   0  0  0  0  0  0
  -23.7737  -30.5687   19.3938 H   0  0  0  0  0  0
  -22.7695  -29.2267   19.8529 H   0  0  0  0  0  0
  -25.1307  -36.1834   25.0802 H   0  0  0  0  0  0
  -20.9989  -28.3396   24.1421 H   0  0  0  0  0  0
  -20.5688  -26.2415   23.3787 H   0  0  0  0  0  0
  -21.6689  -26.7402   22.1356 H   0  0  0  0  0  0
  -19.6955  -25.6178   21.1463 H   0  0  0  0  0  0
  -19.6599  -27.3040   20.6822 H   0  0  0  0  0  0
  -17.4102  -26.6178   21.4540 H   0  0  0  0  0  0
  -18.0728  -26.0128   22.9559 H   0  0  0  0  0  0
  -19.7938  -30.7510   24.1851 H   0  0  0  0  0  0
  -17.4973  -31.6426   24.4809 H   0  0  0  0  0  0
  -15.5322  -30.2924   23.7617 H   0  0  0  0  0  0
  -15.8692  -28.0654   22.7290 H   0  0  0  0  0  0
  -24.5871  -30.7113   25.7757 H   0  0  0  0  0  0
  -24.8946  -32.2963   26.4809 H   0  0  0  0  0  0
  -25.8031  -30.8950   27.0228 H   0  0  0  0  0  0
  -26.2983  -29.6686   24.1259 H   0  0  0  0  0  0
  -27.3970  -29.7223   25.4818 H   0  0  0  0  0  0
  -27.8885  -30.4171   23.9577 H   0  0  0  0  0  0
  -27.2578  -33.3627   26.2043 H   0  0  0  0  0  0
  -28.3850  -32.6937   25.0343 H   0  0  0  0  0  0
  -28.0696  -31.8511   26.5434 H   0  0  0  0  0  0
  -28.2573  -38.0079   24.7471 H   0  0  0  0  0  0
  -28.1071  -36.2606   24.6327 H   0  0  0  0  0  0
  -27.2288  -37.1464   25.8869 H   0  0  0  0  0  0
  -20.9425  -29.8693   21.6779 H   0  0  0  0  0  0
  -26.0153  -38.2797   24.1401 H   0  0  0  0  0  0
  -28.5066  -18.3537   20.0138 H   0  0  0  0  0  0
  -31.6684  -20.9879   21.3911 H   0  0  0  0  0  0
  -32.2421  -16.7936   21.5801 H   0  0  0  0  0  0
  -26.7488  -22.8009   19.6413 H   0  0  0  0  0  0
  -27.6427  -23.1258   18.1651 H   0  0  0  0  0  0
  -28.8016  -21.0673   18.2771 H   0  0  0  0  0  0
  -27.4529  -20.5644   19.2890 H   0  0  0  0  0  0
  -29.5316  -23.9196   19.3381 H   0  0  0  0  0  0
  -28.6637  -25.0202   21.6900 H   0  0  0  0  0  0
  -27.1212  -24.7855   21.0098 H   0  0  0  0  0  0
  -28.8822  -15.7482   20.6848 H   0  0  0  0  0  0
  1 25  1  0  0  0
  1 30  2  0  0  0
  1 83  1  0  0  0
  2  3  1  0  0  0
  2 25  1  0  0  0
  2 86  1  0  0  0
  2 87  1  0  0  0
  3  4  1  0  0  0
  3 88  1  0  0  0
  3 89  1  0  0  0
  4  5  1  0  0  0
  4 90  1  0  0  0
  4 91  1  0  0  0
  5  6  1  0  0  0
  5 26  1  0  0  0
  5 92  1  0  0  0
  6 25  1  0  0  0
  6 93  1  0  0  0
  6 94  1  0  0  0
  7  8  2  0  0  0
  7 26  1  0  0  0
  7 29  1  0  0  0
  8  9  1  0  0  0
  8 22  1  0  0  0
  9 10  1  0  0  0
  9 27  2  0  0  0
 10 11  2  0  0  0
 10 15  1  0  0  0
 11 12  1  0  0  0
 11 95  1  0  0  0
 12 13  2  0  0  0
 12 96  1  0  0  0
 13 14  1  0  0  0
 13 31  1  0  0  0
 14 15  2  0  0  0
 14 97  1  0  0  0
 15 98  1  0  0  0
 16 17  2  0  0  0
 16 21  1  0  0  0
 16 31  1  0  0  0
 17 18  1  0  0  0
 17 99  1  0  0  0
 18 19  2  0  0  0
 18100  1  0  0  0
 19 20  1  0  0  0
 19 24  1  0  0  0
 20 21  2  0  0  0
 20101  1  0  0  0
 21 23  1  0  0  0
 22 28  1  0  0  0
 22 32  2  0  0  0
 26 27  1  0  0  0
 28102  1  0  0  0
 28103  1  0  0  0
 29104  1  0  0  0
 29105  1  0  0  0
 33 34  1  0  0  0
 33 66  1  0  0  0
 33 70  2  0  0  0
 34 36  1  0  0  0
 34 59  1  0  0  0
 34106  1  0  0  0
 35 44  2  0  0  0
 35 45  1  0  0  0
 35 68  1  0  0  0
 36 56  1  0  0  0
 36107  1  0  0  0
 37 39  1  0  0  0
 37 47  1  0  0  0
 37 66  1  0  0  0
 37108  1  0  0  0
 38 43  2  0  0  0
 38 46  1  0  0  0
 38 47  1  0  0  0
 39 64  1  0  0  0
 39 67  2  0  0  0
 40 52  1  0  0  0
 40 53  2  0  0  0
 40 58  1  0  0  0
 41109  1  0  0  0
 41110  1  0  0  0
 41111  1  0  0  0
 41 48  1  0  0  0
 42 43  1  0  0  0
 42 66  1  0  0  0
 42112  1  0  0  0
 42113  1  0  0  0
 43 44  1  0  0  0
 44114  1  0  0  0
 45 46  2  0  0  0
 45115  1  0  0  0
 46116  1  0  0  0
 47117  1  0  0  0
 47118  1  0  0  0
 48 56  1  0  0  0
 48 65  1  0  0  0
 48119  1  0  0  0
 49 50  1  0  0  0
 49 53  1  0  0  0
 49 64  1  0  0  0
 49120  1  0  0  0
 50 51  1  0  0  0
 50121  1  0  0  0
 50122  1  0  0  0
 51 52  1  0  0  0
 51123  1  0  0  0
 51124  1  0  0  0
 52125  1  0  0  0
 52126  1  0  0  0
 53 54  1  0  0  0
 54 55  2  0  0  0
 54127  1  0  0  0
 55 57  1  0  0  0
 55128  1  0  0  0
 56 69  2  0  0  0
 57 58  2  0  0  0
 57129  1  0  0  0
 58130  1  0  0  0
 59 60  1  0  0  0
 59 61  1  0  0  0
 59 62  1  0  0  0
 60131  1  0  0  0
 60132  1  0  0  0
 60133  1  0  0  0
 61134  1  0  0  0
 61135  1  0  0  0
 61136  1  0  0  0
 62137  1  0  0  0
 62138  1  0  0  0
 62139  1  0  0  0
 63 65  1  0  0  0
 63140  1  0  0  0
 63141  1  0  0  0
 63142  1  0  0  0
 64143  1  0  0  0
 65144  1  0  0  0
 68 81  1  0  0  0
 71 74  2  0  0  0
 71 75  1  0  0  0
 71145  1  0  0  0
 72 74  1  0  0  0
 72 76  2  0  0  0
 72146  1  0  0  0
 73 75  2  0  0  0
 73 76  1  0  0  0
 73147  1  0  0  0
 74 82  1  0  0  0
 75 83  1  0  0  0
 76 85  1  0  0  0
 77 80  1  0  0  0
 77 82  1  0  0  0
 77 84  2  0  0  0
 78 79  1  0  0  0
 78 80  1  0  0  0
 78148  1  0  0  0
 78149  1  0  0  0
 79 82  1  0  0  0
 79150  1  0  0  0
 79151  1  0  0  0
 80 81  1  0  0  0
 80152  1  0  0  0
 81153  1  0  0  0
 81154  1  0  0  0
 83155  1  0  0  0
M  ISO  4   1 100  68 101  81 101  83 100
M  END
> <chiral flag>
0

> <version>
0

> <s_m_source_file>
/data/baiqing/PycharmProjects/Reinvent-master-3.2/result/LINK_invent/BTK/process_docking_weight1_custom_product_contain_oxygen_bond_distance_aromatic_linkinvent_7_9_3/rearranged_h_0064.sdf

> <i_m_source_file_index>
92

> <r_mmod_Potential_Energy-OPLS-2005>
307.916198730469

> <r_mmod_Stretch_Energy-OPLS-2005>
132.600723266602

> <r_mmod_Bend_Energy-OPLS-2005>
192.099319458008

> <r_mmod_Torsional_Energy-OPLS-2005>
290.132720947266

> <r_mmod_Improper_Torsional_Energy-OPLS-2005>
5.64143562316895

> <r_mmod_Van_der_Waal_Energy-OPLS-2005>
138.186447143555

> <r_mmod_Electrostatic_Energy-OPLS-2005>
-319.730102539062

> <r_mmod_Solvation_Energy-OPLS-2005>
-223.796524047852

> <b_mmod_Minimization_Converged-OPLS-2005>
0

> <r_mmod_RMS_Derivative-OPLS-2005>
3.64018177986145

$$$$
93
                    3D
 Structure written by MMmdl.
158167  0  0  1  0            999 V2000
  -30.6150  -14.7070   20.4794 C   0  0  0  0  0  0
  -30.4361  -12.4281   19.4843 C   0  0  0  0  0  0
  -29.5163  -12.5151   18.2450 C   0  0  0  0  0  0
  -28.0390  -12.3461   18.6495 C   0  0  0  0  0  0
  -27.6509  -13.2276   19.8666 C   0  0  2  0  0  0
  -28.6928  -13.1249   21.0042 C   0  0  0  0  0  0
  -25.2545  -13.8187   20.5711 C   0  0  0  0  0  0
  -24.1817  -13.0440   20.9192 C   0  0  0  0  0  0
  -24.6403  -11.6915   20.8745 C   0  0  0  0  0  0
  -23.9076  -10.4295   21.0404 C   0  0  0  0  0  0
  -24.3626   -9.4208   21.9180 C   0  0  0  0  0  0
  -23.6303   -8.2245   22.0751 C   0  0  0  0  0  0
  -22.4283   -8.0289   21.3545 C   0  0  0  0  0  0
  -21.9916   -9.0265   20.4648 C   0  0  0  0  0  0
  -22.7246  -10.2146   20.3055 C   0  0  0  0  0  0
  -21.6853   -6.0744   22.5277 C   0  0  0  0  0  0
  -21.4015   -6.5644   23.8216 C   0  0  0  0  0  0
  -21.3654   -5.6792   24.9174 C   0  0  0  0  0  0
  -21.6045   -4.3060   24.7222 C   0  0  0  0  0  0
  -21.8815   -3.8153   23.4341 C   0  0  0  0  0  0
  -21.9190   -4.6969   22.3396 C   0  0  0  0  0  0
  -22.7835  -13.5234   21.1847 C   0  0  0  0  0  0
  -22.1659   -4.2156   21.0970 F   0  0  0  0  0  0
  -21.5628   -3.4542   25.7731 F   0  0  0  0  0  0
  -30.0067  -13.4722   20.4437 N   0  0  0  0  0  0
  -26.2980  -12.9391   20.3339 N   0  0  0  0  0  0
  -25.9341  -11.6532   20.5767 N   0  0  0  0  0  0
  -22.0475  -12.8242   22.0411 N   0  0  0  0  0  0
  -25.4258  -15.1911   20.4154 N   0  0  0  0  0  0
  -31.7622  -14.8471   20.0446 O   0  0  0  0  0  0
  -21.6642   -6.8891   21.4242 O   0  0  0  0  0  0
  -22.3513  -14.5535   20.6690 O   0  0  0  0  0  0
  -24.6303  -31.8555   23.1999 C   0  0  0  0  0  0
  -25.9131  -32.4756   23.8340 C   0  0  1  0  0  0
  -27.2193  -27.2663   20.1208 C   0  0  0  0  0  0
  -25.5930  -33.8560   24.2261 N   0  0  0  0  0  0
  -23.4267  -30.4792   21.5425 C   0  0  2  0  0  0
  -24.8731  -28.9290   20.1069 C   0  0  0  0  0  0
  -22.7497  -29.4602   22.4914 C   0  0  0  0  0  0
  -18.0286  -28.1386   22.8478 C   0  0  0  0  0  0
  -24.1482  -36.7283   23.2641 C   0  0  0  0  0  0
  -25.9719  -30.7671   21.3817 C   0  0  0  0  0  0
  -26.0421  -29.3908   20.7231 C   0  0  0  0  0  0
  -27.2134  -28.5690   20.7250 C   0  0  0  0  0  0
  -26.0316  -26.8834   19.4545 C   0  0  0  0  0  0
  -24.8730  -27.6836   19.4625 C   0  0  0  0  0  0
  -23.6444  -29.8154   20.1573 C   0  0  0  0  0  0
  -25.4109  -36.3068   24.0327 C   0  0  1  0  0  0
  -20.5889  -28.3696   23.1267 C   0  0  2  0  0  0
  -20.6772  -26.9415   22.5406 C   0  0  0  0  0  0
  -19.5748  -26.6381   21.5206 C   0  0  0  0  0  0
  -18.1930  -26.7927   22.1621 C   0  0  0  0  0  0
  -19.1540  -28.8856   23.2867 C   0  0  0  0  0  0
  -18.9466  -30.1458   23.8885 C   0  0  0  0  0  0
  -17.6469  -30.6589   24.0558 C   0  0  0  0  0  0
  -25.9052  -34.9441   23.5095 C   0  0  0  0  0  0
  -16.5357  -29.9091   23.6327 C   0  0  0  0  0  0
  -16.7275  -28.6506   23.0346 C   0  0  0  0  0  0
  -26.4500  -31.6587   25.0735 C   0  0  0  0  0  0
  -25.3727  -31.3746   26.1462 C   0  0  0  0  0  0
  -27.0359  -30.3005   24.6233 C   0  0  0  0  0  0
  -27.6054  -32.4334   25.7506 C   0  0  0  0  0  0
  -27.5574  -37.1793   24.8463 C   0  0  0  0  0  0
  -21.4206  -29.3047   22.3657 N   0  0  0  0  0  0
  -26.4277  -37.3773   23.9419 N   0  0  0  0  0  0
  -24.6952  -31.0524   22.0972 N   0  0  0  0  0  0
  -23.4199  -28.8142   23.3008 O   0  0  0  0  0  0
  -28.3243  -26.3863   20.2116 O   0  0  0  0  0  0
  -26.5629  -34.8915   22.4667 O   0  0  0  0  0  0
  -23.5455  -32.1377   23.7296 O   0  0  0  0  0  0
  -28.7341  -19.4344   18.8418 C   0  0  0  0  0  0
  -29.7925  -18.4091   20.7738 C   0  0  0  0  0  0
  -28.9962  -16.9940   18.9605 C   0  0  0  0  0  0
  -29.3923  -19.6355   20.0792 C   0  0  0  0  0  0
  -28.5456  -18.1502   18.2908 C   0  0  0  0  0  0
  -29.6209  -17.0737   20.2237 C   0  0  0  0  0  0
  -31.3017  -22.7558   21.0201 C   0  0  0  0  0  0
  -30.5296  -23.8692   20.7750 C   0  0  0  0  0  0
  -30.8589  -21.3640   21.0673 C   0  0  0  0  0  0
  -28.7867  -22.2176   19.9946 C   0  0  0  0  0  0
  -29.0204  -23.7093   20.5679 C   0  0  2  0  0  0
  -28.2351  -24.9324   19.8174 C   0  0  0  0  0  0
  -29.6574  -21.0567   20.4931 N   0  0  0  0  0  0
  -27.8971  -18.0219   17.0631 N   0  0  0  0  0  0
  -29.8875  -15.7958   20.9195 N   0  0  0  0  0  0
  -30.9115  -25.0566   20.6917 O   0  5  0  0  0  0
  -31.5942  -20.5287   21.5936 O   0  0  0  0  0  0
  -31.4805  -12.5431   19.1880 H   0  0  0  0  0  0
  -30.3686  -11.4423   19.9468 H   0  0  0  0  0  0
  -29.7953  -11.7533   17.5157 H   0  0  0  0  0  0
  -29.6539  -13.4765   17.7484 H   0  0  0  0  0  0
  -27.8808  -11.2947   18.8911 H   0  0  0  0  0  0
  -27.3878  -12.5631   17.8019 H   0  0  0  0  0  0
  -27.6561  -14.2570   19.5110 H   0  0  0  0  0  0
  -28.7133  -12.1159   21.4181 H   0  0  0  0  0  0
  -28.4272  -13.7815   21.8337 H   0  0  0  0  0  0
  -25.2771   -9.5690   22.4748 H   0  0  0  0  0  0
  -24.0015   -7.4634   22.7470 H   0  0  0  0  0  0
  -21.0841   -8.8790   19.8960 H   0  0  0  0  0  0
  -22.3698  -10.9690   19.6170 H   0  0  0  0  0  0
  -21.2013   -7.6152   23.9726 H   0  0  0  0  0  0
  -21.1477   -6.0517   25.9076 H   0  0  0  0  0  0
  -22.0601   -2.7617   23.2832 H   0  0  0  0  0  0
  -22.4103  -11.9919   22.4821 H   0  0  0  0  0  0
  -21.1095  -13.1286   22.2609 H   0  0  0  0  0  0
  -24.6637  -15.8493   20.5347 H   0  0  0  0  0  0
  -26.2796  -15.6310   20.0954 H   0  0  0  0  0  0
  -26.7196  -32.5401   23.1080 H   0  0  0  0  0  0
  -25.0065  -33.9697   25.0398 H   0  0  0  0  0  0
  -22.7223  -31.3009   21.3976 H   0  0  0  0  0  0
  -23.3744  -35.9612   23.3293 H   0  0  0  0  0  0
  -24.3573  -36.8918   22.2057 H   0  0  0  0  0  0
  -23.7228  -37.6478   23.6672 H   0  0  0  0  0  0
  -26.1109  -31.5276   20.6123 H   0  0  0  0  0  0
  -26.8493  -30.8152   22.0148 H   0  0  0  0  0  0
  -28.1044  -28.9129   21.2310 H   0  0  0  0  0  0
  -25.9584  -25.9492   18.9205 H   0  0  0  0  0  0
  -23.9816  -27.3318   18.9613 H   0  0  0  0  0  0
  -23.7701  -30.5922   19.4023 H   0  0  0  0  0  0
  -22.7626  -29.2502   19.8514 H   0  0  0  0  0  0
  -25.1285  -36.1913   25.0818 H   0  0  0  0  0  0
  -20.9974  -28.3273   24.1391 H   0  0  0  0  0  0
  -20.5661  -26.2313   23.3613 H   0  0  0  0  0  0
  -21.6644  -26.7435   22.1211 H   0  0  0  0  0  0
  -19.6916  -25.6288   21.1246 H   0  0  0  0  0  0
  -19.6685  -27.3181   20.6727 H   0  0  0  0  0  0
  -17.4200  -26.6659   21.4028 H   0  0  0  0  0  0
  -18.0342  -26.0073   22.9023 H   0  0  0  0  0  0
  -19.7946  -30.7269   24.2254 H   0  0  0  0  0  0
  -17.5028  -31.6268   24.5164 H   0  0  0  0  0  0
  -15.5359  -30.2994   23.7655 H   0  0  0  0  0  0
  -15.8672  -28.0828   22.7064 H   0  0  0  0  0  0
  -24.5883  -30.7115   25.7795 H   0  0  0  0  0  0
  -24.8940  -32.2923   26.4890 H   0  0  0  0  0  0
  -25.8043  -30.8917   27.0238 H   0  0  0  0  0  0
  -26.2957  -29.6745   24.1236 H   0  0  0  0  0  0
  -27.4019  -29.7276   25.4763 H   0  0  0  0  0  0
  -27.8840  -30.4283   23.9502 H   0  0  0  0  0  0
  -27.2654  -33.3629   26.2086 H   0  0  0  0  0  0
  -28.3860  -32.6907   25.0335 H   0  0  0  0  0  0
  -28.0728  -31.8464   26.5421 H   0  0  0  0  0  0
  -28.2584  -38.0096   24.7517 H   0  0  0  0  0  0
  -28.1071  -36.2629   24.6266 H   0  0  0  0  0  0
  -27.2301  -37.1422   25.8868 H   0  0  0  0  0  0
  -20.9391  -29.8785   21.6876 H   0  0  0  0  0  0
  -26.0151  -38.2842   24.1431 H   0  0  0  0  0  0
  -28.3904  -20.2814   18.2679 H   0  0  0  0  0  0
  -30.2477  -18.4867   21.7505 H   0  0  0  0  0  0
  -28.8237  -16.0256   18.5126 H   0  0  0  0  0  0
  -32.3610  -22.9111   21.1746 H   0  0  0  0  0  0
  -28.9452  -22.2829   18.9191 H   0  0  0  0  0  0
  -27.7409  -21.9441   20.1331 H   0  0  0  0  0  0
  -28.5915  -23.6941   21.5713 H   0  0  0  0  0  0
  -27.1972  -24.6155   19.8797 H   0  0  0  0  0  0
  -28.4890  -24.8922   18.7578 H   0  0  0  0  0  0
  -27.7238  -18.8385   16.4846 H   0  0  0  0  0  0
  -27.9513  -17.1527   16.5413 H   0  0  0  0  0  0
  -29.1245  -15.5135   21.5171 H   0  0  0  0  0  0
  1 25  1  0  0  0
  1 30  2  0  0  0
  1 85  1  0  0  0
  2  3  1  0  0  0
  2 25  1  0  0  0
  2 88  1  0  0  0
  2 89  1  0  0  0
  3  4  1  0  0  0
  3 90  1  0  0  0
  3 91  1  0  0  0
  4  5  1  0  0  0
  4 92  1  0  0  0
  4 93  1  0  0  0
  5  6  1  0  0  0
  5 26  1  0  0  0
  5 94  1  0  0  0
  6 25  1  0  0  0
  6 95  1  0  0  0
  6 96  1  0  0  0
  7  8  2  0  0  0
  7 26  1  0  0  0
  7 29  1  0  0  0
  8  9  1  0  0  0
  8 22  1  0  0  0
  9 10  1  0  0  0
  9 27  2  0  0  0
 10 11  2  0  0  0
 10 15  1  0  0  0
 11 12  1  0  0  0
 11 97  1  0  0  0
 12 13  2  0  0  0
 12 98  1  0  0  0
 13 14  1  0  0  0
 13 31  1  0  0  0
 14 15  2  0  0  0
 14 99  1  0  0  0
 15100  1  0  0  0
 16 17  2  0  0  0
 16 21  1  0  0  0
 16 31  1  0  0  0
 17 18  1  0  0  0
 17101  1  0  0  0
 18 19  2  0  0  0
 18102  1  0  0  0
 19 20  1  0  0  0
 19 24  1  0  0  0
 20 21  2  0  0  0
 20103  1  0  0  0
 21 23  1  0  0  0
 22 28  1  0  0  0
 22 32  2  0  0  0
 26 27  1  0  0  0
 28104  1  0  0  0
 28105  1  0  0  0
 29106  1  0  0  0
 29107  1  0  0  0
 33 34  1  0  0  0
 33 66  1  0  0  0
 33 70  2  0  0  0
 34 36  1  0  0  0
 34 59  1  0  0  0
 34108  1  0  0  0
 35 44  2  0  0  0
 35 45  1  0  0  0
 35 68  1  0  0  0
 36 56  1  0  0  0
 36109  1  0  0  0
 37 39  1  0  0  0
 37 47  1  0  0  0
 37 66  1  0  0  0
 37110  1  0  0  0
 38 43  2  0  0  0
 38 46  1  0  0  0
 38 47  1  0  0  0
 39 64  1  0  0  0
 39 67  2  0  0  0
 40 52  1  0  0  0
 40 53  2  0  0  0
 40 58  1  0  0  0
 41111  1  0  0  0
 41112  1  0  0  0
 41113  1  0  0  0
 41 48  1  0  0  0
 42 43  1  0  0  0
 42 66  1  0  0  0
 42114  1  0  0  0
 42115  1  0  0  0
 43 44  1  0  0  0
 44116  1  0  0  0
 45 46  2  0  0  0
 45117  1  0  0  0
 46118  1  0  0  0
 47119  1  0  0  0
 47120  1  0  0  0
 48 56  1  0  0  0
 48 65  1  0  0  0
 48121  1  0  0  0
 49 50  1  0  0  0
 49 53  1  0  0  0
 49 64  1  0  0  0
 49122  1  0  0  0
 50 51  1  0  0  0
 50123  1  0  0  0
 50124  1  0  0  0
 51 52  1  0  0  0
 51125  1  0  0  0
 51126  1  0  0  0
 52127  1  0  0  0
 52128  1  0  0  0
 53 54  1  0  0  0
 54 55  2  0  0  0
 54129  1  0  0  0
 55 57  1  0  0  0
 55130  1  0  0  0
 56 69  2  0  0  0
 57 58  2  0  0  0
 57131  1  0  0  0
 58132  1  0  0  0
 59 60  1  0  0  0
 59 61  1  0  0  0
 59 62  1  0  0  0
 60133  1  0  0  0
 60134  1  0  0  0
 60135  1  0  0  0
 61136  1  0  0  0
 61137  1  0  0  0
 61138  1  0  0  0
 62139  1  0  0  0
 62140  1  0  0  0
 62141  1  0  0  0
 63 65  1  0  0  0
 63142  1  0  0  0
 63143  1  0  0  0
 63144  1  0  0  0
 64145  1  0  0  0
 65146  1  0  0  0
 68 82  1  0  0  0
 71 74  2  0  0  0
 71 75  1  0  0  0
 71147  1  0  0  0
 72 74  1  0  0  0
 72 76  2  0  0  0
 72148  1  0  0  0
 73 75  2  0  0  0
 73 76  1  0  0  0
 73149  1  0  0  0
 74 83  1  0  0  0
 75 84  1  0  0  0
 76 85  1  0  0  0
 77 78  2  0  0  0
 77 79  1  0  0  0
 77150  1  0  0  0
 78 81  1  0  0  0
 78 86  1  0  0  0
 79 83  1  0  0  0
 79 87  2  0  0  0
 80 81  1  0  0  0
 80 83  1  0  0  0
 80151  1  0  0  0
 80152  1  0  0  0
 81 82  1  0  0  0
 81153  1  0  0  0
 82154  1  0  0  0
 82155  1  0  0  0
 84156  1  0  0  0
 84157  1  0  0  0
 85158  1  0  0  0
M  CHG  1  86  -1
M  ISO  4   1 100  68 101  82 101  85 100
M  END
> <chiral flag>
0

> <version>
0

> <s_m_source_file>
/data/baiqing/PycharmProjects/Reinvent-master-3.2/result/LINK_invent/BTK/process_docking_weight1_custom_product_contain_oxygen_bond_distance_aromatic_linkinvent_7_9_3/rearranged_h_0064.sdf

> <i_m_source_file_index>
93

> <r_mmod_Potential_Energy-OPLS-2005>
2.93721604347229

> <r_mmod_Stretch_Energy-OPLS-2005>
133.609985351562

> <r_mmod_Bend_Energy-OPLS-2005>
196.259429931641

> <r_mmod_Torsional_Energy-OPLS-2005>
295.052703857422

> <r_mmod_Improper_Torsional_Energy-OPLS-2005>
8.07012176513672

> <r_mmod_Van_der_Waal_Energy-OPLS-2005>
158.676528930664

> <r_mmod_Electrostatic_Energy-OPLS-2005>
-338.667724609375

> <r_mmod_Solvation_Energy-OPLS-2005>
-524.717407226562

> <b_mmod_Minimization_Converged-OPLS-2005>
0

> <r_mmod_RMS_Derivative-OPLS-2005>
1.2046172618866

$$$$
