0
                    3D
 Structure written by MMmdl.
161170  0  0  1  0            999 V2000
  -30.5749  -14.7714   20.4689 C   0  0  0  0  0  0
  -30.4456  -12.4741   19.4633 C   0  0  0  0  0  0
  -29.5138  -12.5020   18.2301 C   0  0  0  0  0  0
  -28.0385  -12.3202   18.6460 C   0  0  0  0  0  0
  -27.6378  -13.2238   19.8405 C   0  0  2  0  0  0
  -28.6847  -13.1608   20.9714 C   0  0  0  0  0  0
  -25.2504  -13.8179   20.5678 C   0  0  0  0  0  0
  -24.1791  -13.0433   20.9195 C   0  0  0  0  0  0
  -24.6380  -11.6911   20.8738 C   0  0  0  0  0  0
  -23.9059  -10.4292   21.0416 C   0  0  0  0  0  0
  -24.3614   -9.4204   21.9193 C   0  0  0  0  0  0
  -23.6286   -8.2242   22.0762 C   0  0  0  0  0  0
  -22.4265   -8.0286   21.3553 C   0  0  0  0  0  0
  -21.9897   -9.0257   20.4653 C   0  0  0  0  0  0
  -22.7231  -10.2134   20.3066 C   0  0  0  0  0  0
  -21.6852   -6.0738   22.5279 C   0  0  0  0  0  0
  -21.4018   -6.5644   23.8212 C   0  0  0  0  0  0
  -21.3661   -5.6792   24.9174 C   0  0  0  0  0  0
  -21.6046   -4.3053   24.7224 C   0  0  0  0  0  0
  -21.8817   -3.8145   23.4343 C   0  0  0  0  0  0
  -21.9188   -4.6965   22.3400 C   0  0  0  0  0  0
  -22.7816  -13.5225   21.1874 C   0  0  0  0  0  0
  -22.1658   -4.2156   21.0978 F   0  0  0  0  0  0
  -21.5626   -3.4538   25.7736 F   0  0  0  0  0  0
  -29.9799  -13.5321   20.3852 N   0  0  0  0  0  0
  -26.2910  -12.9366   20.3218 N   0  0  0  0  0  0
  -25.9296  -11.6515   20.5695 N   0  0  0  0  0  0
  -22.0468  -12.8207   22.0436 N   0  0  0  0  0  0
  -25.4179  -15.1914   20.4139 N   0  0  0  0  0  0
  -31.7815  -14.8977   20.2402 O   0  0  0  0  0  0
  -21.6635   -6.8879   21.4244 O   0  0  0  0  0  0
  -22.3493  -14.5528   20.6719 O   0  0  0  0  0  0
  -24.6308  -31.8544   23.1955 C   0  0  0  0  0  0
  -25.9125  -32.4752   23.8314 C   0  0  1  0  0  0
  -27.2268  -27.2639   20.1393 C   0  0  0  0  0  0
  -25.5911  -33.8555   24.2233 N   0  0  0  0  0  0
  -23.4284  -30.4723   21.5398 C   0  0  2  0  0  0
  -24.8777  -28.9094   20.1186 C   0  0  0  0  0  0
  -22.7500  -29.4590   22.4934 C   0  0  0  0  0  0
  -18.0290  -28.1375   22.8484 C   0  0  0  0  0  0
  -24.1487  -36.7297   23.2640 C   0  0  0  0  0  0
  -25.9728  -30.7674   21.3743 C   0  0  0  0  0  0
  -26.0494  -29.3869   20.7232 C   0  0  0  0  0  0
  -27.2300  -28.5778   20.7170 C   0  0  0  0  0  0
  -26.0339  -26.8437   19.5187 C   0  0  0  0  0  0
  -24.8748  -27.6454   19.5054 C   0  0  0  0  0  0
  -23.6474  -29.7958   20.1603 C   0  0  0  0  0  0
  -25.4112  -36.3074   24.0322 C   0  0  1  0  0  0
  -20.5887  -28.3689   23.1272 C   0  0  2  0  0  0
  -20.6774  -26.9404   22.5408 C   0  0  0  0  0  0
  -19.5751  -26.6375   21.5212 C   0  0  0  0  0  0
  -18.1931  -26.7919   22.1621 C   0  0  0  0  0  0
  -19.1540  -28.8849   23.2872 C   0  0  0  0  0  0
  -18.9467  -30.1447   23.8896 C   0  0  0  0  0  0
  -17.6464  -30.6582   24.0555 C   0  0  0  0  0  0
  -25.9050  -34.9442   23.5084 C   0  0  0  0  0  0
  -16.5355  -29.9078   23.6324 C   0  0  0  0  0  0
  -16.7274  -28.6487   23.0363 C   0  0  0  0  0  0
  -26.4477  -31.6586   25.0719 C   0  0  0  0  0  0
  -25.3686  -31.3758   26.1437 C   0  0  0  0  0  0
  -27.0329  -30.2998   24.6224 C   0  0  0  0  0  0
  -27.6025  -32.4333   25.7492 C   0  0  0  0  0  0
  -27.5574  -37.1801   24.8454 C   0  0  0  0  0  0
  -21.4205  -29.3037   22.3672 N   0  0  0  0  0  0
  -26.4286  -37.3775   23.9403 N   0  0  0  0  0  0
  -24.6964  -31.0503   22.0930 N   0  0  0  0  0  0
  -23.4193  -28.8147   23.3048 O   0  0  0  0  0  0
  -28.3291  -26.3864   20.1073 O   0  0  0  0  0  0
  -26.5643  -34.8917   22.4665 O   0  0  0  0  0  0
  -23.5455  -32.1370   23.7239 O   0  0  0  0  0  0
  -29.3169  -19.8344   22.2356 C   0  0  0  0  0  0
  -29.5241  -18.6767   23.0102 C   0  0  0  0  0  0
  -29.6040  -18.4785   20.2463 C   0  0  0  0  0  0
  -29.3925  -19.8045   20.8286 C   0  0  0  0  0  0
  -29.7549  -17.4086   22.4317 C   0  0  0  0  0  0
  -29.7850  -17.2501   21.0216 C   0  0  0  0  0  0
  -28.4628  -23.6920   20.0286 C   0  0  0  0  0  0
  -29.6195  -23.8615   22.6594 C   0  0  0  0  0  0
  -29.2420  -25.2081   22.0254 C   0  0  0  0  0  0
  -30.1677  -22.9176   21.5749 C   0  0  0  0  0  0
  -28.2616  -25.0772   20.8429 C   0  0  1  0  0  0
  -29.8729  -16.2181   23.3705 C   0  0  0  0  0  0
  -29.1717  -21.1594   19.9867 C   0  0  0  0  0  0
  -29.1400  -22.5922   20.5741 N   0  0  0  0  0  0
  -29.7173  -15.8675   20.4743 N   0  0  0  0  0  0
  -27.9085  -23.5963   18.9297 O   0  0  0  0  0  0
  -31.4824  -12.6276   19.1589 H   0  0  0  0  0  0
  -30.4143  -11.5008   19.9558 H   0  0  0  0  0  0
  -29.7994  -11.7231   17.5225 H   0  0  0  0  0  0
  -29.6305  -13.4501   17.7029 H   0  0  0  0  0  0
  -27.8953  -11.2723   18.9119 H   0  0  0  0  0  0
  -27.3809  -12.5090   17.7971 H   0  0  0  0  0  0
  -27.6262  -14.2407   19.4493 H   0  0  0  0  0  0
  -28.7276  -12.1616   21.4073 H   0  0  0  0  0  0
  -28.4122  -13.8373   21.7817 H   0  0  0  0  0  0
  -25.2773   -9.5671   22.4749 H   0  0  0  0  0  0
  -24.0004   -7.4623   22.7466 H   0  0  0  0  0  0
  -21.0830   -8.8777   19.8944 H   0  0  0  0  0  0
  -22.3708  -10.9669   19.6160 H   0  0  0  0  0  0
  -21.2028   -7.6154   23.9721 H   0  0  0  0  0  0
  -21.1480   -6.0522   25.9075 H   0  0  0  0  0  0
  -22.0592   -2.7610   23.2841 H   0  0  0  0  0  0
  -22.4084  -11.9863   22.4809 H   0  0  0  0  0  0
  -21.1093  -13.1230   22.2671 H   0  0  0  0  0  0
  -24.6483  -15.8396   20.5382 H   0  0  0  0  0  0
  -26.2609  -15.6418   20.0838 H   0  0  0  0  0  0
  -26.7197  -32.5403   23.1059 H   0  0  0  0  0  0
  -25.0014  -33.9691   25.0347 H   0  0  0  0  0  0
  -22.7242  -31.2932   21.3876 H   0  0  0  0  0  0
  -23.3746  -35.9631   23.3297 H   0  0  0  0  0  0
  -24.3573  -36.8939   22.2056 H   0  0  0  0  0  0
  -23.7252  -37.6495   23.6682 H   0  0  0  0  0  0
  -26.1085  -31.5241   20.6004 H   0  0  0  0  0  0
  -26.8503  -30.8207   22.0074 H   0  0  0  0  0  0
  -28.1337  -28.9430   21.1844 H   0  0  0  0  0  0
  -25.9986  -25.8724   19.0457 H   0  0  0  0  0  0
  -23.9783  -27.2743   19.0273 H   0  0  0  0  0  0
  -23.7658  -30.5640   19.3956 H   0  0  0  0  0  0
  -22.7678  -29.2222   19.8635 H   0  0  0  0  0  0
  -25.1296  -36.1912   25.0817 H   0  0  0  0  0  0
  -20.9970  -28.3268   24.1395 H   0  0  0  0  0  0
  -20.5664  -26.2298   23.3613 H   0  0  0  0  0  0
  -21.6646  -26.7422   22.1206 H   0  0  0  0  0  0
  -19.6910  -25.6288   21.1245 H   0  0  0  0  0  0
  -19.6689  -27.3178   20.6737 H   0  0  0  0  0  0
  -17.4196  -26.6662   21.4028 H   0  0  0  0  0  0
  -18.0328  -26.0064   22.9018 H   0  0  0  0  0  0
  -19.7946  -30.7260   24.2270 H   0  0  0  0  0  0
  -17.5025  -31.6265   24.5152 H   0  0  0  0  0  0
  -15.5356  -30.2981   23.7663 H   0  0  0  0  0  0
  -15.8671  -28.0806   22.7093 H   0  0  0  0  0  0
  -24.5823  -30.7160   25.7751 H   0  0  0  0  0  0
  -24.8924  -32.2946   26.4871 H   0  0  0  0  0  0
  -25.7970  -30.8902   27.0214 H   0  0  0  0  0  0
  -26.2922  -29.6757   24.1214 H   0  0  0  0  0  0
  -27.3957  -29.7259   25.4763 H   0  0  0  0  0  0
  -27.8823  -30.4262   23.9507 H   0  0  0  0  0  0
  -27.2610  -33.3618   26.2077 H   0  0  0  0  0  0
  -28.3824  -32.6927   25.0320 H   0  0  0  0  0  0
  -28.0704  -31.8465   26.5405 H   0  0  0  0  0  0
  -28.2579  -38.0109   24.7505 H   0  0  0  0  0  0
  -28.1084  -36.2641   24.6267 H   0  0  0  0  0  0
  -27.2298  -37.1430   25.8859 H   0  0  0  0  0  0
  -20.9399  -29.8739   21.6854 H   0  0  0  0  0  0
  -26.0164  -38.2850   24.1405 H   0  0  0  0  0  0
  -29.0819  -20.7516   22.7550 H   0  0  0  0  0  0
  -29.4581  -18.7717   24.0850 H   0  0  0  0  0  0
  -29.5852  -18.3980   19.1685 H   0  0  0  0  0  0
  -28.7529  -23.4129   23.1486 H   0  0  0  0  0  0
  -30.3670  -24.0182   23.4380 H   0  0  0  0  0  0
  -30.1525  -25.6953   21.6755 H   0  0  0  0  0  0
  -28.8176  -25.8704   22.7811 H   0  0  0  0  0  0
  -30.6217  -22.0386   22.0238 H   0  0  0  0  0  0
  -30.9949  -23.4075   21.0582 H   0  0  0  0  0  0
  -27.2620  -24.9854   21.2718 H   0  0  0  0  0  0
  -29.9316  -16.5368   24.4117 H   0  0  0  0  0  0
  -30.7703  -15.6375   23.1607 H   0  0  0  0  0  0
  -29.0025  -15.5699   23.2717 H   0  0  0  0  0  0
  -28.2322  -21.0168   19.4504 H   0  0  0  0  0  0
  -29.9359  -21.1688   19.2087 H   0  0  0  0  0  0
  -28.7678  -15.5658   20.3241 H   0  0  0  0  0  0
  1 25  1  0  0  0
  1 30  2  0  0  0
  1 85  1  0  0  0
  2  3  1  0  0  0
  2 25  1  0  0  0
  2 87  1  0  0  0
  2 88  1  0  0  0
  3  4  1  0  0  0
  3 89  1  0  0  0
  3 90  1  0  0  0
  4  5  1  0  0  0
  4 91  1  0  0  0
  4 92  1  0  0  0
  5  6  1  0  0  0
  5 26  1  0  0  0
  5 93  1  0  0  0
  6 25  1  0  0  0
  6 94  1  0  0  0
  6 95  1  0  0  0
  7  8  2  0  0  0
  7 26  1  0  0  0
  7 29  1  0  0  0
  8  9  1  0  0  0
  8 22  1  0  0  0
  9 10  1  0  0  0
  9 27  2  0  0  0
 10 11  2  0  0  0
 10 15  1  0  0  0
 11 12  1  0  0  0
 11 96  1  0  0  0
 12 13  2  0  0  0
 12 97  1  0  0  0
 13 14  1  0  0  0
 13 31  1  0  0  0
 14 15  2  0  0  0
 14 98  1  0  0  0
 15 99  1  0  0  0
 16 17  2  0  0  0
 16 21  1  0  0  0
 16 31  1  0  0  0
 17 18  1  0  0  0
 17100  1  0  0  0
 18 19  2  0  0  0
 18101  1  0  0  0
 19 20  1  0  0  0
 19 24  1  0  0  0
 20 21  2  0  0  0
 20102  1  0  0  0
 21 23  1  0  0  0
 22 28  1  0  0  0
 22 32  2  0  0  0
 26 27  1  0  0  0
 28103  1  0  0  0
 28104  1  0  0  0
 29105  1  0  0  0
 29106  1  0  0  0
 33 34  1  0  0  0
 33 66  1  0  0  0
 33 70  2  0  0  0
 34 36  1  0  0  0
 34 59  1  0  0  0
 34107  1  0  0  0
 35 44  2  0  0  0
 35 45  1  0  0  0
 35 68  1  0  0  0
 36 56  1  0  0  0
 36108  1  0  0  0
 37 39  1  0  0  0
 37 47  1  0  0  0
 37 66  1  0  0  0
 37109  1  0  0  0
 38 43  2  0  0  0
 38 46  1  0  0  0
 38 47  1  0  0  0
 39 64  1  0  0  0
 39 67  2  0  0  0
 40 52  1  0  0  0
 40 53  2  0  0  0
 40 58  1  0  0  0
 41110  1  0  0  0
 41111  1  0  0  0
 41112  1  0  0  0
 41 48  1  0  0  0
 42 43  1  0  0  0
 42 66  1  0  0  0
 42113  1  0  0  0
 42114  1  0  0  0
 43 44  1  0  0  0
 44115  1  0  0  0
 45 46  2  0  0  0
 45116  1  0  0  0
 46117  1  0  0  0
 47118  1  0  0  0
 47119  1  0  0  0
 48 56  1  0  0  0
 48 65  1  0  0  0
 48120  1  0  0  0
 49 50  1  0  0  0
 49 53  1  0  0  0
 49 64  1  0  0  0
 49121  1  0  0  0
 50 51  1  0  0  0
 50122  1  0  0  0
 50123  1  0  0  0
 51 52  1  0  0  0
 51124  1  0  0  0
 51125  1  0  0  0
 52126  1  0  0  0
 52127  1  0  0  0
 53 54  1  0  0  0
 54 55  2  0  0  0
 54128  1  0  0  0
 55 57  1  0  0  0
 55129  1  0  0  0
 56 69  2  0  0  0
 57 58  2  0  0  0
 57130  1  0  0  0
 58131  1  0  0  0
 59 60  1  0  0  0
 59 61  1  0  0  0
 59 62  1  0  0  0
 60132  1  0  0  0
 60133  1  0  0  0
 60134  1  0  0  0
 61135  1  0  0  0
 61136  1  0  0  0
 61137  1  0  0  0
 62138  1  0  0  0
 62139  1  0  0  0
 62140  1  0  0  0
 63 65  1  0  0  0
 63141  1  0  0  0
 63142  1  0  0  0
 63143  1  0  0  0
 64144  1  0  0  0
 65145  1  0  0  0
 68 81  1  0  0  0
 71 72  2  0  0  0
 71 74  1  0  0  0
 71146  1  0  0  0
 72 75  1  0  0  0
 72147  1  0  0  0
 73 74  2  0  0  0
 73 76  1  0  0  0
 73148  1  0  0  0
 74 83  1  0  0  0
 75 76  2  0  0  0
 75 82  1  0  0  0
 76 85  1  0  0  0
 77 81  1  0  0  0
 77 84  1  0  0  0
 77 86  2  0  0  0
 78 79  1  0  0  0
 78 80  1  0  0  0
 78149  1  0  0  0
 78150  1  0  0  0
 79 81  1  0  0  0
 79151  1  0  0  0
 79152  1  0  0  0
 80 84  1  0  0  0
 80153  1  0  0  0
 80154  1  0  0  0
 81155  1  0  0  0
 82156  1  0  0  0
 82157  1  0  0  0
 82158  1  0  0  0
 83 84  1  0  0  0
 83159  1  0  0  0
 83160  1  0  0  0
 85161  1  0  0  0
M  ISO  4   1 100  68 101  81 101  85 100
M  END
> <chiral flag>
0

> <version>
0

> <s_m_source_file>
/data/baiqing/PycharmProjects/Reinvent-master-3.2/result/LINK_invent/BTK/process_docking_weight1_custom_product_contain_oxygen_bond_distance_aromatic_linkinvent_7_9_3/rearranged_h_0041.sdf

> <i_m_source_file_index>
1

> <r_mmod_Potential_Energy-OPLS-2005>
272.948944091797

> <r_mmod_Stretch_Energy-OPLS-2005>
138.050506591797

> <r_mmod_Bend_Energy-OPLS-2005>
174.041854858398

> <r_mmod_Torsional_Energy-OPLS-2005>
298.955017089844

> <r_mmod_Improper_Torsional_Energy-OPLS-2005>
13.1792783737183

> <r_mmod_Van_der_Waal_Energy-OPLS-2005>
139.971069335938

> <r_mmod_Electrostatic_Energy-OPLS-2005>
-353.644012451172

> <r_mmod_Solvation_Energy-OPLS-2005>
-229.624710083008

> <b_mmod_Minimization_Converged-OPLS-2005>
0

> <r_mmod_RMS_Derivative-OPLS-2005>
1.78075683116913

$$$$
1
                    3D
 Structure written by MMmdl.
159167  0  0  1  0            999 V2000
  -30.7012  -14.4555   20.5839 C   0  0  0  0  0  0
  -30.4194  -12.3050   19.4080 C   0  0  0  0  0  0
  -29.4849  -12.4998   18.1968 C   0  0  0  0  0  0
  -28.0068  -12.3666   18.6131 C   0  0  0  0  0  0
  -27.6589  -13.2035   19.8736 C   0  0  2  0  0  0
  -28.7022  -12.9733   20.9883 C   0  0  0  0  0  0
  -25.2587  -13.8173   20.5694 C   0  0  0  0  0  0
  -24.1828  -13.0452   20.9174 C   0  0  0  0  0  0
  -24.6378  -11.6915   20.8740 C   0  0  0  0  0  0
  -23.9041  -10.4300   21.0405 C   0  0  0  0  0  0
  -24.3606   -9.4218   21.9184 C   0  0  0  0  0  0
  -23.6287   -8.2249   22.0758 C   0  0  0  0  0  0
  -22.4266   -8.0280   21.3546 C   0  0  0  0  0  0
  -21.9896   -9.0249   20.4645 C   0  0  0  0  0  0
  -22.7220  -10.2131   20.3050 C   0  0  0  0  0  0
  -21.6848   -6.0727   22.5275 C   0  0  0  0  0  0
  -21.4008   -6.5635   23.8208 C   0  0  0  0  0  0
  -21.3661   -5.6790   24.9173 C   0  0  0  0  0  0
  -21.6042   -4.3052   24.7224 C   0  0  0  0  0  0
  -21.8822   -3.8142   23.4345 C   0  0  0  0  0  0
  -21.9196   -4.6955   22.3401 C   0  0  0  0  0  0
  -22.7851  -13.5252   21.1846 C   0  0  0  0  0  0
  -22.1655   -4.2140   21.0976 F   0  0  0  0  0  0
  -21.5635   -3.4534   25.7741 F   0  0  0  0  0  0
  -30.0282  -13.2851   20.4315 N   0  0  0  0  0  0
  -26.3009  -12.9327   20.3378 N   0  0  0  0  0  0
  -25.9297  -11.6494   20.5775 N   0  0  0  0  0  0
  -22.0484  -12.8236   22.0386 N   0  0  0  0  0  0
  -25.4357  -15.1891   20.4143 N   0  0  0  0  0  0
  -31.8243  -14.6474   20.1074 O   0  0  0  0  0  0
  -21.6638   -6.8869   21.4236 O   0  0  0  0  0  0
  -22.3541  -14.5569   20.6712 O   0  0  0  0  0  0
  -24.6167  -31.8662   23.2072 C   0  0  0  0  0  0
  -25.9062  -32.4800   23.8358 C   0  0  1  0  0  0
  -27.2262  -27.4126   20.0916 C   0  0  0  0  0  0
  -25.5937  -33.8598   24.2306 N   0  0  0  0  0  0
  -23.4017  -30.4928   21.5487 C   0  0  2  0  0  0
  -24.8437  -28.9521   20.1144 C   0  0  0  0  0  0
  -22.7405  -29.4667   22.4968 C   0  0  0  0  0  0
  -18.0274  -28.1355   22.8468 C   0  0  0  0  0  0
  -24.1497  -36.7281   23.2635 C   0  0  0  0  0  0
  -25.9329  -30.8252   21.3611 C   0  0  0  0  0  0
  -26.0055  -29.4584   20.7062 C   0  0  0  0  0  0
  -27.1976  -28.6976   20.6878 C   0  0  0  0  0  0
  -26.0400  -26.9189   19.5032 C   0  0  0  0  0  0
  -24.8574  -27.6826   19.5106 C   0  0  0  0  0  0
  -23.6083  -29.8232   20.1640 C   0  0  0  0  0  0
  -25.4115  -36.3087   24.0338 C   0  0  1  0  0  0
  -20.5866  -28.3652   23.1287 C   0  0  2  0  0  0
  -20.6769  -26.9383   22.5393 C   0  0  0  0  0  0
  -19.5757  -26.6363   21.5190 C   0  0  0  0  0  0
  -18.1935  -26.7907   22.1594 C   0  0  0  0  0  0
  -19.1526  -28.8826   23.2876 C   0  0  0  0  0  0
  -18.9467  -30.1433   23.8880 C   0  0  0  0  0  0
  -17.6466  -30.6562   24.0562 C   0  0  0  0  0  0
  -25.9041  -34.9461   23.5111 C   0  0  0  0  0  0
  -16.5358  -29.9067   23.6325 C   0  0  0  0  0  0
  -16.7260  -28.6490   23.0327 C   0  0  0  0  0  0
  -26.4481  -31.6578   25.0697 C   0  0  0  0  0  0
  -25.3749  -31.3688   26.1455 C   0  0  0  0  0  0
  -27.0312  -30.3026   24.6065 C   0  0  0  0  0  0
  -27.6062  -32.4291   25.7465 C   0  0  0  0  0  0
  -27.5583  -37.1793   24.8465 C   0  0  0  0  0  0
  -21.4141  -29.3032   22.3709 N   0  0  0  0  0  0
  -26.4288  -37.3785   23.9425 N   0  0  0  0  0  0
  -24.6687  -31.0767   22.0966 N   0  0  0  0  0  0
  -23.4195  -28.8188   23.2989 O   0  0  0  0  0  0
  -28.4150  -26.7051   20.1095 O   0  0  0  0  0  0
  -26.5580  -34.8924   22.4660 O   0  0  0  0  0  0
  -23.5362  -32.1417   23.7467 O   0  0  0  0  0  0
  -27.9060  -19.5793   21.5347 C   0  0  0  0  0  0
  -30.2256  -18.8398   20.1534 C   0  0  0  0  0  0
  -28.5288  -18.3380   21.8225 C   0  0  0  0  0  0
  -28.4406  -20.4713   20.5741 C   0  0  0  0  0  0
  -29.7269  -17.9762   21.1549 C   0  0  0  0  0  0
  -29.5948  -20.0688   19.8603 C   0  0  0  0  0  0
  -27.9146  -17.4277   22.8745 C   0  0  0  0  0  0
  -30.5645  -16.7545   21.5625 C   0  0  0  0  0  0
  -27.7680  -21.8330   20.3136 C   0  0  0  0  0  0
  -27.9621  -24.3319   20.8011 C   0  0  0  0  0  0
  -28.4722  -25.3185   19.7133 C   0  0  0  0  0  0
  -30.0249  -15.4370   21.2075 N   0  0  0  0  0  0
  -28.6045  -22.9801   20.7578 N   0  3  0  0  0  0
  -30.2870  -21.0962   18.6549 Cl  0  0  0  0  0  0
  -31.4620  -12.4094   19.1012 H   0  0  0  0  0  0
  -30.3290  -11.2931   19.8050 H   0  0  0  0  0  0
  -29.7192  -11.7702   17.4200 H   0  0  0  0  0  0
  -29.6519  -13.4821   17.7530 H   0  0  0  0  0  0
  -27.8095  -11.3113   18.8028 H   0  0  0  0  0  0
  -27.3561  -12.6498   17.7854 H   0  0  0  0  0  0
  -27.7069  -14.2529   19.5824 H   0  0  0  0  0  0
  -28.6821  -11.9325   21.3155 H   0  0  0  0  0  0
  -28.4665  -13.5578   21.8780 H   0  0  0  0  0  0
  -25.2749   -9.5694   22.4753 H   0  0  0  0  0  0
  -23.9993   -7.4641   22.7473 H   0  0  0  0  0  0
  -21.0833   -8.8763   19.8943 H   0  0  0  0  0  0
  -22.3683  -10.9669   19.6153 H   0  0  0  0  0  0
  -21.1995   -7.6144   23.9711 H   0  0  0  0  0  0
  -21.1471   -6.0517   25.9075 H   0  0  0  0  0  0
  -22.0605   -2.7600   23.2850 H   0  0  0  0  0  0
  -22.4084  -11.9883   22.4751 H   0  0  0  0  0  0
  -21.1105  -13.1262   22.2592 H   0  0  0  0  0  0
  -24.6797  -15.8528   20.5404 H   0  0  0  0  0  0
  -26.2974  -15.6260   20.1133 H   0  0  0  0  0  0
  -26.7125  -32.5496   23.1102 H   0  0  0  0  0  0
  -25.0214  -33.9761   25.0544 H   0  0  0  0  0  0
  -22.6924  -31.3115   21.4086 H   0  0  0  0  0  0
  -23.3782  -35.9594   23.3297 H   0  0  0  0  0  0
  -24.3601  -36.8875   22.2050 H   0  0  0  0  0  0
  -23.7222  -37.6479   23.6638 H   0  0  0  0  0  0
  -26.0530  -31.5912   20.5933 H   0  0  0  0  0  0
  -26.8190  -30.8727   21.9815 H   0  0  0  0  0  0
  -28.0972  -29.0878   21.1420 H   0  0  0  0  0  0
  -25.9962  -25.9467   19.0343 H   0  0  0  0  0  0
  -23.9617  -27.2845   19.0536 H   0  0  0  0  0  0
  -23.7179  -30.5986   19.4059 H   0  0  0  0  0  0
  -22.7302  -29.2466   19.8656 H   0  0  0  0  0  0
  -25.1284  -36.1938   25.0832 H   0  0  0  0  0  0
  -20.9959  -28.3218   24.1407 H   0  0  0  0  0  0
  -20.5665  -26.2255   23.3578 H   0  0  0  0  0  0
  -21.6639  -26.7411   22.1190 H   0  0  0  0  0  0
  -19.6934  -25.6280   21.1198 H   0  0  0  0  0  0
  -19.6717  -27.3187   20.6739 H   0  0  0  0  0  0
  -17.4204  -26.6647   21.3997 H   0  0  0  0  0  0
  -18.0337  -26.0033   22.8979 H   0  0  0  0  0  0
  -19.7958  -30.7238   24.2226 H   0  0  0  0  0  0
  -17.5044  -31.6247   24.5152 H   0  0  0  0  0  0
  -15.5364  -30.2972   23.7665 H   0  0  0  0  0  0
  -15.8661  -28.0815   22.7036 H   0  0  0  0  0  0
  -24.5980  -30.6950   25.7816 H   0  0  0  0  0  0
  -24.8887  -32.2839   26.4844 H   0  0  0  0  0  0
  -25.8130  -30.8937   27.0244 H   0  0  0  0  0  0
  -26.2851  -29.6776   24.1144 H   0  0  0  0  0  0
  -27.4130  -29.7253   25.4491 H   0  0  0  0  0  0
  -27.8655  -30.4351   23.9174 H   0  0  0  0  0  0
  -27.2709  -33.3629   26.1982 H   0  0  0  0  0  0
  -28.3912  -32.6761   25.0307 H   0  0  0  0  0  0
  -28.0673  -31.8436   26.5424 H   0  0  0  0  0  0
  -28.2564  -38.0126   24.7551 H   0  0  0  0  0  0
  -28.1105  -36.2656   24.6229 H   0  0  0  0  0  0
  -27.2306  -37.1345   25.8865 H   0  0  0  0  0  0
  -20.9295  -29.8778   21.6950 H   0  0  0  0  0  0
  -26.0166  -38.2847   24.1486 H   0  0  0  0  0  0
  -27.0090  -19.8572   22.0721 H   0  0  0  0  0  0
  -31.1322  -18.5783   19.6260 H   0  0  0  0  0  0
  -27.0126  -17.8630   23.3053 H   0  0  0  0  0  0
  -28.6134  -17.2455   23.6910 H   0  0  0  0  0  0
  -27.6338  -16.4690   22.4371 H   0  0  0  0  0  0
  -30.6995  -16.7749   22.6446 H   0  0  0  0  0  0
  -31.5721  -16.8814   21.1627 H   0  0  0  0  0  0
  -26.8121  -21.8591   20.8403 H   0  0  0  0  0  0
  -27.5353  -21.9323   19.2531 H   0  0  0  0  0  0
  -26.8742  -24.2622   20.7876 H   0  0  0  0  0  0
  -28.2194  -24.7523   21.7734 H   0  0  0  0  0  0
  -27.9940  -25.1406   18.7499 H   0  0  0  0  0  0
  -29.5313  -25.1247   19.5409 H   0  0  0  0  0  0
  -29.0953  -15.2144   21.5268 H   0  0  0  0  0  0
  -29.4365  -23.0031   20.1861 H   0  0  0  0  0  0
  -28.9037  -22.7640   21.6960 H   0  0  0  0  0  0
  1 25  1  0  0  0
  1 30  2  0  0  0
  1 82  1  0  0  0
  2  3  1  0  0  0
  2 25  1  0  0  0
  2 85  1  0  0  0
  2 86  1  0  0  0
  3  4  1  0  0  0
  3 87  1  0  0  0
  3 88  1  0  0  0
  4  5  1  0  0  0
  4 89  1  0  0  0
  4 90  1  0  0  0
  5  6  1  0  0  0
  5 26  1  0  0  0
  5 91  1  0  0  0
  6 25  1  0  0  0
  6 92  1  0  0  0
  6 93  1  0  0  0
  7  8  2  0  0  0
  7 26  1  0  0  0
  7 29  1  0  0  0
  8  9  1  0  0  0
  8 22  1  0  0  0
  9 10  1  0  0  0
  9 27  2  0  0  0
 10 11  2  0  0  0
 10 15  1  0  0  0
 11 12  1  0  0  0
 11 94  1  0  0  0
 12 13  2  0  0  0
 12 95  1  0  0  0
 13 14  1  0  0  0
 13 31  1  0  0  0
 14 15  2  0  0  0
 14 96  1  0  0  0
 15 97  1  0  0  0
 16 17  2  0  0  0
 16 21  1  0  0  0
 16 31  1  0  0  0
 17 18  1  0  0  0
 17 98  1  0  0  0
 18 19  2  0  0  0
 18 99  1  0  0  0
 19 20  1  0  0  0
 19 24  1  0  0  0
 20 21  2  0  0  0
 20100  1  0  0  0
 21 23  1  0  0  0
 22 28  1  0  0  0
 22 32  2  0  0  0
 26 27  1  0  0  0
 28101  1  0  0  0
 28102  1  0  0  0
 29103  1  0  0  0
 29104  1  0  0  0
 33 34  1  0  0  0
 33 66  1  0  0  0
 33 70  2  0  0  0
 34 36  1  0  0  0
 34 59  1  0  0  0
 34105  1  0  0  0
 35 44  2  0  0  0
 35 45  1  0  0  0
 35 68  1  0  0  0
 36 56  1  0  0  0
 36106  1  0  0  0
 37 39  1  0  0  0
 37 47  1  0  0  0
 37 66  1  0  0  0
 37107  1  0  0  0
 38 43  2  0  0  0
 38 46  1  0  0  0
 38 47  1  0  0  0
 39 64  1  0  0  0
 39 67  2  0  0  0
 40 52  1  0  0  0
 40 53  2  0  0  0
 40 58  1  0  0  0
 41108  1  0  0  0
 41109  1  0  0  0
 41110  1  0  0  0
 41 48  1  0  0  0
 42 43  1  0  0  0
 42 66  1  0  0  0
 42111  1  0  0  0
 42112  1  0  0  0
 43 44  1  0  0  0
 44113  1  0  0  0
 45 46  2  0  0  0
 45114  1  0  0  0
 46115  1  0  0  0
 47116  1  0  0  0
 47117  1  0  0  0
 48 56  1  0  0  0
 48 65  1  0  0  0
 48118  1  0  0  0
 49 50  1  0  0  0
 49 53  1  0  0  0
 49 64  1  0  0  0
 49119  1  0  0  0
 50 51  1  0  0  0
 50120  1  0  0  0
 50121  1  0  0  0
 51 52  1  0  0  0
 51122  1  0  0  0
 51123  1  0  0  0
 52124  1  0  0  0
 52125  1  0  0  0
 53 54  1  0  0  0
 54 55  2  0  0  0
 54126  1  0  0  0
 55 57  1  0  0  0
 55127  1  0  0  0
 56 69  2  0  0  0
 57 58  2  0  0  0
 57128  1  0  0  0
 58129  1  0  0  0
 59 60  1  0  0  0
 59 61  1  0  0  0
 59 62  1  0  0  0
 60130  1  0  0  0
 60131  1  0  0  0
 60132  1  0  0  0
 61133  1  0  0  0
 61134  1  0  0  0
 61135  1  0  0  0
 62136  1  0  0  0
 62137  1  0  0  0
 62138  1  0  0  0
 63 65  1  0  0  0
 63139  1  0  0  0
 63140  1  0  0  0
 63141  1  0  0  0
 64142  1  0  0  0
 65143  1  0  0  0
 68 81  1  0  0  0
 71 73  2  0  0  0
 71 74  1  0  0  0
 71144  1  0  0  0
 72 75  2  0  0  0
 72 76  1  0  0  0
 72145  1  0  0  0
 73 75  1  0  0  0
 73 77  1  0  0  0
 74 76  2  0  0  0
 74 79  1  0  0  0
 75 78  1  0  0  0
 76 84  1  0  0  0
 77146  1  0  0  0
 77147  1  0  0  0
 77148  1  0  0  0
 78 82  1  0  0  0
 78149  1  0  0  0
 78150  1  0  0  0
 79 83  1  0  0  0
 79151  1  0  0  0
 79152  1  0  0  0
 80 81  1  0  0  0
 80 83  1  0  0  0
 80153  1  0  0  0
 80154  1  0  0  0
 81155  1  0  0  0
 81156  1  0  0  0
 82157  1  0  0  0
 83158  1  0  0  0
 83159  1  0  0  0
M  CHG  1  83   1
M  ISO  4   1 100  68 101  81 101  82 100
M  END
> <chiral flag>
0

> <version>
0

> <s_m_source_file>
/data/baiqing/PycharmProjects/Reinvent-master-3.2/result/LINK_invent/BTK/process_docking_weight1_custom_product_contain_oxygen_bond_distance_aromatic_linkinvent_7_9_3/rearranged_h_0041.sdf

> <i_m_source_file_index>
2

> <r_mmod_Potential_Energy-OPLS-2005>
-293.060821533203

> <r_mmod_Stretch_Energy-OPLS-2005>
39.5977783203125

> <r_mmod_Bend_Energy-OPLS-2005>
105.105651855469

> <r_mmod_Torsional_Energy-OPLS-2005>
194.67854309082

> <r_mmod_Improper_Torsional_Energy-OPLS-2005>
2.724853515625

> <r_mmod_Van_der_Waal_Energy-OPLS-2005>
146.525527954102

> <r_mmod_Electrostatic_Energy-OPLS-2005>
-351.592132568359

> <r_mmod_Solvation_Energy-OPLS-2005>
-443.279815673828

> <b_mmod_Minimization_Converged-OPLS-2005>
0

> <r_mmod_RMS_Derivative-OPLS-2005>
1.94953262805939

$$$$
2
                    3D
 Structure written by MMmdl.
156164  0  0  1  0            999 V2000
  -30.7076  -14.3947   20.6465 C   0  0  0  0  0  0
  -30.4240  -12.2725   19.4258 C   0  0  0  0  0  0
  -29.5095  -12.5218   18.2120 C   0  0  0  0  0  0
  -28.0254  -12.3792   18.6048 C   0  0  0  0  0  0
  -27.6672  -13.1940   19.8754 C   0  0  2  0  0  0
  -28.6908  -12.9326   20.9998 C   0  0  0  0  0  0
  -25.2640  -13.8146   20.5717 C   0  0  0  0  0  0
  -24.1861  -13.0454   20.9181 C   0  0  0  0  0  0
  -24.6377  -11.6905   20.8682 C   0  0  0  0  0  0
  -23.9027  -10.4303   21.0378 C   0  0  0  0  0  0
  -24.3598   -9.4237   21.9174 C   0  0  0  0  0  0
  -23.6288   -8.2275   22.0750 C   0  0  0  0  0  0
  -22.4270   -8.0289   21.3545 C   0  0  0  0  0  0
  -21.9892   -9.0245   20.4644 C   0  0  0  0  0  0
  -22.7206  -10.2135   20.3040 C   0  0  0  0  0  0
  -21.6854   -6.0735   22.5283 C   0  0  0  0  0  0
  -21.4012   -6.5635   23.8216 C   0  0  0  0  0  0
  -21.3660   -5.6784   24.9176 C   0  0  0  0  0  0
  -21.6037   -4.3052   24.7199 C   0  0  0  0  0  0
  -21.8826   -3.8140   23.4317 C   0  0  0  0  0  0
  -21.9209   -4.6968   22.3387 C   0  0  0  0  0  0
  -22.7897  -13.5292   21.1830 C   0  0  0  0  0  0
  -22.1668   -4.2171   21.0951 F   0  0  0  0  0  0
  -21.5637   -3.4518   25.7709 F   0  0  0  0  0  0
  -30.0453  -13.2210   20.4827 N   0  0  0  0  0  0
  -26.3025  -12.9278   20.3264 N   0  0  0  0  0  0
  -25.9287  -11.6448   20.5634 N   0  0  0  0  0  0
  -22.0461  -12.8313   22.0335 N   0  0  0  0  0  0
  -25.4380  -15.1866   20.4331 N   0  0  0  0  0  0
  -31.7416  -14.6911   20.0379 O   0  0  0  0  0  0
  -21.6637   -6.8882   21.4249 O   0  0  0  0  0  0
  -22.3621  -14.5599   20.6660 O   0  0  0  0  0  0
  -24.6119  -31.8694   23.2095 C   0  0  0  0  0  0
  -25.9028  -32.4837   23.8389 C   0  0  1  0  0  0
  -27.2468  -27.4549   20.1169 C   0  0  0  0  0  0
  -25.5896  -33.8640   24.2336 N   0  0  0  0  0  0
  -23.4038  -30.4853   21.5476 C   0  0  2  0  0  0
  -24.8576  -28.9514   20.1156 C   0  0  0  0  0  0
  -22.7391  -29.4651   22.4966 C   0  0  0  0  0  0
  -18.0269  -28.1377   22.8508 C   0  0  0  0  0  0
  -24.1467  -36.7303   23.2647 C   0  0  0  0  0  0
  -25.9262  -30.8387   21.3637 C   0  0  0  0  0  0
  -26.0095  -29.4705   20.7237 C   0  0  0  0  0  0
  -27.2078  -28.7238   20.7300 C   0  0  0  0  0  0
  -26.0875  -26.9449   19.4961 C   0  0  0  0  0  0
  -24.8906  -27.6894   19.4958 C   0  0  0  0  0  0
  -23.6154  -29.8126   20.1623 C   0  0  0  0  0  0
  -25.4103  -36.3116   24.0342 C   0  0  1  0  0  0
  -20.5857  -28.3687   23.1342 C   0  0  2  0  0  0
  -20.6806  -26.9431   22.5386 C   0  0  0  0  0  0
  -19.5757  -26.6356   21.5224 C   0  0  0  0  0  0
  -18.1920  -26.7923   22.1620 C   0  0  0  0  0  0
  -19.1510  -28.8838   23.2931 C   0  0  0  0  0  0
  -18.9425  -30.1452   23.8924 C   0  0  0  0  0  0
  -17.6419  -30.6576   24.0584 C   0  0  0  0  0  0
  -25.9028  -34.9491   23.5129 C   0  0  0  0  0  0
  -16.5336  -29.9083   23.6297 C   0  0  0  0  0  0
  -16.7259  -28.6505   23.0312 C   0  0  0  0  0  0
  -26.4457  -31.6591   25.0683 C   0  0  0  0  0  0
  -25.3751  -31.3641   26.1430 C   0  0  0  0  0  0
  -27.0296  -30.3062   24.6008 C   0  0  0  0  0  0
  -27.6027  -32.4302   25.7440 C   0  0  0  0  0  0
  -27.5566  -37.1812   24.8469 C   0  0  0  0  0  0
  -21.4117  -29.3059   22.3733 N   0  0  0  0  0  0
  -26.4277  -37.3811   23.9397 N   0  0  0  0  0  0
  -24.6652  -31.0780   22.1006 N   0  0  0  0  0  0
  -23.4170  -28.8183   23.2984 O   0  0  0  0  0  0
  -28.4071  -26.7220   20.0886 O   0  0  0  0  0  0
  -26.5557  -34.8941   22.4663 O   0  0  0  0  0  0
  -23.5307  -32.1458   23.7472 O   0  0  0  0  0  0
  -30.5450  -18.8597   22.2334 C   0  0  0  0  0  0
  -29.0473  -17.1687   20.5666 C   0  0  0  0  0  0
  -29.4890  -19.4039   21.4657 C   0  0  0  0  0  0
  -30.0430  -16.6193   21.4064 C   0  0  0  0  0  0
  -30.8112  -17.4765   22.2201 C   0  0  0  0  0  0
  -28.7758  -18.5541   20.5838 C   0  0  0  0  0  0
  -29.0152  -20.8276   21.7620 C   0  0  0  0  0  0
  -29.0611  -24.3827   20.4217 C   0  0  0  0  0  0
  -29.2452  -23.2549   21.4655 C   0  0  0  0  0  0
  -28.4667  -25.6644   21.0524 C   0  0  0  0  0  0
  -30.1531  -15.2144   21.5439 N   0  0  0  0  0  0
  -29.5278  -21.9122   20.8904 N   0  3  0  0  0  0
  -32.0267  -16.8413   23.2719 Cl  0  0  0  0  0  0
  -27.5153  -19.1693   19.5740 Cl  0  0  0  0  0  0
  -31.4743  -12.3651   19.1450 H   0  0  0  0  0  0
  -30.3050  -11.2477   19.7846 H   0  0  0  0  0  0
  -29.7512  -11.8290   17.4054 H   0  0  0  0  0  0
  -29.6980  -13.5218   17.8161 H   0  0  0  0  0  0
  -27.8262  -11.3201   18.7730 H   0  0  0  0  0  0
  -27.3897  -12.6828   17.7699 H   0  0  0  0  0  0
  -27.7242  -14.2467   19.6020 H   0  0  0  0  0  0
  -28.6395  -11.8926   21.3255 H   0  0  0  0  0  0
  -28.4218  -13.5145   21.8848 H   0  0  0  0  0  0
  -25.2730   -9.5740   22.4746 H   0  0  0  0  0  0
  -24.0008   -7.4665   22.7475 H   0  0  0  0  0  0
  -21.0815   -8.8712   19.8959 H   0  0  0  0  0  0
  -22.3619  -10.9646   19.6134 H   0  0  0  0  0  0
  -21.1980   -7.6148   23.9729 H   0  0  0  0  0  0
  -21.1488   -6.0499   25.9090 H   0  0  0  0  0  0
  -22.0612   -2.7605   23.2779 H   0  0  0  0  0  0
  -22.4010  -11.9968   22.4742 H   0  0  0  0  0  0
  -21.1059  -13.1347   22.2448 H   0  0  0  0  0  0
  -24.6827  -15.8389   20.6114 H   0  0  0  0  0  0
  -26.2847  -15.6386   20.1161 H   0  0  0  0  0  0
  -26.7132  -32.5609   23.1192 H   0  0  0  0  0  0
  -25.0104  -33.9797   25.0520 H   0  0  0  0  0  0
  -22.6965  -31.3045   21.4047 H   0  0  0  0  0  0
  -23.3751  -35.9612   23.3320 H   0  0  0  0  0  0
  -24.3561  -36.8888   22.2049 H   0  0  0  0  0  0
  -23.7184  -37.6506   23.6640 H   0  0  0  0  0  0
  -26.0284  -31.5972   20.5881 H   0  0  0  0  0  0
  -26.8189  -30.9089   21.9718 H   0  0  0  0  0  0
  -28.0963  -29.1125   21.2088 H   0  0  0  0  0  0
  -26.1211  -25.9794   19.0108 H   0  0  0  0  0  0
  -24.0138  -27.2904   19.0058 H   0  0  0  0  0  0
  -23.7179  -30.5829   19.3968 H   0  0  0  0  0  0
  -22.7451  -29.2181   19.8754 H   0  0  0  0  0  0
  -25.1295  -36.1984   25.0841 H   0  0  0  0  0  0
  -21.0013  -28.3239   24.1444 H   0  0  0  0  0  0
  -20.5835  -26.2259   23.3542 H   0  0  0  0  0  0
  -21.6668  -26.7553   22.1153 H   0  0  0  0  0  0
  -19.6948  -25.6254   21.1279 H   0  0  0  0  0  0
  -19.6637  -27.3133   20.6727 H   0  0  0  0  0  0
  -17.4239  -26.6710   21.3988 H   0  0  0  0  0  0
  -18.0291  -26.0054   22.8986 H   0  0  0  0  0  0
  -19.7877  -30.7322   24.2266 H   0  0  0  0  0  0
  -17.4933  -31.6261   24.5182 H   0  0  0  0  0  0
  -15.5333  -30.2993   23.7569 H   0  0  0  0  0  0
  -15.8665  -28.0868   22.6947 H   0  0  0  0  0  0
  -24.5961  -30.6963   25.7742 H   0  0  0  0  0  0
  -24.8910  -32.2764   26.4905 H   0  0  0  0  0  0
  -25.8136  -30.8781   27.0160 H   0  0  0  0  0  0
  -26.2841  -29.6844   24.1053 H   0  0  0  0  0  0
  -27.4102  -29.7236   25.4408 H   0  0  0  0  0  0
  -27.8621  -30.4410   23.9120 H   0  0  0  0  0  0
  -27.2678  -33.3626   26.1995 H   0  0  0  0  0  0
  -28.3842  -32.6830   25.0269 H   0  0  0  0  0  0
  -28.0698  -31.8451   26.5372 H   0  0  0  0  0  0
  -28.2614  -38.0091   24.7555 H   0  0  0  0  0  0
  -28.1053  -36.2630   24.6295 H   0  0  0  0  0  0
  -27.2283  -37.1444   25.8878 H   0  0  0  0  0  0
  -20.9250  -29.8822   21.7021 H   0  0  0  0  0  0
  -26.0172  -38.2881   24.1449 H   0  0  0  0  0  0
  -31.1047  -19.4831   22.9166 H   0  0  0  0  0  0
  -28.4468  -16.5263   19.9414 H   0  0  0  0  0  0
  -29.2930  -21.0442   22.7933 H   0  0  0  0  0  0
  -27.9243  -20.8406   21.7500 H   0  0  0  0  0  0
  -28.3951  -24.0488   19.6281 H   0  0  0  0  0  0
  -30.0186  -24.6110   19.9520 H   0  0  0  0  0  0
  -28.3387  -23.1978   22.0685 H   0  0  0  0  0  0
  -30.0469  -23.5158   22.1599 H   0  0  0  0  0  0
  -29.0873  -25.9915   21.8865 H   0  0  0  0  0  0
  -27.4827  -25.4445   21.4795 H   0  0  0  0  0  0
  -29.4323  -14.7798   22.1004 H   0  0  0  0  0  0
  -29.0873  -21.8346   19.9888 H   0  0  0  0  0  0
  -30.5218  -21.8051   20.7663 H   0  0  0  0  0  0
  1 25  1  0  0  0
  1 30  2  0  0  0
  1 81  1  0  0  0
  2  3  1  0  0  0
  2 25  1  0  0  0
  2 85  1  0  0  0
  2 86  1  0  0  0
  3  4  1  0  0  0
  3 87  1  0  0  0
  3 88  1  0  0  0
  4  5  1  0  0  0
  4 89  1  0  0  0
  4 90  1  0  0  0
  5  6  1  0  0  0
  5 26  1  0  0  0
  5 91  1  0  0  0
  6 25  1  0  0  0
  6 92  1  0  0  0
  6 93  1  0  0  0
  7  8  2  0  0  0
  7 26  1  0  0  0
  7 29  1  0  0  0
  8  9  1  0  0  0
  8 22  1  0  0  0
  9 10  1  0  0  0
  9 27  2  0  0  0
 10 11  2  0  0  0
 10 15  1  0  0  0
 11 12  1  0  0  0
 11 94  1  0  0  0
 12 13  2  0  0  0
 12 95  1  0  0  0
 13 14  1  0  0  0
 13 31  1  0  0  0
 14 15  2  0  0  0
 14 96  1  0  0  0
 15 97  1  0  0  0
 16 17  2  0  0  0
 16 21  1  0  0  0
 16 31  1  0  0  0
 17 18  1  0  0  0
 17 98  1  0  0  0
 18 19  2  0  0  0
 18 99  1  0  0  0
 19 20  1  0  0  0
 19 24  1  0  0  0
 20 21  2  0  0  0
 20100  1  0  0  0
 21 23  1  0  0  0
 22 28  1  0  0  0
 22 32  2  0  0  0
 26 27  1  0  0  0
 28101  1  0  0  0
 28102  1  0  0  0
 29103  1  0  0  0
 29104  1  0  0  0
 33 34  1  0  0  0
 33 66  1  0  0  0
 33 70  2  0  0  0
 34 36  1  0  0  0
 34 59  1  0  0  0
 34105  1  0  0  0
 35 44  2  0  0  0
 35 45  1  0  0  0
 35 68  1  0  0  0
 36 56  1  0  0  0
 36106  1  0  0  0
 37 39  1  0  0  0
 37 47  1  0  0  0
 37 66  1  0  0  0
 37107  1  0  0  0
 38 43  2  0  0  0
 38 46  1  0  0  0
 38 47  1  0  0  0
 39 64  1  0  0  0
 39 67  2  0  0  0
 40 52  1  0  0  0
 40 53  2  0  0  0
 40 58  1  0  0  0
 41108  1  0  0  0
 41109  1  0  0  0
 41110  1  0  0  0
 41 48  1  0  0  0
 42 43  1  0  0  0
 42 66  1  0  0  0
 42111  1  0  0  0
 42112  1  0  0  0
 43 44  1  0  0  0
 44113  1  0  0  0
 45 46  2  0  0  0
 45114  1  0  0  0
 46115  1  0  0  0
 47116  1  0  0  0
 47117  1  0  0  0
 48 56  1  0  0  0
 48 65  1  0  0  0
 48118  1  0  0  0
 49 50  1  0  0  0
 49 53  1  0  0  0
 49 64  1  0  0  0
 49119  1  0  0  0
 50 51  1  0  0  0
 50120  1  0  0  0
 50121  1  0  0  0
 51 52  1  0  0  0
 51122  1  0  0  0
 51123  1  0  0  0
 52124  1  0  0  0
 52125  1  0  0  0
 53 54  1  0  0  0
 54 55  2  0  0  0
 54126  1  0  0  0
 55 57  1  0  0  0
 55127  1  0  0  0
 56 69  2  0  0  0
 57 58  2  0  0  0
 57128  1  0  0  0
 58129  1  0  0  0
 59 60  1  0  0  0
 59 61  1  0  0  0
 59 62  1  0  0  0
 60130  1  0  0  0
 60131  1  0  0  0
 60132  1  0  0  0
 61133  1  0  0  0
 61134  1  0  0  0
 61135  1  0  0  0
 62136  1  0  0  0
 62137  1  0  0  0
 62138  1  0  0  0
 63 65  1  0  0  0
 63139  1  0  0  0
 63140  1  0  0  0
 63141  1  0  0  0
 64142  1  0  0  0
 65143  1  0  0  0
 68 80  1  0  0  0
 71 73  2  0  0  0
 71 75  1  0  0  0
 71144  1  0  0  0
 72 74  1  0  0  0
 72 76  2  0  0  0
 72145  1  0  0  0
 73 76  1  0  0  0
 73 77  1  0  0  0
 74 75  2  0  0  0
 74 81  1  0  0  0
 75 83  1  0  0  0
 76 84  1  0  0  0
 77 82  1  0  0  0
 77146  1  0  0  0
 77147  1  0  0  0
 78 79  1  0  0  0
 78 80  1  0  0  0
 78148  1  0  0  0
 78149  1  0  0  0
 79 82  1  0  0  0
 79150  1  0  0  0
 79151  1  0  0  0
 80152  1  0  0  0
 80153  1  0  0  0
 81154  1  0  0  0
 82155  1  0  0  0
 82156  1  0  0  0
M  CHG  1  82   1
M  ISO  4   1 100  68 101  80 101  81 100
M  END
> <chiral flag>
0

> <version>
0

> <s_m_source_file>
/data/baiqing/PycharmProjects/Reinvent-master-3.2/result/LINK_invent/BTK/process_docking_weight1_custom_product_contain_oxygen_bond_distance_aromatic_linkinvent_7_9_3/rearranged_h_0041.sdf

> <i_m_source_file_index>
3

> <r_mmod_Potential_Energy-OPLS-2005>
-268.102478027344

> <r_mmod_Stretch_Energy-OPLS-2005>
33.4702491760254

> <r_mmod_Bend_Energy-OPLS-2005>
88.6516799926758

> <r_mmod_Torsional_Energy-OPLS-2005>
269.980621337891

> <r_mmod_Improper_Torsional_Energy-OPLS-2005>
5.75085401535034

> <r_mmod_Van_der_Waal_Energy-OPLS-2005>
143.211822509766

> <r_mmod_Electrostatic_Energy-OPLS-2005>
-322.545745849609

> <r_mmod_Solvation_Energy-OPLS-2005>
-494.585601806641

> <b_mmod_Minimization_Converged-OPLS-2005>
0

> <r_mmod_RMS_Derivative-OPLS-2005>
4.74846315383911

$$$$
3
                    3D
 Structure written by MMmdl.
158166  0  0  1  0            999 V2000
  -30.7201  -14.4162   20.6566 C   0  0  0  0  0  0
  -30.4311  -12.3058   19.3969 C   0  0  0  0  0  0
  -29.4880  -12.5191   18.1955 C   0  0  0  0  0  0
  -28.0117  -12.3736   18.6132 C   0  0  0  0  0  0
  -27.6677  -13.1982   19.8807 C   0  0  2  0  0  0
  -28.7068  -12.9313   20.9911 C   0  0  0  0  0  0
  -25.2614  -13.8145   20.5675 C   0  0  0  0  0  0
  -24.1842  -13.0437   20.9147 C   0  0  0  0  0  0
  -24.6382  -11.6900   20.8710 C   0  0  0  0  0  0
  -23.9046  -10.4289   21.0391 C   0  0  0  0  0  0
  -24.3599   -9.4209   21.9172 C   0  0  0  0  0  0
  -23.6282   -8.2243   22.0749 C   0  0  0  0  0  0
  -22.4260   -8.0273   21.3541 C   0  0  0  0  0  0
  -21.9890   -9.0245   20.4646 C   0  0  0  0  0  0
  -22.7215  -10.2128   20.3049 C   0  0  0  0  0  0
  -21.6853   -6.0724   22.5274 C   0  0  0  0  0  0
  -21.4010   -6.5633   23.8204 C   0  0  0  0  0  0
  -21.3662   -5.6786   24.9166 C   0  0  0  0  0  0
  -21.6044   -4.3051   24.7222 C   0  0  0  0  0  0
  -21.8823   -3.8140   23.4345 C   0  0  0  0  0  0
  -21.9193   -4.6951   22.3396 C   0  0  0  0  0  0
  -22.7865  -13.5240   21.1830 C   0  0  0  0  0  0
  -22.1661   -4.2136   21.0977 F   0  0  0  0  0  0
  -21.5637   -3.4536   25.7738 F   0  0  0  0  0  0
  -30.0484  -13.2488   20.4594 N   0  0  0  0  0  0
  -26.3054  -12.9302   20.3394 N   0  0  0  0  0  0
  -25.9309  -11.6469   20.5752 N   0  0  0  0  0  0
  -22.0515  -12.8231   22.0402 N   0  0  0  0  0  0
  -25.4355  -15.1860   20.4101 N   0  0  0  0  0  0
  -31.7635  -14.7045   20.0598 O   0  0  0  0  0  0
  -21.6638   -6.8861   21.4232 O   0  0  0  0  0  0
  -22.3549  -14.5553   20.6696 O   0  0  0  0  0  0
  -24.6187  -31.8672   23.2112 C   0  0  0  0  0  0
  -25.9078  -32.4814   23.8393 C   0  0  1  0  0  0
  -27.2339  -27.4263   20.0680 C   0  0  0  0  0  0
  -25.5928  -33.8610   24.2325 N   0  0  0  0  0  0
  -23.4038  -30.4944   21.5533 C   0  0  2  0  0  0
  -24.8466  -28.9664   20.1133 C   0  0  0  0  0  0
  -22.7420  -29.4659   22.4992 C   0  0  0  0  0  0
  -18.0274  -28.1378   22.8501 C   0  0  0  0  0  0
  -24.1482  -36.7302   23.2636 C   0  0  0  0  0  0
  -25.9359  -30.8276   21.3661 C   0  0  0  0  0  0
  -26.0101  -29.4619   20.7119 C   0  0  0  0  0  0
  -27.2022  -28.6968   20.6949 C   0  0  0  0  0  0
  -26.0402  -26.9548   19.4646 C   0  0  0  0  0  0
  -24.8558  -27.7095   19.4936 C   0  0  0  0  0  0
  -23.6107  -29.8348   20.1660 C   0  0  0  0  0  0
  -25.4094  -36.3104   24.0345 C   0  0  1  0  0  0
  -20.5861  -28.3668   23.1315 C   0  0  2  0  0  0
  -20.6752  -26.9396   22.5413 C   0  0  0  0  0  0
  -19.5726  -26.6385   21.5217 C   0  0  0  0  0  0
  -18.1909  -26.7928   22.1631 C   0  0  0  0  0  0
  -19.1523  -28.8839   23.2906 C   0  0  0  0  0  0
  -18.9464  -30.1453   23.8909 C   0  0  0  0  0  0
  -17.6469  -30.6589   24.0581 C   0  0  0  0  0  0
  -25.9032  -34.9476   23.5120 C   0  0  0  0  0  0
  -16.5360  -29.9092   23.6341 C   0  0  0  0  0  0
  -16.7265  -28.6514   23.0343 C   0  0  0  0  0  0
  -26.4498  -31.6593   25.0723 C   0  0  0  0  0  0
  -25.3766  -31.3717   26.1485 C   0  0  0  0  0  0
  -27.0330  -30.3043   24.6093 C   0  0  0  0  0  0
  -27.6082  -32.4315   25.7463 C   0  0  0  0  0  0
  -27.5579  -37.1780   24.8459 C   0  0  0  0  0  0
  -21.4145  -29.3051   22.3738 N   0  0  0  0  0  0
  -26.4274  -37.3795   23.9436 N   0  0  0  0  0  0
  -24.6712  -31.0767   22.1021 N   0  0  0  0  0  0
  -23.4187  -28.8188   23.3025 O   0  0  0  0  0  0
  -28.4126  -26.6893   20.0664 O   0  0  0  0  0  0
  -26.5584  -34.8936   22.4680 O   0  0  0  0  0  0
  -23.5378  -32.1447   23.7499 O   0  0  0  0  0  0
  -30.4861  -19.3818   22.3930 C   0  0  0  0  0  0
  -30.0821  -18.4767   23.3918 C   0  0  0  0  0  0
  -30.7529  -17.5286   20.8304 C   0  0  0  0  0  0
  -30.8148  -18.9169   21.1031 C   0  0  0  0  0  0
  -29.9910  -17.0967   23.1140 C   0  0  0  0  0  0
  -30.3392  -16.6098   21.8306 C   0  0  0  0  0  0
  -29.5264  -23.2202   19.7397 C   0  0  0  0  0  0
  -29.6240  -24.5625   19.6018 C   0  0  0  0  0  0
  -30.6814  -22.3596   19.9418 C   0  0  0  0  0  0
  -29.5177  -16.1548   24.2102 C   0  0  0  0  0  0
  -31.2415  -19.9078   20.0209 C   0  0  0  0  0  0
  -28.4117  -25.4453   19.3456 C   0  0  0  0  0  0
  -30.1686  -15.2159   21.5833 N   0  0  0  0  0  0
  -30.3435  -21.0605   19.9067 N   0  0  0  0  0  0
  -31.8403  -22.7459   20.1087 O   0  0  0  0  0  0
  -31.4690  -12.4334   19.0835 H   0  0  0  0  0  0
  -30.3571  -11.2813   19.7662 H   0  0  0  0  0  0
  -29.7211  -11.8060   17.4037 H   0  0  0  0  0  0
  -29.6515  -13.5110   17.7713 H   0  0  0  0  0  0
  -27.8198  -11.3162   18.7990 H   0  0  0  0  0  0
  -27.3577  -12.6604   17.7886 H   0  0  0  0  0  0
  -27.7266  -14.2529   19.6088 H   0  0  0  0  0  0
  -28.6780  -11.8810   21.2821 H   0  0  0  0  0  0
  -28.4457  -13.4785   21.8964 H   0  0  0  0  0  0
  -25.2741   -9.5686   22.4745 H   0  0  0  0  0  0
  -23.9992   -7.4632   22.7466 H   0  0  0  0  0  0
  -21.0822   -8.8759   19.8953 H   0  0  0  0  0  0
  -22.3665  -10.9665   19.6160 H   0  0  0  0  0  0
  -21.1996   -7.6139   23.9702 H   0  0  0  0  0  0
  -21.1486   -6.0519   25.9069 H   0  0  0  0  0  0
  -22.0599   -2.7603   23.2855 H   0  0  0  0  0  0
  -22.4137  -11.9888   22.4779 H   0  0  0  0  0  0
  -21.1144  -13.1270   22.2640 H   0  0  0  0  0  0
  -24.6757  -15.8479   20.5228 H   0  0  0  0  0  0
  -26.3038  -15.6249   20.1287 H   0  0  0  0  0  0
  -26.7146  -32.5510   23.1141 H   0  0  0  0  0  0
  -25.0151  -33.9773   25.0525 H   0  0  0  0  0  0
  -22.6952  -31.3150   21.4171 H   0  0  0  0  0  0
  -23.3759  -35.9621   23.3284 H   0  0  0  0  0  0
  -24.3588  -36.8914   22.2055 H   0  0  0  0  0  0
  -23.7221  -37.6500   23.6650 H   0  0  0  0  0  0
  -26.0489  -31.5924   20.5967 H   0  0  0  0  0  0
  -26.8244  -30.8798   21.9831 H   0  0  0  0  0  0
  -28.1005  -29.0813   21.1560 H   0  0  0  0  0  0
  -25.9749  -26.0089   18.9506 H   0  0  0  0  0  0
  -23.9623  -27.3211   19.0254 H   0  0  0  0  0  0
  -23.7173  -30.6142   19.4105 H   0  0  0  0  0  0
  -22.7334  -29.2580   19.8676 H   0  0  0  0  0  0
  -25.1255  -36.1956   25.0833 H   0  0  0  0  0  0
  -20.9965  -28.3228   24.1430 H   0  0  0  0  0  0
  -20.5655  -26.2273   23.3600 H   0  0  0  0  0  0
  -21.6618  -26.7425   22.1200 H   0  0  0  0  0  0
  -19.6877  -25.6303   21.1222 H   0  0  0  0  0  0
  -19.6665  -27.3225   20.6769 H   0  0  0  0  0  0
  -17.4176  -26.6717   21.4028 H   0  0  0  0  0  0
  -18.0289  -26.0047   22.9002 H   0  0  0  0  0  0
  -19.7940  -30.7269   24.2257 H   0  0  0  0  0  0
  -17.5028  -31.6274   24.5182 H   0  0  0  0  0  0
  -15.5359  -30.3005   23.7662 H   0  0  0  0  0  0
  -15.8657  -28.0857   22.7025 H   0  0  0  0  0  0
  -24.5954  -30.7018   25.7855 H   0  0  0  0  0  0
  -24.8949  -32.2880   26.4915 H   0  0  0  0  0  0
  -25.8141  -30.8927   27.0258 H   0  0  0  0  0  0
  -26.2861  -29.6768   24.1217 H   0  0  0  0  0  0
  -27.4197  -29.7305   25.4529 H   0  0  0  0  0  0
  -27.8647  -30.4373   23.9170 H   0  0  0  0  0  0
  -27.2729  -33.3640   26.2024 H   0  0  0  0  0  0
  -28.3892  -32.6831   25.0267 H   0  0  0  0  0  0
  -28.0750  -31.8445   26.5385 H   0  0  0  0  0  0
  -28.2567  -38.0112   24.7574 H   0  0  0  0  0  0
  -28.1103  -36.2650   24.6181 H   0  0  0  0  0  0
  -27.2319  -37.1298   25.8867 H   0  0  0  0  0  0
  -20.9299  -29.8836   21.7021 H   0  0  0  0  0  0
  -26.0158  -38.2852   24.1518 H   0  0  0  0  0  0
  -30.5406  -20.4376   22.6208 H   0  0  0  0  0  0
  -29.8282  -18.8534   24.3729 H   0  0  0  0  0  0
  -30.9980  -17.1791   19.8371 H   0  0  0  0  0  0
  -28.5457  -22.7691   19.6833 H   0  0  0  0  0  0
  -30.5871  -25.0526   19.6411 H   0  0  0  0  0  0
  -29.2319  -16.7000   25.1109 H   0  0  0  0  0  0
  -30.3099  -15.4552   24.4798 H   0  0  0  0  0  0
  -28.6480  -15.5843   23.8832 H   0  0  0  0  0  0
  -31.2723  -19.4064   19.0524 H   0  0  0  0  0  0
  -32.2652  -20.2226   20.2313 H   0  0  0  0  0  0
  -27.5485  -24.8381   19.6170 H   0  0  0  0  0  0
  -28.3522  -25.6546   18.2763 H   0  0  0  0  0  0
  -29.4507  -14.7675   22.1307 H   0  0  0  0  0  0
  -29.3696  -20.8445   19.7426 H   0  0  0  0  0  0
  1 25  1  0  0  0
  1 30  2  0  0  0
  1 83  1  0  0  0
  2  3  1  0  0  0
  2 25  1  0  0  0
  2 86  1  0  0  0
  2 87  1  0  0  0
  3  4  1  0  0  0
  3 88  1  0  0  0
  3 89  1  0  0  0
  4  5  1  0  0  0
  4 90  1  0  0  0
  4 91  1  0  0  0
  5  6  1  0  0  0
  5 26  1  0  0  0
  5 92  1  0  0  0
  6 25  1  0  0  0
  6 93  1  0  0  0
  6 94  1  0  0  0
  7  8  2  0  0  0
  7 26  1  0  0  0
  7 29  1  0  0  0
  8  9  1  0  0  0
  8 22  1  0  0  0
  9 10  1  0  0  0
  9 27  2  0  0  0
 10 11  2  0  0  0
 10 15  1  0  0  0
 11 12  1  0  0  0
 11 95  1  0  0  0
 12 13  2  0  0  0
 12 96  1  0  0  0
 13 14  1  0  0  0
 13 31  1  0  0  0
 14 15  2  0  0  0
 14 97  1  0  0  0
 15 98  1  0  0  0
 16 17  2  0  0  0
 16 21  1  0  0  0
 16 31  1  0  0  0
 17 18  1  0  0  0
 17 99  1  0  0  0
 18 19  2  0  0  0
 18100  1  0  0  0
 19 20  1  0  0  0
 19 24  1  0  0  0
 20 21  2  0  0  0
 20101  1  0  0  0
 21 23  1  0  0  0
 22 28  1  0  0  0
 22 32  2  0  0  0
 26 27  1  0  0  0
 28102  1  0  0  0
 28103  1  0  0  0
 29104  1  0  0  0
 29105  1  0  0  0
 33 34  1  0  0  0
 33 66  1  0  0  0
 33 70  2  0  0  0
 34 36  1  0  0  0
 34 59  1  0  0  0
 34106  1  0  0  0
 35 44  2  0  0  0
 35 45  1  0  0  0
 35 68  1  0  0  0
 36 56  1  0  0  0
 36107  1  0  0  0
 37 39  1  0  0  0
 37 47  1  0  0  0
 37 66  1  0  0  0
 37108  1  0  0  0
 38 43  2  0  0  0
 38 46  1  0  0  0
 38 47  1  0  0  0
 39 64  1  0  0  0
 39 67  2  0  0  0
 40 52  1  0  0  0
 40 53  2  0  0  0
 40 58  1  0  0  0
 41109  1  0  0  0
 41110  1  0  0  0
 41111  1  0  0  0
 41 48  1  0  0  0
 42 43  1  0  0  0
 42 66  1  0  0  0
 42112  1  0  0  0
 42113  1  0  0  0
 43 44  1  0  0  0
 44114  1  0  0  0
 45 46  2  0  0  0
 45115  1  0  0  0
 46116  1  0  0  0
 47117  1  0  0  0
 47118  1  0  0  0
 48 56  1  0  0  0
 48 65  1  0  0  0
 48119  1  0  0  0
 49 50  1  0  0  0
 49 53  1  0  0  0
 49 64  1  0  0  0
 49120  1  0  0  0
 50 51  1  0  0  0
 50121  1  0  0  0
 50122  1  0  0  0
 51 52  1  0  0  0
 51123  1  0  0  0
 51124  1  0  0  0
 52125  1  0  0  0
 52126  1  0  0  0
 53 54  1  0  0  0
 54 55  2  0  0  0
 54127  1  0  0  0
 55 57  1  0  0  0
 55128  1  0  0  0
 56 69  2  0  0  0
 57 58  2  0  0  0
 57129  1  0  0  0
 58130  1  0  0  0
 59 60  1  0  0  0
 59 61  1  0  0  0
 59 62  1  0  0  0
 60131  1  0  0  0
 60132  1  0  0  0
 60133  1  0  0  0
 61134  1  0  0  0
 61135  1  0  0  0
 61136  1  0  0  0
 62137  1  0  0  0
 62138  1  0  0  0
 62139  1  0  0  0
 63 65  1  0  0  0
 63140  1  0  0  0
 63141  1  0  0  0
 63142  1  0  0  0
 64143  1  0  0  0
 65144  1  0  0  0
 68 82  1  0  0  0
 71 72  2  0  0  0
 71 74  1  0  0  0
 71145  1  0  0  0
 72 75  1  0  0  0
 72146  1  0  0  0
 73 74  2  0  0  0
 73 76  1  0  0  0
 73147  1  0  0  0
 74 81  1  0  0  0
 75 76  2  0  0  0
 75 80  1  0  0  0
 76 83  1  0  0  0
 77 78  2  0  0  0
 77 79  1  0  0  0
 77148  1  0  0  0
 78 82  1  0  0  0
 78149  1  0  0  0
 79 84  1  0  0  0
 79 85  2  0  0  0
 80150  1  0  0  0
 80151  1  0  0  0
 80152  1  0  0  0
 81 84  1  0  0  0
 81153  1  0  0  0
 81154  1  0  0  0
 82155  1  0  0  0
 82156  1  0  0  0
 83157  1  0  0  0
 84158  1  0  0  0
M  ISO  4   1 100  68 101  82 101  83 100
M  END
> <chiral flag>
0

> <version>
0

> <s_m_source_file>
/data/baiqing/PycharmProjects/Reinvent-master-3.2/result/LINK_invent/BTK/process_docking_weight1_custom_product_contain_oxygen_bond_distance_aromatic_linkinvent_7_9_3/rearranged_h_0041.sdf

> <i_m_source_file_index>
4

> <r_mmod_Potential_Energy-OPLS-2005>
-214.302719116211

> <r_mmod_Stretch_Energy-OPLS-2005>
37.3403778076172

> <r_mmod_Bend_Energy-OPLS-2005>
99.1258392333984

> <r_mmod_Torsional_Energy-OPLS-2005>
198.734588623047

> <r_mmod_Improper_Torsional_Energy-OPLS-2005>
2.32406949996948

> <r_mmod_Van_der_Waal_Energy-OPLS-2005>
166.216705322266

> <r_mmod_Electrostatic_Energy-OPLS-2005>
-491.063354492188

> <r_mmod_Solvation_Energy-OPLS-2005>
-237.195159912109

> <b_mmod_Minimization_Converged-OPLS-2005>
0

> <r_mmod_RMS_Derivative-OPLS-2005>
1.81724750995636

$$$$
4
                    3D
 Structure written by MMmdl.
170179  0  0  1  0            999 V2000
  -30.6498  -14.5900   20.5323 C   0  0  0  0  0  0
  -30.4342  -12.3664   19.4486 C   0  0  0  0  0  0
  -29.5055  -12.5118   18.2227 C   0  0  0  0  0  0
  -28.0272  -12.3564   18.6318 C   0  0  0  0  0  0
  -27.6578  -13.2146   19.8710 C   0  0  2  0  0  0
  -28.7009  -13.0414   20.9993 C   0  0  0  0  0  0
  -25.2561  -13.8159   20.5671 C   0  0  0  0  0  0
  -24.1831  -13.0430   20.9193 C   0  0  0  0  0  0
  -24.6398  -11.6902   20.8742 C   0  0  0  0  0  0
  -23.9066  -10.4286   21.0405 C   0  0  0  0  0  0
  -24.3615   -9.4202   21.9184 C   0  0  0  0  0  0
  -23.6288   -8.2240   22.0755 C   0  0  0  0  0  0
  -22.4271   -8.0280   21.3545 C   0  0  0  0  0  0
  -21.9907   -9.0253   20.4648 C   0  0  0  0  0  0
  -22.7238  -10.2131   20.3055 C   0  0  0  0  0  0
  -21.6851   -6.0734   22.5278 C   0  0  0  0  0  0
  -21.4014   -6.5639   23.8213 C   0  0  0  0  0  0
  -21.3659   -5.6792   24.9175 C   0  0  0  0  0  0
  -21.6043   -4.3054   24.7226 C   0  0  0  0  0  0
  -21.8819   -3.8145   23.4347 C   0  0  0  0  0  0
  -21.9191   -4.6962   22.3403 C   0  0  0  0  0  0
  -22.7853  -13.5229   21.1850 C   0  0  0  0  0  0
  -22.1660   -4.2148   21.0981 F   0  0  0  0  0  0
  -21.5628   -3.4539   25.7738 F   0  0  0  0  0  0
  -30.0245  -13.3749   20.4458 N   0  0  0  0  0  0
  -26.3006  -12.9346   20.3344 N   0  0  0  0  0  0
  -25.9329  -11.6501   20.5769 N   0  0  0  0  0  0
  -22.0492  -12.8227   22.0409 N   0  0  0  0  0  0
  -25.4251  -15.1871   20.4020 N   0  0  0  0  0  0
  -31.7826  -14.7609   20.0740 O   0  0  0  0  0  0
  -21.6636   -6.8876   21.4241 O   0  0  0  0  0  0
  -22.3540  -14.5535   20.6695 O   0  0  0  0  0  0
  -24.6231  -31.8624   23.2057 C   0  0  0  0  0  0
  -25.9095  -32.4791   23.8371 C   0  0  1  0  0  0
  -27.2275  -27.3472   20.1007 C   0  0  0  0  0  0
  -25.5924  -33.8592   24.2298 N   0  0  0  0  0  0
  -23.4147  -30.4873   21.5480 C   0  0  2  0  0  0
  -24.8597  -28.9477   20.1105 C   0  0  0  0  0  0
  -22.7456  -29.4638   22.4954 C   0  0  0  0  0  0
  -18.0282  -28.1381   22.8491 C   0  0  0  0  0  0
  -24.1490  -36.7301   23.2639 C   0  0  0  0  0  0
  -25.9537  -30.7990   21.3748 C   0  0  0  0  0  0
  -26.0260  -29.4287   20.7172 C   0  0  0  0  0  0
  -27.2081  -28.6361   20.7112 C   0  0  0  0  0  0
  -26.0350  -26.9147   19.4719 C   0  0  0  0  0  0
  -24.8641  -27.6935   19.4836 C   0  0  0  0  0  0
  -23.6267  -29.8242   20.1620 C   0  0  0  0  0  0
  -25.4114  -36.3093   24.0332 C   0  0  1  0  0  0
  -20.5879  -28.3683   23.1294 C   0  0  2  0  0  0
  -20.6772  -26.9410   22.5413 C   0  0  0  0  0  0
  -19.5746  -26.6384   21.5216 C   0  0  0  0  0  0
  -18.1926  -26.7926   22.1627 C   0  0  0  0  0  0
  -19.1533  -28.8849   23.2888 C   0  0  0  0  0  0
  -18.9457  -30.1453   23.8902 C   0  0  0  0  0  0
  -17.6458  -30.6586   24.0565 C   0  0  0  0  0  0
  -25.9048  -34.9459   23.5113 C   0  0  0  0  0  0
  -16.5349  -29.9086   23.6329 C   0  0  0  0  0  0
  -16.7269  -28.6502   23.0352 C   0  0  0  0  0  0
  -26.4488  -31.6593   25.0730 C   0  0  0  0  0  0
  -25.3732  -31.3723   26.1464 C   0  0  0  0  0  0
  -27.0328  -30.3021   24.6168 C   0  0  0  0  0  0
  -27.6052  -32.4326   25.7494 C   0  0  0  0  0  0
  -27.5580  -37.1807   24.8465 C   0  0  0  0  0  0
  -21.4174  -29.3042   22.3694 N   0  0  0  0  0  0
  -26.4295  -37.3784   23.9406 N   0  0  0  0  0  0
  -24.6824  -31.0658   22.0997 N   0  0  0  0  0  0
  -23.4193  -28.8176   23.3021 O   0  0  0  0  0  0
  -28.3721  -26.5397   20.1567 O   0  0  0  0  0  0
  -26.5612  -34.8920   22.4677 O   0  0  0  0  0  0
  -23.5403  -32.1414   23.7401 O   0  0  0  0  0  0
  -28.6569  -17.6157   20.4213 C   0  0  0  0  0  0
  -28.4984  -18.9979   20.1379 C   0  0  0  0  0  0
  -30.8650  -19.3293   20.5697 C   0  0  0  0  0  0
  -29.6059  -19.8962   20.1774 C   0  0  0  0  0  0
  -30.9971  -17.9345   20.9066 C   0  0  0  0  0  0
  -29.8970  -17.0365   20.7685 C   0  0  0  0  0  0
  -30.4226  -23.6796   20.2784 C   0  0  0  0  0  0
  -31.6260  -23.8030   20.8637 C   0  0  0  0  0  0
  -29.8299  -24.6714   19.2589 C   0  0  0  0  0  0
  -27.5135  -24.0759   20.1365 C   0  0  0  0  0  0
  -28.2048  -23.0781   21.1142 C   0  0  0  0  0  0
  -28.3955  -25.2116   19.5260 C   0  0  1  0  0  0
  -27.1065  -19.4672   19.7383 C   0  0  0  0  0  0
  -32.1148  -20.2081   20.6241 C   0  0  0  0  0  0
  -32.3235  -17.4143   21.4519 C   0  0  0  0  0  0
  -29.4538  -21.3823   19.6585 C   0  0  0  0  0  0
  -29.9021  -15.6065   21.0536 N   0  0  0  0  0  0
  -29.5078  -22.5362   20.6356 N   0  3  1  0  0  0
  -31.4774  -12.4789   19.1484 H   0  0  0  0  0  0
  -30.3558  -11.3642   19.8731 H   0  0  0  0  0  0
  -29.7628  -11.7707   17.4649 H   0  0  0  0  0  0
  -29.6571  -13.4881   17.7592 H   0  0  0  0  0  0
  -27.8541  -11.3016   18.8486 H   0  0  0  0  0  0
  -27.3750  -12.6042   17.7934 H   0  0  0  0  0  0
  -27.6862  -14.2554   19.5480 H   0  0  0  0  0  0
  -28.7007  -12.0126   21.3625 H   0  0  0  0  0  0
  -28.4469  -13.6551   21.8646 H   0  0  0  0  0  0
  -25.2760   -9.5678   22.4760 H   0  0  0  0  0  0
  -23.9995   -7.4631   22.7475 H   0  0  0  0  0  0
  -21.0838   -8.8773   19.8957 H   0  0  0  0  0  0
  -22.3696  -10.9669   19.6165 H   0  0  0  0  0  0
  -21.2010   -7.6147   23.9717 H   0  0  0  0  0  0
  -21.1480   -6.0523   25.9078 H   0  0  0  0  0  0
  -22.0599   -2.7608   23.2848 H   0  0  0  0  0  0
  -22.4094  -11.9881   22.4794 H   0  0  0  0  0  0
  -21.1114  -13.1262   22.2614 H   0  0  0  0  0  0
  -24.6487  -15.8342   20.4865 H   0  0  0  0  0  0
  -26.2528  -15.6096   20.0052 H   0  0  0  0  0  0
  -26.7161  -32.5467   23.1120 H   0  0  0  0  0  0
  -25.0077  -33.9744   25.0446 H   0  0  0  0  0  0
  -22.7072  -31.3073   21.4078 H   0  0  0  0  0  0
  -23.3750  -35.9636   23.3308 H   0  0  0  0  0  0
  -24.3582  -36.8911   22.2052 H   0  0  0  0  0  0
  -23.7244  -37.6507   23.6653 H   0  0  0  0  0  0
  -26.0837  -31.5637   20.6078 H   0  0  0  0  0  0
  -26.8352  -30.8459   22.0026 H   0  0  0  0  0  0
  -28.1028  -29.0010   21.1961 H   0  0  0  0  0  0
  -25.9668  -25.9604   18.9740 H   0  0  0  0  0  0
  -23.9694  -27.3186   19.0056 H   0  0  0  0  0  0
  -23.7426  -30.6015   19.4058 H   0  0  0  0  0  0
  -22.7474  -29.2518   19.8611 H   0  0  0  0  0  0
  -25.1293  -36.1952   25.0826 H   0  0  0  0  0  0
  -20.9971  -28.3253   24.1416 H   0  0  0  0  0  0
  -20.5679  -26.2292   23.3609 H   0  0  0  0  0  0
  -21.6639  -26.7447   22.1201 H   0  0  0  0  0  0
  -19.6908  -25.6297   21.1240 H   0  0  0  0  0  0
  -19.6682  -27.3200   20.6750 H   0  0  0  0  0  0
  -17.4197  -26.6679   21.4027 H   0  0  0  0  0  0
  -18.0323  -26.0065   22.9019 H   0  0  0  0  0  0
  -19.7934  -30.7268   24.2272 H   0  0  0  0  0  0
  -17.5013  -31.6267   24.5164 H   0  0  0  0  0  0
  -15.5349  -30.2990   23.7650 H   0  0  0  0  0  0
  -15.8668  -28.0823   22.7066 H   0  0  0  0  0  0
  -24.5905  -30.7071   25.7798 H   0  0  0  0  0  0
  -24.8924  -32.2885   26.4900 H   0  0  0  0  0  0
  -25.8066  -30.8896   27.0232 H   0  0  0  0  0  0
  -26.2895  -29.6776   24.1197 H   0  0  0  0  0  0
  -27.4040  -29.7272   25.4662 H   0  0  0  0  0  0
  -27.8760  -30.4316   23.9378 H   0  0  0  0  0  0
  -27.2664  -33.3623   26.2078 H   0  0  0  0  0  0
  -28.3854  -32.6891   25.0316 H   0  0  0  0  0  0
  -28.0729  -31.8449   26.5403 H   0  0  0  0  0  0
  -28.2604  -38.0098   24.7508 H   0  0  0  0  0  0
  -28.1069  -36.2629   24.6298 H   0  0  0  0  0  0
  -27.2296  -37.1465   25.8869 H   0  0  0  0  0  0
  -20.9346  -29.8770   21.6914 H   0  0  0  0  0  0
  -26.0180  -38.2863   24.1398 H   0  0  0  0  0  0
  -27.7910  -16.9730   20.3551 H   0  0  0  0  0  0
  -32.2750  -24.6328   20.6223 H   0  0  0  0  0  0
  -31.9900  -23.0932   21.5923 H   0  0  0  0  0  0
  -29.8279  -24.1513   18.2999 H   0  0  0  0  0  0
  -30.5133  -25.5105   19.1240 H   0  0  0  0  0  0
  -26.6382  -24.4961   20.6303 H   0  0  0  0  0  0
  -27.1157  -23.4898   19.3073 H   0  0  0  0  0  0
  -27.5309  -22.2616   21.3709 H   0  0  0  0  0  0
  -28.3985  -23.6023   22.0510 H   0  0  0  0  0  0
  -28.0108  -25.4007   18.5225 H   0  0  0  0  0  0
  -26.3567  -18.6958   19.9185 H   0  0  0  0  0  0
  -27.0707  -19.7112   18.6760 H   0  0  0  0  0  0
  -26.8018  -20.3417   20.3107 H   0  0  0  0  0  0
  -32.0640  -21.0875   19.9884 H   0  0  0  0  0  0
  -32.9945  -19.6640   20.2797 H   0  0  0  0  0  0
  -32.3024  -20.5386   21.6460 H   0  0  0  0  0  0
  -32.8107  -18.1442   22.0976 H   0  0  0  0  0  0
  -33.0019  -17.1685   20.6348 H   0  0  0  0  0  0
  -32.1883  -16.5246   22.0653 H   0  0  0  0  0  0
  -28.5506  -21.4907   19.0614 H   0  0  0  0  0  0
  -30.2353  -21.5309   18.9140 H   0  0  0  0  0  0
  -29.0225  -15.2589   21.4028 H   0  0  0  0  0  0
  -29.8967  -22.0990   21.4574 H   0  0  0  0  0  0
  1 25  1  0  0  0
  1 30  2  0  0  0
  1 87  1  0  0  0
  2  3  1  0  0  0
  2 25  1  0  0  0
  2 89  1  0  0  0
  2 90  1  0  0  0
  3  4  1  0  0  0
  3 91  1  0  0  0
  3 92  1  0  0  0
  4  5  1  0  0  0
  4 93  1  0  0  0
  4 94  1  0  0  0
  5  6  1  0  0  0
  5 26  1  0  0  0
  5 95  1  0  0  0
  6 25  1  0  0  0
  6 96  1  0  0  0
  6 97  1  0  0  0
  7  8  2  0  0  0
  7 26  1  0  0  0
  7 29  1  0  0  0
  8  9  1  0  0  0
  8 22  1  0  0  0
  9 10  1  0  0  0
  9 27  2  0  0  0
 10 11  2  0  0  0
 10 15  1  0  0  0
 11 12  1  0  0  0
 11 98  1  0  0  0
 12 13  2  0  0  0
 12 99  1  0  0  0
 13 14  1  0  0  0
 13 31  1  0  0  0
 14 15  2  0  0  0
 14100  1  0  0  0
 15101  1  0  0  0
 16 17  2  0  0  0
 16 21  1  0  0  0
 16 31  1  0  0  0
 17 18  1  0  0  0
 17102  1  0  0  0
 18 19  2  0  0  0
 18103  1  0  0  0
 19 20  1  0  0  0
 19 24  1  0  0  0
 20 21  2  0  0  0
 20104  1  0  0  0
 21 23  1  0  0  0
 22 28  1  0  0  0
 22 32  2  0  0  0
 26 27  1  0  0  0
 28105  1  0  0  0
 28106  1  0  0  0
 29107  1  0  0  0
 29108  1  0  0  0
 33 34  1  0  0  0
 33 66  1  0  0  0
 33 70  2  0  0  0
 34 36  1  0  0  0
 34 59  1  0  0  0
 34109  1  0  0  0
 35 44  2  0  0  0
 35 45  1  0  0  0
 35 68  1  0  0  0
 36 56  1  0  0  0
 36110  1  0  0  0
 37 39  1  0  0  0
 37 47  1  0  0  0
 37 66  1  0  0  0
 37111  1  0  0  0
 38 43  2  0  0  0
 38 46  1  0  0  0
 38 47  1  0  0  0
 39 64  1  0  0  0
 39 67  2  0  0  0
 40 52  1  0  0  0
 40 53  2  0  0  0
 40 58  1  0  0  0
 41112  1  0  0  0
 41113  1  0  0  0
 41114  1  0  0  0
 41 48  1  0  0  0
 42 43  1  0  0  0
 42 66  1  0  0  0
 42115  1  0  0  0
 42116  1  0  0  0
 43 44  1  0  0  0
 44117  1  0  0  0
 45 46  2  0  0  0
 45118  1  0  0  0
 46119  1  0  0  0
 47120  1  0  0  0
 47121  1  0  0  0
 48 56  1  0  0  0
 48 65  1  0  0  0
 48122  1  0  0  0
 49 50  1  0  0  0
 49 53  1  0  0  0
 49 64  1  0  0  0
 49123  1  0  0  0
 50 51  1  0  0  0
 50124  1  0  0  0
 50125  1  0  0  0
 51 52  1  0  0  0
 51126  1  0  0  0
 51127  1  0  0  0
 52128  1  0  0  0
 52129  1  0  0  0
 53 54  1  0  0  0
 54 55  2  0  0  0
 54130  1  0  0  0
 55 57  1  0  0  0
 55131  1  0  0  0
 56 69  2  0  0  0
 57 58  2  0  0  0
 57132  1  0  0  0
 58133  1  0  0  0
 59 60  1  0  0  0
 59 61  1  0  0  0
 59 62  1  0  0  0
 60134  1  0  0  0
 60135  1  0  0  0
 60136  1  0  0  0
 61137  1  0  0  0
 61138  1  0  0  0
 61139  1  0  0  0
 62140  1  0  0  0
 62141  1  0  0  0
 62142  1  0  0  0
 63 65  1  0  0  0
 63143  1  0  0  0
 63144  1  0  0  0
 63145  1  0  0  0
 64146  1  0  0  0
 65147  1  0  0  0
 68 82  1  0  0  0
 71 72  2  0  0  0
 71 76  1  0  0  0
 71148  1  0  0  0
 72 74  1  0  0  0
 72 83  1  0  0  0
 73 74  2  0  0  0
 73 75  1  0  0  0
 73 84  1  0  0  0
 74 86  1  0  0  0
 75 76  2  0  0  0
 75 85  1  0  0  0
 76 87  1  0  0  0
 77 78  2  0  0  0
 77 79  1  0  0  0
 77 88  1  0  0  0
 78149  1  0  0  0
 78150  1  0  0  0
 79 82  1  0  0  0
 79151  1  0  0  0
 79152  1  0  0  0
 80 81  1  0  0  0
 80 82  1  0  0  0
 80153  1  0  0  0
 80154  1  0  0  0
 81 88  1  0  0  0
 81155  1  0  0  0
 81156  1  0  0  0
 82157  1  0  0  0
 83158  1  0  0  0
 83159  1  0  0  0
 83160  1  0  0  0
 84161  1  0  0  0
 84162  1  0  0  0
 84163  1  0  0  0
 85164  1  0  0  0
 85165  1  0  0  0
 85166  1  0  0  0
 86167  1  0  0  0
 86168  1  0  0  0
 86 88  1  0  0  0
 87169  1  0  0  0
 88170  1  0  0  0
M  CHG  1  88   1
M  ISO  4   1 100  68 101  82 101  87 100
M  END
> <chiral flag>
0

> <version>
0

> <s_m_source_file>
/data/baiqing/PycharmProjects/Reinvent-master-3.2/result/LINK_invent/BTK/process_docking_weight1_custom_product_contain_oxygen_bond_distance_aromatic_linkinvent_7_9_3/rearranged_h_0041.sdf

> <i_m_source_file_index>
5

> <r_mmod_Potential_Energy-OPLS-2005>
-50.859432220459

> <r_mmod_Stretch_Energy-OPLS-2005>
73.4385528564453

> <r_mmod_Bend_Energy-OPLS-2005>
160.932159423828

> <r_mmod_Torsional_Energy-OPLS-2005>
249.715774536133

> <r_mmod_Improper_Torsional_Energy-OPLS-2005>
5.55241680145264

> <r_mmod_Van_der_Waal_Energy-OPLS-2005>
153.256942749023

> <r_mmod_Electrostatic_Energy-OPLS-2005>
-296.925354003906

> <r_mmod_Solvation_Energy-OPLS-2005>
-430.714447021484

> <b_mmod_Minimization_Converged-OPLS-2005>
0

> <r_mmod_RMS_Derivative-OPLS-2005>
0.303018301725388

$$$$
5
                    3D
 Structure written by MMmdl.
174183  0  0  1  0            999 V2000
  -30.7100  -14.4237   20.5786 C   0  0  0  0  0  0
  -30.4210  -12.2792   19.4140 C   0  0  0  0  0  0
  -29.4940  -12.5059   18.2024 C   0  0  0  0  0  0
  -28.0136  -12.3749   18.6125 C   0  0  0  0  0  0
  -27.6653  -13.2028   19.8788 C   0  0  2  0  0  0
  -28.7047  -12.9568   20.9963 C   0  0  0  0  0  0
  -25.2601  -13.8153   20.5673 C   0  0  0  0  0  0
  -24.1846  -13.0436   20.9168 C   0  0  0  0  0  0
  -24.6390  -11.6899   20.8727 C   0  0  0  0  0  0
  -23.9055  -10.4289   21.0404 C   0  0  0  0  0  0
  -24.3613   -9.4210   21.9182 C   0  0  0  0  0  0
  -23.6289   -8.2244   22.0753 C   0  0  0  0  0  0
  -22.4273   -8.0278   21.3543 C   0  0  0  0  0  0
  -21.9904   -9.0249   20.4647 C   0  0  0  0  0  0
  -22.7228  -10.2129   20.3054 C   0  0  0  0  0  0
  -21.6852   -6.0739   22.5278 C   0  0  0  0  0  0
  -21.4015   -6.5640   23.8213 C   0  0  0  0  0  0
  -21.3660   -5.6791   24.9174 C   0  0  0  0  0  0
  -21.6047   -4.3055   24.7223 C   0  0  0  0  0  0
  -21.8819   -3.8147   23.4347 C   0  0  0  0  0  0
  -21.9192   -4.6967   22.3406 C   0  0  0  0  0  0
  -22.7868  -13.5238   21.1831 C   0  0  0  0  0  0
  -22.1660   -4.2157   21.0983 F   0  0  0  0  0  0
  -21.5630   -3.4538   25.7736 F   0  0  0  0  0  0
  -30.0423  -13.2489   20.4509 N   0  0  0  0  0  0
  -26.3038  -12.9321   20.3371 N   0  0  0  0  0  0
  -25.9318  -11.6481   20.5765 N   0  0  0  0  0  0
  -22.0503  -12.8237   22.0390 N   0  0  0  0  0  0
  -25.4332  -15.1870   20.4093 N   0  0  0  0  0  0
  -31.8368  -14.6181   20.1114 O   0  0  0  0  0  0
  -21.6635   -6.8880   21.4239 O   0  0  0  0  0  0
  -22.3557  -14.5543   20.6674 O   0  0  0  0  0  0
  -24.6129  -31.8700   23.2135 C   0  0  0  0  0  0
  -25.9035  -32.4832   23.8417 C   0  0  1  0  0  0
  -27.2379  -27.4613   20.0706 C   0  0  0  0  0  0
  -25.5896  -33.8633   24.2346 N   0  0  0  0  0  0
  -23.3997  -30.4946   21.5542 C   0  0  2  0  0  0
  -24.8447  -28.9633   20.1186 C   0  0  0  0  0  0
  -22.7403  -29.4665   22.5012 C   0  0  0  0  0  0
  -18.0266  -28.1379   22.8500 C   0  0  0  0  0  0
  -24.1482  -36.7325   23.2637 C   0  0  0  0  0  0
  -25.9275  -30.8370   21.3680 C   0  0  0  0  0  0
  -26.0033  -29.4716   20.7197 C   0  0  0  0  0  0
  -27.1994  -28.7198   20.7094 C   0  0  0  0  0  0
  -26.0562  -26.9562   19.4853 C   0  0  0  0  0  0
  -24.8626  -27.6987   19.5071 C   0  0  0  0  0  0
  -23.6073  -29.8291   20.1679 C   0  0  0  0  0  0
  -25.4103  -36.3123   24.0339 C   0  0  1  0  0  0
  -20.5856  -28.3661   23.1331 C   0  0  2  0  0  0
  -20.6761  -26.9402   22.5423 C   0  0  0  0  0  0
  -19.5737  -26.6389   21.5222 C   0  0  0  0  0  0
  -18.1914  -26.7927   22.1630 C   0  0  0  0  0  0
  -19.1516  -28.8838   23.2911 C   0  0  0  0  0  0
  -18.9443  -30.1446   23.8917 C   0  0  0  0  0  0
  -17.6445  -30.6587   24.0571 C   0  0  0  0  0  0
  -25.9030  -34.9484   23.5140 C   0  0  0  0  0  0
  -16.5337  -29.9089   23.6327 C   0  0  0  0  0  0
  -16.7255  -28.6506   23.0348 C   0  0  0  0  0  0
  -26.4471  -31.6602   25.0736 C   0  0  0  0  0  0
  -25.3744  -31.3699   26.1487 C   0  0  0  0  0  0
  -27.0291  -30.3044   24.6101 C   0  0  0  0  0  0
  -27.6051  -32.4319   25.7491 C   0  0  0  0  0  0
  -27.5581  -37.1817   24.8464 C   0  0  0  0  0  0
  -21.4134  -29.3030   22.3743 N   0  0  0  0  0  0
  -26.4295  -37.3804   23.9407 N   0  0  0  0  0  0
  -24.6646  -31.0812   22.1035 N   0  0  0  0  0  0
  -23.4181  -28.8202   23.3045 O   0  0  0  0  0  0
  -28.4134  -26.7447   20.0365 O   0  0  0  0  0  0
  -26.5592  -34.8930   22.4699 O   0  0  0  0  0  0
  -23.5325  -32.1448   23.7537 O   0  0  0  0  0  0
  -30.4331  -17.6050   22.1208 C   0  0  0  0  0  0
  -30.5730  -18.7886   19.5845 C   0  0  0  0  0  0
  -30.6836  -18.9921   22.0103 C   0  0  0  0  0  0
  -30.7634  -19.5998   20.7283 C   0  0  0  0  0  0
  -30.2611  -16.8022   20.9750 C   0  0  0  0  0  0
  -30.2919  -17.4135   19.6957 C   0  0  0  0  0  0
  -30.8992  -23.0482   18.9961 C   0  0  0  0  0  0
  -33.5854  -22.0295   16.6543 C   0  0  0  0  0  0
  -31.9222  -23.0728   18.1164 C   0  0  0  0  0  0
  -32.5646  -21.9155   17.5180 C   0  0  0  0  0  0
  -30.2378  -24.3027   19.5615 C   0  0  0  0  0  0
  -27.9854  -22.4393   18.6451 C   0  0  0  0  0  0
  -27.8090  -23.9595   18.8180 C   0  0  0  0  0  0
  -28.8206  -21.7721   19.7591 C   0  0  0  0  0  0
  -29.0960  -24.7887   18.6432 C   0  0  1  0  0  0
  -30.8804  -19.7937   23.2872 C   0  0  0  0  0  0
  -31.0740  -21.0972   20.5537 C   0  0  0  0  0  0
  -28.8447  -26.3124   18.7426 C   0  0  0  0  0  0
  -30.0087  -15.4146   21.1492 N   0  0  0  0  0  0
  -30.2853  -21.7637   19.4821 N   0  3  2  0  0  0
  -29.9328  -16.5421   18.2432 Cl  0  0  0  0  0  0
  -31.4666  -12.3728   19.1143 H   0  0  0  0  0  0
  -30.3126  -11.2623   19.7948 H   0  0  0  0  0  0
  -29.7266  -11.7914   17.4118 H   0  0  0  0  0  0
  -29.6722  -13.4967   17.7812 H   0  0  0  0  0  0
  -27.8139  -11.3184   18.7952 H   0  0  0  0  0  0
  -27.3667  -12.6658   17.7845 H   0  0  0  0  0  0
  -27.7181  -14.2547   19.5964 H   0  0  0  0  0  0
  -28.6684  -11.9169   21.3241 H   0  0  0  0  0  0
  -28.4716  -13.5458   21.8841 H   0  0  0  0  0  0
  -25.2762   -9.5693   22.4750 H   0  0  0  0  0  0
  -24.0008   -7.4639   22.7470 H   0  0  0  0  0  0
  -21.0839   -8.8758   19.8953 H   0  0  0  0  0  0
  -22.3682  -10.9664   19.6161 H   0  0  0  0  0  0
  -21.2004   -7.6147   23.9723 H   0  0  0  0  0  0
  -21.1481   -6.0519   25.9079 H   0  0  0  0  0  0
  -22.0599   -2.7612   23.2839 H   0  0  0  0  0  0
  -22.4105  -11.9899   22.4789 H   0  0  0  0  0  0
  -21.1122  -13.1274   22.2582 H   0  0  0  0  0  0
  -24.6686  -15.8443   20.5200 H   0  0  0  0  0  0
  -26.2885  -15.6241   20.0896 H   0  0  0  0  0  0
  -26.7109  -32.5552   23.1186 H   0  0  0  0  0  0
  -25.0044  -33.9800   25.0488 H   0  0  0  0  0  0
  -22.6876  -31.3110   21.4174 H   0  0  0  0  0  0
  -23.3739  -35.9666   23.3318 H   0  0  0  0  0  0
  -24.3577  -36.8921   22.2050 H   0  0  0  0  0  0
  -23.7244  -37.6541   23.6635 H   0  0  0  0  0  0
  -26.0382  -31.6011   20.5970 H   0  0  0  0  0  0
  -26.8170  -30.8916   21.9838 H   0  0  0  0  0  0
  -28.0960  -29.1100   21.1706 H   0  0  0  0  0  0
  -26.0441  -25.9913   19.0062 H   0  0  0  0  0  0
  -23.9705  -27.2971   19.0461 H   0  0  0  0  0  0
  -23.7169  -30.6048   19.4092 H   0  0  0  0  0  0
  -22.7315  -29.2490   19.8713 H   0  0  0  0  0  0
  -25.1279  -36.1995   25.0835 H   0  0  0  0  0  0
  -20.9945  -28.3220   24.1453 H   0  0  0  0  0  0
  -20.5681  -26.2264   23.3605 H   0  0  0  0  0  0
  -21.6628  -26.7462   22.1200 H   0  0  0  0  0  0
  -19.6898  -25.6306   21.1234 H   0  0  0  0  0  0
  -19.6675  -27.3216   20.6766 H   0  0  0  0  0  0
  -17.4189  -26.6686   21.4027 H   0  0  0  0  0  0
  -18.0306  -26.0063   22.9020 H   0  0  0  0  0  0
  -19.7918  -30.7261   24.2294 H   0  0  0  0  0  0
  -17.4998  -31.6268   24.5169 H   0  0  0  0  0  0
  -15.5338  -30.2996   23.7642 H   0  0  0  0  0  0
  -15.8655  -28.0835   22.7048 H   0  0  0  0  0  0
  -24.5909  -30.7058   25.7820 H   0  0  0  0  0  0
  -24.8944  -32.2851   26.4964 H   0  0  0  0  0  0
  -25.8101  -30.8844   27.0227 H   0  0  0  0  0  0
  -26.2824  -29.6816   24.1159 H   0  0  0  0  0  0
  -27.4063  -29.7270   25.4551 H   0  0  0  0  0  0
  -27.8661  -30.4360   23.9239 H   0  0  0  0  0  0
  -27.2671  -33.3605   26.2104 H   0  0  0  0  0  0
  -28.3837  -32.6906   25.0303 H   0  0  0  0  0  0
  -28.0745  -31.8425   26.5378 H   0  0  0  0  0  0
  -28.2608  -38.0106   24.7509 H   0  0  0  0  0  0
  -28.1066  -36.2640   24.6286 H   0  0  0  0  0  0
  -27.2300  -37.1467   25.8868 H   0  0  0  0  0  0
  -20.9292  -29.8754   21.6969 H   0  0  0  0  0  0
  -26.0186  -38.2886   24.1405 H   0  0  0  0  0  0
  -30.3847  -17.1458   23.0987 H   0  0  0  0  0  0
  -30.6193  -19.2082   18.5913 H   0  0  0  0  0  0
  -34.0482  -21.1543   16.2203 H   0  0  0  0  0  0
  -33.9798  -22.9934   16.3627 H   0  0  0  0  0  0
  -32.2847  -24.0482   17.8199 H   0  0  0  0  0  0
  -32.2311  -20.9159   17.7556 H   0  0  0  0  0  0
  -31.0094  -25.0716   19.6186 H   0  0  0  0  0  0
  -29.8999  -24.1660   20.5893 H   0  0  0  0  0  0
  -28.3837  -22.2027   17.6573 H   0  0  0  0  0  0
  -26.9892  -21.9950   18.6670 H   0  0  0  0  0  0
  -27.3635  -24.1650   19.7923 H   0  0  0  0  0  0
  -27.0833  -24.2905   18.0745 H   0  0  0  0  0  0
  -28.4828  -20.7397   19.8551 H   0  0  0  0  0  0
  -28.6124  -22.2351   20.7241 H   0  0  0  0  0  0
  -29.4292  -24.6356   17.6144 H   0  0  0  0  0  0
  -30.8849  -19.1502   24.1677 H   0  0  0  0  0  0
  -30.0752  -20.5181   23.4145 H   0  0  0  0  0  0
  -31.8319  -20.3263   23.2713 H   0  0  0  0  0  0
  -32.1383  -21.1780   20.3294 H   0  0  0  0  0  0
  -30.9223  -21.6552   21.4765 H   0  0  0  0  0  0
  -28.1615  -26.6202   17.9488 H   0  0  0  0  0  0
  -29.7738  -26.8402   18.5243 H   0  0  0  0  0  0
  -29.1516  -15.1582   21.6145 H   0  0  0  0  0  0
  -30.3684  -21.1251   18.7078 H   0  0  0  0  0  0
  1 25  1  0  0  0
  1 30  2  0  0  0
  1 89  1  0  0  0
  2  3  1  0  0  0
  2 25  1  0  0  0
  2 92  1  0  0  0
  2 93  1  0  0  0
  3  4  1  0  0  0
  3 94  1  0  0  0
  3 95  1  0  0  0
  4  5  1  0  0  0
  4 96  1  0  0  0
  4 97  1  0  0  0
  5  6  1  0  0  0
  5 26  1  0  0  0
  5 98  1  0  0  0
  6 25  1  0  0  0
  6 99  1  0  0  0
  6100  1  0  0  0
  7  8  2  0  0  0
  7 26  1  0  0  0
  7 29  1  0  0  0
  8  9  1  0  0  0
  8 22  1  0  0  0
  9 10  1  0  0  0
  9 27  2  0  0  0
 10 11  2  0  0  0
 10 15  1  0  0  0
 11 12  1  0  0  0
 11101  1  0  0  0
 12 13  2  0  0  0
 12102  1  0  0  0
 13 14  1  0  0  0
 13 31  1  0  0  0
 14 15  2  0  0  0
 14103  1  0  0  0
 15104  1  0  0  0
 16 17  2  0  0  0
 16 21  1  0  0  0
 16 31  1  0  0  0
 17 18  1  0  0  0
 17105  1  0  0  0
 18 19  2  0  0  0
 18106  1  0  0  0
 19 20  1  0  0  0
 19 24  1  0  0  0
 20 21  2  0  0  0
 20107  1  0  0  0
 21 23  1  0  0  0
 22 28  1  0  0  0
 22 32  2  0  0  0
 26 27  1  0  0  0
 28108  1  0  0  0
 28109  1  0  0  0
 29110  1  0  0  0
 29111  1  0  0  0
 33 34  1  0  0  0
 33 66  1  0  0  0
 33 70  2  0  0  0
 34 36  1  0  0  0
 34 59  1  0  0  0
 34112  1  0  0  0
 35 44  2  0  0  0
 35 45  1  0  0  0
 35 68  1  0  0  0
 36 56  1  0  0  0
 36113  1  0  0  0
 37 39  1  0  0  0
 37 47  1  0  0  0
 37 66  1  0  0  0
 37114  1  0  0  0
 38 43  2  0  0  0
 38 46  1  0  0  0
 38 47  1  0  0  0
 39 64  1  0  0  0
 39 67  2  0  0  0
 40 52  1  0  0  0
 40 53  2  0  0  0
 40 58  1  0  0  0
 41115  1  0  0  0
 41116  1  0  0  0
 41117  1  0  0  0
 41 48  1  0  0  0
 42 43  1  0  0  0
 42 66  1  0  0  0
 42118  1  0  0  0
 42119  1  0  0  0
 43 44  1  0  0  0
 44120  1  0  0  0
 45 46  2  0  0  0
 45121  1  0  0  0
 46122  1  0  0  0
 47123  1  0  0  0
 47124  1  0  0  0
 48 56  1  0  0  0
 48 65  1  0  0  0
 48125  1  0  0  0
 49 50  1  0  0  0
 49 53  1  0  0  0
 49 64  1  0  0  0
 49126  1  0  0  0
 50 51  1  0  0  0
 50127  1  0  0  0
 50128  1  0  0  0
 51 52  1  0  0  0
 51129  1  0  0  0
 51130  1  0  0  0
 52131  1  0  0  0
 52132  1  0  0  0
 53 54  1  0  0  0
 54 55  2  0  0  0
 54133  1  0  0  0
 55 57  1  0  0  0
 55134  1  0  0  0
 56 69  2  0  0  0
 57 58  2  0  0  0
 57135  1  0  0  0
 58136  1  0  0  0
 59 60  1  0  0  0
 59 61  1  0  0  0
 59 62  1  0  0  0
 60137  1  0  0  0
 60138  1  0  0  0
 60139  1  0  0  0
 61140  1  0  0  0
 61141  1  0  0  0
 61142  1  0  0  0
 62143  1  0  0  0
 62144  1  0  0  0
 62145  1  0  0  0
 63 65  1  0  0  0
 63146  1  0  0  0
 63147  1  0  0  0
 63148  1  0  0  0
 64149  1  0  0  0
 65150  1  0  0  0
 68 88  1  0  0  0
 71 73  2  0  0  0
 71 75  1  0  0  0
 71151  1  0  0  0
 72 74  2  0  0  0
 72 76  1  0  0  0
 72152  1  0  0  0
 73 74  1  0  0  0
 73 86  1  0  0  0
 74 87  1  0  0  0
 75 76  2  0  0  0
 75 89  1  0  0  0
 76 91  1  0  0  0
 77 79  2  0  0  0
 77 81  1  0  0  0
 77 90  1  0  0  0
 78 80  2  0  0  0
 78153  1  0  0  0
 78154  1  0  0  0
 79 80  1  0  0  0
 79155  1  0  0  0
 80156  1  0  0  0
 81 85  1  0  0  0
 81157  1  0  0  0
 81158  1  0  0  0
 82 83  1  0  0  0
 82 84  1  0  0  0
 82159  1  0  0  0
 82160  1  0  0  0
 83 85  1  0  0  0
 83161  1  0  0  0
 83162  1  0  0  0
 84 90  1  0  0  0
 84163  1  0  0  0
 84164  1  0  0  0
 85 88  1  0  0  0
 85165  1  0  0  0
 86166  1  0  0  0
 86167  1  0  0  0
 86168  1  0  0  0
 87169  1  0  0  0
 87170  1  0  0  0
 87 90  1  0  0  0
 88171  1  0  0  0
 88172  1  0  0  0
 89173  1  0  0  0
 90174  1  0  0  0
M  CHG  1  90   1
M  ISO  4   1 100  68 101  88 101  89 100
M  END
> <chiral flag>
0

> <version>
0

> <s_m_source_file>
/data/baiqing/PycharmProjects/Reinvent-master-3.2/result/LINK_invent/BTK/process_docking_weight1_custom_product_contain_oxygen_bond_distance_aromatic_linkinvent_7_9_3/rearranged_h_0041.sdf

> <i_m_source_file_index>
6

> <r_mmod_Potential_Energy-OPLS-2005>
-117.002014160156

> <r_mmod_Stretch_Energy-OPLS-2005>
37.7604560852051

> <r_mmod_Bend_Energy-OPLS-2005>
110.284194946289

> <r_mmod_Torsional_Energy-OPLS-2005>
267.854736328125

> <r_mmod_Improper_Torsional_Energy-OPLS-2005>
3.30761027336121

> <r_mmod_Van_der_Waal_Energy-OPLS-2005>
156.591827392578

> <r_mmod_Electrostatic_Energy-OPLS-2005>
-274.6201171875

> <r_mmod_Solvation_Energy-OPLS-2005>
-427.541870117188

> <b_mmod_Minimization_Converged-OPLS-2005>
0

> <r_mmod_RMS_Derivative-OPLS-2005>
0.903454184532166

$$$$
6
                    3D
 Structure written by MMmdl.
154162  0  0  1  0            999 V2000
  -30.6402  -14.5276   20.5710 C   0  0  0  0  0  0
  -30.4395  -12.3384   19.4245 C   0  0  0  0  0  0
  -29.5000  -12.5088   18.2103 C   0  0  0  0  0  0
  -28.0220  -12.3568   18.6243 C   0  0  0  0  0  0
  -27.6639  -13.1997   19.8762 C   0  0  2  0  0  0
  -28.7039  -12.9677   20.9946 C   0  0  0  0  0  0
  -25.2602  -13.8142   20.5660 C   0  0  0  0  0  0
  -24.1844  -13.0438   20.9167 C   0  0  0  0  0  0
  -24.6390  -11.6901   20.8736 C   0  0  0  0  0  0
  -23.9055  -10.4293   21.0416 C   0  0  0  0  0  0
  -24.3608   -9.4205   21.9195 C   0  0  0  0  0  0
  -23.6286   -8.2239   22.0756 C   0  0  0  0  0  0
  -22.4270   -8.0279   21.3546 C   0  0  0  0  0  0
  -21.9909   -9.0252   20.4648 C   0  0  0  0  0  0
  -22.7232  -10.2134   20.3061 C   0  0  0  0  0  0
  -21.6845   -6.0739   22.5285 C   0  0  0  0  0  0
  -21.4010   -6.5642   23.8219 C   0  0  0  0  0  0
  -21.3656   -5.6791   24.9179 C   0  0  0  0  0  0
  -21.6042   -4.3056   24.7230 C   0  0  0  0  0  0
  -21.8819   -3.8150   23.4349 C   0  0  0  0  0  0
  -21.9192   -4.6966   22.3406 C   0  0  0  0  0  0
  -22.7869  -13.5245   21.1843 C   0  0  0  0  0  0
  -22.1661   -4.2154   21.0982 F   0  0  0  0  0  0
  -21.5629   -3.4541   25.7742 F   0  0  0  0  0  0
  -30.0340  -13.3095   20.4553 N   0  0  0  0  0  0
  -26.3033  -12.9298   20.3360 N   0  0  0  0  0  0
  -25.9312  -11.6471   20.5764 N   0  0  0  0  0  0
  -22.0502  -12.8237   22.0392 N   0  0  0  0  0  0
  -25.4358  -15.1861   20.4070 N   0  0  0  0  0  0
  -31.7329  -14.7792   20.0514 O   0  0  0  0  0  0
  -21.6635   -6.8881   21.4247 O   0  0  0  0  0  0
  -22.3558  -14.5557   20.6695 O   0  0  0  0  0  0
  -24.6193  -31.8645   23.2054 C   0  0  0  0  0  0
  -25.9071  -32.4793   23.8370 C   0  0  1  0  0  0
  -27.2417  -27.3916   20.0910 C   0  0  0  0  0  0
  -25.5911  -33.8589   24.2310 N   0  0  0  0  0  0
  -23.4097  -30.4881   21.5462 C   0  0  2  0  0  0
  -24.8548  -28.9439   20.1130 C   0  0  0  0  0  0
  -22.7440  -29.4648   22.4953 C   0  0  0  0  0  0
  -18.0288  -28.1371   22.8479 C   0  0  0  0  0  0
  -24.1493  -36.7297   23.2645 C   0  0  0  0  0  0
  -25.9421  -30.8159   21.3647 C   0  0  0  0  0  0
  -26.0165  -29.4461   20.7102 C   0  0  0  0  0  0
  -27.2058  -28.6764   20.6966 C   0  0  0  0  0  0
  -26.0491  -26.9046   19.5053 C   0  0  0  0  0  0
  -24.8675  -27.6734   19.5113 C   0  0  0  0  0  0
  -23.6200  -29.8188   20.1605 C   0  0  0  0  0  0
  -25.4108  -36.3094   24.0356 C   0  0  1  0  0  0
  -20.5888  -28.3670   23.1290 C   0  0  2  0  0  0
  -20.6780  -26.9400   22.5407 C   0  0  0  0  0  0
  -19.5755  -26.6381   21.5201 C   0  0  0  0  0  0
  -18.1934  -26.7913   22.1612 C   0  0  0  0  0  0
  -19.1542  -28.8833   23.2881 C   0  0  0  0  0  0
  -18.9473  -30.1433   23.8894 C   0  0  0  0  0  0
  -17.6477  -30.6571   24.0563 C   0  0  0  0  0  0
  -25.9043  -34.9459   23.5134 C   0  0  0  0  0  0
  -16.5366  -29.9078   23.6321 C   0  0  0  0  0  0
  -16.7280  -28.6504   23.0329 C   0  0  0  0  0  0
  -26.4487  -31.6576   25.0708 C   0  0  0  0  0  0
  -25.3748  -31.3696   26.1458 C   0  0  0  0  0  0
  -27.0323  -30.3020   24.6085 C   0  0  0  0  0  0
  -27.6055  -32.4307   25.7469 C   0  0  0  0  0  0
  -27.5587  -37.1801   24.8476 C   0  0  0  0  0  0
  -21.4168  -29.3036   22.3693 N   0  0  0  0  0  0
  -26.4296  -37.3778   23.9427 N   0  0  0  0  0  0
  -24.6758  -31.0715   22.0967 N   0  0  0  0  0  0
  -23.4195  -28.8199   23.3018 O   0  0  0  0  0  0
  -28.4329  -26.6751   20.1191 O   0  0  0  0  0  0
  -26.5597  -34.8924   22.4693 O   0  0  0  0  0  0
  -23.5380  -32.1419   23.7435 O   0  0  0  0  0  0
  -30.0149  -17.7485   20.0788 C   0  0  0  0  0  0
  -29.5271  -17.6332   22.2907 C   0  0  0  0  0  0
  -29.8837  -16.8752   21.2131 C   0  0  0  0  0  0
  -29.7166  -19.0398   20.4850 C   0  0  0  0  0  0
  -29.6470  -20.3583   19.7019 C   0  0  0  0  0  0
  -28.6400  -24.1386   20.3244 C   0  0  0  0  0  0
  -29.1627  -22.8426   19.6031 C   0  0  0  0  0  0
  -28.6191  -25.4170   19.4204 C   0  0  0  0  0  0
  -29.4394  -18.9400   21.8435 N   0  0  0  0  0  0
  -29.9337  -15.4414   21.2764 N   0  0  0  0  0  0
  -29.1772  -21.5850   20.4251 N   0  3  0  0  0  0
  -31.4782  -12.4708   19.1177 H   0  0  0  0  0  0
  -30.3742  -11.3232   19.8198 H   0  0  0  0  0  0
  -29.7468  -11.7779   17.4388 H   0  0  0  0  0  0
  -29.6543  -13.4903   17.7597 H   0  0  0  0  0  0
  -27.8440  -11.3007   18.8305 H   0  0  0  0  0  0
  -27.3674  -12.6169   17.7920 H   0  0  0  0  0  0
  -27.7119  -14.2480   19.5809 H   0  0  0  0  0  0
  -28.6927  -11.9224   21.3071 H   0  0  0  0  0  0
  -28.4429  -13.5322   21.8900 H   0  0  0  0  0  0
  -25.2753   -9.5682   22.4772 H   0  0  0  0  0  0
  -23.9998   -7.4629   22.7470 H   0  0  0  0  0  0
  -21.0843   -8.8772   19.8947 H   0  0  0  0  0  0
  -22.3697  -10.9676   19.6168 H   0  0  0  0  0  0
  -21.1997   -7.6150   23.9725 H   0  0  0  0  0  0
  -21.1479   -6.0522   25.9080 H   0  0  0  0  0  0
  -22.0600   -2.7616   23.2850 H   0  0  0  0  0  0
  -22.4097  -11.9878   22.4758 H   0  0  0  0  0  0
  -21.1125  -13.1280   22.2603 H   0  0  0  0  0  0
  -24.6773  -15.8500   20.5180 H   0  0  0  0  0  0
  -26.3009  -15.6214   20.1094 H   0  0  0  0  0  0
  -26.7137  -32.5499   23.1124 H   0  0  0  0  0  0
  -25.0077  -33.9728   25.0469 H   0  0  0  0  0  0
  -22.7020  -31.3071   21.4044 H   0  0  0  0  0  0
  -23.3745  -35.9635   23.3307 H   0  0  0  0  0  0
  -24.3597  -36.8905   22.2058 H   0  0  0  0  0  0
  -23.7245  -37.6514   23.6643 H   0  0  0  0  0  0
  -26.0622  -31.5806   20.5965 H   0  0  0  0  0  0
  -26.8272  -30.8668   21.9872 H   0  0  0  0  0  0
  -28.1041  -29.0610   21.1586 H   0  0  0  0  0  0
  -25.9985  -25.9252   19.0554 H   0  0  0  0  0  0
  -23.9708  -27.2781   19.0551 H   0  0  0  0  0  0
  -23.7365  -30.5955   19.4020 H   0  0  0  0  0  0
  -22.7423  -29.2458   19.8601 H   0  0  0  0  0  0
  -25.1274  -36.1965   25.0846 H   0  0  0  0  0  0
  -20.9984  -28.3242   24.1408 H   0  0  0  0  0  0
  -20.5685  -26.2279   23.3604 H   0  0  0  0  0  0
  -21.6649  -26.7431   22.1202 H   0  0  0  0  0  0
  -19.6931  -25.6301   21.1215 H   0  0  0  0  0  0
  -19.6696  -27.3200   20.6741 H   0  0  0  0  0  0
  -17.4212  -26.6667   21.4009 H   0  0  0  0  0  0
  -18.0335  -26.0037   22.8995 H   0  0  0  0  0  0
  -19.7956  -30.7241   24.2266 H   0  0  0  0  0  0
  -17.5038  -31.6251   24.5167 H   0  0  0  0  0  0
  -15.5366  -30.2984   23.7635 H   0  0  0  0  0  0
  -15.8681  -28.0831   22.7017 H   0  0  0  0  0  0
  -24.5912  -30.7046   25.7795 H   0  0  0  0  0  0
  -24.8942  -32.2863   26.4897 H   0  0  0  0  0  0
  -25.8093  -30.8873   27.0222 H   0  0  0  0  0  0
  -26.2863  -29.6765   24.1161 H   0  0  0  0  0  0
  -27.4139  -29.7265   25.4527 H   0  0  0  0  0  0
  -27.8679  -30.4343   23.9199 H   0  0  0  0  0  0
  -27.2662  -33.3609   26.2041 H   0  0  0  0  0  0
  -28.3852  -32.6870   25.0276 H   0  0  0  0  0  0
  -28.0728  -31.8436   26.5388 H   0  0  0  0  0  0
  -28.2597  -38.0106   24.7510 H   0  0  0  0  0  0
  -28.1087  -36.2633   24.6294 H   0  0  0  0  0  0
  -27.2314  -37.1447   25.8884 H   0  0  0  0  0  0
  -20.9341  -29.8771   21.6920 H   0  0  0  0  0  0
  -26.0190  -38.2866   24.1394 H   0  0  0  0  0  0
  -30.2535  -17.4655   19.0617 H   0  0  0  0  0  0
  -29.3113  -17.3781   23.3212 H   0  0  0  0  0  0
  -28.9901  -20.2089   18.8434 H   0  0  0  0  0  0
  -30.6332  -20.5634   19.2849 H   0  0  0  0  0  0
  -29.2736  -24.3386   21.1885 H   0  0  0  0  0  0
  -27.6365  -23.9663   20.7144 H   0  0  0  0  0  0
  -30.1767  -23.0271   19.2460 H   0  0  0  0  0  0
  -28.5569  -22.6665   18.7135 H   0  0  0  0  0  0
  -27.9419  -25.2900   18.5766 H   0  0  0  0  0  0
  -29.6025  -25.5017   18.9556 H   0  0  0  0  0  0
  -29.1788  -19.7076   22.4529 H   0  0  0  0  0  0
  -29.2073  -15.0226   21.8379 H   0  0  0  0  0  0
  -29.7799  -21.7279   21.2175 H   0  0  0  0  0  0
  -28.2445  -21.4108   20.7611 H   0  0  0  0  0  0
  1 25  1  0  0  0
  1 30  2  0  0  0
  1 80  1  0  0  0
  2  3  1  0  0  0
  2 25  1  0  0  0
  2 82  1  0  0  0
  2 83  1  0  0  0
  3  4  1  0  0  0
  3 84  1  0  0  0
  3 85  1  0  0  0
  4  5  1  0  0  0
  4 86  1  0  0  0
  4 87  1  0  0  0
  5  6  1  0  0  0
  5 26  1  0  0  0
  5 88  1  0  0  0
  6 25  1  0  0  0
  6 89  1  0  0  0
  6 90  1  0  0  0
  7  8  2  0  0  0
  7 26  1  0  0  0
  7 29  1  0  0  0
  8  9  1  0  0  0
  8 22  1  0  0  0
  9 10  1  0  0  0
  9 27  2  0  0  0
 10 11  2  0  0  0
 10 15  1  0  0  0
 11 12  1  0  0  0
 11 91  1  0  0  0
 12 13  2  0  0  0
 12 92  1  0  0  0
 13 14  1  0  0  0
 13 31  1  0  0  0
 14 15  2  0  0  0
 14 93  1  0  0  0
 15 94  1  0  0  0
 16 17  2  0  0  0
 16 21  1  0  0  0
 16 31  1  0  0  0
 17 18  1  0  0  0
 17 95  1  0  0  0
 18 19  2  0  0  0
 18 96  1  0  0  0
 19 20  1  0  0  0
 19 24  1  0  0  0
 20 21  2  0  0  0
 20 97  1  0  0  0
 21 23  1  0  0  0
 22 28  1  0  0  0
 22 32  2  0  0  0
 26 27  1  0  0  0
 28 98  1  0  0  0
 28 99  1  0  0  0
 29100  1  0  0  0
 29101  1  0  0  0
 33 34  1  0  0  0
 33 66  1  0  0  0
 33 70  2  0  0  0
 34 36  1  0  0  0
 34 59  1  0  0  0
 34102  1  0  0  0
 35 44  2  0  0  0
 35 45  1  0  0  0
 35 68  1  0  0  0
 36 56  1  0  0  0
 36103  1  0  0  0
 37 39  1  0  0  0
 37 47  1  0  0  0
 37 66  1  0  0  0
 37104  1  0  0  0
 38 43  2  0  0  0
 38 46  1  0  0  0
 38 47  1  0  0  0
 39 64  1  0  0  0
 39 67  2  0  0  0
 40 52  1  0  0  0
 40 53  2  0  0  0
 40 58  1  0  0  0
 41105  1  0  0  0
 41106  1  0  0  0
 41107  1  0  0  0
 41 48  1  0  0  0
 42 43  1  0  0  0
 42 66  1  0  0  0
 42108  1  0  0  0
 42109  1  0  0  0
 43 44  1  0  0  0
 44110  1  0  0  0
 45 46  2  0  0  0
 45111  1  0  0  0
 46112  1  0  0  0
 47113  1  0  0  0
 47114  1  0  0  0
 48 56  1  0  0  0
 48 65  1  0  0  0
 48115  1  0  0  0
 49 50  1  0  0  0
 49 53  1  0  0  0
 49 64  1  0  0  0
 49116  1  0  0  0
 50 51  1  0  0  0
 50117  1  0  0  0
 50118  1  0  0  0
 51 52  1  0  0  0
 51119  1  0  0  0
 51120  1  0  0  0
 52121  1  0  0  0
 52122  1  0  0  0
 53 54  1  0  0  0
 54 55  2  0  0  0
 54123  1  0  0  0
 55 57  1  0  0  0
 55124  1  0  0  0
 56 69  2  0  0  0
 57 58  2  0  0  0
 57125  1  0  0  0
 58126  1  0  0  0
 59 60  1  0  0  0
 59 61  1  0  0  0
 59 62  1  0  0  0
 60127  1  0  0  0
 60128  1  0  0  0
 60129  1  0  0  0
 61130  1  0  0  0
 61131  1  0  0  0
 61132  1  0  0  0
 62133  1  0  0  0
 62134  1  0  0  0
 62135  1  0  0  0
 63 65  1  0  0  0
 63136  1  0  0  0
 63137  1  0  0  0
 63138  1  0  0  0
 64139  1  0  0  0
 65140  1  0  0  0
 68 78  1  0  0  0
 71 73  1  0  0  0
 71 74  2  0  0  0
 71141  1  0  0  0
 72 73  2  0  0  0
 72 79  1  0  0  0
 72142  1  0  0  0
 73 80  1  0  0  0
 74 75  1  0  0  0
 74 79  1  0  0  0
 75 81  1  0  0  0
 75143  1  0  0  0
 75144  1  0  0  0
 76 77  1  0  0  0
 76 78  1  0  0  0
 76145  1  0  0  0
 76146  1  0  0  0
 77 81  1  0  0  0
 77147  1  0  0  0
 77148  1  0  0  0
 78149  1  0  0  0
 78150  1  0  0  0
 79151  1  0  0  0
 80152  1  0  0  0
 81153  1  0  0  0
 81154  1  0  0  0
M  CHG  1  81   1
M  ISO  4   1 100  68 101  78 101  80 100
M  END
> <chiral flag>
0

> <version>
0

> <s_m_source_file>
/data/baiqing/PycharmProjects/Reinvent-master-3.2/result/LINK_invent/BTK/process_docking_weight1_custom_product_contain_oxygen_bond_distance_aromatic_linkinvent_7_9_3/rearranged_h_0041.sdf

> <i_m_source_file_index>
7

> <r_mmod_Potential_Energy-OPLS-2005>
-239.435928344727

> <r_mmod_Stretch_Energy-OPLS-2005>
47.7527618408203

> <r_mmod_Bend_Energy-OPLS-2005>
132.392166137695

> <r_mmod_Torsional_Energy-OPLS-2005>
211.460266113281

> <r_mmod_Improper_Torsional_Energy-OPLS-2005>
3.1722412109375

> <r_mmod_Van_der_Waal_Energy-OPLS-2005>
124.019287109375

> <r_mmod_Electrostatic_Energy-OPLS-2005>
-264.00830078125

> <r_mmod_Solvation_Energy-OPLS-2005>
-514.491333007812

> <b_mmod_Minimization_Converged-OPLS-2005>
0

> <r_mmod_RMS_Derivative-OPLS-2005>
1.75777149200439

$$$$
7
                    3D
 Structure written by MMmdl.
164173  0  0  1  0            999 V2000
  -30.6103  -14.6415   20.4781 C   0  0  0  0  0  0
  -30.4406  -12.3867   19.4518 C   0  0  0  0  0  0
  -29.5098  -12.5084   18.2244 C   0  0  0  0  0  0
  -28.0321  -12.3480   18.6359 C   0  0  0  0  0  0
  -27.6555  -13.2160   19.8664 C   0  0  2  0  0  0
  -28.7020  -13.0631   20.9940 C   0  0  0  0  0  0
  -25.2563  -13.8169   20.5677 C   0  0  0  0  0  0
  -24.1834  -13.0434   20.9191 C   0  0  0  0  0  0
  -24.6402  -11.6906   20.8756 C   0  0  0  0  0  0
  -23.9076  -10.4290   21.0418 C   0  0  0  0  0  0
  -24.3622   -9.4200   21.9190 C   0  0  0  0  0  0
  -23.6294   -8.2243   22.0758 C   0  0  0  0  0  0
  -22.4280   -8.0283   21.3552 C   0  0  0  0  0  0
  -21.9919   -9.0252   20.4661 C   0  0  0  0  0  0
  -22.7249  -10.2128   20.3067 C   0  0  0  0  0  0
  -21.6854   -6.0747   22.5293 C   0  0  0  0  0  0
  -21.4004   -6.5645   23.8225 C   0  0  0  0  0  0
  -21.3662   -5.6791   24.9184 C   0  0  0  0  0  0
  -21.6043   -4.3056   24.7232 C   0  0  0  0  0  0
  -21.8819   -3.8155   23.4350 C   0  0  0  0  0  0
  -21.9183   -4.6972   22.3410 C   0  0  0  0  0  0
  -22.7855  -13.5229   21.1845 C   0  0  0  0  0  0
  -22.1652   -4.2169   21.0985 F   0  0  0  0  0  0
  -21.5639   -3.4532   25.7734 F   0  0  0  0  0  0
  -30.0183  -13.4063   20.4315 N   0  0  0  0  0  0
  -26.2999  -12.9348   20.3343 N   0  0  0  0  0  0
  -25.9334  -11.6506   20.5785 N   0  0  0  0  0  0
  -22.0499  -12.8227   22.0409 N   0  0  0  0  0  0
  -25.4251  -15.1892   20.4065 N   0  0  0  0  0  0
  -31.7745  -14.8080   20.1058 O   0  0  0  0  0  0
  -21.6644   -6.8879   21.4252 O   0  0  0  0  0  0
  -22.3543  -14.5540   20.6697 O   0  0  0  0  0  0
  -24.6245  -31.8604   23.2032 C   0  0  0  0  0  0
  -25.9097  -32.4779   23.8355 C   0  0  1  0  0  0
  -27.2285  -27.3308   20.1118 C   0  0  0  0  0  0
  -25.5914  -33.8581   24.2281 N   0  0  0  0  0  0
  -23.4181  -30.4830   21.5448 C   0  0  2  0  0  0
  -24.8652  -28.9332   20.1173 C   0  0  0  0  0  0
  -22.7462  -29.4628   22.4945 C   0  0  0  0  0  0
  -18.0290  -28.1384   22.8489 C   0  0  0  0  0  0
  -24.1487  -36.7296   23.2639 C   0  0  0  0  0  0
  -25.9575  -30.7930   21.3725 C   0  0  0  0  0  0
  -26.0335  -29.4190   20.7181 C   0  0  0  0  0  0
  -27.2194  -28.6292   20.7051 C   0  0  0  0  0  0
  -26.0391  -26.8920   19.4896 C   0  0  0  0  0  0
  -24.8686  -27.6735   19.4965 C   0  0  0  0  0  0
  -23.6333  -29.8136   20.1618 C   0  0  0  0  0  0
  -25.4113  -36.3087   24.0329 C   0  0  1  0  0  0
  -20.5889  -28.3689   23.1290 C   0  0  2  0  0  0
  -20.6777  -26.9411   22.5416 C   0  0  0  0  0  0
  -19.5752  -26.6383   21.5218 C   0  0  0  0  0  0
  -18.1934  -26.7927   22.1626 C   0  0  0  0  0  0
  -19.1543  -28.8850   23.2888 C   0  0  0  0  0  0
  -18.9464  -30.1454   23.8905 C   0  0  0  0  0  0
  -17.6463  -30.6586   24.0568 C   0  0  0  0  0  0
  -25.9044  -34.9454   23.5107 C   0  0  0  0  0  0
  -16.5355  -29.9089   23.6329 C   0  0  0  0  0  0
  -16.7277  -28.6505   23.0352 C   0  0  0  0  0  0
  -26.4488  -31.6586   25.0717 C   0  0  0  0  0  0
  -25.3725  -31.3727   26.1446 C   0  0  0  0  0  0
  -27.0328  -30.3010   24.6161 C   0  0  0  0  0  0
  -27.6045  -32.4320   25.7494 C   0  0  0  0  0  0
  -27.5582  -37.1805   24.8463 C   0  0  0  0  0  0
  -21.4174  -29.3046   22.3685 N   0  0  0  0  0  0
  -26.4289  -37.3781   23.9407 N   0  0  0  0  0  0
  -24.6854  -31.0621   22.0976 N   0  0  0  0  0  0
  -23.4194  -28.8170   23.3018 O   0  0  0  0  0  0
  -28.3615  -26.5089   20.0953 O   0  0  0  0  0  0
  -26.5618  -34.8923   22.4674 O   0  0  0  0  0  0
  -23.5411  -32.1396   23.7363 O   0  0  0  0  0  0
  -29.9302  -19.2243   19.2654 C   0  0  0  0  0  0
  -28.7515  -19.2878   21.3523 C   0  0  0  0  0  0
  -29.1764  -19.9918   20.1973 C   0  0  0  0  0  0
  -30.1999  -17.8262   19.4371 C   0  0  0  0  0  0
  -29.7416  -17.1218   20.5983 C   0  0  0  0  0  0
  -29.0193  -17.9026   21.5456 C   0  0  0  0  0  0
  -29.0154  -24.0477   19.6341 C   0  0  0  0  0  0
  -29.4339  -24.2991   18.3816 C   0  0  0  0  0  0
  -28.6175  -23.5905   22.5092 C   0  0  0  0  0  0
  -28.6045  -25.0302   21.9862 C   0  0  0  0  0  0
  -29.6676  -22.7605   21.7574 C   0  0  0  0  0  0
  -28.2234  -25.0900   20.5013 C   0  0  1  0  0  0
  -30.9072  -17.1101   18.2994 C   0  0  0  0  0  0
  -28.6468  -21.4466   19.8693 C   0  0  0  0  0  0
  -29.7833  -15.6716   20.8337 N   0  0  0  0  0  0
  -29.4037  -22.6912   20.2982 N   0  3  1  0  0  0
  -28.3728  -17.1419   22.9582 Cl  0  0  0  0  0  0
  -31.4827  -12.5090   19.1513 H   0  0  0  0  0  0
  -30.3726  -11.3910   19.8941 H   0  0  0  0  0  0
  -29.7730  -11.7623   17.4738 H   0  0  0  0  0  0
  -29.6535  -13.4805   17.7503 H   0  0  0  0  0  0
  -27.8678  -11.2940   18.8655 H   0  0  0  0  0  0
  -27.3796  -12.5802   17.7941 H   0  0  0  0  0  0
  -27.6731  -14.2525   19.5294 H   0  0  0  0  0  0
  -28.7142  -12.0379   21.3670 H   0  0  0  0  0  0
  -28.4517  -13.6880   21.8532 H   0  0  0  0  0  0
  -25.2771   -9.5663   22.4757 H   0  0  0  0  0  0
  -24.0008   -7.4624   22.7461 H   0  0  0  0  0  0
  -21.0857   -8.8763   19.8962 H   0  0  0  0  0  0
  -22.3716  -10.9656   19.6169 H   0  0  0  0  0  0
  -21.1992   -7.6152   23.9736 H   0  0  0  0  0  0
  -21.1489   -6.0525   25.9091 H   0  0  0  0  0  0
  -22.0598   -2.7619   23.2848 H   0  0  0  0  0  0
  -22.4098  -11.9882   22.4800 H   0  0  0  0  0  0
  -21.1124  -13.1283   22.2622 H   0  0  0  0  0  0
  -24.6532  -15.8394   20.5061 H   0  0  0  0  0  0
  -26.2798  -15.6352   20.0995 H   0  0  0  0  0  0
  -26.7160  -32.5457   23.1101 H   0  0  0  0  0  0
  -25.0050  -33.9732   25.0417 H   0  0  0  0  0  0
  -22.7116  -31.3030   21.4001 H   0  0  0  0  0  0
  -23.3747  -35.9630   23.3303 H   0  0  0  0  0  0
  -24.3577  -36.8918   22.2054 H   0  0  0  0  0  0
  -23.7246  -37.6501   23.6658 H   0  0  0  0  0  0
  -26.0845  -31.5548   20.6023 H   0  0  0  0  0  0
  -26.8390  -30.8452   21.9995 H   0  0  0  0  0  0
  -28.1206  -29.0001   21.1731 H   0  0  0  0  0  0
  -26.0076  -25.9367   18.9852 H   0  0  0  0  0  0
  -23.9735  -27.2987   19.0181 H   0  0  0  0  0  0
  -23.7538  -30.5882   19.4039 H   0  0  0  0  0  0
  -22.7531  -29.2430   19.8596 H   0  0  0  0  0  0
  -25.1296  -36.1936   25.0820 H   0  0  0  0  0  0
  -20.9983  -28.3260   24.1410 H   0  0  0  0  0  0
  -20.5683  -26.2295   23.3617 H   0  0  0  0  0  0
  -21.6647  -26.7442   22.1208 H   0  0  0  0  0  0
  -19.6914  -25.6293   21.1254 H   0  0  0  0  0  0
  -19.6696  -27.3191   20.6746 H   0  0  0  0  0  0
  -17.4207  -26.6686   21.4028 H   0  0  0  0  0  0
  -18.0329  -26.0068   22.9014 H   0  0  0  0  0  0
  -19.7940  -30.7272   24.2275 H   0  0  0  0  0  0
  -17.5019  -31.6270   24.5161 H   0  0  0  0  0  0
  -15.5358  -30.2997   23.7639 H   0  0  0  0  0  0
  -15.8680  -28.0828   22.7060 H   0  0  0  0  0  0
  -24.5887  -30.7089   25.7776 H   0  0  0  0  0  0
  -24.8930  -32.2896   26.4884 H   0  0  0  0  0  0
  -25.8046  -30.8893   27.0214 H   0  0  0  0  0  0
  -26.2900  -29.6769   24.1175 H   0  0  0  0  0  0
  -27.4019  -29.7258   25.4663 H   0  0  0  0  0  0
  -27.8773  -30.4303   23.9387 H   0  0  0  0  0  0
  -27.2645  -33.3611   26.2085 H   0  0  0  0  0  0
  -28.3855  -32.6895   25.0327 H   0  0  0  0  0  0
  -28.0708  -31.8434   26.5408 H   0  0  0  0  0  0
  -28.2590  -38.0113   24.7516 H   0  0  0  0  0  0
  -28.1089  -36.2643   24.6270 H   0  0  0  0  0  0
  -27.2301  -37.1434   25.8866 H   0  0  0  0  0  0
  -20.9343  -29.8768   21.6901 H   0  0  0  0  0  0
  -26.0171  -38.2850   24.1417 H   0  0  0  0  0  0
  -30.2488  -19.7023   18.3483 H   0  0  0  0  0  0
  -28.1428  -19.7962   22.0857 H   0  0  0  0  0  0
  -29.2099  -25.2433   17.9047 H   0  0  0  0  0  0
  -29.9983  -23.5794   17.8069 H   0  0  0  0  0  0
  -27.6280  -23.1399   22.4121 H   0  0  0  0  0  0
  -28.8526  -23.5927   23.5744 H   0  0  0  0  0  0
  -29.5876  -25.4830   22.1267 H   0  0  0  0  0  0
  -27.9069  -25.6313   22.5696 H   0  0  0  0  0  0
  -29.7503  -21.7664   22.1946 H   0  0  0  0  0  0
  -30.6478  -23.2198   21.8949 H   0  0  0  0  0  0
  -27.1842  -24.7693   20.4294 H   0  0  0  0  0  0
  -30.9304  -17.7190   17.3950 H   0  0  0  0  0  0
  -30.3968  -16.1831   18.0445 H   0  0  0  0  0  0
  -31.9386  -16.8855   18.5697 H   0  0  0  0  0  0
  -27.6301  -21.5285   20.2535 H   0  0  0  0  0  0
  -28.5391  -21.4955   18.7845 H   0  0  0  0  0  0
  -28.9694  -15.3411   21.3303 H   0  0  0  0  0  0
  -30.3238  -22.4800   19.9417 H   0  0  0  0  0  0
  1 25  1  0  0  0
  1 30  2  0  0  0
  1 85  1  0  0  0
  2  3  1  0  0  0
  2 25  1  0  0  0
  2 88  1  0  0  0
  2 89  1  0  0  0
  3  4  1  0  0  0
  3 90  1  0  0  0
  3 91  1  0  0  0
  4  5  1  0  0  0
  4 92  1  0  0  0
  4 93  1  0  0  0
  5  6  1  0  0  0
  5 26  1  0  0  0
  5 94  1  0  0  0
  6 25  1  0  0  0
  6 95  1  0  0  0
  6 96  1  0  0  0
  7  8  2  0  0  0
  7 26  1  0  0  0
  7 29  1  0  0  0
  8  9  1  0  0  0
  8 22  1  0  0  0
  9 10  1  0  0  0
  9 27  2  0  0  0
 10 11  2  0  0  0
 10 15  1  0  0  0
 11 12  1  0  0  0
 11 97  1  0  0  0
 12 13  2  0  0  0
 12 98  1  0  0  0
 13 14  1  0  0  0
 13 31  1  0  0  0
 14 15  2  0  0  0
 14 99  1  0  0  0
 15100  1  0  0  0
 16 17  2  0  0  0
 16 21  1  0  0  0
 16 31  1  0  0  0
 17 18  1  0  0  0
 17101  1  0  0  0
 18 19  2  0  0  0
 18102  1  0  0  0
 19 20  1  0  0  0
 19 24  1  0  0  0
 20 21  2  0  0  0
 20103  1  0  0  0
 21 23  1  0  0  0
 22 28  1  0  0  0
 22 32  2  0  0  0
 26 27  1  0  0  0
 28104  1  0  0  0
 28105  1  0  0  0
 29106  1  0  0  0
 29107  1  0  0  0
 33 34  1  0  0  0
 33 66  1  0  0  0
 33 70  2  0  0  0
 34 36  1  0  0  0
 34 59  1  0  0  0
 34108  1  0  0  0
 35 44  2  0  0  0
 35 45  1  0  0  0
 35 68  1  0  0  0
 36 56  1  0  0  0
 36109  1  0  0  0
 37 39  1  0  0  0
 37 47  1  0  0  0
 37 66  1  0  0  0
 37110  1  0  0  0
 38 43  2  0  0  0
 38 46  1  0  0  0
 38 47  1  0  0  0
 39 64  1  0  0  0
 39 67  2  0  0  0
 40 52  1  0  0  0
 40 53  2  0  0  0
 40 58  1  0  0  0
 41111  1  0  0  0
 41112  1  0  0  0
 41113  1  0  0  0
 41 48  1  0  0  0
 42 43  1  0  0  0
 42 66  1  0  0  0
 42114  1  0  0  0
 42115  1  0  0  0
 43 44  1  0  0  0
 44116  1  0  0  0
 45 46  2  0  0  0
 45117  1  0  0  0
 46118  1  0  0  0
 47119  1  0  0  0
 47120  1  0  0  0
 48 56  1  0  0  0
 48 65  1  0  0  0
 48121  1  0  0  0
 49 50  1  0  0  0
 49 53  1  0  0  0
 49 64  1  0  0  0
 49122  1  0  0  0
 50 51  1  0  0  0
 50123  1  0  0  0
 50124  1  0  0  0
 51 52  1  0  0  0
 51125  1  0  0  0
 51126  1  0  0  0
 52127  1  0  0  0
 52128  1  0  0  0
 53 54  1  0  0  0
 54 55  2  0  0  0
 54129  1  0  0  0
 55 57  1  0  0  0
 55130  1  0  0  0
 56 69  2  0  0  0
 57 58  2  0  0  0
 57131  1  0  0  0
 58132  1  0  0  0
 59 60  1  0  0  0
 59 61  1  0  0  0
 59 62  1  0  0  0
 60133  1  0  0  0
 60134  1  0  0  0
 60135  1  0  0  0
 61136  1  0  0  0
 61137  1  0  0  0
 61138  1  0  0  0
 62139  1  0  0  0
 62140  1  0  0  0
 62141  1  0  0  0
 63 65  1  0  0  0
 63142  1  0  0  0
 63143  1  0  0  0
 63144  1  0  0  0
 64145  1  0  0  0
 65146  1  0  0  0
 68 82  1  0  0  0
 71 73  2  0  0  0
 71 74  1  0  0  0
 71147  1  0  0  0
 72 73  1  0  0  0
 72 76  2  0  0  0
 72148  1  0  0  0
 73 84  1  0  0  0
 74 75  2  0  0  0
 74 83  1  0  0  0
 75 76  1  0  0  0
 75 85  1  0  0  0
 76 87  1  0  0  0
 77 78  2  0  0  0
 77 82  1  0  0  0
 77 86  1  0  0  0
 78149  1  0  0  0
 78150  1  0  0  0
 79 80  1  0  0  0
 79 81  1  0  0  0
 79151  1  0  0  0
 79152  1  0  0  0
 80 82  1  0  0  0
 80153  1  0  0  0
 80154  1  0  0  0
 81 86  1  0  0  0
 81155  1  0  0  0
 81156  1  0  0  0
 82157  1  0  0  0
 83158  1  0  0  0
 83159  1  0  0  0
 83160  1  0  0  0
 84161  1  0  0  0
 84162  1  0  0  0
 84 86  1  0  0  0
 85163  1  0  0  0
 86164  1  0  0  0
M  CHG  1  86   1
M  ISO  4   1 100  68 101  82 101  85 100
M  END
> <chiral flag>
0

> <version>
0

> <s_m_source_file>
/data/baiqing/PycharmProjects/Reinvent-master-3.2/result/LINK_invent/BTK/process_docking_weight1_custom_product_contain_oxygen_bond_distance_aromatic_linkinvent_7_9_3/rearranged_h_0041.sdf

> <i_m_source_file_index>
8

> <r_mmod_Potential_Energy-OPLS-2005>
-68.8994827270508

> <r_mmod_Stretch_Energy-OPLS-2005>
84.9585418701172

> <r_mmod_Bend_Energy-OPLS-2005>
160.576522827148

> <r_mmod_Torsional_Energy-OPLS-2005>
247.360473632812

> <r_mmod_Improper_Torsional_Energy-OPLS-2005>
5.46958923339844

> <r_mmod_Van_der_Waal_Energy-OPLS-2005>
138.581985473633

> <r_mmod_Electrostatic_Energy-OPLS-2005>
-309.753692626953

> <r_mmod_Solvation_Energy-OPLS-2005>
-440.461883544922

> <b_mmod_Minimization_Converged-OPLS-2005>
0

> <r_mmod_RMS_Derivative-OPLS-2005>
1.79635202884674

$$$$
8
                    3D
 Structure written by MMmdl.
177186  0  0  1  0            999 V2000
  -30.7026  -14.4473   20.6014 C   0  0  0  0  0  0
  -30.4238  -12.3010   19.4152 C   0  0  0  0  0  0
  -29.4924  -12.5130   18.2036 C   0  0  0  0  0  0
  -28.0140  -12.3729   18.6158 C   0  0  0  0  0  0
  -27.6634  -13.2048   19.8791 C   0  0  2  0  0  0
  -28.7018  -12.9628   20.9977 C   0  0  0  0  0  0
  -25.2591  -13.8168   20.5686 C   0  0  0  0  0  0
  -24.1835  -13.0437   20.9164 C   0  0  0  0  0  0
  -24.6392  -11.6904   20.8721 C   0  0  0  0  0  0
  -23.9064  -10.4288   21.0395 C   0  0  0  0  0  0
  -24.3616   -9.4203   21.9181 C   0  0  0  0  0  0
  -23.6288   -8.2243   22.0760 C   0  0  0  0  0  0
  -22.4267   -8.0279   21.3543 C   0  0  0  0  0  0
  -21.9903   -9.0249   20.4647 C   0  0  0  0  0  0
  -22.7244  -10.2127   20.3051 C   0  0  0  0  0  0
  -21.6856   -6.0732   22.5276 C   0  0  0  0  0  0
  -21.4015   -6.5641   23.8207 C   0  0  0  0  0  0
  -21.3655   -5.6791   24.9167 C   0  0  0  0  0  0
  -21.6043   -4.3049   24.7217 C   0  0  0  0  0  0
  -21.8821   -3.8144   23.4338 C   0  0  0  0  0  0
  -21.9194   -4.6961   22.3393 C   0  0  0  0  0  0
  -22.7855  -13.5235   21.1823 C   0  0  0  0  0  0
  -22.1655   -4.2149   21.0969 F   0  0  0  0  0  0
  -21.5632   -3.4542   25.7734 F   0  0  0  0  0  0
  -30.0388  -13.2687   20.4553 N   0  0  0  0  0  0
  -26.3034  -12.9326   20.3388 N   0  0  0  0  0  0
  -25.9320  -11.6489   20.5770 N   0  0  0  0  0  0
  -22.0501  -12.8225   22.0381 N   0  0  0  0  0  0
  -25.4340  -15.1889   20.4135 N   0  0  0  0  0  0
  -31.8043  -14.6589   20.0813 O   0  0  0  0  0  0
  -21.6639   -6.8877   21.4236 O   0  0  0  0  0  0
  -22.3531  -14.5543   20.6681 O   0  0  0  0  0  0
  -24.6127  -31.8697   23.2132 C   0  0  0  0  0  0
  -25.9037  -32.4832   23.8411 C   0  0  1  0  0  0
  -27.2274  -27.4445   20.1003 C   0  0  0  0  0  0
  -25.5911  -33.8631   24.2344 N   0  0  0  0  0  0
  -23.3988  -30.4938   21.5534 C   0  0  2  0  0  0
  -24.8425  -28.9572   20.1240 C   0  0  0  0  0  0
  -22.7393  -29.4671   22.5019 C   0  0  0  0  0  0
  -18.0263  -28.1366   22.8491 C   0  0  0  0  0  0
  -24.1483  -36.7301   23.2632 C   0  0  0  0  0  0
  -25.9269  -30.8374   21.3661 C   0  0  0  0  0  0
  -26.0028  -29.4717   20.7166 C   0  0  0  0  0  0
  -27.2006  -28.7224   20.7011 C   0  0  0  0  0  0
  -26.0530  -26.9433   19.5018 C   0  0  0  0  0  0
  -24.8604  -27.6898   19.5182 C   0  0  0  0  0  0
  -23.6052  -29.8241   20.1693 C   0  0  0  0  0  0
  -25.4106  -36.3112   24.0345 C   0  0  1  0  0  0
  -20.5854  -28.3640   23.1328 C   0  0  2  0  0  0
  -20.6766  -26.9381   22.5420 C   0  0  0  0  0  0
  -19.5744  -26.6369   21.5213 C   0  0  0  0  0  0
  -18.1909  -26.7923   22.1603 C   0  0  0  0  0  0
  -19.1514  -28.8819   23.2904 C   0  0  0  0  0  0
  -18.9449  -30.1434   23.8905 C   0  0  0  0  0  0
  -17.6453  -30.6579   24.0560 C   0  0  0  0  0  0
  -25.9036  -34.9484   23.5138 C   0  0  0  0  0  0
  -16.5341  -29.9076   23.6331 C   0  0  0  0  0  0
  -16.7256  -28.6493   23.0357 C   0  0  0  0  0  0
  -26.4486  -31.6607   25.0726 C   0  0  0  0  0  0
  -25.3777  -31.3715   26.1490 C   0  0  0  0  0  0
  -27.0296  -30.3037   24.6098 C   0  0  0  0  0  0
  -27.6062  -32.4326   25.7490 C   0  0  0  0  0  0
  -27.5593  -37.1790   24.8456 C   0  0  0  0  0  0
  -21.4123  -29.3028   22.3755 N   0  0  0  0  0  0
  -26.4287  -37.3800   23.9427 N   0  0  0  0  0  0
  -24.6640  -31.0818   22.1026 N   0  0  0  0  0  0
  -23.4178  -28.8212   23.3053 O   0  0  0  0  0  0
  -28.4038  -26.7374   20.0225 O   0  0  0  0  0  0
  -26.5591  -34.8942   22.4698 O   0  0  0  0  0  0
  -23.5328  -32.1447   23.7539 O   0  0  0  0  0  0
  -31.1642  -18.9056   20.4997 C   0  0  0  0  0  0
  -30.9083  -17.5260   20.3584 C   0  0  0  0  0  0
  -30.1469  -18.8696   22.7057 C   0  0  0  0  0  0
  -30.8075  -19.5882   21.6842 C   0  0  0  0  0  0
  -29.8850  -17.4863   22.5684 C   0  0  0  0  0  0
  -30.2978  -16.7915   21.4033 C   0  0  0  0  0  0
  -31.0009  -23.4178   21.1686 C   0  0  0  0  0  0
  -31.6945  -23.5278   20.0106 C   0  0  0  0  0  0
  -31.8558  -22.4864   19.0099 C   0  0  0  0  0  0
  -32.5856  -22.6402   17.8949 C   0  0  0  0  0  0
  -30.6742  -24.5690   22.1132 C   0  0  0  0  0  0
  -30.0247  -25.7690   21.3878 C   0  0  0  0  0  0
  -28.0144  -23.0362   21.0381 C   0  0  0  0  0  0
  -28.2473  -24.2877   20.1419 C   0  0  0  0  0  0
  -29.0479  -21.8789   20.9198 C   0  0  0  0  0  0
  -28.5627  -25.6135   20.8967 C   0  0  2  0  0  0
  -29.1927  -16.7496   23.7028 C   0  0  0  0  0  0
  -32.7228  -21.5765   16.8264 C   0  0  0  0  0  0
  -31.2648  -21.0366   21.9132 C   0  0  0  0  0  0
  -30.0411  -15.3884   21.3034 N   0  0  0  0  0  0
  -30.3211  -22.1678   21.6358 N   0  3  1  0  0  0
  -31.4670  -12.4065   19.1131 H   0  0  0  0  0  0
  -30.3304  -11.2836   19.7978 H   0  0  0  0  0  0
  -29.7300  -11.7947   17.4176 H   0  0  0  0  0  0
  -29.6610  -13.5021   17.7740 H   0  0  0  0  0  0
  -27.8226  -11.3159   18.8039 H   0  0  0  0  0  0
  -27.3631  -12.6543   17.7872 H   0  0  0  0  0  0
  -27.7154  -14.2573   19.5959 H   0  0  0  0  0  0
  -28.6725  -11.9217   21.3203 H   0  0  0  0  0  0
  -28.4541  -13.5408   21.8891 H   0  0  0  0  0  0
  -25.2767   -9.5686   22.4754 H   0  0  0  0  0  0
  -23.9995   -7.4645   22.7484 H   0  0  0  0  0  0
  -21.0834   -8.8770   19.8952 H   0  0  0  0  0  0
  -22.3703  -10.9663   19.6151 H   0  0  0  0  0  0
  -21.2003   -7.6147   23.9711 H   0  0  0  0  0  0
  -21.1476   -6.0520   25.9072 H   0  0  0  0  0  0
  -22.0604   -2.7610   23.2840 H   0  0  0  0  0  0
  -22.4105  -11.9872   22.4760 H   0  0  0  0  0  0
  -21.1122  -13.1253   22.2599 H   0  0  0  0  0  0
  -24.6749  -15.8494   20.5376 H   0  0  0  0  0  0
  -26.2965  -15.6297   20.1187 H   0  0  0  0  0  0
  -26.7102  -32.5537   23.1169 H   0  0  0  0  0  0
  -25.0133  -33.9816   25.0537 H   0  0  0  0  0  0
  -22.6852  -31.3084   21.4138 H   0  0  0  0  0  0
  -23.3790  -35.9584   23.3233 H   0  0  0  0  0  0
  -24.3581  -36.8975   22.2057 H   0  0  0  0  0  0
  -23.7188  -37.6466   23.6690 H   0  0  0  0  0  0
  -26.0400  -31.6045   20.5989 H   0  0  0  0  0  0
  -26.8157  -30.8879   21.9835 H   0  0  0  0  0  0
  -28.1038  -29.1238   21.1397 H   0  0  0  0  0  0
  -26.0506  -25.9922   18.9954 H   0  0  0  0  0  0
  -23.9687  -27.2895   19.0551 H   0  0  0  0  0  0
  -23.7113  -30.5973   19.4077 H   0  0  0  0  0  0
  -22.7291  -29.2424   19.8749 H   0  0  0  0  0  0
  -25.1285  -36.1966   25.0838 H   0  0  0  0  0  0
  -20.9928  -28.3189   24.1460 H   0  0  0  0  0  0
  -20.5640  -26.2258   23.3608 H   0  0  0  0  0  0
  -21.6638  -26.7406   22.1223 H   0  0  0  0  0  0
  -19.6898  -25.6277   21.1249 H   0  0  0  0  0  0
  -19.6712  -27.3187   20.6756 H   0  0  0  0  0  0
  -17.4200  -26.6709   21.3973 H   0  0  0  0  0  0
  -18.0252  -26.0035   22.8953 H   0  0  0  0  0  0
  -19.7927  -30.7251   24.2272 H   0  0  0  0  0  0
  -17.5006  -31.6268   24.5132 H   0  0  0  0  0  0
  -15.5345  -30.2988   23.7655 H   0  0  0  0  0  0
  -15.8645  -28.0819   22.7083 H   0  0  0  0  0  0
  -24.5929  -30.7078   25.7843 H   0  0  0  0  0  0
  -24.9022  -32.2886   26.4981 H   0  0  0  0  0  0
  -25.8156  -30.8854   27.0216 H   0  0  0  0  0  0
  -26.2816  -29.6788   24.1198 H   0  0  0  0  0  0
  -27.4101  -29.7280   25.4548 H   0  0  0  0  0  0
  -27.8648  -30.4341   23.9209 H   0  0  0  0  0  0
  -27.2684  -33.3628   26.2077 H   0  0  0  0  0  0
  -28.3886  -32.6881   25.0328 H   0  0  0  0  0  0
  -28.0711  -31.8443   26.5407 H   0  0  0  0  0  0
  -28.2579  -38.0122   24.7565 H   0  0  0  0  0  0
  -28.1132  -36.2663   24.6205 H   0  0  0  0  0  0
  -27.2316  -37.1323   25.8857 H   0  0  0  0  0  0
  -20.9273  -29.8773   21.7004 H   0  0  0  0  0  0
  -26.0173  -38.2865   24.1498 H   0  0  0  0  0  0
  -31.6814  -19.4208   19.7029 H   0  0  0  0  0  0
  -31.2037  -17.0382   19.4403 H   0  0  0  0  0  0
  -29.8752  -19.3750   23.6222 H   0  0  0  0  0  0
  -32.1131  -24.4965   19.7745 H   0  0  0  0  0  0
  -31.3553  -21.5411   19.1369 H   0  0  0  0  0  0
  -33.1063  -23.5703   17.7109 H   0  0  0  0  0  0
  -31.6093  -24.8953   22.5706 H   0  0  0  0  0  0
  -30.0367  -24.2507   22.9390 H   0  0  0  0  0  0
  -30.6560  -26.0601   20.5474 H   0  0  0  0  0  0
  -30.0536  -26.6298   22.0581 H   0  0  0  0  0  0
  -27.0478  -22.6193   20.7506 H   0  0  0  0  0  0
  -27.8787  -23.3237   22.0822 H   0  0  0  0  0  0
  -27.3242  -24.4253   19.5851 H   0  0  0  0  0  0
  -28.9895  -24.0958   19.3675 H   0  0  0  0  0  0
  -29.2261  -21.6320   19.8735 H   0  0  0  0  0  0
  -28.5910  -20.9957   21.3662 H   0  0  0  0  0  0
  -27.8867  -25.7100   21.7496 H   0  0  0  0  0  0
  -29.0034  -17.4080   24.5514 H   0  0  0  0  0  0
  -29.8090  -15.9222   24.0560 H   0  0  0  0  0  0
  -28.2343  -16.3499   23.3707 H   0  0  0  0  0  0
  -32.2720  -20.6334   17.1403 H   0  0  0  0  0  0
  -33.7733  -21.3965   16.5975 H   0  0  0  0  0  0
  -32.2257  -21.9027   15.9121 H   0  0  0  0  0  0
  -32.1911  -21.1726   21.3560 H   0  0  0  0  0  0
  -31.5751  -21.1358   22.9537 H   0  0  0  0  0  0
  -29.2291  -15.0532   21.7964 H   0  0  0  0  0  0
  -29.9936  -22.3642   22.5690 H   0  0  0  0  0  0
  1 25  1  0  0  0
  1 30  2  0  0  0
  1 90  1  0  0  0
  2  3  1  0  0  0
  2 25  1  0  0  0
  2 92  1  0  0  0
  2 93  1  0  0  0
  3  4  1  0  0  0
  3 94  1  0  0  0
  3 95  1  0  0  0
  4  5  1  0  0  0
  4 96  1  0  0  0
  4 97  1  0  0  0
  5  6  1  0  0  0
  5 26  1  0  0  0
  5 98  1  0  0  0
  6 25  1  0  0  0
  6 99  1  0  0  0
  6100  1  0  0  0
  7  8  2  0  0  0
  7 26  1  0  0  0
  7 29  1  0  0  0
  8  9  1  0  0  0
  8 22  1  0  0  0
  9 10  1  0  0  0
  9 27  2  0  0  0
 10 11  2  0  0  0
 10 15  1  0  0  0
 11 12  1  0  0  0
 11101  1  0  0  0
 12 13  2  0  0  0
 12102  1  0  0  0
 13 14  1  0  0  0
 13 31  1  0  0  0
 14 15  2  0  0  0
 14103  1  0  0  0
 15104  1  0  0  0
 16 17  2  0  0  0
 16 21  1  0  0  0
 16 31  1  0  0  0
 17 18  1  0  0  0
 17105  1  0  0  0
 18 19  2  0  0  0
 18106  1  0  0  0
 19 20  1  0  0  0
 19 24  1  0  0  0
 20 21  2  0  0  0
 20107  1  0  0  0
 21 23  1  0  0  0
 22 28  1  0  0  0
 22 32  2  0  0  0
 26 27  1  0  0  0
 28108  1  0  0  0
 28109  1  0  0  0
 29110  1  0  0  0
 29111  1  0  0  0
 33 34  1  0  0  0
 33 66  1  0  0  0
 33 70  2  0  0  0
 34 36  1  0  0  0
 34 59  1  0  0  0
 34112  1  0  0  0
 35 44  2  0  0  0
 35 45  1  0  0  0
 35 68  1  0  0  0
 36 56  1  0  0  0
 36113  1  0  0  0
 37 39  1  0  0  0
 37 47  1  0  0  0
 37 66  1  0  0  0
 37114  1  0  0  0
 38 43  2  0  0  0
 38 46  1  0  0  0
 38 47  1  0  0  0
 39 64  1  0  0  0
 39 67  2  0  0  0
 40 52  1  0  0  0
 40 53  2  0  0  0
 40 58  1  0  0  0
 41115  1  0  0  0
 41116  1  0  0  0
 41117  1  0  0  0
 41 48  1  0  0  0
 42 43  1  0  0  0
 42 66  1  0  0  0
 42118  1  0  0  0
 42119  1  0  0  0
 43 44  1  0  0  0
 44120  1  0  0  0
 45 46  2  0  0  0
 45121  1  0  0  0
 46122  1  0  0  0
 47123  1  0  0  0
 47124  1  0  0  0
 48 56  1  0  0  0
 48 65  1  0  0  0
 48125  1  0  0  0
 49 50  1  0  0  0
 49 53  1  0  0  0
 49 64  1  0  0  0
 49126  1  0  0  0
 50 51  1  0  0  0
 50127  1  0  0  0
 50128  1  0  0  0
 51 52  1  0  0  0
 51129  1  0  0  0
 51130  1  0  0  0
 52131  1  0  0  0
 52132  1  0  0  0
 53 54  1  0  0  0
 54 55  2  0  0  0
 54133  1  0  0  0
 55 57  1  0  0  0
 55134  1  0  0  0
 56 69  2  0  0  0
 57 58  2  0  0  0
 57135  1  0  0  0
 58136  1  0  0  0
 59 60  1  0  0  0
 59 61  1  0  0  0
 59 62  1  0  0  0
 60137  1  0  0  0
 60138  1  0  0  0
 60139  1  0  0  0
 61140  1  0  0  0
 61141  1  0  0  0
 61142  1  0  0  0
 62143  1  0  0  0
 62144  1  0  0  0
 62145  1  0  0  0
 63 65  1  0  0  0
 63146  1  0  0  0
 63147  1  0  0  0
 63148  1  0  0  0
 64149  1  0  0  0
 65150  1  0  0  0
 68 86  1  0  0  0
 71 72  2  0  0  0
 71 74  1  0  0  0
 71151  1  0  0  0
 72 76  1  0  0  0
 72152  1  0  0  0
 73 74  2  0  0  0
 73 75  1  0  0  0
 73153  1  0  0  0
 74 89  1  0  0  0
 75 76  2  0  0  0
 75 87  1  0  0  0
 76 90  1  0  0  0
 77 78  2  0  0  0
 77 81  1  0  0  0
 77 91  1  0  0  0
 78 79  1  0  0  0
 78154  1  0  0  0
 79 80  2  0  0  0
 79155  1  0  0  0
 80 88  1  0  0  0
 80156  1  0  0  0
 81 82  1  0  0  0
 81157  1  0  0  0
 81158  1  0  0  0
 82 86  1  0  0  0
 82159  1  0  0  0
 82160  1  0  0  0
 83 84  1  0  0  0
 83 85  1  0  0  0
 83161  1  0  0  0
 83162  1  0  0  0
 84 86  1  0  0  0
 84163  1  0  0  0
 84164  1  0  0  0
 85 91  1  0  0  0
 85165  1  0  0  0
 85166  1  0  0  0
 86167  1  0  0  0
 87168  1  0  0  0
 87169  1  0  0  0
 87170  1  0  0  0
 88171  1  0  0  0
 88172  1  0  0  0
 88173  1  0  0  0
 89174  1  0  0  0
 89175  1  0  0  0
 89 91  1  0  0  0
 90176  1  0  0  0
 91177  1  0  0  0
M  CHG  1  91   1
M  ISO  4   1 100  68 101  86 101  90 100
M  END
> <chiral flag>
0

> <version>
0

> <s_m_source_file>
/data/baiqing/PycharmProjects/Reinvent-master-3.2/result/LINK_invent/BTK/process_docking_weight1_custom_product_contain_oxygen_bond_distance_aromatic_linkinvent_7_9_3/rearranged_h_0041.sdf

> <i_m_source_file_index>
9

> <r_mmod_Potential_Energy-OPLS-2005>
-112.929344177246

> <r_mmod_Stretch_Energy-OPLS-2005>
41.474967956543

> <r_mmod_Bend_Energy-OPLS-2005>
130.613082885742

> <r_mmod_Torsional_Energy-OPLS-2005>
265.712982177734

> <r_mmod_Improper_Torsional_Energy-OPLS-2005>
3.13746213912964

> <r_mmod_Van_der_Waal_Energy-OPLS-2005>
156.68083190918

> <r_mmod_Electrostatic_Energy-OPLS-2005>
-292.927185058594

> <r_mmod_Solvation_Energy-OPLS-2005>
-426.726654052734

> <b_mmod_Minimization_Converged-OPLS-2005>
0

> <r_mmod_RMS_Derivative-OPLS-2005>
1.91226160526276

$$$$
9
                    3D
 Structure written by MMmdl.
177186  0  0  1  0            999 V2000
  -30.6345  -14.6132   20.4264 C   0  0  0  0  0  0
  -30.4529  -12.3196   19.4954 C   0  0  0  0  0  0
  -29.5154  -12.2329   18.2654 C   0  0  0  0  0  0
  -28.0178  -12.2903   18.6398 C   0  0  0  0  0  0
  -27.6530  -13.2042   19.8439 C   0  0  2  0  0  0
  -28.6944  -13.0897   20.9770 C   0  0  0  0  0  0
  -25.2570  -13.8176   20.5650 C   0  0  0  0  0  0
  -24.1826  -13.0459   20.9191 C   0  0  0  0  0  0
  -24.6367  -11.6926   20.8765 C   0  0  0  0  0  0
  -23.9038  -10.4299   21.0417 C   0  0  0  0  0  0
  -24.3590   -9.4212   21.9186 C   0  0  0  0  0  0
  -23.6291   -8.2231   22.0731 C   0  0  0  0  0  0
  -22.4282   -8.0257   21.3522 C   0  0  0  0  0  0
  -21.9912   -9.0235   20.4632 C   0  0  0  0  0  0
  -22.7224  -10.2131   20.3057 C   0  0  0  0  0  0
  -21.6852   -6.0726   22.5277 C   0  0  0  0  0  0
  -21.4013   -6.5624   23.8206 C   0  0  0  0  0  0
  -21.3670   -5.6770   24.9163 C   0  0  0  0  0  0
  -21.6056   -4.3034   24.7216 C   0  0  0  0  0  0
  -21.8821   -3.8134   23.4338 C   0  0  0  0  0  0
  -21.9191   -4.6953   22.3393 C   0  0  0  0  0  0
  -22.7842  -13.5266   21.1852 C   0  0  0  0  0  0
  -22.1654   -4.2136   21.0974 F   0  0  0  0  0  0
  -21.5647   -3.4532   25.7744 F   0  0  0  0  0  0
  -30.0079  -13.3970   20.4006 N   0  0  0  0  0  0
  -26.2986  -12.9339   20.3260 N   0  0  0  0  0  0
  -25.9294  -11.6521   20.5828 N   0  0  0  0  0  0
  -22.0462  -12.8249   22.0381 N   0  0  0  0  0  0
  -25.4335  -15.1885   20.4039 N   0  0  0  0  0  0
  -31.8279  -14.7319   20.1398 O   0  0  0  0  0  0
  -21.6629   -6.8872   21.4239 O   0  0  0  0  0  0
  -22.3536  -14.5563   20.6690 O   0  0  0  0  0  0
  -24.6177  -31.8652   23.2105 C   0  0  0  0  0  0
  -25.9053  -32.4817   23.8411 C   0  0  1  0  0  0
  -27.2360  -27.4040   20.1313 C   0  0  0  0  0  0
  -25.5888  -33.8616   24.2345 N   0  0  0  0  0  0
  -23.4095  -30.4892   21.5492 C   0  0  2  0  0  0
  -24.8637  -28.9596   20.1120 C   0  0  0  0  0  0
  -22.7435  -29.4635   22.4963 C   0  0  0  0  0  0
  -18.0272  -28.1358   22.8488 C   0  0  0  0  0  0
  -24.1483  -36.7307   23.2640 C   0  0  0  0  0  0
  -25.9429  -30.8276   21.3690 C   0  0  0  0  0  0
  -26.0246  -29.4618   20.7134 C   0  0  0  0  0  0
  -27.2175  -28.6954   20.7147 C   0  0  0  0  0  0
  -26.0583  -26.9295   19.5116 C   0  0  0  0  0  0
  -24.8783  -27.6956   19.5014 C   0  0  0  0  0  0
  -23.6248  -29.8270   20.1628 C   0  0  0  0  0  0
  -25.4106  -36.3120   24.0345 C   0  0  1  0  0  0
  -20.5867  -28.3648   23.1305 C   0  0  2  0  0  0
  -20.6765  -26.9381   22.5408 C   0  0  0  0  0  0
  -19.5753  -26.6378   21.5196 C   0  0  0  0  0  0
  -18.1928  -26.7905   22.1610 C   0  0  0  0  0  0
  -19.1520  -28.8819   23.2890 C   0  0  0  0  0  0
  -18.9451  -30.1425   23.8895 C   0  0  0  0  0  0
  -17.6456  -30.6574   24.0544 C   0  0  0  0  0  0
  -25.9029  -34.9478   23.5148 C   0  0  0  0  0  0
  -16.5341  -29.9067   23.6327 C   0  0  0  0  0  0
  -16.7260  -28.6478   23.0357 C   0  0  0  0  0  0
  -26.4481  -31.6577   25.0728 C   0  0  0  0  0  0
  -25.3737  -31.3639   26.1455 C   0  0  0  0  0  0
  -27.0322  -30.3029   24.6093 C   0  0  0  0  0  0
  -27.6057  -32.4275   25.7506 C   0  0  0  0  0  0
  -27.5582  -37.1818   24.8467 C   0  0  0  0  0  0
  -21.4154  -29.3018   22.3712 N   0  0  0  0  0  0
  -26.4294  -37.3807   23.9413 N   0  0  0  0  0  0
  -24.6745  -31.0750   22.1010 N   0  0  0  0  0  0
  -23.4196  -28.8172   23.3006 O   0  0  0  0  0  0
  -28.3484  -26.5801   20.1959 O   0  0  0  0  0  0
  -26.5597  -34.8919   22.4713 O   0  0  0  0  0  0
  -23.5359  -32.1400   23.7476 O   0  0  0  0  0  0
  -29.2929  -18.1494   20.1787 C   0  0  0  0  0  0
  -28.9547  -19.2691   19.3408 C   0  0  0  0  0  0
  -29.0838  -19.0809   17.9355 C   0  0  0  0  0  0
  -29.6852  -17.9192   17.4091 C   0  0  0  0  0  0
  -29.9098  -16.8022   18.2413 C   0  0  0  0  0  0
  -29.7318  -16.8859   19.6571 C   0  0  0  0  0  0
  -28.5044  -23.2358   19.9383 C   0  0  0  0  0  0
  -26.8757  -23.3686   16.6439 C   0  0  0  0  0  0
  -27.9202  -23.7178   18.8222 C   0  0  0  0  0  0
  -27.8539  -23.1126   17.5254 C   0  0  0  0  0  0
  -31.2070  -22.8682   20.9105 C   0  0  0  0  0  0
  -30.5185  -24.2674   20.9321 C   0  0  0  0  0  0
  -30.5526  -21.8339   19.9499 C   0  0  0  0  0  0
  -28.9792  -24.1664   21.0591 C   0  0  1  0  0  0
  -28.4590  -20.0201   16.9184 C   0  0  0  0  0  0
  -29.9968  -17.8369   15.9101 C   0  0  0  0  0  0
  -30.1423  -15.4747   17.5549 C   0  0  0  0  0  0
  -28.2958  -20.5732   19.9286 C   0  0  0  0  0  0
  -28.2214  -25.5460   21.2119 C   0  0  0  0  0  0
  -29.8198  -15.7099   20.5297 N   0  0  0  0  0  0
  -29.0930  -21.8399   20.1773 N   0  3  2  0  0  0
  -31.4840  -12.4514   19.1617 H   0  0  0  0  0  0
  -30.4392  -11.3733   20.0379 H   0  0  0  0  0  0
  -29.6964  -11.2704   17.7843 H   0  0  0  0  0  0
  -29.7835  -12.9226   17.4762 H   0  0  0  0  0  0
  -27.7359  -11.2630   18.8717 H   0  0  0  0  0  0
  -27.4208  -12.5633   17.7698 H   0  0  0  0  0  0
  -27.6662  -14.2292   19.4722 H   0  0  0  0  0  0
  -28.6936  -12.0841   21.3994 H   0  0  0  0  0  0
  -28.4516  -13.7635   21.8001 H   0  0  0  0  0  0
  -25.2718   -9.5706   22.4776 H   0  0  0  0  0  0
  -24.0013   -7.4618   22.7434 H   0  0  0  0  0  0
  -21.0851   -8.8754   19.8932 H   0  0  0  0  0  0
  -22.3667  -10.9665   19.6173 H   0  0  0  0  0  0
  -21.1989   -7.6132   23.9719 H   0  0  0  0  0  0
  -21.1508   -6.0482   25.9066 H   0  0  0  0  0  0
  -22.0600   -2.7601   23.2820 H   0  0  0  0  0  0
  -22.4055  -11.9914   22.4789 H   0  0  0  0  0  0
  -21.1073  -13.1276   22.2569 H   0  0  0  0  0  0
  -24.6684  -15.8471   20.5013 H   0  0  0  0  0  0
  -26.2914  -15.6198   20.0837 H   0  0  0  0  0  0
  -26.7126  -32.5539   23.1175 H   0  0  0  0  0  0
  -25.0020  -33.9776   25.0479 H   0  0  0  0  0  0
  -22.6973  -31.3055   21.4122 H   0  0  0  0  0  0
  -23.3761  -35.9624   23.3309 H   0  0  0  0  0  0
  -24.3579  -36.8909   22.2053 H   0  0  0  0  0  0
  -23.7212  -37.6504   23.6645 H   0  0  0  0  0  0
  -26.0594  -31.5984   20.6062 H   0  0  0  0  0  0
  -26.8294  -30.8779   21.9900 H   0  0  0  0  0  0
  -28.1090  -29.0783   21.1916 H   0  0  0  0  0  0
  -26.0253  -25.9530   19.0567 H   0  0  0  0  0  0
  -23.9876  -27.3010   19.0336 H   0  0  0  0  0  0
  -23.7328  -30.6062   19.4074 H   0  0  0  0  0  0
  -22.7526  -29.2449   19.8628 H   0  0  0  0  0  0
  -25.1279  -36.1995   25.0838 H   0  0  0  0  0  0
  -20.9940  -28.3203   24.1432 H   0  0  0  0  0  0
  -20.5658  -26.2241   23.3585 H   0  0  0  0  0  0
  -21.6638  -26.7418   22.1206 H   0  0  0  0  0  0
  -19.6911  -25.6294   21.1216 H   0  0  0  0  0  0
  -19.6709  -27.3193   20.6730 H   0  0  0  0  0  0
  -17.4201  -26.6641   21.4010 H   0  0  0  0  0  0
  -18.0333  -26.0037   22.9000 H   0  0  0  0  0  0
  -19.7928  -30.7230   24.2271 H   0  0  0  0  0  0
  -17.5019  -31.6261   24.5128 H   0  0  0  0  0  0
  -15.5345  -30.2968   23.7663 H   0  0  0  0  0  0
  -15.8656  -28.0800   22.7085 H   0  0  0  0  0  0
  -24.5929  -30.6986   25.7753 H   0  0  0  0  0  0
  -24.8911  -32.2771   26.4943 H   0  0  0  0  0  0
  -25.8081  -30.8761   27.0190 H   0  0  0  0  0  0
  -26.2870  -29.6791   24.1147 H   0  0  0  0  0  0
  -27.4108  -29.7254   25.4538 H   0  0  0  0  0  0
  -27.8702  -30.4375   23.9248 H   0  0  0  0  0  0
  -27.2695  -33.3572   26.2115 H   0  0  0  0  0  0
  -28.3866  -32.6823   25.0325 H   0  0  0  0  0  0
  -28.0728  -31.8363   26.5397 H   0  0  0  0  0  0
  -28.2592  -38.0125   24.7527 H   0  0  0  0  0  0
  -28.1086  -36.2654   24.6279 H   0  0  0  0  0  0
  -27.2298  -37.1435   25.8868 H   0  0  0  0  0  0
  -20.9305  -29.8744   21.6946 H   0  0  0  0  0  0
  -26.0187  -38.2891   24.1405 H   0  0  0  0  0  0
  -29.1259  -18.2302   21.2436 H   0  0  0  0  0  0
  -26.8835  -22.9199   15.6607 H   0  0  0  0  0  0
  -26.0533  -24.0283   16.8847 H   0  0  0  0  0  0
  -27.6951  -24.7669   18.8076 H   0  0  0  0  0  0
  -28.6757  -22.4890   17.2363 H   0  0  0  0  0  0
  -31.1936  -22.4590   21.9226 H   0  0  0  0  0  0
  -32.2628  -22.9769   20.6595 H   0  0  0  0  0  0
  -30.7619  -24.8045   20.0131 H   0  0  0  0  0  0
  -30.9267  -24.8635   21.7495 H   0  0  0  0  0  0
  -30.9765  -20.8478   20.1407 H   0  0  0  0  0  0
  -30.7606  -22.0717   18.9061 H   0  0  0  0  0  0
  -28.7710  -23.6408   21.9939 H   0  0  0  0  0  0
  -27.6156  -20.5765   17.3088 H   0  0  0  0  0  0
  -28.0131  -19.4543   16.1006 H   0  0  0  0  0  0
  -29.2138  -20.6690   16.4779 H   0  0  0  0  0  0
  -30.2307  -18.8087   15.4753 H   0  0  0  0  0  0
  -29.1561  -17.4063   15.3635 H   0  0  0  0  0  0
  -30.8818  -17.2312   15.7203 H   0  0  0  0  0  0
  -29.8618  -15.4267   16.5040 H   0  0  0  0  0  0
  -29.4387  -14.8125   18.0352 H   0  0  0  0  0  0
  -31.1670  -15.1202   17.6578 H   0  0  0  0  0  0
  -27.9086  -20.3014   20.9108 H   0  0  0  0  0  0
  -27.3907  -20.8253   19.3806 H   0  0  0  0  0  0
  -28.5455  -26.0044   22.1469 H   0  0  0  0  0  0
  -27.1682  -25.3073   21.3748 H   0  0  0  0  0  0
  -28.9883  -15.5439   21.0773 H   0  0  0  0  0  0
  -29.0987  -21.7667   21.1825 H   0  0  0  0  0  0
  1 25  1  0  0  0
  1 30  2  0  0  0
  1 90  1  0  0  0
  2  3  1  0  0  0
  2 25  1  0  0  0
  2 92  1  0  0  0
  2 93  1  0  0  0
  3  4  1  0  0  0
  3 94  1  0  0  0
  3 95  1  0  0  0
  4  5  1  0  0  0
  4 96  1  0  0  0
  4 97  1  0  0  0
  5  6  1  0  0  0
  5 26  1  0  0  0
  5 98  1  0  0  0
  6 25  1  0  0  0
  6 99  1  0  0  0
  6100  1  0  0  0
  7  8  2  0  0  0
  7 26  1  0  0  0
  7 29  1  0  0  0
  8  9  1  0  0  0
  8 22  1  0  0  0
  9 10  1  0  0  0
  9 27  2  0  0  0
 10 11  2  0  0  0
 10 15  1  0  0  0
 11 12  1  0  0  0
 11101  1  0  0  0
 12 13  2  0  0  0
 12102  1  0  0  0
 13 14  1  0  0  0
 13 31  1  0  0  0
 14 15  2  0  0  0
 14103  1  0  0  0
 15104  1  0  0  0
 16 17  2  0  0  0
 16 21  1  0  0  0
 16 31  1  0  0  0
 17 18  1  0  0  0
 17105  1  0  0  0
 18 19  2  0  0  0
 18106  1  0  0  0
 19 20  1  0  0  0
 19 24  1  0  0  0
 20 21  2  0  0  0
 20107  1  0  0  0
 21 23  1  0  0  0
 22 28  1  0  0  0
 22 32  2  0  0  0
 26 27  1  0  0  0
 28108  1  0  0  0
 28109  1  0  0  0
 29110  1  0  0  0
 29111  1  0  0  0
 33 34  1  0  0  0
 33 66  1  0  0  0
 33 70  2  0  0  0
 34 36  1  0  0  0
 34 59  1  0  0  0
 34112  1  0  0  0
 35 44  2  0  0  0
 35 45  1  0  0  0
 35 68  1  0  0  0
 36 56  1  0  0  0
 36113  1  0  0  0
 37 39  1  0  0  0
 37 47  1  0  0  0
 37 66  1  0  0  0
 37114  1  0  0  0
 38 43  2  0  0  0
 38 46  1  0  0  0
 38 47  1  0  0  0
 39 64  1  0  0  0
 39 67  2  0  0  0
 40 52  1  0  0  0
 40 53  2  0  0  0
 40 58  1  0  0  0
 41115  1  0  0  0
 41116  1  0  0  0
 41117  1  0  0  0
 41 48  1  0  0  0
 42 43  1  0  0  0
 42 66  1  0  0  0
 42118  1  0  0  0
 42119  1  0  0  0
 43 44  1  0  0  0
 44120  1  0  0  0
 45 46  2  0  0  0
 45121  1  0  0  0
 46122  1  0  0  0
 47123  1  0  0  0
 47124  1  0  0  0
 48 56  1  0  0  0
 48 65  1  0  0  0
 48125  1  0  0  0
 49 50  1  0  0  0
 49 53  1  0  0  0
 49 64  1  0  0  0
 49126  1  0  0  0
 50 51  1  0  0  0
 50127  1  0  0  0
 50128  1  0  0  0
 51 52  1  0  0  0
 51129  1  0  0  0
 51130  1  0  0  0
 52131  1  0  0  0
 52132  1  0  0  0
 53 54  1  0  0  0
 54 55  2  0  0  0
 54133  1  0  0  0
 55 57  1  0  0  0
 55134  1  0  0  0
 56 69  2  0  0  0
 57 58  2  0  0  0
 57135  1  0  0  0
 58136  1  0  0  0
 59 60  1  0  0  0
 59 61  1  0  0  0
 59 62  1  0  0  0
 60137  1  0  0  0
 60138  1  0  0  0
 60139  1  0  0  0
 61140  1  0  0  0
 61141  1  0  0  0
 61142  1  0  0  0
 62143  1  0  0  0
 62144  1  0  0  0
 62145  1  0  0  0
 63 65  1  0  0  0
 63146  1  0  0  0
 63147  1  0  0  0
 63148  1  0  0  0
 64149  1  0  0  0
 65150  1  0  0  0
 68 89  1  0  0  0
 71 72  2  0  0  0
 71 76  1  0  0  0
 71151  1  0  0  0
 72 73  1  0  0  0
 72 88  1  0  0  0
 73 74  2  0  0  0
 73 85  1  0  0  0
 74 75  1  0  0  0
 74 86  1  0  0  0
 75 76  2  0  0  0
 75 87  1  0  0  0
 76 90  1  0  0  0
 77 79  2  0  0  0
 77 84  1  0  0  0
 77 91  1  0  0  0
 78 80  2  0  0  0
 78152  1  0  0  0
 78153  1  0  0  0
 79 80  1  0  0  0
 79154  1  0  0  0
 80155  1  0  0  0
 81 82  1  0  0  0
 81 83  1  0  0  0
 81156  1  0  0  0
 81157  1  0  0  0
 82 84  1  0  0  0
 82158  1  0  0  0
 82159  1  0  0  0
 83 91  1  0  0  0
 83160  1  0  0  0
 83161  1  0  0  0
 84 89  1  0  0  0
 84162  1  0  0  0
 85163  1  0  0  0
 85164  1  0  0  0
 85165  1  0  0  0
 86166  1  0  0  0
 86167  1  0  0  0
 86168  1  0  0  0
 87169  1  0  0  0
 87170  1  0  0  0
 87171  1  0  0  0
 88172  1  0  0  0
 88173  1  0  0  0
 88 91  1  0  0  0
 89174  1  0  0  0
 89175  1  0  0  0
 90176  1  0  0  0
 91177  1  0  0  0
M  CHG  1  91   1
M  ISO  4   1 100  68 101  89 101  90 100
M  END
> <chiral flag>
0

> <version>
0

> <s_m_source_file>
/data/baiqing/PycharmProjects/Reinvent-master-3.2/result/LINK_invent/BTK/process_docking_weight1_custom_product_contain_oxygen_bond_distance_aromatic_linkinvent_7_9_3/rearranged_h_0041.sdf

> <i_m_source_file_index>
10

> <r_mmod_Potential_Energy-OPLS-2005>
107.203163146973

> <r_mmod_Stretch_Energy-OPLS-2005>
73.1007766723633

> <r_mmod_Bend_Energy-OPLS-2005>
184.278732299805

> <r_mmod_Torsional_Energy-OPLS-2005>
343.284210205078

> <r_mmod_Improper_Torsional_Energy-OPLS-2005>
11.7944850921631

> <r_mmod_Van_der_Waal_Energy-OPLS-2005>
184.573043823242

> <r_mmod_Electrostatic_Energy-OPLS-2005>
-311.809936523438

> <r_mmod_Solvation_Energy-OPLS-2005>
-425.942840576172

> <b_mmod_Minimization_Converged-OPLS-2005>
0

> <r_mmod_RMS_Derivative-OPLS-2005>
2.516597032547

$$$$
10
                    3D
 Structure written by MMmdl.
162170  0  0  1  0            999 V2000
  -30.6838  -14.5223   20.4765 C   0  0  0  0  0  0
  -30.4168  -12.3131   19.4161 C   0  0  0  0  0  0
  -29.4941  -12.4875   18.1921 C   0  0  0  0  0  0
  -28.0115  -12.3512   18.6042 C   0  0  0  0  0  0
  -27.6522  -13.2045   19.8493 C   0  0  2  0  0  0
  -28.7036  -13.0355   20.9684 C   0  0  0  0  0  0
  -25.2574  -13.8158   20.5652 C   0  0  0  0  0  0
  -24.1843  -13.0414   20.9161 C   0  0  0  0  0  0
  -24.6379  -11.6901   20.8684 C   0  0  0  0  0  0
  -23.9000  -10.4310   21.0373 C   0  0  0  0  0  0
  -24.3607   -9.4241   21.9191 C   0  0  0  0  0  0
  -23.6300   -8.2252   22.0728 C   0  0  0  0  0  0
  -22.4283   -8.0274   21.3557 C   0  0  0  0  0  0
  -21.9873   -9.0216   20.4639 C   0  0  0  0  0  0
  -22.7143  -10.2130   20.3033 C   0  0  0  0  0  0
  -21.6886   -6.0700   22.5318 C   0  0  0  0  0  0
  -21.4004   -6.5602   23.8233 C   0  0  0  0  0  0
  -21.3674   -5.6746   24.9215 C   0  0  0  0  0  0
  -21.6059   -4.3030   24.7274 C   0  0  0  0  0  0
  -21.8819   -3.8118   23.4397 C   0  0  0  0  0  0
  -21.9182   -4.6948   22.3439 C   0  0  0  0  0  0
  -22.7873  -13.5197   21.1891 C   0  0  0  0  0  0
  -22.1638   -4.2109   21.1050 F   0  0  0  0  0  0
  -21.5666   -3.4505   25.7810 F   0  0  0  0  0  0
  -30.0224  -13.3402   20.3923 N   0  0  0  0  0  0
  -26.3009  -12.9316   20.3237 N   0  0  0  0  0  0
  -25.9320  -11.6490   20.5676 N   0  0  0  0  0  0
  -22.0523  -12.8207   22.0457 N   0  0  0  0  0  0
  -25.4238  -15.1914   20.4052 N   0  0  0  0  0  0
  -31.8697  -14.6533   20.1546 O   0  0  0  0  0  0
  -21.6668   -6.8862   21.4239 O   0  0  0  0  0  0
  -22.3545  -14.5490   20.6717 O   0  0  0  0  0  0
  -24.6012  -31.8662   23.2147 C   0  0  0  0  0  0
  -25.8860  -32.4832   23.8451 C   0  0  1  0  0  0
  -27.2291  -27.3990   20.1146 C   0  0  0  0  0  0
  -25.5769  -33.8643   24.2335 N   0  0  0  0  0  0
  -23.3981  -30.4765   21.5637 C   0  0  2  0  0  0
  -24.8503  -28.9398   20.1374 C   0  0  0  0  0  0
  -22.7380  -29.4538   22.5159 C   0  0  0  0  0  0
  -18.0248  -28.1305   22.8509 C   0  0  0  0  0  0
  -24.1497  -36.7251   23.2649 C   0  0  0  0  0  0
  -25.9303  -30.8192   21.3905 C   0  0  0  0  0  0
  -26.0049  -29.4480   20.7409 C   0  0  0  0  0  0
  -27.1919  -28.6716   20.7455 C   0  0  0  0  0  0
  -26.0580  -26.9360   19.4729 C   0  0  0  0  0  0
  -24.8707  -27.6881   19.5066 C   0  0  0  0  0  0
  -23.6057  -29.7933   20.1851 C   0  0  0  0  0  0
  -25.4130  -36.3119   24.0363 C   0  0  1  0  0  0
  -20.5805  -28.3547   23.1401 C   0  0  2  0  0  0
  -20.6715  -26.9290   22.5465 C   0  0  0  0  0  0
  -19.5699  -26.6318   21.5233 C   0  0  0  0  0  0
  -18.1869  -26.7856   22.1636 C   0  0  0  0  0  0
  -19.1482  -28.8765   23.2933 C   0  0  0  0  0  0
  -18.9408  -30.1389   23.8899 C   0  0  0  0  0  0
  -17.6398  -30.6554   24.0474 C   0  0  0  0  0  0
  -25.9018  -34.9486   23.5143 C   0  0  0  0  0  0
  -16.5296  -29.9011   23.6320 C   0  0  0  0  0  0
  -16.7222  -28.6412   23.0394 C   0  0  0  0  0  0
  -26.4332  -31.6659   25.0786 C   0  0  0  0  0  0
  -25.3625  -31.3693   26.1573 C   0  0  0  0  0  0
  -27.0102  -30.3100   24.6132 C   0  0  0  0  0  0
  -27.5943  -32.4416   25.7456 C   0  0  0  0  0  0
  -27.5593  -37.1798   24.8471 C   0  0  0  0  0  0
  -21.4129  -29.2901   22.3890 N   0  0  0  0  0  0
  -26.4303  -37.3807   23.9420 N   0  0  0  0  0  0
  -24.6604  -31.0735   22.1092 N   0  0  0  0  0  0
  -23.4166  -28.8100   23.3217 O   0  0  0  0  0  0
  -28.4083  -26.6672   20.1723 O   0  0  0  0  0  0
  -26.5625  -34.8919   22.4753 O   0  0  0  0  0  0
  -23.5219  -32.1422   23.7516 O   0  0  0  0  0  0
  -29.6164  -19.3849   20.3651 C   0  0  0  0  0  0
  -29.6396  -19.0549   17.6123 C   0  0  0  0  0  0
  -29.3179  -20.5101   19.5429 C   0  0  0  0  0  0
  -29.9292  -18.0954   19.8511 C   0  0  0  0  0  0
  -29.3721  -20.3353   18.1290 C   0  0  0  0  0  0
  -29.8951  -17.9374   18.4384 C   0  0  0  0  0  0
  -28.9005  -21.7791   20.2089 C   0  0  0  0  0  0
  -29.1106  -21.4477   17.1195 C   0  0  0  0  0  0
  -30.1532  -16.6173   17.7397 C   0  0  0  0  0  0
  -30.3743  -16.9990   20.8565 C   0  0  0  0  0  0
  -29.1111  -24.3095   20.5041 C   0  0  0  0  0  0
  -28.5720  -25.3809   19.5318 C   0  0  0  0  0  0
  -28.0291  -21.7122   21.2403 N   0  0  0  0  0  0
  -29.9118  -15.6082   20.7184 N   0  0  0  0  0  0
  -29.3613  -22.9985   19.8295 N   0  3  0  0  0  0
  -31.4681  -12.3950   19.1289 H   0  0  0  0  0  0
  -30.3045  -11.3161   19.8491 H   0  0  0  0  0  0
  -29.7403  -11.7407   17.4332 H   0  0  0  0  0  0
  -29.6617  -13.4560   17.7296 H   0  0  0  0  0  0
  -27.8129  -11.2967   18.8002 H   0  0  0  0  0  0
  -27.3674  -12.6222   17.7681 H   0  0  0  0  0  0
  -27.6596  -14.2424   19.5178 H   0  0  0  0  0  0
  -28.7077  -12.0116   21.3403 H   0  0  0  0  0  0
  -28.4867  -13.6644   21.8346 H   0  0  0  0  0  0
  -25.2742   -9.5746   22.4755 H   0  0  0  0  0  0
  -24.0056   -7.4621   22.7396 H   0  0  0  0  0  0
  -21.0822   -8.8635   19.8925 H   0  0  0  0  0  0
  -22.3539  -10.9645   19.6134 H   0  0  0  0  0  0
  -21.1952   -7.6097   23.9714 H   0  0  0  0  0  0
  -21.1505   -6.0520   25.9109 H   0  0  0  0  0  0
  -22.0587   -2.7573   23.2939 H   0  0  0  0  0  0
  -22.4077  -11.9819   22.4825 H   0  0  0  0  0  0
  -21.1129  -13.1236   22.2678 H   0  0  0  0  0  0
  -24.6502  -15.8370   20.5245 H   0  0  0  0  0  0
  -26.2691  -15.6472   20.0867 H   0  0  0  0  0  0
  -26.6905  -32.5574   23.1216 H   0  0  0  0  0  0
  -24.9872  -33.9871   25.0438 H   0  0  0  0  0  0
  -22.6810  -31.2886   21.4157 H   0  0  0  0  0  0
  -23.3817  -35.9510   23.3323 H   0  0  0  0  0  0
  -24.3547  -36.8849   22.2044 H   0  0  0  0  0  0
  -23.7189  -37.6441   23.6648 H   0  0  0  0  0  0
  -26.0744  -31.5911   20.6355 H   0  0  0  0  0  0
  -26.7969  -30.8547   22.0323 H   0  0  0  0  0  0
  -28.0795  -29.0360   21.2504 H   0  0  0  0  0  0
  -26.0130  -26.0119   18.9270 H   0  0  0  0  0  0
  -23.9765  -27.2993   19.0424 H   0  0  0  0  0  0
  -23.7018  -30.5528   19.4094 H   0  0  0  0  0  0
  -22.7405  -29.1845   19.9038 H   0  0  0  0  0  0
  -25.1346  -36.1981   25.0864 H   0  0  0  0  0  0
  -20.9841  -28.3033   24.1521 H   0  0  0  0  0  0
  -20.5593  -26.2099   23.3615 H   0  0  0  0  0  0
  -21.6583  -26.7329   22.1228 H   0  0  0  0  0  0
  -19.6829  -25.6226   21.1231 H   0  0  0  0  0  0
  -19.6640  -27.3152   20.6779 H   0  0  0  0  0  0
  -17.4140  -26.6614   21.4029 H   0  0  0  0  0  0
  -18.0237  -25.9978   22.9018 H   0  0  0  0  0  0
  -19.7895  -30.7205   24.2250 H   0  0  0  0  0  0
  -17.4961  -31.6252   24.5033 H   0  0  0  0  0  0
  -15.5292  -30.2885   23.7680 H   0  0  0  0  0  0
  -15.8618  -28.0691   22.7171 H   0  0  0  0  0  0
  -24.5753  -30.7089   25.7914 H   0  0  0  0  0  0
  -24.8820  -32.2784   26.5212 H   0  0  0  0  0  0
  -25.8012  -30.8728   27.0241 H   0  0  0  0  0  0
  -26.2572  -29.7001   24.1094 H   0  0  0  0  0  0
  -27.3762  -29.7246   25.4587 H   0  0  0  0  0  0
  -27.8533  -30.4459   23.9334 H   0  0  0  0  0  0
  -27.2567  -33.3739   26.2025 H   0  0  0  0  0  0
  -28.3644  -32.6975   25.0152 H   0  0  0  0  0  0
  -28.0693  -31.8542   26.5336 H   0  0  0  0  0  0
  -28.2652  -38.0072   24.7567 H   0  0  0  0  0  0
  -28.1090  -36.2624   24.6295 H   0  0  0  0  0  0
  -27.2291  -37.1421   25.8870 H   0  0  0  0  0  0
  -20.9325  -29.8542   21.7028 H   0  0  0  0  0  0
  -26.0215  -38.2886   24.1473 H   0  0  0  0  0  0
  -29.6032  -19.5260   21.4364 H   0  0  0  0  0  0
  -29.6261  -18.8958   16.5413 H   0  0  0  0  0  0
  -29.0359  -21.0224   16.1150 H   0  0  0  0  0  0
  -29.9220  -22.1788   17.0926 H   0  0  0  0  0  0
  -28.1689  -21.9640   17.3132 H   0  0  0  0  0  0
  -29.8585  -16.6740   16.6903 H   0  0  0  0  0  0
  -29.5736  -15.8097   18.1747 H   0  0  0  0  0  0
  -31.2114  -16.3702   17.7830 H   0  0  0  0  0  0
  -30.0344  -17.2923   21.8489 H   0  0  0  0  0  0
  -31.4642  -17.0444   20.9132 H   0  0  0  0  0  0
  -28.4273  -24.2110   21.3493 H   0  0  0  0  0  0
  -30.0355  -24.6640   20.9606 H   0  0  0  0  0  0
  -27.7038  -24.9354   19.0466 H   0  0  0  0  0  0
  -29.3160  -25.5371   18.7520 H   0  0  0  0  0  0
  -27.5877  -20.8453   21.5271 H   0  0  0  0  0  0
  -27.6751  -22.5420   21.6812 H   0  0  0  0  0  0
  -28.9422  -15.4325   20.9260 H   0  0  0  0  0  0
  -29.9435  -23.0600   18.9981 H   0  0  0  0  0  0
  1 25  1  0  0  0
  1 30  2  0  0  0
  1 84  1  0  0  0
  2  3  1  0  0  0
  2 25  1  0  0  0
  2 86  1  0  0  0
  2 87  1  0  0  0
  3  4  1  0  0  0
  3 88  1  0  0  0
  3 89  1  0  0  0
  4  5  1  0  0  0
  4 90  1  0  0  0
  4 91  1  0  0  0
  5  6  1  0  0  0
  5 26  1  0  0  0
  5 92  1  0  0  0
  6 25  1  0  0  0
  6 93  1  0  0  0
  6 94  1  0  0  0
  7  8  2  0  0  0
  7 26  1  0  0  0
  7 29  1  0  0  0
  8  9  1  0  0  0
  8 22  1  0  0  0
  9 10  1  0  0  0
  9 27  2  0  0  0
 10 11  2  0  0  0
 10 15  1  0  0  0
 11 12  1  0  0  0
 11 95  1  0  0  0
 12 13  2  0  0  0
 12 96  1  0  0  0
 13 14  1  0  0  0
 13 31  1  0  0  0
 14 15  2  0  0  0
 14 97  1  0  0  0
 15 98  1  0  0  0
 16 17  2  0  0  0
 16 21  1  0  0  0
 16 31  1  0  0  0
 17 18  1  0  0  0
 17 99  1  0  0  0
 18 19  2  0  0  0
 18100  1  0  0  0
 19 20  1  0  0  0
 19 24  1  0  0  0
 20 21  2  0  0  0
 20101  1  0  0  0
 21 23  1  0  0  0
 22 28  1  0  0  0
 22 32  2  0  0  0
 26 27  1  0  0  0
 28102  1  0  0  0
 28103  1  0  0  0
 29104  1  0  0  0
 29105  1  0  0  0
 33 34  1  0  0  0
 33 66  1  0  0  0
 33 70  2  0  0  0
 34 36  1  0  0  0
 34 59  1  0  0  0
 34106  1  0  0  0
 35 44  2  0  0  0
 35 45  1  0  0  0
 35 68  1  0  0  0
 36 56  1  0  0  0
 36107  1  0  0  0
 37 39  1  0  0  0
 37 47  1  0  0  0
 37 66  1  0  0  0
 37108  1  0  0  0
 38 43  2  0  0  0
 38 46  1  0  0  0
 38 47  1  0  0  0
 39 64  1  0  0  0
 39 67  2  0  0  0
 40 52  1  0  0  0
 40 53  2  0  0  0
 40 58  1  0  0  0
 41109  1  0  0  0
 41110  1  0  0  0
 41111  1  0  0  0
 41 48  1  0  0  0
 42 43  1  0  0  0
 42 66  1  0  0  0
 42112  1  0  0  0
 42113  1  0  0  0
 43 44  1  0  0  0
 44114  1  0  0  0
 45 46  2  0  0  0
 45115  1  0  0  0
 46116  1  0  0  0
 47117  1  0  0  0
 47118  1  0  0  0
 48 56  1  0  0  0
 48 65  1  0  0  0
 48119  1  0  0  0
 49 50  1  0  0  0
 49 53  1  0  0  0
 49 64  1  0  0  0
 49120  1  0  0  0
 50 51  1  0  0  0
 50121  1  0  0  0
 50122  1  0  0  0
 51 52  1  0  0  0
 51123  1  0  0  0
 51124  1  0  0  0
 52125  1  0  0  0
 52126  1  0  0  0
 53 54  1  0  0  0
 54 55  2  0  0  0
 54127  1  0  0  0
 55 57  1  0  0  0
 55128  1  0  0  0
 56 69  2  0  0  0
 57 58  2  0  0  0
 57129  1  0  0  0
 58130  1  0  0  0
 59 60  1  0  0  0
 59 61  1  0  0  0
 59 62  1  0  0  0
 60131  1  0  0  0
 60132  1  0  0  0
 60133  1  0  0  0
 61134  1  0  0  0
 61135  1  0  0  0
 61136  1  0  0  0
 62137  1  0  0  0
 62138  1  0  0  0
 62139  1  0  0  0
 63 65  1  0  0  0
 63140  1  0  0  0
 63141  1  0  0  0
 63142  1  0  0  0
 64143  1  0  0  0
 65144  1  0  0  0
 68 82  1  0  0  0
 71 73  2  0  0  0
 71 74  1  0  0  0
 71145  1  0  0  0
 72 75  2  0  0  0
 72 76  1  0  0  0
 72146  1  0  0  0
 73 75  1  0  0  0
 73 77  1  0  0  0
 74 76  2  0  0  0
 74 80  1  0  0  0
 75 78  1  0  0  0
 76 79  1  0  0  0
 77 83  1  0  0  0
 77 85  2  0  0  0
 78147  1  0  0  0
 78148  1  0  0  0
 78149  1  0  0  0
 79150  1  0  0  0
 79151  1  0  0  0
 79152  1  0  0  0
 80 84  1  0  0  0
 80153  1  0  0  0
 80154  1  0  0  0
 81 82  1  0  0  0
 81 85  1  0  0  0
 81155  1  0  0  0
 81156  1  0  0  0
 82157  1  0  0  0
 82158  1  0  0  0
 83159  1  0  0  0
 83160  1  0  0  0
 84161  1  0  0  0
 85162  1  0  0  0
M  CHG  1  85   1
M  ISO  4   1 100  68 101  82 101  84 100
M  END
> <chiral flag>
0

> <version>
0

> <s_m_source_file>
/data/baiqing/PycharmProjects/Reinvent-master-3.2/result/LINK_invent/BTK/process_docking_weight1_custom_product_contain_oxygen_bond_distance_aromatic_linkinvent_7_9_3/rearranged_h_0041.sdf

> <i_m_source_file_index>
11

> <r_mmod_Potential_Energy-OPLS-2005>
-235.390548706055

> <r_mmod_Stretch_Energy-OPLS-2005>
46.636474609375

> <r_mmod_Bend_Energy-OPLS-2005>
131.761962890625

> <r_mmod_Torsional_Energy-OPLS-2005>
200.394561767578

> <r_mmod_Improper_Torsional_Energy-OPLS-2005>
5.48382902145386

> <r_mmod_Van_der_Waal_Energy-OPLS-2005>
158.498306274414

> <r_mmod_Electrostatic_Energy-OPLS-2005>
-397.339538574219

> <r_mmod_Solvation_Energy-OPLS-2005>
-406.040740966797

> <b_mmod_Minimization_Converged-OPLS-2005>
0

> <r_mmod_RMS_Derivative-OPLS-2005>
12.826605796814

$$$$
11
                    3D
 Structure written by MMmdl.
166175  0  0  1  0            999 V2000
  -30.6747  -14.6330   20.4834 C   0  0  0  0  0  0
  -30.4176  -12.3900   19.4577 C   0  0  0  0  0  0
  -29.4974  -12.4947   18.2242 C   0  0  0  0  0  0
  -28.0226  -12.3410   18.6401 C   0  0  0  0  0  0
  -27.6451  -13.2286   19.8566 C   0  0  2  0  0  0
  -28.6909  -13.1304   20.9888 C   0  0  0  0  0  0
  -25.2515  -13.8204   20.5704 C   0  0  0  0  0  0
  -24.1800  -13.0446   20.9212 C   0  0  0  0  0  0
  -24.6389  -11.6926   20.8758 C   0  0  0  0  0  0
  -23.9067  -10.4299   21.0414 C   0  0  0  0  0  0
  -24.3618   -9.4213   21.9190 C   0  0  0  0  0  0
  -23.6294   -8.2246   22.0756 C   0  0  0  0  0  0
  -22.4277   -8.0283   21.3543 C   0  0  0  0  0  0
  -21.9913   -9.0258   20.4647 C   0  0  0  0  0  0
  -22.7242  -10.2140   20.3060 C   0  0  0  0  0  0
  -21.6853   -6.0735   22.5279 C   0  0  0  0  0  0
  -21.4015   -6.5639   23.8213 C   0  0  0  0  0  0
  -21.3661   -5.6792   24.9175 C   0  0  0  0  0  0
  -21.6043   -4.3054   24.7225 C   0  0  0  0  0  0
  -21.8821   -3.8147   23.4346 C   0  0  0  0  0  0
  -21.9193   -4.6963   22.3402 C   0  0  0  0  0  0
  -22.7820  -13.5226   21.1868 C   0  0  0  0  0  0
  -22.1661   -4.2146   21.0980 F   0  0  0  0  0  0
  -21.5629   -3.4539   25.7739 F   0  0  0  0  0  0
  -30.0008  -13.4430   20.4065 N   0  0  0  0  0  0
  -26.2952  -12.9410   20.3324 N   0  0  0  0  0  0
  -25.9323  -11.6552   20.5778 N   0  0  0  0  0  0
  -22.0472  -12.8209   22.0424 N   0  0  0  0  0  0
  -25.4211  -15.1924   20.4116 N   0  0  0  0  0  0
  -31.8590  -14.7036   20.1478 O   0  0  0  0  0  0
  -21.6640   -6.8878   21.4240 O   0  0  0  0  0  0
  -22.3502  -14.5534   20.6725 O   0  0  0  0  0  0
  -24.6244  -31.8595   23.2040 C   0  0  0  0  0  0
  -25.9097  -32.4773   23.8363 C   0  0  1  0  0  0
  -27.2158  -27.3245   20.1289 C   0  0  0  0  0  0
  -25.5910  -33.8576   24.2281 N   0  0  0  0  0  0
  -23.4187  -30.4824   21.5458 C   0  0  2  0  0  0
  -24.8663  -28.9376   20.1108 C   0  0  0  0  0  0
  -22.7471  -29.4622   22.4952 C   0  0  0  0  0  0
  -18.0283  -28.1389   22.8496 C   0  0  0  0  0  0
  -24.1490  -36.7296   23.2641 C   0  0  0  0  0  0
  -25.9578  -30.7918   21.3752 C   0  0  0  0  0  0
  -26.0325  -29.4184   20.7213 C   0  0  0  0  0  0
  -27.2143  -28.6212   20.7247 C   0  0  0  0  0  0
  -26.0433  -26.9022   19.4734 C   0  0  0  0  0  0
  -24.8722  -27.6837   19.4775 C   0  0  0  0  0  0
  -23.6328  -29.8158   20.1614 C   0  0  0  0  0  0
  -25.4114  -36.3078   24.0325 C   0  0  1  0  0  0
  -20.5884  -28.3692   23.1293 C   0  0  2  0  0  0
  -20.6780  -26.9419   22.5415 C   0  0  0  0  0  0
  -19.5753  -26.6391   21.5220 C   0  0  0  0  0  0
  -18.1930  -26.7933   22.1629 C   0  0  0  0  0  0
  -19.1537  -28.8858   23.2887 C   0  0  0  0  0  0
  -18.9461  -30.1459   23.8907 C   0  0  0  0  0  0
  -17.6466  -30.6595   24.0568 C   0  0  0  0  0  0
  -25.9049  -34.9447   23.5105 C   0  0  0  0  0  0
  -16.5356  -29.9092   23.6337 C   0  0  0  0  0  0
  -16.7272  -28.6505   23.0364 C   0  0  0  0  0  0
  -26.4490  -31.6586   25.0733 C   0  0  0  0  0  0
  -25.3735  -31.3709   26.1471 C   0  0  0  0  0  0
  -27.0333  -30.3008   24.6187 C   0  0  0  0  0  0
  -27.6050  -32.4327   25.7499 C   0  0  0  0  0  0
  -27.5578  -37.1798   24.8461 C   0  0  0  0  0  0
  -21.4186  -29.3038   22.3687 N   0  0  0  0  0  0
  -26.4290  -37.3773   23.9408 N   0  0  0  0  0  0
  -24.6857  -31.0621   22.0981 N   0  0  0  0  0  0
  -23.4200  -28.8172   23.3034 O   0  0  0  0  0  0
  -28.3088  -26.4540   20.1538 O   0  0  0  0  0  0
  -26.5635  -34.8916   22.4683 O   0  0  0  0  0  0
  -23.5410  -32.1392   23.7374 O   0  0  0  0  0  0
  -29.2422  -20.6667   21.7760 C   0  0  0  0  0  0
  -29.3422  -19.1159   19.4469 C   0  0  0  0  0  0
  -28.8637  -20.4776   19.4054 C   0  0  0  0  0  0
  -29.8097  -18.5168   20.6597 C   0  0  0  0  0  0
  -28.8297  -21.2984   20.5765 C   0  0  0  0  0  0
  -29.7164  -19.3276   21.8266 C   0  0  0  0  0  0
  -28.8548  -23.8883   20.3362 C   0  0  0  0  0  0
  -29.9534  -23.9680   19.5671 C   0  0  0  0  0  0
  -26.1264  -23.8192   21.1702 C   0  0  0  0  0  0
  -26.9667  -24.9358   21.7936 C   0  0  0  0  0  0
  -26.9079  -22.5029   21.2097 C   0  0  0  0  0  0
  -28.2541  -25.2097   20.9718 C   0  0  2  0  0  0
  -29.3925  -18.2984   18.1578 C   0  0  0  0  0  0
  -28.3744  -21.0535   18.0796 C   0  0  0  0  0  0
  -30.6089  -17.1519   20.6864 C   0  0  0  0  0  0
  -28.2495  -22.6203   20.6287 N   0  0  0  0  0  0
  -29.9741  -15.7864   20.7309 N   0  0  0  0  0  0
  -30.2072  -18.7115   23.3667 Cl  0  0  0  0  0  0
  -31.4613  -12.4861   19.1544 H   0  0  0  0  0  0
  -30.3314  -11.4067   19.9227 H   0  0  0  0  0  0
  -29.7596  -11.7310   17.4908 H   0  0  0  0  0  0
  -29.6442  -13.4573   17.7311 H   0  0  0  0  0  0
  -27.8611  -11.2907   18.8860 H   0  0  0  0  0  0
  -27.3667  -12.5592   17.7966 H   0  0  0  0  0  0
  -27.6519  -14.2572   19.4958 H   0  0  0  0  0  0
  -28.7001  -12.1298   21.4237 H   0  0  0  0  0  0
  -28.4472  -13.8152   21.8027 H   0  0  0  0  0  0
  -25.2762   -9.5687   22.4768 H   0  0  0  0  0  0
  -24.0004   -7.4635   22.7477 H   0  0  0  0  0  0
  -21.0845   -8.8782   19.8948 H   0  0  0  0  0  0
  -22.3703  -10.9683   19.6171 H   0  0  0  0  0  0
  -21.2009   -7.6147   23.9715 H   0  0  0  0  0  0
  -21.1480   -6.0521   25.9077 H   0  0  0  0  0  0
  -22.0597   -2.7607   23.2851 H   0  0  0  0  0  0
  -22.4097  -11.9864   22.4797 H   0  0  0  0  0  0
  -21.1090  -13.1228   22.2642 H   0  0  0  0  0  0
  -24.6554  -15.8479   20.5242 H   0  0  0  0  0  0
  -26.2699  -15.6319   20.0799 H   0  0  0  0  0  0
  -26.7163  -32.5452   23.1113 H   0  0  0  0  0  0
  -25.0022  -33.9719   25.0399 H   0  0  0  0  0  0
  -22.7115  -31.3019   21.4031 H   0  0  0  0  0  0
  -23.3747  -35.9632   23.3290 H   0  0  0  0  0  0
  -24.3579  -36.8941   22.2060 H   0  0  0  0  0  0
  -23.7252  -37.6491   23.6683 H   0  0  0  0  0  0
  -26.0884  -31.5534   20.6048 H   0  0  0  0  0  0
  -26.8375  -30.8411   22.0050 H   0  0  0  0  0  0
  -28.1091  -28.9809   21.2139 H   0  0  0  0  0  0
  -26.0295  -25.9442   18.9753 H   0  0  0  0  0  0
  -23.9812  -27.3134   18.9892 H   0  0  0  0  0  0
  -23.7475  -30.5908   19.4030 H   0  0  0  0  0  0
  -22.7535  -29.2418   19.8637 H   0  0  0  0  0  0
  -25.1292  -36.1926   25.0815 H   0  0  0  0  0  0
  -20.9970  -28.3274   24.1415 H   0  0  0  0  0  0
  -20.5699  -26.2302   23.3613 H   0  0  0  0  0  0
  -21.6648  -26.7465   22.1204 H   0  0  0  0  0  0
  -19.6922  -25.6300   21.1251 H   0  0  0  0  0  0
  -19.6691  -27.3199   20.6751 H   0  0  0  0  0  0
  -17.4203  -26.6689   21.4025 H   0  0  0  0  0  0
  -18.0322  -26.0069   22.9019 H   0  0  0  0  0  0
  -19.7936  -30.7270   24.2288 H   0  0  0  0  0  0
  -17.5021  -31.6279   24.5163 H   0  0  0  0  0  0
  -15.5355  -30.3003   23.7659 H   0  0  0  0  0  0
  -15.8668  -28.0825   22.7091 H   0  0  0  0  0  0
  -24.5917  -30.7045   25.7807 H   0  0  0  0  0  0
  -24.8918  -32.2864   26.4916 H   0  0  0  0  0  0
  -25.8078  -30.8885   27.0240 H   0  0  0  0  0  0
  -26.2901  -29.6754   24.1229 H   0  0  0  0  0  0
  -27.4037  -29.7271   25.4694 H   0  0  0  0  0  0
  -27.8768  -30.4279   23.9398 H   0  0  0  0  0  0
  -27.2665  -33.3648   26.2039 H   0  0  0  0  0  0
  -28.3877  -32.6860   25.0332 H   0  0  0  0  0  0
  -28.0697  -31.8480   26.5449 H   0  0  0  0  0  0
  -28.2583  -38.0109   24.7529 H   0  0  0  0  0  0
  -28.1089  -36.2641   24.6260 H   0  0  0  0  0  0
  -27.2299  -37.1414   25.8865 H   0  0  0  0  0  0
  -20.9369  -29.8737   21.6874 H   0  0  0  0  0  0
  -26.0167  -38.2842   24.1424 H   0  0  0  0  0  0
  -29.1961  -21.2269   22.6982 H   0  0  0  0  0  0
  -30.4176  -24.9229   19.3623 H   0  0  0  0  0  0
  -30.4117  -23.0939   19.1279 H   0  0  0  0  0  0
  -25.8596  -24.0616   20.1428 H   0  0  0  0  0  0
  -25.1893  -23.7059   21.7160 H   0  0  0  0  0  0
  -27.2630  -24.6038   22.7899 H   0  0  0  0  0  0
  -26.3672  -25.8249   21.9796 H   0  0  0  0  0  0
  -26.3410  -21.7352   20.6792 H   0  0  0  0  0  0
  -26.9911  -22.1671   22.2447 H   0  0  0  0  0  0
  -28.9950  -25.4568   21.7342 H   0  0  0  0  0  0
  -28.5311  -18.4872   17.5183 H   0  0  0  0  0  0
  -29.3902  -17.2255   18.3474 H   0  0  0  0  0  0
  -30.2943  -18.5387   17.5941 H   0  0  0  0  0  0
  -29.1188  -20.9042   17.2974 H   0  0  0  0  0  0
  -28.1754  -22.1228   18.1245 H   0  0  0  0  0  0
  -27.4486  -20.5660   17.7737 H   0  0  0  0  0  0
  -31.3175  -17.1849   21.5138 H   0  0  0  0  0  0
  -31.2596  -17.1806   19.8108 H   0  0  0  0  0  0
  -28.9922  -15.7195   20.9496 H   0  0  0  0  0  0
  1 25  1  0  0  0
  1 30  2  0  0  0
  1 87  1  0  0  0
  2  3  1  0  0  0
  2 25  1  0  0  0
  2 89  1  0  0  0
  2 90  1  0  0  0
  3  4  1  0  0  0
  3 91  1  0  0  0
  3 92  1  0  0  0
  4  5  1  0  0  0
  4 93  1  0  0  0
  4 94  1  0  0  0
  5  6  1  0  0  0
  5 26  1  0  0  0
  5 95  1  0  0  0
  6 25  1  0  0  0
  6 96  1  0  0  0
  6 97  1  0  0  0
  7  8  2  0  0  0
  7 26  1  0  0  0
  7 29  1  0  0  0
  8  9  1  0  0  0
  8 22  1  0  0  0
  9 10  1  0  0  0
  9 27  2  0  0  0
 10 11  2  0  0  0
 10 15  1  0  0  0
 11 12  1  0  0  0
 11 98  1  0  0  0
 12 13  2  0  0  0
 12 99  1  0  0  0
 13 14  1  0  0  0
 13 31  1  0  0  0
 14 15  2  0  0  0
 14100  1  0  0  0
 15101  1  0  0  0
 16 17  2  0  0  0
 16 21  1  0  0  0
 16 31  1  0  0  0
 17 18  1  0  0  0
 17102  1  0  0  0
 18 19  2  0  0  0
 18103  1  0  0  0
 19 20  1  0  0  0
 19 24  1  0  0  0
 20 21  2  0  0  0
 20104  1  0  0  0
 21 23  1  0  0  0
 22 28  1  0  0  0
 22 32  2  0  0  0
 26 27  1  0  0  0
 28105  1  0  0  0
 28106  1  0  0  0
 29107  1  0  0  0
 29108  1  0  0  0
 33 34  1  0  0  0
 33 66  1  0  0  0
 33 70  2  0  0  0
 34 36  1  0  0  0
 34 59  1  0  0  0
 34109  1  0  0  0
 35 44  2  0  0  0
 35 45  1  0  0  0
 35 68  1  0  0  0
 36 56  1  0  0  0
 36110  1  0  0  0
 37 39  1  0  0  0
 37 47  1  0  0  0
 37 66  1  0  0  0
 37111  1  0  0  0
 38 43  2  0  0  0
 38 46  1  0  0  0
 38 47  1  0  0  0
 39 64  1  0  0  0
 39 67  2  0  0  0
 40 52  1  0  0  0
 40 53  2  0  0  0
 40 58  1  0  0  0
 41112  1  0  0  0
 41113  1  0  0  0
 41114  1  0  0  0
 41 48  1  0  0  0
 42 43  1  0  0  0
 42 66  1  0  0  0
 42115  1  0  0  0
 42116  1  0  0  0
 43 44  1  0  0  0
 44117  1  0  0  0
 45 46  2  0  0  0
 45118  1  0  0  0
 46119  1  0  0  0
 47120  1  0  0  0
 47121  1  0  0  0
 48 56  1  0  0  0
 48 65  1  0  0  0
 48122  1  0  0  0
 49 50  1  0  0  0
 49 53  1  0  0  0
 49 64  1  0  0  0
 49123  1  0  0  0
 50 51  1  0  0  0
 50124  1  0  0  0
 50125  1  0  0  0
 51 52  1  0  0  0
 51126  1  0  0  0
 51127  1  0  0  0
 52128  1  0  0  0
 52129  1  0  0  0
 53 54  1  0  0  0
 54 55  2  0  0  0
 54130  1  0  0  0
 55 57  1  0  0  0
 55131  1  0  0  0
 56 69  2  0  0  0
 57 58  2  0  0  0
 57132  1  0  0  0
 58133  1  0  0  0
 59 60  1  0  0  0
 59 61  1  0  0  0
 59 62  1  0  0  0
 60134  1  0  0  0
 60135  1  0  0  0
 60136  1  0  0  0
 61137  1  0  0  0
 61138  1  0  0  0
 61139  1  0  0  0
 62140  1  0  0  0
 62141  1  0  0  0
 62142  1  0  0  0
 63 65  1  0  0  0
 63143  1  0  0  0
 63144  1  0  0  0
 63145  1  0  0  0
 64146  1  0  0  0
 65147  1  0  0  0
 68 82  1  0  0  0
 71 75  2  0  0  0
 71 76  1  0  0  0
 71148  1  0  0  0
 72 73  2  0  0  0
 72 74  1  0  0  0
 72 83  1  0  0  0
 73 75  1  0  0  0
 73 84  1  0  0  0
 74 76  2  0  0  0
 74 85  1  0  0  0
 75 86  1  0  0  0
 76 88  1  0  0  0
 77 78  2  0  0  0
 77 82  1  0  0  0
 77 86  1  0  0  0
 78149  1  0  0  0
 78150  1  0  0  0
 79 80  1  0  0  0
 79 81  1  0  0  0
 79151  1  0  0  0
 79152  1  0  0  0
 80 82  1  0  0  0
 80153  1  0  0  0
 80154  1  0  0  0
 81 86  1  0  0  0
 81155  1  0  0  0
 81156  1  0  0  0
 82157  1  0  0  0
 83158  1  0  0  0
 83159  1  0  0  0
 83160  1  0  0  0
 84161  1  0  0  0
 84162  1  0  0  0
 84163  1  0  0  0
 85 87  1  0  0  0
 85164  1  0  0  0
 85165  1  0  0  0
 87166  1  0  0  0
M  ISO  4   1 100  68 101  82 101  87 100
M  END
> <chiral flag>
0

> <version>
0

> <s_m_source_file>
/data/baiqing/PycharmProjects/Reinvent-master-3.2/result/LINK_invent/BTK/process_docking_weight1_custom_product_contain_oxygen_bond_distance_aromatic_linkinvent_7_9_3/rearranged_h_0041.sdf

> <i_m_source_file_index>
12

> <r_mmod_Potential_Energy-OPLS-2005>
121.624664306641

> <r_mmod_Stretch_Energy-OPLS-2005>
88.7087326049805

> <r_mmod_Bend_Energy-OPLS-2005>
153.352630615234

> <r_mmod_Torsional_Energy-OPLS-2005>
290.260345458984

> <r_mmod_Improper_Torsional_Energy-OPLS-2005>
6.62768411636353

> <r_mmod_Van_der_Waal_Energy-OPLS-2005>
156.182495117188

> <r_mmod_Electrostatic_Energy-OPLS-2005>
-426.561553955078

> <r_mmod_Solvation_Energy-OPLS-2005>
-197.896118164062

> <b_mmod_Minimization_Converged-OPLS-2005>
0

> <r_mmod_RMS_Derivative-OPLS-2005>
0.89802885055542

$$$$
12
                    3D
 Structure written by MMmdl.
164172  0  0  1  0            999 V2000
  -30.6820  -14.4137   20.5118 C   0  0  0  0  0  0
  -30.4248  -12.2526   19.3871 C   0  0  0  0  0  0
  -29.4751  -12.4644   18.1855 C   0  0  0  0  0  0
  -27.9953  -12.3494   18.6048 C   0  0  0  0  0  0
  -27.6601  -13.1830   19.8677 C   0  0  2  0  0  0
  -28.7120  -12.9289   20.9745 C   0  0  0  0  0  0
  -25.2608  -13.8050   20.5701 C   0  0  0  0  0  0
  -24.1827  -13.0396   20.9198 C   0  0  0  0  0  0
  -24.6343  -11.6852   20.8736 C   0  0  0  0  0  0
  -23.9015  -10.4258   21.0407 C   0  0  0  0  0  0
  -24.3588   -9.4168   21.9170 C   0  0  0  0  0  0
  -23.6262   -8.2225   22.0752 C   0  0  0  0  0  0
  -22.4270   -8.0248   21.3521 C   0  0  0  0  0  0
  -21.9877   -9.0227   20.4643 C   0  0  0  0  0  0
  -22.7207  -10.2097   20.3031 C   0  0  0  0  0  0
  -21.6839   -6.0721   22.5273 C   0  0  0  0  0  0
  -21.4000   -6.5626   23.8205 C   0  0  0  0  0  0
  -21.3654   -5.6785   24.9168 C   0  0  0  0  0  0
  -21.6039   -4.3052   24.7223 C   0  0  0  0  0  0
  -21.8828   -3.8138   23.4353 C   0  0  0  0  0  0
  -21.9183   -4.6947   22.3398 C   0  0  0  0  0  0
  -22.7846  -13.5235   21.1868 C   0  0  0  0  0  0
  -22.1658   -4.2137   21.0976 F   0  0  0  0  0  0
  -21.5626   -3.4520   25.7738 F   0  0  0  0  0  0
  -30.0446  -13.2212   20.4195 N   0  0  0  0  0  0
  -26.3023  -12.9215   20.3380 N   0  0  0  0  0  0
  -25.9278  -11.6394   20.5800 N   0  0  0  0  0  0
  -22.0472  -12.8217   22.0401 N   0  0  0  0  0  0
  -25.4331  -15.1741   20.4213 N   0  0  0  0  0  0
  -31.8273  -14.6238   20.0997 O   0  0  0  0  0  0
  -21.6632   -6.8855   21.4241 O   0  0  0  0  0  0
  -22.3537  -14.5580   20.6778 O   0  0  0  0  0  0
  -24.6052  -31.8700   23.2119 C   0  0  0  0  0  0
  -25.8989  -32.4819   23.8403 C   0  0  1  0  0  0
  -27.2078  -27.4599   20.1108 C   0  0  0  0  0  0
  -25.5845  -33.8611   24.2350 N   0  0  0  0  0  0
  -23.3866  -30.4915   21.5523 C   0  0  2  0  0  0
  -24.8330  -28.9687   20.1120 C   0  0  0  0  0  0
  -22.7283  -29.4655   22.5034 C   0  0  0  0  0  0
  -18.0202  -28.1406   22.8661 C   0  0  0  0  0  0
  -24.1490  -36.7314   23.2641 C   0  0  0  0  0  0
  -25.9114  -30.8482   21.3573 C   0  0  0  0  0  0
  -25.9900  -29.4848   20.7077 C   0  0  0  0  0  0
  -27.1859  -28.7349   20.7123 C   0  0  0  0  0  0
  -26.0545  -26.9697   19.4638 C   0  0  0  0  0  0
  -24.8585  -27.7088   19.4896 C   0  0  0  0  0  0
  -23.5884  -29.8250   20.1656 C   0  0  0  0  0  0
  -25.4111  -36.3123   24.0355 C   0  0  1  0  0  0
  -20.5834  -28.3531   23.1349 C   0  0  2  0  0  0
  -20.6656  -26.9279   22.5379 C   0  0  0  0  0  0
  -19.5553  -26.6503   21.5197 C   0  0  0  0  0  0
  -18.1762  -26.7933   22.1757 C   0  0  0  0  0  0
  -19.1567  -28.8745   23.3062 C   0  0  0  0  0  0
  -18.9667  -30.1372   23.9090 C   0  0  0  0  0  0
  -17.6714  -30.6639   24.0628 C   0  0  0  0  0  0
  -25.9013  -34.9472   23.5152 C   0  0  0  0  0  0
  -16.5477  -29.9333   23.6318 C   0  0  0  0  0  0
  -16.7242  -28.6672   23.0472 C   0  0  0  0  0  0
  -26.4442  -31.6593   25.0733 C   0  0  0  0  0  0
  -25.3740  -31.3656   26.1500 C   0  0  0  0  0  0
  -27.0263  -30.3041   24.6106 C   0  0  0  0  0  0
  -27.6026  -32.4308   25.7499 C   0  0  0  0  0  0
  -27.5587  -37.1803   24.8461 C   0  0  0  0  0  0
  -21.4010  -29.2916   22.3711 N   0  0  0  0  0  0
  -26.4305  -37.3808   23.9396 N   0  0  0  0  0  0
  -24.6518  -31.0804   22.1002 N   0  0  0  0  0  0
  -23.4052  -28.8226   23.3070 O   0  0  0  0  0  0
  -28.3495  -26.7059   20.1225 O   0  0  0  0  0  0
  -26.5585  -34.8907   22.4722 O   0  0  0  0  0  0
  -23.5262  -32.1448   23.7555 O   0  0  0  0  0  0
  -27.8910  -17.2666   19.3700 C   0  0  0  0  0  0
  -26.6057  -17.8411   19.3395 C   0  0  0  0  0  0
  -28.3419  -18.4301   21.4609 C   0  0  0  0  0  0
  -28.7520  -17.5328   20.4517 C   0  0  0  0  0  0
  -26.1666  -18.6786   20.3833 C   0  0  0  0  0  0
  -27.0538  -19.0119   21.4326 C   0  0  0  0  0  0
  -26.7903  -22.6021   22.3730 C   0  0  0  0  0  0
  -24.7354  -19.1869   20.3631 C   0  0  0  0  0  0
  -30.0906  -16.8205   20.5501 C   0  0  0  0  0  0
  -26.6777  -20.0538   22.4716 C   0  0  0  0  0  0
  -27.1624  -25.0629   21.8080 C   0  0  0  0  0  0
  -28.4210  -25.6035   21.0496 C   0  0  0  0  0  0
  -26.6729  -22.7906   23.6895 N   0  0  0  0  0  0
  -29.8715  -15.4165   20.8534 N   0  0  0  0  0  0
  -26.9704  -23.6290   21.5289 N   0  0  0  0  0  0
  -26.7671  -21.3775   21.8389 N   0  3  0  0  0  0
  -31.4623  -12.3736   19.0640 H   0  0  0  0  0  0
  -30.3444  -11.2359   19.7791 H   0  0  0  0  0  0
  -29.6934  -11.7412   17.3978 H   0  0  0  0  0  0
  -29.6477  -13.4480   17.7456 H   0  0  0  0  0  0
  -27.7802  -11.2963   18.7969 H   0  0  0  0  0  0
  -27.3503  -12.6414   17.7750 H   0  0  0  0  0  0
  -27.7099  -14.2301   19.5708 H   0  0  0  0  0  0
  -28.6838  -11.8838   21.2886 H   0  0  0  0  0  0
  -28.5066  -13.5082   21.8749 H   0  0  0  0  0  0
  -25.2716   -9.5672   22.4752 H   0  0  0  0  0  0
  -23.9959   -7.4615   22.7457 H   0  0  0  0  0  0
  -21.0806   -8.8739   19.8951 H   0  0  0  0  0  0
  -22.3643  -10.9638   19.6144 H   0  0  0  0  0  0
  -21.2006   -7.6129   23.9702 H   0  0  0  0  0  0
  -21.1464   -6.0512   25.9068 H   0  0  0  0  0  0
  -22.0623   -2.7599   23.2853 H   0  0  0  0  0  0
  -22.4041  -11.9833   22.4751 H   0  0  0  0  0  0
  -21.1090  -13.1230   22.2645 H   0  0  0  0  0  0
  -24.6822  -15.8312   20.5933 H   0  0  0  0  0  0
  -26.2986  -15.6317   20.1595 H   0  0  0  0  0  0
  -26.7068  -32.5557   23.1170 H   0  0  0  0  0  0
  -25.0008  -33.9802   25.0504 H   0  0  0  0  0  0
  -22.6697  -31.3034   21.4208 H   0  0  0  0  0  0
  -23.3760  -35.9638   23.3323 H   0  0  0  0  0  0
  -24.3593  -36.8910   22.2049 H   0  0  0  0  0  0
  -23.7221  -37.6517   23.6643 H   0  0  0  0  0  0
  -26.0224  -31.6220   20.5973 H   0  0  0  0  0  0
  -26.7980  -30.8947   21.9764 H   0  0  0  0  0  0
  -28.0837  -29.1279   21.1687 H   0  0  0  0  0  0
  -26.0803  -26.0148   18.9569 H   0  0  0  0  0  0
  -23.9667  -27.3109   19.0257 H   0  0  0  0  0  0
  -23.6487  -30.5941   19.3913 H   0  0  0  0  0  0
  -22.7235  -29.2171   19.9018 H   0  0  0  0  0  0
  -25.1288  -36.2014   25.0855 H   0  0  0  0  0  0
  -21.0106  -28.2998   24.1398 H   0  0  0  0  0  0
  -20.5343  -26.2133   23.3506 H   0  0  0  0  0  0
  -21.6509  -26.7009   22.1313 H   0  0  0  0  0  0
  -19.6598  -25.6435   21.1136 H   0  0  0  0  0  0
  -19.6447  -27.3421   20.6813 H   0  0  0  0  0  0
  -17.3954  -26.6501   21.4321 H   0  0  0  0  0  0
  -18.0327  -26.0053   22.9158 H   0  0  0  0  0  0
  -19.8302  -30.7002   24.2397 H   0  0  0  0  0  0
  -17.5425  -31.6406   24.5103 H   0  0  0  0  0  0
  -15.5523  -30.3423   23.7336 H   0  0  0  0  0  0
  -15.8530  -28.1188   22.7096 H   0  0  0  0  0  0
  -24.5927  -30.6993   25.7833 H   0  0  0  0  0  0
  -24.8909  -32.2779   26.5007 H   0  0  0  0  0  0
  -25.8130  -30.8785   27.0218 H   0  0  0  0  0  0
  -26.2801  -29.6831   24.1139 H   0  0  0  0  0  0
  -27.3991  -29.7265   25.4572 H   0  0  0  0  0  0
  -27.8659  -30.4358   23.9284 H   0  0  0  0  0  0
  -27.2658  -33.3600   26.2117 H   0  0  0  0  0  0
  -28.3819  -32.6890   25.0313 H   0  0  0  0  0  0
  -28.0720  -31.8404   26.5386 H   0  0  0  0  0  0
  -28.2616  -38.0096   24.7530 H   0  0  0  0  0  0
  -28.1075  -36.2624   24.6275 H   0  0  0  0  0  0
  -27.2291  -37.1434   25.8862 H   0  0  0  0  0  0
  -20.9175  -29.8409   21.6748 H   0  0  0  0  0  0
  -26.0210  -38.2902   24.1370 H   0  0  0  0  0  0
  -28.1990  -16.6057   18.5693 H   0  0  0  0  0  0
  -25.9390  -17.6022   18.5240 H   0  0  0  0  0  0
  -29.0109  -18.6608   22.2791 H   0  0  0  0  0  0
  -24.7035  -20.2562   20.1518 H   0  0  0  0  0  0
  -24.2515  -19.0099   21.3260 H   0  0  0  0  0  0
  -24.1309  -18.6693   19.6176 H   0  0  0  0  0  0
  -30.7226  -17.2746   21.3175 H   0  0  0  0  0  0
  -30.6271  -16.9142   19.5986 H   0  0  0  0  0  0
  -27.3505  -19.9886   23.3276 H   0  0  0  0  0  0
  -25.6667  -19.8739   22.8474 H   0  0  0  0  0  0
  -26.2305  -25.5520   21.5525 H   0  0  0  0  0  0
  -27.2872  -25.2279   22.8789 H   0  0  0  0  0  0
  -28.8873  -24.7999   20.4810 H   0  0  0  0  0  0
  -29.1692  -25.8592   21.7984 H   0  0  0  0  0  0
  -26.5499  -22.0217   24.3310 H   0  0  0  0  0  0
  -26.6819  -23.7157   24.0906 H   0  0  0  0  0  0
  -28.9305  -15.1628   21.1148 H   0  0  0  0  0  0
  -26.9660  -23.4250   20.5409 H   0  0  0  0  0  0
  -26.9231  -21.3003   20.8465 H   0  0  0  0  0  0
  1 25  1  0  0  0
  1 30  2  0  0  0
  1 84  1  0  0  0
  2  3  1  0  0  0
  2 25  1  0  0  0
  2 87  1  0  0  0
  2 88  1  0  0  0
  3  4  1  0  0  0
  3 89  1  0  0  0
  3 90  1  0  0  0
  4  5  1  0  0  0
  4 91  1  0  0  0
  4 92  1  0  0  0
  5  6  1  0  0  0
  5 26  1  0  0  0
  5 93  1  0  0  0
  6 25  1  0  0  0
  6 94  1  0  0  0
  6 95  1  0  0  0
  7  8  2  0  0  0
  7 26  1  0  0  0
  7 29  1  0  0  0
  8  9  1  0  0  0
  8 22  1  0  0  0
  9 10  1  0  0  0
  9 27  2  0  0  0
 10 11  2  0  0  0
 10 15  1  0  0  0
 11 12  1  0  0  0
 11 96  1  0  0  0
 12 13  2  0  0  0
 12 97  1  0  0  0
 13 14  1  0  0  0
 13 31  1  0  0  0
 14 15  2  0  0  0
 14 98  1  0  0  0
 15 99  1  0  0  0
 16 17  2  0  0  0
 16 21  1  0  0  0
 16 31  1  0  0  0
 17 18  1  0  0  0
 17100  1  0  0  0
 18 19  2  0  0  0
 18101  1  0  0  0
 19 20  1  0  0  0
 19 24  1  0  0  0
 20 21  2  0  0  0
 20102  1  0  0  0
 21 23  1  0  0  0
 22 28  1  0  0  0
 22 32  2  0  0  0
 26 27  1  0  0  0
 28103  1  0  0  0
 28104  1  0  0  0
 29105  1  0  0  0
 29106  1  0  0  0
 33 34  1  0  0  0
 33 66  1  0  0  0
 33 70  2  0  0  0
 34 36  1  0  0  0
 34 59  1  0  0  0
 34107  1  0  0  0
 35 44  2  0  0  0
 35 45  1  0  0  0
 35 68  1  0  0  0
 36 56  1  0  0  0
 36108  1  0  0  0
 37 39  1  0  0  0
 37 47  1  0  0  0
 37 66  1  0  0  0
 37109  1  0  0  0
 38 43  2  0  0  0
 38 46  1  0  0  0
 38 47  1  0  0  0
 39 64  1  0  0  0
 39 67  2  0  0  0
 40 52  1  0  0  0
 40 53  2  0  0  0
 40 58  1  0  0  0
 41110  1  0  0  0
 41111  1  0  0  0
 41112  1  0  0  0
 41 48  1  0  0  0
 42 43  1  0  0  0
 42 66  1  0  0  0
 42113  1  0  0  0
 42114  1  0  0  0
 43 44  1  0  0  0
 44115  1  0  0  0
 45 46  2  0  0  0
 45116  1  0  0  0
 46117  1  0  0  0
 47118  1  0  0  0
 47119  1  0  0  0
 48 56  1  0  0  0
 48 65  1  0  0  0
 48120  1  0  0  0
 49 50  1  0  0  0
 49 53  1  0  0  0
 49 64  1  0  0  0
 49121  1  0  0  0
 50 51  1  0  0  0
 50122  1  0  0  0
 50123  1  0  0  0
 51 52  1  0  0  0
 51124  1  0  0  0
 51125  1  0  0  0
 52126  1  0  0  0
 52127  1  0  0  0
 53 54  1  0  0  0
 54 55  2  0  0  0
 54128  1  0  0  0
 55 57  1  0  0  0
 55129  1  0  0  0
 56 69  2  0  0  0
 57 58  2  0  0  0
 57130  1  0  0  0
 58131  1  0  0  0
 59 60  1  0  0  0
 59 61  1  0  0  0
 59 62  1  0  0  0
 60132  1  0  0  0
 60133  1  0  0  0
 60134  1  0  0  0
 61135  1  0  0  0
 61136  1  0  0  0
 61137  1  0  0  0
 62138  1  0  0  0
 62139  1  0  0  0
 62140  1  0  0  0
 63 65  1  0  0  0
 63141  1  0  0  0
 63142  1  0  0  0
 63143  1  0  0  0
 64144  1  0  0  0
 65145  1  0  0  0
 68 82  1  0  0  0
 71 72  2  0  0  0
 71 74  1  0  0  0
 71146  1  0  0  0
 72 75  1  0  0  0
 72147  1  0  0  0
 73 74  2  0  0  0
 73 76  1  0  0  0
 73148  1  0  0  0
 74 79  1  0  0  0
 75 76  2  0  0  0
 75 78  1  0  0  0
 76 80  1  0  0  0
 77 83  1  0  0  0
 77 85  1  0  0  0
 77 86  2  0  0  0
 78149  1  0  0  0
 78150  1  0  0  0
 78151  1  0  0  0
 79 84  1  0  0  0
 79152  1  0  0  0
 79153  1  0  0  0
 80 86  1  0  0  0
 80154  1  0  0  0
 80155  1  0  0  0
 81 82  1  0  0  0
 81 85  1  0  0  0
 81156  1  0  0  0
 81157  1  0  0  0
 82158  1  0  0  0
 82159  1  0  0  0
 83160  1  0  0  0
 83161  1  0  0  0
 84162  1  0  0  0
 85163  1  0  0  0
 86164  1  0  0  0
M  CHG  1  86   1
M  ISO  4   1 100  68 101  82 101  84 100
M  END
> <chiral flag>
0

> <version>
0

> <s_m_source_file>
/data/baiqing/PycharmProjects/Reinvent-master-3.2/result/LINK_invent/BTK/process_docking_weight1_custom_product_contain_oxygen_bond_distance_aromatic_linkinvent_7_9_3/rearranged_h_0041.sdf

> <i_m_source_file_index>
13

> <r_mmod_Potential_Energy-OPLS-2005>
-293.324737548828

> <r_mmod_Stretch_Energy-OPLS-2005>
33.4907493591309

> <r_mmod_Bend_Energy-OPLS-2005>
113.219444274902

> <r_mmod_Torsional_Energy-OPLS-2005>
247.166351318359

> <r_mmod_Improper_Torsional_Energy-OPLS-2005>
7.12964296340942

> <r_mmod_Van_der_Waal_Energy-OPLS-2005>
151.428359985352

> <r_mmod_Electrostatic_Energy-OPLS-2005>
-433.300903320312

> <r_mmod_Solvation_Energy-OPLS-2005>
-426.156036376953

> <b_mmod_Minimization_Converged-OPLS-2005>
0

> <r_mmod_RMS_Derivative-OPLS-2005>
8.52850437164307

$$$$
13
                    3D
 Structure written by MMmdl.
179188  0  0  1  0            999 V2000
  -30.6019  -14.6263   20.5303 C   0  0  0  0  0  0
  -30.4507  -12.3930   19.4421 C   0  0  0  0  0  0
  -29.5111  -12.5182   18.2200 C   0  0  0  0  0  0
  -28.0327  -12.3500   18.6303 C   0  0  0  0  0  0
  -27.6571  -13.2089   19.8674 C   0  0  2  0  0  0
  -28.7017  -13.0277   20.9929 C   0  0  0  0  0  0
  -25.2572  -13.8149   20.5671 C   0  0  0  0  0  0
  -24.1837  -13.0431   20.9196 C   0  0  0  0  0  0
  -24.6397  -11.6896   20.8741 C   0  0  0  0  0  0
  -23.9063  -10.4288   21.0406 C   0  0  0  0  0  0
  -24.3612   -9.4203   21.9193 C   0  0  0  0  0  0
  -23.6287   -8.2242   22.0761 C   0  0  0  0  0  0
  -22.4269   -8.0283   21.3548 C   0  0  0  0  0  0
  -21.9916   -9.0246   20.4642 C   0  0  0  0  0  0
  -22.7247  -10.2125   20.3051 C   0  0  0  0  0  0
  -21.6849   -6.0733   22.5278 C   0  0  0  0  0  0
  -21.4002   -6.5630   23.8211 C   0  0  0  0  0  0
  -21.3657   -5.6790   24.9175 C   0  0  0  0  0  0
  -21.6051   -4.3054   24.7226 C   0  0  0  0  0  0
  -21.8816   -3.8145   23.4347 C   0  0  0  0  0  0
  -21.9187   -4.6965   22.3401 C   0  0  0  0  0  0
  -22.7854  -13.5233   21.1845 C   0  0  0  0  0  0
  -22.1659   -4.2147   21.0982 F   0  0  0  0  0  0
  -21.5629   -3.4542   25.7741 F   0  0  0  0  0  0
  -30.0211  -13.3886   20.4422 N   0  0  0  0  0  0
  -26.3000  -12.9320   20.3320 N   0  0  0  0  0  0
  -25.9322  -11.6484   20.5753 N   0  0  0  0  0  0
  -22.0470  -12.8222   22.0382 N   0  0  0  0  0  0
  -25.4276  -15.1867   20.4027 N   0  0  0  0  0  0
  -31.7505  -14.8390   20.1274 O   0  0  0  0  0  0
  -21.6633   -6.8882   21.4245 O   0  0  0  0  0  0
  -22.3559  -14.5551   20.6700 O   0  0  0  0  0  0
  -24.6236  -31.8611   23.2032 C   0  0  0  0  0  0
  -25.9087  -32.4795   23.8363 C   0  0  1  0  0  0
  -27.2309  -27.3333   20.0989 C   0  0  0  0  0  0
  -25.5912  -33.8599   24.2288 N   0  0  0  0  0  0
  -23.4172  -30.4840   21.5471 C   0  0  2  0  0  0
  -24.8638  -28.9445   20.1127 C   0  0  0  0  0  0
  -22.7462  -29.4608   22.4951 C   0  0  0  0  0  0
  -18.0279  -28.1386   22.8491 C   0  0  0  0  0  0
  -24.1479  -36.7284   23.2640 C   0  0  0  0  0  0
  -25.9576  -30.7928   21.3743 C   0  0  0  0  0  0
  -26.0304  -29.4198   20.7224 C   0  0  0  0  0  0
  -27.2116  -28.6216   20.7157 C   0  0  0  0  0  0
  -26.0377  -26.9193   19.4552 C   0  0  0  0  0  0
  -24.8687  -27.6982   19.4737 C   0  0  0  0  0  0
  -23.6294  -29.8192   20.1632 C   0  0  0  0  0  0
  -25.4107  -36.3086   24.0325 C   0  0  1  0  0  0
  -20.5876  -28.3678   23.1296 C   0  0  2  0  0  0
  -20.6761  -26.9402   22.5413 C   0  0  0  0  0  0
  -19.5737  -26.6388   21.5209 C   0  0  0  0  0  0
  -18.1914  -26.7942   22.1604 C   0  0  0  0  0  0
  -19.1532  -28.8850   23.2892 C   0  0  0  0  0  0
  -18.9460  -30.1456   23.8907 C   0  0  0  0  0  0
  -17.6465  -30.6584   24.0572 C   0  0  0  0  0  0
  -25.9047  -34.9457   23.5104 C   0  0  0  0  0  0
  -16.5351  -29.9086   23.6347 C   0  0  0  0  0  0
  -16.7268  -28.6505   23.0357 C   0  0  0  0  0  0
  -26.4484  -31.6592   25.0719 C   0  0  0  0  0  0
  -25.3705  -31.3685   26.1423 C   0  0  0  0  0  0
  -27.0363  -30.3048   24.6128 C   0  0  0  0  0  0
  -27.6019  -32.4346   25.7515 C   0  0  0  0  0  0
  -27.5572  -37.1808   24.8466 C   0  0  0  0  0  0
  -21.4175  -29.3043   22.3707 N   0  0  0  0  0  0
  -26.4280  -37.3783   23.9411 N   0  0  0  0  0  0
  -24.6854  -31.0620   22.0995 N   0  0  0  0  0  0
  -23.4192  -28.8131   23.3004 O   0  0  0  0  0  0
  -28.3739  -26.5146   20.1562 O   0  0  0  0  0  0
  -26.5621  -34.8915   22.4676 O   0  0  0  0  0  0
  -23.5401  -32.1413   23.7351 O   0  0  0  0  0  0
  -28.4532  -17.6764   21.0175 C   0  0  0  0  0  0
  -30.8100  -17.9471   20.6872 C   0  0  0  0  0  0
  -28.2675  -19.0851   21.0348 C   0  0  0  0  0  0
  -30.6484  -19.3734   20.7198 C   0  0  0  0  0  0
  -29.3638  -19.9939   20.8964 C   0  0  0  0  0  0
  -29.7141  -17.0628   20.8567 C   0  0  0  0  0  0
  -28.7288  -22.1729   18.6937 C   0  0  0  0  0  0
  -27.4229  -22.0905   18.3582 C   0  0  0  0  0  0
  -29.8855  -21.8098   17.7697 C   0  0  0  0  0  0
  -30.3971  -22.9669   16.8820 C   0  0  0  0  0  0
  -31.0266  -24.1547   17.6454 C   0  0  0  0  0  0
  -30.1615  -25.4348   17.7174 C   0  0  0  0  0  0
  -28.6798  -25.2676   18.1174 C   0  0  0  0  0  0
  -29.1905  -24.0535   20.4561 C   0  0  0  0  0  0
  -28.3531  -25.1314   19.6273 C   0  0  1  0  0  0
  -26.8465  -19.5722   21.2641 C   0  0  0  0  0  0
  -31.9232  -20.1978   20.6220 C   0  0  0  0  0  0
  -26.2095  -22.4534   19.1947 C   0  0  0  0  0  0
  -29.1580  -21.5540   21.1402 C   0  0  0  0  0  0
  -29.7525  -15.6085   20.9525 N   0  0  0  0  0  0
  -29.2768  -22.5783   20.0245 N   0  3  1  0  0  0
  -31.4883  -12.5426   19.1392 H   0  0  0  0  0  0
  -30.4051  -11.3891   19.8655 H   0  0  0  0  0  0
  -29.7751  -11.7784   17.4626 H   0  0  0  0  0  0
  -29.6479  -13.4949   17.7535 H   0  0  0  0  0  0
  -27.8697  -11.2940   18.8512 H   0  0  0  0  0  0
  -27.3778  -12.5879   17.7916 H   0  0  0  0  0  0
  -27.6828  -14.2494   19.5434 H   0  0  0  0  0  0
  -28.7132  -11.9916   21.3351 H   0  0  0  0  0  0
  -28.4423  -13.6177   21.8732 H   0  0  0  0  0  0
  -25.2749   -9.5676   22.4775 H   0  0  0  0  0  0
  -23.9982   -7.4637   22.7490 H   0  0  0  0  0  0
  -21.0852   -8.8759   19.8947 H   0  0  0  0  0  0
  -22.3711  -10.9656   19.6150 H   0  0  0  0  0  0
  -21.1990   -7.6138   23.9715 H   0  0  0  0  0  0
  -21.1481   -6.0519   25.9075 H   0  0  0  0  0  0
  -22.0600   -2.7609   23.2849 H   0  0  0  0  0  0
  -22.4042  -11.9851   22.4737 H   0  0  0  0  0  0
  -21.1086  -13.1255   22.2553 H   0  0  0  0  0  0
  -24.6512  -15.8334   20.4878 H   0  0  0  0  0  0
  -26.2534  -15.6114   20.0015 H   0  0  0  0  0  0
  -26.7142  -32.5468   23.1104 H   0  0  0  0  0  0
  -25.0089  -33.9773   25.0452 H   0  0  0  0  0  0
  -22.7100  -31.3028   21.4022 H   0  0  0  0  0  0
  -23.3750  -35.9605   23.3297 H   0  0  0  0  0  0
  -24.3568  -36.8925   22.2057 H   0  0  0  0  0  0
  -23.7217  -37.6474   23.6676 H   0  0  0  0  0  0
  -26.0763  -31.5471   20.5954 H   0  0  0  0  0  0
  -26.8435  -30.8531   21.9934 H   0  0  0  0  0  0
  -28.1065  -28.9799   21.2056 H   0  0  0  0  0  0
  -25.9573  -25.9895   18.9157 H   0  0  0  0  0  0
  -23.9766  -27.3334   18.9826 H   0  0  0  0  0  0
  -23.7398  -30.5927   19.4032 H   0  0  0  0  0  0
  -22.7533  -29.2410   19.8650 H   0  0  0  0  0  0
  -25.1281  -36.1948   25.0819 H   0  0  0  0  0  0
  -20.9983  -28.3254   24.1401 H   0  0  0  0  0  0
  -20.5649  -26.2295   23.3613 H   0  0  0  0  0  0
  -21.6635  -26.7415   22.1215 H   0  0  0  0  0  0
  -19.6906  -25.6301   21.1234 H   0  0  0  0  0  0
  -19.6694  -27.3208   20.6746 H   0  0  0  0  0  0
  -17.4198  -26.6733   21.3983 H   0  0  0  0  0  0
  -18.0279  -26.0050   22.8965 H   0  0  0  0  0  0
  -19.7932  -30.7276   24.2278 H   0  0  0  0  0  0
  -17.5006  -31.6266   24.5178 H   0  0  0  0  0  0
  -15.5357  -30.2991   23.7662 H   0  0  0  0  0  0
  -15.8667  -28.0839   22.7058 H   0  0  0  0  0  0
  -24.5980  -30.6917   25.7757 H   0  0  0  0  0  0
  -24.8755  -32.2810   26.4747 H   0  0  0  0  0  0
  -25.8031  -30.8981   27.0261 H   0  0  0  0  0  0
  -26.2954  -29.6791   24.1144 H   0  0  0  0  0  0
  -27.4120  -29.7290   25.4596 H   0  0  0  0  0  0
  -27.8768  -30.4389   23.9316 H   0  0  0  0  0  0
  -27.2622  -33.3680   26.2004 H   0  0  0  0  0  0
  -28.3881  -32.6857   25.0387 H   0  0  0  0  0  0
  -28.0610  -31.8524   26.5510 H   0  0  0  0  0  0
  -28.2572  -38.0120   24.7522 H   0  0  0  0  0  0
  -28.1092  -36.2653   24.6285 H   0  0  0  0  0  0
  -27.2296  -37.1448   25.8871 H   0  0  0  0  0  0
  -20.9351  -29.8837   21.6983 H   0  0  0  0  0  0
  -26.0161  -38.2857   24.1417 H   0  0  0  0  0  0
  -27.5886  -17.0443   21.1644 H   0  0  0  0  0  0
  -31.8026  -17.5318   20.5783 H   0  0  0  0  0  0
  -27.1906  -21.7725   17.3514 H   0  0  0  0  0  0
  -29.5555  -20.9922   17.1270 H   0  0  0  0  0  0
  -30.7143  -21.3933   18.3415 H   0  0  0  0  0  0
  -29.6148  -23.3094   16.2027 H   0  0  0  0  0  0
  -31.1621  -22.5501   16.2240 H   0  0  0  0  0  0
  -31.9475  -24.4309   17.1276 H   0  0  0  0  0  0
  -31.3682  -23.8479   18.6319 H   0  0  0  0  0  0
  -30.1709  -25.8822   16.7224 H   0  0  0  0  0  0
  -30.6403  -26.1726   18.3645 H   0  0  0  0  0  0
  -28.2189  -24.4706   17.5447 H   0  0  0  0  0  0
  -28.1575  -26.1492   17.7470 H   0  0  0  0  0  0
  -28.8049  -24.0801   21.4757 H   0  0  0  0  0  0
  -30.2119  -24.4199   20.5499 H   0  0  0  0  0  0
  -27.3430  -24.7577   19.7289 H   0  0  0  0  0  0
  -26.1274  -18.7528   21.2690 H   0  0  0  0  0  0
  -26.5510  -20.2329   20.4601 H   0  0  0  0  0  0
  -26.7466  -20.0948   22.2151 H   0  0  0  0  0  0
  -32.5754  -19.9721   21.4659 H   0  0  0  0  0  0
  -31.7541  -21.2716   20.6164 H   0  0  0  0  0  0
  -32.4643  -19.9472   19.7091 H   0  0  0  0  0  0
  -26.4531  -22.6433   20.2388 H   0  0  0  0  0  0
  -25.4770  -21.6478   19.1524 H   0  0  0  0  0  0
  -25.7250  -23.3393   18.7836 H   0  0  0  0  0  0
  -29.8665  -21.8460   21.9153 H   0  0  0  0  0  0
  -28.1905  -21.7241   21.6056 H   0  0  0  0  0  0
  -28.8774  -15.2076   21.2551 H   0  0  0  0  0  0
  -30.2702  -22.5161   19.8709 H   0  0  0  0  0  0
  1 25  1  0  0  0
  1 30  2  0  0  0
  1 90  1  0  0  0
  2  3  1  0  0  0
  2 25  1  0  0  0
  2 92  1  0  0  0
  2 93  1  0  0  0
  3  4  1  0  0  0
  3 94  1  0  0  0
  3 95  1  0  0  0
  4  5  1  0  0  0
  4 96  1  0  0  0
  4 97  1  0  0  0
  5  6  1  0  0  0
  5 26  1  0  0  0
  5 98  1  0  0  0
  6 25  1  0  0  0
  6 99  1  0  0  0
  6100  1  0  0  0
  7  8  2  0  0  0
  7 26  1  0  0  0
  7 29  1  0  0  0
  8  9  1  0  0  0
  8 22  1  0  0  0
  9 10  1  0  0  0
  9 27  2  0  0  0
 10 11  2  0  0  0
 10 15  1  0  0  0
 11 12  1  0  0  0
 11101  1  0  0  0
 12 13  2  0  0  0
 12102  1  0  0  0
 13 14  1  0  0  0
 13 31  1  0  0  0
 14 15  2  0  0  0
 14103  1  0  0  0
 15104  1  0  0  0
 16 17  2  0  0  0
 16 21  1  0  0  0
 16 31  1  0  0  0
 17 18  1  0  0  0
 17105  1  0  0  0
 18 19  2  0  0  0
 18106  1  0  0  0
 19 20  1  0  0  0
 19 24  1  0  0  0
 20 21  2  0  0  0
 20107  1  0  0  0
 21 23  1  0  0  0
 22 28  1  0  0  0
 22 32  2  0  0  0
 26 27  1  0  0  0
 28108  1  0  0  0
 28109  1  0  0  0
 29110  1  0  0  0
 29111  1  0  0  0
 33 34  1  0  0  0
 33 66  1  0  0  0
 33 70  2  0  0  0
 34 36  1  0  0  0
 34 59  1  0  0  0
 34112  1  0  0  0
 35 44  2  0  0  0
 35 45  1  0  0  0
 35 68  1  0  0  0
 36 56  1  0  0  0
 36113  1  0  0  0
 37 39  1  0  0  0
 37 47  1  0  0  0
 37 66  1  0  0  0
 37114  1  0  0  0
 38 43  2  0  0  0
 38 46  1  0  0  0
 38 47  1  0  0  0
 39 64  1  0  0  0
 39 67  2  0  0  0
 40 52  1  0  0  0
 40 53  2  0  0  0
 40 58  1  0  0  0
 41115  1  0  0  0
 41116  1  0  0  0
 41117  1  0  0  0
 41 48  1  0  0  0
 42 43  1  0  0  0
 42 66  1  0  0  0
 42118  1  0  0  0
 42119  1  0  0  0
 43 44  1  0  0  0
 44120  1  0  0  0
 45 46  2  0  0  0
 45121  1  0  0  0
 46122  1  0  0  0
 47123  1  0  0  0
 47124  1  0  0  0
 48 56  1  0  0  0
 48 65  1  0  0  0
 48125  1  0  0  0
 49 50  1  0  0  0
 49 53  1  0  0  0
 49 64  1  0  0  0
 49126  1  0  0  0
 50 51  1  0  0  0
 50127  1  0  0  0
 50128  1  0  0  0
 51 52  1  0  0  0
 51129  1  0  0  0
 51130  1  0  0  0
 52131  1  0  0  0
 52132  1  0  0  0
 53 54  1  0  0  0
 54 55  2  0  0  0
 54133  1  0  0  0
 55 57  1  0  0  0
 55134  1  0  0  0
 56 69  2  0  0  0
 57 58  2  0  0  0
 57135  1  0  0  0
 58136  1  0  0  0
 59 60  1  0  0  0
 59 61  1  0  0  0
 59 62  1  0  0  0
 60137  1  0  0  0
 60138  1  0  0  0
 60139  1  0  0  0
 61140  1  0  0  0
 61141  1  0  0  0
 61142  1  0  0  0
 62143  1  0  0  0
 62144  1  0  0  0
 62145  1  0  0  0
 63 65  1  0  0  0
 63146  1  0  0  0
 63147  1  0  0  0
 63148  1  0  0  0
 64149  1  0  0  0
 65150  1  0  0  0
 68 85  1  0  0  0
 71 73  2  0  0  0
 71 76  1  0  0  0
 71151  1  0  0  0
 72 74  1  0  0  0
 72 76  2  0  0  0
 72152  1  0  0  0
 73 75  1  0  0  0
 73 86  1  0  0  0
 74 75  2  0  0  0
 74 87  1  0  0  0
 75 89  1  0  0  0
 76 90  1  0  0  0
 77 78  2  0  0  0
 77 79  1  0  0  0
 77 91  1  0  0  0
 78 88  1  0  0  0
 78153  1  0  0  0
 79 80  1  0  0  0
 79154  1  0  0  0
 79155  1  0  0  0
 80 81  1  0  0  0
 80156  1  0  0  0
 80157  1  0  0  0
 81 82  1  0  0  0
 81158  1  0  0  0
 81159  1  0  0  0
 82 83  1  0  0  0
 82160  1  0  0  0
 82161  1  0  0  0
 83 85  1  0  0  0
 83162  1  0  0  0
 83163  1  0  0  0
 84 85  1  0  0  0
 84 91  1  0  0  0
 84164  1  0  0  0
 84165  1  0  0  0
 85166  1  0  0  0
 86167  1  0  0  0
 86168  1  0  0  0
 86169  1  0  0  0
 87170  1  0  0  0
 87171  1  0  0  0
 87172  1  0  0  0
 88173  1  0  0  0
 88174  1  0  0  0
 88175  1  0  0  0
 89176  1  0  0  0
 89177  1  0  0  0
 89 91  1  0  0  0
 90178  1  0  0  0
 91179  1  0  0  0
M  CHG  1  91   1
M  ISO  4   1 100  68 101  85 101  90 100
M  END
> <chiral flag>
0

> <version>
0

> <s_m_source_file>
/data/baiqing/PycharmProjects/Reinvent-master-3.2/result/LINK_invent/BTK/process_docking_weight1_custom_product_contain_oxygen_bond_distance_aromatic_linkinvent_7_9_3/rearranged_h_0041.sdf

> <i_m_source_file_index>
14

> <r_mmod_Potential_Energy-OPLS-2005>
76.1048583984375

> <r_mmod_Stretch_Energy-OPLS-2005>
88.1293411254883

> <r_mmod_Bend_Energy-OPLS-2005>
205.764282226562

> <r_mmod_Torsional_Energy-OPLS-2005>
251.326446533203

> <r_mmod_Improper_Torsional_Energy-OPLS-2005>
5.49266672134399

> <r_mmod_Van_der_Waal_Energy-OPLS-2005>
143.217025756836

> <r_mmod_Electrostatic_Energy-OPLS-2005>
-262.520233154297

> <r_mmod_Solvation_Energy-OPLS-2005>
-398.349090576172

> <b_mmod_Minimization_Converged-OPLS-2005>
0

> <r_mmod_RMS_Derivative-OPLS-2005>
1.9903062582016

$$$$
14
                    3D
 Structure written by MMmdl.
166175  0  0  1  0            999 V2000
  -30.6378  -14.6440   20.5055 C   0  0  0  0  0  0
  -30.4416  -12.3958   19.4566 C   0  0  0  0  0  0
  -29.5126  -12.5055   18.2269 C   0  0  0  0  0  0
  -28.0367  -12.3431   18.6381 C   0  0  0  0  0  0
  -27.6560  -13.2190   19.8623 C   0  0  2  0  0  0
  -28.7009  -13.0810   20.9925 C   0  0  0  0  0  0
  -25.2598  -13.8205   20.5696 C   0  0  0  0  0  0
  -24.1857  -13.0478   20.9225 C   0  0  0  0  0  0
  -24.6405  -11.6942   20.8756 C   0  0  0  0  0  0
  -23.9069  -10.4324   21.0402 C   0  0  0  0  0  0
  -24.3613   -9.4242   21.9190 C   0  0  0  0  0  0
  -23.6289   -8.2279   22.0735 C   0  0  0  0  0  0
  -22.4275   -8.0318   21.3528 C   0  0  0  0  0  0
  -21.9907   -9.0295   20.4628 C   0  0  0  0  0  0
  -22.7236  -10.2181   20.3053 C   0  0  0  0  0  0
  -21.6858   -6.0744   22.5280 C   0  0  0  0  0  0
  -21.4048   -6.5642   23.8226 C   0  0  0  0  0  0
  -21.3643   -5.6781   24.9172 C   0  0  0  0  0  0
  -21.6021   -4.3045   24.7216 C   0  0  0  0  0  0
  -21.8817   -3.8145   23.4344 C   0  0  0  0  0  0
  -21.9196   -4.6965   22.3398 C   0  0  0  0  0  0
  -22.7884  -13.5282   21.1864 C   0  0  0  0  0  0
  -22.1652   -4.2159   21.0970 F   0  0  0  0  0  0
  -21.5595   -3.4526   25.7725 F   0  0  0  0  0  0
  -30.0208  -13.4210   20.4320 N   0  0  0  0  0  0
  -26.3008  -12.9373   20.3303 N   0  0  0  0  0  0
  -25.9331  -11.6543   20.5747 N   0  0  0  0  0  0
  -22.0465  -12.8301   22.0384 N   0  0  0  0  0  0
  -25.4373  -15.1917   20.4075 N   0  0  0  0  0  0
  -31.7950  -14.8044   20.1037 O   0  0  0  0  0  0
  -21.6639   -6.8911   21.4249 O   0  0  0  0  0  0
  -22.3610  -14.5581   20.6679 O   0  0  0  0  0  0
  -24.6246  -31.8609   23.2032 C   0  0  0  0  0  0
  -25.9089  -32.4773   23.8361 C   0  0  1  0  0  0
  -27.2392  -27.3344   20.1107 C   0  0  0  0  0  0
  -25.5915  -33.8574   24.2275 N   0  0  0  0  0  0
  -23.4176  -30.4842   21.5478 C   0  0  2  0  0  0
  -24.8635  -28.9410   20.1190 C   0  0  0  0  0  0
  -22.7461  -29.4623   22.4954 C   0  0  0  0  0  0
  -18.0289  -28.1368   22.8478 C   0  0  0  0  0  0
  -24.1484  -36.7288   23.2627 C   0  0  0  0  0  0
  -25.9583  -30.7984   21.3712 C   0  0  0  0  0  0
  -26.0352  -29.4273   20.7129 C   0  0  0  0  0  0
  -27.2241  -28.6381   20.6950 C   0  0  0  0  0  0
  -26.0265  -26.8890   19.5258 C   0  0  0  0  0  0
  -24.8597  -27.6735   19.5242 C   0  0  0  0  0  0
  -23.6311  -29.8196   20.1643 C   0  0  0  0  0  0
  -25.4099  -36.3056   24.0322 C   0  0  1  0  0  0
  -20.5883  -28.3670   23.1274 C   0  0  2  0  0  0
  -20.6768  -26.9396   22.5392 C   0  0  0  0  0  0
  -19.5741  -26.6367   21.5194 C   0  0  0  0  0  0
  -18.1929  -26.7915   22.1618 C   0  0  0  0  0  0
  -19.1537  -28.8841   23.2871 C   0  0  0  0  0  0
  -18.9468  -30.1440   23.8889 C   0  0  0  0  0  0
  -17.6466  -30.6575   24.0557 C   0  0  0  0  0  0
  -25.9051  -34.9437   23.5104 C   0  0  0  0  0  0
  -16.5360  -29.9077   23.6320 C   0  0  0  0  0  0
  -16.7276  -28.6492   23.0358 C   0  0  0  0  0  0
  -26.4487  -31.6579   25.0721 C   0  0  0  0  0  0
  -25.3739  -31.3751   26.1472 C   0  0  0  0  0  0
  -27.0311  -30.2998   24.6156 C   0  0  0  0  0  0
  -27.6053  -32.4319   25.7469 C   0  0  0  0  0  0
  -27.5580  -37.1762   24.8434 C   0  0  0  0  0  0
  -21.4179  -29.3035   22.3681 N   0  0  0  0  0  0
  -26.4258  -37.3761   23.9427 N   0  0  0  0  0  0
  -24.6856  -31.0633   22.0990 N   0  0  0  0  0  0
  -23.4181  -28.8156   23.3030 O   0  0  0  0  0  0
  -28.3910  -26.5218   20.1356 O   0  0  0  0  0  0
  -26.5633  -34.8911   22.4672 O   0  0  0  0  0  0
  -23.5408  -32.1398   23.7382 O   0  0  0  0  0  0
  -30.8995  -19.2863   20.0052 C   0  0  0  0  0  0
  -30.8757  -17.8602   20.0419 C   0  0  0  0  0  0
  -30.0287  -20.0954   20.7892 C   0  0  0  0  0  0
  -29.1085  -19.3890   21.6181 C   0  0  0  0  0  0
  -29.0397  -17.9486   21.6095 C   0  0  0  0  0  0
  -29.9504  -17.1483   20.8507 C   0  0  0  0  0  0
  -27.7839  -23.2567   18.2633 C   0  0  0  0  0  0
  -28.2195  -24.7209   18.4274 C   0  0  0  0  0  0
  -28.8019  -22.2831   18.8888 C   0  0  0  0  0  0
  -29.3709  -24.0937   20.5398 C   0  0  0  0  0  0
  -28.2664  -25.0591   19.9288 C   0  0  1  0  0  0
  -28.2047  -20.1754   22.5639 C   0  0  0  0  0  0
  -27.9771  -17.2490   22.4580 C   0  0  0  0  0  0
  -30.2160  -21.6694   20.8261 C   0  0  0  0  0  0
  -29.8491  -15.6846   20.9174 N   0  0  0  0  0  0
  -29.1298  -22.5968   20.3066 N   0  3  2  0  0  0
  -31.4843  -12.5157   19.1556 H   0  0  0  0  0  0
  -30.3711  -11.4037   19.9061 H   0  0  0  0  0  0
  -29.7764  -11.7509   17.4840 H   0  0  0  0  0  0
  -29.6544  -13.4759   17.7453 H   0  0  0  0  0  0
  -27.8764  -11.2896   18.8760 H   0  0  0  0  0  0
  -27.3851  -12.5675   17.7936 H   0  0  0  0  0  0
  -27.6713  -14.2529   19.5173 H   0  0  0  0  0  0
  -28.7085  -12.0607   21.3789 H   0  0  0  0  0  0
  -28.4406  -13.7166   21.8411 H   0  0  0  0  0  0
  -25.2755   -9.5711   22.4789 H   0  0  0  0  0  0
  -23.9976   -7.4655   22.7444 H   0  0  0  0  0  0
  -21.0835   -8.8842   19.8928 H   0  0  0  0  0  0
  -22.3701  -10.9740   19.6177 H   0  0  0  0  0  0
  -21.2090   -7.6155   23.9753 H   0  0  0  0  0  0
  -21.1437   -6.0495   25.9076 H   0  0  0  0  0  0
  -22.0606   -2.7604   23.2849 H   0  0  0  0  0  0
  -22.4048  -11.9978   22.4827 H   0  0  0  0  0  0
  -21.1082  -13.1383   22.2524 H   0  0  0  0  0  0
  -24.6694  -15.8487   20.4975 H   0  0  0  0  0  0
  -26.2638  -15.6066   19.9986 H   0  0  0  0  0  0
  -26.7157  -32.5453   23.1110 H   0  0  0  0  0  0
  -25.0033  -33.9729   25.0402 H   0  0  0  0  0  0
  -22.7097  -31.3033   21.4057 H   0  0  0  0  0  0
  -23.3716  -35.9649   23.3285 H   0  0  0  0  0  0
  -24.3573  -36.8915   22.2040 H   0  0  0  0  0  0
  -23.7283  -37.6507   23.6664 H   0  0  0  0  0  0
  -26.0877  -31.5658   20.6057 H   0  0  0  0  0  0
  -26.8379  -30.8441   22.0021 H   0  0  0  0  0  0
  -28.1245  -29.0133   21.1638 H   0  0  0  0  0  0
  -25.9259  -25.9165   19.0749 H   0  0  0  0  0  0
  -23.9564  -27.2840   19.0744 H   0  0  0  0  0  0
  -23.7501  -30.5962   19.4085 H   0  0  0  0  0  0
  -22.7508  -29.2514   19.8593 H   0  0  0  0  0  0
  -25.1270  -36.1886   25.0809 H   0  0  0  0  0  0
  -20.9969  -28.3248   24.1396 H   0  0  0  0  0  0
  -20.5633  -26.2292   23.3595 H   0  0  0  0  0  0
  -21.6650  -26.7410   22.1211 H   0  0  0  0  0  0
  -19.6905  -25.6278   21.1226 H   0  0  0  0  0  0
  -19.6675  -27.3171   20.6718 H   0  0  0  0  0  0
  -17.4188  -26.6642   21.4034 H   0  0  0  0  0  0
  -18.0345  -26.0054   22.9011 H   0  0  0  0  0  0
  -19.7947  -30.7254   24.2254 H   0  0  0  0  0  0
  -17.5032  -31.6256   24.5156 H   0  0  0  0  0  0
  -15.5363  -30.2991   23.7640 H   0  0  0  0  0  0
  -15.8676  -28.0806   22.7099 H   0  0  0  0  0  0
  -24.5889  -30.7106   25.7846 H   0  0  0  0  0  0
  -24.8971  -32.2945   26.4896 H   0  0  0  0  0  0
  -25.8075  -30.8940   27.0246 H   0  0  0  0  0  0
  -26.2866  -29.6752   24.1203 H   0  0  0  0  0  0
  -27.4044  -29.7252   25.4642 H   0  0  0  0  0  0
  -27.8728  -30.4290   23.9346 H   0  0  0  0  0  0
  -27.2671  -33.3641   26.2011 H   0  0  0  0  0  0
  -28.3870  -32.6834   25.0288 H   0  0  0  0  0  0
  -28.0698  -31.8467   26.5413 H   0  0  0  0  0  0
  -28.2524  -38.0128   24.7566 H   0  0  0  0  0  0
  -28.1146  -36.2668   24.6124 H   0  0  0  0  0  0
  -27.2318  -37.1242   25.8835 H   0  0  0  0  0  0
  -20.9348  -29.8790   21.6926 H   0  0  0  0  0  0
  -26.0123  -38.2806   24.1508 H   0  0  0  0  0  0
  -31.6440  -19.7616   19.3804 H   0  0  0  0  0  0
  -31.5826  -17.3215   19.4259 H   0  0  0  0  0  0
  -27.6697  -23.0242   17.2050 H   0  0  0  0  0  0
  -26.7998  -23.1104   18.7126 H   0  0  0  0  0  0
  -27.5545  -25.3736   17.8684 H   0  0  0  0  0  0
  -29.2040  -24.8693   17.9815 H   0  0  0  0  0  0
  -29.7171  -22.2888   18.2950 H   0  0  0  0  0  0
  -28.4040  -21.2676   18.8378 H   0  0  0  0  0  0
  -29.4505  -24.2762   21.6124 H   0  0  0  0  0  0
  -30.3406  -24.3613   20.1178 H   0  0  0  0  0  0
  -27.3316  -24.7608   20.4055 H   0  0  0  0  0  0
  -28.6040  -21.1541   22.8228 H   0  0  0  0  0  0
  -28.0808  -19.6576   23.5158 H   0  0  0  0  0  0
  -27.2207  -20.3185   22.1180 H   0  0  0  0  0  0
  -27.0541  -17.8265   22.5132 H   0  0  0  0  0  0
  -28.3498  -17.0926   23.4711 H   0  0  0  0  0  0
  -27.6799  -16.2840   22.0507 H   0  0  0  0  0  0
  -31.1226  -21.9041   20.2655 H   0  0  0  0  0  0
  -30.4567  -21.9525   21.8516 H   0  0  0  0  0  0
  -28.9765  -15.3591   21.2995 H   0  0  0  0  0  0
  -28.3020  -22.3781   20.8397 H   0  0  0  0  0  0
  1 25  1  0  0  0
  1 30  2  0  0  0
  1 85  1  0  0  0
  2  3  1  0  0  0
  2 25  1  0  0  0
  2 87  1  0  0  0
  2 88  1  0  0  0
  3  4  1  0  0  0
  3 89  1  0  0  0
  3 90  1  0  0  0
  4  5  1  0  0  0
  4 91  1  0  0  0
  4 92  1  0  0  0
  5  6  1  0  0  0
  5 26  1  0  0  0
  5 93  1  0  0  0
  6 25  1  0  0  0
  6 94  1  0  0  0
  6 95  1  0  0  0
  7  8  2  0  0  0
  7 26  1  0  0  0
  7 29  1  0  0  0
  8  9  1  0  0  0
  8 22  1  0  0  0
  9 10  1  0  0  0
  9 27  2  0  0  0
 10 11  2  0  0  0
 10 15  1  0  0  0
 11 12  1  0  0  0
 11 96  1  0  0  0
 12 13  2  0  0  0
 12 97  1  0  0  0
 13 14  1  0  0  0
 13 31  1  0  0  0
 14 15  2  0  0  0
 14 98  1  0  0  0
 15 99  1  0  0  0
 16 17  2  0  0  0
 16 21  1  0  0  0
 16 31  1  0  0  0
 17 18  1  0  0  0
 17100  1  0  0  0
 18 19  2  0  0  0
 18101  1  0  0  0
 19 20  1  0  0  0
 19 24  1  0  0  0
 20 21  2  0  0  0
 20102  1  0  0  0
 21 23  1  0  0  0
 22 28  1  0  0  0
 22 32  2  0  0  0
 26 27  1  0  0  0
 28103  1  0  0  0
 28104  1  0  0  0
 29105  1  0  0  0
 29106  1  0  0  0
 33 34  1  0  0  0
 33 66  1  0  0  0
 33 70  2  0  0  0
 34 36  1  0  0  0
 34 59  1  0  0  0
 34107  1  0  0  0
 35 44  2  0  0  0
 35 45  1  0  0  0
 35 68  1  0  0  0
 36 56  1  0  0  0
 36108  1  0  0  0
 37 39  1  0  0  0
 37 47  1  0  0  0
 37 66  1  0  0  0
 37109  1  0  0  0
 38 43  2  0  0  0
 38 46  1  0  0  0
 38 47  1  0  0  0
 39 64  1  0  0  0
 39 67  2  0  0  0
 40 52  1  0  0  0
 40 53  2  0  0  0
 40 58  1  0  0  0
 41110  1  0  0  0
 41111  1  0  0  0
 41112  1  0  0  0
 41 48  1  0  0  0
 42 43  1  0  0  0
 42 66  1  0  0  0
 42113  1  0  0  0
 42114  1  0  0  0
 43 44  1  0  0  0
 44115  1  0  0  0
 45 46  2  0  0  0
 45116  1  0  0  0
 46117  1  0  0  0
 47118  1  0  0  0
 47119  1  0  0  0
 48 56  1  0  0  0
 48 65  1  0  0  0
 48120  1  0  0  0
 49 50  1  0  0  0
 49 53  1  0  0  0
 49 64  1  0  0  0
 49121  1  0  0  0
 50 51  1  0  0  0
 50122  1  0  0  0
 50123  1  0  0  0
 51 52  1  0  0  0
 51124  1  0  0  0
 51125  1  0  0  0
 52126  1  0  0  0
 52127  1  0  0  0
 53 54  1  0  0  0
 54 55  2  0  0  0
 54128  1  0  0  0
 55 57  1  0  0  0
 55129  1  0  0  0
 56 69  2  0  0  0
 57 58  2  0  0  0
 57130  1  0  0  0
 58131  1  0  0  0
 59 60  1  0  0  0
 59 61  1  0  0  0
 59 62  1  0  0  0
 60132  1  0  0  0
 60133  1  0  0  0
 60134  1  0  0  0
 61135  1  0  0  0
 61136  1  0  0  0
 61137  1  0  0  0
 62138  1  0  0  0
 62139  1  0  0  0
 62140  1  0  0  0
 63 65  1  0  0  0
 63141  1  0  0  0
 63142  1  0  0  0
 63143  1  0  0  0
 64144  1  0  0  0
 65145  1  0  0  0
 68 81  1  0  0  0
 71 72  2  0  0  0
 71 73  1  0  0  0
 71146  1  0  0  0
 72 76  1  0  0  0
 72147  1  0  0  0
 73 74  2  0  0  0
 73 84  1  0  0  0
 74 75  1  0  0  0
 74 82  1  0  0  0
 75 76  2  0  0  0
 75 83  1  0  0  0
 76 85  1  0  0  0
 77 78  1  0  0  0
 77 79  1  0  0  0
 77148  1  0  0  0
 77149  1  0  0  0
 78 81  1  0  0  0
 78150  1  0  0  0
 78151  1  0  0  0
 79 86  1  0  0  0
 79152  1  0  0  0
 79153  1  0  0  0
 80 81  1  0  0  0
 80 86  1  0  0  0
 80154  1  0  0  0
 80155  1  0  0  0
 81156  1  0  0  0
 82157  1  0  0  0
 82158  1  0  0  0
 82159  1  0  0  0
 83160  1  0  0  0
 83161  1  0  0  0
 83162  1  0  0  0
 84163  1  0  0  0
 84164  1  0  0  0
 84 86  1  0  0  0
 85165  1  0  0  0
 86166  1  0  0  0
M  CHG  1  86   1
M  ISO  4   1 100  68 101  81 101  85 100
M  END
> <chiral flag>
0

> <version>
0

> <s_m_source_file>
/data/baiqing/PycharmProjects/Reinvent-master-3.2/result/LINK_invent/BTK/process_docking_weight1_custom_product_contain_oxygen_bond_distance_aromatic_linkinvent_7_9_3/rearranged_h_0041.sdf

> <i_m_source_file_index>
15

> <r_mmod_Potential_Energy-OPLS-2005>
-27.9737911224365

> <r_mmod_Stretch_Energy-OPLS-2005>
87.2339477539062

> <r_mmod_Bend_Energy-OPLS-2005>
148.20637512207

> <r_mmod_Torsional_Energy-OPLS-2005>
230.200042724609

> <r_mmod_Improper_Torsional_Energy-OPLS-2005>
4.16231679916382

> <r_mmod_Van_der_Waal_Energy-OPLS-2005>
156.45051574707

> <r_mmod_Electrostatic_Energy-OPLS-2005>
-274.951416015625

> <r_mmod_Solvation_Energy-OPLS-2005>
-423.326446533203

> <b_mmod_Minimization_Converged-OPLS-2005>
0

> <r_mmod_RMS_Derivative-OPLS-2005>
3.494389295578

$$$$
15
                    3D
 Structure written by MMmdl.
162170  0  0  1  0            999 V2000
  -30.6964  -14.4353   20.6004 C   0  0  0  0  0  0
  -30.4304  -12.2926   19.4038 C   0  0  0  0  0  0
  -29.4933  -12.5081   18.1967 C   0  0  0  0  0  0
  -28.0127  -12.3751   18.6095 C   0  0  0  0  0  0
  -27.6678  -13.1972   19.8798 C   0  0  2  0  0  0
  -28.7089  -12.9293   20.9896 C   0  0  0  0  0  0
  -25.2619  -13.8140   20.5648 C   0  0  0  0  0  0
  -24.1859  -13.0439   20.9166 C   0  0  0  0  0  0
  -24.6395  -11.6898   20.8740 C   0  0  0  0  0  0
  -23.9057  -10.4290   21.0408 C   0  0  0  0  0  0
  -24.3609   -9.4208   21.9188 C   0  0  0  0  0  0
  -23.6289   -8.2245   22.0758 C   0  0  0  0  0  0
  -22.4272   -8.0279   21.3545 C   0  0  0  0  0  0
  -21.9904   -9.0253   20.4649 C   0  0  0  0  0  0
  -22.7233  -10.2135   20.3057 C   0  0  0  0  0  0
  -21.6849   -6.0735   22.5274 C   0  0  0  0  0  0
  -21.4012   -6.5641   23.8210 C   0  0  0  0  0  0
  -21.3661   -5.6797   24.9175 C   0  0  0  0  0  0
  -21.6040   -4.3057   24.7225 C   0  0  0  0  0  0
  -21.8822   -3.8146   23.4349 C   0  0  0  0  0  0
  -21.9196   -4.6963   22.3402 C   0  0  0  0  0  0
  -22.7885  -13.5250   21.1837 C   0  0  0  0  0  0
  -22.1662   -4.2150   21.0978 F   0  0  0  0  0  0
  -21.5634   -3.4535   25.7741 F   0  0  0  0  0  0
  -30.0446  -13.2505   20.4492 N   0  0  0  0  0  0
  -26.3053  -12.9290   20.3379 N   0  0  0  0  0  0
  -25.9319  -11.6459   20.5775 N   0  0  0  0  0  0
  -22.0518  -12.8241   22.0385 N   0  0  0  0  0  0
  -25.4355  -15.1844   20.3997 N   0  0  0  0  0  0
  -31.7972  -14.6627   20.0890 O   0  0  0  0  0  0
  -21.6638   -6.8874   21.4237 O   0  0  0  0  0  0
  -22.3577  -14.5564   20.6694 O   0  0  0  0  0  0
  -24.6122  -31.8688   23.2110 C   0  0  0  0  0  0
  -25.9009  -32.4837   23.8406 C   0  0  1  0  0  0
  -27.2401  -27.4586   20.0959 C   0  0  0  0  0  0
  -25.5867  -33.8631   24.2343 N   0  0  0  0  0  0
  -23.4007  -30.4908   21.5498 C   0  0  2  0  0  0
  -24.8495  -28.9530   20.1214 C   0  0  0  0  0  0
  -22.7408  -29.4651   22.4993 C   0  0  0  0  0  0
  -18.0272  -28.1381   22.8510 C   0  0  0  0  0  0
  -24.1481  -36.7318   23.2639 C   0  0  0  0  0  0
  -25.9259  -30.8427   21.3583 C   0  0  0  0  0  0
  -26.0059  -29.4738   20.7164 C   0  0  0  0  0  0
  -27.2065  -28.7308   20.7054 C   0  0  0  0  0  0
  -26.0711  -26.9395   19.5049 C   0  0  0  0  0  0
  -24.8734  -27.6823   19.5170 C   0  0  0  0  0  0
  -23.6105  -29.8191   20.1662 C   0  0  0  0  0  0
  -25.4100  -36.3121   24.0348 C   0  0  1  0  0  0
  -20.5862  -28.3651   23.1339 C   0  0  2  0  0  0
  -20.6762  -26.9386   22.5427 C   0  0  0  0  0  0
  -19.5736  -26.6387   21.5221 C   0  0  0  0  0  0
  -18.1912  -26.7935   22.1629 C   0  0  0  0  0  0
  -19.1522  -28.8831   23.2926 C   0  0  0  0  0  0
  -18.9453  -30.1444   23.8922 C   0  0  0  0  0  0
  -17.6453  -30.6588   24.0575 C   0  0  0  0  0  0
  -25.9013  -34.9484   23.5142 C   0  0  0  0  0  0
  -16.5344  -29.9103   23.6327 C   0  0  0  0  0  0
  -16.7257  -28.6520   23.0346 C   0  0  0  0  0  0
  -26.4448  -31.6613   25.0725 C   0  0  0  0  0  0
  -25.3729  -31.3717   26.1486 C   0  0  0  0  0  0
  -27.0266  -30.3074   24.6050 C   0  0  0  0  0  0
  -27.6035  -32.4316   25.7480 C   0  0  0  0  0  0
  -27.5581  -37.1812   24.8468 C   0  0  0  0  0  0
  -21.4134  -29.3033   22.3758 N   0  0  0  0  0  0
  -26.4291  -37.3805   23.9418 N   0  0  0  0  0  0
  -24.6645  -31.0815   22.0994 N   0  0  0  0  0  0
  -23.4198  -28.8176   23.3006 O   0  0  0  0  0  0
  -28.4090  -26.7441   20.0256 O   0  0  0  0  0  0
  -26.5586  -34.8933   22.4710 O   0  0  0  0  0  0
  -23.5317  -32.1410   23.7527 O   0  0  0  0  0  0
  -31.1210  -18.9264   20.8565 C   0  0  0  0  0  0
  -31.0851  -17.5255   20.7306 C   0  0  0  0  0  0
  -30.1495  -19.6130   21.6136 C   0  0  0  0  0  0
  -29.0928  -18.8753   22.2121 C   0  0  0  0  0  0
  -29.0774  -17.4543   22.1184 C   0  0  0  0  0  0
  -30.0783  -16.7698   21.3757 C   0  0  0  0  0  0
  -27.9861  -19.5901   22.9858 C   0  0  0  0  0  0
  -27.9780  -16.6651   22.8335 C   0  0  0  0  0  0
  -30.3326  -21.1163   21.8526 C   0  0  0  0  0  0
  -28.7966  -24.3611   20.4362 C   0  0  0  0  0  0
  -29.3935  -23.3645   21.4551 C   0  0  0  0  0  0
  -28.5920  -25.7650   21.0468 C   0  0  0  0  0  0
  -30.0002  -15.3447   21.3055 N   0  0  0  0  0  0
  -29.5622  -21.9842   20.9323 N   0  3  0  0  0  0
  -31.4725  -12.4046   19.0996 H   0  0  0  0  0  0
  -30.3403  -11.2733   19.7811 H   0  0  0  0  0  0
  -29.7249  -11.7890   17.4094 H   0  0  0  0  0  0
  -29.6659  -13.4961   17.7666 H   0  0  0  0  0  0
  -27.8111  -11.3183   18.7874 H   0  0  0  0  0  0
  -27.3650  -12.6709   17.7833 H   0  0  0  0  0  0
  -27.7271  -14.2517   19.6087 H   0  0  0  0  0  0
  -28.6825  -11.8775   21.2795 H   0  0  0  0  0  0
  -28.4627  -13.4752   21.9006 H   0  0  0  0  0  0
  -25.2754   -9.5689   22.4760 H   0  0  0  0  0  0
  -24.0001   -7.4635   22.7470 H   0  0  0  0  0  0
  -21.0841   -8.8770   19.8948 H   0  0  0  0  0  0
  -22.3692  -10.9674   19.6164 H   0  0  0  0  0  0
  -21.1993   -7.6149   23.9715 H   0  0  0  0  0  0
  -21.1481   -6.0523   25.9080 H   0  0  0  0  0  0
  -22.0598   -2.7607   23.2846 H   0  0  0  0  0  0
  -22.4117  -11.9891   22.4763 H   0  0  0  0  0  0
  -21.1136  -13.1274   22.2586 H   0  0  0  0  0  0
  -24.6692  -15.8413   20.4931 H   0  0  0  0  0  0
  -26.2869  -15.6143   20.0605 H   0  0  0  0  0  0
  -26.7087  -32.5558   23.1179 H   0  0  0  0  0  0
  -25.0031  -33.9803   25.0499 H   0  0  0  0  0  0
  -22.6889  -31.3063   21.4089 H   0  0  0  0  0  0
  -23.3738  -35.9653   23.3305 H   0  0  0  0  0  0
  -24.3583  -36.8923   22.2053 H   0  0  0  0  0  0
  -23.7237  -37.6530   23.6642 H   0  0  0  0  0  0
  -26.0258  -31.6038   20.5831 H   0  0  0  0  0  0
  -26.8190  -30.9086   21.9670 H   0  0  0  0  0  0
  -28.1046  -29.1332   21.1533 H   0  0  0  0  0  0
  -26.0945  -25.9690   19.0286 H   0  0  0  0  0  0
  -23.9829  -27.2765   19.0565 H   0  0  0  0  0  0
  -23.7203  -30.5925   19.4047 H   0  0  0  0  0  0
  -22.7368  -29.2360   19.8688 H   0  0  0  0  0  0
  -25.1275  -36.1983   25.0843 H   0  0  0  0  0  0
  -20.9952  -28.3187   24.1459 H   0  0  0  0  0  0
  -20.5660  -26.2243   23.3604 H   0  0  0  0  0  0
  -21.6628  -26.7430   22.1202 H   0  0  0  0  0  0
  -19.6889  -25.6303   21.1227 H   0  0  0  0  0  0
  -19.6680  -27.3226   20.6772 H   0  0  0  0  0  0
  -17.4187  -26.6698   21.4024 H   0  0  0  0  0  0
  -18.0298  -26.0085   22.9025 H   0  0  0  0  0  0
  -19.7929  -30.7269   24.2287 H   0  0  0  0  0  0
  -17.5012  -31.6272   24.5176 H   0  0  0  0  0  0
  -15.5346  -30.3017   23.7644 H   0  0  0  0  0  0
  -15.8658  -28.0860   22.7028 H   0  0  0  0  0  0
  -24.5884  -30.7078   25.7833 H   0  0  0  0  0  0
  -24.8927  -32.2871   26.4951 H   0  0  0  0  0  0
  -25.8083  -30.8877   27.0231 H   0  0  0  0  0  0
  -26.2797  -29.6862   24.1093 H   0  0  0  0  0  0
  -27.4065  -29.7277   25.4466 H   0  0  0  0  0  0
  -27.8608  -30.4429   23.9166 H   0  0  0  0  0  0
  -27.2668  -33.3608   26.2085 H   0  0  0  0  0  0
  -28.3827  -32.6881   25.0293 H   0  0  0  0  0  0
  -28.0713  -31.8419   26.5373 H   0  0  0  0  0  0
  -28.2593  -38.0115   24.7519 H   0  0  0  0  0  0
  -28.1079  -36.2646   24.6270 H   0  0  0  0  0  0
  -27.2306  -37.1440   25.8874 H   0  0  0  0  0  0
  -20.9275  -29.8786   21.7013 H   0  0  0  0  0  0
  -26.0175  -38.2879   24.1431 H   0  0  0  0  0  0
  -31.9285  -19.4712   20.3863 H   0  0  0  0  0  0
  -31.8619  -17.0579   20.1448 H   0  0  0  0  0  0
  -28.1870  -19.5493   24.0563 H   0  0  0  0  0  0
  -27.0165  -19.1274   22.8005 H   0  0  0  0  0  0
  -27.8683  -20.6343   22.7054 H   0  0  0  0  0  0
  -27.0759  -16.6360   22.2231 H   0  0  0  0  0  0
  -27.7230  -17.1161   23.7919 H   0  0  0  0  0  0
  -28.2599  -15.6405   23.0693 H   0  0  0  0  0  0
  -31.3905  -21.3696   21.7686 H   0  0  0  0  0  0
  -30.0703  -21.3362   22.8887 H   0  0  0  0  0  0
  -27.8443  -23.9911   20.0543 H   0  0  0  0  0  0
  -29.4669  -24.4380   19.5792 H   0  0  0  0  0  0
  -28.7611  -23.3286   22.3441 H   0  0  0  0  0  0
  -30.3660  -23.7384   21.7811 H   0  0  0  0  0  0
  -29.4789  -26.0565   21.6106 H   0  0  0  0  0  0
  -27.7675  -25.7501   21.7634 H   0  0  0  0  0  0
  -29.1746  -14.9543   21.7295 H   0  0  0  0  0  0
  -28.6585  -21.5713   20.7731 H   0  0  0  0  0  0
  -30.0457  -22.0104   20.0497 H   0  0  0  0  0  0
  1 25  1  0  0  0
  1 30  2  0  0  0
  1 83  1  0  0  0
  2  3  1  0  0  0
  2 25  1  0  0  0
  2 85  1  0  0  0
  2 86  1  0  0  0
  3  4  1  0  0  0
  3 87  1  0  0  0
  3 88  1  0  0  0
  4  5  1  0  0  0
  4 89  1  0  0  0
  4 90  1  0  0  0
  5  6  1  0  0  0
  5 26  1  0  0  0
  5 91  1  0  0  0
  6 25  1  0  0  0
  6 92  1  0  0  0
  6 93  1  0  0  0
  7  8  2  0  0  0
  7 26  1  0  0  0
  7 29  1  0  0  0
  8  9  1  0  0  0
  8 22  1  0  0  0
  9 10  1  0  0  0
  9 27  2  0  0  0
 10 11  2  0  0  0
 10 15  1  0  0  0
 11 12  1  0  0  0
 11 94  1  0  0  0
 12 13  2  0  0  0
 12 95  1  0  0  0
 13 14  1  0  0  0
 13 31  1  0  0  0
 14 15  2  0  0  0
 14 96  1  0  0  0
 15 97  1  0  0  0
 16 17  2  0  0  0
 16 21  1  0  0  0
 16 31  1  0  0  0
 17 18  1  0  0  0
 17 98  1  0  0  0
 18 19  2  0  0  0
 18 99  1  0  0  0
 19 20  1  0  0  0
 19 24  1  0  0  0
 20 21  2  0  0  0
 20100  1  0  0  0
 21 23  1  0  0  0
 22 28  1  0  0  0
 22 32  2  0  0  0
 26 27  1  0  0  0
 28101  1  0  0  0
 28102  1  0  0  0
 29103  1  0  0  0
 29104  1  0  0  0
 33 34  1  0  0  0
 33 66  1  0  0  0
 33 70  2  0  0  0
 34 36  1  0  0  0
 34 59  1  0  0  0
 34105  1  0  0  0
 35 44  2  0  0  0
 35 45  1  0  0  0
 35 68  1  0  0  0
 36 56  1  0  0  0
 36106  1  0  0  0
 37 39  1  0  0  0
 37 47  1  0  0  0
 37 66  1  0  0  0
 37107  1  0  0  0
 38 43  2  0  0  0
 38 46  1  0  0  0
 38 47  1  0  0  0
 39 64  1  0  0  0
 39 67  2  0  0  0
 40 52  1  0  0  0
 40 53  2  0  0  0
 40 58  1  0  0  0
 41108  1  0  0  0
 41109  1  0  0  0
 41110  1  0  0  0
 41 48  1  0  0  0
 42 43  1  0  0  0
 42 66  1  0  0  0
 42111  1  0  0  0
 42112  1  0  0  0
 43 44  1  0  0  0
 44113  1  0  0  0
 45 46  2  0  0  0
 45114  1  0  0  0
 46115  1  0  0  0
 47116  1  0  0  0
 47117  1  0  0  0
 48 56  1  0  0  0
 48 65  1  0  0  0
 48118  1  0  0  0
 49 50  1  0  0  0
 49 53  1  0  0  0
 49 64  1  0  0  0
 49119  1  0  0  0
 50 51  1  0  0  0
 50120  1  0  0  0
 50121  1  0  0  0
 51 52  1  0  0  0
 51122  1  0  0  0
 51123  1  0  0  0
 52124  1  0  0  0
 52125  1  0  0  0
 53 54  1  0  0  0
 54 55  2  0  0  0
 54126  1  0  0  0
 55 57  1  0  0  0
 55127  1  0  0  0
 56 69  2  0  0  0
 57 58  2  0  0  0
 57128  1  0  0  0
 58129  1  0  0  0
 59 60  1  0  0  0
 59 61  1  0  0  0
 59 62  1  0  0  0
 60130  1  0  0  0
 60131  1  0  0  0
 60132  1  0  0  0
 61133  1  0  0  0
 61134  1  0  0  0
 61135  1  0  0  0
 62136  1  0  0  0
 62137  1  0  0  0
 62138  1  0  0  0
 63 65  1  0  0  0
 63139  1  0  0  0
 63140  1  0  0  0
 63141  1  0  0  0
 64142  1  0  0  0
 65143  1  0  0  0
 68 82  1  0  0  0
 71 72  2  0  0  0
 71 73  1  0  0  0
 71144  1  0  0  0
 72 76  1  0  0  0
 72145  1  0  0  0
 73 74  2  0  0  0
 73 79  1  0  0  0
 74 75  1  0  0  0
 74 77  1  0  0  0
 75 76  2  0  0  0
 75 78  1  0  0  0
 76 83  1  0  0  0
 77146  1  0  0  0
 77147  1  0  0  0
 77148  1  0  0  0
 78149  1  0  0  0
 78150  1  0  0  0
 78151  1  0  0  0
 79 84  1  0  0  0
 79152  1  0  0  0
 79153  1  0  0  0
 80 81  1  0  0  0
 80 82  1  0  0  0
 80154  1  0  0  0
 80155  1  0  0  0
 81 84  1  0  0  0
 81156  1  0  0  0
 81157  1  0  0  0
 82158  1  0  0  0
 82159  1  0  0  0
 83160  1  0  0  0
 84161  1  0  0  0
 84162  1  0  0  0
M  CHG  1  84   1
M  ISO  4   1 100  68 101  82 101  83 100
M  END
> <chiral flag>
0

> <version>
0

> <s_m_source_file>
/data/baiqing/PycharmProjects/Reinvent-master-3.2/result/LINK_invent/BTK/process_docking_weight1_custom_product_contain_oxygen_bond_distance_aromatic_linkinvent_7_9_3/rearranged_h_0041.sdf

> <i_m_source_file_index>
16

> <r_mmod_Potential_Energy-OPLS-2005>
-262.420867919922

> <r_mmod_Stretch_Energy-OPLS-2005>
37.091365814209

> <r_mmod_Bend_Energy-OPLS-2005>
99.1379165649414

> <r_mmod_Torsional_Energy-OPLS-2005>
228.285842895508

> <r_mmod_Improper_Torsional_Energy-OPLS-2005>
3.01970148086548

> <r_mmod_Van_der_Waal_Energy-OPLS-2005>
158.973754882812

> <r_mmod_Electrostatic_Energy-OPLS-2005>
-332.604217529297

> <r_mmod_Solvation_Energy-OPLS-2005>
-464.633117675781

> <b_mmod_Minimization_Converged-OPLS-2005>
0

> <r_mmod_RMS_Derivative-OPLS-2005>
1.54209303855896

$$$$
16
                    3D
 Structure written by MMmdl.
167176  0  0  1  0            999 V2000
  -30.6036  -14.6351   20.5091 C   0  0  0  0  0  0
  -30.4419  -12.3875   19.4513 C   0  0  0  0  0  0
  -29.5110  -12.5157   18.2238 C   0  0  0  0  0  0
  -28.0326  -12.3539   18.6318 C   0  0  0  0  0  0
  -27.6576  -13.2131   19.8681 C   0  0  2  0  0  0
  -28.6998  -13.0422   20.9966 C   0  0  0  0  0  0
  -25.2565  -13.8152   20.5640 C   0  0  0  0  0  0
  -24.1835  -13.0425   20.9171 C   0  0  0  0  0  0
  -24.6403  -11.6900   20.8732 C   0  0  0  0  0  0
  -23.9070  -10.4286   21.0405 C   0  0  0  0  0  0
  -24.3621   -9.4201   21.9177 C   0  0  0  0  0  0
  -23.6295   -8.2237   22.0761 C   0  0  0  0  0  0
  -22.4271   -8.0280   21.3553 C   0  0  0  0  0  0
  -21.9909   -9.0251   20.4647 C   0  0  0  0  0  0
  -22.7247  -10.2126   20.3054 C   0  0  0  0  0  0
  -21.6857   -6.0729   22.5280 C   0  0  0  0  0  0
  -21.4016   -6.5632   23.8215 C   0  0  0  0  0  0
  -21.3665   -5.6787   24.9176 C   0  0  0  0  0  0
  -21.6046   -4.3052   24.7224 C   0  0  0  0  0  0
  -21.8825   -3.8143   23.4347 C   0  0  0  0  0  0
  -21.9199   -4.6957   22.3402 C   0  0  0  0  0  0
  -22.7859  -13.5222   21.1842 C   0  0  0  0  0  0
  -22.1667   -4.2141   21.0979 F   0  0  0  0  0  0
  -21.5629   -3.4539   25.7735 F   0  0  0  0  0  0
  -30.0183  -13.3959   20.4442 N   0  0  0  0  0  0
  -26.3012  -12.9337   20.3328 N   0  0  0  0  0  0
  -25.9338  -11.6498   20.5754 N   0  0  0  0  0  0
  -22.0515  -12.8210   22.0406 N   0  0  0  0  0  0
  -25.4232  -15.1857   20.3956 N   0  0  0  0  0  0
  -31.7463  -14.8282   20.0824 O   0  0  0  0  0  0
  -21.6648   -6.8871   21.4240 O   0  0  0  0  0  0
  -22.3534  -14.5523   20.6699 O   0  0  0  0  0  0
  -24.6247  -31.8597   23.2007 C   0  0  0  0  0  0
  -25.9092  -32.4779   23.8336 C   0  0  1  0  0  0
  -27.2283  -27.3329   20.1290 C   0  0  0  0  0  0
  -25.5911  -33.8577   24.2276 N   0  0  0  0  0  0
  -23.4177  -30.4805   21.5432 C   0  0  2  0  0  0
  -24.8646  -28.9253   20.1206 C   0  0  0  0  0  0
  -22.7461  -29.4625   22.4949 C   0  0  0  0  0  0
  -18.0282  -28.1393   22.8485 C   0  0  0  0  0  0
  -24.1491  -36.7300   23.2640 C   0  0  0  0  0  0
  -25.9551  -30.7966   21.3650 C   0  0  0  0  0  0
  -26.0312  -29.4197   20.7183 C   0  0  0  0  0  0
  -27.2198  -28.6358   20.7082 C   0  0  0  0  0  0
  -26.0432  -26.8735   19.5210 C   0  0  0  0  0  0
  -24.8697  -27.6560   19.5153 C   0  0  0  0  0  0
  -23.6322  -29.8063   20.1621 C   0  0  0  0  0  0
  -25.4115  -36.3086   24.0335 C   0  0  1  0  0  0
  -20.5878  -28.3695   23.1288 C   0  0  2  0  0  0
  -20.6772  -26.9415   22.5415 C   0  0  0  0  0  0
  -19.5752  -26.6387   21.5215 C   0  0  0  0  0  0
  -18.1927  -26.7933   22.1622 C   0  0  0  0  0  0
  -19.1533  -28.8860   23.2881 C   0  0  0  0  0  0
  -18.9459  -30.1458   23.8901 C   0  0  0  0  0  0
  -17.6461  -30.6594   24.0567 C   0  0  0  0  0  0
  -25.9049  -34.9451   23.5112 C   0  0  0  0  0  0
  -16.5352  -29.9097   23.6327 C   0  0  0  0  0  0
  -16.7268  -28.6514   23.0348 C   0  0  0  0  0  0
  -26.4477  -31.6576   25.0702 C   0  0  0  0  0  0
  -25.3711  -31.3719   26.1431 C   0  0  0  0  0  0
  -27.0301  -30.2999   24.6126 C   0  0  0  0  0  0
  -27.6036  -32.4290   25.7490 C   0  0  0  0  0  0
  -27.5581  -37.1808   24.8462 C   0  0  0  0  0  0
  -21.4180  -29.3044   22.3688 N   0  0  0  0  0  0
  -26.4294  -37.3780   23.9406 N   0  0  0  0  0  0
  -24.6849  -31.0623   22.0944 N   0  0  0  0  0  0
  -23.4189  -28.8172   23.3031 O   0  0  0  0  0  0
  -28.3693  -26.5308   20.0847 O   0  0  0  0  0  0
  -26.5622  -34.8925   22.4682 O   0  0  0  0  0  0
  -23.5417  -32.1383   23.7349 O   0  0  0  0  0  0
  -28.4165  -19.2042   20.9859 C   0  0  0  0  0  0
  -30.6057  -17.8303   19.9253 C   0  0  0  0  0  0
  -29.2864  -19.9476   20.1509 C   0  0  0  0  0  0
  -28.6167  -17.8232   21.2835 C   0  0  0  0  0  0
  -30.4123  -19.2218   19.6433 C   0  0  0  0  0  0
  -29.7044  -17.0815   20.7284 C   0  0  0  0  0  0
  -30.1309  -22.8226   21.4544 C   0  0  0  0  0  0
  -30.6170  -21.8876   22.2893 C   0  0  0  0  0  0
  -30.6982  -24.2312   21.3273 C   0  0  0  0  0  0
  -29.6466  -25.2970   21.6880 C   0  0  0  0  0  0
  -28.3886  -23.8998   19.9368 C   0  0  0  0  0  0
  -28.3848  -25.2395   20.8005 C   0  0  2  0  0  0
  -27.6074  -17.1755   22.2206 C   0  0  0  0  0  0
  -31.4255  -19.9043   18.7377 C   0  0  0  0  0  0
  -28.9131  -21.4214   19.6891 C   0  0  0  0  0  0
  -29.7960  -15.6391   20.9752 N   0  0  0  0  0  0
  -28.8808  -22.6219   20.6304 N   0  3  2  0  0  0
  -31.4825  -12.5171   19.1500 H   0  0  0  0  0  0
  -30.3790  -11.3854   19.8775 H   0  0  0  0  0  0
  -29.7746  -11.7733   17.4699 H   0  0  0  0  0  0
  -29.6587  -13.4899   17.7543 H   0  0  0  0  0  0
  -27.8660  -11.2994   18.8511 H   0  0  0  0  0  0
  -27.3822  -12.5962   17.7906 H   0  0  0  0  0  0
  -27.6836  -14.2526   19.5411 H   0  0  0  0  0  0
  -28.7087  -12.0116   21.3541 H   0  0  0  0  0  0
  -28.4391  -13.6491   21.8651 H   0  0  0  0  0  0
  -25.2774   -9.5672   22.4731 H   0  0  0  0  0  0
  -24.0016   -7.4631   22.7478 H   0  0  0  0  0  0
  -21.0849   -8.8763   19.8939 H   0  0  0  0  0  0
  -22.3721  -10.9656   19.6146 H   0  0  0  0  0  0
  -21.2004   -7.6142   23.9711 H   0  0  0  0  0  0
  -21.1486   -6.0519   25.9077 H   0  0  0  0  0  0
  -22.0599   -2.7607   23.2852 H   0  0  0  0  0  0
  -22.4165  -11.9871   22.4776 H   0  0  0  0  0  0
  -21.1124  -13.1199   22.2609 H   0  0  0  0  0  0
  -24.6446  -15.8293   20.4776 H   0  0  0  0  0  0
  -26.2588  -15.6229   20.0289 H   0  0  0  0  0  0
  -26.7169  -32.5454   23.1091 H   0  0  0  0  0  0
  -25.0026  -33.9715   25.0401 H   0  0  0  0  0  0
  -22.7117  -31.3002   21.3970 H   0  0  0  0  0  0
  -23.3747  -35.9634   23.3301 H   0  0  0  0  0  0
  -24.3584  -36.8918   22.2051 H   0  0  0  0  0  0
  -23.7244  -37.6507   23.6660 H   0  0  0  0  0  0
  -26.0754  -31.5543   20.5898 H   0  0  0  0  0  0
  -26.8405  -30.8545   21.9864 H   0  0  0  0  0  0
  -28.1236  -29.0192   21.1600 H   0  0  0  0  0  0
  -26.0243  -25.9040   19.0435 H   0  0  0  0  0  0
  -23.9746  -27.2723   19.0448 H   0  0  0  0  0  0
  -23.7506  -30.5778   19.4004 H   0  0  0  0  0  0
  -22.7523  -29.2332   19.8628 H   0  0  0  0  0  0
  -25.1296  -36.1944   25.0825 H   0  0  0  0  0  0
  -20.9968  -28.3270   24.1412 H   0  0  0  0  0  0
  -20.5675  -26.2303   23.3614 H   0  0  0  0  0  0
  -21.6643  -26.7447   22.1211 H   0  0  0  0  0  0
  -19.6916  -25.6298   21.1246 H   0  0  0  0  0  0
  -19.6695  -27.3197   20.6743 H   0  0  0  0  0  0
  -17.4197  -26.6672   21.4024 H   0  0  0  0  0  0
  -18.0330  -26.0081   22.9025 H   0  0  0  0  0  0
  -19.7934  -30.7268   24.2278 H   0  0  0  0  0  0
  -17.5019  -31.6275   24.5165 H   0  0  0  0  0  0
  -15.5356  -30.3009   23.7651 H   0  0  0  0  0  0
  -15.8664  -28.0844   22.7062 H   0  0  0  0  0  0
  -24.5877  -30.7078   25.7760 H   0  0  0  0  0  0
  -24.8914  -32.2892   26.4857 H   0  0  0  0  0  0
  -25.8037  -30.8891   27.0202 H   0  0  0  0  0  0
  -26.2861  -29.6777   24.1142 H   0  0  0  0  0  0
  -27.3990  -29.7231   25.4617 H   0  0  0  0  0  0
  -27.8735  -30.4290   23.9339 H   0  0  0  0  0  0
  -27.2637  -33.3569   26.2103 H   0  0  0  0  0  0
  -28.3847  -32.6877   25.0329 H   0  0  0  0  0  0
  -28.0699  -31.8381   26.5386 H   0  0  0  0  0  0
  -28.2601  -38.0104   24.7509 H   0  0  0  0  0  0
  -28.1079  -36.2637   24.6291 H   0  0  0  0  0  0
  -27.2300  -37.1458   25.8865 H   0  0  0  0  0  0
  -20.9361  -29.8751   21.6881 H   0  0  0  0  0  0
  -26.0181  -38.2858   24.1398 H   0  0  0  0  0  0
  -27.5427  -19.6945   21.3935 H   0  0  0  0  0  0
  -31.4563  -17.3259   19.4893 H   0  0  0  0  0  0
  -31.4943  -22.0871   22.8888 H   0  0  0  0  0  0
  -30.1638  -20.9160   22.4062 H   0  0  0  0  0  0
  -31.0769  -24.3810   20.3147 H   0  0  0  0  0  0
  -31.5601  -24.3355   21.9868 H   0  0  0  0  0  0
  -30.1054  -26.2861   21.6371 H   0  0  0  0  0  0
  -29.3532  -25.1705   22.7314 H   0  0  0  0  0  0
  -29.0212  -24.0694   19.0645 H   0  0  0  0  0  0
  -27.3865  -23.7323   19.5429 H   0  0  0  0  0  0
  -27.5202  -25.2081   21.4666 H   0  0  0  0  0  0
  -27.7633  -17.5414   23.2356 H   0  0  0  0  0  0
  -27.6594  -16.0890   22.2505 H   0  0  0  0  0  0
  -26.5926  -17.4459   21.9287 H   0  0  0  0  0  0
  -30.9587  -20.2275   17.8065 H   0  0  0  0  0  0
  -32.2474  -19.2369   18.4740 H   0  0  0  0  0  0
  -31.8586  -20.7745   19.2316 H   0  0  0  0  0  0
  -27.9149  -21.3424   19.2573 H   0  0  0  0  0  0
  -29.5469  -21.7012   18.8503 H   0  0  0  0  0  0
  -28.9795  -15.2627   21.4284 H   0  0  0  0  0  0
  -28.1443  -22.3954   21.2831 H   0  0  0  0  0  0
  1 25  1  0  0  0
  1 30  2  0  0  0
  1 86  1  0  0  0
  2  3  1  0  0  0
  2 25  1  0  0  0
  2 88  1  0  0  0
  2 89  1  0  0  0
  3  4  1  0  0  0
  3 90  1  0  0  0
  3 91  1  0  0  0
  4  5  1  0  0  0
  4 92  1  0  0  0
  4 93  1  0  0  0
  5  6  1  0  0  0
  5 26  1  0  0  0
  5 94  1  0  0  0
  6 25  1  0  0  0
  6 95  1  0  0  0
  6 96  1  0  0  0
  7  8  2  0  0  0
  7 26  1  0  0  0
  7 29  1  0  0  0
  8  9  1  0  0  0
  8 22  1  0  0  0
  9 10  1  0  0  0
  9 27  2  0  0  0
 10 11  2  0  0  0
 10 15  1  0  0  0
 11 12  1  0  0  0
 11 97  1  0  0  0
 12 13  2  0  0  0
 12 98  1  0  0  0
 13 14  1  0  0  0
 13 31  1  0  0  0
 14 15  2  0  0  0
 14 99  1  0  0  0
 15100  1  0  0  0
 16 17  2  0  0  0
 16 21  1  0  0  0
 16 31  1  0  0  0
 17 18  1  0  0  0
 17101  1  0  0  0
 18 19  2  0  0  0
 18102  1  0  0  0
 19 20  1  0  0  0
 19 24  1  0  0  0
 20 21  2  0  0  0
 20103  1  0  0  0
 21 23  1  0  0  0
 22 28  1  0  0  0
 22 32  2  0  0  0
 26 27  1  0  0  0
 28104  1  0  0  0
 28105  1  0  0  0
 29106  1  0  0  0
 29107  1  0  0  0
 33 34  1  0  0  0
 33 66  1  0  0  0
 33 70  2  0  0  0
 34 36  1  0  0  0
 34 59  1  0  0  0
 34108  1  0  0  0
 35 44  2  0  0  0
 35 45  1  0  0  0
 35 68  1  0  0  0
 36 56  1  0  0  0
 36109  1  0  0  0
 37 39  1  0  0  0
 37 47  1  0  0  0
 37 66  1  0  0  0
 37110  1  0  0  0
 38 43  2  0  0  0
 38 46  1  0  0  0
 38 47  1  0  0  0
 39 64  1  0  0  0
 39 67  2  0  0  0
 40 52  1  0  0  0
 40 53  2  0  0  0
 40 58  1  0  0  0
 41111  1  0  0  0
 41112  1  0  0  0
 41113  1  0  0  0
 41 48  1  0  0  0
 42 43  1  0  0  0
 42 66  1  0  0  0
 42114  1  0  0  0
 42115  1  0  0  0
 43 44  1  0  0  0
 44116  1  0  0  0
 45 46  2  0  0  0
 45117  1  0  0  0
 46118  1  0  0  0
 47119  1  0  0  0
 47120  1  0  0  0
 48 56  1  0  0  0
 48 65  1  0  0  0
 48121  1  0  0  0
 49 50  1  0  0  0
 49 53  1  0  0  0
 49 64  1  0  0  0
 49122  1  0  0  0
 50 51  1  0  0  0
 50123  1  0  0  0
 50124  1  0  0  0
 51 52  1  0  0  0
 51125  1  0  0  0
 51126  1  0  0  0
 52127  1  0  0  0
 52128  1  0  0  0
 53 54  1  0  0  0
 54 55  2  0  0  0
 54129  1  0  0  0
 55 57  1  0  0  0
 55130  1  0  0  0
 56 69  2  0  0  0
 57 58  2  0  0  0
 57131  1  0  0  0
 58132  1  0  0  0
 59 60  1  0  0  0
 59 61  1  0  0  0
 59 62  1  0  0  0
 60133  1  0  0  0
 60134  1  0  0  0
 60135  1  0  0  0
 61136  1  0  0  0
 61137  1  0  0  0
 61138  1  0  0  0
 62139  1  0  0  0
 62140  1  0  0  0
 62141  1  0  0  0
 63 65  1  0  0  0
 63142  1  0  0  0
 63143  1  0  0  0
 63144  1  0  0  0
 64145  1  0  0  0
 65146  1  0  0  0
 68 82  1  0  0  0
 71 73  2  0  0  0
 71 74  1  0  0  0
 71147  1  0  0  0
 72 75  2  0  0  0
 72 76  1  0  0  0
 72148  1  0  0  0
 73 75  1  0  0  0
 73 85  1  0  0  0
 74 76  2  0  0  0
 74 83  1  0  0  0
 75 84  1  0  0  0
 76 86  1  0  0  0
 77 78  2  0  0  0
 77 79  1  0  0  0
 77 87  1  0  0  0
 78149  1  0  0  0
 78150  1  0  0  0
 79 80  1  0  0  0
 79151  1  0  0  0
 79152  1  0  0  0
 80 82  1  0  0  0
 80153  1  0  0  0
 80154  1  0  0  0
 81 82  1  0  0  0
 81 87  1  0  0  0
 81155  1  0  0  0
 81156  1  0  0  0
 82157  1  0  0  0
 83158  1  0  0  0
 83159  1  0  0  0
 83160  1  0  0  0
 84161  1  0  0  0
 84162  1  0  0  0
 84163  1  0  0  0
 85164  1  0  0  0
 85165  1  0  0  0
 85 87  1  0  0  0
 86166  1  0  0  0
 87167  1  0  0  0
M  CHG  1  87   1
M  ISO  4   1 100  68 101  82 101  86 100
M  END
> <chiral flag>
0

> <version>
0

> <s_m_source_file>
/data/baiqing/PycharmProjects/Reinvent-master-3.2/result/LINK_invent/BTK/process_docking_weight1_custom_product_contain_oxygen_bond_distance_aromatic_linkinvent_7_9_3/rearranged_h_0041.sdf

> <i_m_source_file_index>
17

> <r_mmod_Potential_Energy-OPLS-2005>
-11.5547885894775

> <r_mmod_Stretch_Energy-OPLS-2005>
85.3133392333984

> <r_mmod_Bend_Energy-OPLS-2005>
156.353866577148

> <r_mmod_Torsional_Energy-OPLS-2005>
265.718902587891

> <r_mmod_Improper_Torsional_Energy-OPLS-2005>
4.55143880844116

> <r_mmod_Van_der_Waal_Energy-OPLS-2005>
146.776290893555

> <r_mmod_Electrostatic_Energy-OPLS-2005>
-294.030609130859

> <r_mmod_Solvation_Energy-OPLS-2005>
-417.719177246094

> <b_mmod_Minimization_Converged-OPLS-2005>
0

> <r_mmod_RMS_Derivative-OPLS-2005>
1.70659565925598

$$$$
17
                    3D
 Structure written by MMmdl.
170179  0  0  1  0            999 V2000
  -30.6554  -14.5903   20.5639 C   0  0  0  0  0  0
  -30.4285  -12.3798   19.4453 C   0  0  0  0  0  0
  -29.4997  -12.5101   18.2205 C   0  0  0  0  0  0
  -28.0231  -12.3477   18.6326 C   0  0  0  0  0  0
  -27.6511  -13.2128   19.8676 C   0  0  2  0  0  0
  -28.6938  -13.0507   20.9964 C   0  0  0  0  0  0
  -25.2554  -13.8172   20.5703 C   0  0  0  0  0  0
  -24.1819  -13.0441   20.9204 C   0  0  0  0  0  0
  -24.6378  -11.6902   20.8733 C   0  0  0  0  0  0
  -23.9049  -10.4294   21.0386 C   0  0  0  0  0  0
  -24.3615   -9.4232   21.9165 C   0  0  0  0  0  0
  -23.6315   -8.2261   22.0742 C   0  0  0  0  0  0
  -22.4299   -8.0283   21.3538 C   0  0  0  0  0  0
  -21.9917   -9.0242   20.4631 C   0  0  0  0  0  0
  -22.7217  -10.2134   20.3047 C   0  0  0  0  0  0
  -21.6869   -6.0752   22.5288 C   0  0  0  0  0  0
  -21.4004   -6.5637   23.8226 C   0  0  0  0  0  0
  -21.3669   -5.6788   24.9176 C   0  0  0  0  0  0
  -21.6061   -4.3051   24.7219 C   0  0  0  0  0  0
  -21.8817   -3.8154   23.4326 C   0  0  0  0  0  0
  -21.9200   -4.6989   22.3391 C   0  0  0  0  0  0
  -22.7841  -13.5229   21.1878 C   0  0  0  0  0  0
  -22.1662   -4.2178   21.0963 F   0  0  0  0  0  0
  -21.5652   -3.4519   25.7721 F   0  0  0  0  0  0
  -30.0093  -13.3911   20.4337 N   0  0  0  0  0  0
  -26.2973  -12.9329   20.3350 N   0  0  0  0  0  0
  -25.9298  -11.6473   20.5754 N   0  0  0  0  0  0
  -22.0495  -12.8202   22.0423 N   0  0  0  0  0  0
  -25.4284  -15.1890   20.4124 N   0  0  0  0  0  0
  -31.8038  -14.7504   20.1423 O   0  0  0  0  0  0
  -21.6664   -6.8889   21.4248 O   0  0  0  0  0  0
  -22.3526  -14.5549   20.6756 O   0  0  0  0  0  0
  -24.6182  -31.8628   23.2046 C   0  0  0  0  0  0
  -25.9061  -32.4788   23.8361 C   0  0  1  0  0  0
  -27.2297  -27.3690   20.0994 C   0  0  0  0  0  0
  -25.5892  -33.8594   24.2281 N   0  0  0  0  0  0
  -23.4107  -30.4839   21.5455 C   0  0  2  0  0  0
  -24.8569  -28.9435   20.1037 C   0  0  0  0  0  0
  -22.7431  -29.4639   22.4962 C   0  0  0  0  0  0
  -18.0278  -28.1379   22.8493 C   0  0  0  0  0  0
  -24.1480  -36.7294   23.2643 C   0  0  0  0  0  0
  -25.9461  -30.8019   21.3749 C   0  0  0  0  0  0
  -26.0167  -29.4333   20.7157 C   0  0  0  0  0  0
  -27.2008  -28.6502   20.7161 C   0  0  0  0  0  0
  -26.0492  -26.9105   19.4739 C   0  0  0  0  0  0
  -24.8716  -27.6846   19.4777 C   0  0  0  0  0  0
  -23.6199  -29.8156   20.1598 C   0  0  0  0  0  0
  -25.4111  -36.3093   24.0332 C   0  0  1  0  0  0
  -20.5870  -28.3678   23.1299 C   0  0  2  0  0  0
  -20.6769  -26.9405   22.5426 C   0  0  0  0  0  0
  -19.5748  -26.6374   21.5221 C   0  0  0  0  0  0
  -18.1922  -26.7932   22.1615 C   0  0  0  0  0  0
  -19.1529  -28.8845   23.2893 C   0  0  0  0  0  0
  -18.9461  -30.1454   23.8898 C   0  0  0  0  0  0
  -17.6460  -30.6584   24.0559 C   0  0  0  0  0  0
  -25.9046  -34.9457   23.5108 C   0  0  0  0  0  0
  -16.5349  -29.9081   23.6327 C   0  0  0  0  0  0
  -16.7270  -28.6495   23.0353 C   0  0  0  0  0  0
  -26.4463  -31.6598   25.0724 C   0  0  0  0  0  0
  -25.3699  -31.3727   26.1452 C   0  0  0  0  0  0
  -27.0322  -30.3020   24.6185 C   0  0  0  0  0  0
  -27.6006  -32.4351   25.7498 C   0  0  0  0  0  0
  -27.5583  -37.1807   24.8462 C   0  0  0  0  0  0
  -21.4151  -29.3022   22.3688 N   0  0  0  0  0  0
  -26.4293  -37.3778   23.9405 N   0  0  0  0  0  0
  -24.6762  -31.0673   22.0978 N   0  0  0  0  0  0
  -23.4177  -28.8200   23.3041 O   0  0  0  0  0  0
  -28.3756  -26.5807   20.1695 O   0  0  0  0  0  0
  -26.5628  -34.8919   22.4682 O   0  0  0  0  0  0
  -23.5363  -32.1430   23.7387 O   0  0  0  0  0  0
  -31.5690  -18.5616   22.7466 C   0  0  0  0  0  0
  -29.5562  -18.1320   20.8686 C   0  0  0  0  0  0
  -30.8579  -19.6708   22.2442 C   0  0  0  0  0  0
  -31.2743  -17.2388   22.3527 C   0  0  0  0  0  0
  -29.8181  -19.4790   21.2974 C   0  0  0  0  0  0
  -30.2777  -16.9936   21.3710 C   0  0  0  0  0  0
  -29.7578  -21.4084   18.6033 C   0  0  0  0  0  0
  -30.8243  -20.7475   18.1267 C   0  0  0  0  0  0
  -28.5725  -21.9191   17.8083 C   0  0  0  0  0  0
  -28.4983  -23.4456   17.8852 C   0  0  0  0  0  0
  -29.3373  -23.2310   20.3190 C   0  0  0  0  0  0
  -28.3919  -24.0236   19.3191 C   0  0  1  0  0  0
  -31.2113  -21.0497   22.7875 C   0  0  0  0  0  0
  -32.0106  -16.1165   23.0729 C   0  0  0  0  0  0
  -28.9337  -20.6983   20.8543 C   0  0  0  0  0  0
  -28.6602  -25.5853   19.1516 C   0  0  0  0  0  0
  -29.8954  -15.6372   21.0079 N   0  0  0  0  0  0
  -29.6319  -21.7603   20.0409 N   0  3  2  0  0  0
  -31.4696  -12.5029   19.1404 H   0  0  0  0  0  0
  -30.3589  -11.3815   19.8792 H   0  0  0  0  0  0
  -29.7657  -11.7687   17.4668 H   0  0  0  0  0  0
  -29.6420  -13.4868   17.7564 H   0  0  0  0  0  0
  -27.8527  -11.2927   18.8519 H   0  0  0  0  0  0
  -27.3713  -12.5924   17.7941 H   0  0  0  0  0  0
  -27.6741  -14.2503   19.5347 H   0  0  0  0  0  0
  -28.7002  -12.0249   21.3661 H   0  0  0  0  0  0
  -28.4365  -13.6710   21.8579 H   0  0  0  0  0  0
  -25.2755   -9.5742   22.4731 H   0  0  0  0  0  0
  -24.0067   -7.4649   22.7422 H   0  0  0  0  0  0
  -21.0881   -8.8705   19.8897 H   0  0  0  0  0  0
  -22.3647  -10.9667   19.6160 H   0  0  0  0  0  0
  -21.1959   -7.6133   23.9735 H   0  0  0  0  0  0
  -21.1508   -6.0501   25.9091 H   0  0  0  0  0  0
  -22.0594   -2.7621   23.2802 H   0  0  0  0  0  0
  -22.4118  -11.9835   22.4763 H   0  0  0  0  0  0
  -21.1111  -13.1202   22.2638 H   0  0  0  0  0  0
  -24.6640  -15.8451   20.5298 H   0  0  0  0  0  0
  -26.2752  -15.6290   20.0736 H   0  0  0  0  0  0
  -26.7125  -32.5467   23.1114 H   0  0  0  0  0  0
  -25.0010  -33.9746   25.0403 H   0  0  0  0  0  0
  -22.7027  -31.3026   21.4042 H   0  0  0  0  0  0
  -23.3748  -35.9621   23.3307 H   0  0  0  0  0  0
  -24.3563  -36.8918   22.2058 H   0  0  0  0  0  0
  -23.7230  -37.6489   23.6674 H   0  0  0  0  0  0
  -26.0850  -31.5702   20.6133 H   0  0  0  0  0  0
  -26.8230  -30.8391   22.0105 H   0  0  0  0  0  0
  -28.0911  -29.0190   21.2041 H   0  0  0  0  0  0
  -26.0156  -25.9397   19.0015 H   0  0  0  0  0  0
  -23.9803  -27.3027   18.9985 H   0  0  0  0  0  0
  -23.7220  -30.5897   19.3980 H   0  0  0  0  0  0
  -22.7439  -29.2324   19.8702 H   0  0  0  0  0  0
  -25.1297  -36.1944   25.0824 H   0  0  0  0  0  0
  -20.9969  -28.3255   24.1413 H   0  0  0  0  0  0
  -20.5659  -26.2292   23.3624 H   0  0  0  0  0  0
  -21.6645  -26.7433   22.1221 H   0  0  0  0  0  0
  -19.6906  -25.6279   21.1258 H   0  0  0  0  0  0
  -19.6695  -27.3178   20.6742 H   0  0  0  0  0  0
  -17.4206  -26.6708   21.3997 H   0  0  0  0  0  0
  -18.0293  -26.0065   22.8991 H   0  0  0  0  0  0
  -19.7937  -30.7275   24.2254 H   0  0  0  0  0  0
  -17.5013  -31.6269   24.5156 H   0  0  0  0  0  0
  -15.5349  -30.2980   23.7650 H   0  0  0  0  0  0
  -15.8676  -28.0814   22.7065 H   0  0  0  0  0  0
  -24.5865  -30.7092   25.7780 H   0  0  0  0  0  0
  -24.8903  -32.2889   26.4895 H   0  0  0  0  0  0
  -25.8012  -30.8889   27.0220 H   0  0  0  0  0  0
  -26.2912  -29.6775   24.1183 H   0  0  0  0  0  0
  -27.3988  -29.7271   25.4700 H   0  0  0  0  0  0
  -27.8787  -30.4310   23.9439 H   0  0  0  0  0  0
  -27.2585  -33.3631   26.2089 H   0  0  0  0  0  0
  -28.3798  -32.6953   25.0326 H   0  0  0  0  0  0
  -28.0698  -31.8489   26.5408 H   0  0  0  0  0  0
  -28.2598  -38.0105   24.7507 H   0  0  0  0  0  0
  -28.1082  -36.2638   24.6286 H   0  0  0  0  0  0
  -27.2305  -37.1450   25.8866 H   0  0  0  0  0  0
  -20.9325  -29.8715   21.6878 H   0  0  0  0  0  0
  -26.0178  -38.2856   24.1389 H   0  0  0  0  0  0
  -32.3310  -18.7291   23.4966 H   0  0  0  0  0  0
  -28.7526  -17.9673   20.1640 H   0  0  0  0  0  0
  -30.9133  -20.5182   17.0743 H   0  0  0  0  0  0
  -31.6312  -20.4291   18.7713 H   0  0  0  0  0  0
  -27.6475  -21.4652   18.1663 H   0  0  0  0  0  0
  -28.6814  -21.6088   16.7675 H   0  0  0  0  0  0
  -27.6518  -23.7906   17.2899 H   0  0  0  0  0  0
  -29.3879  -23.8472   17.3934 H   0  0  0  0  0  0
  -28.9902  -23.3638   21.3452 H   0  0  0  0  0  0
  -30.3090  -23.7255   20.2978 H   0  0  0  0  0  0
  -27.3639  -23.8721   19.6497 H   0  0  0  0  0  0
  -31.8585  -20.9804   23.6629 H   0  0  0  0  0  0
  -30.3233  -21.5954   23.1049 H   0  0  0  0  0  0
  -31.7446  -21.6394   22.0414 H   0  0  0  0  0  0
  -32.8422  -15.7417   22.4764 H   0  0  0  0  0  0
  -31.3434  -15.2850   23.2963 H   0  0  0  0  0  0
  -32.4126  -16.4608   24.0264 H   0  0  0  0  0  0
  -28.5254  -21.1479   21.7594 H   0  0  0  0  0  0
  -28.0572  -20.3402   20.3131 H   0  0  0  0  0  0
  -28.1953  -25.9281   18.2240 H   0  0  0  0  0  0
  -29.7252  -25.7014   18.9512 H   0  0  0  0  0  0
  -28.9182  -15.4178   21.1286 H   0  0  0  0  0  0
  -30.5634  -21.6889   20.4212 H   0  0  0  0  0  0
  1 25  1  0  0  0
  1 30  2  0  0  0
  1 87  1  0  0  0
  2  3  1  0  0  0
  2 25  1  0  0  0
  2 89  1  0  0  0
  2 90  1  0  0  0
  3  4  1  0  0  0
  3 91  1  0  0  0
  3 92  1  0  0  0
  4  5  1  0  0  0
  4 93  1  0  0  0
  4 94  1  0  0  0
  5  6  1  0  0  0
  5 26  1  0  0  0
  5 95  1  0  0  0
  6 25  1  0  0  0
  6 96  1  0  0  0
  6 97  1  0  0  0
  7  8  2  0  0  0
  7 26  1  0  0  0
  7 29  1  0  0  0
  8  9  1  0  0  0
  8 22  1  0  0  0
  9 10  1  0  0  0
  9 27  2  0  0  0
 10 11  2  0  0  0
 10 15  1  0  0  0
 11 12  1  0  0  0
 11 98  1  0  0  0
 12 13  2  0  0  0
 12 99  1  0  0  0
 13 14  1  0  0  0
 13 31  1  0  0  0
 14 15  2  0  0  0
 14100  1  0  0  0
 15101  1  0  0  0
 16 17  2  0  0  0
 16 21  1  0  0  0
 16 31  1  0  0  0
 17 18  1  0  0  0
 17102  1  0  0  0
 18 19  2  0  0  0
 18103  1  0  0  0
 19 20  1  0  0  0
 19 24  1  0  0  0
 20 21  2  0  0  0
 20104  1  0  0  0
 21 23  1  0  0  0
 22 28  1  0  0  0
 22 32  2  0  0  0
 26 27  1  0  0  0
 28105  1  0  0  0
 28106  1  0  0  0
 29107  1  0  0  0
 29108  1  0  0  0
 33 34  1  0  0  0
 33 66  1  0  0  0
 33 70  2  0  0  0
 34 36  1  0  0  0
 34 59  1  0  0  0
 34109  1  0  0  0
 35 44  2  0  0  0
 35 45  1  0  0  0
 35 68  1  0  0  0
 36 56  1  0  0  0
 36110  1  0  0  0
 37 39  1  0  0  0
 37 47  1  0  0  0
 37 66  1  0  0  0
 37111  1  0  0  0
 38 43  2  0  0  0
 38 46  1  0  0  0
 38 47  1  0  0  0
 39 64  1  0  0  0
 39 67  2  0  0  0
 40 52  1  0  0  0
 40 53  2  0  0  0
 40 58  1  0  0  0
 41112  1  0  0  0
 41113  1  0  0  0
 41114  1  0  0  0
 41 48  1  0  0  0
 42 43  1  0  0  0
 42 66  1  0  0  0
 42115  1  0  0  0
 42116  1  0  0  0
 43 44  1  0  0  0
 44117  1  0  0  0
 45 46  2  0  0  0
 45118  1  0  0  0
 46119  1  0  0  0
 47120  1  0  0  0
 47121  1  0  0  0
 48 56  1  0  0  0
 48 65  1  0  0  0
 48122  1  0  0  0
 49 50  1  0  0  0
 49 53  1  0  0  0
 49 64  1  0  0  0
 49123  1  0  0  0
 50 51  1  0  0  0
 50124  1  0  0  0
 50125  1  0  0  0
 51 52  1  0  0  0
 51126  1  0  0  0
 51127  1  0  0  0
 52128  1  0  0  0
 52129  1  0  0  0
 53 54  1  0  0  0
 54 55  2  0  0  0
 54130  1  0  0  0
 55 57  1  0  0  0
 55131  1  0  0  0
 56 69  2  0  0  0
 57 58  2  0  0  0
 57132  1  0  0  0
 58133  1  0  0  0
 59 60  1  0  0  0
 59 61  1  0  0  0
 59 62  1  0  0  0
 60134  1  0  0  0
 60135  1  0  0  0
 60136  1  0  0  0
 61137  1  0  0  0
 61138  1  0  0  0
 61139  1  0  0  0
 62140  1  0  0  0
 62141  1  0  0  0
 62142  1  0  0  0
 63 65  1  0  0  0
 63143  1  0  0  0
 63144  1  0  0  0
 63145  1  0  0  0
 64146  1  0  0  0
 65147  1  0  0  0
 68 86  1  0  0  0
 71 73  2  0  0  0
 71 74  1  0  0  0
 71148  1  0  0  0
 72 75  2  0  0  0
 72 76  1  0  0  0
 72149  1  0  0  0
 73 75  1  0  0  0
 73 83  1  0  0  0
 74 76  2  0  0  0
 74 84  1  0  0  0
 75 85  1  0  0  0
 76 87  1  0  0  0
 77 78  2  0  0  0
 77 79  1  0  0  0
 77 88  1  0  0  0
 78150  1  0  0  0
 78151  1  0  0  0
 79 80  1  0  0  0
 79152  1  0  0  0
 79153  1  0  0  0
 80 82  1  0  0  0
 80154  1  0  0  0
 80155  1  0  0  0
 81 82  1  0  0  0
 81 88  1  0  0  0
 81156  1  0  0  0
 81157  1  0  0  0
 82 86  1  0  0  0
 82158  1  0  0  0
 83159  1  0  0  0
 83160  1  0  0  0
 83161  1  0  0  0
 84162  1  0  0  0
 84163  1  0  0  0
 84164  1  0  0  0
 85165  1  0  0  0
 85166  1  0  0  0
 85 88  1  0  0  0
 86167  1  0  0  0
 86168  1  0  0  0
 87169  1  0  0  0
 88170  1  0  0  0
M  CHG  1  88   1
M  ISO  4   1 100  68 101  86 101  87 100
M  END
> <chiral flag>
0

> <version>
0

> <s_m_source_file>
/data/baiqing/PycharmProjects/Reinvent-master-3.2/result/LINK_invent/BTK/process_docking_weight1_custom_product_contain_oxygen_bond_distance_aromatic_linkinvent_7_9_3/rearranged_h_0041.sdf

> <i_m_source_file_index>
18

> <r_mmod_Potential_Energy-OPLS-2005>
-51.4547996520996

> <r_mmod_Stretch_Energy-OPLS-2005>
70.6521987915039

> <r_mmod_Bend_Energy-OPLS-2005>
157.106826782227

> <r_mmod_Torsional_Energy-OPLS-2005>
259.890380859375

> <r_mmod_Improper_Torsional_Energy-OPLS-2005>
5.0524582862854

> <r_mmod_Van_der_Waal_Energy-OPLS-2005>
144.968475341797

> <r_mmod_Electrostatic_Energy-OPLS-2005>
-292.840393066406

> <r_mmod_Solvation_Energy-OPLS-2005>
-428.579315185547

> <b_mmod_Minimization_Converged-OPLS-2005>
0

> <r_mmod_RMS_Derivative-OPLS-2005>
2.86766982078552

$$$$
18
                    3D
 Structure written by MMmdl.
158166  0  0  1  0            999 V2000
  -30.6723  -14.6112   20.5063 C   0  0  0  0  0  0
  -30.4218  -12.3782   19.4533 C   0  0  0  0  0  0
  -29.5016  -12.5038   18.2213 C   0  0  0  0  0  0
  -28.0238  -12.3520   18.6314 C   0  0  0  0  0  0
  -27.6488  -13.2246   19.8601 C   0  0  2  0  0  0
  -28.6942  -13.1000   20.9913 C   0  0  0  0  0  0
  -25.2528  -13.8191   20.5686 C   0  0  0  0  0  0
  -24.1812  -13.0442   20.9198 C   0  0  0  0  0  0
  -24.6395  -11.6917   20.8748 C   0  0  0  0  0  0
  -23.9072  -10.4293   21.0403 C   0  0  0  0  0  0
  -24.3622   -9.4207   21.9181 C   0  0  0  0  0  0
  -23.6296   -8.2245   22.0753 C   0  0  0  0  0  0
  -22.4277   -8.0284   21.3543 C   0  0  0  0  0  0
  -21.9912   -9.0261   20.4649 C   0  0  0  0  0  0
  -22.7241  -10.2138   20.3056 C   0  0  0  0  0  0
  -21.6855   -6.0736   22.5277 C   0  0  0  0  0  0
  -21.4017   -6.5640   23.8210 C   0  0  0  0  0  0
  -21.3659   -5.6793   24.9174 C   0  0  0  0  0  0
  -21.6044   -4.3055   24.7225 C   0  0  0  0  0  0
  -21.8819   -3.8146   23.4346 C   0  0  0  0  0  0
  -21.9193   -4.6964   22.3402 C   0  0  0  0  0  0
  -22.7831  -13.5229   21.1861 C   0  0  0  0  0  0
  -22.1659   -4.2148   21.0980 F   0  0  0  0  0  0
  -21.5629   -3.4537   25.7737 F   0  0  0  0  0  0
  -30.0082  -13.4176   20.4166 N   0  0  0  0  0  0
  -26.2966  -12.9389   20.3313 N   0  0  0  0  0  0
  -25.9325  -11.6534   20.5763 N   0  0  0  0  0  0
  -22.0477  -12.8219   22.0419 N   0  0  0  0  0  0
  -25.4214  -15.1917   20.4092 N   0  0  0  0  0  0
  -31.8469  -14.7040   20.1401 O   0  0  0  0  0  0
  -21.6641   -6.8879   21.4238 O   0  0  0  0  0  0
  -22.3511  -14.5533   20.6709 O   0  0  0  0  0  0
  -24.6218  -31.8630   23.2043 C   0  0  0  0  0  0
  -25.9079  -32.4794   23.8369 C   0  0  1  0  0  0
  -27.2283  -27.3604   20.1128 C   0  0  0  0  0  0
  -25.5912  -33.8598   24.2294 N   0  0  0  0  0  0
  -23.4148  -30.4843   21.5463 C   0  0  2  0  0  0
  -24.8646  -28.9413   20.1140 C   0  0  0  0  0  0
  -22.7457  -29.4630   22.4959 C   0  0  0  0  0  0
  -18.0281  -28.1373   22.8484 C   0  0  0  0  0  0
  -24.1491  -36.7308   23.2637 C   0  0  0  0  0  0
  -25.9520  -30.8034   21.3726 C   0  0  0  0  0  0
  -26.0300  -29.4320   20.7201 C   0  0  0  0  0  0
  -27.2190  -28.6493   20.7181 C   0  0  0  0  0  0
  -26.0494  -26.9069   19.4922 C   0  0  0  0  0  0
  -24.8728  -27.6803   19.4936 C   0  0  0  0  0  0
  -23.6290  -29.8162   20.1624 C   0  0  0  0  0  0
  -25.4111  -36.3098   24.0331 C   0  0  1  0  0  0
  -20.5877  -28.3675   23.1289 C   0  0  2  0  0  0
  -20.6766  -26.9402   22.5408 C   0  0  0  0  0  0
  -19.5744  -26.6374   21.5206 C   0  0  0  0  0  0
  -18.1928  -26.7913   22.1624 C   0  0  0  0  0  0
  -19.1533  -28.8843   23.2878 C   0  0  0  0  0  0
  -18.9458  -30.1446   23.8894 C   0  0  0  0  0  0
  -17.6458  -30.6580   24.0559 C   0  0  0  0  0  0
  -25.9043  -34.9466   23.5110 C   0  0  0  0  0  0
  -16.5349  -29.9079   23.6326 C   0  0  0  0  0  0
  -16.7270  -28.6494   23.0349 C   0  0  0  0  0  0
  -26.4476  -31.6589   25.0725 C   0  0  0  0  0  0
  -25.3723  -31.3730   26.1465 C   0  0  0  0  0  0
  -27.0298  -30.3008   24.6153 C   0  0  0  0  0  0
  -27.6044  -32.4312   25.7491 C   0  0  0  0  0  0
  -27.5581  -37.1807   24.8464 C   0  0  0  0  0  0
  -21.4175  -29.3035   22.3699 N   0  0  0  0  0  0
  -26.4297  -37.3785   23.9406 N   0  0  0  0  0  0
  -24.6811  -31.0665   22.0982 N   0  0  0  0  0  0
  -23.4195  -28.8173   23.3031 O   0  0  0  0  0  0
  -28.3181  -26.4975   20.0958 O   0  0  0  0  0  0
  -26.5616  -34.8927   22.4677 O   0  0  0  0  0  0
  -23.5389  -32.1421   23.7386 O   0  0  0  0  0  0
  -32.1115  -18.7628   21.4193 C   0  0  0  0  0  0
  -31.6570  -17.4337   21.3580 C   0  0  0  0  0  0
  -29.5271  -18.2358   20.5152 C   0  0  0  0  0  0
  -31.3011  -19.8432   21.0106 C   0  0  0  0  0  0
  -29.9691  -19.6085   20.5729 C   0  0  0  0  0  0
  -30.3668  -17.1237   20.8737 C   0  0  0  0  0  0
  -28.5250  -25.7368   21.2385 C   0  0  0  0  0  0
  -28.7624  -24.3924   21.4150 C   0  0  0  0  0  0
  -28.8158  -23.3517   20.3499 C   0  0  0  0  0  0
  -31.9250  -21.2306   21.0200 C   0  0  0  0  0  0
  -28.9811  -23.9185   22.8507 C   0  0  0  0  0  0
  -29.0579  -20.7836   20.0663 C   0  0  0  0  0  0
  -29.9303  -15.7300   20.7915 N   0  0  0  0  0  0
  -29.0433  -22.0820   20.8109 N   0  0  0  0  0  0
  -28.6521  -23.5714   19.1484 O   0  0  0  0  0  0
  -31.4669  -12.4747   19.1547 H   0  0  0  0  0  0
  -30.3323  -11.3882   19.9028 H   0  0  0  0  0  0
  -29.7623  -11.7509   17.4766 H   0  0  0  0  0  0
  -29.6536  -13.4729   17.7427 H   0  0  0  0  0  0
  -27.8518  -11.2991   18.8579 H   0  0  0  0  0  0
  -27.3735  -12.5912   17.7889 H   0  0  0  0  0  0
  -27.6618  -14.2582   19.5139 H   0  0  0  0  0  0
  -28.6986  -12.0898   21.4034 H   0  0  0  0  0  0
  -28.4502  -13.7636   21.8225 H   0  0  0  0  0  0
  -25.2770   -9.5682   22.4752 H   0  0  0  0  0  0
  -24.0006   -7.4632   22.7469 H   0  0  0  0  0  0
  -21.0841   -8.8783   19.8955 H   0  0  0  0  0  0
  -22.3700  -10.9682   19.6167 H   0  0  0  0  0  0
  -21.2011   -7.6147   23.9716 H   0  0  0  0  0  0
  -21.1481   -6.0522   25.9077 H   0  0  0  0  0  0
  -22.0598   -2.7608   23.2846 H   0  0  0  0  0  0
  -22.4099  -11.9891   22.4821 H   0  0  0  0  0  0
  -21.1096  -13.1240   22.2630 H   0  0  0  0  0  0
  -24.6511  -15.8431   20.5170 H   0  0  0  0  0  0
  -26.2640  -15.6323   20.0632 H   0  0  0  0  0  0
  -26.7148  -32.5482   23.1129 H   0  0  0  0  0  0
  -25.0056  -33.9752   25.0436 H   0  0  0  0  0  0
  -22.7058  -31.3023   21.4023 H   0  0  0  0  0  0
  -23.3748  -35.9648   23.3318 H   0  0  0  0  0  0
  -24.3578  -36.8909   22.2048 H   0  0  0  0  0  0
  -23.7264  -37.6525   23.6641 H   0  0  0  0  0  0
  -26.0767  -31.5663   20.6031 H   0  0  0  0  0  0
  -26.8352  -30.8553   21.9980 H   0  0  0  0  0  0
  -28.1173  -29.0192   21.1922 H   0  0  0  0  0  0
  -26.0414  -25.9333   19.0216 H   0  0  0  0  0  0
  -23.9792  -27.2969   19.0196 H   0  0  0  0  0  0
  -23.7411  -30.5922   19.4040 H   0  0  0  0  0  0
  -22.7513  -29.2403   19.8631 H   0  0  0  0  0  0
  -25.1289  -36.1953   25.0824 H   0  0  0  0  0  0
  -20.9961  -28.3249   24.1414 H   0  0  0  0  0  0
  -20.5655  -26.2294   23.3609 H   0  0  0  0  0  0
  -21.6632  -26.7423   22.1209 H   0  0  0  0  0  0
  -19.6913  -25.6286   21.1233 H   0  0  0  0  0  0
  -19.6679  -27.3187   20.6737 H   0  0  0  0  0  0
  -17.4186  -26.6654   21.4035 H   0  0  0  0  0  0
  -18.0342  -26.0054   22.9025 H   0  0  0  0  0  0
  -19.7936  -30.7257   24.2267 H   0  0  0  0  0  0
  -17.5013  -31.6261   24.5155 H   0  0  0  0  0  0
  -15.5350  -30.2982   23.7642 H   0  0  0  0  0  0
  -15.8671  -28.0809   22.7067 H   0  0  0  0  0  0
  -24.5884  -30.7090   25.7804 H   0  0  0  0  0  0
  -24.8933  -32.2903   26.4900 H   0  0  0  0  0  0
  -25.8061  -30.8902   27.0232 H   0  0  0  0  0  0
  -26.2857  -29.6788   24.1162 H   0  0  0  0  0  0
  -27.3980  -29.7232   25.4643 H   0  0  0  0  0  0
  -27.8740  -30.4289   23.9374 H   0  0  0  0  0  0
  -27.2651  -33.3608   26.2072 H   0  0  0  0  0  0
  -28.3853  -32.6880   25.0322 H   0  0  0  0  0  0
  -28.0709  -31.8434   26.5406 H   0  0  0  0  0  0
  -28.2604  -38.0097   24.7492 H   0  0  0  0  0  0
  -28.1072  -36.2628   24.6308 H   0  0  0  0  0  0
  -27.2296  -37.1473   25.8867 H   0  0  0  0  0  0
  -20.9354  -29.8769   21.6920 H   0  0  0  0  0  0
  -26.0186  -38.2867   24.1394 H   0  0  0  0  0  0
  -33.1190  -18.9460   21.7676 H   0  0  0  0  0  0
  -32.3308  -16.6526   21.6809 H   0  0  0  0  0  0
  -28.5285  -18.0341   20.1533 H   0  0  0  0  0  0
  -28.4902  -26.3869   22.1023 H   0  0  0  0  0  0
  -33.0125  -21.1752   21.0823 H   0  0  0  0  0  0
  -31.5764  -21.8073   21.8764 H   0  0  0  0  0  0
  -31.6879  -21.7773   20.1069 H   0  0  0  0  0  0
  -28.9225  -24.7426   23.5627 H   0  0  0  0  0  0
  -29.9670  -23.4667   22.9651 H   0  0  0  0  0  0
  -28.2236  -23.1899   23.1420 H   0  0  0  0  0  0
  -28.0291  -20.4252   20.0235 H   0  0  0  0  0  0
  -29.3415  -20.9802   19.0311 H   0  0  0  0  0  0
  -28.9413  -15.5658   20.8982 H   0  0  0  0  0  0
  -29.1619  -22.0073   21.8114 H   0  0  0  0  0  0
  1 25  1  0  0  0
  1 30  2  0  0  0
  1 83  1  0  0  0
  2  3  1  0  0  0
  2 25  1  0  0  0
  2 86  1  0  0  0
  2 87  1  0  0  0
  3  4  1  0  0  0
  3 88  1  0  0  0
  3 89  1  0  0  0
  4  5  1  0  0  0
  4 90  1  0  0  0
  4 91  1  0  0  0
  5  6  1  0  0  0
  5 26  1  0  0  0
  5 92  1  0  0  0
  6 25  1  0  0  0
  6 93  1  0  0  0
  6 94  1  0  0  0
  7  8  2  0  0  0
  7 26  1  0  0  0
  7 29  1  0  0  0
  8  9  1  0  0  0
  8 22  1  0  0  0
  9 10  1  0  0  0
  9 27  2  0  0  0
 10 11  2  0  0  0
 10 15  1  0  0  0
 11 12  1  0  0  0
 11 95  1  0  0  0
 12 13  2  0  0  0
 12 96  1  0  0  0
 13 14  1  0  0  0
 13 31  1  0  0  0
 14 15  2  0  0  0
 14 97  1  0  0  0
 15 98  1  0  0  0
 16 17  2  0  0  0
 16 21  1  0  0  0
 16 31  1  0  0  0
 17 18  1  0  0  0
 17 99  1  0  0  0
 18 19  2  0  0  0
 18100  1  0  0  0
 19 20  1  0  0  0
 19 24  1  0  0  0
 20 21  2  0  0  0
 20101  1  0  0  0
 21 23  1  0  0  0
 22 28  1  0  0  0
 22 32  2  0  0  0
 26 27  1  0  0  0
 28102  1  0  0  0
 28103  1  0  0  0
 29104  1  0  0  0
 29105  1  0  0  0
 33 34  1  0  0  0
 33 66  1  0  0  0
 33 70  2  0  0  0
 34 36  1  0  0  0
 34 59  1  0  0  0
 34106  1  0  0  0
 35 44  2  0  0  0
 35 45  1  0  0  0
 35 68  1  0  0  0
 36 56  1  0  0  0
 36107  1  0  0  0
 37 39  1  0  0  0
 37 47  1  0  0  0
 37 66  1  0  0  0
 37108  1  0  0  0
 38 43  2  0  0  0
 38 46  1  0  0  0
 38 47  1  0  0  0
 39 64  1  0  0  0
 39 67  2  0  0  0
 40 52  1  0  0  0
 40 53  2  0  0  0
 40 58  1  0  0  0
 41109  1  0  0  0
 41110  1  0  0  0
 41111  1  0  0  0
 41 48  1  0  0  0
 42 43  1  0  0  0
 42 66  1  0  0  0
 42112  1  0  0  0
 42113  1  0  0  0
 43 44  1  0  0  0
 44114  1  0  0  0
 45 46  2  0  0  0
 45115  1  0  0  0
 46116  1  0  0  0
 47117  1  0  0  0
 47118  1  0  0  0
 48 56  1  0  0  0
 48 65  1  0  0  0
 48119  1  0  0  0
 49 50  1  0  0  0
 49 53  1  0  0  0
 49 64  1  0  0  0
 49120  1  0  0  0
 50 51  1  0  0  0
 50121  1  0  0  0
 50122  1  0  0  0
 51 52  1  0  0  0
 51123  1  0  0  0
 51124  1  0  0  0
 52125  1  0  0  0
 52126  1  0  0  0
 53 54  1  0  0  0
 54 55  2  0  0  0
 54127  1  0  0  0
 55 57  1  0  0  0
 55128  1  0  0  0
 56 69  2  0  0  0
 57 58  2  0  0  0
 57129  1  0  0  0
 58130  1  0  0  0
 59 60  1  0  0  0
 59 61  1  0  0  0
 59 62  1  0  0  0
 60131  1  0  0  0
 60132  1  0  0  0
 60133  1  0  0  0
 61134  1  0  0  0
 61135  1  0  0  0
 61136  1  0  0  0
 62137  1  0  0  0
 62138  1  0  0  0
 62139  1  0  0  0
 63 65  1  0  0  0
 63140  1  0  0  0
 63141  1  0  0  0
 63142  1  0  0  0
 64143  1  0  0  0
 65144  1  0  0  0
 68 77  1  0  0  0
 71 72  2  0  0  0
 71 74  1  0  0  0
 71145  1  0  0  0
 72 76  1  0  0  0
 72146  1  0  0  0
 73 75  1  0  0  0
 73 76  2  0  0  0
 73147  1  0  0  0
 74 75  2  0  0  0
 74 80  1  0  0  0
 75 82  1  0  0  0
 76 83  1  0  0  0
 77 78  2  0  0  0
 77148  1  0  0  0
 78 79  1  0  0  0
 78 81  1  0  0  0
 79 84  1  0  0  0
 79 85  2  0  0  0
 80149  1  0  0  0
 80150  1  0  0  0
 80151  1  0  0  0
 81152  1  0  0  0
 81153  1  0  0  0
 81154  1  0  0  0
 82 84  1  0  0  0
 82155  1  0  0  0
 82156  1  0  0  0
 83157  1  0  0  0
 84158  1  0  0  0
M  ISO  4   1 100  68 101  77 101  83 100
M  END
> <chiral flag>
0

> <version>
0

> <s_m_source_file>
/data/baiqing/PycharmProjects/Reinvent-master-3.2/result/LINK_invent/BTK/process_docking_weight1_custom_product_contain_oxygen_bond_distance_aromatic_linkinvent_7_9_3/rearranged_h_0041.sdf

> <i_m_source_file_index>
19

> <r_mmod_Potential_Energy-OPLS-2005>
-27.1015586853027

> <r_mmod_Stretch_Energy-OPLS-2005>
69.33251953125

> <r_mmod_Bend_Energy-OPLS-2005>
134.844787597656

> <r_mmod_Torsional_Energy-OPLS-2005>
238.999053955078

> <r_mmod_Improper_Torsional_Energy-OPLS-2005>
5.48862028121948

> <r_mmod_Van_der_Waal_Energy-OPLS-2005>
150.115158081055

> <r_mmod_Electrostatic_Energy-OPLS-2005>
-436.333404541016

> <r_mmod_Solvation_Energy-OPLS-2005>
-228.644653320312

> <b_mmod_Minimization_Converged-OPLS-2005>
0

> <r_mmod_RMS_Derivative-OPLS-2005>
1.00836384296417

$$$$
19
                    3D
 Structure written by MMmdl.
190200  0  0  1  0            999 V2000
  -30.5958  -14.7705   20.4640 C   0  0  0  0  0  0
  -30.4295  -12.4649   19.5003 C   0  0  0  0  0  0
  -29.5207  -12.5210   18.2522 C   0  0  0  0  0  0
  -28.0434  -12.3420   18.6526 C   0  0  0  0  0  0
  -27.6392  -13.2377   19.8558 C   0  0  2  0  0  0
  -28.6766  -13.1766   20.9996 C   0  0  0  0  0  0
  -25.2459  -13.8219   20.5683 C   0  0  0  0  0  0
  -24.1770  -13.0439   20.9207 C   0  0  0  0  0  0
  -24.6359  -11.6906   20.8728 C   0  0  0  0  0  0
  -23.9042  -10.4280   21.0381 C   0  0  0  0  0  0
  -24.3584   -9.4193   21.9172 C   0  0  0  0  0  0
  -23.6256   -8.2219   22.0741 C   0  0  0  0  0  0
  -22.4244   -8.0255   21.3532 C   0  0  0  0  0  0
  -21.9890   -9.0231   20.4628 C   0  0  0  0  0  0
  -22.7204  -10.2115   20.3030 C   0  0  0  0  0  0
  -21.6841   -6.0716   22.5276 C   0  0  0  0  0  0
  -21.4015   -6.5625   23.8217 C   0  0  0  0  0  0
  -21.3657   -5.6775   24.9178 C   0  0  0  0  0  0
  -21.6030   -4.3039   24.7220 C   0  0  0  0  0  0
  -21.8819   -3.8127   23.4348 C   0  0  0  0  0  0
  -21.9175   -4.6946   22.3394 C   0  0  0  0  0  0
  -22.7790  -13.5190   21.1876 C   0  0  0  0  0  0
  -22.1631   -4.2128   21.0981 F   0  0  0  0  0  0
  -21.5629   -3.4516   25.7739 F   0  0  0  0  0  0
  -29.9843  -13.5312   20.4352 N   0  0  0  0  0  0
  -26.2898  -12.9417   20.3272 N   0  0  0  0  0  0
  -25.9293  -11.6558   20.5729 N   0  0  0  0  0  0
  -22.0414  -12.8203   22.0428 N   0  0  0  0  0  0
  -25.4121  -15.1955   20.4108 N   0  0  0  0  0  0
  -31.7672  -14.8660   20.0881 O   0  0  0  0  0  0
  -21.6610   -6.8853   21.4235 O   0  0  0  0  0  0
  -22.3463  -14.5481   20.6706 O   0  0  0  0  0  0
  -24.6333  -31.8504   23.1928 C   0  0  0  0  0  0
  -25.9147  -32.4727   23.8283 C   0  0  1  0  0  0
  -27.2251  -27.2349   20.1771 C   0  0  0  0  0  0
  -25.5980  -33.8529   24.2249 N   0  0  0  0  0  0
  -23.4309  -30.4686   21.5322 C   0  0  2  0  0  0
  -24.8818  -28.8987   20.1188 C   0  0  0  0  0  0
  -22.7521  -29.4569   22.4876 C   0  0  0  0  0  0
  -18.0305  -28.1399   22.8492 C   0  0  0  0  0  0
  -24.1460  -36.7255   23.2636 C   0  0  0  0  0  0
  -25.9739  -30.7596   21.3720 C   0  0  0  0  0  0
  -26.0490  -29.3728   20.7306 C   0  0  0  0  0  0
  -27.2277  -28.5571   20.7431 C   0  0  0  0  0  0
  -26.0372  -26.8202   19.5443 C   0  0  0  0  0  0
  -24.8818  -27.6329   19.5096 C   0  0  0  0  0  0
  -23.6534  -29.7905   20.1514 C   0  0  0  0  0  0
  -25.4105  -36.3059   24.0325 C   0  0  1  0  0  0
  -20.5918  -28.3690   23.1288 C   0  0  2  0  0  0
  -20.6802  -26.9405   22.5418 C   0  0  0  0  0  0
  -19.5762  -26.6382   21.5231 C   0  0  0  0  0  0
  -18.1941  -26.7954   22.1619 C   0  0  0  0  0  0
  -19.1563  -28.8877   23.2882 C   0  0  0  0  0  0
  -18.9462  -30.1496   23.8860 C   0  0  0  0  0  0
  -17.6448  -30.6581   24.0568 C   0  0  0  0  0  0
  -25.9051  -34.9425   23.5080 C   0  0  0  0  0  0
  -16.5344  -29.9064   23.6353 C   0  0  0  0  0  0
  -16.7291  -28.6506   23.0349 C   0  0  0  0  0  0
  -26.4529  -31.6559   25.0654 C   0  0  0  0  0  0
  -25.3765  -31.3693   26.1386 C   0  0  0  0  0  0
  -27.0356  -30.2959   24.6144 C   0  0  0  0  0  0
  -27.6073  -32.4288   25.7438 C   0  0  0  0  0  0
  -27.5567  -37.1796   24.8474 C   0  0  0  0  0  0
  -21.4217  -29.3028   22.3651 N   0  0  0  0  0  0
  -26.4266  -37.3772   23.9432 N   0  0  0  0  0  0
  -24.6977  -31.0485   22.0874 N   0  0  0  0  0  0
  -23.4233  -28.8133   23.2980 O   0  0  0  0  0  0
  -28.3403  -26.3615   20.1669 O   0  0  0  0  0  0
  -26.5540  -34.8926   22.4597 O   0  0  0  0  0  0
  -23.5481  -32.1281   23.7250 O   0  0  0  0  0  0
  -30.5527  -18.7070   18.3264 C   0  0  0  0  0  0
  -30.4016  -17.4475   18.9216 C   0  0  0  0  0  0
  -30.2756  -19.9072   19.0097 C   0  0  0  0  0  0
  -29.7427  -19.9004   20.3344 C   0  0  0  0  0  0
  -29.6020  -18.5553   20.9406 C   0  0  0  0  0  0
  -29.9631  -17.3061   20.2520 C   0  0  0  0  0  0
  -27.3857  -22.1367   16.8841 C   0  0  0  0  0  0
  -28.2739  -23.6344   20.2056 C   0  0  0  0  0  0
  -27.7095  -22.2816   18.1844 C   0  0  0  0  0  0
  -27.9338  -23.5321   18.9011 C   0  0  0  0  0  0
  -27.2319  -20.7630   16.2497 C   0  0  0  0  0  0
  -27.2087  -23.2689   15.8855 C   0  0  0  0  0  0
  -28.2158  -20.5902   15.0748 C   0  0  0  0  0  0
  -28.2403  -23.1282   14.7565 C   0  0  0  0  0  0
  -28.1355  -21.7546   14.0674 C   0  0  0  0  0  0
  -26.7058  -23.1560   23.5176 C   0  0  0  0  0  0
  -27.8521  -24.1779   23.3831 C   0  0  0  0  0  0
  -26.1752  -22.5476   22.2019 C   0  0  0  0  0  0
  -27.6320  -25.2366   22.2827 C   0  0  0  0  0  0
  -27.1592  -21.6365   21.4498 C   0  0  0  0  0  0
  -28.4081  -25.0592   20.9487 C   0  0  2  0  0  0
  -30.7000  -21.1734   18.2723 C   0  0  0  0  0  0
  -29.1451  -18.3981   22.3843 C   0  0  0  0  0  0
  -29.6347  -21.3366   21.0851 C   0  0  0  0  0  0
  -29.8509  -15.9113   20.7863 N   0  0  0  0  0  0
  -28.4320  -22.3220   21.0983 N   0  3  1  0  0  0
  -31.4736  -12.5810   19.2056 H   0  0  0  0  0  0
  -30.3624  -11.4862   19.9770 H   0  0  0  0  0  0
  -29.8133  -11.7546   17.5340 H   0  0  0  0  0  0
  -29.6496  -13.4785   17.7435 H   0  0  0  0  0  0
  -27.8959  -11.2917   18.9092 H   0  0  0  0  0  0
  -27.3928  -12.5386   17.7988 H   0  0  0  0  0  0
  -27.6360  -14.2599   19.4784 H   0  0  0  0  0  0
  -28.7071  -12.1831   21.4455 H   0  0  0  0  0  0
  -28.3987  -13.8591   21.8028 H   0  0  0  0  0  0
  -25.2720   -9.5654   22.4750 H   0  0  0  0  0  0
  -23.9946   -7.4609   22.7457 H   0  0  0  0  0  0
  -21.0822   -8.8726   19.8943 H   0  0  0  0  0  0
  -22.3644  -10.9636   19.6122 H   0  0  0  0  0  0
  -21.2038   -7.6139   23.9722 H   0  0  0  0  0  0
  -21.1466   -6.0500   25.9085 H   0  0  0  0  0  0
  -22.0607   -2.7579   23.2844 H   0  0  0  0  0  0
  -22.4009  -11.9873   22.4847 H   0  0  0  0  0  0
  -21.1023  -13.1222   22.2590 H   0  0  0  0  0  0
  -24.6349  -15.8389   20.5200 H   0  0  0  0  0  0
  -26.2572  -15.6483   20.0847 H   0  0  0  0  0  0
  -26.7207  -32.5362   23.1030 H   0  0  0  0  0  0
  -25.0395  -33.9660   25.0571 H   0  0  0  0  0  0
  -22.7277  -31.2887   21.3823 H   0  0  0  0  0  0
  -23.3744  -35.9561   23.3288 H   0  0  0  0  0  0
  -24.3572  -36.8850   22.2054 H   0  0  0  0  0  0
  -23.7188  -37.6459   23.6633 H   0  0  0  0  0  0
  -26.1020  -31.5078   20.5895 H   0  0  0  0  0  0
  -26.8571  -30.8262   21.9965 H   0  0  0  0  0  0
  -28.1273  -28.9240   21.2195 H   0  0  0  0  0  0
  -25.9905  -25.8430   19.0856 H   0  0  0  0  0  0
  -23.9891  -27.2641   19.0193 H   0  0  0  0  0  0
  -23.7816  -30.5574   19.3865 H   0  0  0  0  0  0
  -22.7743  -29.2214   19.8454 H   0  0  0  0  0  0
  -25.1296  -36.1888   25.0816 H   0  0  0  0  0  0
  -21.0023  -28.3235   24.1409 H   0  0  0  0  0  0
  -20.5746  -26.2276   23.3606 H   0  0  0  0  0  0
  -21.6669  -26.7435   22.1201 H   0  0  0  0  0  0
  -19.6889  -25.6288   21.1260 H   0  0  0  0  0  0
  -19.6725  -27.3202   20.6765 H   0  0  0  0  0  0
  -17.4257  -26.6782   21.3968 H   0  0  0  0  0  0
  -18.0269  -26.0070   22.8972 H   0  0  0  0  0  0
  -19.7927  -30.7362   24.2162 H   0  0  0  0  0  0
  -17.4986  -31.6243   24.5191 H   0  0  0  0  0  0
  -15.5344  -30.2945   23.7707 H   0  0  0  0  0  0
  -15.8706  -28.0829   22.7028 H   0  0  0  0  0  0
  -24.6069  -30.6881   25.7780 H   0  0  0  0  0  0
  -24.8809  -32.2816   26.4662 H   0  0  0  0  0  0
  -25.8141  -30.9051   27.0223 H   0  0  0  0  0  0
  -26.2900  -29.6730   24.1192 H   0  0  0  0  0  0
  -27.4079  -29.7247   25.4660 H   0  0  0  0  0  0
  -27.8791  -30.4250   23.9362 H   0  0  0  0  0  0
  -27.2706  -33.3659   26.1889 H   0  0  0  0  0  0
  -28.3960  -32.6700   25.0297 H   0  0  0  0  0  0
  -28.0645  -31.8462   26.5441 H   0  0  0  0  0  0
  -28.2593  -38.0087   24.7527 H   0  0  0  0  0  0
  -28.1049  -36.2624   24.6280 H   0  0  0  0  0  0
  -27.2285  -37.1421   25.8874 H   0  0  0  0  0  0
  -20.9393  -29.8732   21.6848 H   0  0  0  0  0  0
  -26.0129  -38.2827   24.1483 H   0  0  0  0  0  0
  -30.9454  -18.7434   17.3179 H   0  0  0  0  0  0
  -30.6531  -16.5815   18.3255 H   0  0  0  0  0  0
  -27.8348  -21.3563   18.7230 H   0  0  0  0  0  0
  -27.8015  -24.4658   18.3766 H   0  0  0  0  0  0
  -26.2051  -20.6637   15.8920 H   0  0  0  0  0  0
  -27.3797  -19.9739   16.9902 H   0  0  0  0  0  0
  -27.2871  -24.2520   16.3444 H   0  0  0  0  0  0
  -26.1999  -23.1991   15.4767 H   0  0  0  0  0  0
  -28.0331  -19.6416   14.5694 H   0  0  0  0  0  0
  -29.2312  -20.5230   15.4636 H   0  0  0  0  0  0
  -29.2414  -23.2574   15.1672 H   0  0  0  0  0  0
  -28.1102  -23.9309   14.0276 H   0  0  0  0  0  0
  -27.1952  -21.6980   13.5167 H   0  0  0  0  0  0
  -28.9311  -21.6487   13.3261 H   0  0  0  0  0  0
  -25.8689  -23.6573   24.0046 H   0  0  0  0  0  0
  -27.0079  -22.3620   24.2048 H   0  0  0  0  0  0
  -28.8229  -23.6929   23.2890 H   0  0  0  0  0  0
  -27.9215  -24.6950   24.3432 H   0  0  0  0  0  0
  -25.7962  -23.3242   21.5382 H   0  0  0  0  0  0
  -25.2958  -21.9520   22.4489 H   0  0  0  0  0  0
  -27.9668  -26.1866   22.7047 H   0  0  0  0  0  0
  -26.5685  -25.3872   22.1007 H   0  0  0  0  0  0
  -26.6745  -21.2300   20.5644 H   0  0  0  0  0  0
  -27.3619  -20.7853   22.0924 H   0  0  0  0  0  0
  -29.4602  -25.0373   21.2433 H   0  0  0  0  0  0
  -30.3062  -21.1800   17.2593 H   0  0  0  0  0  0
  -31.7861  -21.1936   18.1867 H   0  0  0  0  0  0
  -30.3927  -22.1092   18.7269 H   0  0  0  0  0  0
  -28.7919  -19.3156   22.8414 H   0  0  0  0  0  0
  -29.9719  -18.0260   22.9912 H   0  0  0  0  0  0
  -28.3300  -17.6781   22.4483 H   0  0  0  0  0  0
  -30.5229  -21.9218   20.8483 H   0  0  0  0  0  0
  -29.8233  -21.1224   22.1377 H   0  0  0  0  0  0
  -29.0184  -15.7250   21.3241 H   0  0  0  0  0  0
  -28.6245  -22.7290   22.0035 H   0  0  0  0  0  0
  1 25  1  0  0  0
  1 30  2  0  0  0
  1 95  1  0  0  0
  2  3  1  0  0  0
  2 25  1  0  0  0
  2 97  1  0  0  0
  2 98  1  0  0  0
  3  4  1  0  0  0
  3 99  1  0  0  0
  3100  1  0  0  0
  4  5  1  0  0  0
  4101  1  0  0  0
  4102  1  0  0  0
  5  6  1  0  0  0
  5 26  1  0  0  0
  5103  1  0  0  0
  6 25  1  0  0  0
  6104  1  0  0  0
  6105  1  0  0  0
  7  8  2  0  0  0
  7 26  1  0  0  0
  7 29  1  0  0  0
  8  9  1  0  0  0
  8 22  1  0  0  0
  9 10  1  0  0  0
  9 27  2  0  0  0
 10 11  2  0  0  0
 10 15  1  0  0  0
 11 12  1  0  0  0
 11106  1  0  0  0
 12 13  2  0  0  0
 12107  1  0  0  0
 13 14  1  0  0  0
 13 31  1  0  0  0
 14 15  2  0  0  0
 14108  1  0  0  0
 15109  1  0  0  0
 16 17  2  0  0  0
 16 21  1  0  0  0
 16 31  1  0  0  0
 17 18  1  0  0  0
 17110  1  0  0  0
 18 19  2  0  0  0
 18111  1  0  0  0
 19 20  1  0  0  0
 19 24  1  0  0  0
 20 21  2  0  0  0
 20112  1  0  0  0
 21 23  1  0  0  0
 22 28  1  0  0  0
 22 32  2  0  0  0
 26 27  1  0  0  0
 28113  1  0  0  0
 28114  1  0  0  0
 29115  1  0  0  0
 29116  1  0  0  0
 33 34  1  0  0  0
 33 66  1  0  0  0
 33 70  2  0  0  0
 34 36  1  0  0  0
 34 59  1  0  0  0
 34117  1  0  0  0
 35 44  2  0  0  0
 35 45  1  0  0  0
 35 68  1  0  0  0
 36 56  1  0  0  0
 36118  1  0  0  0
 37 39  1  0  0  0
 37 47  1  0  0  0
 37 66  1  0  0  0
 37119  1  0  0  0
 38 43  2  0  0  0
 38 46  1  0  0  0
 38 47  1  0  0  0
 39 64  1  0  0  0
 39 67  2  0  0  0
 40 52  1  0  0  0
 40 53  2  0  0  0
 40 58  1  0  0  0
 41120  1  0  0  0
 41121  1  0  0  0
 41122  1  0  0  0
 41 48  1  0  0  0
 42 43  1  0  0  0
 42 66  1  0  0  0
 42123  1  0  0  0
 42124  1  0  0  0
 43 44  1  0  0  0
 44125  1  0  0  0
 45 46  2  0  0  0
 45126  1  0  0  0
 46127  1  0  0  0
 47128  1  0  0  0
 47129  1  0  0  0
 48 56  1  0  0  0
 48 65  1  0  0  0
 48130  1  0  0  0
 49 50  1  0  0  0
 49 53  1  0  0  0
 49 64  1  0  0  0
 49131  1  0  0  0
 50 51  1  0  0  0
 50132  1  0  0  0
 50133  1  0  0  0
 51 52  1  0  0  0
 51134  1  0  0  0
 51135  1  0  0  0
 52136  1  0  0  0
 52137  1  0  0  0
 53 54  1  0  0  0
 54 55  2  0  0  0
 54138  1  0  0  0
 55 57  1  0  0  0
 55139  1  0  0  0
 56 69  2  0  0  0
 57 58  2  0  0  0
 57140  1  0  0  0
 58141  1  0  0  0
 59 60  1  0  0  0
 59 61  1  0  0  0
 59 62  1  0  0  0
 60142  1  0  0  0
 60143  1  0  0  0
 60144  1  0  0  0
 61145  1  0  0  0
 61146  1  0  0  0
 61147  1  0  0  0
 62148  1  0  0  0
 62149  1  0  0  0
 62150  1  0  0  0
 63 65  1  0  0  0
 63151  1  0  0  0
 63152  1  0  0  0
 63153  1  0  0  0
 64154  1  0  0  0
 65155  1  0  0  0
 68 91  1  0  0  0
 71 72  2  0  0  0
 71 73  1  0  0  0
 71156  1  0  0  0
 72 76  1  0  0  0
 72157  1  0  0  0
 73 74  2  0  0  0
 73 92  1  0  0  0
 74 75  1  0  0  0
 74 94  1  0  0  0
 75 76  2  0  0  0
 75 93  1  0  0  0
 76 95  1  0  0  0
 77 79  2  0  0  0
 77 81  1  0  0  0
 77 82  1  0  0  0
 78 80  2  0  0  0
 78 91  1  0  0  0
 78 96  1  0  0  0
 79 80  1  0  0  0
 79158  1  0  0  0
 80159  1  0  0  0
 81 83  1  0  0  0
 81160  1  0  0  0
 81161  1  0  0  0
 82 84  1  0  0  0
 82162  1  0  0  0
 82163  1  0  0  0
 83 85  1  0  0  0
 83164  1  0  0  0
 83165  1  0  0  0
 84 85  1  0  0  0
 84166  1  0  0  0
 84167  1  0  0  0
 85168  1  0  0  0
 85169  1  0  0  0
 86 87  1  0  0  0
 86 88  1  0  0  0
 86170  1  0  0  0
 86171  1  0  0  0
 87 89  1  0  0  0
 87172  1  0  0  0
 87173  1  0  0  0
 88 90  1  0  0  0
 88174  1  0  0  0
 88175  1  0  0  0
 89 91  1  0  0  0
 89176  1  0  0  0
 89177  1  0  0  0
 90 96  1  0  0  0
 90178  1  0  0  0
 90179  1  0  0  0
 91180  1  0  0  0
 92181  1  0  0  0
 92182  1  0  0  0
 92183  1  0  0  0
 93184  1  0  0  0
 93185  1  0  0  0
 93186  1  0  0  0
 94187  1  0  0  0
 94188  1  0  0  0
 94 96  1  0  0  0
 95189  1  0  0  0
 96190  1  0  0  0
M  CHG  1  96   1
M  ISO  4   1 100  68 101  91 101  95 100
M  END
> <chiral flag>
0

> <version>
0

> <s_m_source_file>
/data/baiqing/PycharmProjects/Reinvent-master-3.2/result/LINK_invent/BTK/process_docking_weight1_custom_product_contain_oxygen_bond_distance_aromatic_linkinvent_7_9_3/rearranged_h_0041.sdf

> <i_m_source_file_index>
20

> <r_mmod_Potential_Energy-OPLS-2005>
239.048736572266

> <r_mmod_Stretch_Energy-OPLS-2005>
172.778457641602

> <r_mmod_Bend_Energy-OPLS-2005>
258.153991699219

> <r_mmod_Torsional_Energy-OPLS-2005>
289.824340820312

> <r_mmod_Improper_Torsional_Energy-OPLS-2005>
5.76019144058228

> <r_mmod_Van_der_Waal_Energy-OPLS-2005>
133.406555175781

> <r_mmod_Electrostatic_Energy-OPLS-2005>
-297.017822265625

> <r_mmod_Solvation_Energy-OPLS-2005>
-418.463806152344

> <b_mmod_Minimization_Converged-OPLS-2005>
0

> <r_mmod_RMS_Derivative-OPLS-2005>
4.90267181396484

$$$$
20
                    3D
 Structure written by MMmdl.
168177  0  0  1  0            999 V2000
  -30.6505  -14.5049   20.5666 C   0  0  0  0  0  0
  -30.4403  -12.3268   19.4125 C   0  0  0  0  0  0
  -29.4992  -12.5191   18.2034 C   0  0  0  0  0  0
  -28.0193  -12.3773   18.6152 C   0  0  0  0  0  0
  -27.6665  -13.2017   19.8810 C   0  0  2  0  0  0
  -28.7107  -12.9533   20.9937 C   0  0  0  0  0  0
  -25.2606  -13.8143   20.5674 C   0  0  0  0  0  0
  -24.1857  -13.0418   20.9190 C   0  0  0  0  0  0
  -24.6417  -11.6889   20.8745 C   0  0  0  0  0  0
  -23.9074  -10.4281   21.0417 C   0  0  0  0  0  0
  -24.3629   -9.4189   21.9188 C   0  0  0  0  0  0
  -23.6300   -8.2228   22.0754 C   0  0  0  0  0  0
  -22.4279   -8.0276   21.3550 C   0  0  0  0  0  0
  -21.9917   -9.0246   20.4644 C   0  0  0  0  0  0
  -22.7248  -10.2128   20.3058 C   0  0  0  0  0  0
  -21.6852   -6.0734   22.5279 C   0  0  0  0  0  0
  -21.4013   -6.5640   23.8204 C   0  0  0  0  0  0
  -21.3665   -5.6796   24.9173 C   0  0  0  0  0  0
  -21.6046   -4.3054   24.7223 C   0  0  0  0  0  0
  -21.8827   -3.8144   23.4344 C   0  0  0  0  0  0
  -21.9192   -4.6961   22.3402 C   0  0  0  0  0  0
  -22.7879  -13.5203   21.1857 C   0  0  0  0  0  0
  -22.1661   -4.2150   21.0978 F   0  0  0  0  0  0
  -21.5636   -3.4530   25.7733 F   0  0  0  0  0  0
  -30.0403  -13.2917   20.4489 N   0  0  0  0  0  0
  -26.3051  -12.9307   20.3386 N   0  0  0  0  0  0
  -25.9340  -11.6468   20.5781 N   0  0  0  0  0  0
  -22.0538  -12.8183   22.0420 N   0  0  0  0  0  0
  -25.4306  -15.1852   20.4035 N   0  0  0  0  0  0
  -31.7741  -14.7384   20.1072 O   0  0  0  0  0  0
  -21.6641   -6.8880   21.4247 O   0  0  0  0  0  0
  -22.3555  -14.5505   20.6701 O   0  0  0  0  0  0
  -24.6171  -31.8654   23.2077 C   0  0  0  0  0  0
  -25.9053  -32.4807   23.8377 C   0  0  1  0  0  0
  -27.2392  -27.4199   20.0831 C   0  0  0  0  0  0
  -25.5897  -33.8607   24.2299 N   0  0  0  0  0  0
  -23.4027  -30.4877   21.5517 C   0  0  2  0  0  0
  -24.8442  -28.9466   20.1179 C   0  0  0  0  0  0
  -22.7413  -29.4646   22.5028 C   0  0  0  0  0  0
  -18.0263  -28.1378   22.8507 C   0  0  0  0  0  0
  -24.1491  -36.7312   23.2647 C   0  0  0  0  0  0
  -25.9310  -30.8315   21.3523 C   0  0  0  0  0  0
  -26.0077  -29.4645   20.6967 C   0  0  0  0  0  0
  -27.2037  -28.7114   20.6667 C   0  0  0  0  0  0
  -26.0380  -26.8986   19.5515 C   0  0  0  0  0  0
  -24.8548  -27.6637   19.5450 C   0  0  0  0  0  0
  -23.6065  -29.8136   20.1689 C   0  0  0  0  0  0
  -25.4113  -36.3095   24.0339 C   0  0  1  0  0  0
  -20.5853  -28.3664   23.1348 C   0  0  2  0  0  0
  -20.6760  -26.9408   22.5432 C   0  0  0  0  0  0
  -19.5734  -26.6390   21.5230 C   0  0  0  0  0  0
  -18.1909  -26.7928   22.1634 C   0  0  0  0  0  0
  -19.1512  -28.8838   23.2920 C   0  0  0  0  0  0
  -18.9439  -30.1448   23.8925 C   0  0  0  0  0  0
  -17.6441  -30.6589   24.0568 C   0  0  0  0  0  0
  -25.9045  -34.9464   23.5115 C   0  0  0  0  0  0
  -16.5335  -29.9087   23.6330 C   0  0  0  0  0  0
  -16.7250  -28.6497   23.0365 C   0  0  0  0  0  0
  -26.4471  -31.6607   25.0718 C   0  0  0  0  0  0
  -25.3739  -31.3688   26.1464 C   0  0  0  0  0  0
  -27.0328  -30.3068   24.6089 C   0  0  0  0  0  0
  -27.6038  -32.4345   25.7469 C   0  0  0  0  0  0
  -27.5577  -37.1806   24.8465 C   0  0  0  0  0  0
  -21.4138  -29.3032   22.3766 N   0  0  0  0  0  0
  -26.4289  -37.3790   23.9410 N   0  0  0  0  0  0
  -24.6696  -31.0757   22.0963 N   0  0  0  0  0  0
  -23.4181  -28.8196   23.3080 O   0  0  0  0  0  0
  -28.4479  -26.7422   20.1153 O   0  0  0  0  0  0
  -26.5619  -34.8922   22.4684 O   0  0  0  0  0  0
  -23.5362  -32.1400   23.7480 O   0  0  0  0  0  0
  -30.8432  -19.1057   20.7470 C   0  0  0  0  0  0
  -30.9655  -17.6920   20.7598 C   0  0  0  0  0  0
  -28.5816  -17.5138   21.1508 C   0  0  0  0  0  0
  -29.5928  -19.7457   20.9486 C   0  0  0  0  0  0
  -29.8316  -16.8755   20.9863 C   0  0  0  0  0  0
  -28.4530  -18.9211   21.1257 C   0  0  0  0  0  0
  -29.3953  -24.6491   20.4661 C   0  0  0  0  0  0
  -28.7003  -25.4674   19.6338 C   0  0  0  0  0  0
  -30.1901  -23.4692   20.1147 C   0  0  0  0  0  0
  -31.5201  -23.5999   19.9331 C   0  0  0  0  0  0
  -28.4641  -25.2865   18.1233 C   0  0  0  0  0  0
  -29.1263  -24.0808   17.4210 C   0  0  0  0  0  0
  -28.4797  -22.6877   17.6646 C   0  0  0  0  0  0
  -28.3052  -22.1770   19.1218 C   0  0  0  0  0  0
  -32.5036  -22.5178   19.5264 C   0  0  0  0  0  0
  -29.5154  -21.2813   21.1285 C   0  0  0  0  0  0
  -29.8620  -15.4482   21.1262 N   0  0  0  0  0  0
  -29.5743  -22.1192   19.8907 N   0  3  2  0  0  0
  -26.8824  -19.6012   21.3691 Cl  0  0  0  0  0  0
  -31.4794  -12.4579   19.1048 H   0  0  0  0  0  0
  -30.3695  -11.3090   19.7990 H   0  0  0  0  0  0
  -29.7356  -11.7975   17.4208 H   0  0  0  0  0  0
  -29.6636  -13.5054   17.7676 H   0  0  0  0  0  0
  -27.8219  -11.3203   18.7973 H   0  0  0  0  0  0
  -27.3724  -12.6706   17.7881 H   0  0  0  0  0  0
  -27.7148  -14.2527   19.5979 H   0  0  0  0  0  0
  -28.6986  -11.9048   21.2968 H   0  0  0  0  0  0
  -28.4634  -13.5091   21.8993 H   0  0  0  0  0  0
  -25.2790   -9.5637   22.4743 H   0  0  0  0  0  0
  -24.0006   -7.4611   22.7466 H   0  0  0  0  0  0
  -21.0852   -8.8764   19.8942 H   0  0  0  0  0  0
  -22.3724  -10.9666   19.6149 H   0  0  0  0  0  0
  -21.2007   -7.6149   23.9708 H   0  0  0  0  0  0
  -21.1482   -6.0531   25.9082 H   0  0  0  0  0  0
  -22.0606   -2.7607   23.2845 H   0  0  0  0  0  0
  -22.4178  -11.9828   22.4765 H   0  0  0  0  0  0
  -21.1150  -13.1185   22.2652 H   0  0  0  0  0  0
  -24.6521  -15.8290   20.4878 H   0  0  0  0  0  0
  -26.2584  -15.6152   20.0121 H   0  0  0  0  0  0
  -26.7125  -32.5498   23.1143 H   0  0  0  0  0  0
  -25.0025  -33.9772   25.0425 H   0  0  0  0  0  0
  -22.6908  -31.3044   21.4135 H   0  0  0  0  0  0
  -23.3746  -35.9651   23.3299 H   0  0  0  0  0  0
  -24.3582  -36.8943   22.2061 H   0  0  0  0  0  0
  -23.7253  -37.6517   23.6676 H   0  0  0  0  0  0
  -26.0391  -31.5978   20.5834 H   0  0  0  0  0  0
  -26.8212  -30.8867   21.9676 H   0  0  0  0  0  0
  -28.1070  -29.1155   21.1028 H   0  0  0  0  0  0
  -25.9741  -25.8939   19.1717 H   0  0  0  0  0  0
  -23.9493  -27.2442   19.1278 H   0  0  0  0  0  0
  -23.7111  -30.5851   19.4056 H   0  0  0  0  0  0
  -22.7283  -29.2332   19.8792 H   0  0  0  0  0  0
  -25.1291  -36.1948   25.0835 H   0  0  0  0  0  0
  -20.9937  -28.3221   24.1474 H   0  0  0  0  0  0
  -20.5702  -26.2264   23.3608 H   0  0  0  0  0  0
  -21.6628  -26.7475   22.1206 H   0  0  0  0  0  0
  -19.6909  -25.6311   21.1246 H   0  0  0  0  0  0
  -19.6672  -27.3215   20.6774 H   0  0  0  0  0  0
  -17.4191  -26.6702   21.4021 H   0  0  0  0  0  0
  -18.0281  -26.0062   22.9015 H   0  0  0  0  0  0
  -19.7911  -30.7257   24.2316 H   0  0  0  0  0  0
  -17.4992  -31.6278   24.5159 H   0  0  0  0  0  0
  -15.5335  -30.2996   23.7644 H   0  0  0  0  0  0
  -15.8648  -28.0820   22.7084 H   0  0  0  0  0  0
  -24.5902  -30.7059   25.7779 H   0  0  0  0  0  0
  -24.8940  -32.2833   26.4957 H   0  0  0  0  0  0
  -25.8098  -30.8808   27.0194 H   0  0  0  0  0  0
  -26.2877  -29.6795   24.1185 H   0  0  0  0  0  0
  -27.4170  -29.7332   25.4537 H   0  0  0  0  0  0
  -27.8661  -30.4419   23.9190 H   0  0  0  0  0  0
  -27.2651  -33.3632   26.2076 H   0  0  0  0  0  0
  -28.3806  -32.6947   25.0266 H   0  0  0  0  0  0
  -28.0757  -31.8468   26.5356 H   0  0  0  0  0  0
  -28.2587  -38.0109   24.7516 H   0  0  0  0  0  0
  -28.1078  -36.2639   24.6279 H   0  0  0  0  0  0
  -27.2300  -37.1440   25.8870 H   0  0  0  0  0  0
  -20.9316  -29.8706   21.6935 H   0  0  0  0  0  0
  -26.0167  -38.2864   24.1418 H   0  0  0  0  0  0
  -31.7410  -19.6956   20.6292 H   0  0  0  0  0  0
  -31.9459  -17.2512   20.6405 H   0  0  0  0  0  0
  -27.6954  -16.9211   21.3270 H   0  0  0  0  0  0
  -29.5248  -25.0061   21.4787 H   0  0  0  0  0  0
  -31.9639  -24.5745   20.0890 H   0  0  0  0  0  0
  -28.8160  -26.2006   17.6425 H   0  0  0  0  0  0
  -27.4038  -25.2310   17.8970 H   0  0  0  0  0  0
  -30.1998  -24.0675   17.6006 H   0  0  0  0  0  0
  -29.0552  -24.2683   16.3485 H   0  0  0  0  0  0
  -29.0535  -21.9492   17.1042 H   0  0  0  0  0  0
  -27.4926  -22.6884   17.2005 H   0  0  0  0  0  0
  -27.8829  -21.1733   19.0703 H   0  0  0  0  0  0
  -27.5694  -22.7787   19.6572 H   0  0  0  0  0  0
  -32.0297  -21.5861   19.2224 H   0  0  0  0  0  0
  -33.1851  -22.3054   20.3507 H   0  0  0  0  0  0
  -33.1004  -22.8694   18.6841 H   0  0  0  0  0  0
  -30.3682  -21.5462   21.7566 H   0  0  0  0  0  0
  -28.6478  -21.5692   21.7219 H   0  0  0  0  0  0
  -29.0091  -15.0486   21.4866 H   0  0  0  0  0  0
  -30.2166  -21.6158   19.2986 H   0  0  0  0  0  0
  1 25  1  0  0  0
  1 30  2  0  0  0
  1 87  1  0  0  0
  2  3  1  0  0  0
  2 25  1  0  0  0
  2 90  1  0  0  0
  2 91  1  0  0  0
  3  4  1  0  0  0
  3 92  1  0  0  0
  3 93  1  0  0  0
  4  5  1  0  0  0
  4 94  1  0  0  0
  4 95  1  0  0  0
  5  6  1  0  0  0
  5 26  1  0  0  0
  5 96  1  0  0  0
  6 25  1  0  0  0
  6 97  1  0  0  0
  6 98  1  0  0  0
  7  8  2  0  0  0
  7 26  1  0  0  0
  7 29  1  0  0  0
  8  9  1  0  0  0
  8 22  1  0  0  0
  9 10  1  0  0  0
  9 27  2  0  0  0
 10 11  2  0  0  0
 10 15  1  0  0  0
 11 12  1  0  0  0
 11 99  1  0  0  0
 12 13  2  0  0  0
 12100  1  0  0  0
 13 14  1  0  0  0
 13 31  1  0  0  0
 14 15  2  0  0  0
 14101  1  0  0  0
 15102  1  0  0  0
 16 17  2  0  0  0
 16 21  1  0  0  0
 16 31  1  0  0  0
 17 18  1  0  0  0
 17103  1  0  0  0
 18 19  2  0  0  0
 18104  1  0  0  0
 19 20  1  0  0  0
 19 24  1  0  0  0
 20 21  2  0  0  0
 20105  1  0  0  0
 21 23  1  0  0  0
 22 28  1  0  0  0
 22 32  2  0  0  0
 26 27  1  0  0  0
 28106  1  0  0  0
 28107  1  0  0  0
 29108  1  0  0  0
 29109  1  0  0  0
 33 34  1  0  0  0
 33 66  1  0  0  0
 33 70  2  0  0  0
 34 36  1  0  0  0
 34 59  1  0  0  0
 34110  1  0  0  0
 35 44  2  0  0  0
 35 45  1  0  0  0
 35 68  1  0  0  0
 36 56  1  0  0  0
 36111  1  0  0  0
 37 39  1  0  0  0
 37 47  1  0  0  0
 37 66  1  0  0  0
 37112  1  0  0  0
 38 43  2  0  0  0
 38 46  1  0  0  0
 38 47  1  0  0  0
 39 64  1  0  0  0
 39 67  2  0  0  0
 40 52  1  0  0  0
 40 53  2  0  0  0
 40 58  1  0  0  0
 41113  1  0  0  0
 41114  1  0  0  0
 41115  1  0  0  0
 41 48  1  0  0  0
 42 43  1  0  0  0
 42 66  1  0  0  0
 42116  1  0  0  0
 42117  1  0  0  0
 43 44  1  0  0  0
 44118  1  0  0  0
 45 46  2  0  0  0
 45119  1  0  0  0
 46120  1  0  0  0
 47121  1  0  0  0
 47122  1  0  0  0
 48 56  1  0  0  0
 48 65  1  0  0  0
 48123  1  0  0  0
 49 50  1  0  0  0
 49 53  1  0  0  0
 49 64  1  0  0  0
 49124  1  0  0  0
 50 51  1  0  0  0
 50125  1  0  0  0
 50126  1  0  0  0
 51 52  1  0  0  0
 51127  1  0  0  0
 51128  1  0  0  0
 52129  1  0  0  0
 52130  1  0  0  0
 53 54  1  0  0  0
 54 55  2  0  0  0
 54131  1  0  0  0
 55 57  1  0  0  0
 55132  1  0  0  0
 56 69  2  0  0  0
 57 58  2  0  0  0
 57133  1  0  0  0
 58134  1  0  0  0
 59 60  1  0  0  0
 59 61  1  0  0  0
 59 62  1  0  0  0
 60135  1  0  0  0
 60136  1  0  0  0
 60137  1  0  0  0
 61138  1  0  0  0
 61139  1  0  0  0
 61140  1  0  0  0
 62141  1  0  0  0
 62142  1  0  0  0
 62143  1  0  0  0
 63 65  1  0  0  0
 63144  1  0  0  0
 63145  1  0  0  0
 63146  1  0  0  0
 64147  1  0  0  0
 65148  1  0  0  0
 68 78  1  0  0  0
 71 72  2  0  0  0
 71 74  1  0  0  0
 71149  1  0  0  0
 72 75  1  0  0  0
 72150  1  0  0  0
 73 75  2  0  0  0
 73 76  1  0  0  0
 73151  1  0  0  0
 74 76  2  0  0  0
 74 86  1  0  0  0
 75 87  1  0  0  0
 76 89  1  0  0  0
 77 78  2  0  0  0
 77 79  1  0  0  0
 77152  1  0  0  0
 78 81  1  0  0  0
 79 80  2  0  0  0
 79 88  1  0  0  0
 80 85  1  0  0  0
 80153  1  0  0  0
 81 82  1  0  0  0
 81154  1  0  0  0
 81155  1  0  0  0
 82 83  1  0  0  0
 82156  1  0  0  0
 82157  1  0  0  0
 83 84  1  0  0  0
 83158  1  0  0  0
 83159  1  0  0  0
 84 88  1  0  0  0
 84160  1  0  0  0
 84161  1  0  0  0
 85162  1  0  0  0
 85163  1  0  0  0
 85164  1  0  0  0
 86165  1  0  0  0
 86166  1  0  0  0
 86 88  1  0  0  0
 87167  1  0  0  0
 88168  1  0  0  0
M  CHG  1  88   1
M  ISO  4   1 100  68 101  78 101  87 100
M  END
> <chiral flag>
0

> <version>
0

> <s_m_source_file>
/data/baiqing/PycharmProjects/Reinvent-master-3.2/result/LINK_invent/BTK/process_docking_weight1_custom_product_contain_oxygen_bond_distance_aromatic_linkinvent_7_9_3/rearranged_h_0041.sdf

> <i_m_source_file_index>
21

> <r_mmod_Potential_Energy-OPLS-2005>
-43.2042961120605

> <r_mmod_Stretch_Energy-OPLS-2005>
46.3615608215332

> <r_mmod_Bend_Energy-OPLS-2005>
152.088180541992

> <r_mmod_Torsional_Energy-OPLS-2005>
266.782531738281

> <r_mmod_Improper_Torsional_Energy-OPLS-2005>
6.06519556045532

> <r_mmod_Van_der_Waal_Energy-OPLS-2005>
153.252136230469

> <r_mmod_Electrostatic_Energy-OPLS-2005>
-271.427520751953

> <r_mmod_Solvation_Energy-OPLS-2005>
-412.874389648438

> <b_mmod_Minimization_Converged-OPLS-2005>
0

> <r_mmod_RMS_Derivative-OPLS-2005>
1.59898102283478

$$$$
21
                    3D
 Structure written by MMmdl.
159167  0  0  1  0            999 V2000
  -30.7353  -14.4944   20.6294 C   0  0  0  0  0  0
  -30.4176  -12.3509   19.4351 C   0  0  0  0  0  0
  -29.4914  -12.5225   18.2148 C   0  0  0  0  0  0
  -28.0232  -12.3506   18.6351 C   0  0  0  0  0  0
  -27.6584  -13.2046   19.8739 C   0  0  2  0  0  0
  -28.6979  -13.0080   21.0020 C   0  0  0  0  0  0
  -25.2547  -13.8096   20.5545 C   0  0  0  0  0  0
  -24.1832  -13.0412   20.9095 C   0  0  0  0  0  0
  -24.6394  -11.6858   20.8699 C   0  0  0  0  0  0
  -23.9090  -10.4237   21.0377 C   0  0  0  0  0  0
  -24.3625   -9.4164   21.9172 C   0  0  0  0  0  0
  -23.6257   -8.2224   22.0769 C   0  0  0  0  0  0
  -22.4238   -8.0291   21.3580 C   0  0  0  0  0  0
  -21.9894   -9.0276   20.4680 C   0  0  0  0  0  0
  -22.7246  -10.2113   20.3074 C   0  0  0  0  0  0
  -21.6842   -6.0738   22.5292 C   0  0  0  0  0  0
  -21.4004   -6.5638   23.8221 C   0  0  0  0  0  0
  -21.3674   -5.6771   24.9180 C   0  0  0  0  0  0
  -21.6043   -4.3033   24.7203 C   0  0  0  0  0  0
  -21.8809   -3.8147   23.4315 C   0  0  0  0  0  0
  -21.9160   -4.6961   22.3379 C   0  0  0  0  0  0
  -22.7867  -13.5270   21.1726 C   0  0  0  0  0  0
  -22.1644   -4.2167   21.0956 F   0  0  0  0  0  0
  -21.5616   -3.4504   25.7701 F   0  0  0  0  0  0
  -30.0260  -13.3386   20.4622 N   0  0  0  0  0  0
  -26.3008  -12.9295   20.3305 N   0  0  0  0  0  0
  -25.9336  -11.6449   20.5740 N   0  0  0  0  0  0
  -22.0454  -12.8396   22.0329 N   0  0  0  0  0  0
  -25.4202  -15.1791   20.3779 N   0  0  0  0  0  0
  -31.8149  -14.6744   20.0613 O   0  0  0  0  0  0
  -21.6613   -6.8882   21.4265 O   0  0  0  0  0  0
  -22.3640  -14.5603   20.6526 O   0  0  0  0  0  0
  -24.6179  -31.8667   23.2067 C   0  0  0  0  0  0
  -25.9083  -32.4802   23.8358 C   0  0  1  0  0  0
  -27.2200  -27.4374   20.1024 C   0  0  0  0  0  0
  -25.5954  -33.8593   24.2303 N   0  0  0  0  0  0
  -23.3986  -30.4933   21.5506 C   0  0  2  0  0  0
  -24.8360  -28.9536   20.1170 C   0  0  0  0  0  0
  -22.7404  -29.4691   22.5030 C   0  0  0  0  0  0
  -18.0285  -28.1360   22.8471 C   0  0  0  0  0  0
  -24.1489  -36.7310   23.2632 C   0  0  0  0  0  0
  -25.9222  -30.8346   21.3536 C   0  0  0  0  0  0
  -25.9946  -29.4657   20.7109 C   0  0  0  0  0  0
  -27.1924  -28.7162   20.7010 C   0  0  0  0  0  0
  -26.0451  -26.9310   19.5081 C   0  0  0  0  0  0
  -24.8557  -27.6842   19.5136 C   0  0  0  0  0  0
  -23.6008  -29.8263   20.1636 C   0  0  0  0  0  0
  -25.4108  -36.3104   24.0340 C   0  0  1  0  0  0
  -20.5857  -28.3688   23.1358 C   0  0  2  0  0  0
  -20.6785  -26.9399   22.5488 C   0  0  0  0  0  0
  -19.5813  -26.6361   21.5236 C   0  0  0  0  0  0
  -18.1967  -26.7910   22.1578 C   0  0  0  0  0  0
  -19.1509  -28.8839   23.2894 C   0  0  0  0  0  0
  -18.9394  -30.1450   23.8875 C   0  0  0  0  0  0
  -17.6411  -30.6582   24.0550 C   0  0  0  0  0  0
  -25.9056  -34.9462   23.5118 C   0  0  0  0  0  0
  -16.5321  -29.9070   23.6284 C   0  0  0  0  0  0
  -16.7289  -28.6487   23.0299 C   0  0  0  0  0  0
  -26.4486  -31.6572   25.0660 C   0  0  0  0  0  0
  -25.3821  -31.3691   26.1466 C   0  0  0  0  0  0
  -27.0322  -30.3040   24.5991 C   0  0  0  0  0  0
  -27.6053  -32.4299   25.7439 C   0  0  0  0  0  0
  -27.5587  -37.1797   24.8466 C   0  0  0  0  0  0
  -21.4125  -29.3085   22.3792 N   0  0  0  0  0  0
  -26.4276  -37.3805   23.9436 N   0  0  0  0  0  0
  -24.6645  -31.0796   22.0954 N   0  0  0  0  0  0
  -23.4198  -28.8246   23.3078 O   0  0  0  0  0  0
  -28.3751  -26.6951   20.0989 O   0  0  0  0  0  0
  -26.5582  -34.8909   22.4663 O   0  0  0  0  0  0
  -23.5396  -32.1403   23.7504 O   0  0  0  0  0  0
  -30.3026  -18.2834   20.7679 C   0  0  0  0  0  0
  -28.0510  -19.8906   21.2309 C   0  0  0  0  0  0
  -30.3090  -19.6438   20.3701 C   0  0  0  0  0  0
  -29.1755  -17.6968   21.3859 C   0  0  0  0  0  0
  -29.1422  -20.4424   20.5187 C   0  0  0  0  0  0
  -28.0762  -18.5490   21.6852 C   0  0  0  0  0  0
  -31.5667  -20.1940   19.7222 C   0  0  0  0  0  0
  -29.1017  -16.1782   21.6735 C   0  0  0  0  0  0
  -28.9917  -21.8029   19.8018 C   0  0  0  0  0  0
  -28.3762  -24.2221   19.9097 C   0  0  0  0  0  0
  -28.2948  -25.4632   20.8288 C   0  0  0  0  0  0
  -30.3574  -15.4167   21.5413 N   0  0  0  0  0  0
  -28.7150  -22.9760   20.6613 N   0  3  0  0  0  0
  -26.7182  -17.9554   22.5764 Cl  0  0  0  0  0  0
  -31.4586  -12.4490   19.1219 H   0  0  0  0  0  0
  -30.3307  -11.3436   19.8439 H   0  0  0  0  0  0
  -29.7478  -11.8050   17.4332 H   0  0  0  0  0  0
  -29.6320  -13.5136   17.7807 H   0  0  0  0  0  0
  -27.8692  -11.2961   18.8641 H   0  0  0  0  0  0
  -27.3580  -12.5848   17.8026 H   0  0  0  0  0  0
  -27.6912  -14.2426   19.5493 H   0  0  0  0  0  0
  -28.6924  -11.9680   21.3379 H   0  0  0  0  0  0
  -28.4516  -13.6049   21.8778 H   0  0  0  0  0  0
  -25.2756   -9.5561   22.4779 H   0  0  0  0  0  0
  -23.9908   -7.4611   22.7528 H   0  0  0  0  0  0
  -21.0809   -8.8861   19.8993 H   0  0  0  0  0  0
  -22.3762  -10.9697   19.6209 H   0  0  0  0  0  0
  -21.2051   -7.6155   23.9741 H   0  0  0  0  0  0
  -21.1511   -6.0492   25.9071 H   0  0  0  0  0  0
  -22.0571   -2.7605   23.2803 H   0  0  0  0  0  0
  -22.3996  -12.0105   22.4844 H   0  0  0  0  0  0
  -21.1140  -13.1580   22.2559 H   0  0  0  0  0  0
  -24.6152  -15.7957   20.4030 H   0  0  0  0  0  0
  -26.2181  -15.5799   19.9050 H   0  0  0  0  0  0
  -26.7163  -32.5529   23.1126 H   0  0  0  0  0  0
  -25.0213  -33.9747   25.0534 H   0  0  0  0  0  0
  -22.6863  -31.3100   21.4162 H   0  0  0  0  0  0
  -23.3737  -35.9661   23.3283 H   0  0  0  0  0  0
  -24.3588  -36.8915   22.2043 H   0  0  0  0  0  0
  -23.7209  -37.6510   23.6634 H   0  0  0  0  0  0
  -26.0295  -31.5896   20.5749 H   0  0  0  0  0  0
  -26.8130  -30.8879   21.9681 H   0  0  0  0  0  0
  -28.0853  -29.1043   21.1662 H   0  0  0  0  0  0
  -26.0404  -25.9535   19.0478 H   0  0  0  0  0  0
  -23.9613  -27.2750   19.0598 H   0  0  0  0  0  0
  -23.7221  -30.5969   19.3992 H   0  0  0  0  0  0
  -22.7214  -29.2515   19.8709 H   0  0  0  0  0  0
  -25.1267  -36.1966   25.0828 H   0  0  0  0  0  0
  -20.9860  -28.3292   24.1510 H   0  0  0  0  0  0
  -20.5621  -26.2329   23.3715 H   0  0  0  0  0  0
  -21.6649  -26.7411   22.1298 H   0  0  0  0  0  0
  -19.6998  -25.6302   21.1202 H   0  0  0  0  0  0
  -19.6806  -27.3214   20.6775 H   0  0  0  0  0  0
  -17.4313  -26.6634   21.3939 H   0  0  0  0  0  0
  -18.0351  -26.0019   22.8954 H   0  0  0  0  0  0
  -19.7860  -30.7266   24.2269 H   0  0  0  0  0  0
  -17.4944  -31.6256   24.5155 H   0  0  0  0  0  0
  -15.5303  -30.2945   23.7588 H   0  0  0  0  0  0
  -15.8718  -28.0821   22.6944 H   0  0  0  0  0  0
  -24.5952  -30.7036   25.7865 H   0  0  0  0  0  0
  -24.9072  -32.2871   26.4962 H   0  0  0  0  0  0
  -25.8252  -30.8856   27.0196 H   0  0  0  0  0  0
  -26.2837  -29.6748   24.1130 H   0  0  0  0  0  0
  -27.4241  -29.7280   25.4391 H   0  0  0  0  0  0
  -27.8613  -30.4373   23.9023 H   0  0  0  0  0  0
  -27.2624  -33.3568   26.2059 H   0  0  0  0  0  0
  -28.3840  -32.6904   25.0256 H   0  0  0  0  0  0
  -28.0734  -31.8401   26.5324 H   0  0  0  0  0  0
  -28.2597  -38.0107   24.7532 H   0  0  0  0  0  0
  -28.1074  -36.2624   24.6261 H   0  0  0  0  0  0
  -27.2311  -37.1430   25.8871 H   0  0  0  0  0  0
  -20.9276  -29.8884   21.7091 H   0  0  0  0  0  0
  -26.0155  -38.2884   24.1468 H   0  0  0  0  0  0
  -31.1717  -17.6804   20.5534 H   0  0  0  0  0  0
  -27.1533  -20.4741   21.3867 H   0  0  0  0  0  0
  -32.3956  -19.4844   19.7636 H   0  0  0  0  0  0
  -31.8934  -21.1042   20.2253 H   0  0  0  0  0  0
  -31.3868  -20.4260   18.6747 H   0  0  0  0  0  0
  -28.3171  -15.7686   21.0383 H   0  0  0  0  0  0
  -28.7654  -16.0319   22.6983 H   0  0  0  0  0  0
  -28.1992  -21.6973   19.0599 H   0  0  0  0  0  0
  -29.8845  -22.0372   19.2288 H   0  0  0  0  0  0
  -29.1306  -24.4022   19.1406 H   0  0  0  0  0  0
  -27.4277  -24.0869   19.3922 H   0  0  0  0  0  0
  -29.1410  -25.4602   21.5139 H   0  0  0  0  0  0
  -27.3946  -25.4193   21.4463 H   0  0  0  0  0  0
  -31.1448  -15.9989   21.7816 H   0  0  0  0  0  0
  -29.5413  -23.1452   21.2132 H   0  0  0  0  0  0
  -27.9583  -22.7602   21.2877 H   0  0  0  0  0  0
  1 25  1  0  0  0
  1 30  2  0  0  0
  1 82  1  0  0  0
  2  3  1  0  0  0
  2 25  1  0  0  0
  2 85  1  0  0  0
  2 86  1  0  0  0
  3  4  1  0  0  0
  3 87  1  0  0  0
  3 88  1  0  0  0
  4  5  1  0  0  0
  4 89  1  0  0  0
  4 90  1  0  0  0
  5  6  1  0  0  0
  5 26  1  0  0  0
  5 91  1  0  0  0
  6 25  1  0  0  0
  6 92  1  0  0  0
  6 93  1  0  0  0
  7  8  2  0  0  0
  7 26  1  0  0  0
  7 29  1  0  0  0
  8  9  1  0  0  0
  8 22  1  0  0  0
  9 10  1  0  0  0
  9 27  2  0  0  0
 10 11  2  0  0  0
 10 15  1  0  0  0
 11 12  1  0  0  0
 11 94  1  0  0  0
 12 13  2  0  0  0
 12 95  1  0  0  0
 13 14  1  0  0  0
 13 31  1  0  0  0
 14 15  2  0  0  0
 14 96  1  0  0  0
 15 97  1  0  0  0
 16 17  2  0  0  0
 16 21  1  0  0  0
 16 31  1  0  0  0
 17 18  1  0  0  0
 17 98  1  0  0  0
 18 19  2  0  0  0
 18 99  1  0  0  0
 19 20  1  0  0  0
 19 24  1  0  0  0
 20 21  2  0  0  0
 20100  1  0  0  0
 21 23  1  0  0  0
 22 28  1  0  0  0
 22 32  2  0  0  0
 26 27  1  0  0  0
 28101  1  0  0  0
 28102  1  0  0  0
 29103  1  0  0  0
 29104  1  0  0  0
 33 34  1  0  0  0
 33 66  1  0  0  0
 33 70  2  0  0  0
 34 36  1  0  0  0
 34 59  1  0  0  0
 34105  1  0  0  0
 35 44  2  0  0  0
 35 45  1  0  0  0
 35 68  1  0  0  0
 36 56  1  0  0  0
 36106  1  0  0  0
 37 39  1  0  0  0
 37 47  1  0  0  0
 37 66  1  0  0  0
 37107  1  0  0  0
 38 43  2  0  0  0
 38 46  1  0  0  0
 38 47  1  0  0  0
 39 64  1  0  0  0
 39 67  2  0  0  0
 40 52  1  0  0  0
 40 53  2  0  0  0
 40 58  1  0  0  0
 41108  1  0  0  0
 41109  1  0  0  0
 41110  1  0  0  0
 41 48  1  0  0  0
 42 43  1  0  0  0
 42 66  1  0  0  0
 42111  1  0  0  0
 42112  1  0  0  0
 43 44  1  0  0  0
 44113  1  0  0  0
 45 46  2  0  0  0
 45114  1  0  0  0
 46115  1  0  0  0
 47116  1  0  0  0
 47117  1  0  0  0
 48 56  1  0  0  0
 48 65  1  0  0  0
 48118  1  0  0  0
 49 50  1  0  0  0
 49 53  1  0  0  0
 49 64  1  0  0  0
 49119  1  0  0  0
 50 51  1  0  0  0
 50120  1  0  0  0
 50121  1  0  0  0
 51 52  1  0  0  0
 51122  1  0  0  0
 51123  1  0  0  0
 52124  1  0  0  0
 52125  1  0  0  0
 53 54  1  0  0  0
 54 55  2  0  0  0
 54126  1  0  0  0
 55 57  1  0  0  0
 55127  1  0  0  0
 56 69  2  0  0  0
 57 58  2  0  0  0
 57128  1  0  0  0
 58129  1  0  0  0
 59 60  1  0  0  0
 59 61  1  0  0  0
 59 62  1  0  0  0
 60130  1  0  0  0
 60131  1  0  0  0
 60132  1  0  0  0
 61133  1  0  0  0
 61134  1  0  0  0
 61135  1  0  0  0
 62136  1  0  0  0
 62137  1  0  0  0
 62138  1  0  0  0
 63 65  1  0  0  0
 63139  1  0  0  0
 63140  1  0  0  0
 63141  1  0  0  0
 64142  1  0  0  0
 65143  1  0  0  0
 68 81  1  0  0  0
 71 73  2  0  0  0
 71 74  1  0  0  0
 71144  1  0  0  0
 72 75  2  0  0  0
 72 76  1  0  0  0
 72145  1  0  0  0
 73 75  1  0  0  0
 73 77  1  0  0  0
 74 76  2  0  0  0
 74 78  1  0  0  0
 75 79  1  0  0  0
 76 84  1  0  0  0
 77146  1  0  0  0
 77147  1  0  0  0
 77148  1  0  0  0
 78 82  1  0  0  0
 78149  1  0  0  0
 78150  1  0  0  0
 79 83  1  0  0  0
 79151  1  0  0  0
 79152  1  0  0  0
 80 81  1  0  0  0
 80 83  1  0  0  0
 80153  1  0  0  0
 80154  1  0  0  0
 81155  1  0  0  0
 81156  1  0  0  0
 82157  1  0  0  0
 83158  1  0  0  0
 83159  1  0  0  0
M  CHG  1  83   1
M  ISO  4   1 100  68 101  81 101  82 100
M  END
> <chiral flag>
0

> <version>
0

> <s_m_source_file>
/data/baiqing/PycharmProjects/Reinvent-master-3.2/result/LINK_invent/BTK/process_docking_weight1_custom_product_contain_oxygen_bond_distance_aromatic_linkinvent_7_9_3/rearranged_h_0041.sdf

> <i_m_source_file_index>
22

> <r_mmod_Potential_Energy-OPLS-2005>
-189.02262878418

> <r_mmod_Stretch_Energy-OPLS-2005>
39.9812049865723

> <r_mmod_Bend_Energy-OPLS-2005>
115.594970703125

> <r_mmod_Torsional_Energy-OPLS-2005>
262.362884521484

> <r_mmod_Improper_Torsional_Energy-OPLS-2005>
8.22678661346436

> <r_mmod_Van_der_Waal_Energy-OPLS-2005>
144.96989440918

> <r_mmod_Electrostatic_Energy-OPLS-2005>
-319.760772705078

> <r_mmod_Solvation_Energy-OPLS-2005>
-454.536010742188

> <b_mmod_Minimization_Converged-OPLS-2005>
0

> <r_mmod_RMS_Derivative-OPLS-2005>
6.38258695602417

$$$$
22
                    3D
 Structure written by MMmdl.
156164  0  0  1  0            999 V2000
  -30.6885  -14.5280   20.5562 C   0  0  0  0  0  0
  -30.4267  -12.3392   19.4361 C   0  0  0  0  0  0
  -29.4996  -12.4988   18.2157 C   0  0  0  0  0  0
  -28.0219  -12.3491   18.6262 C   0  0  0  0  0  0
  -27.6542  -13.2124   19.8629 C   0  0  2  0  0  0
  -28.6953  -13.0400   20.9914 C   0  0  0  0  0  0
  -25.2546  -13.8169   20.5643 C   0  0  0  0  0  0
  -24.1811  -13.0435   20.9172 C   0  0  0  0  0  0
  -24.6387  -11.6911   20.8722 C   0  0  0  0  0  0
  -23.9060  -10.4291   21.0408 C   0  0  0  0  0  0
  -24.3609   -9.4200   21.9181 C   0  0  0  0  0  0
  -23.6281   -8.2233   22.0755 C   0  0  0  0  0  0
  -22.4255   -8.0286   21.3552 C   0  0  0  0  0  0
  -21.9900   -9.0260   20.4649 C   0  0  0  0  0  0
  -22.7236  -10.2133   20.3050 C   0  0  0  0  0  0
  -21.6854   -6.0726   22.5267 C   0  0  0  0  0  0
  -21.4026   -6.5630   23.8209 C   0  0  0  0  0  0
  -21.3662   -5.6778   24.9172 C   0  0  0  0  0  0
  -21.6032   -4.3037   24.7215 C   0  0  0  0  0  0
  -21.8828   -3.8137   23.4338 C   0  0  0  0  0  0
  -21.9197   -4.6954   22.3398 C   0  0  0  0  0  0
  -22.7829  -13.5240   21.1845 C   0  0  0  0  0  0
  -22.1656   -4.2143   21.0973 F   0  0  0  0  0  0
  -21.5634   -3.4520   25.7729 F   0  0  0  0  0  0
  -30.0213  -13.3467   20.4296 N   0  0  0  0  0  0
  -26.2986  -12.9337   20.3302 N   0  0  0  0  0  0
  -25.9313  -11.6501   20.5747 N   0  0  0  0  0  0
  -22.0472  -12.8227   22.0403 N   0  0  0  0  0  0
  -25.4241  -15.1888   20.4019 N   0  0  0  0  0  0
  -31.8530  -14.6692   20.1697 O   0  0  0  0  0  0
  -21.6638   -6.8861   21.4227 O   0  0  0  0  0  0
  -22.3509  -14.5545   20.6716 O   0  0  0  0  0  0
  -24.6179  -31.8662   23.2070 C   0  0  0  0  0  0
  -25.9082  -32.4813   23.8362 C   0  0  1  0  0  0
  -27.2374  -27.4093   20.0918 C   0  0  0  0  0  0
  -25.5946  -33.8607   24.2311 N   0  0  0  0  0  0
  -23.4060  -30.4861   21.5508 C   0  0  2  0  0  0
  -24.8485  -28.9446   20.1204 C   0  0  0  0  0  0
  -22.7433  -29.4642   22.5025 C   0  0  0  0  0  0
  -18.0282  -28.1418   22.8480 C   0  0  0  0  0  0
  -24.1482  -36.7275   23.2633 C   0  0  0  0  0  0
  -25.9346  -30.8242   21.3598 C   0  0  0  0  0  0
  -26.0094  -29.4530   20.7128 C   0  0  0  0  0  0
  -27.2029  -28.6934   20.6915 C   0  0  0  0  0  0
  -26.0465  -26.9111   19.5118 C   0  0  0  0  0  0
  -24.8633  -27.6753   19.5177 C   0  0  0  0  0  0
  -23.6150  -29.8176   20.1664 C   0  0  0  0  0  0
  -25.4120  -36.3106   24.0325 C   0  0  1  0  0  0
  -20.5867  -28.3691   23.1336 C   0  0  2  0  0  0
  -20.6785  -26.9437   22.5428 C   0  0  0  0  0  0
  -19.5777  -26.6422   21.5220 C   0  0  0  0  0  0
  -18.1939  -26.7970   22.1609 C   0  0  0  0  0  0
  -19.1524  -28.8878   23.2902 C   0  0  0  0  0  0
  -18.9456  -30.1481   23.8915 C   0  0  0  0  0  0
  -17.6457  -30.6616   24.0580 C   0  0  0  0  0  0
  -25.9042  -34.9473   23.5108 C   0  0  0  0  0  0
  -16.5351  -29.9114   23.6344 C   0  0  0  0  0  0
  -16.7270  -28.6541   23.0350 C   0  0  0  0  0  0
  -26.4522  -31.6600   25.0695 C   0  0  0  0  0  0
  -25.3781  -31.3692   26.1438 C   0  0  0  0  0  0
  -27.0372  -30.3062   24.6066 C   0  0  0  0  0  0
  -27.6109  -32.4317   25.7453 C   0  0  0  0  0  0
  -27.5588  -37.1808   24.8479 C   0  0  0  0  0  0
  -21.4169  -29.3018   22.3730 N   0  0  0  0  0  0
  -26.4300  -37.3798   23.9420 N   0  0  0  0  0  0
  -24.6712  -31.0752   22.0973 N   0  0  0  0  0  0
  -23.4184  -28.8212   23.3108 O   0  0  0  0  0  0
  -28.4364  -26.7124   20.0994 O   0  0  0  0  0  0
  -26.5585  -34.8932   22.4658 O   0  0  0  0  0  0
  -23.5373  -32.1412   23.7474 O   0  0  0  0  0  0
  -31.9025  -18.5953   22.0504 C   0  0  0  0  0  0
  -31.5062  -17.2613   21.8504 C   0  0  0  0  0  0
  -29.5985  -18.0482   20.5643 C   0  0  0  0  0  0
  -31.1827  -19.6681   21.4802 C   0  0  0  0  0  0
  -30.0082  -19.4090   20.7183 C   0  0  0  0  0  0
  -30.3537  -16.9616   21.0943 C   0  0  0  0  0  0
  -28.7484  -22.8355   19.9754 C   0  0  0  0  0  0
  -31.7270  -21.0744   21.6845 C   0  0  0  0  0  0
  -29.2524  -20.5253   19.9426 C   0  0  0  0  0  0
  -28.3916  -24.2252   20.5401 C   0  0  0  0  0  0
  -28.5675  -25.3937   19.5236 C   0  0  0  0  0  0
  -28.9440  -21.7711   20.6724 N   0  0  0  0  0  0
  -29.9347  -15.5963   20.9178 N   0  0  0  0  0  0
  -31.4680  -12.4469   19.1272 H   0  0  0  0  0  0
  -30.3424  -11.3387   19.8624 H   0  0  0  0  0  0
  -29.7533  -11.7632   17.4510 H   0  0  0  0  0  0
  -29.6558  -13.4785   17.7624 H   0  0  0  0  0  0
  -27.8461  -11.2935   18.8424 H   0  0  0  0  0  0
  -27.3718  -12.5982   17.7878 H   0  0  0  0  0  0
  -27.6822  -14.2536   19.5384 H   0  0  0  0  0  0
  -28.6784  -12.0181   21.3723 H   0  0  0  0  0  0
  -28.4507  -13.6771   21.8432 H   0  0  0  0  0  0
  -25.2763   -9.5658   22.4753 H   0  0  0  0  0  0
  -23.9991   -7.4613   22.7470 H   0  0  0  0  0  0
  -21.0837   -8.8780   19.8948 H   0  0  0  0  0  0
  -22.3711  -10.9667   19.6149 H   0  0  0  0  0  0
  -21.2027   -7.6136   23.9707 H   0  0  0  0  0  0
  -21.1475   -6.0509   25.9075 H   0  0  0  0  0  0
  -22.0609   -2.7594   23.2842 H   0  0  0  0  0  0
  -22.4105  -11.9893   22.4772 H   0  0  0  0  0  0
  -21.1098  -13.1263   22.2629 H   0  0  0  0  0  0
  -24.6556  -15.8405   20.5107 H   0  0  0  0  0  0
  -26.2677  -15.6270   20.0534 H   0  0  0  0  0  0
  -26.7141  -32.5545   23.1104 H   0  0  0  0  0  0
  -25.0219  -33.9749   25.0545 H   0  0  0  0  0  0
  -22.6957  -31.3037   21.4127 H   0  0  0  0  0  0
  -23.3759  -35.9594   23.3322 H   0  0  0  0  0  0
  -24.3558  -36.8859   22.2043 H   0  0  0  0  0  0
  -23.7212  -37.6475   23.6618 H   0  0  0  0  0  0
  -26.0463  -31.5871   20.5873 H   0  0  0  0  0  0
  -26.8206  -30.8813   21.9789 H   0  0  0  0  0  0
  -28.1041  -29.0905   21.1360 H   0  0  0  0  0  0
  -25.9964  -25.9386   19.0474 H   0  0  0  0  0  0
  -23.9680  -27.2773   19.0582 H   0  0  0  0  0  0
  -23.7338  -30.5921   19.4058 H   0  0  0  0  0  0
  -22.7357  -29.2435   19.8693 H   0  0  0  0  0  0
  -25.1306  -36.1960   25.0813 H   0  0  0  0  0  0
  -20.9926  -28.3271   24.1472 H   0  0  0  0  0  0
  -20.5742  -26.2297   23.3607 H   0  0  0  0  0  0
  -21.6659  -26.7541   22.1195 H   0  0  0  0  0  0
  -19.6929  -25.6333   21.1259 H   0  0  0  0  0  0
  -19.6727  -27.3225   20.6744 H   0  0  0  0  0  0
  -17.4227  -26.6732   21.3990 H   0  0  0  0  0  0
  -18.0324  -26.0116   22.9007 H   0  0  0  0  0  0
  -19.7926  -30.7302   24.2285 H   0  0  0  0  0  0
  -17.5012  -31.6288   24.5196 H   0  0  0  0  0  0
  -15.5348  -30.3029   23.7661 H   0  0  0  0  0  0
  -15.8673  -28.0871   22.7054 H   0  0  0  0  0  0
  -24.5944  -30.7065   25.7739 H   0  0  0  0  0  0
  -24.8988  -32.2847   26.4914 H   0  0  0  0  0  0
  -25.8132  -30.8818   27.0177 H   0  0  0  0  0  0
  -26.2902  -29.6787   24.1186 H   0  0  0  0  0  0
  -27.4235  -29.7345   25.4513 H   0  0  0  0  0  0
  -27.8691  -30.4392   23.9144 H   0  0  0  0  0  0
  -27.2738  -33.3596   26.2084 H   0  0  0  0  0  0
  -28.3894  -32.6916   25.0264 H   0  0  0  0  0  0
  -28.0816  -31.8414   26.5326 H   0  0  0  0  0  0
  -28.2645  -38.0078   24.7564 H   0  0  0  0  0  0
  -28.1055  -36.2629   24.6280 H   0  0  0  0  0  0
  -27.2310  -37.1444   25.8882 H   0  0  0  0  0  0
  -20.9364  -29.8675   21.6877 H   0  0  0  0  0  0
  -26.0189  -38.2863   24.1453 H   0  0  0  0  0  0
  -32.7927  -18.7853   22.6360 H   0  0  0  0  0  0
  -32.1013  -16.4722   22.2876 H   0  0  0  0  0  0
  -28.7116  -17.8334   19.9847 H   0  0  0  0  0  0
  -28.8210  -22.8228   18.8827 H   0  0  0  0  0  0
  -31.0268  -21.6804   22.2603 H   0  0  0  0  0  0
  -31.9121  -21.5625   20.7270 H   0  0  0  0  0  0
  -32.6676  -21.0642   22.2352 H   0  0  0  0  0  0
  -28.3141  -20.0993   19.5783 H   0  0  0  0  0  0
  -29.8509  -20.7321   19.0513 H   0  0  0  0  0  0
  -29.0256  -24.4192   21.4050 H   0  0  0  0  0  0
  -27.3630  -24.2078   20.9036 H   0  0  0  0  0  0
  -29.5895  -25.3531   19.1437 H   0  0  0  0  0  0
  -27.9430  -25.2576   18.6408 H   0  0  0  0  0  0
  -28.9480  -15.4129   21.0029 H   0  0  0  0  0  0
  1 25  1  0  0  0
  1 30  2  0  0  0
  1 83  1  0  0  0
  2  3  1  0  0  0
  2 25  1  0  0  0
  2 84  1  0  0  0
  2 85  1  0  0  0
  3  4  1  0  0  0
  3 86  1  0  0  0
  3 87  1  0  0  0
  4  5  1  0  0  0
  4 88  1  0  0  0
  4 89  1  0  0  0
  5  6  1  0  0  0
  5 26  1  0  0  0
  5 90  1  0  0  0
  6 25  1  0  0  0
  6 91  1  0  0  0
  6 92  1  0  0  0
  7  8  2  0  0  0
  7 26  1  0  0  0
  7 29  1  0  0  0
  8  9  1  0  0  0
  8 22  1  0  0  0
  9 10  1  0  0  0
  9 27  2  0  0  0
 10 11  2  0  0  0
 10 15  1  0  0  0
 11 12  1  0  0  0
 11 93  1  0  0  0
 12 13  2  0  0  0
 12 94  1  0  0  0
 13 14  1  0  0  0
 13 31  1  0  0  0
 14 15  2  0  0  0
 14 95  1  0  0  0
 15 96  1  0  0  0
 16 17  2  0  0  0
 16 21  1  0  0  0
 16 31  1  0  0  0
 17 18  1  0  0  0
 17 97  1  0  0  0
 18 19  2  0  0  0
 18 98  1  0  0  0
 19 20  1  0  0  0
 19 24  1  0  0  0
 20 21  2  0  0  0
 20 99  1  0  0  0
 21 23  1  0  0  0
 22 28  1  0  0  0
 22 32  2  0  0  0
 26 27  1  0  0  0
 28100  1  0  0  0
 28101  1  0  0  0
 29102  1  0  0  0
 29103  1  0  0  0
 33 34  1  0  0  0
 33 66  1  0  0  0
 33 70  2  0  0  0
 34 36  1  0  0  0
 34 59  1  0  0  0
 34104  1  0  0  0
 35 44  2  0  0  0
 35 45  1  0  0  0
 35 68  1  0  0  0
 36 56  1  0  0  0
 36105  1  0  0  0
 37 39  1  0  0  0
 37 47  1  0  0  0
 37 66  1  0  0  0
 37106  1  0  0  0
 38 43  2  0  0  0
 38 46  1  0  0  0
 38 47  1  0  0  0
 39 64  1  0  0  0
 39 67  2  0  0  0
 40 52  1  0  0  0
 40 53  2  0  0  0
 40 58  1  0  0  0
 41107  1  0  0  0
 41108  1  0  0  0
 41109  1  0  0  0
 41 48  1  0  0  0
 42 43  1  0  0  0
 42 66  1  0  0  0
 42110  1  0  0  0
 42111  1  0  0  0
 43 44  1  0  0  0
 44112  1  0  0  0
 45 46  2  0  0  0
 45113  1  0  0  0
 46114  1  0  0  0
 47115  1  0  0  0
 47116  1  0  0  0
 48 56  1  0  0  0
 48 65  1  0  0  0
 48117  1  0  0  0
 49 50  1  0  0  0
 49 53  1  0  0  0
 49 64  1  0  0  0
 49118  1  0  0  0
 50 51  1  0  0  0
 50119  1  0  0  0
 50120  1  0  0  0
 51 52  1  0  0  0
 51121  1  0  0  0
 51122  1  0  0  0
 52123  1  0  0  0
 52124  1  0  0  0
 53 54  1  0  0  0
 54 55  2  0  0  0
 54125  1  0  0  0
 55 57  1  0  0  0
 55126  1  0  0  0
 56 69  2  0  0  0
 57 58  2  0  0  0
 57127  1  0  0  0
 58128  1  0  0  0
 59 60  1  0  0  0
 59 61  1  0  0  0
 59 62  1  0  0  0
 60129  1  0  0  0
 60130  1  0  0  0
 60131  1  0  0  0
 61132  1  0  0  0
 61133  1  0  0  0
 61134  1  0  0  0
 62135  1  0  0  0
 62136  1  0  0  0
 62137  1  0  0  0
 63 65  1  0  0  0
 63138  1  0  0  0
 63139  1  0  0  0
 63140  1  0  0  0
 64141  1  0  0  0
 65142  1  0  0  0
 68 81  1  0  0  0
 71 72  2  0  0  0
 71 74  1  0  0  0
 71143  1  0  0  0
 72 76  1  0  0  0
 72144  1  0  0  0
 73 75  1  0  0  0
 73 76  2  0  0  0
 73145  1  0  0  0
 74 75  2  0  0  0
 74 78  1  0  0  0
 75 79  1  0  0  0
 76 83  1  0  0  0
 77 80  1  0  0  0
 77 82  2  0  0  0
 77146  1  0  0  0
 78147  1  0  0  0
 78148  1  0  0  0
 78149  1  0  0  0
 79 82  1  0  0  0
 79150  1  0  0  0
 79151  1  0  0  0
 80 81  1  0  0  0
 80152  1  0  0  0
 80153  1  0  0  0
 81154  1  0  0  0
 81155  1  0  0  0
 83156  1  0  0  0
M  ISO  4   1 100  68 101  81 101  83 100
M  END
> <chiral flag>
0

> <version>
0

> <s_m_source_file>
/data/baiqing/PycharmProjects/Reinvent-master-3.2/result/LINK_invent/BTK/process_docking_weight1_custom_product_contain_oxygen_bond_distance_aromatic_linkinvent_7_9_3/rearranged_h_0041.sdf

> <i_m_source_file_index>
23

> <r_mmod_Potential_Energy-OPLS-2005>
-42.8058433532715

> <r_mmod_Stretch_Energy-OPLS-2005>
49.1507263183594

> <r_mmod_Bend_Energy-OPLS-2005>
112.209396362305

> <r_mmod_Torsional_Energy-OPLS-2005>
211.421600341797

> <r_mmod_Improper_Torsional_Energy-OPLS-2005>
5.42659473419189

> <r_mmod_Van_der_Waal_Energy-OPLS-2005>
154.065277099609

> <r_mmod_Electrostatic_Energy-OPLS-2005>
-373.371185302734

> <r_mmod_Solvation_Energy-OPLS-2005>
-222.032516479492

> <b_mmod_Minimization_Converged-OPLS-2005>
0

> <r_mmod_RMS_Derivative-OPLS-2005>
3.11434674263

$$$$
23
                    3D
 Structure written by MMmdl.
161170  0  0  1  0            999 V2000
  -30.5614  -14.7655   20.4778 C   0  0  0  0  0  0
  -30.4498  -12.4713   19.4609 C   0  0  0  0  0  0
  -29.5165  -12.5087   18.2286 C   0  0  0  0  0  0
  -28.0425  -12.3188   18.6439 C   0  0  0  0  0  0
  -27.6401  -13.2206   19.8405 C   0  0  2  0  0  0
  -28.6854  -13.1437   20.9709 C   0  0  0  0  0  0
  -25.2522  -13.8169   20.5669 C   0  0  0  0  0  0
  -24.1795  -13.0441   20.9195 C   0  0  0  0  0  0
  -24.6375  -11.6911   20.8733 C   0  0  0  0  0  0
  -23.9055  -10.4299   21.0419 C   0  0  0  0  0  0
  -24.3609   -9.4210   21.9199 C   0  0  0  0  0  0
  -23.6274   -8.2257   22.0763 C   0  0  0  0  0  0
  -22.4259   -8.0301   21.3553 C   0  0  0  0  0  0
  -21.9898   -9.0278   20.4659 C   0  0  0  0  0  0
  -22.7236  -10.2146   20.3065 C   0  0  0  0  0  0
  -21.6857   -6.0735   22.5276 C   0  0  0  0  0  0
  -21.4026   -6.5638   23.8215 C   0  0  0  0  0  0
  -21.3651   -5.6780   24.9168 C   0  0  0  0  0  0
  -21.6033   -4.3046   24.7221 C   0  0  0  0  0  0
  -21.8822   -3.8141   23.4345 C   0  0  0  0  0  0
  -21.9193   -4.6958   22.3395 C   0  0  0  0  0  0
  -22.7825  -13.5244   21.1874 C   0  0  0  0  0  0
  -22.1660   -4.2142   21.0969 F   0  0  0  0  0  0
  -21.5617   -3.4527   25.7734 F   0  0  0  0  0  0
  -29.9820  -13.5215   20.3910 N   0  0  0  0  0  0
  -26.2913  -12.9350   20.3193 N   0  0  0  0  0  0
  -25.9285  -11.6502   20.5686 N   0  0  0  0  0  0
  -22.0452  -12.8244   22.0427 N   0  0  0  0  0  0
  -25.4206  -15.1902   20.4115 N   0  0  0  0  0  0
  -31.7681  -14.9087   20.2540 O   0  0  0  0  0  0
  -21.6639   -6.8887   21.4242 O   0  0  0  0  0  0
  -22.3510  -14.5548   20.6711 O   0  0  0  0  0  0
  -24.6315  -31.8536   23.1944 C   0  0  0  0  0  0
  -25.9131  -32.4748   23.8304 C   0  0  1  0  0  0
  -27.2204  -27.2607   20.1365 C   0  0  0  0  0  0
  -25.5910  -33.8547   24.2229 N   0  0  0  0  0  0
  -23.4288  -30.4746   21.5375 C   0  0  2  0  0  0
  -24.8767  -28.9119   20.1160 C   0  0  0  0  0  0
  -22.7490  -29.4600   22.4890 C   0  0  0  0  0  0
  -18.0287  -28.1383   22.8483 C   0  0  0  0  0  0
  -24.1483  -36.7290   23.2642 C   0  0  0  0  0  0
  -25.9741  -30.7682   21.3716 C   0  0  0  0  0  0
  -26.0495  -29.3869   20.7198 C   0  0  0  0  0  0
  -27.2298  -28.5760   20.7114 C   0  0  0  0  0  0
  -26.0269  -26.8431   19.5179 C   0  0  0  0  0  0
  -24.8699  -27.6471   19.5045 C   0  0  0  0  0  0
  -23.6482  -29.8003   20.1567 C   0  0  0  0  0  0
  -25.4109  -36.3062   24.0322 C   0  0  1  0  0  0
  -20.5891  -28.3697   23.1247 C   0  0  2  0  0  0
  -20.6770  -26.9410   22.5398 C   0  0  0  0  0  0
  -19.5745  -26.6379   21.5197 C   0  0  0  0  0  0
  -18.1929  -26.7924   22.1617 C   0  0  0  0  0  0
  -19.1546  -28.8855   23.2866 C   0  0  0  0  0  0
  -18.9473  -30.1448   23.8901 C   0  0  0  0  0  0
  -17.6477  -30.6585   24.0562 C   0  0  0  0  0  0
  -25.9058  -34.9440   23.5089 C   0  0  0  0  0  0
  -16.5365  -29.9094   23.6322 C   0  0  0  0  0  0
  -16.7276  -28.6504   23.0358 C   0  0  0  0  0  0
  -26.4491  -31.6582   25.0710 C   0  0  0  0  0  0
  -25.3709  -31.3760   26.1430 C   0  0  0  0  0  0
  -27.0337  -30.2988   24.6218 C   0  0  0  0  0  0
  -27.6026  -32.4333   25.7496 C   0  0  0  0  0  0
  -27.5569  -37.1794   24.8457 C   0  0  0  0  0  0
  -21.4199  -29.3052   22.3641 N   0  0  0  0  0  0
  -26.4275  -37.3764   23.9412 N   0  0  0  0  0  0
  -24.6975  -31.0510   22.0908 N   0  0  0  0  0  0
  -23.4193  -28.8152   23.2994 O   0  0  0  0  0  0
  -28.3173  -26.3769   20.1006 O   0  0  0  0  0  0
  -26.5646  -34.8916   22.4669 O   0  0  0  0  0  0
  -23.5465  -32.1340   23.7238 O   0  0  0  0  0  0
  -29.5437  -18.4596   20.3284 C   0  0  0  0  0  0
  -28.7851  -18.4739   22.9846 C   0  0  0  0  0  0
  -29.0953  -19.7364   20.8952 C   0  0  0  0  0  0
  -29.2794  -17.2699   22.4385 C   0  0  0  0  0  0
  -29.6173  -17.1955   21.0628 C   0  0  0  0  0  0
  -28.6256  -19.6526   22.2311 C   0  0  0  0  0  0
  -28.4173  -23.6776   20.0384 C   0  0  0  0  0  0
  -29.5191  -23.8637   22.7012 C   0  0  0  0  0  0
  -29.2625  -25.1949   21.9864 C   0  0  0  0  0  0
  -29.9817  -22.7878   21.6982 C   0  0  0  0  0  0
  -28.2428  -25.0706   20.8422 C   0  0  1  0  0  0
  -29.3137  -16.0568   23.3567 C   0  0  0  0  0  0
  -28.9924  -21.1078   20.0488 C   0  0  0  0  0  0
  -29.0027  -22.5461   20.6254 N   0  0  0  0  0  0
  -29.6784  -15.8407   20.4516 N   0  0  0  0  0  0
  -27.9304  -23.6093   18.9057 O   0  0  0  0  0  0
  -27.7363  -20.9247   22.9914 Cl  0  0  0  0  0  0
  -31.4871  -12.6285   19.1584 H   0  0  0  0  0  0
  -30.4195  -11.4934   19.9440 H   0  0  0  0  0  0
  -29.8067  -11.7420   17.5087 H   0  0  0  0  0  0
  -29.6275  -13.4635   17.7119 H   0  0  0  0  0  0
  -27.9065  -11.2700   18.9117 H   0  0  0  0  0  0
  -27.3841  -12.5038   17.7948 H   0  0  0  0  0  0
  -27.6324  -14.2395   19.4516 H   0  0  0  0  0  0
  -28.7320  -12.1392   21.3929 H   0  0  0  0  0  0
  -28.4126  -13.8040   21.7923 H   0  0  0  0  0  0
  -25.2764   -9.5665   22.4755 H   0  0  0  0  0  0
  -23.9980   -7.4640   22.7467 H   0  0  0  0  0  0
  -21.0831   -8.8800   19.8960 H   0  0  0  0  0  0
  -22.3718  -10.9677   19.6154 H   0  0  0  0  0  0
  -21.2041   -7.6150   23.9711 H   0  0  0  0  0  0
  -21.1458   -6.0512   25.9062 H   0  0  0  0  0  0
  -22.0608   -2.7598   23.2845 H   0  0  0  0  0  0
  -22.4054  -11.9904   22.4809 H   0  0  0  0  0  0
  -21.1069  -13.1276   22.2649 H   0  0  0  0  0  0
  -24.6537  -15.8413   20.5418 H   0  0  0  0  0  0
  -26.2582  -15.6344   20.0616 H   0  0  0  0  0  0
  -26.7214  -32.5401   23.1059 H   0  0  0  0  0  0
  -24.9990  -33.9669   25.0328 H   0  0  0  0  0  0
  -22.7267  -31.2966   21.3849 H   0  0  0  0  0  0
  -23.3736  -35.9629   23.3302 H   0  0  0  0  0  0
  -24.3571  -36.8924   22.2057 H   0  0  0  0  0  0
  -23.7249  -37.6493   23.6683 H   0  0  0  0  0  0
  -26.1105  -31.5250   20.5975 H   0  0  0  0  0  0
  -26.8515  -30.8207   22.0046 H   0  0  0  0  0  0
  -28.1359  -28.9402   21.1761 H   0  0  0  0  0  0
  -25.9870  -25.8694   19.0491 H   0  0  0  0  0  0
  -23.9718  -27.2774   19.0283 H   0  0  0  0  0  0
  -23.7715  -30.5690   19.3925 H   0  0  0  0  0  0
  -22.7669  -29.2304   19.8565 H   0  0  0  0  0  0
  -25.1289  -36.1901   25.0813 H   0  0  0  0  0  0
  -20.9992  -28.3292   24.1359 H   0  0  0  0  0  0
  -20.5628  -26.2324   23.3618 H   0  0  0  0  0  0
  -21.6647  -26.7405   22.1224 H   0  0  0  0  0  0
  -19.6913  -25.6288   21.1234 H   0  0  0  0  0  0
  -19.6678  -27.3177   20.6720 H   0  0  0  0  0  0
  -17.4190  -26.6652   21.4036 H   0  0  0  0  0  0
  -18.0348  -26.0067   22.9016 H   0  0  0  0  0  0
  -19.7955  -30.7246   24.2292 H   0  0  0  0  0  0
  -17.5041  -31.6265   24.5165 H   0  0  0  0  0  0
  -15.5371  -30.3008   23.7642 H   0  0  0  0  0  0
  -15.8670  -28.0818   22.7094 H   0  0  0  0  0  0
  -24.5854  -30.7146   25.7764 H   0  0  0  0  0  0
  -24.8941  -32.2948   26.4848 H   0  0  0  0  0  0
  -25.8005  -30.8930   27.0211 H   0  0  0  0  0  0
  -26.2932  -29.6738   24.1218 H   0  0  0  0  0  0
  -27.3972  -29.7257   25.4756 H   0  0  0  0  0  0
  -27.8824  -30.4243   23.9491 H   0  0  0  0  0  0
  -27.2604  -33.3611   26.2077 H   0  0  0  0  0  0
  -28.3835  -32.6926   25.0344 H   0  0  0  0  0  0
  -28.0694  -31.8469   26.5412 H   0  0  0  0  0  0
  -28.2581  -38.0094   24.7502 H   0  0  0  0  0  0
  -28.1067  -36.2629   24.6279 H   0  0  0  0  0  0
  -27.2297  -37.1435   25.8860 H   0  0  0  0  0  0
  -20.9388  -29.8788   21.6853 H   0  0  0  0  0  0
  -26.0153  -38.2835   24.1417 H   0  0  0  0  0  0
  -29.7774  -18.4435   19.2742 H   0  0  0  0  0  0
  -28.4416  -18.4795   24.0095 H   0  0  0  0  0  0
  -28.6112  -23.5484   23.2152 H   0  0  0  0  0  0
  -30.2768  -24.0011   23.4737 H   0  0  0  0  0  0
  -30.2040  -25.5770   21.5916 H   0  0  0  0  0  0
  -28.9065  -25.9356   22.7038 H   0  0  0  0  0  0
  -30.2308  -21.8700   22.2284 H   0  0  0  0  0  0
  -30.9131  -23.1111   21.2305 H   0  0  0  0  0  0
  -27.2548  -24.9964   21.2999 H   0  0  0  0  0  0
  -30.1342  -15.3817   23.1205 H   0  0  0  0  0  0
  -28.3716  -15.5098   23.3029 H   0  0  0  0  0  0
  -29.4565  -16.3640   24.3937 H   0  0  0  0  0  0
  -28.0819  -21.0132   19.4568 H   0  0  0  0  0  0
  -29.8032  -21.0760   19.3201 H   0  0  0  0  0  0
  -28.7530  -15.4811   20.2787 H   0  0  0  0  0  0
  1 25  1  0  0  0
  1 30  2  0  0  0
  1 85  1  0  0  0
  2  3  1  0  0  0
  2 25  1  0  0  0
  2 88  1  0  0  0
  2 89  1  0  0  0
  3  4  1  0  0  0
  3 90  1  0  0  0
  3 91  1  0  0  0
  4  5  1  0  0  0
  4 92  1  0  0  0
  4 93  1  0  0  0
  5  6  1  0  0  0
  5 26  1  0  0  0
  5 94  1  0  0  0
  6 25  1  0  0  0
  6 95  1  0  0  0
  6 96  1  0  0  0
  7  8  2  0  0  0
  7 26  1  0  0  0
  7 29  1  0  0  0
  8  9  1  0  0  0
  8 22  1  0  0  0
  9 10  1  0  0  0
  9 27  2  0  0  0
 10 11  2  0  0  0
 10 15  1  0  0  0
 11 12  1  0  0  0
 11 97  1  0  0  0
 12 13  2  0  0  0
 12 98  1  0  0  0
 13 14  1  0  0  0
 13 31  1  0  0  0
 14 15  2  0  0  0
 14 99  1  0  0  0
 15100  1  0  0  0
 16 17  2  0  0  0
 16 21  1  0  0  0
 16 31  1  0  0  0
 17 18  1  0  0  0
 17101  1  0  0  0
 18 19  2  0  0  0
 18102  1  0  0  0
 19 20  1  0  0  0
 19 24  1  0  0  0
 20 21  2  0  0  0
 20103  1  0  0  0
 21 23  1  0  0  0
 22 28  1  0  0  0
 22 32  2  0  0  0
 26 27  1  0  0  0
 28104  1  0  0  0
 28105  1  0  0  0
 29106  1  0  0  0
 29107  1  0  0  0
 33 34  1  0  0  0
 33 66  1  0  0  0
 33 70  2  0  0  0
 34 36  1  0  0  0
 34 59  1  0  0  0
 34108  1  0  0  0
 35 44  2  0  0  0
 35 45  1  0  0  0
 35 68  1  0  0  0
 36 56  1  0  0  0
 36109  1  0  0  0
 37 39  1  0  0  0
 37 47  1  0  0  0
 37 66  1  0  0  0
 37110  1  0  0  0
 38 43  2  0  0  0
 38 46  1  0  0  0
 38 47  1  0  0  0
 39 64  1  0  0  0
 39 67  2  0  0  0
 40 52  1  0  0  0
 40 53  2  0  0  0
 40 58  1  0  0  0
 41111  1  0  0  0
 41112  1  0  0  0
 41113  1  0  0  0
 41 48  1  0  0  0
 42 43  1  0  0  0
 42 66  1  0  0  0
 42114  1  0  0  0
 42115  1  0  0  0
 43 44  1  0  0  0
 44116  1  0  0  0
 45 46  2  0  0  0
 45117  1  0  0  0
 46118  1  0  0  0
 47119  1  0  0  0
 47120  1  0  0  0
 48 56  1  0  0  0
 48 65  1  0  0  0
 48121  1  0  0  0
 49 50  1  0  0  0
 49 53  1  0  0  0
 49 64  1  0  0  0
 49122  1  0  0  0
 50 51  1  0  0  0
 50123  1  0  0  0
 50124  1  0  0  0
 51 52  1  0  0  0
 51125  1  0  0  0
 51126  1  0  0  0
 52127  1  0  0  0
 52128  1  0  0  0
 53 54  1  0  0  0
 54 55  2  0  0  0
 54129  1  0  0  0
 55 57  1  0  0  0
 55130  1  0  0  0
 56 69  2  0  0  0
 57 58  2  0  0  0
 57131  1  0  0  0
 58132  1  0  0  0
 59 60  1  0  0  0
 59 61  1  0  0  0
 59 62  1  0  0  0
 60133  1  0  0  0
 60134  1  0  0  0
 60135  1  0  0  0
 61136  1  0  0  0
 61137  1  0  0  0
 61138  1  0  0  0
 62139  1  0  0  0
 62140  1  0  0  0
 62141  1  0  0  0
 63 65  1  0  0  0
 63142  1  0  0  0
 63143  1  0  0  0
 63144  1  0  0  0
 64145  1  0  0  0
 65146  1  0  0  0
 68 81  1  0  0  0
 71 73  2  0  0  0
 71 75  1  0  0  0
 71147  1  0  0  0
 72 74  1  0  0  0
 72 76  2  0  0  0
 72148  1  0  0  0
 73 76  1  0  0  0
 73 83  1  0  0  0
 74 75  2  0  0  0
 74 82  1  0  0  0
 75 85  1  0  0  0
 76 87  1  0  0  0
 77 81  1  0  0  0
 77 84  1  0  0  0
 77 86  2  0  0  0
 78 79  1  0  0  0
 78 80  1  0  0  0
 78149  1  0  0  0
 78150  1  0  0  0
 79 81  1  0  0  0
 79151  1  0  0  0
 79152  1  0  0  0
 80 84  1  0  0  0
 80153  1  0  0  0
 80154  1  0  0  0
 81155  1  0  0  0
 82156  1  0  0  0
 82157  1  0  0  0
 82158  1  0  0  0
 83 84  1  0  0  0
 83159  1  0  0  0
 83160  1  0  0  0
 85161  1  0  0  0
M  ISO  4   1 100  68 101  81 101  85 100
M  END
> <chiral flag>
0

> <version>
0

> <s_m_source_file>
/data/baiqing/PycharmProjects/Reinvent-master-3.2/result/LINK_invent/BTK/process_docking_weight1_custom_product_contain_oxygen_bond_distance_aromatic_linkinvent_7_9_3/rearranged_h_0041.sdf

> <i_m_source_file_index>
24

> <r_mmod_Potential_Energy-OPLS-2005>
301.317596435547

> <r_mmod_Stretch_Energy-OPLS-2005>
140.248962402344

> <r_mmod_Bend_Energy-OPLS-2005>
183.822204589844

> <r_mmod_Torsional_Energy-OPLS-2005>
312.576019287109

> <r_mmod_Improper_Torsional_Energy-OPLS-2005>
16.3537158966064

> <r_mmod_Van_der_Waal_Energy-OPLS-2005>
137.435928344727

> <r_mmod_Electrostatic_Energy-OPLS-2005>
-357.359954833984

> <r_mmod_Solvation_Energy-OPLS-2005>
-224.118362426758

> <b_mmod_Minimization_Converged-OPLS-2005>
0

> <r_mmod_RMS_Derivative-OPLS-2005>
2.54220104217529

$$$$
24
                    3D
 Structure written by MMmdl.
162170  0  0  1  0            999 V2000
  -30.7730  -14.4165   20.6454 C   0  0  0  0  0  0
  -30.4127  -12.3150   19.3874 C   0  0  0  0  0  0
  -29.4735  -12.5387   18.1873 C   0  0  0  0  0  0
  -28.0056  -12.3708   18.6156 C   0  0  0  0  0  0
  -27.6695  -13.2085   19.8703 C   0  0  2  0  0  0
  -28.7139  -12.9857   20.9896 C   0  0  0  0  0  0
  -25.2633  -13.8196   20.5538 C   0  0  0  0  0  0
  -24.1871  -13.0479   20.9111 C   0  0  0  0  0  0
  -24.6435  -11.6958   20.8709 C   0  0  0  0  0  0
  -23.9062  -10.4336   21.0378 C   0  0  0  0  0  0
  -24.3612   -9.4280   21.9180 C   0  0  0  0  0  0
  -23.6291   -8.2300   22.0797 C   0  0  0  0  0  0
  -22.4266   -8.0319   21.3563 C   0  0  0  0  0  0
  -21.9881   -9.0277   20.4624 C   0  0  0  0  0  0
  -22.7218  -10.2168   20.3031 C   0  0  0  0  0  0
  -21.6864   -6.0731   22.5244 C   0  0  0  0  0  0
  -21.4030   -6.5643   23.8181 C   0  0  0  0  0  0
  -21.3683   -5.6802   24.9160 C   0  0  0  0  0  0
  -21.6055   -4.3061   24.7209 C   0  0  0  0  0  0
  -21.8829   -3.8142   23.4342 C   0  0  0  0  0  0
  -21.9207   -4.6945   22.3403 C   0  0  0  0  0  0
  -22.7918  -13.5321   21.1758 C   0  0  0  0  0  0
  -22.1662   -4.2142   21.0958 F   0  0  0  0  0  0
  -21.5637   -3.4568   25.7744 F   0  0  0  0  0  0
  -30.0534  -13.2763   20.4473 N   0  0  0  0  0  0
  -26.3060  -12.9360   20.3298 N   0  0  0  0  0  0
  -25.9374  -11.6531   20.5815 N   0  0  0  0  0  0
  -22.0540  -12.8225   22.0237 N   0  0  0  0  0  0
  -25.4463  -15.1863   20.3744 N   0  0  0  0  0  0
  -31.8216  -14.6400   20.0318 O   0  0  0  0  0  0
  -21.6623   -6.8910   21.4245 O   0  0  0  0  0  0
  -22.3643  -14.5672   20.6713 O   0  0  0  0  0  0
  -24.6213  -31.8680   23.2212 C   0  0  0  0  0  0
  -25.9077  -32.4838   23.8474 C   0  0  1  0  0  0
  -27.1870  -27.4009   20.0764 C   0  0  0  0  0  0
  -25.5941  -33.8640   24.2392 N   0  0  0  0  0  0
  -23.4058  -30.5051   21.5671 C   0  0  2  0  0  0
  -24.8385  -28.9938   20.1135 C   0  0  0  0  0  0
  -22.7353  -29.4764   22.5022 C   0  0  0  0  0  0
  -18.0227  -28.1362   22.8621 C   0  0  0  0  0  0
  -24.1477  -36.7274   23.2640 C   0  0  0  0  0  0
  -25.9451  -30.8278   21.3776 C   0  0  0  0  0  0
  -26.0125  -29.4695   20.7107 C   0  0  0  0  0  0
  -27.1965  -28.6819   20.6921 C   0  0  0  0  0  0
  -25.9833  -26.9809   19.4546 C   0  0  0  0  0  0
  -24.8210  -27.7498   19.4863 C   0  0  0  0  0  0
  -23.6101  -29.8600   20.1800 C   0  0  0  0  0  0
  -25.4099  -36.3077   24.0341 C   0  0  1  0  0  0
  -20.5803  -28.3677   23.1167 C   0  0  2  0  0  0
  -20.6741  -26.9410   22.5111 C   0  0  0  0  0  0
  -19.5542  -26.6416   21.5095 C   0  0  0  0  0  0
  -18.1890  -26.7804   22.1987 C   0  0  0  0  0  0
  -19.1498  -28.8846   23.2852 C   0  0  0  0  0  0
  -18.9540  -30.1534   23.8736 C   0  0  0  0  0  0
  -17.6575  -30.6692   24.0538 C   0  0  0  0  0  0
  -25.9029  -34.9473   23.5164 C   0  0  0  0  0  0
  -16.5445  -29.9208   23.6394 C   0  0  0  0  0  0
  -16.7254  -28.6565   23.0521 C   0  0  0  0  0  0
  -26.4522  -31.6561   25.0775 C   0  0  0  0  0  0
  -25.3802  -31.3617   26.1508 C   0  0  0  0  0  0
  -27.0333  -30.3024   24.6066 C   0  0  0  0  0  0
  -27.6082  -32.4281   25.7555 C   0  0  0  0  0  0
  -27.5562  -37.1780   24.8480 C   0  0  0  0  0  0
  -21.4082  -29.3156   22.3696 N   0  0  0  0  0  0
  -26.4277  -37.3766   23.9421 N   0  0  0  0  0  0
  -24.6759  -31.0779   22.1117 N   0  0  0  0  0  0
  -23.4054  -28.8238   23.3049 O   0  0  0  0  0  0
  -28.2914  -26.5587   20.1186 O   0  0  0  0  0  0
  -26.5544  -34.8938   22.4711 O   0  0  0  0  0  0
  -23.5414  -32.1482   23.7606 O   0  0  0  0  0  0
  -31.4051  -19.3292   22.2961 C   0  0  0  0  0  0
  -32.3867  -18.3483   22.0779 C   0  0  0  0  0  0
  -30.0404  -18.9755   22.3458 C   0  0  0  0  0  0
  -29.6513  -17.6315   22.0600 C   0  0  0  0  0  0
  -30.6472  -16.6424   21.7934 C   0  0  0  0  0  0
  -32.0176  -17.0152   21.8716 C   0  0  0  0  0  0
  -29.1094  -20.0074   22.8416 C   0  0  0  0  0  0
  -28.1735  -17.2437   22.0301 C   0  0  0  0  0  0
  -28.4177  -22.6621   20.2258 C   0  0  0  0  0  0
  -28.9931  -24.0973   20.3837 C   0  0  0  0  0  0
  -29.2595  -21.5125   20.8289 C   0  0  0  0  0  0
  -27.9757  -25.1562   19.9062 C   0  0  0  0  0  0
  -28.5500  -19.8089   24.0319 N   0  0  0  0  0  0
  -30.2587  -15.2871   21.5346 N   0  0  0  0  0  0
  -28.8271  -21.1499   22.1914 N   0  3  0  0  0  0
  -33.0105  -16.1006   21.7982 F   0  0  0  0  0  0
  -31.4486  -12.4223   19.0589 H   0  0  0  0  0  0
  -30.3210  -11.2975   19.7619 H   0  0  0  0  0  0
  -29.6973  -11.8308   17.3832 H   0  0  0  0  0  0
  -29.6329  -13.5433   17.7889 H   0  0  0  0  0  0
  -27.8465  -11.3118   18.8220 H   0  0  0  0  0  0
  -27.3213  -12.6288   17.8005 H   0  0  0  0  0  0
  -27.7337  -14.2541   19.5662 H   0  0  0  0  0  0
  -28.6850  -11.9605   21.3581 H   0  0  0  0  0  0
  -28.4755  -13.6017   21.8559 H   0  0  0  0  0  0
  -25.2781   -9.5804   22.4712 H   0  0  0  0  0  0
  -24.0037   -7.4724   22.7528 H   0  0  0  0  0  0
  -21.0827   -8.8754   19.8903 H   0  0  0  0  0  0
  -22.3684  -10.9697   19.6115 H   0  0  0  0  0  0
  -21.2005   -7.6141   23.9726 H   0  0  0  0  0  0
  -21.1473   -6.0499   25.9055 H   0  0  0  0  0  0
  -22.0573   -2.7585   23.2861 H   0  0  0  0  0  0
  -22.4195  -11.9877   22.4558 H   0  0  0  0  0  0
  -21.1211  -13.1318   22.2528 H   0  0  0  0  0  0
  -24.6929  -15.8637   20.4333 H   0  0  0  0  0  0
  -26.2754  -15.5570   19.9286 H   0  0  0  0  0  0
  -26.7172  -32.5548   23.1253 H   0  0  0  0  0  0
  -25.0193  -33.9813   25.0593 H   0  0  0  0  0  0
  -22.6977  -31.3275   21.4382 H   0  0  0  0  0  0
  -23.3761  -35.9585   23.3333 H   0  0  0  0  0  0
  -24.3584  -36.8841   22.2045 H   0  0  0  0  0  0
  -23.7239  -37.6501   23.6632 H   0  0  0  0  0  0
  -26.0524  -31.5985   20.6109 H   0  0  0  0  0  0
  -26.8323  -30.8728   21.9989 H   0  0  0  0  0  0
  -28.0963  -29.0368   21.1742 H   0  0  0  0  0  0
  -25.8898  -26.0361   18.9397 H   0  0  0  0  0  0
  -23.9243  -27.3703   19.0195 H   0  0  0  0  0  0
  -23.7222  -30.6445   19.4317 H   0  0  0  0  0  0
  -22.7286  -29.2929   19.8777 H   0  0  0  0  0  0
  -25.1288  -36.1956   25.0833 H   0  0  0  0  0  0
  -20.9857  -28.3199   24.1275 H   0  0  0  0  0  0
  -20.5839  -26.2152   23.3194 H   0  0  0  0  0  0
  -21.6577  -26.7616   22.0746 H   0  0  0  0  0  0
  -19.6798  -25.6418   21.0824 H   0  0  0  0  0  0
  -19.6154  -27.3477   20.6818 H   0  0  0  0  0  0
  -17.3885  -26.6235   21.4717 H   0  0  0  0  0  0
  -18.0657  -26.0109   22.9667 H   0  0  0  0  0  0
  -19.7986  -30.7490   24.1924 H   0  0  0  0  0  0
  -17.5261  -31.6341   24.5282 H   0  0  0  0  0  0
  -15.5445  -30.3067   23.7810 H   0  0  0  0  0  0
  -15.8527  -28.0846   22.7652 H   0  0  0  0  0  0
  -24.5977  -30.6985   25.7820 H   0  0  0  0  0  0
  -24.9035  -32.2751   26.5033 H   0  0  0  0  0  0
  -25.8168  -30.8723   27.0211 H   0  0  0  0  0  0
  -26.2856  -29.6818   24.1135 H   0  0  0  0  0  0
  -27.4148  -29.7211   25.4445 H   0  0  0  0  0  0
  -27.8662  -30.4381   23.9193 H   0  0  0  0  0  0
  -27.2661  -33.3537   26.2201 H   0  0  0  0  0  0
  -28.3865  -32.6901   25.0378 H   0  0  0  0  0  0
  -28.0776  -31.8388   26.5422 H   0  0  0  0  0  0
  -28.2589  -38.0052   24.7509 H   0  0  0  0  0  0
  -28.1046  -36.2601   24.6349 H   0  0  0  0  0  0
  -27.2287  -37.1479   25.8878 H   0  0  0  0  0  0
  -20.9230  -29.8820   21.6868 H   0  0  0  0  0  0
  -26.0165  -38.2851   24.1427 H   0  0  0  0  0  0
  -31.7256  -20.3369   22.5150 H   0  0  0  0  0  0
  -33.4355  -18.5971   22.1299 H   0  0  0  0  0  0
  -27.5772  -18.0451   21.5911 H   0  0  0  0  0  0
  -27.7994  -17.0309   23.0317 H   0  0  0  0  0  0
  -27.9929  -16.3601   21.4214 H   0  0  0  0  0  0
  -28.2764  -22.4492   19.1674 H   0  0  0  0  0  0
  -27.4113  -22.6213   20.6371 H   0  0  0  0  0  0
  -29.9082  -24.1897   19.7950 H   0  0  0  0  0  0
  -29.2485  -24.2892   21.4254 H   0  0  0  0  0  0
  -30.3267  -21.7385   20.8086 H   0  0  0  0  0  0
  -29.0939  -20.6395   20.1941 H   0  0  0  0  0  0
  -27.0479  -24.9104   20.4265 H   0  0  0  0  0  0
  -27.7919  -24.9977   18.8406 H   0  0  0  0  0  0
  -28.8700  -19.0233   24.5748 H   0  0  0  0  0  0
  -27.8257  -20.3890   24.4248 H   0  0  0  0  0  0
  -29.3712  -15.0013   21.9109 H   0  0  0  0  0  0
  -28.3481  -21.8822   22.6916 H   0  0  0  0  0  0
  1 25  1  0  0  0
  1 30  2  0  0  0
  1 84  1  0  0  0
  2  3  1  0  0  0
  2 25  1  0  0  0
  2 87  1  0  0  0
  2 88  1  0  0  0
  3  4  1  0  0  0
  3 89  1  0  0  0
  3 90  1  0  0  0
  4  5  1  0  0  0
  4 91  1  0  0  0
  4 92  1  0  0  0
  5  6  1  0  0  0
  5 26  1  0  0  0
  5 93  1  0  0  0
  6 25  1  0  0  0
  6 94  1  0  0  0
  6 95  1  0  0  0
  7  8  2  0  0  0
  7 26  1  0  0  0
  7 29  1  0  0  0
  8  9  1  0  0  0
  8 22  1  0  0  0
  9 10  1  0  0  0
  9 27  2  0  0  0
 10 11  2  0  0  0
 10 15  1  0  0  0
 11 12  1  0  0  0
 11 96  1  0  0  0
 12 13  2  0  0  0
 12 97  1  0  0  0
 13 14  1  0  0  0
 13 31  1  0  0  0
 14 15  2  0  0  0
 14 98  1  0  0  0
 15 99  1  0  0  0
 16 17  2  0  0  0
 16 21  1  0  0  0
 16 31  1  0  0  0
 17 18  1  0  0  0
 17100  1  0  0  0
 18 19  2  0  0  0
 18101  1  0  0  0
 19 20  1  0  0  0
 19 24  1  0  0  0
 20 21  2  0  0  0
 20102  1  0  0  0
 21 23  1  0  0  0
 22 28  1  0  0  0
 22 32  2  0  0  0
 26 27  1  0  0  0
 28103  1  0  0  0
 28104  1  0  0  0
 29105  1  0  0  0
 29106  1  0  0  0
 33 34  1  0  0  0
 33 66  1  0  0  0
 33 70  2  0  0  0
 34 36  1  0  0  0
 34 59  1  0  0  0
 34107  1  0  0  0
 35 44  2  0  0  0
 35 45  1  0  0  0
 35 68  1  0  0  0
 36 56  1  0  0  0
 36108  1  0  0  0
 37 39  1  0  0  0
 37 47  1  0  0  0
 37 66  1  0  0  0
 37109  1  0  0  0
 38 43  2  0  0  0
 38 46  1  0  0  0
 38 47  1  0  0  0
 39 64  1  0  0  0
 39 67  2  0  0  0
 40 52  1  0  0  0
 40 53  2  0  0  0
 40 58  1  0  0  0
 41110  1  0  0  0
 41111  1  0  0  0
 41112  1  0  0  0
 41 48  1  0  0  0
 42 43  1  0  0  0
 42 66  1  0  0  0
 42113  1  0  0  0
 42114  1  0  0  0
 43 44  1  0  0  0
 44115  1  0  0  0
 45 46  2  0  0  0
 45116  1  0  0  0
 46117  1  0  0  0
 47118  1  0  0  0
 47119  1  0  0  0
 48 56  1  0  0  0
 48 65  1  0  0  0
 48120  1  0  0  0
 49 50  1  0  0  0
 49 53  1  0  0  0
 49 64  1  0  0  0
 49121  1  0  0  0
 50 51  1  0  0  0
 50122  1  0  0  0
 50123  1  0  0  0
 51 52  1  0  0  0
 51124  1  0  0  0
 51125  1  0  0  0
 52126  1  0  0  0
 52127  1  0  0  0
 53 54  1  0  0  0
 54 55  2  0  0  0
 54128  1  0  0  0
 55 57  1  0  0  0
 55129  1  0  0  0
 56 69  2  0  0  0
 57 58  2  0  0  0
 57130  1  0  0  0
 58131  1  0  0  0
 59 60  1  0  0  0
 59 61  1  0  0  0
 59 62  1  0  0  0
 60132  1  0  0  0
 60133  1  0  0  0
 60134  1  0  0  0
 61135  1  0  0  0
 61136  1  0  0  0
 61137  1  0  0  0
 62138  1  0  0  0
 62139  1  0  0  0
 62140  1  0  0  0
 63 65  1  0  0  0
 63141  1  0  0  0
 63142  1  0  0  0
 63143  1  0  0  0
 64144  1  0  0  0
 65145  1  0  0  0
 68 82  1  0  0  0
 71 72  2  0  0  0
 71 73  1  0  0  0
 71146  1  0  0  0
 72 76  1  0  0  0
 72147  1  0  0  0
 73 74  2  0  0  0
 73 77  1  0  0  0
 74 75  1  0  0  0
 74 78  1  0  0  0
 75 76  2  0  0  0
 75 84  1  0  0  0
 76 86  1  0  0  0
 77 83  1  0  0  0
 77 85  2  0  0  0
 78148  1  0  0  0
 78149  1  0  0  0
 78150  1  0  0  0
 79 80  1  0  0  0
 79 81  1  0  0  0
 79151  1  0  0  0
 79152  1  0  0  0
 80 82  1  0  0  0
 80153  1  0  0  0
 80154  1  0  0  0
 81 85  1  0  0  0
 81155  1  0  0  0
 81156  1  0  0  0
 82157  1  0  0  0
 82158  1  0  0  0
 83159  1  0  0  0
 83160  1  0  0  0
 84161  1  0  0  0
 85162  1  0  0  0
M  CHG  1  85   1
M  ISO  4   1 100  68 101  82 101  84 100
M  END
> <chiral flag>
0

> <version>
0

> <s_m_source_file>
/data/baiqing/PycharmProjects/Reinvent-master-3.2/result/LINK_invent/BTK/process_docking_weight1_custom_product_contain_oxygen_bond_distance_aromatic_linkinvent_7_9_3/rearranged_h_0041.sdf

> <i_m_source_file_index>
25

> <r_mmod_Potential_Energy-OPLS-2005>
-252.140975952148

> <r_mmod_Stretch_Energy-OPLS-2005>
43.4533309936523

> <r_mmod_Bend_Energy-OPLS-2005>
106.515380859375

> <r_mmod_Torsional_Energy-OPLS-2005>
237.058380126953

> <r_mmod_Improper_Torsional_Energy-OPLS-2005>
4.0685453414917

> <r_mmod_Van_der_Waal_Energy-OPLS-2005>
176.322662353516

> <r_mmod_Electrostatic_Energy-OPLS-2005>
-412.923309326172

> <r_mmod_Solvation_Energy-OPLS-2005>
-425.67822265625

> <b_mmod_Minimization_Converged-OPLS-2005>
0

> <r_mmod_RMS_Derivative-OPLS-2005>
10.7714109420776

$$$$
25
                    3D
 Structure written by MMmdl.
158167  0  0  1  0            999 V2000
  -30.5701  -14.7627   20.4628 C   0  0  0  0  0  0
  -30.4455  -12.4683   19.4564 C   0  0  0  0  0  0
  -29.5116  -12.4959   18.2255 C   0  0  0  0  0  0
  -28.0389  -12.3114   18.6481 C   0  0  0  0  0  0
  -27.6391  -13.2192   19.8418 C   0  0  2  0  0  0
  -28.6875  -13.1552   20.9724 C   0  0  0  0  0  0
  -25.2515  -13.8166   20.5678 C   0  0  0  0  0  0
  -24.1786  -13.0436   20.9197 C   0  0  0  0  0  0
  -24.6370  -11.6903   20.8741 C   0  0  0  0  0  0
  -23.9047  -10.4287   21.0406 C   0  0  0  0  0  0
  -24.3604   -9.4210   21.9195 C   0  0  0  0  0  0
  -23.6273   -8.2253   22.0766 C   0  0  0  0  0  0
  -22.4261   -8.0282   21.3550 C   0  0  0  0  0  0
  -21.9885   -9.0256   20.4658 C   0  0  0  0  0  0
  -22.7210  -10.2139   20.3068 C   0  0  0  0  0  0
  -21.6846   -6.0728   22.5271 C   0  0  0  0  0  0
  -21.4017   -6.5639   23.8205 C   0  0  0  0  0  0
  -21.3657   -5.6792   24.9171 C   0  0  0  0  0  0
  -21.6033   -4.3052   24.7215 C   0  0  0  0  0  0
  -21.8819   -3.8146   23.4341 C   0  0  0  0  0  0
  -21.9192   -4.6960   22.3397 C   0  0  0  0  0  0
  -22.7820  -13.5236   21.1857 C   0  0  0  0  0  0
  -22.1653   -4.2150   21.0971 F   0  0  0  0  0  0
  -21.5631   -3.4533   25.7724 F   0  0  0  0  0  0
  -29.9790  -13.5240   20.3789 N   0  0  0  0  0  0
  -26.2920  -12.9340   20.3239 N   0  0  0  0  0  0
  -25.9292  -11.6501   20.5729 N   0  0  0  0  0  0
  -22.0445  -12.8257   22.0429 N   0  0  0  0  0  0
  -25.4207  -15.1893   20.4105 N   0  0  0  0  0  0
  -31.7791  -14.8909   20.2483 O   0  0  0  0  0  0
  -21.6640   -6.8870   21.4229 O   0  0  0  0  0  0
  -22.3513  -14.5542   20.6686 O   0  0  0  0  0  0
  -24.6319  -31.8537   23.1965 C   0  0  0  0  0  0
  -25.9139  -32.4747   23.8318 C   0  0  1  0  0  0
  -27.2211  -27.2599   20.1441 C   0  0  0  0  0  0
  -25.5925  -33.8552   24.2240 N   0  0  0  0  0  0
  -23.4294  -30.4746   21.5391 C   0  0  2  0  0  0
  -24.8773  -28.9114   20.1194 C   0  0  0  0  0  0
  -22.7504  -29.4600   22.4906 C   0  0  0  0  0  0
  -18.0293  -28.1390   22.8483 C   0  0  0  0  0  0
  -24.1487  -36.7285   23.2641 C   0  0  0  0  0  0
  -25.9749  -30.7673   21.3751 C   0  0  0  0  0  0
  -26.0493  -29.3858   20.7251 C   0  0  0  0  0  0
  -27.2286  -28.5744   20.7200 C   0  0  0  0  0  0
  -26.0287  -26.8420   19.5230 C   0  0  0  0  0  0
  -24.8716  -27.6468   19.5071 C   0  0  0  0  0  0
  -23.6498  -29.8017   20.1584 C   0  0  0  0  0  0
  -25.4114  -36.3068   24.0326 C   0  0  1  0  0  0
  -20.5896  -28.3707   23.1265 C   0  0  2  0  0  0
  -20.6776  -26.9422   22.5406 C   0  0  0  0  0  0
  -19.5752  -26.6385   21.5209 C   0  0  0  0  0  0
  -18.1932  -26.7930   22.1622 C   0  0  0  0  0  0
  -19.1546  -28.8865   23.2869 C   0  0  0  0  0  0
  -18.9468  -30.1462   23.8896 C   0  0  0  0  0  0
  -17.6468  -30.6590   24.0564 C   0  0  0  0  0  0
  -25.9056  -34.9437   23.5087 C   0  0  0  0  0  0
  -16.5360  -29.9087   23.6331 C   0  0  0  0  0  0
  -16.7280  -28.6503   23.0354 C   0  0  0  0  0  0
  -26.4509  -31.6579   25.0713 C   0  0  0  0  0  0
  -25.3724  -31.3742   26.1431 C   0  0  0  0  0  0
  -27.0364  -30.2990   24.6216 C   0  0  0  0  0  0
  -27.6054  -32.4333   25.7487 C   0  0  0  0  0  0
  -27.5578  -37.1795   24.8465 C   0  0  0  0  0  0
  -21.4211  -29.3048   22.3648 N   0  0  0  0  0  0
  -26.4289  -37.3766   23.9409 N   0  0  0  0  0  0
  -24.6978  -31.0506   22.0931 N   0  0  0  0  0  0
  -23.4197  -28.8143   23.3014 O   0  0  0  0  0  0
  -28.3237  -26.3851   20.0954 O   0  0  0  0  0  0
  -26.5637  -34.8917   22.4664 O   0  0  0  0  0  0
  -23.5468  -32.1361   23.7256 O   0  0  0  0  0  0
  -29.4753  -18.4630   20.3116 C   0  0  0  0  0  0
  -29.3024  -18.4947   23.0709 C   0  0  0  0  0  0
  -29.1600  -19.7459   20.9497 C   0  0  0  0  0  0
  -29.7060  -17.2065   21.0250 C   0  0  0  0  0  0
  -28.9995  -19.6733   22.3597 C   0  0  0  0  0  0
  -29.6541  -17.2887   22.4367 C   0  0  0  0  0  0
  -28.3243  -23.6809   20.1365 C   0  0  0  0  0  0
  -29.9075  -23.9303   22.5349 C   0  0  0  0  0  0
  -29.5316  -25.2471   21.8459 C   0  0  0  0  0  0
  -30.1757  -22.8276   21.4908 C   0  0  0  0  0  0
  -28.3280  -25.1124   20.8948 C   0  0  1  0  0  0
  -28.8647  -21.1047   20.1233 C   0  0  0  0  0  0
  -29.0071  -22.5614   20.6375 N   0  0  0  0  0  0
  -29.7091  -15.8532   20.4095 N   0  0  0  0  0  0
  -27.6142  -23.5750   19.1319 O   0  0  0  0  0  0
  -28.3188  -20.9652   23.2830 Cl  0  0  0  0  0  0
  -29.8792  -15.8982   23.4416 Cl  0  0  0  0  0  0
  -31.4794  -12.6280   19.1477 H   0  0  0  0  0  0
  -30.4220  -11.4940   19.9466 H   0  0  0  0  0  0
  -29.7982  -11.7178   17.5161 H   0  0  0  0  0  0
  -29.6260  -13.4448   17.6983 H   0  0  0  0  0  0
  -27.9053  -11.2643   18.9236 H   0  0  0  0  0  0
  -27.3782  -12.4888   17.7991 H   0  0  0  0  0  0
  -27.6277  -14.2357   19.4497 H   0  0  0  0  0  0
  -28.7369  -12.1555   21.4066 H   0  0  0  0  0  0
  -28.4210  -13.8325   21.7859 H   0  0  0  0  0  0
  -25.2754   -9.5672   22.4775 H   0  0  0  0  0  0
  -23.9968   -7.4646   22.7501 H   0  0  0  0  0  0
  -21.0814   -8.8775   19.8971 H   0  0  0  0  0  0
  -22.3666  -10.9683   19.6183 H   0  0  0  0  0  0
  -21.2019   -7.6150   23.9701 H   0  0  0  0  0  0
  -21.1472   -6.0534   25.9071 H   0  0  0  0  0  0
  -22.0603   -2.7610   23.2841 H   0  0  0  0  0  0
  -22.4030  -11.9901   22.4798 H   0  0  0  0  0  0
  -21.1081  -13.1312   22.2648 H   0  0  0  0  0  0
  -24.6503  -15.8364   20.5405 H   0  0  0  0  0  0
  -26.2592  -15.6412   20.0709 H   0  0  0  0  0  0
  -26.7210  -32.5401   23.1067 H   0  0  0  0  0  0
  -25.0054  -33.9679   25.0372 H   0  0  0  0  0  0
  -22.7268  -31.2966   21.3881 H   0  0  0  0  0  0
  -23.3744  -35.9623   23.3309 H   0  0  0  0  0  0
  -24.3570  -36.8906   22.2055 H   0  0  0  0  0  0
  -23.7251  -37.6490   23.6668 H   0  0  0  0  0  0
  -26.1133  -31.5251   20.6024 H   0  0  0  0  0  0
  -26.8526  -30.8195   22.0081 H   0  0  0  0  0  0
  -28.1345  -28.9409   21.1818 H   0  0  0  0  0  0
  -25.9931  -25.8711   19.0482 H   0  0  0  0  0  0
  -23.9747  -27.2776   19.0280 H   0  0  0  0  0  0
  -23.7789  -30.5737   19.3991 H   0  0  0  0  0  0
  -22.7680  -29.2360   19.8520 H   0  0  0  0  0  0
  -25.1298  -36.1912   25.0819 H   0  0  0  0  0  0
  -20.9992  -28.3285   24.1384 H   0  0  0  0  0  0
  -20.5665  -26.2320   23.3613 H   0  0  0  0  0  0
  -21.6643  -26.7430   22.1208 H   0  0  0  0  0  0
  -19.6911  -25.6293   21.1244 H   0  0  0  0  0  0
  -19.6685  -27.3191   20.6735 H   0  0  0  0  0  0
  -17.4196  -26.6678   21.4028 H   0  0  0  0  0  0
  -18.0335  -26.0076   22.9025 H   0  0  0  0  0  0
  -19.7941  -30.7278   24.2268 H   0  0  0  0  0  0
  -17.5019  -31.6267   24.5170 H   0  0  0  0  0  0
  -15.5361  -30.2993   23.7653 H   0  0  0  0  0  0
  -15.8674  -28.0823   22.7074 H   0  0  0  0  0  0
  -24.5885  -30.7115   25.7752 H   0  0  0  0  0  0
  -24.8937  -32.2921   26.4853 H   0  0  0  0  0  0
  -25.8026  -30.8908   27.0210 H   0  0  0  0  0  0
  -26.2957  -29.6723   24.1235 H   0  0  0  0  0  0
  -27.4032  -29.7278   25.4756 H   0  0  0  0  0  0
  -27.8840  -30.4263   23.9477 H   0  0  0  0  0  0
  -27.2649  -33.3634   26.2057 H   0  0  0  0  0  0
  -28.3863  -32.6900   25.0313 H   0  0  0  0  0  0
  -28.0728  -31.8468   26.5409 H   0  0  0  0  0  0
  -28.2597  -38.0090   24.7498 H   0  0  0  0  0  0
  -28.1069  -36.2618   24.6301 H   0  0  0  0  0  0
  -27.2293  -37.1458   25.8867 H   0  0  0  0  0  0
  -20.9401  -29.8780   21.6857 H   0  0  0  0  0  0
  -26.0166  -38.2841   24.1400 H   0  0  0  0  0  0
  -29.4882  -18.4371   19.2314 H   0  0  0  0  0  0
  -29.1888  -18.4931   24.1448 H   0  0  0  0  0  0
  -29.1081  -23.6327   23.2138 H   0  0  0  0  0  0
  -30.7924  -24.0787   23.1553 H   0  0  0  0  0  0
  -30.3921  -25.6130   21.2852 H   0  0  0  0  0  0
  -29.3179  -26.0057   22.6002 H   0  0  0  0  0  0
  -30.5246  -21.9241   21.9874 H   0  0  0  0  0  0
  -31.0020  -23.1342   20.8474 H   0  0  0  0  0  0
  -27.4270  -25.1014   21.5104 H   0  0  0  0  0  0
  -27.8384  -20.9989   19.7700 H   0  0  0  0  0  0
  -29.4743  -21.0534   19.2212 H   0  0  0  0  0  0
  -28.7774  -15.5470   20.1800 H   0  0  0  0  0  0
  1 25  1  0  0  0
  1 30  2  0  0  0
  1 84  1  0  0  0
  2  3  1  0  0  0
  2 25  1  0  0  0
  2 88  1  0  0  0
  2 89  1  0  0  0
  3  4  1  0  0  0
  3 90  1  0  0  0
  3 91  1  0  0  0
  4  5  1  0  0  0
  4 92  1  0  0  0
  4 93  1  0  0  0
  5  6  1  0  0  0
  5 26  1  0  0  0
  5 94  1  0  0  0
  6 25  1  0  0  0
  6 95  1  0  0  0
  6 96  1  0  0  0
  7  8  2  0  0  0
  7 26  1  0  0  0
  7 29  1  0  0  0
  8  9  1  0  0  0
  8 22  1  0  0  0
  9 10  1  0  0  0
  9 27  2  0  0  0
 10 11  2  0  0  0
 10 15  1  0  0  0
 11 12  1  0  0  0
 11 97  1  0  0  0
 12 13  2  0  0  0
 12 98  1  0  0  0
 13 14  1  0  0  0
 13 31  1  0  0  0
 14 15  2  0  0  0
 14 99  1  0  0  0
 15100  1  0  0  0
 16 17  2  0  0  0
 16 21  1  0  0  0
 16 31  1  0  0  0
 17 18  1  0  0  0
 17101  1  0  0  0
 18 19  2  0  0  0
 18102  1  0  0  0
 19 20  1  0  0  0
 19 24  1  0  0  0
 20 21  2  0  0  0
 20103  1  0  0  0
 21 23  1  0  0  0
 22 28  1  0  0  0
 22 32  2  0  0  0
 26 27  1  0  0  0
 28104  1  0  0  0
 28105  1  0  0  0
 29106  1  0  0  0
 29107  1  0  0  0
 33 34  1  0  0  0
 33 66  1  0  0  0
 33 70  2  0  0  0
 34 36  1  0  0  0
 34 59  1  0  0  0
 34108  1  0  0  0
 35 44  2  0  0  0
 35 45  1  0  0  0
 35 68  1  0  0  0
 36 56  1  0  0  0
 36109  1  0  0  0
 37 39  1  0  0  0
 37 47  1  0  0  0
 37 66  1  0  0  0
 37110  1  0  0  0
 38 43  2  0  0  0
 38 46  1  0  0  0
 38 47  1  0  0  0
 39 64  1  0  0  0
 39 67  2  0  0  0
 40 52  1  0  0  0
 40 53  2  0  0  0
 40 58  1  0  0  0
 41111  1  0  0  0
 41112  1  0  0  0
 41113  1  0  0  0
 41 48  1  0  0  0
 42 43  1  0  0  0
 42 66  1  0  0  0
 42114  1  0  0  0
 42115  1  0  0  0
 43 44  1  0  0  0
 44116  1  0  0  0
 45 46  2  0  0  0
 45117  1  0  0  0
 46118  1  0  0  0
 47119  1  0  0  0
 47120  1  0  0  0
 48 56  1  0  0  0
 48 65  1  0  0  0
 48121  1  0  0  0
 49 50  1  0  0  0
 49 53  1  0  0  0
 49 64  1  0  0  0
 49122  1  0  0  0
 50 51  1  0  0  0
 50123  1  0  0  0
 50124  1  0  0  0
 51 52  1  0  0  0
 51125  1  0  0  0
 51126  1  0  0  0
 52127  1  0  0  0
 52128  1  0  0  0
 53 54  1  0  0  0
 54 55  2  0  0  0
 54129  1  0  0  0
 55 57  1  0  0  0
 55130  1  0  0  0
 56 69  2  0  0  0
 57 58  2  0  0  0
 57131  1  0  0  0
 58132  1  0  0  0
 59 60  1  0  0  0
 59 61  1  0  0  0
 59 62  1  0  0  0
 60133  1  0  0  0
 60134  1  0  0  0
 60135  1  0  0  0
 61136  1  0  0  0
 61137  1  0  0  0
 61138  1  0  0  0
 62139  1  0  0  0
 62140  1  0  0  0
 62141  1  0  0  0
 63 65  1  0  0  0
 63142  1  0  0  0
 63143  1  0  0  0
 63144  1  0  0  0
 64145  1  0  0  0
 65146  1  0  0  0
 68 81  1  0  0  0
 71 73  2  0  0  0
 71 74  1  0  0  0
 71147  1  0  0  0
 72 75  2  0  0  0
 72 76  1  0  0  0
 72148  1  0  0  0
 73 75  1  0  0  0
 73 82  1  0  0  0
 74 76  2  0  0  0
 74 84  1  0  0  0
 75 86  1  0  0  0
 76 87  1  0  0  0
 77 81  1  0  0  0
 77 83  1  0  0  0
 77 85  2  0  0  0
 78 79  1  0  0  0
 78 80  1  0  0  0
 78149  1  0  0  0
 78150  1  0  0  0
 79 81  1  0  0  0
 79151  1  0  0  0
 79152  1  0  0  0
 80 83  1  0  0  0
 80153  1  0  0  0
 80154  1  0  0  0
 81155  1  0  0  0
 82 83  1  0  0  0
 82156  1  0  0  0
 82157  1  0  0  0
 84158  1  0  0  0
M  ISO  4   1 100  68 101  81 101  84 100
M  END
> <chiral flag>
0

> <version>
0

> <s_m_source_file>
/data/baiqing/PycharmProjects/Reinvent-master-3.2/result/LINK_invent/BTK/process_docking_weight1_custom_product_contain_oxygen_bond_distance_aromatic_linkinvent_7_9_3/rearranged_h_0041.sdf

> <i_m_source_file_index>
26

> <r_mmod_Potential_Energy-OPLS-2005>
265.906951904297

> <r_mmod_Stretch_Energy-OPLS-2005>
140.807312011719

> <r_mmod_Bend_Energy-OPLS-2005>
180.542510986328

> <r_mmod_Torsional_Energy-OPLS-2005>
308.524047851562

> <r_mmod_Improper_Torsional_Energy-OPLS-2005>
15.6776742935181

> <r_mmod_Van_der_Waal_Energy-OPLS-2005>
136.669937133789

> <r_mmod_Electrostatic_Energy-OPLS-2005>
-381.197967529297

> <r_mmod_Solvation_Energy-OPLS-2005>
-226.44303894043

> <b_mmod_Minimization_Converged-OPLS-2005>
0

> <r_mmod_RMS_Derivative-OPLS-2005>
1.95628774166107

$$$$
26
                    3D
 Structure written by MMmdl.
159167  0  0  1  0            999 V2000
  -30.6494  -14.5780   20.4740 C   0  0  0  0  0  0
  -30.4355  -12.3414   19.4555 C   0  0  0  0  0  0
  -29.5065  -12.4549   18.2268 C   0  0  0  0  0  0
  -28.0207  -12.3552   18.6312 C   0  0  0  0  0  0
  -27.6549  -13.2045   19.8792 C   0  0  2  0  0  0
  -28.7052  -13.0442   21.0006 C   0  0  0  0  0  0
  -25.2574  -13.8137   20.5736 C   0  0  0  0  0  0
  -24.1810  -13.0432   20.9227 C   0  0  0  0  0  0
  -24.6364  -11.6893   20.8770 C   0  0  0  0  0  0
  -23.9030  -10.4279   21.0425 C   0  0  0  0  0  0
  -24.3583   -9.4202   21.9198 C   0  0  0  0  0  0
  -23.6272   -8.2232   22.0767 C   0  0  0  0  0  0
  -22.4247   -8.0276   21.3556 C   0  0  0  0  0  0
  -21.9889   -9.0245   20.4659 C   0  0  0  0  0  0
  -22.7213  -10.2124   20.3060 C   0  0  0  0  0  0
  -21.6847   -6.0727   22.5272 C   0  0  0  0  0  0
  -21.4006   -6.5625   23.8207 C   0  0  0  0  0  0
  -21.3667   -5.6780   24.9172 C   0  0  0  0  0  0
  -21.6049   -4.3037   24.7223 C   0  0  0  0  0  0
  -21.8819   -3.8139   23.4338 C   0  0  0  0  0  0
  -21.9191   -4.6956   22.3395 C   0  0  0  0  0  0
  -22.7834  -13.5241   21.1861 C   0  0  0  0  0  0
  -22.1659   -4.2156   21.0973 F   0  0  0  0  0  0
  -21.5642   -3.4516   25.7732 F   0  0  0  0  0  0
  -30.0236  -13.3651   20.4303 N   0  0  0  0  0  0
  -26.2994  -12.9284   20.3421 N   0  0  0  0  0  0
  -25.9290  -11.6456   20.5822 N   0  0  0  0  0  0
  -22.0402  -12.8268   22.0397 N   0  0  0  0  0  0
  -25.4341  -15.1862   20.4132 N   0  0  0  0  0  0
  -31.8122  -14.7324   20.0860 O   0  0  0  0  0  0
  -21.6624   -6.8864   21.4236 O   0  0  0  0  0  0
  -22.3537  -14.5556   20.6704 O   0  0  0  0  0  0
  -24.6190  -31.8646   23.2099 C   0  0  0  0  0  0
  -25.9069  -32.4800   23.8409 C   0  0  1  0  0  0
  -27.2314  -27.3768   20.1296 C   0  0  0  0  0  0
  -25.5913  -33.8602   24.2321 N   0  0  0  0  0  0
  -23.4101  -30.4895   21.5469 C   0  0  2  0  0  0
  -24.8605  -28.9554   20.1097 C   0  0  0  0  0  0
  -22.7427  -29.4645   22.4940 C   0  0  0  0  0  0
  -18.0268  -28.1362   22.8471 C   0  0  0  0  0  0
  -24.1469  -36.7289   23.2646 C   0  0  0  0  0  0
  -25.9468  -30.8107   21.3819 C   0  0  0  0  0  0
  -26.0197  -29.4452   20.7229 C   0  0  0  0  0  0
  -27.2029  -28.6629   20.7311 C   0  0  0  0  0  0
  -26.0588  -26.9377   19.4682 C   0  0  0  0  0  0
  -24.8799  -27.7041   19.4754 C   0  0  0  0  0  0
  -23.6263  -29.8284   20.1587 C   0  0  0  0  0  0
  -25.4097  -36.3095   24.0340 C   0  0  1  0  0  0
  -20.5860  -28.3663   23.1284 C   0  0  2  0  0  0
  -20.6753  -26.9392   22.5407 C   0  0  0  0  0  0
  -19.5739  -26.6370   21.5191 C   0  0  0  0  0  0
  -18.1913  -26.7913   22.1601 C   0  0  0  0  0  0
  -19.1521  -28.8830   23.2878 C   0  0  0  0  0  0
  -18.9455  -30.1427   23.8894 C   0  0  0  0  0  0
  -17.6471  -30.6577   24.0545 C   0  0  0  0  0  0
  -25.9028  -34.9467   23.5121 C   0  0  0  0  0  0
  -16.5353  -29.9078   23.6332 C   0  0  0  0  0  0
  -16.7263  -28.6490   23.0359 C   0  0  0  0  0  0
  -26.4472  -31.6614   25.0775 C   0  0  0  0  0  0
  -25.3739  -31.3745   26.1532 C   0  0  0  0  0  0
  -27.0342  -30.3044   24.6248 C   0  0  0  0  0  0
  -27.6012  -32.4374   25.7559 C   0  0  0  0  0  0
  -27.5562  -37.1814   24.8460 C   0  0  0  0  0  0
  -21.4153  -29.3038   22.3689 N   0  0  0  0  0  0
  -26.4271  -37.3794   23.9408 N   0  0  0  0  0  0
  -24.6750  -31.0719   22.1018 N   0  0  0  0  0  0
  -23.4187  -28.8173   23.2988 O   0  0  0  0  0  0
  -28.3849  -26.6004   20.2203 O   0  0  0  0  0  0
  -26.5585  -34.8923   22.4676 O   0  0  0  0  0  0
  -23.5370  -32.1424   23.7453 O   0  0  0  0  0  0
  -29.7532  -19.6435   19.2300 C   0  0  0  0  0  0
  -29.5454  -18.5418   18.3870 C   0  0  0  0  0  0
  -30.0796  -18.1170   21.1021 C   0  0  0  0  0  0
  -30.0441  -19.4552   20.5916 C   0  0  0  0  0  0
  -29.6263  -17.2195   18.8741 C   0  0  0  0  0  0
  -29.8915  -16.9784   20.2542 C   0  0  0  0  0  0
  -29.4278  -16.1092   17.8571 C   0  0  0  0  0  0
  -30.4575  -20.6859   21.4315 C   0  0  0  0  0  0
  -28.9910  -24.2414   21.0583 C   0  0  0  0  0  0
  -29.1329  -22.7408   20.6070 C   0  0  0  0  0  0
  -28.3340  -25.1627   19.9767 C   0  0  0  0  0  0
  -29.8687  -15.6393   20.8093 N   0  0  0  0  0  0
  -29.4418  -21.7565   21.6942 N   0  3  0  0  0  0
  -31.4785  -12.4491   19.1540 H   0  0  0  0  0  0
  -30.3607  -11.3507   19.9052 H   0  0  0  0  0  0
  -29.7470  -11.6706   17.5082 H   0  0  0  0  0  0
  -29.6866  -13.3909   17.7058 H   0  0  0  0  0  0
  -27.8130  -11.3026   18.8283 H   0  0  0  0  0  0
  -27.3858  -12.6394   17.7913 H   0  0  0  0  0  0
  -27.6698  -14.2458   19.5792 H   0  0  0  0  0  0
  -28.6974  -12.0213   21.3813 H   0  0  0  0  0  0
  -28.4688  -13.6783   21.8557 H   0  0  0  0  0  0
  -25.2715   -9.5704   22.4788 H   0  0  0  0  0  0
  -23.9995   -7.4620   22.7463 H   0  0  0  0  0  0
  -21.0842   -8.8770   19.8935 H   0  0  0  0  0  0
  -22.3692  -10.9671   19.6164 H   0  0  0  0  0  0
  -21.1980   -7.6128   23.9723 H   0  0  0  0  0  0
  -21.1502   -6.0495   25.9081 H   0  0  0  0  0  0
  -22.0597   -2.7605   23.2825 H   0  0  0  0  0  0
  -22.3912  -11.9913   22.4854 H   0  0  0  0  0  0
  -21.1005  -13.1344   22.2492 H   0  0  0  0  0  0
  -24.6855  -15.8556   20.5540 H   0  0  0  0  0  0
  -26.2922  -15.6173   20.0950 H   0  0  0  0  0  0
  -26.7146  -32.5482   23.1172 H   0  0  0  0  0  0
  -25.0090  -33.9758   25.0487 H   0  0  0  0  0  0
  -22.7010  -31.3079   21.4061 H   0  0  0  0  0  0
  -23.3740  -35.9609   23.3320 H   0  0  0  0  0  0
  -24.3566  -36.8895   22.2056 H   0  0  0  0  0  0
  -23.7217  -37.6495   23.6659 H   0  0  0  0  0  0
  -26.0903  -31.5817   20.6233 H   0  0  0  0  0  0
  -26.8220  -30.8443   22.0200 H   0  0  0  0  0  0
  -28.0888  -29.0308   21.2300 H   0  0  0  0  0  0
  -26.0170  -26.0043   18.9299 H   0  0  0  0  0  0
  -23.9964  -27.3272   18.9789 H   0  0  0  0  0  0
  -23.7463  -30.6075   19.4048 H   0  0  0  0  0  0
  -22.7492  -29.2559   19.8522 H   0  0  0  0  0  0
  -25.1276  -36.1945   25.0838 H   0  0  0  0  0  0
  -20.9948  -28.3239   24.1407 H   0  0  0  0  0  0
  -20.5616  -26.2279   23.3603 H   0  0  0  0  0  0
  -21.6635  -26.7404   22.1234 H   0  0  0  0  0  0
  -19.6898  -25.6274   21.1239 H   0  0  0  0  0  0
  -19.6682  -27.3164   20.6704 H   0  0  0  0  0  0
  -17.4181  -26.6647   21.4007 H   0  0  0  0  0  0
  -18.0321  -26.0057   22.9001 H   0  0  0  0  0  0
  -19.7947  -30.7221   24.2289 H   0  0  0  0  0  0
  -17.5038  -31.6269   24.5128 H   0  0  0  0  0  0
  -15.5355  -30.2978   23.7669 H   0  0  0  0  0  0
  -15.8663  -28.0806   22.7101 H   0  0  0  0  0  0
  -24.5863  -30.7141   25.7891 H   0  0  0  0  0  0
  -24.8997  -32.2916   26.5036 H   0  0  0  0  0  0
  -25.8096  -30.8877   27.0265 H   0  0  0  0  0  0
  -26.2948  -29.6808   24.1213 H   0  0  0  0  0  0
  -27.3973  -29.7286   25.4770 H   0  0  0  0  0  0
  -27.8837  -30.4343   23.9542 H   0  0  0  0  0  0
  -27.2579  -33.3648   26.2160 H   0  0  0  0  0  0
  -28.3813  -32.6993   25.0402 H   0  0  0  0  0  0
  -28.0700  -31.8517   26.5475 H   0  0  0  0  0  0
  -28.2577  -38.0110   24.7507 H   0  0  0  0  0  0
  -28.1051  -36.2643   24.6266 H   0  0  0  0  0  0
  -27.2288  -37.1455   25.8866 H   0  0  0  0  0  0
  -20.9302  -29.8795   21.6947 H   0  0  0  0  0  0
  -26.0144  -38.2866   24.1412 H   0  0  0  0  0  0
  -29.7247  -20.6366   18.8030 H   0  0  0  0  0  0
  -29.3380  -18.7240   17.3432 H   0  0  0  0  0  0
  -30.2942  -17.9596   22.1499 H   0  0  0  0  0  0
  -29.1613  -16.5094   16.8784 H   0  0  0  0  0  0
  -28.6261  -15.4370   18.1434 H   0  0  0  0  0  0
  -30.3505  -15.5438   17.7311 H   0  0  0  0  0  0
  -31.3277  -21.1412   20.9572 H   0  0  0  0  0  0
  -30.8184  -20.3288   22.3962 H   0  0  0  0  0  0
  -29.9759  -24.6289   21.3234 H   0  0  0  0  0  0
  -28.3884  -24.2989   21.9662 H   0  0  0  0  0  0
  -29.8968  -22.6921   19.8324 H   0  0  0  0  0  0
  -28.2053  -22.4106   20.1382 H   0  0  0  0  0  0
  -27.3221  -24.7789   19.8846 H   0  0  0  0  0  0
  -28.8157  -24.9876   19.0143 H   0  0  0  0  0  0
  -29.0057  -15.3790   21.2602 H   0  0  0  0  0  0
  -29.8068  -22.2853   22.4695 H   0  0  0  0  0  0
  -28.5917  -21.3264   22.0181 H   0  0  0  0  0  0
  1 25  1  0  0  0
  1 30  2  0  0  0
  1 82  1  0  0  0
  2  3  1  0  0  0
  2 25  1  0  0  0
  2 84  1  0  0  0
  2 85  1  0  0  0
  3  4  1  0  0  0
  3 86  1  0  0  0
  3 87  1  0  0  0
  4  5  1  0  0  0
  4 88  1  0  0  0
  4 89  1  0  0  0
  5  6  1  0  0  0
  5 26  1  0  0  0
  5 90  1  0  0  0
  6 25  1  0  0  0
  6 91  1  0  0  0
  6 92  1  0  0  0
  7  8  2  0  0  0
  7 26  1  0  0  0
  7 29  1  0  0  0
  8  9  1  0  0  0
  8 22  1  0  0  0
  9 10  1  0  0  0
  9 27  2  0  0  0
 10 11  2  0  0  0
 10 15  1  0  0  0
 11 12  1  0  0  0
 11 93  1  0  0  0
 12 13  2  0  0  0
 12 94  1  0  0  0
 13 14  1  0  0  0
 13 31  1  0  0  0
 14 15  2  0  0  0
 14 95  1  0  0  0
 15 96  1  0  0  0
 16 17  2  0  0  0
 16 21  1  0  0  0
 16 31  1  0  0  0
 17 18  1  0  0  0
 17 97  1  0  0  0
 18 19  2  0  0  0
 18 98  1  0  0  0
 19 20  1  0  0  0
 19 24  1  0  0  0
 20 21  2  0  0  0
 20 99  1  0  0  0
 21 23  1  0  0  0
 22 28  1  0  0  0
 22 32  2  0  0  0
 26 27  1  0  0  0
 28100  1  0  0  0
 28101  1  0  0  0
 29102  1  0  0  0
 29103  1  0  0  0
 33 34  1  0  0  0
 33 66  1  0  0  0
 33 70  2  0  0  0
 34 36  1  0  0  0
 34 59  1  0  0  0
 34104  1  0  0  0
 35 44  2  0  0  0
 35 45  1  0  0  0
 35 68  1  0  0  0
 36 56  1  0  0  0
 36105  1  0  0  0
 37 39  1  0  0  0
 37 47  1  0  0  0
 37 66  1  0  0  0
 37106  1  0  0  0
 38 43  2  0  0  0
 38 46  1  0  0  0
 38 47  1  0  0  0
 39 64  1  0  0  0
 39 67  2  0  0  0
 40 52  1  0  0  0
 40 53  2  0  0  0
 40 58  1  0  0  0
 41107  1  0  0  0
 41108  1  0  0  0
 41109  1  0  0  0
 41 48  1  0  0  0
 42 43  1  0  0  0
 42 66  1  0  0  0
 42110  1  0  0  0
 42111  1  0  0  0
 43 44  1  0  0  0
 44112  1  0  0  0
 45 46  2  0  0  0
 45113  1  0  0  0
 46114  1  0  0  0
 47115  1  0  0  0
 47116  1  0  0  0
 48 56  1  0  0  0
 48 65  1  0  0  0
 48117  1  0  0  0
 49 50  1  0  0  0
 49 53  1  0  0  0
 49 64  1  0  0  0
 49118  1  0  0  0
 50 51  1  0  0  0
 50119  1  0  0  0
 50120  1  0  0  0
 51 52  1  0  0  0
 51121  1  0  0  0
 51122  1  0  0  0
 52123  1  0  0  0
 52124  1  0  0  0
 53 54  1  0  0  0
 54 55  2  0  0  0
 54125  1  0  0  0
 55 57  1  0  0  0
 55126  1  0  0  0
 56 69  2  0  0  0
 57 58  2  0  0  0
 57127  1  0  0  0
 58128  1  0  0  0
 59 60  1  0  0  0
 59 61  1  0  0  0
 59 62  1  0  0  0
 60129  1  0  0  0
 60130  1  0  0  0
 60131  1  0  0  0
 61132  1  0  0  0
 61133  1  0  0  0
 61134  1  0  0  0
 62135  1  0  0  0
 62136  1  0  0  0
 62137  1  0  0  0
 63 65  1  0  0  0
 63138  1  0  0  0
 63139  1  0  0  0
 63140  1  0  0  0
 64141  1  0  0  0
 65142  1  0  0  0
 68 81  1  0  0  0
 71 72  2  0  0  0
 71 74  1  0  0  0
 71143  1  0  0  0
 72 75  1  0  0  0
 72144  1  0  0  0
 73 74  2  0  0  0
 73 76  1  0  0  0
 73145  1  0  0  0
 74 78  1  0  0  0
 75 76  2  0  0  0
 75 77  1  0  0  0
 76 82  1  0  0  0
 77146  1  0  0  0
 77147  1  0  0  0
 77148  1  0  0  0
 78 83  1  0  0  0
 78149  1  0  0  0
 78150  1  0  0  0
 79 80  1  0  0  0
 79 81  1  0  0  0
 79151  1  0  0  0
 79152  1  0  0  0
 80 83  1  0  0  0
 80153  1  0  0  0
 80154  1  0  0  0
 81155  1  0  0  0
 81156  1  0  0  0
 82157  1  0  0  0
 83158  1  0  0  0
 83159  1  0  0  0
M  CHG  1  83   1
M  ISO  4   1 100  68 101  81 101  82 100
M  END
> <chiral flag>
0

> <version>
0

> <s_m_source_file>
/data/baiqing/PycharmProjects/Reinvent-master-3.2/result/LINK_invent/BTK/process_docking_weight1_custom_product_contain_oxygen_bond_distance_aromatic_linkinvent_7_9_3/rearranged_h_0041.sdf

> <i_m_source_file_index>
27

> <r_mmod_Potential_Energy-OPLS-2005>
-195.242248535156

> <r_mmod_Stretch_Energy-OPLS-2005>
54.0150680541992

> <r_mmod_Bend_Energy-OPLS-2005>
122.050567626953

> <r_mmod_Torsional_Energy-OPLS-2005>
249.226974487305

> <r_mmod_Improper_Torsional_Energy-OPLS-2005>
5.53120994567871

> <r_mmod_Van_der_Waal_Energy-OPLS-2005>
147.071975708008

> <r_mmod_Electrostatic_Energy-OPLS-2005>
-320.497589111328

> <r_mmod_Solvation_Energy-OPLS-2005>
-485.327697753906

> <b_mmod_Minimization_Converged-OPLS-2005>
0

> <r_mmod_RMS_Derivative-OPLS-2005>
2.98291420936584

$$$$
27
                    3D
 Structure written by MMmdl.
168177  0  0  1  0            999 V2000
  -30.6121  -14.6429   20.5384 C   0  0  0  0  0  0
  -30.4457  -12.4089   19.4462 C   0  0  0  0  0  0
  -29.5143  -12.5267   18.2205 C   0  0  0  0  0  0
  -28.0365  -12.3520   18.6262 C   0  0  0  0  0  0
  -27.6524  -13.2139   19.8589 C   0  0  2  0  0  0
  -28.6947  -13.0521   20.9883 C   0  0  0  0  0  0
  -25.2544  -13.8144   20.5637 C   0  0  0  0  0  0
  -24.1831  -13.0404   20.9186 C   0  0  0  0  0  0
  -24.6398  -11.6880   20.8704 C   0  0  0  0  0  0
  -23.9042  -10.4276   21.0367 C   0  0  0  0  0  0
  -24.3606   -9.4204   21.9163 C   0  0  0  0  0  0
  -23.6288   -8.2231   22.0743 C   0  0  0  0  0  0
  -22.4270   -8.0256   21.3538 C   0  0  0  0  0  0
  -21.9880   -9.0217   20.4628 C   0  0  0  0  0  0
  -22.7203  -10.2104   20.3026 C   0  0  0  0  0  0
  -21.6851   -6.0699   22.5276 C   0  0  0  0  0  0
  -21.4013   -6.5612   23.8207 C   0  0  0  0  0  0
  -21.3673   -5.6773   24.9175 C   0  0  0  0  0  0
  -21.6062   -4.3037   24.7229 C   0  0  0  0  0  0
  -21.8820   -3.8116   23.4355 C   0  0  0  0  0  0
  -21.9204   -4.6935   22.3411 C   0  0  0  0  0  0
  -22.7850  -13.5197   21.1868 C   0  0  0  0  0  0
  -22.1652   -4.2116   21.0982 F   0  0  0  0  0  0
  -21.5666   -3.4530   25.7744 F   0  0  0  0  0  0
  -30.0131  -13.4116   20.4401 N   0  0  0  0  0  0
  -26.2969  -12.9323   20.3246 N   0  0  0  0  0  0
  -25.9313  -11.6482   20.5674 N   0  0  0  0  0  0
  -22.0490  -12.8177   22.0436 N   0  0  0  0  0  0
  -25.4226  -15.1864   20.3993 N   0  0  0  0  0  0
  -31.7537  -14.8277   20.1124 O   0  0  0  0  0  0
  -21.6643   -6.8838   21.4226 O   0  0  0  0  0  0
  -22.3522  -14.5481   20.6697 O   0  0  0  0  0  0
  -24.6253  -31.8557   23.2014 C   0  0  0  0  0  0
  -25.9098  -32.4748   23.8352 C   0  0  1  0  0  0
  -27.2285  -27.3206   20.1118 C   0  0  0  0  0  0
  -25.5906  -33.8537   24.2279 N   0  0  0  0  0  0
  -23.4174  -30.4749   21.5487 C   0  0  2  0  0  0
  -24.8557  -28.9192   20.1208 C   0  0  0  0  0  0
  -22.7484  -29.4551   22.5012 C   0  0  0  0  0  0
  -18.0281  -28.1357   22.8493 C   0  0  0  0  0  0
  -24.1491  -36.7295   23.2639 C   0  0  0  0  0  0
  -25.9539  -30.7920   21.3591 C   0  0  0  0  0  0
  -26.0263  -29.4164   20.7046 C   0  0  0  0  0  0
  -27.2110  -28.6307   20.6821 C   0  0  0  0  0  0
  -26.0195  -26.8455   19.5604 C   0  0  0  0  0  0
  -24.8521  -27.6375   19.5456 C   0  0  0  0  0  0
  -23.6263  -29.8026   20.1672 C   0  0  0  0  0  0
  -25.4106  -36.3053   24.0337 C   0  0  1  0  0  0
  -20.5875  -28.3620   23.1345 C   0  0  2  0  0  0
  -20.6768  -26.9360   22.5422 C   0  0  0  0  0  0
  -19.5733  -26.6364   21.5229 C   0  0  0  0  0  0
  -18.1920  -26.7902   22.1640 C   0  0  0  0  0  0
  -19.1529  -28.8828   23.2894 C   0  0  0  0  0  0
  -18.9431  -30.1458   23.8865 C   0  0  0  0  0  0
  -17.6418  -30.6557   24.0558 C   0  0  0  0  0  0
  -25.9031  -34.9426   23.5111 C   0  0  0  0  0  0
  -16.5322  -29.9039   23.6329 C   0  0  0  0  0  0
  -16.7265  -28.6473   23.0327 C   0  0  0  0  0  0
  -26.4481  -31.6531   25.0710 C   0  0  0  0  0  0
  -25.3742  -31.3659   26.1468 C   0  0  0  0  0  0
  -27.0315  -30.2968   24.6105 C   0  0  0  0  0  0
  -27.6037  -32.4255   25.7480 C   0  0  0  0  0  0
  -27.5574  -37.1802   24.8467 C   0  0  0  0  0  0
  -21.4200  -29.2970   22.3761 N   0  0  0  0  0  0
  -26.4278  -37.3754   23.9421 N   0  0  0  0  0  0
  -24.6861  -31.0587   22.0940 N   0  0  0  0  0  0
  -23.4226  -28.8124   23.3096 O   0  0  0  0  0  0
  -28.4132  -26.5739   20.1359 O   0  0  0  0  0  0
  -26.5613  -34.8895   22.4686 O   0  0  0  0  0  0
  -23.5425  -32.1329   23.7376 O   0  0  0  0  0  0
  -28.4074  -19.1744   20.7154 C   0  0  0  0  0  0
  -28.5725  -17.7600   20.6774 C   0  0  0  0  0  0
  -30.7308  -19.4085   21.2547 C   0  0  0  0  0  0
  -29.4823  -20.0502   21.0019 C   0  0  0  0  0  0
  -30.9042  -17.9851   21.2331 C   0  0  0  0  0  0
  -29.8147  -17.1135   20.9274 C   0  0  0  0  0  0
  -29.6125  -22.7130   18.9024 C   0  0  0  0  0  0
  -33.2640  -21.9936   19.1329 C   0  0  0  0  0  0
  -30.9308  -22.5416   18.6486 C   0  0  0  0  0  0
  -31.9992  -22.1584   19.5484 C   0  0  0  0  0  0
  -28.6500  -23.3279   17.8901 C   0  0  0  0  0  0
  -28.3383  -24.8095   18.2286 C   0  0  0  0  0  0
  -28.3531  -23.9464   20.6979 C   0  0  0  0  0  0
  -28.6210  -25.1664   19.7149 C   0  0  1  0  0  0
  -32.2567  -17.4296   21.6377 C   0  0  0  0  0  0
  -29.2572  -21.5914   21.2753 C   0  0  0  0  0  0
  -29.8022  -15.6478   21.0070 N   0  0  0  0  0  0
  -28.8434  -22.5831   20.1935 N   0  3  2  0  0  0
  -31.4846  -12.5536   19.1419 H   0  0  0  0  0  0
  -30.3942  -11.4077   19.8748 H   0  0  0  0  0  0
  -29.7855  -11.7860   17.4660 H   0  0  0  0  0  0
  -29.6599  -13.5013   17.7515 H   0  0  0  0  0  0
  -27.8754  -11.2955   18.8465 H   0  0  0  0  0  0
  -27.3874  -12.5867   17.7800 H   0  0  0  0  0  0
  -27.6675  -14.2519   19.5283 H   0  0  0  0  0  0
  -28.7142  -12.0171   21.3307 H   0  0  0  0  0  0
  -28.4260  -13.6480   21.8627 H   0  0  0  0  0  0
  -25.2750   -9.5699   22.4728 H   0  0  0  0  0  0
  -24.0019   -7.4612   22.7448 H   0  0  0  0  0  0
  -21.0819   -8.8681   19.8930 H   0  0  0  0  0  0
  -22.3622  -10.9620   19.6121 H   0  0  0  0  0  0
  -21.1958   -7.6108   23.9683 H   0  0  0  0  0  0
  -21.1520   -6.0511   25.9077 H   0  0  0  0  0  0
  -22.0594   -2.7570   23.2865 H   0  0  0  0  0  0
  -22.4070  -11.9850   22.4874 H   0  0  0  0  0  0
  -21.1079  -13.1175   22.2557 H   0  0  0  0  0  0
  -24.6447  -15.8315   20.4842 H   0  0  0  0  0  0
  -26.2433  -15.6131   19.9910 H   0  0  0  0  0  0
  -26.7167  -32.5421   23.1100 H   0  0  0  0  0  0
  -25.0079  -33.9688   25.0442 H   0  0  0  0  0  0
  -22.7061  -31.2912   21.4062 H   0  0  0  0  0  0
  -23.3725  -35.9649   23.3271 H   0  0  0  0  0  0
  -24.3604  -36.8942   22.2061 H   0  0  0  0  0  0
  -23.7265  -37.6503   23.6671 H   0  0  0  0  0  0
  -26.0689  -31.5513   20.5848 H   0  0  0  0  0  0
  -26.8421  -30.8516   21.9775 H   0  0  0  0  0  0
  -28.1181  -29.0219   21.1220 H   0  0  0  0  0  0
  -25.9338  -25.8452   19.1737 H   0  0  0  0  0  0
  -23.9415  -27.2322   19.1241 H   0  0  0  0  0  0
  -23.7539  -30.5756   19.4086 H   0  0  0  0  0  0
  -22.7436  -29.2347   19.8690 H   0  0  0  0  0  0
  -25.1276  -36.1895   25.0824 H   0  0  0  0  0  0
  -20.9942  -28.3151   24.1477 H   0  0  0  0  0  0
  -20.5713  -26.2211   23.3598 H   0  0  0  0  0  0
  -21.6630  -26.7434   22.1176 H   0  0  0  0  0  0
  -19.6895  -25.6286   21.1236 H   0  0  0  0  0  0
  -19.6677  -27.3206   20.6791 H   0  0  0  0  0  0
  -17.4209  -26.6682   21.4021 H   0  0  0  0  0  0
  -18.0284  -26.0030   22.9015 H   0  0  0  0  0  0
  -19.7900  -30.7316   24.2178 H   0  0  0  0  0  0
  -17.4951  -31.6229   24.5154 H   0  0  0  0  0  0
  -15.5316  -30.2909   23.7658 H   0  0  0  0  0  0
  -15.8681  -28.0803   22.6992 H   0  0  0  0  0  0
  -24.5934  -30.6948   25.7867 H   0  0  0  0  0  0
  -24.8905  -32.2808   26.4886 H   0  0  0  0  0  0
  -25.8116  -30.8896   27.0248 H   0  0  0  0  0  0
  -26.2877  -29.6717   24.1143 H   0  0  0  0  0  0
  -27.4067  -29.7201   25.4566 H   0  0  0  0  0  0
  -27.8704  -30.4288   23.9273 H   0  0  0  0  0  0
  -27.2642  -33.3557   26.2045 H   0  0  0  0  0  0
  -28.3854  -32.6796   25.0309 H   0  0  0  0  0  0
  -28.0670  -31.8372   26.5408 H   0  0  0  0  0  0
  -28.2572  -38.0116   24.7500 H   0  0  0  0  0  0
  -28.1091  -36.2645   24.6282 H   0  0  0  0  0  0
  -27.2311  -37.1437   25.8878 H   0  0  0  0  0  0
  -20.9384  -29.8658   21.6944 H   0  0  0  0  0  0
  -26.0145  -38.2823   24.1408 H   0  0  0  0  0  0
  -27.4135  -19.5807   20.5785 H   0  0  0  0  0  0
  -27.6960  -17.1557   20.4954 H   0  0  0  0  0  0
  -31.5752  -20.0168   21.5457 H   0  0  0  0  0  0
  -34.0309  -21.7170   19.8405 H   0  0  0  0  0  0
  -33.5665  -22.1312   18.1012 H   0  0  0  0  0  0
  -31.2441  -22.7916   17.6455 H   0  0  0  0  0  0
  -31.8191  -22.0103   20.5964 H   0  0  0  0  0  0
  -27.7277  -22.7449   17.8805 H   0  0  0  0  0  0
  -29.0477  -23.2526   16.8770 H   0  0  0  0  0  0
  -27.3203  -25.0128   17.9144 H   0  0  0  0  0  0
  -28.9622  -25.4503   17.6052 H   0  0  0  0  0  0
  -27.2846  -23.8706   20.9037 H   0  0  0  0  0  0
  -28.8310  -24.1731   21.6511 H   0  0  0  0  0  0
  -29.7120  -25.1924   19.7286 H   0  0  0  0  0  0
  -32.8464  -18.1665   22.1825 H   0  0  0  0  0  0
  -32.8239  -17.1304   20.7562 H   0  0  0  0  0  0
  -32.1343  -16.5676   22.2934 H   0  0  0  0  0  0
  -30.1091  -22.0022   21.8132 H   0  0  0  0  0  0
  -28.4516  -21.6107   22.0101 H   0  0  0  0  0  0
  -28.9013  -15.2746   21.2618 H   0  0  0  0  0  0
  -27.9769  -22.1584   19.8991 H   0  0  0  0  0  0
  1 25  1  0  0  0
  1 30  2  0  0  0
  1 87  1  0  0  0
  2  3  1  0  0  0
  2 25  1  0  0  0
  2 89  1  0  0  0
  2 90  1  0  0  0
  3  4  1  0  0  0
  3 91  1  0  0  0
  3 92  1  0  0  0
  4  5  1  0  0  0
  4 93  1  0  0  0
  4 94  1  0  0  0
  5  6  1  0  0  0
  5 26  1  0  0  0
  5 95  1  0  0  0
  6 25  1  0  0  0
  6 96  1  0  0  0
  6 97  1  0  0  0
  7  8  2  0  0  0
  7 26  1  0  0  0
  7 29  1  0  0  0
  8  9  1  0  0  0
  8 22  1  0  0  0
  9 10  1  0  0  0
  9 27  2  0  0  0
 10 11  2  0  0  0
 10 15  1  0  0  0
 11 12  1  0  0  0
 11 98  1  0  0  0
 12 13  2  0  0  0
 12 99  1  0  0  0
 13 14  1  0  0  0
 13 31  1  0  0  0
 14 15  2  0  0  0
 14100  1  0  0  0
 15101  1  0  0  0
 16 17  2  0  0  0
 16 21  1  0  0  0
 16 31  1  0  0  0
 17 18  1  0  0  0
 17102  1  0  0  0
 18 19  2  0  0  0
 18103  1  0  0  0
 19 20  1  0  0  0
 19 24  1  0  0  0
 20 21  2  0  0  0
 20104  1  0  0  0
 21 23  1  0  0  0
 22 28  1  0  0  0
 22 32  2  0  0  0
 26 27  1  0  0  0
 28105  1  0  0  0
 28106  1  0  0  0
 29107  1  0  0  0
 29108  1  0  0  0
 33 34  1  0  0  0
 33 66  1  0  0  0
 33 70  2  0  0  0
 34 36  1  0  0  0
 34 59  1  0  0  0
 34109  1  0  0  0
 35 44  2  0  0  0
 35 45  1  0  0  0
 35 68  1  0  0  0
 36 56  1  0  0  0
 36110  1  0  0  0
 37 39  1  0  0  0
 37 47  1  0  0  0
 37 66  1  0  0  0
 37111  1  0  0  0
 38 43  2  0  0  0
 38 46  1  0  0  0
 38 47  1  0  0  0
 39 64  1  0  0  0
 39 67  2  0  0  0
 40 52  1  0  0  0
 40 53  2  0  0  0
 40 58  1  0  0  0
 41112  1  0  0  0
 41113  1  0  0  0
 41114  1  0  0  0
 41 48  1  0  0  0
 42 43  1  0  0  0
 42 66  1  0  0  0
 42115  1  0  0  0
 42116  1  0  0  0
 43 44  1  0  0  0
 44117  1  0  0  0
 45 46  2  0  0  0
 45118  1  0  0  0
 46119  1  0  0  0
 47120  1  0  0  0
 47121  1  0  0  0
 48 56  1  0  0  0
 48 65  1  0  0  0
 48122  1  0  0  0
 49 50  1  0  0  0
 49 53  1  0  0  0
 49 64  1  0  0  0
 49123  1  0  0  0
 50 51  1  0  0  0
 50124  1  0  0  0
 50125  1  0  0  0
 51 52  1  0  0  0
 51126  1  0  0  0
 51127  1  0  0  0
 52128  1  0  0  0
 52129  1  0  0  0
 53 54  1  0  0  0
 54 55  2  0  0  0
 54130  1  0  0  0
 55 57  1  0  0  0
 55131  1  0  0  0
 56 69  2  0  0  0
 57 58  2  0  0  0
 57132  1  0  0  0
 58133  1  0  0  0
 59 60  1  0  0  0
 59 61  1  0  0  0
 59 62  1  0  0  0
 60134  1  0  0  0
 60135  1  0  0  0
 60136  1  0  0  0
 61137  1  0  0  0
 61138  1  0  0  0
 61139  1  0  0  0
 62140  1  0  0  0
 62141  1  0  0  0
 62142  1  0  0  0
 63 65  1  0  0  0
 63143  1  0  0  0
 63144  1  0  0  0
 63145  1  0  0  0
 64146  1  0  0  0
 65147  1  0  0  0
 68 84  1  0  0  0
 71 72  2  0  0  0
 71 74  1  0  0  0
 71148  1  0  0  0
 72 76  1  0  0  0
 72149  1  0  0  0
 73 74  2  0  0  0
 73 75  1  0  0  0
 73150  1  0  0  0
 74 86  1  0  0  0
 75 76  2  0  0  0
 75 85  1  0  0  0
 76 87  1  0  0  0
 77 79  2  0  0  0
 77 81  1  0  0  0
 77 88  1  0  0  0
 78 80  2  0  0  0
 78151  1  0  0  0
 78152  1  0  0  0
 79 80  1  0  0  0
 79153  1  0  0  0
 80154  1  0  0  0
 81 82  1  0  0  0
 81155  1  0  0  0
 81156  1  0  0  0
 82 84  1  0  0  0
 82157  1  0  0  0
 82158  1  0  0  0
 83 84  1  0  0  0
 83 88  1  0  0  0
 83159  1  0  0  0
 83160  1  0  0  0
 84161  1  0  0  0
 85162  1  0  0  0
 85163  1  0  0  0
 85164  1  0  0  0
 86165  1  0  0  0
 86166  1  0  0  0
 86 88  1  0  0  0
 87167  1  0  0  0
 88168  1  0  0  0
M  CHG  1  88   1
M  ISO  4   1 100  68 101  84 101  87 100
M  END
> <chiral flag>
0

> <version>
0

> <s_m_source_file>
/data/baiqing/PycharmProjects/Reinvent-master-3.2/result/LINK_invent/BTK/process_docking_weight1_custom_product_contain_oxygen_bond_distance_aromatic_linkinvent_7_9_3/rearranged_h_0041.sdf

> <i_m_source_file_index>
28

> <r_mmod_Potential_Energy-OPLS-2005>
54.2282943725586

> <r_mmod_Stretch_Energy-OPLS-2005>
86.54638671875

> <r_mmod_Bend_Energy-OPLS-2005>
231.244125366211

> <r_mmod_Torsional_Energy-OPLS-2005>
241.596817016602

> <r_mmod_Improper_Torsional_Energy-OPLS-2005>
6.9587516784668

> <r_mmod_Van_der_Waal_Energy-OPLS-2005>
145.471801757812

> <r_mmod_Electrostatic_Energy-OPLS-2005>
-277.844360351562

> <r_mmod_Solvation_Energy-OPLS-2005>
-424.099151611328

> <b_mmod_Minimization_Converged-OPLS-2005>
0

> <r_mmod_RMS_Derivative-OPLS-2005>
3.99253702163696

$$$$
28
                    3D
 Structure written by MMmdl.
162170  0  0  1  0            999 V2000
  -30.6074  -14.7357   20.4201 C   0  0  0  0  0  0
  -30.4339  -12.4381   19.4767 C   0  0  0  0  0  0
  -29.5089  -12.4707   18.2388 C   0  0  0  0  0  0
  -28.0335  -12.3179   18.6533 C   0  0  0  0  0  0
  -27.6420  -13.2293   19.8473 C   0  0  2  0  0  0
  -28.6867  -13.1673   20.9827 C   0  0  0  0  0  0
  -25.2515  -13.8201   20.5702 C   0  0  0  0  0  0
  -24.1805  -13.0448   20.9223 C   0  0  0  0  0  0
  -24.6392  -11.6924   20.8759 C   0  0  0  0  0  0
  -23.9069  -10.4297   21.0408 C   0  0  0  0  0  0
  -24.3620   -9.4210   21.9183 C   0  0  0  0  0  0
  -23.6304   -8.2241   22.0748 C   0  0  0  0  0  0
  -22.4287   -8.0279   21.3538 C   0  0  0  0  0  0
  -21.9918   -9.0255   20.4644 C   0  0  0  0  0  0
  -22.7240  -10.2140   20.3057 C   0  0  0  0  0  0
  -21.6854   -6.0744   22.5278 C   0  0  0  0  0  0
  -21.4015   -6.5644   23.8214 C   0  0  0  0  0  0
  -21.3662   -5.6792   24.9174 C   0  0  0  0  0  0
  -21.6048   -4.3057   24.7218 C   0  0  0  0  0  0
  -21.8814   -3.8153   23.4336 C   0  0  0  0  0  0
  -21.9189   -4.6972   22.3396 C   0  0  0  0  0  0
  -22.7821  -13.5228   21.1870 C   0  0  0  0  0  0
  -22.1656   -4.2161   21.0973 F   0  0  0  0  0  0
  -21.5631   -3.4535   25.7728 F   0  0  0  0  0  0
  -29.9887  -13.5078   20.3984 N   0  0  0  0  0  0
  -26.2939  -12.9405   20.3281 N   0  0  0  0  0  0
  -25.9320  -11.6553   20.5772 N   0  0  0  0  0  0
  -22.0460  -12.8226   22.0426 N   0  0  0  0  0  0
  -25.4217  -15.1924   20.4107 N   0  0  0  0  0  0
  -31.8143  -14.8096   20.1761 O   0  0  0  0  0  0
  -21.6642   -6.8885   21.4241 O   0  0  0  0  0  0
  -22.3502  -14.5528   20.6706 O   0  0  0  0  0  0
  -24.6291  -31.8543   23.1958 C   0  0  0  0  0  0
  -25.9125  -32.4742   23.8306 C   0  0  1  0  0  0
  -27.2275  -27.2764   20.1235 C   0  0  0  0  0  0
  -25.5924  -33.8546   24.2232 N   0  0  0  0  0  0
  -23.4241  -30.4743   21.5392 C   0  0  2  0  0  0
  -24.8687  -28.9156   20.1112 C   0  0  0  0  0  0
  -22.7484  -29.4591   22.4916 C   0  0  0  0  0  0
  -18.0286  -28.1383   22.8480 C   0  0  0  0  0  0
  -24.1490  -36.7281   23.2641 C   0  0  0  0  0  0
  -25.9660  -30.7742   21.3684 C   0  0  0  0  0  0
  -26.0380  -29.3964   20.7114 C   0  0  0  0  0  0
  -27.2149  -28.5887   20.7028 C   0  0  0  0  0  0
  -26.0238  -26.8379   19.5318 C   0  0  0  0  0  0
  -24.8652  -27.6433   19.5150 C   0  0  0  0  0  0
  -23.6395  -29.8018   20.1564 C   0  0  0  0  0  0
  -25.4118  -36.3057   24.0321 C   0  0  1  0  0  0
  -20.5885  -28.3687   23.1279 C   0  0  2  0  0  0
  -20.6772  -26.9406   22.5416 C   0  0  0  0  0  0
  -19.5754  -26.6377   21.5213 C   0  0  0  0  0  0
  -18.1931  -26.7924   22.1620 C   0  0  0  0  0  0
  -19.1538  -28.8853   23.2874 C   0  0  0  0  0  0
  -18.9462  -30.1453   23.8892 C   0  0  0  0  0  0
  -17.6462  -30.6583   24.0565 C   0  0  0  0  0  0
  -25.9054  -34.9432   23.5081 C   0  0  0  0  0  0
  -16.5353  -29.9083   23.6326 C   0  0  0  0  0  0
  -16.7273  -28.6503   23.0345 C   0  0  0  0  0  0
  -26.4497  -31.6576   25.0700 C   0  0  0  0  0  0
  -25.3727  -31.3739   26.1426 C   0  0  0  0  0  0
  -27.0345  -30.2993   24.6191 C   0  0  0  0  0  0
  -27.6041  -32.4324   25.7488 C   0  0  0  0  0  0
  -27.5578  -37.1794   24.8463 C   0  0  0  0  0  0
  -21.4193  -29.3034   22.3667 N   0  0  0  0  0  0
  -26.4288  -37.3758   23.9406 N   0  0  0  0  0  0
  -24.6924  -31.0525   22.0915 N   0  0  0  0  0  0
  -23.4193  -28.8138   23.3014 O   0  0  0  0  0  0
  -28.3827  -26.4714   20.1926 O   0  0  0  0  0  0
  -26.5629  -34.8912   22.4649 O   0  0  0  0  0  0
  -23.5449  -32.1353   23.7268 O   0  0  0  0  0  0
  -30.0926  -19.8900   18.7531 C   0  0  0  0  0  0
  -30.6340  -18.7645   18.1134 C   0  0  0  0  0  0
  -29.3769  -18.4346   20.5621 C   0  0  0  0  0  0
  -29.4208  -19.7743   19.9850 C   0  0  0  0  0  0
  -30.5425  -17.4645   18.6555 C   0  0  0  0  0  0
  -29.9500  -17.2444   19.9388 C   0  0  0  0  0  0
  -31.0416  -16.3530   17.7463 C   0  0  0  0  0  0
  -28.9761  -26.2346   17.3224 C   0  0  0  0  0  0
  -28.7483  -21.0843   20.6073 C   0  0  0  0  0  0
  -28.3778  -25.0456   18.0920 C   0  0  0  0  0  0
  -28.2309  -23.7207   20.3742 C   0  0  0  0  0  0
  -28.6195  -25.1015   19.6202 C   0  0  2  0  0  0
  -29.8142  -15.8742   20.5207 N   0  0  0  0  0  0
  -28.9783  -22.4443   19.9274 N   0  3  0  0  0  0
  -31.4736  -12.5624   19.1689 H   0  0  0  0  0  0
  -30.3835  -11.4674   19.9713 H   0  0  0  0  0  0
  -29.7848  -11.6752   17.5449 H   0  0  0  0  0  0
  -29.6393  -13.4028   17.6918 H   0  0  0  0  0  0
  -27.8810  -11.2729   18.9253 H   0  0  0  0  0  0
  -27.3794  -12.5063   17.8015 H   0  0  0  0  0  0
  -27.6361  -14.2476   19.4590 H   0  0  0  0  0  0
  -28.7177  -12.1734   21.4315 H   0  0  0  0  0  0
  -28.4274  -13.8586   21.7860 H   0  0  0  0  0  0
  -25.2762   -9.5696   22.4760 H   0  0  0  0  0  0
  -24.0016   -7.4633   22.7464 H   0  0  0  0  0  0
  -21.0850   -8.8779   19.8952 H   0  0  0  0  0  0
  -22.3694  -10.9684   19.6173 H   0  0  0  0  0  0
  -21.2011   -7.6151   23.9726 H   0  0  0  0  0  0
  -21.1491   -6.0517   25.9082 H   0  0  0  0  0  0
  -22.0594   -2.7616   23.2825 H   0  0  0  0  0  0
  -22.4081  -11.9906   22.4841 H   0  0  0  0  0  0
  -21.1074  -13.1258   22.2619 H   0  0  0  0  0  0
  -24.6533  -15.8450   20.5215 H   0  0  0  0  0  0
  -26.2652  -15.6317   20.0640 H   0  0  0  0  0  0
  -26.7188  -32.5388   23.1043 H   0  0  0  0  0  0
  -25.0070  -33.9682   25.0378 H   0  0  0  0  0  0
  -22.7196  -31.2954   21.3911 H   0  0  0  0  0  0
  -23.3745  -35.9620   23.3296 H   0  0  0  0  0  0
  -24.3580  -36.8912   22.2057 H   0  0  0  0  0  0
  -23.7254  -37.6484   23.6674 H   0  0  0  0  0  0
  -26.1016  -31.5366   20.5996 H   0  0  0  0  0  0
  -26.8444  -30.8224   22.0006 H   0  0  0  0  0  0
  -28.1155  -28.9583   21.1735 H   0  0  0  0  0  0
  -25.9384  -25.8493   19.1145 H   0  0  0  0  0  0
  -23.9597  -27.2599   19.0646 H   0  0  0  0  0  0
  -23.7626  -30.5744   19.3965 H   0  0  0  0  0  0
  -22.7583  -29.2329   19.8547 H   0  0  0  0  0  0
  -25.1304  -36.1897   25.0813 H   0  0  0  0  0  0
  -20.9982  -28.3270   24.1401 H   0  0  0  0  0  0
  -20.5666  -26.2302   23.3622 H   0  0  0  0  0  0
  -21.6643  -26.7427   22.1218 H   0  0  0  0  0  0
  -19.6918  -25.6288   21.1247 H   0  0  0  0  0  0
  -19.6696  -27.3186   20.6741 H   0  0  0  0  0  0
  -17.4205  -26.6665   21.4020 H   0  0  0  0  0  0
  -18.0330  -26.0072   22.9021 H   0  0  0  0  0  0
  -19.7941  -30.7266   24.2261 H   0  0  0  0  0  0
  -17.5019  -31.6262   24.5172 H   0  0  0  0  0  0
  -15.5355  -30.2987   23.7651 H   0  0  0  0  0  0
  -15.8672  -28.0825   22.7054 H   0  0  0  0  0  0
  -24.5900  -30.7083   25.7770 H   0  0  0  0  0  0
  -24.8922  -32.2918   26.4828 H   0  0  0  0  0  0
  -25.8051  -30.8943   27.0216 H   0  0  0  0  0  0
  -26.2930  -29.6737   24.1208 H   0  0  0  0  0  0
  -27.4015  -29.7261   25.4716 H   0  0  0  0  0  0
  -27.8809  -30.4259   23.9435 H   0  0  0  0  0  0
  -27.2627  -33.3616   26.2063 H   0  0  0  0  0  0
  -28.3862  -32.6896   25.0334 H   0  0  0  0  0  0
  -28.0698  -31.8456   26.5415 H   0  0  0  0  0  0
  -28.2588  -38.0096   24.7498 H   0  0  0  0  0  0
  -28.1075  -36.2622   24.6293 H   0  0  0  0  0  0
  -27.2294  -37.1453   25.8865 H   0  0  0  0  0  0
  -20.9374  -29.8763   21.6880 H   0  0  0  0  0  0
  -26.0160  -38.2830   24.1401 H   0  0  0  0  0  0
  -30.1824  -20.8410   18.2493 H   0  0  0  0  0  0
  -31.1011  -18.9092   17.1484 H   0  0  0  0  0  0
  -28.8712  -18.3168   21.5107 H   0  0  0  0  0  0
  -32.0615  -16.0676   18.0008 H   0  0  0  0  0  0
  -31.0482  -16.6709   16.7034 H   0  0  0  0  0  0
  -30.3933  -15.4828   17.7905 H   0  0  0  0  0  0
  -28.8714  -26.0924   16.2466 H   0  0  0  0  0  0
  -30.0388  -26.3529   17.5368 H   0  0  0  0  0  0
  -28.4785  -27.1705   17.5764 H   0  0  0  0  0  0
  -29.0683  -21.1652   21.6466 H   0  0  0  0  0  0
  -27.6732  -20.9062   20.6397 H   0  0  0  0  0  0
  -28.8374  -24.1390   17.6997 H   0  0  0  0  0  0
  -27.3226  -24.9438   17.8517 H   0  0  0  0  0  0
  -27.1583  -23.5524   20.2779 H   0  0  0  0  0  0
  -28.4186  -23.8513   21.4402 H   0  0  0  0  0  0
  -29.7072  -25.0849   19.6988 H   0  0  0  0  0  0
  -28.9180  -15.6943   20.9477 H   0  0  0  0  0  0
  -28.7727  -22.3029   18.9521 H   0  0  0  0  0  0
  -29.9673  -22.6267   19.9993 H   0  0  0  0  0  0
  1 25  1  0  0  0
  1 30  2  0  0  0
  1 83  1  0  0  0
  2  3  1  0  0  0
  2 25  1  0  0  0
  2 85  1  0  0  0
  2 86  1  0  0  0
  3  4  1  0  0  0
  3 87  1  0  0  0
  3 88  1  0  0  0
  4  5  1  0  0  0
  4 89  1  0  0  0
  4 90  1  0  0  0
  5  6  1  0  0  0
  5 26  1  0  0  0
  5 91  1  0  0  0
  6 25  1  0  0  0
  6 92  1  0  0  0
  6 93  1  0  0  0
  7  8  2  0  0  0
  7 26  1  0  0  0
  7 29  1  0  0  0
  8  9  1  0  0  0
  8 22  1  0  0  0
  9 10  1  0  0  0
  9 27  2  0  0  0
 10 11  2  0  0  0
 10 15  1  0  0  0
 11 12  1  0  0  0
 11 94  1  0  0  0
 12 13  2  0  0  0
 12 95  1  0  0  0
 13 14  1  0  0  0
 13 31  1  0  0  0
 14 15  2  0  0  0
 14 96  1  0  0  0
 15 97  1  0  0  0
 16 17  2  0  0  0
 16 21  1  0  0  0
 16 31  1  0  0  0
 17 18  1  0  0  0
 17 98  1  0  0  0
 18 19  2  0  0  0
 18 99  1  0  0  0
 19 20  1  0  0  0
 19 24  1  0  0  0
 20 21  2  0  0  0
 20100  1  0  0  0
 21 23  1  0  0  0
 22 28  1  0  0  0
 22 32  2  0  0  0
 26 27  1  0  0  0
 28101  1  0  0  0
 28102  1  0  0  0
 29103  1  0  0  0
 29104  1  0  0  0
 33 34  1  0  0  0
 33 66  1  0  0  0
 33 70  2  0  0  0
 34 36  1  0  0  0
 34 59  1  0  0  0
 34105  1  0  0  0
 35 44  2  0  0  0
 35 45  1  0  0  0
 35 68  1  0  0  0
 36 56  1  0  0  0
 36106  1  0  0  0
 37 39  1  0  0  0
 37 47  1  0  0  0
 37 66  1  0  0  0
 37107  1  0  0  0
 38 43  2  0  0  0
 38 46  1  0  0  0
 38 47  1  0  0  0
 39 64  1  0  0  0
 39 67  2  0  0  0
 40 52  1  0  0  0
 40 53  2  0  0  0
 40 58  1  0  0  0
 41108  1  0  0  0
 41109  1  0  0  0
 41110  1  0  0  0
 41 48  1  0  0  0
 42 43  1  0  0  0
 42 66  1  0  0  0
 42111  1  0  0  0
 42112  1  0  0  0
 43 44  1  0  0  0
 44113  1  0  0  0
 45 46  2  0  0  0
 45114  1  0  0  0
 46115  1  0  0  0
 47116  1  0  0  0
 47117  1  0  0  0
 48 56  1  0  0  0
 48 65  1  0  0  0
 48118  1  0  0  0
 49 50  1  0  0  0
 49 53  1  0  0  0
 49 64  1  0  0  0
 49119  1  0  0  0
 50 51  1  0  0  0
 50120  1  0  0  0
 50121  1  0  0  0
 51 52  1  0  0  0
 51122  1  0  0  0
 51123  1  0  0  0
 52124  1  0  0  0
 52125  1  0  0  0
 53 54  1  0  0  0
 54 55  2  0  0  0
 54126  1  0  0  0
 55 57  1  0  0  0
 55127  1  0  0  0
 56 69  2  0  0  0
 57 58  2  0  0  0
 57128  1  0  0  0
 58129  1  0  0  0
 59 60  1  0  0  0
 59 61  1  0  0  0
 59 62  1  0  0  0
 60130  1  0  0  0
 60131  1  0  0  0
 60132  1  0  0  0
 61133  1  0  0  0
 61134  1  0  0  0
 61135  1  0  0  0
 62136  1  0  0  0
 62137  1  0  0  0
 62138  1  0  0  0
 63 65  1  0  0  0
 63139  1  0  0  0
 63140  1  0  0  0
 63141  1  0  0  0
 64142  1  0  0  0
 65143  1  0  0  0
 68 82  1  0  0  0
 71 72  2  0  0  0
 71 74  1  0  0  0
 71144  1  0  0  0
 72 75  1  0  0  0
 72145  1  0  0  0
 73 74  2  0  0  0
 73 76  1  0  0  0
 73146  1  0  0  0
 74 79  1  0  0  0
 75 76  2  0  0  0
 75 77  1  0  0  0
 76 83  1  0  0  0
 77147  1  0  0  0
 77148  1  0  0  0
 77149  1  0  0  0
 78 80  1  0  0  0
 78150  1  0  0  0
 78151  1  0  0  0
 78152  1  0  0  0
 79 84  1  0  0  0
 79153  1  0  0  0
 79154  1  0  0  0
 80155  1  0  0  0
 80156  1  0  0  0
 80 82  1  0  0  0
 81 82  1  0  0  0
 81 84  1  0  0  0
 81157  1  0  0  0
 81158  1  0  0  0
 82159  1  0  0  0
 83160  1  0  0  0
 84161  1  0  0  0
 84162  1  0  0  0
M  CHG  1  84   1
M  ISO  4   1 100  68 101  82 101  83 100
M  END
> <chiral flag>
0

> <version>
0

> <s_m_source_file>
/data/baiqing/PycharmProjects/Reinvent-master-3.2/result/LINK_invent/BTK/process_docking_weight1_custom_product_contain_oxygen_bond_distance_aromatic_linkinvent_7_9_3/rearranged_h_0041.sdf

> <i_m_source_file_index>
29

> <r_mmod_Potential_Energy-OPLS-2005>
18.0572872161865

> <r_mmod_Stretch_Energy-OPLS-2005>
123.24584197998

> <r_mmod_Bend_Energy-OPLS-2005>
194.846710205078

> <r_mmod_Torsional_Energy-OPLS-2005>
233.605453491211

> <r_mmod_Improper_Torsional_Energy-OPLS-2005>
5.28527879714966

> <r_mmod_Van_der_Waal_Energy-OPLS-2005>
138.359985351562

> <r_mmod_Electrostatic_Energy-OPLS-2005>
-296.758666992188

> <r_mmod_Solvation_Energy-OPLS-2005>
-458.155609130859

> <b_mmod_Minimization_Converged-OPLS-2005>
0

> <r_mmod_RMS_Derivative-OPLS-2005>
1.05495858192444

$$$$
29
                    3D
 Structure written by MMmdl.
173182  0  0  1  0            999 V2000
  -30.7139  -14.4203   20.5934 C   0  0  0  0  0  0
  -30.4213  -12.2825   19.4135 C   0  0  0  0  0  0
  -29.4915  -12.5099   18.2037 C   0  0  0  0  0  0
  -28.0129  -12.3721   18.6150 C   0  0  0  0  0  0
  -27.6646  -13.1998   19.8811 C   0  0  2  0  0  0
  -28.7043  -12.9521   20.9981 C   0  0  0  0  0  0
  -25.2598  -13.8152   20.5671 C   0  0  0  0  0  0
  -24.1840  -13.0436   20.9160 C   0  0  0  0  0  0
  -24.6385  -11.6900   20.8732 C   0  0  0  0  0  0
  -23.9051  -10.4289   21.0404 C   0  0  0  0  0  0
  -24.3607   -9.4210   21.9186 C   0  0  0  0  0  0
  -23.6278   -8.2246   22.0754 C   0  0  0  0  0  0
  -22.4264   -8.0279   21.3543 C   0  0  0  0  0  0
  -21.9897   -9.0255   20.4648 C   0  0  0  0  0  0
  -22.7221  -10.2138   20.3058 C   0  0  0  0  0  0
  -21.6848   -6.0736   22.5276 C   0  0  0  0  0  0
  -21.4012   -6.5641   23.8210 C   0  0  0  0  0  0
  -21.3660   -5.6794   24.9171 C   0  0  0  0  0  0
  -21.6042   -4.3056   24.7221 C   0  0  0  0  0  0
  -21.8820   -3.8148   23.4344 C   0  0  0  0  0  0
  -21.9190   -4.6961   22.3398 C   0  0  0  0  0  0
  -22.7867  -13.5243   21.1827 C   0  0  0  0  0  0
  -22.1657   -4.2150   21.0978 F   0  0  0  0  0  0
  -21.5627   -3.4539   25.7735 F   0  0  0  0  0  0
  -30.0431  -13.2476   20.4558 N   0  0  0  0  0  0
  -26.3034  -12.9304   20.3387 N   0  0  0  0  0  0
  -25.9311  -11.6470   20.5770 N   0  0  0  0  0  0
  -22.0508  -12.8248   22.0392 N   0  0  0  0  0  0
  -25.4338  -15.1869   20.4091 N   0  0  0  0  0  0
  -31.8277  -14.6256   20.0996 O   0  0  0  0  0  0
  -21.6630   -6.8876   21.4237 O   0  0  0  0  0  0
  -22.3558  -14.5556   20.6679 O   0  0  0  0  0  0
  -24.6112  -31.8708   23.2145 C   0  0  0  0  0  0
  -25.9021  -32.4839   23.8422 C   0  0  1  0  0  0
  -27.2390  -27.4679   20.0732 C   0  0  0  0  0  0
  -25.5894  -33.8640   24.2351 N   0  0  0  0  0  0
  -23.3976  -30.4958   21.5536 C   0  0  2  0  0  0
  -24.8440  -28.9644   20.1185 C   0  0  0  0  0  0
  -22.7386  -29.4676   22.5003 C   0  0  0  0  0  0
  -18.0268  -28.1372   22.8491 C   0  0  0  0  0  0
  -24.1488  -36.7324   23.2638 C   0  0  0  0  0  0
  -25.9249  -30.8405   21.3677 C   0  0  0  0  0  0
  -26.0015  -29.4751   20.7196 C   0  0  0  0  0  0
  -27.1977  -28.7260   20.7108 C   0  0  0  0  0  0
  -26.0602  -26.9595   19.4844 C   0  0  0  0  0  0
  -24.8647  -27.6999   19.5063 C   0  0  0  0  0  0
  -23.6060  -29.8298   20.1674 C   0  0  0  0  0  0
  -25.4109  -36.3125   24.0340 C   0  0  1  0  0  0
  -20.5855  -28.3658   23.1321 C   0  0  2  0  0  0
  -20.6758  -26.9397   22.5414 C   0  0  0  0  0  0
  -19.5741  -26.6383   21.5206 C   0  0  0  0  0  0
  -18.1919  -26.7918   22.1620 C   0  0  0  0  0  0
  -19.1516  -28.8831   23.2904 C   0  0  0  0  0  0
  -18.9448  -30.1438   23.8915 C   0  0  0  0  0  0
  -17.6452  -30.6581   24.0566 C   0  0  0  0  0  0
  -25.9029  -34.9483   23.5137 C   0  0  0  0  0  0
  -16.5343  -29.9086   23.6323 C   0  0  0  0  0  0
  -16.7259  -28.6502   23.0345 C   0  0  0  0  0  0
  -26.4462  -31.6612   25.0734 C   0  0  0  0  0  0
  -25.3743  -31.3716   26.1494 C   0  0  0  0  0  0
  -27.0290  -30.3060   24.6093 C   0  0  0  0  0  0
  -27.6047  -32.4325   25.7483 C   0  0  0  0  0  0
  -27.5581  -37.1821   24.8468 C   0  0  0  0  0  0
  -21.4121  -29.3034   22.3735 N   0  0  0  0  0  0
  -26.4304  -37.3799   23.9397 N   0  0  0  0  0  0
  -24.6625  -31.0829   22.1038 N   0  0  0  0  0  0
  -23.4170  -28.8217   23.3031 O   0  0  0  0  0  0
  -28.4151  -26.7544   20.0539 O   0  0  0  0  0  0
  -26.5583  -34.8925   22.4694 O   0  0  0  0  0  0
  -23.5310  -32.1459   23.7547 O   0  0  0  0  0  0
  -30.4554  -18.8442   19.7636 C   0  0  0  0  0  0
  -30.5105  -17.5452   22.2485 C   0  0  0  0  0  0
  -30.2016  -17.4590   19.8306 C   0  0  0  0  0  0
  -30.7052  -19.6046   20.9309 C   0  0  0  0  0  0
  -30.2655  -16.7913   21.0823 C   0  0  0  0  0  0
  -30.7303  -18.9368   22.1806 C   0  0  0  0  0  0
  -30.9145  -23.0727   19.2720 C   0  0  0  0  0  0
  -32.0220  -23.0837   18.5026 C   0  0  0  0  0  0
  -30.1978  -24.3330   19.7462 C   0  0  0  0  0  0
  -28.0190  -22.4365   18.7134 C   0  0  0  0  0  0
  -27.8280  -23.9573   18.8481 C   0  0  0  0  0  0
  -28.7833  -21.7998   19.8931 C   0  0  0  0  0  0
  -29.1240  -24.7819   18.7319 C   0  0  1  0  0  0
  -29.8397  -16.7330   18.5432 C   0  0  0  0  0  0
  -32.7805  -21.8845   17.9642 C   0  0  0  0  0  0
  -30.9721  -21.1150   20.8363 C   0  0  0  0  0  0
  -28.8599  -26.3038   18.7736 C   0  0  0  0  0  0
  -30.0301  -15.3952   21.2129 N   0  0  0  0  0  0
  -30.2636  -21.7913   19.7145 N   0  3  1  0  0  0
  -31.0508  -19.7900   23.6497 Cl  0  0  0  0  0  0
  -31.4658  -12.3780   19.1118 H   0  0  0  0  0  0
  -30.3148  -11.2650   19.7926 H   0  0  0  0  0  0
  -29.7246  -11.7992   17.4099 H   0  0  0  0  0  0
  -29.6642  -13.5028   17.7862 H   0  0  0  0  0  0
  -27.8195  -11.3144   18.7988 H   0  0  0  0  0  0
  -27.3637  -12.6592   17.7873 H   0  0  0  0  0  0
  -27.7159  -14.2517   19.6020 H   0  0  0  0  0  0
  -28.6698  -11.9100   21.3194 H   0  0  0  0  0  0
  -28.4653  -13.5334   21.8896 H   0  0  0  0  0  0
  -25.2757   -9.5684   22.4754 H   0  0  0  0  0  0
  -23.9984   -7.4641   22.7478 H   0  0  0  0  0  0
  -21.0823   -8.8781   19.8960 H   0  0  0  0  0  0
  -22.3679  -10.9679   19.6168 H   0  0  0  0  0  0
  -21.2010   -7.6153   23.9714 H   0  0  0  0  0  0
  -21.1477   -6.0526   25.9076 H   0  0  0  0  0  0
  -22.0600   -2.7608   23.2843 H   0  0  0  0  0  0
  -22.4097  -11.9897   22.4779 H   0  0  0  0  0  0
  -21.1141  -13.1304   22.2616 H   0  0  0  0  0  0
  -24.6705  -15.8452   20.5222 H   0  0  0  0  0  0
  -26.2936  -15.6275   20.1076 H   0  0  0  0  0  0
  -26.7091  -32.5566   23.1189 H   0  0  0  0  0  0
  -25.0063  -33.9816   25.0506 H   0  0  0  0  0  0
  -22.6853  -31.3120   21.4162 H   0  0  0  0  0  0
  -23.3735  -35.9676   23.3341 H   0  0  0  0  0  0
  -24.3574  -36.8894   22.2044 H   0  0  0  0  0  0
  -23.7265  -37.6554   23.6621 H   0  0  0  0  0  0
  -26.0354  -31.6062   20.5980 H   0  0  0  0  0  0
  -26.8136  -30.8943   21.9848 H   0  0  0  0  0  0
  -28.0922  -29.1182   21.1745 H   0  0  0  0  0  0
  -26.0526  -25.9939   19.0061 H   0  0  0  0  0  0
  -23.9730  -27.2961   19.0469 H   0  0  0  0  0  0
  -23.7149  -30.6058   19.4088 H   0  0  0  0  0  0
  -22.7305  -29.2496   19.8700 H   0  0  0  0  0  0
  -25.1288  -36.1999   25.0836 H   0  0  0  0  0  0
  -20.9946  -28.3215   24.1442 H   0  0  0  0  0  0
  -20.5656  -26.2262   23.3595 H   0  0  0  0  0  0
  -21.6632  -26.7439   22.1211 H   0  0  0  0  0  0
  -19.6903  -25.6297   21.1227 H   0  0  0  0  0  0
  -19.6683  -27.3199   20.6741 H   0  0  0  0  0  0
  -17.4186  -26.6662   21.4024 H   0  0  0  0  0  0
  -18.0330  -26.0056   22.9015 H   0  0  0  0  0  0
  -19.7929  -30.7243   24.2290 H   0  0  0  0  0  0
  -17.5014  -31.6264   24.5162 H   0  0  0  0  0  0
  -15.5347  -30.2998   23.7637 H   0  0  0  0  0  0
  -15.8659  -28.0831   22.7049 H   0  0  0  0  0  0
  -24.5895  -30.7085   25.7836 H   0  0  0  0  0  0
  -24.8958  -32.2877   26.4971 H   0  0  0  0  0  0
  -25.8104  -30.8862   27.0234 H   0  0  0  0  0  0
  -26.2832  -29.6825   24.1148 H   0  0  0  0  0  0
  -27.4074  -29.7287   25.4540 H   0  0  0  0  0  0
  -27.8660  -30.4389   23.9233 H   0  0  0  0  0  0
  -27.2669  -33.3597   26.2124 H   0  0  0  0  0  0
  -28.3817  -32.6935   25.0286 H   0  0  0  0  0  0
  -28.0763  -31.8417   26.5346 H   0  0  0  0  0  0
  -28.2627  -38.0088   24.7478 H   0  0  0  0  0  0
  -28.1048  -36.2621   24.6342 H   0  0  0  0  0  0
  -27.2291  -37.1530   25.8869 H   0  0  0  0  0  0
  -20.9270  -29.8768   21.6978 H   0  0  0  0  0  0
  -26.0199  -38.2885   24.1374 H   0  0  0  0  0  0
  -30.4357  -19.3166   18.7921 H   0  0  0  0  0  0
  -30.5423  -17.0545   23.2104 H   0  0  0  0  0  0
  -32.4321  -24.0422   18.2140 H   0  0  0  0  0  0
  -30.9533  -25.1141   19.8427 H   0  0  0  0  0  0
  -29.7846  -24.2180   20.7488 H   0  0  0  0  0  0
  -28.4805  -22.1818   17.7581 H   0  0  0  0  0  0
  -27.0248  -21.9877   18.6814 H   0  0  0  0  0  0
  -27.3317  -24.1764   19.7951 H   0  0  0  0  0  0
  -27.1410  -24.2759   18.0631 H   0  0  0  0  0  0
  -28.4403  -20.7696   19.9918 H   0  0  0  0  0  0
  -28.5091  -22.2828   20.8321 H   0  0  0  0  0  0
  -29.5256  -24.5996   17.7331 H   0  0  0  0  0  0
  -29.4884  -17.4308   17.7826 H   0  0  0  0  0  0
  -29.0392  -16.0131   18.7078 H   0  0  0  0  0  0
  -30.7048  -16.2063   18.1417 H   0  0  0  0  0  0
  -32.3430  -20.9291   18.2479 H   0  0  0  0  0  0
  -33.8094  -21.9049   18.3258 H   0  0  0  0  0  0
  -32.8089  -21.9269   16.8748 H   0  0  0  0  0  0
  -32.0497  -21.2394   20.7249 H   0  0  0  0  0  0
  -30.7053  -21.6272   21.7607 H   0  0  0  0  0  0
  -28.1801  -26.5840   17.9667 H   0  0  0  0  0  0
  -29.7884  -26.8324   18.5543 H   0  0  0  0  0  0
  -29.1967  -15.1142   21.7076 H   0  0  0  0  0  0
  -30.4024  -21.1531   18.9470 H   0  0  0  0  0  0
  1 25  1  0  0  0
  1 30  2  0  0  0
  1 88  1  0  0  0
  2  3  1  0  0  0
  2 25  1  0  0  0
  2 91  1  0  0  0
  2 92  1  0  0  0
  3  4  1  0  0  0
  3 93  1  0  0  0
  3 94  1  0  0  0
  4  5  1  0  0  0
  4 95  1  0  0  0
  4 96  1  0  0  0
  5  6  1  0  0  0
  5 26  1  0  0  0
  5 97  1  0  0  0
  6 25  1  0  0  0
  6 98  1  0  0  0
  6 99  1  0  0  0
  7  8  2  0  0  0
  7 26  1  0  0  0
  7 29  1  0  0  0
  8  9  1  0  0  0
  8 22  1  0  0  0
  9 10  1  0  0  0
  9 27  2  0  0  0
 10 11  2  0  0  0
 10 15  1  0  0  0
 11 12  1  0  0  0
 11100  1  0  0  0
 12 13  2  0  0  0
 12101  1  0  0  0
 13 14  1  0  0  0
 13 31  1  0  0  0
 14 15  2  0  0  0
 14102  1  0  0  0
 15103  1  0  0  0
 16 17  2  0  0  0
 16 21  1  0  0  0
 16 31  1  0  0  0
 17 18  1  0  0  0
 17104  1  0  0  0
 18 19  2  0  0  0
 18105  1  0  0  0
 19 20  1  0  0  0
 19 24  1  0  0  0
 20 21  2  0  0  0
 20106  1  0  0  0
 21 23  1  0  0  0
 22 28  1  0  0  0
 22 32  2  0  0  0
 26 27  1  0  0  0
 28107  1  0  0  0
 28108  1  0  0  0
 29109  1  0  0  0
 29110  1  0  0  0
 33 34  1  0  0  0
 33 66  1  0  0  0
 33 70  2  0  0  0
 34 36  1  0  0  0
 34 59  1  0  0  0
 34111  1  0  0  0
 35 44  2  0  0  0
 35 45  1  0  0  0
 35 68  1  0  0  0
 36 56  1  0  0  0
 36112  1  0  0  0
 37 39  1  0  0  0
 37 47  1  0  0  0
 37 66  1  0  0  0
 37113  1  0  0  0
 38 43  2  0  0  0
 38 46  1  0  0  0
 38 47  1  0  0  0
 39 64  1  0  0  0
 39 67  2  0  0  0
 40 52  1  0  0  0
 40 53  2  0  0  0
 40 58  1  0  0  0
 41114  1  0  0  0
 41115  1  0  0  0
 41116  1  0  0  0
 41 48  1  0  0  0
 42 43  1  0  0  0
 42 66  1  0  0  0
 42117  1  0  0  0
 42118  1  0  0  0
 43 44  1  0  0  0
 44119  1  0  0  0
 45 46  2  0  0  0
 45120  1  0  0  0
 46121  1  0  0  0
 47122  1  0  0  0
 47123  1  0  0  0
 48 56  1  0  0  0
 48 65  1  0  0  0
 48124  1  0  0  0
 49 50  1  0  0  0
 49 53  1  0  0  0
 49 64  1  0  0  0
 49125  1  0  0  0
 50 51  1  0  0  0
 50126  1  0  0  0
 50127  1  0  0  0
 51 52  1  0  0  0
 51128  1  0  0  0
 51129  1  0  0  0
 52130  1  0  0  0
 52131  1  0  0  0
 53 54  1  0  0  0
 54 55  2  0  0  0
 54132  1  0  0  0
 55 57  1  0  0  0
 55133  1  0  0  0
 56 69  2  0  0  0
 57 58  2  0  0  0
 57134  1  0  0  0
 58135  1  0  0  0
 59 60  1  0  0  0
 59 61  1  0  0  0
 59 62  1  0  0  0
 60136  1  0  0  0
 60137  1  0  0  0
 60138  1  0  0  0
 61139  1  0  0  0
 61140  1  0  0  0
 61141  1  0  0  0
 62142  1  0  0  0
 62143  1  0  0  0
 62144  1  0  0  0
 63 65  1  0  0  0
 63145  1  0  0  0
 63146  1  0  0  0
 63147  1  0  0  0
 64148  1  0  0  0
 65149  1  0  0  0
 68 87  1  0  0  0
 71 73  2  0  0  0
 71 74  1  0  0  0
 71150  1  0  0  0
 72 75  2  0  0  0
 72 76  1  0  0  0
 72151  1  0  0  0
 73 75  1  0  0  0
 73 84  1  0  0  0
 74 76  2  0  0  0
 74 86  1  0  0  0
 75 88  1  0  0  0
 76 90  1  0  0  0
 77 78  2  0  0  0
 77 79  1  0  0  0
 77 89  1  0  0  0
 78 85  1  0  0  0
 78152  1  0  0  0
 79 83  1  0  0  0
 79153  1  0  0  0
 79154  1  0  0  0
 80 81  1  0  0  0
 80 82  1  0  0  0
 80155  1  0  0  0
 80156  1  0  0  0
 81 83  1  0  0  0
 81157  1  0  0  0
 81158  1  0  0  0
 82 89  1  0  0  0
 82159  1  0  0  0
 82160  1  0  0  0
 83 87  1  0  0  0
 83161  1  0  0  0
 84162  1  0  0  0
 84163  1  0  0  0
 84164  1  0  0  0
 85165  1  0  0  0
 85166  1  0  0  0
 85167  1  0  0  0
 86168  1  0  0  0
 86169  1  0  0  0
 86 89  1  0  0  0
 87170  1  0  0  0
 87171  1  0  0  0
 88172  1  0  0  0
 89173  1  0  0  0
M  CHG  1  89   1
M  ISO  4   1 100  68 101  87 101  88 100
M  END
> <chiral flag>
0

> <version>
0

> <s_m_source_file>
/data/baiqing/PycharmProjects/Reinvent-master-3.2/result/LINK_invent/BTK/process_docking_weight1_custom_product_contain_oxygen_bond_distance_aromatic_linkinvent_7_9_3/rearranged_h_0041.sdf

> <i_m_source_file_index>
30

> <r_mmod_Potential_Energy-OPLS-2005>
-125.561058044434

> <r_mmod_Stretch_Energy-OPLS-2005>
36.9059219360352

> <r_mmod_Bend_Energy-OPLS-2005>
109.417434692383

> <r_mmod_Torsional_Energy-OPLS-2005>
271.961273193359

> <r_mmod_Improper_Torsional_Energy-OPLS-2005>
3.09369945526123

> <r_mmod_Van_der_Waal_Energy-OPLS-2005>
156.634658813477

> <r_mmod_Electrostatic_Energy-OPLS-2005>
-288.711364746094

> <r_mmod_Solvation_Energy-OPLS-2005>
-423.544708251953

> <b_mmod_Minimization_Converged-OPLS-2005>
0

> <r_mmod_RMS_Derivative-OPLS-2005>
1.10330390930176

$$$$
30
                    3D
 Structure written by MMmdl.
164173  0  0  1  0            999 V2000
  -30.6147  -14.6596   20.4762 C   0  0  0  0  0  0
  -30.4395  -12.4029   19.4409 C   0  0  0  0  0  0
  -29.5021  -12.5050   18.2167 C   0  0  0  0  0  0
  -28.0253  -12.3429   18.6338 C   0  0  0  0  0  0
  -27.6466  -13.2162   19.8597 C   0  0  2  0  0  0
  -28.6999  -13.0835   20.9836 C   0  0  0  0  0  0
  -25.2459  -13.8054   20.5739 C   0  0  0  0  0  0
  -24.1760  -13.0314   20.9228 C   0  0  0  0  0  0
  -24.6376  -11.6826   20.8739 C   0  0  0  0  0  0
  -23.9051  -10.4227   21.0390 C   0  0  0  0  0  0
  -24.3603   -9.4157   21.9179 C   0  0  0  0  0  0
  -23.6270   -8.2206   22.0758 C   0  0  0  0  0  0
  -22.4253   -8.0249   21.3545 C   0  0  0  0  0  0
  -21.9893   -9.0217   20.4639 C   0  0  0  0  0  0
  -22.7227  -10.2088   20.3036 C   0  0  0  0  0  0
  -21.6837   -6.0718   22.5275 C   0  0  0  0  0  0
  -21.4001   -6.5624   23.8207 C   0  0  0  0  0  0
  -21.3660   -5.6780   24.9170 C   0  0  0  0  0  0
  -21.6051   -4.3042   24.7220 C   0  0  0  0  0  0
  -21.8819   -3.8132   23.4340 C   0  0  0  0  0  0
  -21.9191   -4.6948   22.3396 C   0  0  0  0  0  0
  -22.7790  -13.5133   21.1867 C   0  0  0  0  0  0
  -22.1659   -4.2136   21.0972 F   0  0  0  0  0  0
  -21.5640   -3.4532   25.7738 F   0  0  0  0  0  0
  -30.0101  -13.4299   20.4091 N   0  0  0  0  0  0
  -26.2944  -12.9309   20.3338 N   0  0  0  0  0  0
  -25.9314  -11.6453   20.5760 N   0  0  0  0  0  0
  -22.0437  -12.8140   22.0435 N   0  0  0  0  0  0
  -25.3899  -15.1755   20.4231 N   0  0  0  0  0  0
  -31.7979  -14.8155   20.1642 O   0  0  0  0  0  0
  -21.6614   -6.8855   21.4236 O   0  0  0  0  0  0
  -22.3482  -14.5443   20.6708 O   0  0  0  0  0  0
  -24.6256  -31.8591   23.2038 C   0  0  0  0  0  0
  -25.9101  -32.4773   23.8355 C   0  0  1  0  0  0
  -27.2355  -27.3196   20.1308 C   0  0  0  0  0  0
  -25.5929  -33.8573   24.2284 N   0  0  0  0  0  0
  -23.4194  -30.4829   21.5441 C   0  0  2  0  0  0
  -24.8697  -28.9402   20.1103 C   0  0  0  0  0  0
  -22.7458  -29.4626   22.4918 C   0  0  0  0  0  0
  -18.0282  -28.1396   22.8480 C   0  0  0  0  0  0
  -24.1487  -36.7277   23.2645 C   0  0  0  0  0  0
  -25.9593  -30.7916   21.3747 C   0  0  0  0  0  0
  -26.0353  -29.4184   20.7210 C   0  0  0  0  0  0
  -27.2155  -28.6181   20.7269 C   0  0  0  0  0  0
  -26.0493  -26.9046   19.4760 C   0  0  0  0  0  0
  -24.8796  -27.6883   19.4780 C   0  0  0  0  0  0
  -23.6360  -29.8182   20.1589 C   0  0  0  0  0  0
  -25.4114  -36.3072   24.0337 C   0  0  1  0  0  0
  -20.5881  -28.3700   23.1274 C   0  0  2  0  0  0
  -20.6773  -26.9418   22.5412 C   0  0  0  0  0  0
  -19.5757  -26.6391   21.5207 C   0  0  0  0  0  0
  -18.1927  -26.7940   22.1606 C   0  0  0  0  0  0
  -19.1536  -28.8862   23.2874 C   0  0  0  0  0  0
  -18.9462  -30.1462   23.8896 C   0  0  0  0  0  0
  -17.6466  -30.6597   24.0572 C   0  0  0  0  0  0
  -25.9055  -34.9445   23.5108 C   0  0  0  0  0  0
  -16.5356  -29.9098   23.6344 C   0  0  0  0  0  0
  -16.7272  -28.6520   23.0356 C   0  0  0  0  0  0
  -26.4512  -31.6582   25.0711 C   0  0  0  0  0  0
  -25.3761  -31.3691   26.1449 C   0  0  0  0  0  0
  -27.0372  -30.3017   24.6151 C   0  0  0  0  0  0
  -27.6086  -32.4320   25.7475 C   0  0  0  0  0  0
  -27.5576  -37.1791   24.8469 C   0  0  0  0  0  0
  -21.4173  -29.3046   22.3655 N   0  0  0  0  0  0
  -26.4283  -37.3771   23.9419 N   0  0  0  0  0  0
  -24.6866  -31.0608   22.0984 N   0  0  0  0  0  0
  -23.4176  -28.8165   23.3002 O   0  0  0  0  0  0
  -28.3641  -26.4833   20.2287 O   0  0  0  0  0  0
  -26.5613  -34.8913   22.4668 O   0  0  0  0  0  0
  -23.5423  -32.1387   23.7375 O   0  0  0  0  0  0
  -31.0406  -17.8834   21.0905 C   0  0  0  0  0  0
  -31.0492  -19.3096   21.2067 C   0  0  0  0  0  0
  -29.8968  -20.1146   20.9147 C   0  0  0  0  0  0
  -28.7616  -19.4003   20.4263 C   0  0  0  0  0  0
  -29.9038  -17.1740   20.6404 C   0  0  0  0  0  0
  -28.7986  -17.9778   20.2433 C   0  0  0  0  0  0
  -29.0291  -24.0243   20.8240 C   0  0  0  0  0  0
  -28.6951  -23.3751   18.0176 C   0  0  0  0  0  0
  -28.7023  -24.8569   18.4141 C   0  0  0  0  0  0
  -29.6133  -22.5427   18.9300 C   0  0  0  0  0  0
  -28.2718  -25.0429   19.8752 C   0  0  2  0  0  0
  -32.3326  -19.9474   21.7120 C   0  0  0  0  0  0
  -27.4556  -20.1388   20.1427 C   0  0  0  0  0  0
  -29.8516  -21.6621   21.2886 C   0  0  0  0  0  0
  -29.3749  -22.7621   20.3646 N   0  0  0  0  0  0
  -29.7597  -15.7135   20.6639 N   0  0  0  0  0  0
  -29.2123  -24.3509   22.0016 O   0  0  0  0  0  0
  -27.4603  -17.1888   19.4896 Cl  0  0  0  0  0  0
  -31.4790  -12.5348   19.1349 H   0  0  0  0  0  0
  -30.3796  -11.4100   19.8895 H   0  0  0  0  0  0
  -29.7643  -11.7480   17.4760 H   0  0  0  0  0  0
  -29.6401  -13.4703   17.7265 H   0  0  0  0  0  0
  -27.8644  -11.2900   18.8685 H   0  0  0  0  0  0
  -27.3675  -12.5680   17.7937 H   0  0  0  0  0  0
  -27.6509  -14.2481   19.5114 H   0  0  0  0  0  0
  -28.7174  -12.0636   21.3707 H   0  0  0  0  0  0
  -28.4528  -13.7213   21.8341 H   0  0  0  0  0  0
  -25.2753   -9.5635   22.4756 H   0  0  0  0  0  0
  -23.9963   -7.4601   22.7493 H   0  0  0  0  0  0
  -21.0819   -8.8738   19.8948 H   0  0  0  0  0  0
  -22.3695  -10.9623   19.6139 H   0  0  0  0  0  0
  -21.1976   -7.6130   23.9699 H   0  0  0  0  0  0
  -21.1491   -6.0517   25.9076 H   0  0  0  0  0  0
  -22.0598   -2.7596   23.2846 H   0  0  0  0  0  0
  -22.4048  -11.9793   22.4807 H   0  0  0  0  0  0
  -21.1064  -13.1178   22.2660 H   0  0  0  0  0  0
  -24.5961  -15.7975   20.5192 H   0  0  0  0  0  0
  -26.2062  -15.6458   20.0476 H   0  0  0  0  0  0
  -26.7159  -32.5453   23.1101 H   0  0  0  0  0  0
  -25.0116  -33.9723   25.0457 H   0  0  0  0  0  0
  -22.7138  -31.3043   21.4002 H   0  0  0  0  0  0
  -23.3766  -35.9590   23.3284 H   0  0  0  0  0  0
  -24.3581  -36.8930   22.2062 H   0  0  0  0  0  0
  -23.7224  -37.6464   23.6687 H   0  0  0  0  0  0
  -26.0855  -31.5507   20.6021 H   0  0  0  0  0  0
  -26.8428  -30.8464   21.9993 H   0  0  0  0  0  0
  -28.1039  -28.9780   21.2268 H   0  0  0  0  0  0
  -25.9855  -25.9609   18.9580 H   0  0  0  0  0  0
  -23.9906  -27.3180   18.9861 H   0  0  0  0  0  0
  -23.7538  -30.5957   19.4032 H   0  0  0  0  0  0
  -22.7578  -29.2459   19.8556 H   0  0  0  0  0  0
  -25.1297  -36.1918   25.0828 H   0  0  0  0  0  0
  -20.9980  -28.3289   24.1395 H   0  0  0  0  0  0
  -20.5676  -26.2307   23.3609 H   0  0  0  0  0  0
  -21.6643  -26.7445   22.1210 H   0  0  0  0  0  0
  -19.6924  -25.6302   21.1241 H   0  0  0  0  0  0
  -19.6717  -27.3196   20.6732 H   0  0  0  0  0  0
  -17.4203  -26.6703   21.3996 H   0  0  0  0  0  0
  -18.0316  -26.0075   22.8991 H   0  0  0  0  0  0
  -19.7939  -30.7277   24.2267 H   0  0  0  0  0  0
  -17.5026  -31.6276   24.5177 H   0  0  0  0  0  0
  -15.5362  -30.3010   23.7678 H   0  0  0  0  0  0
  -15.8660  -28.0852   22.7078 H   0  0  0  0  0  0
  -24.5979  -30.6981   25.7791 H   0  0  0  0  0  0
  -24.8890  -32.2834   26.4851 H   0  0  0  0  0  0
  -25.8113  -30.8912   27.0236 H   0  0  0  0  0  0
  -26.2932  -29.6736   24.1233 H   0  0  0  0  0  0
  -27.4161  -29.7305   25.4638 H   0  0  0  0  0  0
  -27.8756  -30.4336   23.9311 H   0  0  0  0  0  0
  -27.2738  -33.3686   26.1946 H   0  0  0  0  0  0
  -28.3939  -32.6759   25.0309 H   0  0  0  0  0  0
  -28.0677  -31.8484   26.5465 H   0  0  0  0  0  0
  -28.2586  -38.0095   24.7529 H   0  0  0  0  0  0
  -28.1081  -36.2627   24.6284 H   0  0  0  0  0  0
  -27.2286  -37.1427   25.8870 H   0  0  0  0  0  0
  -20.9346  -29.8766   21.6868 H   0  0  0  0  0  0
  -26.0161  -38.2837   24.1456 H   0  0  0  0  0  0
  -31.9147  -17.3205   21.3861 H   0  0  0  0  0  0
  -29.0124  -23.2691   16.9796 H   0  0  0  0  0  0
  -27.6779  -22.9841   18.0722 H   0  0  0  0  0  0
  -28.0391  -25.4179   17.7562 H   0  0  0  0  0  0
  -29.7013  -25.2729   18.2752 H   0  0  0  0  0  0
  -30.6542  -22.8009   18.7284 H   0  0  0  0  0  0
  -29.5122  -21.4909   18.6679 H   0  0  0  0  0  0
  -27.2473  -24.6949   19.9918 H   0  0  0  0  0  0
  -33.1430  -19.2205   21.7824 H   0  0  0  0  0  0
  -32.1892  -20.3738   22.7054 H   0  0  0  0  0  0
  -32.6648  -20.7351   21.0346 H   0  0  0  0  0  0
  -27.3551  -21.0508   20.7272 H   0  0  0  0  0  0
  -26.5914  -19.5294   20.4077 H   0  0  0  0  0  0
  -27.3773  -20.3937   19.0862 H   0  0  0  0  0  0
  -30.8268  -21.9896   21.6421 H   0  0  0  0  0  0
  -29.2247  -21.7047   22.1810 H   0  0  0  0  0  0
  -28.8009  -15.4113   20.7390 H   0  0  0  0  0  0
  1 25  1  0  0  0
  1 30  2  0  0  0
  1 86  1  0  0  0
  2  3  1  0  0  0
  2 25  1  0  0  0
  2 89  1  0  0  0
  2 90  1  0  0  0
  3  4  1  0  0  0
  3 91  1  0  0  0
  3 92  1  0  0  0
  4  5  1  0  0  0
  4 93  1  0  0  0
  4 94  1  0  0  0
  5  6  1  0  0  0
  5 26  1  0  0  0
  5 95  1  0  0  0
  6 25  1  0  0  0
  6 96  1  0  0  0
  6 97  1  0  0  0
  7  8  2  0  0  0
  7 26  1  0  0  0
  7 29  1  0  0  0
  8  9  1  0  0  0
  8 22  1  0  0  0
  9 10  1  0  0  0
  9 27  2  0  0  0
 10 11  2  0  0  0
 10 15  1  0  0  0
 11 12  1  0  0  0
 11 98  1  0  0  0
 12 13  2  0  0  0
 12 99  1  0  0  0
 13 14  1  0  0  0
 13 31  1  0  0  0
 14 15  2  0  0  0
 14100  1  0  0  0
 15101  1  0  0  0
 16 17  2  0  0  0
 16 21  1  0  0  0
 16 31  1  0  0  0
 17 18  1  0  0  0
 17102  1  0  0  0
 18 19  2  0  0  0
 18103  1  0  0  0
 19 20  1  0  0  0
 19 24  1  0  0  0
 20 21  2  0  0  0
 20104  1  0  0  0
 21 23  1  0  0  0
 22 28  1  0  0  0
 22 32  2  0  0  0
 26 27  1  0  0  0
 28105  1  0  0  0
 28106  1  0  0  0
 29107  1  0  0  0
 29108  1  0  0  0
 33 34  1  0  0  0
 33 66  1  0  0  0
 33 70  2  0  0  0
 34 36  1  0  0  0
 34 59  1  0  0  0
 34109  1  0  0  0
 35 44  2  0  0  0
 35 45  1  0  0  0
 35 68  1  0  0  0
 36 56  1  0  0  0
 36110  1  0  0  0
 37 39  1  0  0  0
 37 47  1  0  0  0
 37 66  1  0  0  0
 37111  1  0  0  0
 38 43  2  0  0  0
 38 46  1  0  0  0
 38 47  1  0  0  0
 39 64  1  0  0  0
 39 67  2  0  0  0
 40 52  1  0  0  0
 40 53  2  0  0  0
 40 58  1  0  0  0
 41112  1  0  0  0
 41113  1  0  0  0
 41114  1  0  0  0
 41 48  1  0  0  0
 42 43  1  0  0  0
 42 66  1  0  0  0
 42115  1  0  0  0
 42116  1  0  0  0
 43 44  1  0  0  0
 44117  1  0  0  0
 45 46  2  0  0  0
 45118  1  0  0  0
 46119  1  0  0  0
 47120  1  0  0  0
 47121  1  0  0  0
 48 56  1  0  0  0
 48 65  1  0  0  0
 48122  1  0  0  0
 49 50  1  0  0  0
 49 53  1  0  0  0
 49 64  1  0  0  0
 49123  1  0  0  0
 50 51  1  0  0  0
 50124  1  0  0  0
 50125  1  0  0  0
 51 52  1  0  0  0
 51126  1  0  0  0
 51127  1  0  0  0
 52128  1  0  0  0
 52129  1  0  0  0
 53 54  1  0  0  0
 54 55  2  0  0  0
 54130  1  0  0  0
 55 57  1  0  0  0
 55131  1  0  0  0
 56 69  2  0  0  0
 57 58  2  0  0  0
 57132  1  0  0  0
 58133  1  0  0  0
 59 60  1  0  0  0
 59 61  1  0  0  0
 59 62  1  0  0  0
 60134  1  0  0  0
 60135  1  0  0  0
 60136  1  0  0  0
 61137  1  0  0  0
 61138  1  0  0  0
 61139  1  0  0  0
 62140  1  0  0  0
 62141  1  0  0  0
 62142  1  0  0  0
 63 65  1  0  0  0
 63143  1  0  0  0
 63144  1  0  0  0
 63145  1  0  0  0
 64146  1  0  0  0
 65147  1  0  0  0
 68 81  1  0  0  0
 71 72  2  0  0  0
 71 75  1  0  0  0
 71148  1  0  0  0
 72 73  1  0  0  0
 72 82  1  0  0  0
 73 74  2  0  0  0
 73 84  1  0  0  0
 74 76  1  0  0  0
 74 83  1  0  0  0
 75 76  2  0  0  0
 75 86  1  0  0  0
 76 88  1  0  0  0
 77 81  1  0  0  0
 77 85  1  0  0  0
 77 87  2  0  0  0
 78 79  1  0  0  0
 78 80  1  0  0  0
 78149  1  0  0  0
 78150  1  0  0  0
 79 81  1  0  0  0
 79151  1  0  0  0
 79152  1  0  0  0
 80 85  1  0  0  0
 80153  1  0  0  0
 80154  1  0  0  0
 81155  1  0  0  0
 82156  1  0  0  0
 82157  1  0  0  0
 82158  1  0  0  0
 83159  1  0  0  0
 83160  1  0  0  0
 83161  1  0  0  0
 84 85  1  0  0  0
 84162  1  0  0  0
 84163  1  0  0  0
 86164  1  0  0  0
M  ISO  4   1 100  68 101  81 101  86 100
M  END
> <chiral flag>
0

> <version>
0

> <s_m_source_file>
/data/baiqing/PycharmProjects/Reinvent-master-3.2/result/LINK_invent/BTK/process_docking_weight1_custom_product_contain_oxygen_bond_distance_aromatic_linkinvent_7_9_3/rearranged_h_0041.sdf

> <i_m_source_file_index>
31

> <r_mmod_Potential_Energy-OPLS-2005>
130.070693969727

> <r_mmod_Stretch_Energy-OPLS-2005>
91.04638671875

> <r_mmod_Bend_Energy-OPLS-2005>
153.064651489258

> <r_mmod_Torsional_Energy-OPLS-2005>
251.37109375

> <r_mmod_Improper_Torsional_Energy-OPLS-2005>
8.47409534454346

> <r_mmod_Van_der_Waal_Energy-OPLS-2005>
161.05973815918

> <r_mmod_Electrostatic_Energy-OPLS-2005>
-371.528106689453

> <r_mmod_Solvation_Energy-OPLS-2005>
-218.048110961914

> <b_mmod_Minimization_Converged-OPLS-2005>
0

> <r_mmod_RMS_Derivative-OPLS-2005>
1.59259021282196

$$$$
31
                    3D
 Structure written by MMmdl.
157165  0  0  1  0            999 V2000
  -30.6510  -14.5276   20.5151 C   0  0  0  0  0  0
  -30.4196  -12.3170   19.4504 C   0  0  0  0  0  0
  -29.4973  -12.4939   18.2247 C   0  0  0  0  0  0
  -28.0168  -12.3581   18.6307 C   0  0  0  0  0  0
  -27.6545  -13.2048   19.8812 C   0  0  2  0  0  0
  -28.6958  -13.0117   21.0085 C   0  0  0  0  0  0
  -25.2542  -13.8161   20.5710 C   0  0  0  0  0  0
  -24.1796  -13.0434   20.9196 C   0  0  0  0  0  0
  -24.6351  -11.6902   20.8761 C   0  0  0  0  0  0
  -23.9033  -10.4282   21.0420 C   0  0  0  0  0  0
  -24.3597   -9.4203   21.9192 C   0  0  0  0  0  0
  -23.6280   -8.2236   22.0758 C   0  0  0  0  0  0
  -22.4263   -8.0269   21.3543 C   0  0  0  0  0  0
  -21.9892   -9.0238   20.4652 C   0  0  0  0  0  0
  -22.7211  -10.2127   20.3065 C   0  0  0  0  0  0
  -21.6852   -6.0724   22.5270 C   0  0  0  0  0  0
  -21.4012   -6.5630   23.8206 C   0  0  0  0  0  0
  -21.3667   -5.6794   24.9176 C   0  0  0  0  0  0
  -21.6052   -4.3048   24.7229 C   0  0  0  0  0  0
  -21.8816   -3.8134   23.4351 C   0  0  0  0  0  0
  -21.9194   -4.6955   22.3406 C   0  0  0  0  0  0
  -22.7824  -13.5236   21.1848 C   0  0  0  0  0  0
  -22.1656   -4.2143   21.0980 F   0  0  0  0  0  0
  -21.5646   -3.4533   25.7741 F   0  0  0  0  0  0
  -30.0246  -13.3192   20.4544 N   0  0  0  0  0  0
  -26.2968  -12.9315   20.3406 N   0  0  0  0  0  0
  -25.9273  -11.6478   20.5805 N   0  0  0  0  0  0
  -22.0471  -12.8231   22.0412 N   0  0  0  0  0  0
  -25.4270  -15.1878   20.4120 N   0  0  0  0  0  0
  -31.7875  -14.7125   20.0692 O   0  0  0  0  0  0
  -21.6634   -6.8863   21.4231 O   0  0  0  0  0  0
  -22.3523  -14.5542   20.6697 O   0  0  0  0  0  0
  -24.6140  -31.8643   23.2049 C   0  0  0  0  0  0
  -25.9016  -32.4812   23.8358 C   0  0  1  0  0  0
  -27.2388  -27.4010   20.1000 C   0  0  0  0  0  0
  -25.5871  -33.8616   24.2277 N   0  0  0  0  0  0
  -23.4045  -30.4833   21.5467 C   0  0  2  0  0  0
  -24.8516  -28.9407   20.1159 C   0  0  0  0  0  0
  -22.7412  -29.4610   22.4974 C   0  0  0  0  0  0
  -18.0247  -28.1367   22.8473 C   0  0  0  0  0  0
  -24.1487  -36.7317   23.2640 C   0  0  0  0  0  0
  -25.9351  -30.8176   21.3648 C   0  0  0  0  0  0
  -26.0107  -29.4480   20.7146 C   0  0  0  0  0  0
  -27.2014  -28.6823   20.7072 C   0  0  0  0  0  0
  -26.0589  -26.9131   19.4957 C   0  0  0  0  0  0
  -24.8711  -27.6725   19.5077 C   0  0  0  0  0  0
  -23.6153  -29.8123   20.1631 C   0  0  0  0  0  0
  -25.4115  -36.3113   24.0327 C   0  0  1  0  0  0
  -20.5843  -28.3637   23.1317 C   0  0  2  0  0  0
  -20.6746  -26.9372   22.5421 C   0  0  0  0  0  0
  -19.5739  -26.6366   21.5201 C   0  0  0  0  0  0
  -18.1905  -26.7906   22.1601 C   0  0  0  0  0  0
  -19.1504  -28.8817   23.2884 C   0  0  0  0  0  0
  -18.9445  -30.1425   23.8892 C   0  0  0  0  0  0
  -17.6457  -30.6584   24.0547 C   0  0  0  0  0  0
  -25.9047  -34.9478   23.5104 C   0  0  0  0  0  0
  -16.5335  -29.9090   23.6334 C   0  0  0  0  0  0
  -16.7238  -28.6508   23.0340 C   0  0  0  0  0  0
  -26.4438  -31.6611   25.0706 C   0  0  0  0  0  0
  -25.3717  -31.3717   26.1467 C   0  0  0  0  0  0
  -27.0252  -30.3047   24.6093 C   0  0  0  0  0  0
  -27.6006  -32.4334   25.7476 C   0  0  0  0  0  0
  -27.5580  -37.1815   24.8459 C   0  0  0  0  0  0
  -21.4136  -29.3005   22.3734 N   0  0  0  0  0  0
  -26.4299  -37.3802   23.9399 N   0  0  0  0  0  0
  -24.6688  -31.0710   22.0963 N   0  0  0  0  0  0
  -23.4171  -28.8171   23.3035 O   0  0  0  0  0  0
  -28.4250  -26.6850   20.1345 O   0  0  0  0  0  0
  -26.5635  -34.8945   22.4681 O   0  0  0  0  0  0
  -23.5325  -32.1381   23.7439 O   0  0  0  0  0  0
  -28.9501  -19.0943   18.6897 C   0  0  0  0  0  0
  -29.1263  -16.6740   18.8938 C   0  0  0  0  0  0
  -29.4958  -19.2686   19.9766 C   0  0  0  0  0  0
  -29.8180  -18.0984   20.7622 C   0  0  0  0  0  0
  -29.6490  -16.7864   20.2032 C   0  0  0  0  0  0
  -28.7699  -17.8121   18.1516 C   0  0  0  0  0  0
  -29.0744  -22.9887   20.4689 C   0  0  0  0  0  0
  -29.7563  -20.7006   20.3858 C   0  0  0  0  0  0
  -30.3368  -18.2154   22.1945 C   0  0  0  0  0  0
  -28.0644  -24.1523   20.3642 C   0  0  0  0  0  0
  -28.5605  -25.3779   19.5261 C   0  0  0  0  0  0
  -28.8431  -21.7341   20.2389 N   0  0  0  0  0  0
  -29.8910  -15.5657   20.9445 N   0  0  0  0  0  0
  -30.9633  -20.9385   20.8099 N   0  3  0  0  0  0
  -28.2555  -17.6670   16.9061 F   0  0  0  0  0  0
  -31.4663  -12.4142   19.1568 H   0  0  0  0  0  0
  -30.3156  -11.3119   19.8628 H   0  0  0  0  0  0
  -29.7402  -11.7532   17.4614 H   0  0  0  0  0  0
  -29.6690  -13.4697   17.7692 H   0  0  0  0  0  0
  -27.8290  -11.3035   18.8342 H   0  0  0  0  0  0
  -27.3688  -12.6245   17.7942 H   0  0  0  0  0  0
  -27.6823  -14.2470   19.5722 H   0  0  0  0  0  0
  -28.6763  -11.9829   21.3715 H   0  0  0  0  0  0
  -28.4560  -13.6312   21.8735 H   0  0  0  0  0  0
  -25.2747   -9.5690   22.4759 H   0  0  0  0  0  0
  -24.0005   -7.4628   22.7467 H   0  0  0  0  0  0
  -21.0833   -8.8741   19.8952 H   0  0  0  0  0  0
  -22.3655  -10.9667   19.6168 H   0  0  0  0  0  0
  -21.1981   -7.6140   23.9707 H   0  0  0  0  0  0
  -21.1504   -6.0524   25.9083 H   0  0  0  0  0  0
  -22.0590   -2.7592   23.2849 H   0  0  0  0  0  0
  -22.4076  -11.9886   22.4797 H   0  0  0  0  0  0
  -21.1094  -13.1261   22.2632 H   0  0  0  0  0  0
  -24.6572  -15.8410   20.5118 H   0  0  0  0  0  0
  -26.2811  -15.6281   20.0954 H   0  0  0  0  0  0
  -26.7081  -32.5496   23.1116 H   0  0  0  0  0  0
  -24.9987  -33.9773   25.0393 H   0  0  0  0  0  0
  -22.6913  -31.2970   21.4043 H   0  0  0  0  0  0
  -23.3761  -35.9644   23.3318 H   0  0  0  0  0  0
  -24.3573  -36.8926   22.2057 H   0  0  0  0  0  0
  -23.7247  -37.6522   23.6653 H   0  0  0  0  0  0
  -26.0535  -31.5798   20.5933 H   0  0  0  0  0  0
  -26.8194  -30.8676   21.9887 H   0  0  0  0  0  0
  -28.0968  -29.0687   21.1738 H   0  0  0  0  0  0
  -26.0366  -25.9454   19.0174 H   0  0  0  0  0  0
  -23.9779  -27.2718   19.0474 H   0  0  0  0  0  0
  -23.7294  -30.5853   19.4024 H   0  0  0  0  0  0
  -22.7386  -29.2347   19.8654 H   0  0  0  0  0  0
  -25.1303  -36.1976   25.0827 H   0  0  0  0  0  0
  -20.9887  -28.3203   24.1451 H   0  0  0  0  0  0
  -20.5620  -26.2234   23.3597 H   0  0  0  0  0  0
  -21.6620  -26.7394   22.1226 H   0  0  0  0  0  0
  -19.6899  -25.6276   21.1228 H   0  0  0  0  0  0
  -19.6713  -27.3181   20.6742 H   0  0  0  0  0  0
  -17.4167  -26.6602   21.4017 H   0  0  0  0  0  0
  -18.0333  -26.0049   22.9008 H   0  0  0  0  0  0
  -19.7933  -30.7220   24.2256 H   0  0  0  0  0  0
  -17.5030  -31.6273   24.5138 H   0  0  0  0  0  0
  -15.5341  -30.3002   23.7681 H   0  0  0  0  0  0
  -15.8621  -28.0850   22.7056 H   0  0  0  0  0  0
  -24.5892  -30.7049   25.7821 H   0  0  0  0  0  0
  -24.8904  -32.2868   26.4933 H   0  0  0  0  0  0
  -25.8095  -30.8891   27.0215 H   0  0  0  0  0  0
  -26.2780  -29.6851   24.1115 H   0  0  0  0  0  0
  -27.3967  -29.7254   25.4557 H   0  0  0  0  0  0
  -27.8650  -30.4354   23.9264 H   0  0  0  0  0  0
  -27.2609  -33.3617   26.2087 H   0  0  0  0  0  0
  -28.3810  -32.6927   25.0308 H   0  0  0  0  0  0
  -28.0681  -31.8439   26.5376 H   0  0  0  0  0  0
  -28.2603  -38.0108   24.7507 H   0  0  0  0  0  0
  -28.1066  -36.2637   24.6282 H   0  0  0  0  0  0
  -27.2286  -37.1469   25.8859 H   0  0  0  0  0  0
  -20.9283  -29.8751   21.6988 H   0  0  0  0  0  0
  -26.0187  -38.2874   24.1427 H   0  0  0  0  0  0
  -28.6939  -19.9571   18.0957 H   0  0  0  0  0  0
  -28.9739  -15.7083   18.4355 H   0  0  0  0  0  0
  -30.0587  -23.3436   20.7869 H   0  0  0  0  0  0
  -31.4239  -18.1413   22.2122 H   0  0  0  0  0  0
  -29.9409  -17.4181   22.8230 H   0  0  0  0  0  0
  -30.0462  -19.1528   22.6699 H   0  0  0  0  0  0
  -27.8414  -24.4793   21.3798 H   0  0  0  0  0  0
  -27.1234  -23.7815   19.9590 H   0  0  0  0  0  0
  -28.1343  -25.3671   18.5210 H   0  0  0  0  0  0
  -29.6332  -25.2709   19.3605 H   0  0  0  0  0  0
  -29.1058  -15.2585   21.5009 H   0  0  0  0  0  0
  -31.6886  -20.2241   20.8184 H   0  0  0  0  0  0
  -31.2828  -21.8522   21.1106 H   0  0  0  0  0  0
  1 25  1  0  0  0
  1 30  2  0  0  0
  1 83  1  0  0  0
  2  3  1  0  0  0
  2 25  1  0  0  0
  2 86  1  0  0  0
  2 87  1  0  0  0
  3  4  1  0  0  0
  3 88  1  0  0  0
  3 89  1  0  0  0
  4  5  1  0  0  0
  4 90  1  0  0  0
  4 91  1  0  0  0
  5  6  1  0  0  0
  5 26  1  0  0  0
  5 92  1  0  0  0
  6 25  1  0  0  0
  6 93  1  0  0  0
  6 94  1  0  0  0
  7  8  2  0  0  0
  7 26  1  0  0  0
  7 29  1  0  0  0
  8  9  1  0  0  0
  8 22  1  0  0  0
  9 10  1  0  0  0
  9 27  2  0  0  0
 10 11  2  0  0  0
 10 15  1  0  0  0
 11 12  1  0  0  0
 11 95  1  0  0  0
 12 13  2  0  0  0
 12 96  1  0  0  0
 13 14  1  0  0  0
 13 31  1  0  0  0
 14 15  2  0  0  0
 14 97  1  0  0  0
 15 98  1  0  0  0
 16 17  2  0  0  0
 16 21  1  0  0  0
 16 31  1  0  0  0
 17 18  1  0  0  0
 17 99  1  0  0  0
 18 19  2  0  0  0
 18100  1  0  0  0
 19 20  1  0  0  0
 19 24  1  0  0  0
 20 21  2  0  0  0
 20101  1  0  0  0
 21 23  1  0  0  0
 22 28  1  0  0  0
 22 32  2  0  0  0
 26 27  1  0  0  0
 28102  1  0  0  0
 28103  1  0  0  0
 29104  1  0  0  0
 29105  1  0  0  0
 33 34  1  0  0  0
 33 66  1  0  0  0
 33 70  2  0  0  0
 34 36  1  0  0  0
 34 59  1  0  0  0
 34106  1  0  0  0
 35 44  2  0  0  0
 35 45  1  0  0  0
 35 68  1  0  0  0
 36 56  1  0  0  0
 36107  1  0  0  0
 37 39  1  0  0  0
 37 47  1  0  0  0
 37 66  1  0  0  0
 37108  1  0  0  0
 38 43  2  0  0  0
 38 46  1  0  0  0
 38 47  1  0  0  0
 39 64  1  0  0  0
 39 67  2  0  0  0
 40 52  1  0  0  0
 40 53  2  0  0  0
 40 58  1  0  0  0
 41109  1  0  0  0
 41110  1  0  0  0
 41111  1  0  0  0
 41 48  1  0  0  0
 42 43  1  0  0  0
 42 66  1  0  0  0
 42112  1  0  0  0
 42113  1  0  0  0
 43 44  1  0  0  0
 44114  1  0  0  0
 45 46  2  0  0  0
 45115  1  0  0  0
 46116  1  0  0  0
 47117  1  0  0  0
 47118  1  0  0  0
 48 56  1  0  0  0
 48 65  1  0  0  0
 48119  1  0  0  0
 49 50  1  0  0  0
 49 53  1  0  0  0
 49 64  1  0  0  0
 49120  1  0  0  0
 50 51  1  0  0  0
 50121  1  0  0  0
 50122  1  0  0  0
 51 52  1  0  0  0
 51123  1  0  0  0
 51124  1  0  0  0
 52125  1  0  0  0
 52126  1  0  0  0
 53 54  1  0  0  0
 54 55  2  0  0  0
 54127  1  0  0  0
 55 57  1  0  0  0
 55128  1  0  0  0
 56 69  2  0  0  0
 57 58  2  0  0  0
 57129  1  0  0  0
 58130  1  0  0  0
 59 60  1  0  0  0
 59 61  1  0  0  0
 59 62  1  0  0  0
 60131  1  0  0  0
 60132  1  0  0  0
 60133  1  0  0  0
 61134  1  0  0  0
 61135  1  0  0  0
 61136  1  0  0  0
 62137  1  0  0  0
 62138  1  0  0  0
 62139  1  0  0  0
 63 65  1  0  0  0
 63140  1  0  0  0
 63141  1  0  0  0
 63142  1  0  0  0
 64143  1  0  0  0
 65144  1  0  0  0
 68 81  1  0  0  0
 71 73  2  0  0  0
 71 76  1  0  0  0
 71145  1  0  0  0
 72 75  1  0  0  0
 72 76  2  0  0  0
 72146  1  0  0  0
 73 74  1  0  0  0
 73 78  1  0  0  0
 74 75  2  0  0  0
 74 79  1  0  0  0
 75 83  1  0  0  0
 76 85  1  0  0  0
 77 80  1  0  0  0
 77 82  2  0  0  0
 77147  1  0  0  0
 78 82  1  0  0  0
 78 84  2  0  0  0
 79148  1  0  0  0
 79149  1  0  0  0
 79150  1  0  0  0
 80 81  1  0  0  0
 80151  1  0  0  0
 80152  1  0  0  0
 81153  1  0  0  0
 81154  1  0  0  0
 83155  1  0  0  0
 84156  1  0  0  0
 84157  1  0  0  0
M  CHG  1  84   1
M  ISO  4   1 100  68 101  81 101  83 100
M  END
> <chiral flag>
0

> <version>
0

> <s_m_source_file>
/data/baiqing/PycharmProjects/Reinvent-master-3.2/result/LINK_invent/BTK/process_docking_weight1_custom_product_contain_oxygen_bond_distance_aromatic_linkinvent_7_9_3/rearranged_h_0041.sdf

> <i_m_source_file_index>
32

> <r_mmod_Potential_Energy-OPLS-2005>
11.1139478683472

> <r_mmod_Stretch_Energy-OPLS-2005>
60.3196640014648

> <r_mmod_Bend_Energy-OPLS-2005>
126.157539367676

> <r_mmod_Torsional_Energy-OPLS-2005>
260.901062011719

> <r_mmod_Improper_Torsional_Energy-OPLS-2005>
7.49417781829834

> <r_mmod_Van_der_Waal_Energy-OPLS-2005>
158.618392944336

> <r_mmod_Electrostatic_Energy-OPLS-2005>
-149.48600769043

> <r_mmod_Solvation_Energy-OPLS-2005>
-472.920806884766

> <b_mmod_Minimization_Converged-OPLS-2005>
0

> <r_mmod_RMS_Derivative-OPLS-2005>
2.10811352729797

$$$$
32
                    3D
 Structure written by MMmdl.
187196  0  0  1  0            999 V2000
  -30.6085  -14.7362   20.4298 C   0  0  0  0  0  0
  -30.4374  -12.4315   19.4878 C   0  0  0  0  0  0
  -29.5199  -12.4289   18.2444 C   0  0  0  0  0  0
  -28.0365  -12.3123   18.6449 C   0  0  0  0  0  0
  -27.6446  -13.2276   19.8371 C   0  0  2  0  0  0
  -28.6819  -13.1675   20.9769 C   0  0  0  0  0  0
  -25.2536  -13.8190   20.5651 C   0  0  0  0  0  0
  -24.1821  -13.0438   20.9169 C   0  0  0  0  0  0
  -24.6394  -11.6921   20.8715 C   0  0  0  0  0  0
  -23.9075  -10.4296   21.0409 C   0  0  0  0  0  0
  -24.3628   -9.4210   21.9184 C   0  0  0  0  0  0
  -23.6312   -8.2240   22.0747 C   0  0  0  0  0  0
  -22.4296   -8.0271   21.3536 C   0  0  0  0  0  0
  -21.9935   -9.0256   20.4645 C   0  0  0  0  0  0
  -22.7251  -10.2131   20.3055 C   0  0  0  0  0  0
  -21.6852   -6.0741   22.5287 C   0  0  0  0  0  0
  -21.4014   -6.5648   23.8219 C   0  0  0  0  0  0
  -21.3660   -5.6788   24.9181 C   0  0  0  0  0  0
  -21.6036   -4.3057   24.7223 C   0  0  0  0  0  0
  -21.8817   -3.8151   23.4349 C   0  0  0  0  0  0
  -21.9188   -4.6972   22.3399 C   0  0  0  0  0  0
  -22.7837  -13.5245   21.1820 C   0  0  0  0  0  0
  -22.1664   -4.2153   21.0980 F   0  0  0  0  0  0
  -21.5630   -3.4544   25.7744 F   0  0  0  0  0  0
  -29.9878  -13.5072   20.4018 N   0  0  0  0  0  0
  -26.2950  -12.9388   20.3183 N   0  0  0  0  0  0
  -25.9328  -11.6544   20.5712 N   0  0  0  0  0  0
  -22.0467  -12.8272   22.0370 N   0  0  0  0  0  0
  -25.4261  -15.1903   20.4113 N   0  0  0  0  0  0
  -31.8021  -14.8241   20.1338 O   0  0  0  0  0  0
  -21.6644   -6.8887   21.4241 O   0  0  0  0  0  0
  -22.3550  -14.5550   20.6649 O   0  0  0  0  0  0
  -24.6364  -31.8526   23.1983 C   0  0  0  0  0  0
  -25.9174  -32.4747   23.8316 C   0  0  1  0  0  0
  -27.2035  -27.2324   20.1304 C   0  0  0  0  0  0
  -25.5970  -33.8541   24.2260 N   0  0  0  0  0  0
  -23.4316  -30.4812   21.5425 C   0  0  2  0  0  0
  -24.8730  -28.9275   20.1097 C   0  0  0  0  0  0
  -22.7498  -29.4607   22.4891 C   0  0  0  0  0  0
  -18.0291  -28.1399   22.8472 C   0  0  0  0  0  0
  -24.1486  -36.7260   23.2643 C   0  0  0  0  0  0
  -25.9819  -30.7570   21.3828 C   0  0  0  0  0  0
  -26.0492  -29.3819   20.7178 C   0  0  0  0  0  0
  -27.2183  -28.5489   20.7104 C   0  0  0  0  0  0
  -25.9876  -26.8441   19.5248 C   0  0  0  0  0  0
  -24.8468  -27.6665   19.5033 C   0  0  0  0  0  0
  -23.6500  -29.8231   20.1566 C   0  0  0  0  0  0
  -25.4112  -36.3054   24.0331 C   0  0  1  0  0  0
  -20.5898  -28.3707   23.1260 C   0  0  2  0  0  0
  -20.6785  -26.9425   22.5403 C   0  0  0  0  0  0
  -19.5761  -26.6389   21.5207 C   0  0  0  0  0  0
  -18.1936  -26.7942   22.1617 C   0  0  0  0  0  0
  -19.1544  -28.8864   23.2866 C   0  0  0  0  0  0
  -18.9467  -30.1468   23.8881 C   0  0  0  0  0  0
  -17.6467  -30.6594   24.0572 C   0  0  0  0  0  0
  -25.9055  -34.9437   23.5088 C   0  0  0  0  0  0
  -16.5361  -29.9098   23.6334 C   0  0  0  0  0  0
  -16.7279  -28.6521   23.0342 C   0  0  0  0  0  0
  -26.4534  -31.6570   25.0701 C   0  0  0  0  0  0
  -25.3758  -31.3711   26.1420 C   0  0  0  0  0  0
  -27.0413  -30.2999   24.6207 C   0  0  0  0  0  0
  -27.6087  -32.4308   25.7471 C   0  0  0  0  0  0
  -27.5578  -37.1775   24.8466 C   0  0  0  0  0  0
  -21.4201  -29.3055   22.3627 N   0  0  0  0  0  0
  -26.4287  -37.3755   23.9412 N   0  0  0  0  0  0
  -24.7031  -31.0468   22.0985 N   0  0  0  0  0  0
  -23.4176  -28.8146   23.3002 O   0  0  0  0  0  0
  -28.3069  -26.3369   20.1817 O   0  0  0  0  0  0
  -26.5602  -34.8919   22.4642 O   0  0  0  0  0  0
  -23.5500  -32.1390   23.7246 O   0  0  0  0  0  0
  -29.5216  -18.4796   20.4807 C   0  0  0  0  0  0
  -29.9805  -18.3926   17.7563 C   0  0  0  0  0  0
  -29.3922  -19.7377   19.7351 C   0  0  0  0  0  0
  -29.6199  -19.6231   18.3308 C   0  0  0  0  0  0
  -29.8683  -17.1835   19.8895 C   0  0  0  0  0  0
  -30.1011  -17.2067   18.4854 C   0  0  0  0  0  0
  -29.4245  -20.7549   17.3313 C   0  0  0  0  0  0
  -28.8618  -21.1385   20.3515 C   0  0  0  0  0  0
  -30.6424  -21.0501   16.4150 C   0  0  0  0  0  0
  -32.0346  -21.0906   17.0887 C   0  0  0  0  0  0
  -32.4491  -22.4567   17.6704 C   0  0  0  0  0  0
  -31.3927  -23.1078   18.5752 C   0  0  0  0  0  0
  -31.1151  -22.3376   19.8772 C   0  0  0  0  0  0
  -28.1246  -30.1853   15.7619 C   0  0  0  0  0  0
  -27.6259  -28.7390   15.8239 C   0  0  0  0  0  0
  -28.6293  -27.7897   16.4919 C   0  0  0  0  0  0
  -28.0451  -26.3834   16.6515 C   0  0  0  0  0  0
  -28.9228  -25.4396   17.4955 C   0  0  0  0  0  0
  -28.0919  -24.5267   18.4240 C   0  0  0  0  0  0
  -29.2293  -23.8811   20.7473 C   0  0  0  0  0  0
  -28.1846  -24.8384   19.9401 C   0  0  1  0  0  0
  -29.8343  -15.8762   20.6103 N   0  0  0  0  0  0
  -29.7148  -22.4333   20.3883 N   0  3  1  0  0  0
  -30.4302  -15.8151   17.5167 Cl  0  0  0  0  0  0
  -31.4788  -12.5519   19.1836 H   0  0  0  0  0  0
  -30.3894  -11.4663   19.9937 H   0  0  0  0  0  0
  -29.7912  -11.5950   17.5941 H   0  0  0  0  0  0
  -29.6722  -13.3219   17.6475 H   0  0  0  0  0  0
  -27.8594  -11.2701   18.9115 H   0  0  0  0  0  0
  -27.3948  -12.5096   17.7848 H   0  0  0  0  0  0
  -27.6471  -14.2469   19.4478 H   0  0  0  0  0  0
  -28.7026  -12.1766   21.4326 H   0  0  0  0  0  0
  -28.4135  -13.8605   21.7750 H   0  0  0  0  0  0
  -25.2778   -9.5713   22.4751 H   0  0  0  0  0  0
  -24.0027   -7.4650   22.7491 H   0  0  0  0  0  0
  -21.0855   -8.8772   19.8983 H   0  0  0  0  0  0
  -22.3706  -10.9662   19.6156 H   0  0  0  0  0  0
  -21.2015   -7.6154   23.9741 H   0  0  0  0  0  0
  -21.1480   -6.0510   25.9081 H   0  0  0  0  0  0
  -22.0601   -2.7617   23.2841 H   0  0  0  0  0  0
  -22.4079  -11.9958   22.4805 H   0  0  0  0  0  0
  -21.1064  -13.1304   22.2498 H   0  0  0  0  0  0
  -24.6542  -15.8396   20.5192 H   0  0  0  0  0  0
  -26.2765  -15.6361   20.0919 H   0  0  0  0  0  0
  -26.7228  -32.5379   23.1037 H   0  0  0  0  0  0
  -25.0158  -33.9668   25.0434 H   0  0  0  0  0  0
  -22.7325  -31.3087   21.4010 H   0  0  0  0  0  0
  -23.3772  -35.9568   23.3290 H   0  0  0  0  0  0
  -24.3585  -36.8895   22.2064 H   0  0  0  0  0  0
  -23.7226  -37.6445   23.6680 H   0  0  0  0  0  0
  -26.1300  -31.5190   20.6176 H   0  0  0  0  0  0
  -26.8565  -30.7970   22.0198 H   0  0  0  0  0  0
  -28.1199  -28.8893   21.2009 H   0  0  0  0  0  0
  -25.8621  -25.8776   19.0746 H   0  0  0  0  0  0
  -23.9416  -27.3025   19.0368 H   0  0  0  0  0  0
  -23.7889  -30.6065   19.4115 H   0  0  0  0  0  0
  -22.7647  -29.2705   19.8372 H   0  0  0  0  0  0
  -25.1300  -36.1899   25.0826 H   0  0  0  0  0  0
  -20.9995  -28.3308   24.1382 H   0  0  0  0  0  0
  -20.5696  -26.2310   23.3597 H   0  0  0  0  0  0
  -21.6654  -26.7455   22.1199 H   0  0  0  0  0  0
  -19.6925  -25.6294   21.1244 H   0  0  0  0  0  0
  -19.6736  -27.3192   20.6732 H   0  0  0  0  0  0
  -17.4211  -26.6687   21.4017 H   0  0  0  0  0  0
  -18.0356  -26.0099   22.9031 H   0  0  0  0  0  0
  -19.7943  -30.7292   24.2238 H   0  0  0  0  0  0
  -17.5026  -31.6267   24.5191 H   0  0  0  0  0  0
  -15.5366  -30.3003   23.7653 H   0  0  0  0  0  0
  -15.8678  -28.0847   22.7050 H   0  0  0  0  0  0
  -24.5914  -30.7100   25.7724 H   0  0  0  0  0  0
  -24.8975  -32.2877   26.4877 H   0  0  0  0  0  0
  -25.8071  -30.8840   27.0177 H   0  0  0  0  0  0
  -26.3005  -29.6703   24.1268 H   0  0  0  0  0  0
  -27.4159  -29.7318   25.4734 H   0  0  0  0  0  0
  -27.8856  -30.4303   23.9434 H   0  0  0  0  0  0
  -27.2708  -33.3630   26.2018 H   0  0  0  0  0  0
  -28.3904  -32.6827   25.0286 H   0  0  0  0  0  0
  -28.0750  -31.8444   26.5405 H   0  0  0  0  0  0
  -28.2576  -38.0086   24.7524 H   0  0  0  0  0  0
  -28.1093  -36.2620   24.6283 H   0  0  0  0  0  0
  -27.2292  -37.1405   25.8864 H   0  0  0  0  0  0
  -20.9369  -29.8797   21.6858 H   0  0  0  0  0  0
  -26.0173  -38.2820   24.1448 H   0  0  0  0  0  0
  -29.3121  -18.5018   21.5413 H   0  0  0  0  0  0
  -30.1212  -18.3319   16.6865 H   0  0  0  0  0  0
  -29.0923  -21.6466   17.8290 H   0  0  0  0  0  0
  -28.5807  -20.4831   16.6960 H   0  0  0  0  0  0
  -28.5984  -20.9368   21.3909 H   0  0  0  0  0  0
  -27.9074  -21.3603   19.8710 H   0  0  0  0  0  0
  -30.4663  -21.9668   15.8505 H   0  0  0  0  0  0
  -30.6801  -20.2654   15.6598 H   0  0  0  0  0  0
  -32.7799  -20.8224   16.3386 H   0  0  0  0  0  0
  -32.1193  -20.3131   17.8467 H   0  0  0  0  0  0
  -32.6630  -23.1345   16.8431 H   0  0  0  0  0  0
  -33.3887  -22.3448   18.2157 H   0  0  0  0  0  0
  -30.4945  -23.2283   17.9895 H   0  0  0  0  0  0
  -31.7067  -24.1213   18.8243 H   0  0  0  0  0  0
  -31.7839  -22.7295   20.6450 H   0  0  0  0  0  0
  -31.4191  -21.2983   19.7875 H   0  0  0  0  0  0
  -27.4045  -30.8202   15.2436 H   0  0  0  0  0  0
  -29.0726  -30.2539   15.2284 H   0  0  0  0  0  0
  -28.2699  -30.5945   16.7628 H   0  0  0  0  0  0
  -27.3957  -28.3869   14.8172 H   0  0  0  0  0  0
  -26.6851  -28.7158   16.3765 H   0  0  0  0  0  0
  -28.8896  -28.1827   17.4760 H   0  0  0  0  0  0
  -29.5549  -27.7478   15.9176 H   0  0  0  0  0  0
  -27.8624  -25.9369   15.6721 H   0  0  0  0  0  0
  -27.0610  -26.4843   17.1047 H   0  0  0  0  0  0
  -29.6532  -25.9934   18.0859 H   0  0  0  0  0  0
  -29.5149  -24.8343   16.8089 H   0  0  0  0  0  0
  -28.3596  -23.4949   18.2700 H   0  0  0  0  0  0
  -27.0553  -24.5067   18.0959 H   0  0  0  0  0  0
  -28.8609  -23.8193   21.7710 H   0  0  0  0  0  0
  -30.1374  -24.4758   20.8461 H   0  0  0  0  0  0
  -27.2219  -24.5395   20.3574 H   0  0  0  0  0  0
  -28.9706  -15.6993   21.0999 H   0  0  0  0  0  0
  -29.9986  -22.2313   21.3368 H   0  0  0  0  0  0
  1 25  1  0  0  0
  1 30  2  0  0  0
  1 92  1  0  0  0
  2  3  1  0  0  0
  2 25  1  0  0  0
  2 95  1  0  0  0
  2 96  1  0  0  0
  3  4  1  0  0  0
  3 97  1  0  0  0
  3 98  1  0  0  0
  4  5  1  0  0  0
  4 99  1  0  0  0
  4100  1  0  0  0
  5  6  1  0  0  0
  5 26  1  0  0  0
  5101  1  0  0  0
  6 25  1  0  0  0
  6102  1  0  0  0
  6103  1  0  0  0
  7  8  2  0  0  0
  7 26  1  0  0  0
  7 29  1  0  0  0
  8  9  1  0  0  0
  8 22  1  0  0  0
  9 10  1  0  0  0
  9 27  2  0  0  0
 10 11  2  0  0  0
 10 15  1  0  0  0
 11 12  1  0  0  0
 11104  1  0  0  0
 12 13  2  0  0  0
 12105  1  0  0  0
 13 14  1  0  0  0
 13 31  1  0  0  0
 14 15  2  0  0  0
 14106  1  0  0  0
 15107  1  0  0  0
 16 17  2  0  0  0
 16 21  1  0  0  0
 16 31  1  0  0  0
 17 18  1  0  0  0
 17108  1  0  0  0
 18 19  2  0  0  0
 18109  1  0  0  0
 19 20  1  0  0  0
 19 24  1  0  0  0
 20 21  2  0  0  0
 20110  1  0  0  0
 21 23  1  0  0  0
 22 28  1  0  0  0
 22 32  2  0  0  0
 26 27  1  0  0  0
 28111  1  0  0  0
 28112  1  0  0  0
 29113  1  0  0  0
 29114  1  0  0  0
 33 34  1  0  0  0
 33 66  1  0  0  0
 33 70  2  0  0  0
 34 36  1  0  0  0
 34 59  1  0  0  0
 34115  1  0  0  0
 35 44  2  0  0  0
 35 45  1  0  0  0
 35 68  1  0  0  0
 36 56  1  0  0  0
 36116  1  0  0  0
 37 39  1  0  0  0
 37 47  1  0  0  0
 37 66  1  0  0  0
 37117  1  0  0  0
 38 43  2  0  0  0
 38 46  1  0  0  0
 38 47  1  0  0  0
 39 64  1  0  0  0
 39 67  2  0  0  0
 40 52  1  0  0  0
 40 53  2  0  0  0
 40 58  1  0  0  0
 41118  1  0  0  0
 41119  1  0  0  0
 41120  1  0  0  0
 41 48  1  0  0  0
 42 43  1  0  0  0
 42 66  1  0  0  0
 42121  1  0  0  0
 42122  1  0  0  0
 43 44  1  0  0  0
 44123  1  0  0  0
 45 46  2  0  0  0
 45124  1  0  0  0
 46125  1  0  0  0
 47126  1  0  0  0
 47127  1  0  0  0
 48 56  1  0  0  0
 48 65  1  0  0  0
 48128  1  0  0  0
 49 50  1  0  0  0
 49 53  1  0  0  0
 49 64  1  0  0  0
 49129  1  0  0  0
 50 51  1  0  0  0
 50130  1  0  0  0
 50131  1  0  0  0
 51 52  1  0  0  0
 51132  1  0  0  0
 51133  1  0  0  0
 52134  1  0  0  0
 52135  1  0  0  0
 53 54  1  0  0  0
 54 55  2  0  0  0
 54136  1  0  0  0
 55 57  1  0  0  0
 55137  1  0  0  0
 56 69  2  0  0  0
 57 58  2  0  0  0
 57138  1  0  0  0
 58139  1  0  0  0
 59 60  1  0  0  0
 59 61  1  0  0  0
 59 62  1  0  0  0
 60140  1  0  0  0
 60141  1  0  0  0
 60142  1  0  0  0
 61143  1  0  0  0
 61144  1  0  0  0
 61145  1  0  0  0
 62146  1  0  0  0
 62147  1  0  0  0
 62148  1  0  0  0
 63 65  1  0  0  0
 63149  1  0  0  0
 63150  1  0  0  0
 63151  1  0  0  0
 64152  1  0  0  0
 65153  1  0  0  0
 68 91  1  0  0  0
 71 73  2  0  0  0
 71 75  1  0  0  0
 71154  1  0  0  0
 72 74  2  0  0  0
 72 76  1  0  0  0
 72155  1  0  0  0
 73 74  1  0  0  0
 73 78  1  0  0  0
 74 77  1  0  0  0
 75 76  2  0  0  0
 75 92  1  0  0  0
 76 94  1  0  0  0
 77 79  1  0  0  0
 77156  1  0  0  0
 77157  1  0  0  0
 78 93  1  0  0  0
 78158  1  0  0  0
 78159  1  0  0  0
 79 80  1  0  0  0
 79160  1  0  0  0
 79161  1  0  0  0
 80 81  1  0  0  0
 80162  1  0  0  0
 80163  1  0  0  0
 81 82  1  0  0  0
 81164  1  0  0  0
 81165  1  0  0  0
 82 83  1  0  0  0
 82166  1  0  0  0
 82167  1  0  0  0
 83 93  1  0  0  0
 83168  1  0  0  0
 83169  1  0  0  0
 84 85  1  0  0  0
 84170  1  0  0  0
 84171  1  0  0  0
 84172  1  0  0  0
 85 86  1  0  0  0
 85173  1  0  0  0
 85174  1  0  0  0
 86 87  1  0  0  0
 86175  1  0  0  0
 86176  1  0  0  0
 87 88  1  0  0  0
 87177  1  0  0  0
 87178  1  0  0  0
 88 89  1  0  0  0
 88179  1  0  0  0
 88180  1  0  0  0
 89181  1  0  0  0
 89182  1  0  0  0
 89 91  1  0  0  0
 90 91  1  0  0  0
 90183  1  0  0  0
 90184  1  0  0  0
 90 93  1  0  0  0
 91185  1  0  0  0
 92186  1  0  0  0
 93187  1  0  0  0
M  CHG  1  93   1
M  ISO  4   1 100  68 101  91 101  92 100
M  END
> <chiral flag>
0

> <version>
0

> <s_m_source_file>
/data/baiqing/PycharmProjects/Reinvent-master-3.2/result/LINK_invent/BTK/process_docking_weight1_custom_product_contain_oxygen_bond_distance_aromatic_linkinvent_7_9_3/rearranged_h_0041.sdf

> <i_m_source_file_index>
33

> <r_mmod_Potential_Energy-OPLS-2005>
321.9697265625

> <r_mmod_Stretch_Energy-OPLS-2005>
156.77067565918

> <r_mmod_Bend_Energy-OPLS-2005>
278.731292724609

> <r_mmod_Torsional_Energy-OPLS-2005>
323.226959228516

> <r_mmod_Improper_Torsional_Energy-OPLS-2005>
6.49755620956421

> <r_mmod_Van_der_Waal_Energy-OPLS-2005>
145.634887695312

> <r_mmod_Electrostatic_Energy-OPLS-2005>
-249.633682250977

> <r_mmod_Solvation_Energy-OPLS-2005>
-432.087646484375

> <b_mmod_Minimization_Converged-OPLS-2005>
0

> <r_mmod_RMS_Derivative-OPLS-2005>
3.57004380226135

$$$$
33
                    3D
 Structure written by MMmdl.
162170  0  0  1  0            999 V2000
  -30.6504  -14.5101   20.5031 C   0  0  0  0  0  0
  -30.4209  -12.3060   19.4304 C   0  0  0  0  0  0
  -29.5004  -12.4865   18.2061 C   0  0  0  0  0  0
  -28.0156  -12.3660   18.6120 C   0  0  0  0  0  0
  -27.6556  -13.1978   19.8755 C   0  0  2  0  0  0
  -28.6979  -12.9985   20.9953 C   0  0  0  0  0  0
  -25.2580  -13.8053   20.5592 C   0  0  0  0  0  0
  -24.1856  -13.0395   20.9147 C   0  0  0  0  0  0
  -24.6395  -11.6838   20.8723 C   0  0  0  0  0  0
  -23.9095  -10.4243   21.0418 C   0  0  0  0  0  0
  -24.3635   -9.4152   21.9200 C   0  0  0  0  0  0
  -23.6299   -8.2188   22.0755 C   0  0  0  0  0  0
  -22.4292   -8.0248   21.3528 C   0  0  0  0  0  0
  -21.9932   -9.0244   20.4638 C   0  0  0  0  0  0
  -22.7262  -10.2117   20.3068 C   0  0  0  0  0  0
  -21.6849   -6.0736   22.5287 C   0  0  0  0  0  0
  -21.3980   -6.5631   23.8218 C   0  0  0  0  0  0
  -21.3677   -5.6784   24.9182 C   0  0  0  0  0  0
  -21.6072   -4.3057   24.7219 C   0  0  0  0  0  0
  -21.8799   -3.8141   23.4332 C   0  0  0  0  0  0
  -21.9168   -4.6960   22.3394 C   0  0  0  0  0  0
  -22.7887  -13.5226   21.1818 C   0  0  0  0  0  0
  -22.1647   -4.2152   21.0972 F   0  0  0  0  0  0
  -21.5674   -3.4542   25.7736 F   0  0  0  0  0  0
  -30.0127  -13.3096   20.4275 N   0  0  0  0  0  0
  -26.3005  -12.9234   20.3339 N   0  0  0  0  0  0
  -25.9310  -11.6417   20.5783 N   0  0  0  0  0  0
  -22.0507  -12.8263   22.0347 N   0  0  0  0  0  0
  -25.4301  -15.1721   20.3828 N   0  0  0  0  0  0
  -31.8270  -14.6551   20.1629 O   0  0  0  0  0  0
  -21.6618   -6.8877   21.4250 O   0  0  0  0  0  0
  -22.3607  -14.5571   20.6727 O   0  0  0  0  0  0
  -24.6092  -31.8692   23.2131 C   0  0  0  0  0  0
  -25.8991  -32.4826   23.8391 C   0  0  1  0  0  0
  -27.2437  -27.4370   20.0959 C   0  0  0  0  0  0
  -25.5871  -33.8624   24.2331 N   0  0  0  0  0  0
  -23.3968  -30.4910   21.5567 C   0  0  2  0  0  0
  -24.8435  -28.9543   20.1149 C   0  0  0  0  0  0
  -22.7450  -29.4589   22.5009 C   0  0  0  0  0  0
  -18.0372  -28.1183   22.8370 C   0  0  0  0  0  0
  -24.1476  -36.7316   23.2644 C   0  0  0  0  0  0
  -25.9236  -30.8373   21.3637 C   0  0  0  0  0  0
  -25.9988  -29.4702   20.7121 C   0  0  0  0  0  0
  -27.1940  -28.7153   20.7037 C   0  0  0  0  0  0
  -26.0658  -26.9370   19.4920 C   0  0  0  0  0  0
  -24.8710  -27.6852   19.5076 C   0  0  0  0  0  0
  -23.6017  -29.8217   20.1699 C   0  0  0  0  0  0
  -25.4102  -36.3127   24.0332 C   0  0  1  0  0  0
  -20.5976  -28.3411   23.1268 C   0  0  2  0  0  0
  -20.6941  -26.9244   22.5188 C   0  0  0  0  0  0
  -19.5821  -26.5924   21.5168 C   0  0  0  0  0  0
  -18.1910  -26.7801   22.1297 C   0  0  0  0  0  0
  -19.1635  -28.8603   23.2778 C   0  0  0  0  0  0
  -18.9661  -30.1200   23.8828 C   0  0  0  0  0  0
  -17.6756  -30.6434   24.0610 C   0  0  0  0  0  0
  -25.9048  -34.9489   23.5172 C   0  0  0  0  0  0
  -16.5596  -29.8986   23.6409 C   0  0  0  0  0  0
  -16.7395  -28.6399   23.0330 C   0  0  0  0  0  0
  -26.4469  -31.6618   25.0711 C   0  0  0  0  0  0
  -25.3775  -31.3670   26.1465 C   0  0  0  0  0  0
  -27.0263  -30.3043   24.6091 C   0  0  0  0  0  0
  -27.6055  -32.4314   25.7476 C   0  0  0  0  0  0
  -27.5572  -37.1823   24.8471 C   0  0  0  0  0  0
  -21.4180  -29.3010   22.3876 N   0  0  0  0  0  0
  -26.4286  -37.3801   23.9437 N   0  0  0  0  0  0
  -24.6605  -31.0803   22.1014 N   0  0  0  0  0  0
  -23.4311  -28.7954   23.2841 O   0  0  0  0  0  0
  -28.4450  -26.7539   20.1141 O   0  0  0  0  0  0
  -26.5611  -34.8944   22.4724 O   0  0  0  0  0  0
  -23.5292  -32.1385   23.7584 O   0  0  0  0  0  0
  -29.4659  -18.8845   21.9255 C   0  0  0  0  0  0
  -29.0189  -20.1987   21.6537 C   0  0  0  0  0  0
  -27.7966  -18.0284   20.4050 C   0  0  0  0  0  0
  -28.8738  -17.7793   21.2826 C   0  0  0  0  0  0
  -27.9490  -20.4543   20.7657 C   0  0  0  0  0  0
  -27.2839  -19.3364   20.1781 C   0  0  0  0  0  0
  -24.8206  -20.1506   20.1358 C   0  0  0  0  0  0
  -29.3268  -16.3392   21.6004 C   0  0  0  0  0  0
  -27.4715  -21.9106   20.5578 C   0  0  0  0  0  0
  -28.0169  -24.3317   20.5551 C   0  0  0  0  0  0
  -28.5687  -25.4169   19.5971 C   0  0  0  0  0  0
  -25.9831  -19.4860   19.3646 C   0  0  0  0  0  0
  -29.8363  -15.5843   20.4442 N   0  0  0  0  0  0
  -28.5040  -22.9431   20.2845 N   0  3  0  0  0  0
  -25.5276  -18.2855   19.0048 F   0  0  0  0  0  0
  -26.2321  -20.1629   18.2434 F   0  0  0  0  0  0
  -31.4665  -12.4102   19.1357 H   0  0  0  0  0  0
  -30.3196  -11.2980   19.8362 H   0  0  0  0  0  0
  -29.7353  -11.7444   17.4418 H   0  0  0  0  0  0
  -29.6810  -13.4604   17.7465 H   0  0  0  0  0  0
  -27.8051  -11.3110   18.7923 H   0  0  0  0  0  0
  -27.3746  -12.6645   17.7796 H   0  0  0  0  0  0
  -27.6899  -14.2438   19.5753 H   0  0  0  0  0  0
  -28.6756  -11.9737   21.3666 H   0  0  0  0  0  0
  -28.4672  -13.6234   21.8575 H   0  0  0  0  0  0
  -25.2755   -9.5664   22.4814 H   0  0  0  0  0  0
  -24.0003   -7.4598   22.7496 H   0  0  0  0  0  0
  -21.0845   -8.8798   19.8943 H   0  0  0  0  0  0
  -22.3723  -10.9708   19.6233 H   0  0  0  0  0  0
  -21.1924   -7.6135   23.9729 H   0  0  0  0  0  0
  -21.1558   -6.0512   25.9110 H   0  0  0  0  0  0
  -22.0552   -2.7595   23.2833 H   0  0  0  0  0  0
  -22.4120  -11.9912   22.4751 H   0  0  0  0  0  0
  -21.1182  -13.1367   22.2598 H   0  0  0  0  0  0
  -24.6448  -15.8087   20.4039 H   0  0  0  0  0  0
  -26.2480  -15.5609   19.9340 H   0  0  0  0  0  0
  -26.7046  -32.5533   23.1153 H   0  0  0  0  0  0
  -25.0002  -33.9765   25.0461 H   0  0  0  0  0  0
  -22.6766  -31.3023   21.4206 H   0  0  0  0  0  0
  -23.3754  -35.9637   23.3327 H   0  0  0  0  0  0
  -24.3578  -36.8907   22.2063 H   0  0  0  0  0  0
  -23.7220  -37.6522   23.6639 H   0  0  0  0  0  0
  -26.0310  -31.6010   20.5915 H   0  0  0  0  0  0
  -26.8119  -30.8932   21.9784 H   0  0  0  0  0  0
  -28.0848  -29.1171   21.1672 H   0  0  0  0  0  0
  -26.0467  -25.9792   18.9943 H   0  0  0  0  0  0
  -23.9777  -27.2799   19.0509 H   0  0  0  0  0  0
  -23.7005  -30.6013   19.4124 H   0  0  0  0  0  0
  -22.7324  -29.2318   19.8746 H   0  0  0  0  0  0
  -25.1291  -36.2005   25.0809 H   0  0  0  0  0  0
  -21.0113  -28.2856   24.1384 H   0  0  0  0  0  0
  -20.6033  -26.2052   23.3340 H   0  0  0  0  0  0
  -21.6804  -26.7348   22.0872 H   0  0  0  0  0  0
  -19.7004  -25.5674   21.1671 H   0  0  0  0  0  0
  -19.6806  -27.2201   20.6323 H   0  0  0  0  0  0
  -17.4346  -26.7008   21.3422 H   0  0  0  0  0  0
  -17.9861  -25.9708   22.8332 H   0  0  0  0  0  0
  -19.8217  -30.6940   24.2141 H   0  0  0  0  0  0
  -17.5500  -31.6159   24.5180 H   0  0  0  0  0  0
  -15.5616  -30.2965   23.7772 H   0  0  0  0  0  0
  -15.8727  -28.0792   22.7146 H   0  0  0  0  0  0
  -24.6001  -30.6946   25.7817 H   0  0  0  0  0  0
  -24.8891  -32.2782   26.4915 H   0  0  0  0  0  0
  -25.8154  -30.8868   27.0225 H   0  0  0  0  0  0
  -26.2763  -29.6829   24.1156 H   0  0  0  0  0  0
  -27.4032  -29.7243   25.4538 H   0  0  0  0  0  0
  -27.8622  -30.4340   23.9203 H   0  0  0  0  0  0
  -27.2707  -33.3629   26.2051 H   0  0  0  0  0  0
  -28.3877  -32.6844   25.0310 H   0  0  0  0  0  0
  -28.0713  -31.8435   26.5403 H   0  0  0  0  0  0
  -28.2615  -38.0091   24.7513 H   0  0  0  0  0  0
  -28.1032  -36.2638   24.6306 H   0  0  0  0  0  0
  -27.2292  -37.1483   25.8865 H   0  0  0  0  0  0
  -20.9132  -29.9274   21.7793 H   0  0  0  0  0  0
  -26.0184  -38.2873   24.1443 H   0  0  0  0  0  0
  -30.2578  -18.7245   22.6436 H   0  0  0  0  0  0
  -29.4973  -21.0210   22.1673 H   0  0  0  0  0  0
  -27.3358  -17.1741   19.9400 H   0  0  0  0  0  0
  -24.7772  -19.8046   21.1699 H   0  0  0  0  0  0
  -23.8685  -19.9070   19.6620 H   0  0  0  0  0  0
  -24.8777  -21.2397   20.1555 H   0  0  0  0  0  0
  -30.0936  -16.3613   22.3734 H   0  0  0  0  0  0
  -28.4717  -15.8153   22.0344 H   0  0  0  0  0  0
  -26.8804  -22.1879   21.4340 H   0  0  0  0  0  0
  -26.8236  -21.9827   19.6907 H   0  0  0  0  0  0
  -26.9283  -24.3595   20.5213 H   0  0  0  0  0  0
  -28.2929  -24.5704   21.5832 H   0  0  0  0  0  0
  -28.1380  -25.3224   18.5974 H   0  0  0  0  0  0
  -29.6428  -25.2656   19.4686 H   0  0  0  0  0  0
  -30.1582  -16.2225   19.7317 H   0  0  0  0  0  0
  -28.7963  -22.8340   19.3243 H   0  0  0  0  0  0
  -29.3158  -22.7755   20.8557 H   0  0  0  0  0  0
  1 25  1  0  0  0
  1 30  2  0  0  0
  1 83  1  0  0  0
  2  3  1  0  0  0
  2 25  1  0  0  0
  2 87  1  0  0  0
  2 88  1  0  0  0
  3  4  1  0  0  0
  3 89  1  0  0  0
  3 90  1  0  0  0
  4  5  1  0  0  0
  4 91  1  0  0  0
  4 92  1  0  0  0
  5  6  1  0  0  0
  5 26  1  0  0  0
  5 93  1  0  0  0
  6 25  1  0  0  0
  6 94  1  0  0  0
  6 95  1  0  0  0
  7  8  2  0  0  0
  7 26  1  0  0  0
  7 29  1  0  0  0
  8  9  1  0  0  0
  8 22  1  0  0  0
  9 10  1  0  0  0
  9 27  2  0  0  0
 10 11  2  0  0  0
 10 15  1  0  0  0
 11 12  1  0  0  0
 11 96  1  0  0  0
 12 13  2  0  0  0
 12 97  1  0  0  0
 13 14  1  0  0  0
 13 31  1  0  0  0
 14 15  2  0  0  0
 14 98  1  0  0  0
 15 99  1  0  0  0
 16 17  2  0  0  0
 16 21  1  0  0  0
 16 31  1  0  0  0
 17 18  1  0  0  0
 17100  1  0  0  0
 18 19  2  0  0  0
 18101  1  0  0  0
 19 20  1  0  0  0
 19 24  1  0  0  0
 20 21  2  0  0  0
 20102  1  0  0  0
 21 23  1  0  0  0
 22 28  1  0  0  0
 22 32  2  0  0  0
 26 27  1  0  0  0
 28103  1  0  0  0
 28104  1  0  0  0
 29105  1  0  0  0
 29106  1  0  0  0
 33 34  1  0  0  0
 33 66  1  0  0  0
 33 70  2  0  0  0
 34 36  1  0  0  0
 34 59  1  0  0  0
 34107  1  0  0  0
 35 44  2  0  0  0
 35 45  1  0  0  0
 35 68  1  0  0  0
 36 56  1  0  0  0
 36108  1  0  0  0
 37 39  1  0  0  0
 37 47  1  0  0  0
 37 66  1  0  0  0
 37109  1  0  0  0
 38 43  2  0  0  0
 38 46  1  0  0  0
 38 47  1  0  0  0
 39 64  1  0  0  0
 39 67  2  0  0  0
 40 52  1  0  0  0
 40 53  2  0  0  0
 40 58  1  0  0  0
 41110  1  0  0  0
 41111  1  0  0  0
 41112  1  0  0  0
 41 48  1  0  0  0
 42 43  1  0  0  0
 42 66  1  0  0  0
 42113  1  0  0  0
 42114  1  0  0  0
 43 44  1  0  0  0
 44115  1  0  0  0
 45 46  2  0  0  0
 45116  1  0  0  0
 46117  1  0  0  0
 47118  1  0  0  0
 47119  1  0  0  0
 48 56  1  0  0  0
 48 65  1  0  0  0
 48120  1  0  0  0
 49 50  1  0  0  0
 49 53  1  0  0  0
 49 64  1  0  0  0
 49121  1  0  0  0
 50 51  1  0  0  0
 50122  1  0  0  0
 50123  1  0  0  0
 51 52  1  0  0  0
 51124  1  0  0  0
 51125  1  0  0  0
 52126  1  0  0  0
 52127  1  0  0  0
 53 54  1  0  0  0
 54 55  2  0  0  0
 54128  1  0  0  0
 55 57  1  0  0  0
 55129  1  0  0  0
 56 69  2  0  0  0
 57 58  2  0  0  0
 57130  1  0  0  0
 58131  1  0  0  0
 59 60  1  0  0  0
 59 61  1  0  0  0
 59 62  1  0  0  0
 60132  1  0  0  0
 60133  1  0  0  0
 60134  1  0  0  0
 61135  1  0  0  0
 61136  1  0  0  0
 61137  1  0  0  0
 62138  1  0  0  0
 62139  1  0  0  0
 62140  1  0  0  0
 63 65  1  0  0  0
 63141  1  0  0  0
 63142  1  0  0  0
 63143  1  0  0  0
 64144  1  0  0  0
 65145  1  0  0  0
 68 81  1  0  0  0
 71 72  2  0  0  0
 71 74  1  0  0  0
 71146  1  0  0  0
 72 75  1  0  0  0
 72147  1  0  0  0
 73 74  2  0  0  0
 73 76  1  0  0  0
 73148  1  0  0  0
 74 78  1  0  0  0
 75 76  2  0  0  0
 75 79  1  0  0  0
 76 82  1  0  0  0
 77149  1  0  0  0
 77150  1  0  0  0
 77151  1  0  0  0
 77 82  1  0  0  0
 78 83  1  0  0  0
 78152  1  0  0  0
 78153  1  0  0  0
 79 84  1  0  0  0
 79154  1  0  0  0
 79155  1  0  0  0
 80 81  1  0  0  0
 80 84  1  0  0  0
 80156  1  0  0  0
 80157  1  0  0  0
 81158  1  0  0  0
 81159  1  0  0  0
 82 85  1  0  0  0
 82 86  1  0  0  0
 83160  1  0  0  0
 84161  1  0  0  0
 84162  1  0  0  0
M  CHG  1  84   1
M  ISO  4   1 100  68 101  81 101  83 100
M  END
> <chiral flag>
0

> <version>
0

> <s_m_source_file>
/data/baiqing/PycharmProjects/Reinvent-master-3.2/result/LINK_invent/BTK/process_docking_weight1_custom_product_contain_oxygen_bond_distance_aromatic_linkinvent_7_9_3/rearranged_h_0041.sdf

> <i_m_source_file_index>
34

> <r_mmod_Potential_Energy-OPLS-2005>
-172.853424072266

> <r_mmod_Stretch_Energy-OPLS-2005>
41.8870735168457

> <r_mmod_Bend_Energy-OPLS-2005>
120.498428344727

> <r_mmod_Torsional_Energy-OPLS-2005>
271.955200195312

> <r_mmod_Improper_Torsional_Energy-OPLS-2005>
22.7305965423584

> <r_mmod_Van_der_Waal_Energy-OPLS-2005>
147.61833190918

> <r_mmod_Electrostatic_Energy-OPLS-2005>
-350.128753662109

> <r_mmod_Solvation_Energy-OPLS-2005>
-446.563049316406

> <b_mmod_Minimization_Converged-OPLS-2005>
0

> <r_mmod_RMS_Derivative-OPLS-2005>
7.68117141723633

$$$$
34
                    3D
 Structure written by MMmdl.
167176  0  0  1  0            999 V2000
  -30.6478  -14.6226   20.5175 C   0  0  0  0  0  0
  -30.4416  -12.3913   19.4476 C   0  0  0  0  0  0
  -29.5122  -12.5228   18.2216 C   0  0  0  0  0  0
  -28.0310  -12.3661   18.6269 C   0  0  0  0  0  0
  -27.6572  -13.2176   19.8686 C   0  0  2  0  0  0
  -28.7047  -13.0621   20.9953 C   0  0  0  0  0  0
  -25.2596  -13.8158   20.5706 C   0  0  0  0  0  0
  -24.1857  -13.0446   20.9207 C   0  0  0  0  0  0
  -24.6421  -11.6914   20.8744 C   0  0  0  0  0  0
  -23.9069  -10.4321   21.0416 C   0  0  0  0  0  0
  -24.3625   -9.4233   21.9181 C   0  0  0  0  0  0
  -23.6310   -8.2251   22.0737 C   0  0  0  0  0  0
  -22.4284   -8.0285   21.3538 C   0  0  0  0  0  0
  -21.9932   -9.0268   20.4645 C   0  0  0  0  0  0
  -22.7250  -10.2153   20.3069 C   0  0  0  0  0  0
  -21.6865   -6.0748   22.5274 C   0  0  0  0  0  0
  -21.4018   -6.5644   23.8220 C   0  0  0  0  0  0
  -21.3666   -5.6784   24.9178 C   0  0  0  0  0  0
  -21.6050   -4.3044   24.7199 C   0  0  0  0  0  0
  -21.8832   -3.8143   23.4316 C   0  0  0  0  0  0
  -21.9205   -4.6975   22.3388 C   0  0  0  0  0  0
  -22.7881  -13.5259   21.1843 C   0  0  0  0  0  0
  -22.1674   -4.2175   21.0963 F   0  0  0  0  0  0
  -21.5629   -3.4528   25.7709 F   0  0  0  0  0  0
  -30.0244  -13.4057   20.4352 N   0  0  0  0  0  0
  -26.3026  -12.9340   20.3335 N   0  0  0  0  0  0
  -25.9346  -11.6494   20.5738 N   0  0  0  0  0  0
  -22.0491  -12.8277   22.0408 N   0  0  0  0  0  0
  -25.4285  -15.1883   20.4148 N   0  0  0  0  0  0
  -31.7961  -14.7910   20.1010 O   0  0  0  0  0  0
  -21.6627   -6.8893   21.4246 O   0  0  0  0  0  0
  -22.3578  -14.5558   20.6675 O   0  0  0  0  0  0
  -24.6257  -31.8616   23.2040 C   0  0  0  0  0  0
  -25.9115  -32.4779   23.8367 C   0  0  1  0  0  0
  -27.2252  -27.3298   20.1134 C   0  0  0  0  0  0
  -25.5937  -33.8576   24.2296 N   0  0  0  0  0  0
  -23.4175  -30.4868   21.5465 C   0  0  2  0  0  0
  -24.8666  -28.9501   20.0978 C   0  0  0  0  0  0
  -22.7489  -29.4634   22.4944 C   0  0  0  0  0  0
  -18.0310  -28.1385   22.8490 C   0  0  0  0  0  0
  -24.1485  -36.7276   23.2635 C   0  0  0  0  0  0
  -25.9572  -30.7935   21.3727 C   0  0  0  0  0  0
  -26.0326  -29.4231   20.7129 C   0  0  0  0  0  0
  -27.2126  -28.6250   20.7143 C   0  0  0  0  0  0
  -26.0492  -26.9295   19.4332 C   0  0  0  0  0  0
  -24.8789  -27.7082   19.4453 C   0  0  0  0  0  0
  -23.6290  -29.8219   20.1593 C   0  0  0  0  0  0
  -25.4100  -36.3086   24.0351 C   0  0  1  0  0  0
  -20.5911  -28.3673   23.1302 C   0  0  2  0  0  0
  -20.6795  -26.9401   22.5406 C   0  0  0  0  0  0
  -19.5790  -26.6419   21.5177 C   0  0  0  0  0  0
  -18.1934  -26.7966   22.1523 C   0  0  0  0  0  0
  -19.1555  -28.8840   23.2908 C   0  0  0  0  0  0
  -18.9477  -30.1436   23.8945 C   0  0  0  0  0  0
  -17.6464  -30.6576   24.0580 C   0  0  0  0  0  0
  -25.9044  -34.9459   23.5123 C   0  0  0  0  0  0
  -16.5366  -29.9071   23.6331 C   0  0  0  0  0  0
  -16.7282  -28.6481   23.0359 C   0  0  0  0  0  0
  -26.4506  -31.6566   25.0718 C   0  0  0  0  0  0
  -25.3754  -31.3675   26.1457 C   0  0  0  0  0  0
  -27.0328  -30.3002   24.6143 C   0  0  0  0  0  0
  -27.6091  -32.4292   25.7461 C   0  0  0  0  0  0
  -27.5583  -37.1799   24.8473 C   0  0  0  0  0  0
  -21.4204  -29.3031   22.3694 N   0  0  0  0  0  0
  -26.4280  -37.3777   23.9423 N   0  0  0  0  0  0
  -24.6850  -31.0651   22.0975 N   0  0  0  0  0  0
  -23.4223  -28.8185   23.3025 O   0  0  0  0  0  0
  -28.3091  -26.4414   20.2534 O   0  0  0  0  0  0
  -26.5614  -34.8935   22.4687 O   0  0  0  0  0  0
  -23.5432  -32.1394   23.7393 O   0  0  0  0  0  0
  -30.7169  -17.9672   21.5424 C   0  0  0  0  0  0
  -29.2378  -19.1048   19.4683 C   0  0  0  0  0  0
  -30.7093  -19.3870   21.3597 C   0  0  0  0  0  0
  -29.9486  -19.9990   20.3144 C   0  0  0  0  0  0
  -30.0037  -17.0864   20.6882 C   0  0  0  0  0  0
  -29.2622  -17.6922   19.6395 C   0  0  0  0  0  0
  -27.7844  -21.9436   21.2254 C   0  0  0  0  0  0
  -27.6090  -21.1904   22.3255 C   0  0  0  0  0  0
  -26.6938  -22.3269   20.2508 C   0  0  0  0  0  0
  -25.9432  -23.5616   20.7704 C   0  0  0  0  0  0
  -26.8952  -24.6502   21.3120 C   0  0  0  0  0  0
  -29.2895  -24.0104   20.6043 C   0  0  0  0  0  0
  -28.0379  -24.9717   20.3034 C   0  0  2  0  0  0
  -31.5414  -20.2346   22.3097 C   0  0  0  0  0  0
  -29.9482  -21.5511   19.9972 C   0  0  0  0  0  0
  -29.8870  -15.6614   20.9668 N   0  0  0  0  0  0
  -29.1258  -22.4926   20.8549 N   0  3  2  0  0  0
  -28.3555  -16.7148   18.5388 Cl  0  0  0  0  0  0
  -31.4820  -12.5159   19.1433 H   0  0  0  0  0  0
  -30.3745  -11.3914   19.8764 H   0  0  0  0  0  0
  -29.7762  -11.7797   17.4698 H   0  0  0  0  0  0
  -29.6606  -13.4960   17.7519 H   0  0  0  0  0  0
  -27.8565  -11.3101   18.8346 H   0  0  0  0  0  0
  -27.3797  -12.6228   17.7895 H   0  0  0  0  0  0
  -27.6789  -14.2550   19.5441 H   0  0  0  0  0  0
  -28.7123  -12.0351   21.3660 H   0  0  0  0  0  0
  -28.4465  -13.6858   21.8537 H   0  0  0  0  0  0
  -25.2785   -9.5704   22.4733 H   0  0  0  0  0  0
  -24.0044   -7.4642   22.7442 H   0  0  0  0  0  0
  -21.0862   -8.8797   19.8949 H   0  0  0  0  0  0
  -22.3722  -10.9691   19.6158 H   0  0  0  0  0  0
  -21.1998   -7.6148   23.9749 H   0  0  0  0  0  0
  -21.1477   -6.0485   25.9097 H   0  0  0  0  0  0
  -22.0603   -2.7604   23.2796 H   0  0  0  0  0  0
  -22.4073  -11.9954   22.4856 H   0  0  0  0  0  0
  -21.1104  -13.1332   22.2524 H   0  0  0  0  0  0
  -24.6496  -15.8320   20.5099 H   0  0  0  0  0  0
  -26.2584  -15.6257   20.0353 H   0  0  0  0  0  0
  -26.7177  -32.5443   23.1111 H   0  0  0  0  0  0
  -25.0118  -33.9680   25.0473 H   0  0  0  0  0  0
  -22.7074  -31.3047   21.4077 H   0  0  0  0  0  0
  -23.3767  -35.9590   23.3272 H   0  0  0  0  0  0
  -24.3584  -36.8907   22.2051 H   0  0  0  0  0  0
  -23.7226  -37.6473   23.6651 H   0  0  0  0  0  0
  -26.0883  -31.5536   20.6014 H   0  0  0  0  0  0
  -26.8395  -30.8425   22.0001 H   0  0  0  0  0  0
  -28.0988  -28.9762   21.2235 H   0  0  0  0  0  0
  -25.9969  -25.9833   18.9173 H   0  0  0  0  0  0
  -23.9907  -27.3405   18.9492 H   0  0  0  0  0  0
  -23.7336  -30.5980   19.4003 H   0  0  0  0  0  0
  -22.7512  -29.2431   19.8651 H   0  0  0  0  0  0
  -25.1281  -36.1940   25.0849 H   0  0  0  0  0  0
  -21.0033  -28.3252   24.1417 H   0  0  0  0  0  0
  -20.5680  -26.2279   23.3591 H   0  0  0  0  0  0
  -21.6681  -26.7423   22.1246 H   0  0  0  0  0  0
  -19.6949  -25.6355   21.1145 H   0  0  0  0  0  0
  -19.6779  -27.3274   20.6751 H   0  0  0  0  0  0
  -17.4275  -26.6900   21.3820 H   0  0  0  0  0  0
  -18.0190  -26.0020   22.8797 H   0  0  0  0  0  0
  -19.7942  -30.7255   24.2343 H   0  0  0  0  0  0
  -17.5014  -31.6252   24.5201 H   0  0  0  0  0  0
  -15.5361  -30.2984   23.7639 H   0  0  0  0  0  0
  -15.8686  -28.0800   22.7062 H   0  0  0  0  0  0
  -24.5993  -30.6934   25.7804 H   0  0  0  0  0  0
  -24.8853  -32.2806   26.4850 H   0  0  0  0  0  0
  -25.8118  -30.8917   27.0248 H   0  0  0  0  0  0
  -26.2871  -29.6775   24.1196 H   0  0  0  0  0  0
  -27.4055  -29.7258   25.4628 H   0  0  0  0  0  0
  -27.8737  -30.4288   23.9336 H   0  0  0  0  0  0
  -27.2736  -33.3616   26.2006 H   0  0  0  0  0  0
  -28.3890  -32.6795   25.0258 H   0  0  0  0  0  0
  -28.0763  -31.8422   26.5384 H   0  0  0  0  0  0
  -28.2602  -38.0094   24.7535 H   0  0  0  0  0  0
  -28.1088  -36.2646   24.6277 H   0  0  0  0  0  0
  -27.2317  -37.1399   25.8878 H   0  0  0  0  0  0
  -20.9378  -29.8747   21.6906 H   0  0  0  0  0  0
  -26.0183  -38.2863   24.1418 H   0  0  0  0  0  0
  -31.2714  -17.5422   22.3677 H   0  0  0  0  0  0
  -28.6642  -19.5070   18.6446 H   0  0  0  0  0  0
  -26.6325  -20.7995   22.5738 H   0  0  0  0  0  0
  -28.4188  -20.9349   22.9917 H   0  0  0  0  0  0
  -26.0037  -21.4889   20.1348 H   0  0  0  0  0  0
  -27.1100  -22.4994   19.2562 H   0  0  0  0  0  0
  -25.2577  -23.2624   21.5647 H   0  0  0  0  0  0
  -25.3172  -23.9616   19.9717 H   0  0  0  0  0  0
  -27.3216  -24.3448   22.2681 H   0  0  0  0  0  0
  -26.2938  -25.5137   21.5869 H   0  0  0  0  0  0
  -29.7467  -24.3907   21.5194 H   0  0  0  0  0  0
  -30.0458  -24.1665   19.8344 H   0  0  0  0  0  0
  -27.7099  -24.7171   19.2961 H   0  0  0  0  0  0
  -32.0730  -19.6160   23.0355 H   0  0  0  0  0  0
  -30.9090  -20.9240   22.8672 H   0  0  0  0  0  0
  -32.2892  -20.8158   21.7681 H   0  0  0  0  0  0
  -29.6170  -21.6859   18.9673 H   0  0  0  0  0  0
  -30.9837  -21.8944   20.0093 H   0  0  0  0  0  0
  -28.9716  -15.3735   21.2722 H   0  0  0  0  0  0
  -29.6501  -22.4195   21.7128 H   0  0  0  0  0  0
  1 25  1  0  0  0
  1 30  2  0  0  0
  1 86  1  0  0  0
  2  3  1  0  0  0
  2 25  1  0  0  0
  2 89  1  0  0  0
  2 90  1  0  0  0
  3  4  1  0  0  0
  3 91  1  0  0  0
  3 92  1  0  0  0
  4  5  1  0  0  0
  4 93  1  0  0  0
  4 94  1  0  0  0
  5  6  1  0  0  0
  5 26  1  0  0  0
  5 95  1  0  0  0
  6 25  1  0  0  0
  6 96  1  0  0  0
  6 97  1  0  0  0
  7  8  2  0  0  0
  7 26  1  0  0  0
  7 29  1  0  0  0
  8  9  1  0  0  0
  8 22  1  0  0  0
  9 10  1  0  0  0
  9 27  2  0  0  0
 10 11  2  0  0  0
 10 15  1  0  0  0
 11 12  1  0  0  0
 11 98  1  0  0  0
 12 13  2  0  0  0
 12 99  1  0  0  0
 13 14  1  0  0  0
 13 31  1  0  0  0
 14 15  2  0  0  0
 14100  1  0  0  0
 15101  1  0  0  0
 16 17  2  0  0  0
 16 21  1  0  0  0
 16 31  1  0  0  0
 17 18  1  0  0  0
 17102  1  0  0  0
 18 19  2  0  0  0
 18103  1  0  0  0
 19 20  1  0  0  0
 19 24  1  0  0  0
 20 21  2  0  0  0
 20104  1  0  0  0
 21 23  1  0  0  0
 22 28  1  0  0  0
 22 32  2  0  0  0
 26 27  1  0  0  0
 28105  1  0  0  0
 28106  1  0  0  0
 29107  1  0  0  0
 29108  1  0  0  0
 33 34  1  0  0  0
 33 66  1  0  0  0
 33 70  2  0  0  0
 34 36  1  0  0  0
 34 59  1  0  0  0
 34109  1  0  0  0
 35 44  2  0  0  0
 35 45  1  0  0  0
 35 68  1  0  0  0
 36 56  1  0  0  0
 36110  1  0  0  0
 37 39  1  0  0  0
 37 47  1  0  0  0
 37 66  1  0  0  0
 37111  1  0  0  0
 38 43  2  0  0  0
 38 46  1  0  0  0
 38 47  1  0  0  0
 39 64  1  0  0  0
 39 67  2  0  0  0
 40 52  1  0  0  0
 40 53  2  0  0  0
 40 58  1  0  0  0
 41112  1  0  0  0
 41113  1  0  0  0
 41114  1  0  0  0
 41 48  1  0  0  0
 42 43  1  0  0  0
 42 66  1  0  0  0
 42115  1  0  0  0
 42116  1  0  0  0
 43 44  1  0  0  0
 44117  1  0  0  0
 45 46  2  0  0  0
 45118  1  0  0  0
 46119  1  0  0  0
 47120  1  0  0  0
 47121  1  0  0  0
 48 56  1  0  0  0
 48 65  1  0  0  0
 48122  1  0  0  0
 49 50  1  0  0  0
 49 53  1  0  0  0
 49 64  1  0  0  0
 49123  1  0  0  0
 50 51  1  0  0  0
 50124  1  0  0  0
 50125  1  0  0  0
 51 52  1  0  0  0
 51126  1  0  0  0
 51127  1  0  0  0
 52128  1  0  0  0
 52129  1  0  0  0
 53 54  1  0  0  0
 54 55  2  0  0  0
 54130  1  0  0  0
 55 57  1  0  0  0
 55131  1  0  0  0
 56 69  2  0  0  0
 57 58  2  0  0  0
 57132  1  0  0  0
 58133  1  0  0  0
 59 60  1  0  0  0
 59 61  1  0  0  0
 59 62  1  0  0  0
 60134  1  0  0  0
 60135  1  0  0  0
 60136  1  0  0  0
 61137  1  0  0  0
 61138  1  0  0  0
 61139  1  0  0  0
 62140  1  0  0  0
 62141  1  0  0  0
 62142  1  0  0  0
 63 65  1  0  0  0
 63143  1  0  0  0
 63144  1  0  0  0
 63145  1  0  0  0
 64146  1  0  0  0
 65147  1  0  0  0
 68 83  1  0  0  0
 71 73  2  0  0  0
 71 75  1  0  0  0
 71148  1  0  0  0
 72 74  2  0  0  0
 72 76  1  0  0  0
 72149  1  0  0  0
 73 74  1  0  0  0
 73 84  1  0  0  0
 74 85  1  0  0  0
 75 76  2  0  0  0
 75 86  1  0  0  0
 76 88  1  0  0  0
 77 78  2  0  0  0
 77 79  1  0  0  0
 77 87  1  0  0  0
 78150  1  0  0  0
 78151  1  0  0  0
 79 80  1  0  0  0
 79152  1  0  0  0
 79153  1  0  0  0
 80 81  1  0  0  0
 80154  1  0  0  0
 80155  1  0  0  0
 81 83  1  0  0  0
 81156  1  0  0  0
 81157  1  0  0  0
 82 83  1  0  0  0
 82 87  1  0  0  0
 82158  1  0  0  0
 82159  1  0  0  0
 83160  1  0  0  0
 84161  1  0  0  0
 84162  1  0  0  0
 84163  1  0  0  0
 85164  1  0  0  0
 85165  1  0  0  0
 85 87  1  0  0  0
 86166  1  0  0  0
 87167  1  0  0  0
M  CHG  1  87   1
M  ISO  4   1 100  68 101  83 101  86 100
M  END
> <chiral flag>
0

> <version>
0

> <s_m_source_file>
/data/baiqing/PycharmProjects/Reinvent-master-3.2/result/LINK_invent/BTK/process_docking_weight1_custom_product_contain_oxygen_bond_distance_aromatic_linkinvent_7_9_3/rearranged_h_0041.sdf

> <i_m_source_file_index>
35

> <r_mmod_Potential_Energy-OPLS-2005>
20.8521537780762

> <r_mmod_Stretch_Energy-OPLS-2005>
88.8583221435547

> <r_mmod_Bend_Energy-OPLS-2005>
158.389129638672

> <r_mmod_Torsional_Energy-OPLS-2005>
275.878143310547

> <r_mmod_Improper_Torsional_Energy-OPLS-2005>
5.51620864868164

> <r_mmod_Van_der_Waal_Energy-OPLS-2005>
145.298492431641

> <r_mmod_Electrostatic_Energy-OPLS-2005>
-276.954345703125

> <r_mmod_Solvation_Energy-OPLS-2005>
-426.325439453125

> <b_mmod_Minimization_Converged-OPLS-2005>
0

> <r_mmod_RMS_Derivative-OPLS-2005>
3.4063241481781

$$$$
35
                    3D
 Structure written by MMmdl.
156164  0  0  1  0            999 V2000
  -30.6057  -14.7191   20.4379 C   0  0  0  0  0  0
  -30.4356  -12.4237   19.4808 C   0  0  0  0  0  0
  -29.5093  -12.4560   18.2435 C   0  0  0  0  0  0
  -28.0318  -12.3143   18.6547 C   0  0  0  0  0  0
  -27.6450  -13.2235   19.8510 C   0  0  2  0  0  0
  -28.6871  -13.1466   20.9878 C   0  0  0  0  0  0
  -25.2535  -13.8197   20.5688 C   0  0  0  0  0  0
  -24.1811  -13.0454   20.9205 C   0  0  0  0  0  0
  -24.6383  -11.6925   20.8757 C   0  0  0  0  0  0
  -23.9067  -10.4301   21.0409 C   0  0  0  0  0  0
  -24.3622   -9.4207   21.9175 C   0  0  0  0  0  0
  -23.6299   -8.2241   22.0742 C   0  0  0  0  0  0
  -22.4279   -8.0280   21.3536 C   0  0  0  0  0  0
  -21.9920   -9.0258   20.4638 C   0  0  0  0  0  0
  -22.7248  -10.2138   20.3052 C   0  0  0  0  0  0
  -21.6855   -6.0734   22.5273 C   0  0  0  0  0  0
  -21.4018   -6.5639   23.8207 C   0  0  0  0  0  0
  -21.3664   -5.6788   24.9168 C   0  0  0  0  0  0
  -21.6051   -4.3053   24.7223 C   0  0  0  0  0  0
  -21.8821   -3.8143   23.4343 C   0  0  0  0  0  0
  -21.9194   -4.6959   22.3397 C   0  0  0  0  0  0
  -22.7830  -13.5233   21.1862 C   0  0  0  0  0  0
  -22.1657   -4.2147   21.0975 F   0  0  0  0  0  0
  -21.5627   -3.4535   25.7737 F   0  0  0  0  0  0
  -29.9948  -13.4870   20.4129 N   0  0  0  0  0  0
  -26.2948  -12.9386   20.3291 N   0  0  0  0  0  0
  -25.9318  -11.6542   20.5795 N   0  0  0  0  0  0
  -22.0473  -12.8222   22.0420 N   0  0  0  0  0  0
  -25.4269  -15.1916   20.4084 N   0  0  0  0  0  0
  -31.7915  -14.8308   20.1119 O   0  0  0  0  0  0
  -21.6640   -6.8878   21.4236 O   0  0  0  0  0  0
  -22.3517  -14.5537   20.6709 O   0  0  0  0  0  0
  -24.6287  -31.8573   23.2014 C   0  0  0  0  0  0
  -25.9120  -32.4769   23.8353 C   0  0  1  0  0  0
  -27.2178  -27.2812   20.1246 C   0  0  0  0  0  0
  -25.5930  -33.8574   24.2277 N   0  0  0  0  0  0
  -23.4250  -30.4824   21.5427 C   0  0  2  0  0  0
  -24.8728  -28.9368   20.1066 C   0  0  0  0  0  0
  -22.7493  -29.4614   22.4899 C   0  0  0  0  0  0
  -18.0293  -28.1379   22.8477 C   0  0  0  0  0  0
  -24.1492  -36.7290   23.2640 C   0  0  0  0  0  0
  -25.9704  -30.7764   21.3801 C   0  0  0  0  0  0
  -26.0427  -29.4019   20.7196 C   0  0  0  0  0  0
  -27.2174  -28.5858   20.7200 C   0  0  0  0  0  0
  -26.0290  -26.8920   19.4627 C   0  0  0  0  0  0
  -24.8709  -27.6900   19.4666 C   0  0  0  0  0  0
  -23.6430  -29.8205   20.1570 C   0  0  0  0  0  0
  -25.4116  -36.3080   24.0330 C   0  0  1  0  0  0
  -20.5895  -28.3693   23.1259 C   0  0  2  0  0  0
  -20.6779  -26.9411   22.5400 C   0  0  0  0  0  0
  -19.5757  -26.6377   21.5200 C   0  0  0  0  0  0
  -18.1939  -26.7922   22.1615 C   0  0  0  0  0  0
  -19.1545  -28.8850   23.2869 C   0  0  0  0  0  0
  -18.9468  -30.1448   23.8891 C   0  0  0  0  0  0
  -17.6468  -30.6580   24.0556 C   0  0  0  0  0  0
  -25.9054  -34.9448   23.5102 C   0  0  0  0  0  0
  -16.5359  -29.9078   23.6326 C   0  0  0  0  0  0
  -16.7280  -28.6494   23.0349 C   0  0  0  0  0  0
  -26.4501  -31.6583   25.0729 C   0  0  0  0  0  0
  -25.3745  -31.3710   26.1462 C   0  0  0  0  0  0
  -27.0342  -30.3002   24.6195 C   0  0  0  0  0  0
  -27.6053  -32.4322   25.7502 C   0  0  0  0  0  0
  -27.5581  -37.1805   24.8466 C   0  0  0  0  0  0
  -21.4200  -29.3046   22.3648 N   0  0  0  0  0  0
  -26.4294  -37.3774   23.9410 N   0  0  0  0  0  0
  -24.6935  -31.0559   22.0978 N   0  0  0  0  0  0
  -23.4206  -28.8140   23.2977 O   0  0  0  0  0  0
  -28.3105  -26.3889   20.2122 O   0  0  0  0  0  0
  -26.5621  -34.8913   22.4668 O   0  0  0  0  0  0
  -23.5439  -32.1382   23.7317 O   0  0  0  0  0  0
  -29.7864  -19.7758   18.7693 C   0  0  0  0  0  0
  -29.9713  -18.5937   18.0368 C   0  0  0  0  0  0
  -29.5924  -19.7486   20.1628 C   0  0  0  0  0  0
  -29.6398  -18.4332   20.8041 C   0  0  0  0  0  0
  -29.8608  -17.1908   20.0645 C   0  0  0  0  0  0
  -29.9920  -17.3281   18.6512 C   0  0  0  0  0  0
  -29.4676  -18.3620   22.3141 C   0  0  0  0  0  0
  -29.4397  -21.1614   20.8884 C   0  0  0  0  0  0
  -29.0291  -23.7788   20.5916 C   0  0  0  0  0  0
  -28.0794  -24.9248   19.9735 C   0  0  0  0  0  0
  -29.8190  -15.8337   20.6738 N   0  0  0  0  0  0
  -28.7720  -22.3260   20.1476 N   0  3  0  0  0  0
  -30.1033  -15.9851   17.5712 Cl  0  0  0  0  0  0
  -31.4744  -12.5505   19.1718 H   0  0  0  0  0  0
  -30.3871  -11.4492   19.9701 H   0  0  0  0  0  0
  -29.7806  -11.6567   17.5532 H   0  0  0  0  0  0
  -29.6485  -13.3797   17.6881 H   0  0  0  0  0  0
  -27.8723  -11.2689   18.9225 H   0  0  0  0  0  0
  -27.3790  -12.5102   17.8029 H   0  0  0  0  0  0
  -27.6482  -14.2451   19.4699 H   0  0  0  0  0  0
  -28.7110  -12.1473   21.4244 H   0  0  0  0  0  0
  -28.4242  -13.8267   21.7992 H   0  0  0  0  0  0
  -25.2762   -9.5684   22.4753 H   0  0  0  0  0  0
  -24.0008   -7.4639   22.7466 H   0  0  0  0  0  0
  -21.0843   -8.8784   19.8958 H   0  0  0  0  0  0
  -22.3696  -10.9680   19.6166 H   0  0  0  0  0  0
  -21.2013   -7.6148   23.9715 H   0  0  0  0  0  0
  -21.1482   -6.0508   25.9074 H   0  0  0  0  0  0
  -22.0600   -2.7608   23.2834 H   0  0  0  0  0  0
  -22.4094  -11.9889   22.4813 H   0  0  0  0  0  0
  -21.1095  -13.1242   22.2640 H   0  0  0  0  0  0
  -24.6620  -15.8490   20.5175 H   0  0  0  0  0  0
  -26.2740  -15.6255   20.0652 H   0  0  0  0  0  0
  -26.7183  -32.5425   23.1094 H   0  0  0  0  0  0
  -25.0096  -33.9721   25.0435 H   0  0  0  0  0  0
  -22.7204  -31.3045   21.3988 H   0  0  0  0  0  0
  -23.3755  -35.9622   23.3302 H   0  0  0  0  0  0
  -24.3582  -36.8910   22.2054 H   0  0  0  0  0  0
  -23.7245  -37.6492   23.6662 H   0  0  0  0  0  0
  -26.1108  -31.5399   20.6134 H   0  0  0  0  0  0
  -26.8475  -30.8221   22.0142 H   0  0  0  0  0  0
  -28.1106  -28.9352   21.2187 H   0  0  0  0  0  0
  -25.9573  -25.9492   18.9418 H   0  0  0  0  0  0
  -23.9781  -27.3348   18.9700 H   0  0  0  0  0  0
  -23.7677  -30.5990   19.4033 H   0  0  0  0  0  0
  -22.7620  -29.2540   19.8500 H   0  0  0  0  0  0
  -25.1298  -36.1934   25.0823 H   0  0  0  0  0  0
  -20.9998  -28.3276   24.1376 H   0  0  0  0  0  0
  -20.5661  -26.2312   23.3610 H   0  0  0  0  0  0
  -21.6651  -26.7428   22.1207 H   0  0  0  0  0  0
  -19.6922  -25.6285   21.1237 H   0  0  0  0  0  0
  -19.6692  -27.3177   20.6724 H   0  0  0  0  0  0
  -17.4209  -26.6661   21.4020 H   0  0  0  0  0  0
  -18.0348  -26.0062   22.9011 H   0  0  0  0  0  0
  -19.7944  -30.7258   24.2268 H   0  0  0  0  0  0
  -17.5024  -31.6261   24.5157 H   0  0  0  0  0  0
  -15.5359  -30.2979   23.7647 H   0  0  0  0  0  0
  -15.8682  -28.0808   22.7070 H   0  0  0  0  0  0
  -24.5924  -30.7051   25.7797 H   0  0  0  0  0  0
  -24.8933  -32.2867   26.4904 H   0  0  0  0  0  0
  -25.8086  -30.8884   27.0228 H   0  0  0  0  0  0
  -26.2911  -29.6752   24.1229 H   0  0  0  0  0  0
  -27.4039  -29.7257   25.4697 H   0  0  0  0  0  0
  -27.8788  -30.4274   23.9421 H   0  0  0  0  0  0
  -27.2659  -33.3620   26.2075 H   0  0  0  0  0  0
  -28.3869  -32.6886   25.0341 H   0  0  0  0  0  0
  -28.0722  -31.8459   26.5425 H   0  0  0  0  0  0
  -28.2600  -38.0101   24.7509 H   0  0  0  0  0  0
  -28.1076  -36.2630   24.6297 H   0  0  0  0  0  0
  -27.2299  -37.1461   25.8869 H   0  0  0  0  0  0
  -20.9378  -29.8793   21.6878 H   0  0  0  0  0  0
  -26.0174  -38.2851   24.1401 H   0  0  0  0  0  0
  -29.7989  -20.7129   18.2302 H   0  0  0  0  0  0
  -30.0841  -18.6568   16.9645 H   0  0  0  0  0  0
  -30.0921  -19.1059   22.8078 H   0  0  0  0  0  0
  -29.7476  -17.3933   22.7258 H   0  0  0  0  0  0
  -28.4294  -18.5512   22.5860 H   0  0  0  0  0  0
  -30.4462  -21.4776   21.1621 H   0  0  0  0  0  0
  -28.9070  -21.0272   21.8304 H   0  0  0  0  0  0
  -28.9501  -23.8247   21.6781 H   0  0  0  0  0  0
  -30.0658  -24.0187   20.3548 H   0  0  0  0  0  0
  -27.0810  -24.6741   20.3333 H   0  0  0  0  0  0
  -28.0522  -24.7924   18.8910 H   0  0  0  0  0  0
  -28.9530  -15.6216   21.1448 H   0  0  0  0  0  0
  -27.7804  -22.1464   20.1801 H   0  0  0  0  0  0
  -29.0431  -22.2574   19.1808 H   0  0  0  0  0  0
  1 25  1  0  0  0
  1 30  2  0  0  0
  1 81  1  0  0  0
  2  3  1  0  0  0
  2 25  1  0  0  0
  2 84  1  0  0  0
  2 85  1  0  0  0
  3  4  1  0  0  0
  3 86  1  0  0  0
  3 87  1  0  0  0
  4  5  1  0  0  0
  4 88  1  0  0  0
  4 89  1  0  0  0
  5  6  1  0  0  0
  5 26  1  0  0  0
  5 90  1  0  0  0
  6 25  1  0  0  0
  6 91  1  0  0  0
  6 92  1  0  0  0
  7  8  2  0  0  0
  7 26  1  0  0  0
  7 29  1  0  0  0
  8  9  1  0  0  0
  8 22  1  0  0  0
  9 10  1  0  0  0
  9 27  2  0  0  0
 10 11  2  0  0  0
 10 15  1  0  0  0
 11 12  1  0  0  0
 11 93  1  0  0  0
 12 13  2  0  0  0
 12 94  1  0  0  0
 13 14  1  0  0  0
 13 31  1  0  0  0
 14 15  2  0  0  0
 14 95  1  0  0  0
 15 96  1  0  0  0
 16 17  2  0  0  0
 16 21  1  0  0  0
 16 31  1  0  0  0
 17 18  1  0  0  0
 17 97  1  0  0  0
 18 19  2  0  0  0
 18 98  1  0  0  0
 19 20  1  0  0  0
 19 24  1  0  0  0
 20 21  2  0  0  0
 20 99  1  0  0  0
 21 23  1  0  0  0
 22 28  1  0  0  0
 22 32  2  0  0  0
 26 27  1  0  0  0
 28100  1  0  0  0
 28101  1  0  0  0
 29102  1  0  0  0
 29103  1  0  0  0
 33 34  1  0  0  0
 33 66  1  0  0  0
 33 70  2  0  0  0
 34 36  1  0  0  0
 34 59  1  0  0  0
 34104  1  0  0  0
 35 44  2  0  0  0
 35 45  1  0  0  0
 35 68  1  0  0  0
 36 56  1  0  0  0
 36105  1  0  0  0
 37 39  1  0  0  0
 37 47  1  0  0  0
 37 66  1  0  0  0
 37106  1  0  0  0
 38 43  2  0  0  0
 38 46  1  0  0  0
 38 47  1  0  0  0
 39 64  1  0  0  0
 39 67  2  0  0  0
 40 52  1  0  0  0
 40 53  2  0  0  0
 40 58  1  0  0  0
 41107  1  0  0  0
 41108  1  0  0  0
 41109  1  0  0  0
 41 48  1  0  0  0
 42 43  1  0  0  0
 42 66  1  0  0  0
 42110  1  0  0  0
 42111  1  0  0  0
 43 44  1  0  0  0
 44112  1  0  0  0
 45 46  2  0  0  0
 45113  1  0  0  0
 46114  1  0  0  0
 47115  1  0  0  0
 47116  1  0  0  0
 48 56  1  0  0  0
 48 65  1  0  0  0
 48117  1  0  0  0
 49 50  1  0  0  0
 49 53  1  0  0  0
 49 64  1  0  0  0
 49118  1  0  0  0
 50 51  1  0  0  0
 50119  1  0  0  0
 50120  1  0  0  0
 51 52  1  0  0  0
 51121  1  0  0  0
 51122  1  0  0  0
 52123  1  0  0  0
 52124  1  0  0  0
 53 54  1  0  0  0
 54 55  2  0  0  0
 54125  1  0  0  0
 55 57  1  0  0  0
 55126  1  0  0  0
 56 69  2  0  0  0
 57 58  2  0  0  0
 57127  1  0  0  0
 58128  1  0  0  0
 59 60  1  0  0  0
 59 61  1  0  0  0
 59 62  1  0  0  0
 60129  1  0  0  0
 60130  1  0  0  0
 60131  1  0  0  0
 61132  1  0  0  0
 61133  1  0  0  0
 61134  1  0  0  0
 62135  1  0  0  0
 62136  1  0  0  0
 62137  1  0  0  0
 63 65  1  0  0  0
 63138  1  0  0  0
 63139  1  0  0  0
 63140  1  0  0  0
 64141  1  0  0  0
 65142  1  0  0  0
 68 80  1  0  0  0
 71 72  2  0  0  0
 71 73  1  0  0  0
 71143  1  0  0  0
 72 76  1  0  0  0
 72144  1  0  0  0
 73 74  2  0  0  0
 73 78  1  0  0  0
 74 75  1  0  0  0
 74 77  1  0  0  0
 75 76  2  0  0  0
 75 81  1  0  0  0
 76 83  1  0  0  0
 77145  1  0  0  0
 77146  1  0  0  0
 77147  1  0  0  0
 78 82  1  0  0  0
 78148  1  0  0  0
 78149  1  0  0  0
 79 80  1  0  0  0
 79 82  1  0  0  0
 79150  1  0  0  0
 79151  1  0  0  0
 80152  1  0  0  0
 80153  1  0  0  0
 81154  1  0  0  0
 82155  1  0  0  0
 82156  1  0  0  0
M  CHG  1  82   1
M  ISO  4   1 100  68 101  80 101  81 100
M  END
> <chiral flag>
0

> <version>
0

> <s_m_source_file>
/data/baiqing/PycharmProjects/Reinvent-master-3.2/result/LINK_invent/BTK/process_docking_weight1_custom_product_contain_oxygen_bond_distance_aromatic_linkinvent_7_9_3/rearranged_h_0041.sdf

> <i_m_source_file_index>
36

> <r_mmod_Potential_Energy-OPLS-2005>
-43.9440650939941

> <r_mmod_Stretch_Energy-OPLS-2005>
116.493194580078

> <r_mmod_Bend_Energy-OPLS-2005>
149.59423828125

> <r_mmod_Torsional_Energy-OPLS-2005>
238.666931152344

> <r_mmod_Improper_Torsional_Energy-OPLS-2005>
5.16074657440186

> <r_mmod_Van_der_Waal_Energy-OPLS-2005>
144.642272949219

> <r_mmod_Electrostatic_Energy-OPLS-2005>
-292.829162597656

> <r_mmod_Solvation_Energy-OPLS-2005>
-483.408020019531

> <b_mmod_Minimization_Converged-OPLS-2005>
0

> <r_mmod_RMS_Derivative-OPLS-2005>
1.35757505893707

$$$$
36
                    3D
 Structure written by MMmdl.
161170  0  0  1  0            999 V2000
  -30.6187  -14.8397   20.3535 C   0  0  0  0  0  0
  -30.4185  -12.5013   19.4536 C   0  0  0  0  0  0
  -29.5004  -12.4117   18.2208 C   0  0  0  0  0  0
  -28.0165  -12.3093   18.6331 C   0  0  0  0  0  0
  -27.6191  -13.2360   19.8189 C   0  0  2  0  0  0
  -28.6854  -13.2698   20.9281 C   0  0  0  0  0  0
  -25.2477  -13.8228   20.5738 C   0  0  0  0  0  0
  -24.1774  -13.0440   20.9258 C   0  0  0  0  0  0
  -24.6365  -11.6932   20.8778 C   0  0  0  0  0  0
  -23.9046  -10.4287   21.0429 C   0  0  0  0  0  0
  -24.3591   -9.4201   21.9182 C   0  0  0  0  0  0
  -23.6280   -8.2217   22.0744 C   0  0  0  0  0  0
  -22.4260   -8.0257   21.3527 C   0  0  0  0  0  0
  -21.9884   -9.0240   20.4646 C   0  0  0  0  0  0
  -22.7222  -10.2131   20.3084 C   0  0  0  0  0  0
  -21.6840   -6.0718   22.5263 C   0  0  0  0  0  0
  -21.3992   -6.5623   23.8198 C   0  0  0  0  0  0
  -21.3666   -5.6801   24.9153 C   0  0  0  0  0  0
  -21.6044   -4.3057   24.7222 C   0  0  0  0  0  0
  -21.8844   -3.8138   23.4342 C   0  0  0  0  0  0
  -21.9201   -4.6940   22.3398 C   0  0  0  0  0  0
  -22.7796  -13.5230   21.1903 C   0  0  0  0  0  0
  -22.1665   -4.2138   21.0968 F   0  0  0  0  0  0
  -21.5646   -3.4543   25.7728 F   0  0  0  0  0  0
  -29.9443  -13.6356   20.2796 N   0  0  0  0  0  0
  -26.2848  -12.9398   20.3279 N   0  0  0  0  0  0
  -25.9295  -11.6546   20.5797 N   0  0  0  0  0  0
  -22.0451  -12.8171   22.0438 N   0  0  0  0  0  0
  -25.4210  -15.1952   20.4197 N   0  0  0  0  0  0
  -31.8396  -14.8307   20.1947 O   0  0  0  0  0  0
  -21.6642   -6.8840   21.4214 O   0  0  0  0  0  0
  -22.3477  -14.5532   20.6799 O   0  0  0  0  0  0
  -24.6455  -31.8484   23.1886 C   0  0  0  0  0  0
  -25.9244  -32.4700   23.8282 C   0  0  1  0  0  0
  -27.2228  -27.2110   20.0832 C   0  0  0  0  0  0
  -25.6002  -33.8510   24.2200 N   0  0  0  0  0  0
  -23.4429  -30.4660   21.5329 C   0  0  2  0  0  0
  -24.8827  -28.8951   20.1118 C   0  0  0  0  0  0
  -22.7572  -29.4583   22.4885 C   0  0  0  0  0  0
  -18.0359  -28.1340   22.8400 C   0  0  0  0  0  0
  -24.1497  -36.7267   23.2636 C   0  0  0  0  0  0
  -25.9977  -30.7326   21.3822 C   0  0  0  0  0  0
  -26.0599  -29.3550   20.7125 C   0  0  0  0  0  0
  -27.2301  -28.5257   20.6862 C   0  0  0  0  0  0
  -26.0060  -26.8191   19.4797 C   0  0  0  0  0  0
  -24.8630  -27.6377   19.4916 C   0  0  0  0  0  0
  -23.6630  -29.7909   20.1538 C   0  0  0  0  0  0
  -25.4123  -36.3019   24.0310 C   0  0  1  0  0  0
  -20.5966  -28.3660   23.1204 C   0  0  2  0  0  0
  -20.6843  -26.9401   22.5275 C   0  0  0  0  0  0
  -19.5827  -26.6369   21.5068 C   0  0  0  0  0  0
  -18.2008  -26.7906   22.1477 C   0  0  0  0  0  0
  -19.1599  -28.8813   23.2818 C   0  0  0  0  0  0
  -18.9516  -30.1383   23.8870 C   0  0  0  0  0  0
  -17.6498  -30.6492   24.0551 C   0  0  0  0  0  0
  -25.9098  -34.9406   23.5057 C   0  0  0  0  0  0
  -16.5399  -29.8995   23.6302 C   0  0  0  0  0  0
  -16.7337  -28.6425   23.0286 C   0  0  0  0  0  0
  -26.4542  -31.6582   25.0748 C   0  0  0  0  0  0
  -25.3722  -31.3829   26.1453 C   0  0  0  0  0  0
  -27.0413  -30.2964   24.6360 C   0  0  0  0  0  0
  -27.6052  -32.4377   25.7551 C   0  0  0  0  0  0
  -27.5574  -37.1776   24.8460 C   0  0  0  0  0  0
  -21.4283  -29.3082   22.3661 N   0  0  0  0  0  0
  -26.4269  -37.3725   23.9411 N   0  0  0  0  0  0
  -24.7137  -31.0378   22.0882 N   0  0  0  0  0  0
  -23.4252  -28.8149   23.3026 O   0  0  0  0  0  0
  -28.3307  -26.3197   20.1211 O   0  0  0  0  0  0
  -26.5635  -34.8888   22.4610 O   0  0  0  0  0  0
  -23.5591  -32.1381   23.7085 O   0  0  0  0  0  0
  -28.3576  -18.8873   18.1474 C   0  0  0  0  0  0
  -27.9117  -18.0702   17.1032 C   0  0  0  0  0  0
  -28.8501  -16.1605   18.2483 C   0  0  0  0  0  0
  -29.0774  -18.3918   19.2771 C   0  0  0  0  0  0
  -29.3067  -16.9133   19.3615 C   0  0  0  0  0  0
  -28.1843  -16.7060   17.1466 C   0  0  0  0  0  0
  -29.0343  -22.1661   19.7040 C   0  0  0  0  0  0
  -26.7574  -21.8234   21.3834 C   0  0  0  0  0  0
  -27.0701  -23.2932   21.0226 C   0  0  0  0  0  0
  -28.0147  -20.9270   21.5420 C   0  0  0  0  0  0
  -28.4356  -23.5402   20.3326 C   0  0  2  0  0  0
  -29.6442  -19.6008   20.1471 C   0  0  0  0  0  0
  -28.3738  -24.9383   19.4826 C   0  0  0  0  0  0
  -28.8637  -20.9336   20.3442 N   0  0  0  0  0  0
  -29.9726  -16.0912   20.4136 N   0  0  0  0  0  0
  -29.6904  -22.2206   18.6631 O   0  0  0  0  0  0
  -27.7606  -15.6942   15.8160 Cl  0  0  0  0  0  0
  -31.4528  -12.6159   19.1289 H   0  0  0  0  0  0
  -30.3900  -11.5681   20.0179 H   0  0  0  0  0  0
  -29.7631  -11.5191   17.6508 H   0  0  0  0  0  0
  -29.6692  -13.2482   17.5480 H   0  0  0  0  0  0
  -27.8502  -11.2680   18.9119 H   0  0  0  0  0  0
  -27.3718  -12.4958   17.7708 H   0  0  0  0  0  0
  -27.5567  -14.2400   19.4189 H   0  0  0  0  0  0
  -28.7663  -12.2968   21.4117 H   0  0  0  0  0  0
  -28.4263  -14.0009   21.6964 H   0  0  0  0  0  0
  -25.2729   -9.5693   22.4741 H   0  0  0  0  0  0
  -24.0019   -7.4623   22.7446 H   0  0  0  0  0  0
  -21.0827   -8.8775   19.8939 H   0  0  0  0  0  0
  -22.3674  -10.9671   19.6210 H   0  0  0  0  0  0
  -21.1949   -7.6136   23.9689 H   0  0  0  0  0  0
  -21.1460   -6.0515   25.9075 H   0  0  0  0  0  0
  -22.0613   -2.7594   23.2851 H   0  0  0  0  0  0
  -22.4091  -11.9808   22.4754 H   0  0  0  0  0  0
  -21.1083  -13.1159   22.2715 H   0  0  0  0  0  0
  -24.6642  -15.8640   20.5372 H   0  0  0  0  0  0
  -26.2934  -15.6266   20.1415 H   0  0  0  0  0  0
  -26.7333  -32.5276   23.1038 H   0  0  0  0  0  0
  -25.0138  -33.9604   25.0331 H   0  0  0  0  0  0
  -22.7454  -31.2905   21.3732 H   0  0  0  0  0  0
  -23.3727  -35.9629   23.3284 H   0  0  0  0  0  0
  -24.3593  -36.8912   22.2056 H   0  0  0  0  0  0
  -23.7285  -37.6476   23.6691 H   0  0  0  0  0  0
  -26.1666  -31.4853   20.6127 H   0  0  0  0  0  0
  -26.8694  -30.7657   22.0244 H   0  0  0  0  0  0
  -28.1387  -28.8629   21.1640 H   0  0  0  0  0  0
  -25.8808  -25.8512   19.0212 H   0  0  0  0  0  0
  -23.9495  -27.2769   19.0354 H   0  0  0  0  0  0
  -23.8110  -30.5607   19.3963 H   0  0  0  0  0  0
  -22.7808  -29.2326   19.8403 H   0  0  0  0  0  0
  -25.1299  -36.1821   25.0791 H   0  0  0  0  0  0
  -21.0032  -28.3140   24.1331 H   0  0  0  0  0  0
  -20.5766  -26.2227   23.3428 H   0  0  0  0  0  0
  -21.6712  -26.7460   22.1042 H   0  0  0  0  0  0
  -19.6783  -27.3147   20.6570 H   0  0  0  0  0  0
  -19.7004  -25.6273   21.1103 H   0  0  0  0  0  0
  -17.4290  -26.6688   21.3857 H   0  0  0  0  0  0
  -18.0432  -26.0007   22.8832 H   0  0  0  0  0  0
  -19.7981  -30.7204   24.2261 H   0  0  0  0  0  0
  -17.5044  -31.6149   24.5204 H   0  0  0  0  0  0
  -15.5398  -30.2862   23.7659 H   0  0  0  0  0  0
  -15.8731  -28.0735   22.7004 H   0  0  0  0  0  0
  -24.5846  -30.7229   25.7800 H   0  0  0  0  0  0
  -24.8981  -32.3057   26.4817 H   0  0  0  0  0  0
  -25.7988  -30.9047   27.0270 H   0  0  0  0  0  0
  -26.3072  -29.6695   24.1293 H   0  0  0  0  0  0
  -27.3938  -29.7254   25.4957 H   0  0  0  0  0  0
  -27.9012  -30.4194   23.9767 H   0  0  0  0  0  0
  -27.2598  -33.3647   26.2122 H   0  0  0  0  0  0
  -28.3873  -32.6989   25.0420 H   0  0  0  0  0  0
  -28.0733  -31.8548   26.5485 H   0  0  0  0  0  0
  -28.2553  -38.0093   24.7464 H   0  0  0  0  0  0
  -28.1090  -36.2615   24.6305 H   0  0  0  0  0  0
  -27.2308  -37.1460   25.8861 H   0  0  0  0  0  0
  -20.9527  -29.8806   21.6843 H   0  0  0  0  0  0
  -26.0135  -38.2791   24.1359 H   0  0  0  0  0  0
  -28.2002  -19.9478   18.0159 H   0  0  0  0  0  0
  -27.4261  -18.4776   16.2251 H   0  0  0  0  0  0
  -29.0261  -15.1042   18.1852 H   0  0  0  0  0  0
  -26.0818  -21.4274   20.6188 H   0  0  0  0  0  0
  -26.1653  -21.8026   22.2952 H   0  0  0  0  0  0
  -27.0544  -23.9003   21.9290 H   0  0  0  0  0  0
  -26.2541  -23.6806   20.4105 H   0  0  0  0  0  0
  -27.7036  -19.9047   21.7578 H   0  0  0  0  0  0
  -28.6274  -21.2605   22.3859 H   0  0  0  0  0  0
  -29.1515  -23.7301   21.1337 H   0  0  0  0  0  0
  -30.5654  -19.8685   19.6258 H   0  0  0  0  0  0
  -30.0132  -19.2428   21.1057 H   0  0  0  0  0  0
  -27.6151  -24.8252   18.7124 H   0  0  0  0  0  0
  -29.2858  -24.9464   18.8859 H   0  0  0  0  0  0
  -30.4943  -16.7033   21.0267 H   0  0  0  0  0  0
  1 25  1  0  0  0
  1 30  2  0  0  0
  1 85  1  0  0  0
  2  3  1  0  0  0
  2 25  1  0  0  0
  2 88  1  0  0  0
  2 89  1  0  0  0
  3  4  1  0  0  0
  3 90  1  0  0  0
  3 91  1  0  0  0
  4  5  1  0  0  0
  4 92  1  0  0  0
  4 93  1  0  0  0
  5  6  1  0  0  0
  5 26  1  0  0  0
  5 94  1  0  0  0
  6 25  1  0  0  0
  6 95  1  0  0  0
  6 96  1  0  0  0
  7  8  2  0  0  0
  7 26  1  0  0  0
  7 29  1  0  0  0
  8  9  1  0  0  0
  8 22  1  0  0  0
  9 10  1  0  0  0
  9 27  2  0  0  0
 10 11  2  0  0  0
 10 15  1  0  0  0
 11 12  1  0  0  0
 11 97  1  0  0  0
 12 13  2  0  0  0
 12 98  1  0  0  0
 13 14  1  0  0  0
 13 31  1  0  0  0
 14 15  2  0  0  0
 14 99  1  0  0  0
 15100  1  0  0  0
 16 17  2  0  0  0
 16 21  1  0  0  0
 16 31  1  0  0  0
 17 18  1  0  0  0
 17101  1  0  0  0
 18 19  2  0  0  0
 18102  1  0  0  0
 19 20  1  0  0  0
 19 24  1  0  0  0
 20 21  2  0  0  0
 20103  1  0  0  0
 21 23  1  0  0  0
 22 28  1  0  0  0
 22 32  2  0  0  0
 26 27  1  0  0  0
 28104  1  0  0  0
 28105  1  0  0  0
 29106  1  0  0  0
 29107  1  0  0  0
 33 34  1  0  0  0
 33 66  1  0  0  0
 33 70  2  0  0  0
 34 36  1  0  0  0
 34 59  1  0  0  0
 34108  1  0  0  0
 35 44  2  0  0  0
 35 45  1  0  0  0
 35 68  1  0  0  0
 36 56  1  0  0  0
 36109  1  0  0  0
 37 39  1  0  0  0
 37 47  1  0  0  0
 37 66  1  0  0  0
 37110  1  0  0  0
 38 43  2  0  0  0
 38 46  1  0  0  0
 38 47  1  0  0  0
 39 64  1  0  0  0
 39 67  2  0  0  0
 40 52  1  0  0  0
 40 53  2  0  0  0
 40 58  1  0  0  0
 41111  1  0  0  0
 41112  1  0  0  0
 41113  1  0  0  0
 41 48  1  0  0  0
 42 43  1  0  0  0
 42 66  1  0  0  0
 42114  1  0  0  0
 42115  1  0  0  0
 43 44  1  0  0  0
 44116  1  0  0  0
 45 46  2  0  0  0
 45117  1  0  0  0
 46118  1  0  0  0
 47119  1  0  0  0
 47120  1  0  0  0
 48 56  1  0  0  0
 48 65  1  0  0  0
 48121  1  0  0  0
 49 50  1  0  0  0
 49 53  1  0  0  0
 49 64  1  0  0  0
 49122  1  0  0  0
 50 51  1  0  0  0
 50123  1  0  0  0
 50124  1  0  0  0
 51 52  1  0  0  0
 51125  1  0  0  0
 51126  1  0  0  0
 52127  1  0  0  0
 52128  1  0  0  0
 53 54  1  0  0  0
 54 55  2  0  0  0
 54129  1  0  0  0
 55 57  1  0  0  0
 55130  1  0  0  0
 56 69  2  0  0  0
 57 58  2  0  0  0
 57131  1  0  0  0
 58132  1  0  0  0
 59 60  1  0  0  0
 59 61  1  0  0  0
 59 62  1  0  0  0
 60133  1  0  0  0
 60134  1  0  0  0
 60135  1  0  0  0
 61136  1  0  0  0
 61137  1  0  0  0
 61138  1  0  0  0
 62139  1  0  0  0
 62140  1  0  0  0
 62141  1  0  0  0
 63 65  1  0  0  0
 63142  1  0  0  0
 63143  1  0  0  0
 63144  1  0  0  0
 64145  1  0  0  0
 65146  1  0  0  0
 68 83  1  0  0  0
 71 72  2  0  0  0
 71 74  1  0  0  0
 71147  1  0  0  0
 72 76  1  0  0  0
 72148  1  0  0  0
 73 75  1  0  0  0
 73 76  2  0  0  0
 73149  1  0  0  0
 74 75  2  0  0  0
 74 82  1  0  0  0
 75 85  1  0  0  0
 76 87  1  0  0  0
 77 81  1  0  0  0
 77 84  1  0  0  0
 77 86  2  0  0  0
 78 79  1  0  0  0
 78 80  1  0  0  0
 78150  1  0  0  0
 78151  1  0  0  0
 79 81  1  0  0  0
 79152  1  0  0  0
 79153  1  0  0  0
 80 84  1  0  0  0
 80154  1  0  0  0
 80155  1  0  0  0
 81 83  1  0  0  0
 81156  1  0  0  0
 82 84  1  0  0  0
 82157  1  0  0  0
 82158  1  0  0  0
 83159  1  0  0  0
 83160  1  0  0  0
 85161  1  0  0  0
M  ISO  4   1 100  68 101  83 101  85 100
M  END
> <chiral flag>
0

> <version>
0

> <s_m_source_file>
/data/baiqing/PycharmProjects/Reinvent-master-3.2/result/LINK_invent/BTK/process_docking_weight1_custom_product_contain_oxygen_bond_distance_aromatic_linkinvent_7_9_3/rearranged_h_0041.sdf

> <i_m_source_file_index>
37

> <r_mmod_Potential_Energy-OPLS-2005>
419.303619384766

> <r_mmod_Stretch_Energy-OPLS-2005>
173.529052734375

> <r_mmod_Bend_Energy-OPLS-2005>
250.17741394043

> <r_mmod_Torsional_Energy-OPLS-2005>
287.999114990234

> <r_mmod_Improper_Torsional_Energy-OPLS-2005>
8.41604804992676

> <r_mmod_Van_der_Waal_Energy-OPLS-2005>
141.007705688477

> <r_mmod_Electrostatic_Energy-OPLS-2005>
-358.216918945312

> <r_mmod_Solvation_Energy-OPLS-2005>
-219.095733642578

> <b_mmod_Minimization_Converged-OPLS-2005>
0

> <r_mmod_RMS_Derivative-OPLS-2005>
9.88941478729248

$$$$
37
                    3D
 Structure written by MMmdl.
161170  0  0  1  0            999 V2000
  -30.7054  -14.5724   20.4984 C   0  0  0  0  0  0
  -30.4370  -12.3609   19.4483 C   0  0  0  0  0  0
  -29.5225  -12.4899   18.2148 C   0  0  0  0  0  0
  -28.0386  -12.3512   18.6076 C   0  0  0  0  0  0
  -27.6528  -13.2221   19.8382 C   0  0  2  0  0  0
  -28.6956  -13.1034   20.9739 C   0  0  0  0  0  0
  -25.2564  -13.8185   20.5508 C   0  0  0  0  0  0
  -24.1857  -13.0440   20.9119 C   0  0  0  0  0  0
  -24.6430  -11.6913   20.8678 C   0  0  0  0  0  0
  -23.9088  -10.4296   21.0378 C   0  0  0  0  0  0
  -24.3649   -9.4190   21.9135 C   0  0  0  0  0  0
  -23.6288   -8.2238   22.0735 C   0  0  0  0  0  0
  -22.4275   -8.0279   21.3513 C   0  0  0  0  0  0
  -21.9912   -9.0260   20.4624 C   0  0  0  0  0  0
  -22.7264  -10.2115   20.3014 C   0  0  0  0  0  0
  -21.6868   -6.0720   22.5273 C   0  0  0  0  0  0
  -21.4032   -6.5611   23.8206 C   0  0  0  0  0  0
  -21.3660   -5.6745   24.9161 C   0  0  0  0  0  0
  -21.6042   -4.3009   24.7175 C   0  0  0  0  0  0
  -21.8846   -3.8107   23.4303 C   0  0  0  0  0  0
  -21.9202   -4.6955   22.3373 C   0  0  0  0  0  0
  -22.7883  -13.5270   21.1785 C   0  0  0  0  0  0
  -22.1649   -4.2144   21.0919 F   0  0  0  0  0  0
  -21.5625   -3.4493   25.7673 F   0  0  0  0  0  0
  -30.0225  -13.3937   20.4128 N   0  0  0  0  0  0
  -26.3014  -12.9366   20.3131 N   0  0  0  0  0  0
  -25.9342  -11.6526   20.5628 N   0  0  0  0  0  0
  -22.0510  -12.8278   22.0345 N   0  0  0  0  0  0
  -25.4159  -15.1903   20.3745 N   0  0  0  0  0  0
  -31.8992  -14.6508   20.2214 O   0  0  0  0  0  0
  -21.6637   -6.8881   21.4234 O   0  0  0  0  0  0
  -22.3572  -14.5573   20.6622 O   0  0  0  0  0  0
  -24.6184  -31.8637   23.2225 C   0  0  0  0  0  0
  -25.9095  -32.4788   23.8474 C   0  0  1  0  0  0
  -27.2560  -27.4232   20.1318 C   0  0  0  0  0  0
  -25.5996  -33.8610   24.2418 N   0  0  0  0  0  0
  -23.4127  -30.4895   21.5506 C   0  0  2  0  0  0
  -24.8704  -28.9659   20.1127 C   0  0  0  0  0  0
  -22.7442  -29.4624   22.4949 C   0  0  0  0  0  0
  -18.0273  -28.1419   22.8484 C   0  0  0  0  0  0
  -24.1492  -36.7295   23.2642 C   0  0  0  0  0  0
  -25.9397  -30.8332   21.3806 C   0  0  0  0  0  0
  -26.0241  -29.4664   20.7279 C   0  0  0  0  0  0
  -27.2155  -28.7006   20.7416 C   0  0  0  0  0  0
  -26.0858  -26.9559   19.4848 C   0  0  0  0  0  0
  -24.8998  -27.7129   19.4766 C   0  0  0  0  0  0
  -23.6390  -29.8423   20.1556 C   0  0  0  0  0  0
  -25.4111  -36.3086   24.0345 C   0  0  1  0  0  0
  -20.5863  -28.3727   23.1356 C   0  0  2  0  0  0
  -20.6823  -26.9457   22.5489 C   0  0  0  0  0  0
  -19.5786  -26.6414   21.5312 C   0  0  0  0  0  0
  -18.1919  -26.7964   22.1638 C   0  0  0  0  0  0
  -19.1508  -28.8883   23.2897 C   0  0  0  0  0  0
  -18.9422  -30.1492   23.8888 C   0  0  0  0  0  0
  -17.6415  -30.6595   24.0601 C   0  0  0  0  0  0
  -25.9026  -34.9454   23.5143 C   0  0  0  0  0  0
  -16.5312  -29.9095   23.6351 C   0  0  0  0  0  0
  -16.7262  -28.6558   23.0290 C   0  0  0  0  0  0
  -26.4582  -31.6532   25.0758 C   0  0  0  0  0  0
  -25.3990  -31.3569   26.1611 C   0  0  0  0  0  0
  -27.0442  -30.2964   24.6160 C   0  0  0  0  0  0
  -27.6117  -32.4281   25.7510 C   0  0  0  0  0  0
  -27.5575  -37.1789   24.8449 C   0  0  0  0  0  0
  -21.4164  -29.3046   22.3717 N   0  0  0  0  0  0
  -26.4261  -37.3793   23.9427 N   0  0  0  0  0  0
  -24.6737  -31.0706   22.1149 N   0  0  0  0  0  0
  -23.4162  -28.8168   23.3031 O   0  0  0  0  0  0
  -28.4093  -26.6522   20.1981 O   0  0  0  0  0  0
  -26.5494  -34.8889   22.4641 O   0  0  0  0  0  0
  -23.5365  -32.1408   23.7605 O   0  0  0  0  0  0
  -30.5848  -19.8359   19.7030 C   0  0  0  0  0  0
  -31.0928  -18.8328   18.8646 C   0  0  0  0  0  0
  -29.7220  -18.1076   21.1902 C   0  0  0  0  0  0
  -29.8710  -19.4873   20.8640 C   0  0  0  0  0  0
  -30.2411  -17.0674   20.3624 C   0  0  0  0  0  0
  -30.9069  -17.4661   19.1605 C   0  0  0  0  0  0
  -29.0997  -22.8358   20.6938 C   0  0  0  0  0  0
  -30.9067  -23.8803   22.7609 C   0  0  0  0  0  0
  -29.6826  -24.6826   22.2928 C   0  0  0  0  0  0
  -30.7859  -22.3656   22.4853 C   0  0  0  0  0  0
  -29.3838  -24.3629   20.8136 C   0  0  2  0  0  0
  -29.2134  -20.5753   21.7290 C   0  0  0  0  0  0
  -28.2124  -25.2185   20.2273 C   0  0  0  0  0  0
  -29.6923  -21.9735   21.5697 N   0  0  0  0  0  0
  -29.9586  -15.6879   20.7226 N   0  0  0  0  0  0
  -28.3054  -22.4396   19.8352 O   0  0  0  0  0  0
  -31.4118  -16.3693   17.9245 Cl  0  0  0  0  0  0
  -31.4891  -12.4541   19.1544 H   0  0  0  0  0  0
  -30.3387  -11.3756   19.9016 H   0  0  0  0  0  0
  -29.7838  -11.7203   17.4901 H   0  0  0  0  0  0
  -29.6929  -13.4417   17.7104 H   0  0  0  0  0  0
  -27.8611  -11.2979   18.8228 H   0  0  0  0  0  0
  -27.4116  -12.5938   17.7478 H   0  0  0  0  0  0
  -27.6587  -14.2562   19.4904 H   0  0  0  0  0  0
  -28.6939  -12.0965   21.3899 H   0  0  0  0  0  0
  -28.4389  -13.7855   21.7886 H   0  0  0  0  0  0
  -25.2845   -9.5635   22.4662 H   0  0  0  0  0  0
  -23.9994   -7.4620   22.7472 H   0  0  0  0  0  0
  -21.0834   -8.8761   19.8949 H   0  0  0  0  0  0
  -22.3733  -10.9618   19.6076 H   0  0  0  0  0  0
  -21.2025   -7.6120   23.9705 H   0  0  0  0  0  0
  -21.1477   -6.0456   25.9057 H   0  0  0  0  0  0
  -22.0637   -2.7582   23.2783 H   0  0  0  0  0  0
  -22.4128  -11.9976   22.4829 H   0  0  0  0  0  0
  -21.1116  -13.1288   22.2457 H   0  0  0  0  0  0
  -24.6144  -15.8129   20.3773 H   0  0  0  0  0  0
  -26.2159  -15.5978   19.9046 H   0  0  0  0  0  0
  -26.7160  -32.5517   23.1222 H   0  0  0  0  0  0
  -25.0459  -33.9795   25.0767 H   0  0  0  0  0  0
  -22.7077  -31.3114   21.4156 H   0  0  0  0  0  0
  -23.3780  -35.9590   23.3226 H   0  0  0  0  0  0
  -24.3667  -36.8992   22.2085 H   0  0  0  0  0  0
  -23.7186  -37.6456   23.6705 H   0  0  0  0  0  0
  -26.0439  -31.6084   20.6194 H   0  0  0  0  0  0
  -26.8342  -30.8896   21.9917 H   0  0  0  0  0  0
  -28.0915  -29.0770   21.2541 H   0  0  0  0  0  0
  -26.0836  -26.0038   18.9772 H   0  0  0  0  0  0
  -24.0274  -27.3334   18.9637 H   0  0  0  0  0  0
  -23.7865  -30.6447   19.4301 H   0  0  0  0  0  0
  -22.7683  -29.2860   19.8091 H   0  0  0  0  0  0
  -25.1267  -36.1937   25.0828 H   0  0  0  0  0  0
  -20.9891  -28.3309   24.1510 H   0  0  0  0  0  0
  -20.5919  -26.2274   23.3663 H   0  0  0  0  0  0
  -21.6663  -26.7625   22.1145 H   0  0  0  0  0  0
  -19.6967  -25.6336   21.1318 H   0  0  0  0  0  0
  -19.6752  -27.3280   20.6893 H   0  0  0  0  0  0
  -17.4257  -26.6794   21.3954 H   0  0  0  0  0  0
  -18.0180  -26.0080   22.8990 H   0  0  0  0  0  0
  -19.7890  -30.7362   24.2179 H   0  0  0  0  0  0
  -17.4959  -31.6268   24.5239 H   0  0  0  0  0  0
  -15.5300  -30.2983   23.7735 H   0  0  0  0  0  0
  -15.8658  -28.0973   22.6865 H   0  0  0  0  0  0
  -24.6076  -30.6983   25.8028 H   0  0  0  0  0  0
  -24.9367  -32.2721   26.5317 H   0  0  0  0  0  0
  -25.8542  -30.8591   27.0193 H   0  0  0  0  0  0
  -26.2962  -29.6558   24.1486 H   0  0  0  0  0  0
  -27.4486  -29.7332   25.4584 H   0  0  0  0  0  0
  -27.8666  -30.4245   23.9119 H   0  0  0  0  0  0
  -27.2669  -33.3548   26.2110 H   0  0  0  0  0  0
  -28.3910  -32.6904   25.0338 H   0  0  0  0  0  0
  -28.0809  -31.8436   26.5437 H   0  0  0  0  0  0
  -28.2498  -38.0172   24.7574 H   0  0  0  0  0  0
  -28.1128  -36.2696   24.6113 H   0  0  0  0  0  0
  -27.2319  -37.1244   25.8853 H   0  0  0  0  0  0
  -20.9338  -29.8644   21.6842 H   0  0  0  0  0  0
  -26.0117  -38.2821   24.1571 H   0  0  0  0  0  0
  -30.7108  -20.8653   19.4055 H   0  0  0  0  0  0
  -31.5860  -19.1213   17.9467 H   0  0  0  0  0  0
  -29.1725  -17.8411   22.0811 H   0  0  0  0  0  0
  -31.0861  -24.0525   23.8239 H   0  0  0  0  0  0
  -31.7954  -24.2577   22.2530 H   0  0  0  0  0  0
  -29.8582  -25.7484   22.4334 H   0  0  0  0  0  0
  -28.8219  -24.4314   22.9174 H   0  0  0  0  0  0
  -30.6788  -21.8541   23.4434 H   0  0  0  0  0  0
  -31.7256  -21.9966   22.0681 H   0  0  0  0  0  0
  -30.2814  -24.5542   20.2233 H   0  0  0  0  0  0
  -29.3175  -20.2833   22.7728 H   0  0  0  0  0  0
  -28.1367  -20.5491   21.5437 H   0  0  0  0  0  0
  -27.3133  -24.9832   20.8044 H   0  0  0  0  0  0
  -28.0344  -24.9064   19.1945 H   0  0  0  0  0  0
  -29.0361  -15.5162   21.0906 H   0  0  0  0  0  0
  1 25  1  0  0  0
  1 30  2  0  0  0
  1 85  1  0  0  0
  2  3  1  0  0  0
  2 25  1  0  0  0
  2 88  1  0  0  0
  2 89  1  0  0  0
  3  4  1  0  0  0
  3 90  1  0  0  0
  3 91  1  0  0  0
  4  5  1  0  0  0
  4 92  1  0  0  0
  4 93  1  0  0  0
  5  6  1  0  0  0
  5 26  1  0  0  0
  5 94  1  0  0  0
  6 25  1  0  0  0
  6 95  1  0  0  0
  6 96  1  0  0  0
  7  8  2  0  0  0
  7 26  1  0  0  0
  7 29  1  0  0  0
  8  9  1  0  0  0
  8 22  1  0  0  0
  9 10  1  0  0  0
  9 27  2  0  0  0
 10 11  2  0  0  0
 10 15  1  0  0  0
 11 12  1  0  0  0
 11 97  1  0  0  0
 12 13  2  0  0  0
 12 98  1  0  0  0
 13 14  1  0  0  0
 13 31  1  0  0  0
 14 15  2  0  0  0
 14 99  1  0  0  0
 15100  1  0  0  0
 16 17  2  0  0  0
 16 21  1  0  0  0
 16 31  1  0  0  0
 17 18  1  0  0  0
 17101  1  0  0  0
 18 19  2  0  0  0
 18102  1  0  0  0
 19 20  1  0  0  0
 19 24  1  0  0  0
 20 21  2  0  0  0
 20103  1  0  0  0
 21 23  1  0  0  0
 22 28  1  0  0  0
 22 32  2  0  0  0
 26 27  1  0  0  0
 28104  1  0  0  0
 28105  1  0  0  0
 29106  1  0  0  0
 29107  1  0  0  0
 33 34  1  0  0  0
 33 66  1  0  0  0
 33 70  2  0  0  0
 34 36  1  0  0  0
 34 59  1  0  0  0
 34108  1  0  0  0
 35 44  2  0  0  0
 35 45  1  0  0  0
 35 68  1  0  0  0
 36 56  1  0  0  0
 36109  1  0  0  0
 37 39  1  0  0  0
 37 47  1  0  0  0
 37 66  1  0  0  0
 37110  1  0  0  0
 38 43  2  0  0  0
 38 46  1  0  0  0
 38 47  1  0  0  0
 39 64  1  0  0  0
 39 67  2  0  0  0
 40 52  1  0  0  0
 40 53  2  0  0  0
 40 58  1  0  0  0
 41111  1  0  0  0
 41112  1  0  0  0
 41113  1  0  0  0
 41 48  1  0  0  0
 42 43  1  0  0  0
 42 66  1  0  0  0
 42114  1  0  0  0
 42115  1  0  0  0
 43 44  1  0  0  0
 44116  1  0  0  0
 45 46  2  0  0  0
 45117  1  0  0  0
 46118  1  0  0  0
 47119  1  0  0  0
 47120  1  0  0  0
 48 56  1  0  0  0
 48 65  1  0  0  0
 48121  1  0  0  0
 49 50  1  0  0  0
 49 53  1  0  0  0
 49 64  1  0  0  0
 49122  1  0  0  0
 50 51  1  0  0  0
 50123  1  0  0  0
 50124  1  0  0  0
 51 52  1  0  0  0
 51125  1  0  0  0
 51126  1  0  0  0
 52127  1  0  0  0
 52128  1  0  0  0
 53 54  1  0  0  0
 54 55  2  0  0  0
 54129  1  0  0  0
 55 57  1  0  0  0
 55130  1  0  0  0
 56 69  2  0  0  0
 57 58  2  0  0  0
 57131  1  0  0  0
 58132  1  0  0  0
 59 60  1  0  0  0
 59 61  1  0  0  0
 59 62  1  0  0  0
 60133  1  0  0  0
 60134  1  0  0  0
 60135  1  0  0  0
 61136  1  0  0  0
 61137  1  0  0  0
 61138  1  0  0  0
 62139  1  0  0  0
 62140  1  0  0  0
 62141  1  0  0  0
 63 65  1  0  0  0
 63142  1  0  0  0
 63143  1  0  0  0
 63144  1  0  0  0
 64145  1  0  0  0
 65146  1  0  0  0
 68 83  1  0  0  0
 71 72  2  0  0  0
 71 74  1  0  0  0
 71147  1  0  0  0
 72 76  1  0  0  0
 72148  1  0  0  0
 73 74  2  0  0  0
 73 75  1  0  0  0
 73149  1  0  0  0
 74 82  1  0  0  0
 75 76  2  0  0  0
 75 85  1  0  0  0
 76 87  1  0  0  0
 77 81  1  0  0  0
 77 84  1  0  0  0
 77 86  2  0  0  0
 78 79  1  0  0  0
 78 80  1  0  0  0
 78150  1  0  0  0
 78151  1  0  0  0
 79 81  1  0  0  0
 79152  1  0  0  0
 79153  1  0  0  0
 80 84  1  0  0  0
 80154  1  0  0  0
 80155  1  0  0  0
 81 83  1  0  0  0
 81156  1  0  0  0
 82 84  1  0  0  0
 82157  1  0  0  0
 82158  1  0  0  0
 83159  1  0  0  0
 83160  1  0  0  0
 85161  1  0  0  0
M  ISO  4   1 100  68 101  83 101  85 100
M  END
> <chiral flag>
0

> <version>
0

> <s_m_source_file>
/data/baiqing/PycharmProjects/Reinvent-master-3.2/result/LINK_invent/BTK/process_docking_weight1_custom_product_contain_oxygen_bond_distance_aromatic_linkinvent_7_9_3/rearranged_h_0041.sdf

> <i_m_source_file_index>
38

> <r_mmod_Potential_Energy-OPLS-2005>
31.5114555358887

> <r_mmod_Stretch_Energy-OPLS-2005>
53.594898223877

> <r_mmod_Bend_Energy-OPLS-2005>
109.667861938477

> <r_mmod_Torsional_Energy-OPLS-2005>
265.558715820312

> <r_mmod_Improper_Torsional_Energy-OPLS-2005>
6.29849767684937

> <r_mmod_Van_der_Waal_Energy-OPLS-2005>
170.985595703125

> <r_mmod_Electrostatic_Energy-OPLS-2005>
-382.381713867188

> <r_mmod_Solvation_Energy-OPLS-2005>
-225.133209228516

> <b_mmod_Minimization_Converged-OPLS-2005>
0

> <r_mmod_RMS_Derivative-OPLS-2005>
7.29236507415771

$$$$
38
                    3D
 Structure written by MMmdl.
169178  0  0  1  0            999 V2000
  -30.6779  -14.5161   20.5514 C   0  0  0  0  0  0
  -30.4310  -12.3273   19.4286 C   0  0  0  0  0  0
  -29.4990  -12.5050   18.2108 C   0  0  0  0  0  0
  -28.0205  -12.3609   18.6237 C   0  0  0  0  0  0
  -27.6623  -13.2073   19.8745 C   0  0  2  0  0  0
  -28.7058  -12.9994   20.9959 C   0  0  0  0  0  0
  -25.2601  -13.8163   20.5693 C   0  0  0  0  0  0
  -24.1847  -13.0441   20.9179 C   0  0  0  0  0  0
  -24.6398  -11.6908   20.8734 C   0  0  0  0  0  0
  -23.9061  -10.4294   21.0403 C   0  0  0  0  0  0
  -24.3611   -9.4210   21.9184 C   0  0  0  0  0  0
  -23.6287   -8.2246   22.0756 C   0  0  0  0  0  0
  -22.4271   -8.0281   21.3545 C   0  0  0  0  0  0
  -21.9907   -9.0255   20.4647 C   0  0  0  0  0  0
  -22.7233  -10.2136   20.3054 C   0  0  0  0  0  0
  -21.6851   -6.0735   22.5278 C   0  0  0  0  0  0
  -21.4014   -6.5640   23.8212 C   0  0  0  0  0  0
  -21.3660   -5.6792   24.9174 C   0  0  0  0  0  0
  -21.6043   -4.3055   24.7224 C   0  0  0  0  0  0
  -21.8820   -3.8147   23.4346 C   0  0  0  0  0  0
  -21.9193   -4.6963   22.3402 C   0  0  0  0  0  0
  -22.7870  -13.5243   21.1839 C   0  0  0  0  0  0
  -22.1661   -4.2150   21.0979 F   0  0  0  0  0  0
  -21.5629   -3.4538   25.7737 F   0  0  0  0  0  0
  -30.0342  -13.3182   20.4429 N   0  0  0  0  0  0
  -26.3033  -12.9330   20.3368 N   0  0  0  0  0  0
  -25.9326  -11.6490   20.5768 N   0  0  0  0  0  0
  -22.0504  -12.8236   22.0391 N   0  0  0  0  0  0
  -25.4338  -15.1880   20.4114 N   0  0  0  0  0  0
  -31.8128  -14.6958   20.1008 O   0  0  0  0  0  0
  -21.6638   -6.8877   21.4239 O   0  0  0  0  0  0
  -22.3560  -14.5552   20.6691 O   0  0  0  0  0  0
  -24.6196  -31.8663   23.2095 C   0  0  0  0  0  0
  -25.9072  -32.4816   23.8396 C   0  0  1  0  0  0
  -27.2232  -27.3924   20.0977 C   0  0  0  0  0  0
  -25.5916  -33.8615   24.2323 N   0  0  0  0  0  0
  -23.4091  -30.4929   21.5515 C   0  0  2  0  0  0
  -24.8537  -28.9645   20.1096 C   0  0  0  0  0  0
  -22.7440  -29.4653   22.4970 C   0  0  0  0  0  0
  -18.0279  -28.1378   22.8490 C   0  0  0  0  0  0
  -24.1487  -36.7310   23.2636 C   0  0  0  0  0  0
  -25.9448  -30.8206   21.3696 C   0  0  0  0  0  0
  -26.0206  -29.4558   20.7087 C   0  0  0  0  0  0
  -27.2106  -28.6807   20.6950 C   0  0  0  0  0  0
  -26.0350  -26.9435   19.4731 C   0  0  0  0  0  0
  -24.8588  -27.7096   19.4851 C   0  0  0  0  0  0
  -23.6181  -29.8342   20.1640 C   0  0  0  0  0  0
  -25.4110  -36.3107   24.0334 C   0  0  1  0  0  0
  -20.5875  -28.3673   23.1304 C   0  0  2  0  0  0
  -20.6770  -26.9404   22.5413 C   0  0  0  0  0  0
  -19.5748  -26.6386   21.5210 C   0  0  0  0  0  0
  -18.1924  -26.7925   22.1618 C   0  0  0  0  0  0
  -19.1530  -28.8841   23.2893 C   0  0  0  0  0  0
  -18.9457  -30.1446   23.8904 C   0  0  0  0  0  0
  -17.6459  -30.6582   24.0566 C   0  0  0  0  0  0
  -25.9042  -34.9472   23.5124 C   0  0  0  0  0  0
  -16.5348  -29.9085   23.6329 C   0  0  0  0  0  0
  -16.7268  -28.6502   23.0349 C   0  0  0  0  0  0
  -26.4482  -31.6601   25.0735 C   0  0  0  0  0  0
  -25.3736  -31.3711   26.1473 C   0  0  0  0  0  0
  -27.0323  -30.3041   24.6135 C   0  0  0  0  0  0
  -27.6051  -32.4328   25.7499 C   0  0  0  0  0  0
  -27.5582  -37.1811   24.8464 C   0  0  0  0  0  0
  -21.4161  -29.3039   22.3710 N   0  0  0  0  0  0
  -26.4295  -37.3794   23.9407 N   0  0  0  0  0  0
  -24.6766  -31.0738   22.1014 N   0  0  0  0  0  0
  -23.4197  -28.8180   23.3013 O   0  0  0  0  0  0
  -28.3540  -26.5785   20.1467 O   0  0  0  0  0  0
  -26.5603  -34.8924   22.4685 O   0  0  0  0  0  0
  -23.5377  -32.1426   23.7466 O   0  0  0  0  0  0
  -31.1407  -19.0276   20.2640 C   0  0  0  0  0  0
  -30.9849  -17.6243   20.2082 C   0  0  0  0  0  0
  -30.4354  -19.8140   21.2033 C   0  0  0  0  0  0
  -29.5110  -19.1549   22.0636 C   0  0  0  0  0  0
  -29.3666  -17.7322   22.0205 C   0  0  0  0  0  0
  -30.1209  -16.9466   21.1020 C   0  0  0  0  0  0
  -29.4618  -23.6899   18.6461 C   0  0  0  0  0  0
  -28.1149  -24.2846   19.0967 C   0  0  0  0  0  0
  -28.8966  -24.5742   21.5972 C   0  0  0  0  0  0
  -29.8602  -22.3464   19.3199 C   0  0  0  0  0  0
  -30.1761  -23.7197   21.3803 C   0  0  0  0  0  0
  -28.1169  -25.1556   20.3823 C   0  0  1  0  0  0
  -28.6970  -19.9603   23.0749 C   0  0  0  0  0  0
  -28.4039  -17.0429   22.9892 C   0  0  0  0  0  0
  -30.8236  -21.3066   21.3755 C   0  0  0  0  0  0
  -29.9338  -15.5157   21.0812 N   0  0  0  0  0  0
  -29.9105  -22.3580   20.8094 N   0  3  2  0  0  0
  -31.4740  -12.4355   19.1251 H   0  0  0  0  0  0
  -30.3439  -11.3187   19.8357 H   0  0  0  0  0  0
  -29.7435  -11.7727   17.4402 H   0  0  0  0  0  0
  -29.6605  -13.4863   17.7617 H   0  0  0  0  0  0
  -27.8366  -11.3054   18.8275 H   0  0  0  0  0  0
  -27.3684  -12.6260   17.7905 H   0  0  0  0  0  0
  -27.7024  -14.2532   19.5695 H   0  0  0  0  0  0
  -28.6913  -11.9639   21.3396 H   0  0  0  0  0  0
  -28.4612  -13.5977   21.8746 H   0  0  0  0  0  0
  -25.2757   -9.5687   22.4758 H   0  0  0  0  0  0
  -23.9996   -7.4640   22.7477 H   0  0  0  0  0  0
  -21.0839   -8.8772   19.8951 H   0  0  0  0  0  0
  -22.3692  -10.9673   19.6162 H   0  0  0  0  0  0
  -21.2007   -7.6148   23.9715 H   0  0  0  0  0  0
  -21.1480   -6.0523   25.9077 H   0  0  0  0  0  0
  -22.0599   -2.7609   23.2845 H   0  0  0  0  0  0
  -22.4110  -11.9888   22.4769 H   0  0  0  0  0  0
  -21.1121  -13.1264   22.2590 H   0  0  0  0  0  0
  -24.6682  -15.8443   20.5190 H   0  0  0  0  0  0
  -26.2869  -15.6255   20.0864 H   0  0  0  0  0  0
  -26.7142  -32.5512   23.1156 H   0  0  0  0  0  0
  -25.0077  -33.9776   25.0476 H   0  0  0  0  0  0
  -22.6993  -31.3114   21.4153 H   0  0  0  0  0  0
  -23.3749  -35.9644   23.3307 H   0  0  0  0  0  0
  -24.3578  -36.8922   22.2049 H   0  0  0  0  0  0
  -23.7240  -37.6516   23.6650 H   0  0  0  0  0  0
  -26.0662  -31.5891   20.6049 H   0  0  0  0  0  0
  -26.8294  -30.8679   21.9930 H   0  0  0  0  0  0
  -28.1068  -29.0521   21.1721 H   0  0  0  0  0  0
  -25.9861  -25.9842   18.9830 H   0  0  0  0  0  0
  -23.9642  -27.3276   19.0126 H   0  0  0  0  0  0
  -23.7288  -30.6134   19.4090 H   0  0  0  0  0  0
  -22.7407  -29.2581   19.8648 H   0  0  0  0  0  0
  -25.1287  -36.1971   25.0827 H   0  0  0  0  0  0
  -20.9968  -28.3240   24.1424 H   0  0  0  0  0  0
  -20.5677  -26.2278   23.3602 H   0  0  0  0  0  0
  -21.6639  -26.7443   22.1204 H   0  0  0  0  0  0
  -19.6910  -25.6302   21.1229 H   0  0  0  0  0  0
  -19.6689  -27.3205   20.6748 H   0  0  0  0  0  0
  -17.4200  -26.6684   21.4012 H   0  0  0  0  0  0
  -18.0315  -26.0058   22.9004 H   0  0  0  0  0  0
  -19.7932  -30.7260   24.2275 H   0  0  0  0  0  0
  -17.5015  -31.6263   24.5170 H   0  0  0  0  0  0
  -15.5351  -30.2992   23.7648 H   0  0  0  0  0  0
  -15.8666  -28.0829   22.7057 H   0  0  0  0  0  0
  -24.5936  -30.7023   25.7817 H   0  0  0  0  0  0
  -24.8890  -32.2860   26.4889 H   0  0  0  0  0  0
  -25.8086  -30.8918   27.0252 H   0  0  0  0  0  0
  -26.2881  -29.6796   24.1176 H   0  0  0  0  0  0
  -27.4073  -29.7283   25.4606 H   0  0  0  0  0  0
  -27.8725  -30.4357   23.9313 H   0  0  0  0  0  0
  -27.2670  -33.3632   26.2075 H   0  0  0  0  0  0
  -28.3858  -32.6882   25.0323 H   0  0  0  0  0  0
  -28.0718  -31.8453   26.5414 H   0  0  0  0  0  0
  -28.2602  -38.0107   24.7517 H   0  0  0  0  0  0
  -28.1077  -36.2639   24.6286 H   0  0  0  0  0  0
  -27.2299  -37.1459   25.8866 H   0  0  0  0  0  0
  -20.9322  -29.8783   21.6951 H   0  0  0  0  0  0
  -26.0183  -38.2871   24.1411 H   0  0  0  0  0  0
  -31.8526  -19.4941   19.5968 H   0  0  0  0  0  0
  -31.5571  -17.0803   19.4709 H   0  0  0  0  0  0
  -30.2512  -24.4376   18.7261 H   0  0  0  0  0  0
  -29.3919  -23.4900   17.5761 H   0  0  0  0  0  0
  -27.3977  -23.4706   19.2129 H   0  0  0  0  0  0
  -27.7296  -24.8847   18.2727 H   0  0  0  0  0  0
  -29.1508  -25.4090   22.2511 H   0  0  0  0  0  0
  -28.2063  -23.9725   22.1905 H   0  0  0  0  0  0
  -30.8391  -22.0637   18.9297 H   0  0  0  0  0  0
  -29.1788  -21.5538   19.0079 H   0  0  0  0  0  0
  -30.6162  -23.6044   22.3712 H   0  0  0  0  0  0
  -30.9383  -24.2578   20.8168 H   0  0  0  0  0  0
  -27.0942  -25.0779   20.7548 H   0  0  0  0  0  0
  -28.6174  -21.0149   22.8215 H   0  0  0  0  0  0
  -29.1456  -19.8871   24.0663 H   0  0  0  0  0  0
  -27.6718  -19.5945   23.1369 H   0  0  0  0  0  0
  -28.4193  -17.5136   23.9716 H   0  0  0  0  0  0
  -28.6473  -15.9971   23.1697 H   0  0  0  0  0  0
  -27.3853  -17.0893   22.6034 H   0  0  0  0  0  0
  -31.8266  -21.4635   20.9750 H   0  0  0  0  0  0
  -30.9370  -21.4611   22.4490 H   0  0  0  0  0  0
  -29.0725  -15.1948   21.4940 H   0  0  0  0  0  0
  -28.9898  -22.1020   21.1289 H   0  0  0  0  0  0
  1 25  1  0  0  0
  1 30  2  0  0  0
  1 86  1  0  0  0
  2  3  1  0  0  0
  2 25  1  0  0  0
  2 88  1  0  0  0
  2 89  1  0  0  0
  3  4  1  0  0  0
  3 90  1  0  0  0
  3 91  1  0  0  0
  4  5  1  0  0  0
  4 92  1  0  0  0
  4 93  1  0  0  0
  5  6  1  0  0  0
  5 26  1  0  0  0
  5 94  1  0  0  0
  6 25  1  0  0  0
  6 95  1  0  0  0
  6 96  1  0  0  0
  7  8  2  0  0  0
  7 26  1  0  0  0
  7 29  1  0  0  0
  8  9  1  0  0  0
  8 22  1  0  0  0
  9 10  1  0  0  0
  9 27  2  0  0  0
 10 11  2  0  0  0
 10 15  1  0  0  0
 11 12  1  0  0  0
 11 97  1  0  0  0
 12 13  2  0  0  0
 12 98  1  0  0  0
 13 14  1  0  0  0
 13 31  1  0  0  0
 14 15  2  0  0  0
 14 99  1  0  0  0
 15100  1  0  0  0
 16 17  2  0  0  0
 16 21  1  0  0  0
 16 31  1  0  0  0
 17 18  1  0  0  0
 17101  1  0  0  0
 18 19  2  0  0  0
 18102  1  0  0  0
 19 20  1  0  0  0
 19 24  1  0  0  0
 20 21  2  0  0  0
 20103  1  0  0  0
 21 23  1  0  0  0
 22 28  1  0  0  0
 22 32  2  0  0  0
 26 27  1  0  0  0
 28104  1  0  0  0
 28105  1  0  0  0
 29106  1  0  0  0
 29107  1  0  0  0
 33 34  1  0  0  0
 33 66  1  0  0  0
 33 70  2  0  0  0
 34 36  1  0  0  0
 34 59  1  0  0  0
 34108  1  0  0  0
 35 44  2  0  0  0
 35 45  1  0  0  0
 35 68  1  0  0  0
 36 56  1  0  0  0
 36109  1  0  0  0
 37 39  1  0  0  0
 37 47  1  0  0  0
 37 66  1  0  0  0
 37110  1  0  0  0
 38 43  2  0  0  0
 38 46  1  0  0  0
 38 47  1  0  0  0
 39 64  1  0  0  0
 39 67  2  0  0  0
 40 52  1  0  0  0
 40 53  2  0  0  0
 40 58  1  0  0  0
 41111  1  0  0  0
 41112  1  0  0  0
 41113  1  0  0  0
 41 48  1  0  0  0
 42 43  1  0  0  0
 42 66  1  0  0  0
 42114  1  0  0  0
 42115  1  0  0  0
 43 44  1  0  0  0
 44116  1  0  0  0
 45 46  2  0  0  0
 45117  1  0  0  0
 46118  1  0  0  0
 47119  1  0  0  0
 47120  1  0  0  0
 48 56  1  0  0  0
 48 65  1  0  0  0
 48121  1  0  0  0
 49 50  1  0  0  0
 49 53  1  0  0  0
 49 64  1  0  0  0
 49122  1  0  0  0
 50 51  1  0  0  0
 50123  1  0  0  0
 50124  1  0  0  0
 51 52  1  0  0  0
 51125  1  0  0  0
 51126  1  0  0  0
 52127  1  0  0  0
 52128  1  0  0  0
 53 54  1  0  0  0
 54 55  2  0  0  0
 54129  1  0  0  0
 55 57  1  0  0  0
 55130  1  0  0  0
 56 69  2  0  0  0
 57 58  2  0  0  0
 57131  1  0  0  0
 58132  1  0  0  0
 59 60  1  0  0  0
 59 61  1  0  0  0
 59 62  1  0  0  0
 60133  1  0  0  0
 60134  1  0  0  0
 60135  1  0  0  0
 61136  1  0  0  0
 61137  1  0  0  0
 61138  1  0  0  0
 62139  1  0  0  0
 62140  1  0  0  0
 62141  1  0  0  0
 63 65  1  0  0  0
 63142  1  0  0  0
 63143  1  0  0  0
 63144  1  0  0  0
 64145  1  0  0  0
 65146  1  0  0  0
 68 82  1  0  0  0
 71 72  2  0  0  0
 71 73  1  0  0  0
 71147  1  0  0  0
 72 76  1  0  0  0
 72148  1  0  0  0
 73 74  2  0  0  0
 73 85  1  0  0  0
 74 75  1  0  0  0
 74 83  1  0  0  0
 75 76  2  0  0  0
 75 84  1  0  0  0
 76 86  1  0  0  0
 77 78  1  0  0  0
 77 80  1  0  0  0
 77149  1  0  0  0
 77150  1  0  0  0
 78 82  1  0  0  0
 78151  1  0  0  0
 78152  1  0  0  0
 79 81  1  0  0  0
 79 82  1  0  0  0
 79153  1  0  0  0
 79154  1  0  0  0
 80 87  1  0  0  0
 80155  1  0  0  0
 80156  1  0  0  0
 81 87  1  0  0  0
 81157  1  0  0  0
 81158  1  0  0  0
 82159  1  0  0  0
 83160  1  0  0  0
 83161  1  0  0  0
 83162  1  0  0  0
 84163  1  0  0  0
 84164  1  0  0  0
 84165  1  0  0  0
 85166  1  0  0  0
 85167  1  0  0  0
 85 87  1  0  0  0
 86168  1  0  0  0
 87169  1  0  0  0
M  CHG  1  87   1
M  ISO  4   1 100  68 101  82 101  86 100
M  END
> <chiral flag>
0

> <version>
0

> <s_m_source_file>
/data/baiqing/PycharmProjects/Reinvent-master-3.2/result/LINK_invent/BTK/process_docking_weight1_custom_product_contain_oxygen_bond_distance_aromatic_linkinvent_7_9_3/rearranged_h_0041.sdf

> <i_m_source_file_index>
39

> <r_mmod_Potential_Energy-OPLS-2005>
-83.5342330932617

> <r_mmod_Stretch_Energy-OPLS-2005>
54.4540481567383

> <r_mmod_Bend_Energy-OPLS-2005>
134.88752746582

> <r_mmod_Torsional_Energy-OPLS-2005>
267.105651855469

> <r_mmod_Improper_Torsional_Energy-OPLS-2005>
3.66931772232056

> <r_mmod_Van_der_Waal_Energy-OPLS-2005>
171.443618774414

> <r_mmod_Electrostatic_Energy-OPLS-2005>
-305.331665039062

> <r_mmod_Solvation_Energy-OPLS-2005>
-431.147827148438

> <b_mmod_Minimization_Converged-OPLS-2005>
0

> <r_mmod_RMS_Derivative-OPLS-2005>
0.352215677499771

$$$$
39
                    3D
 Structure written by MMmdl.
163172  0  0  1  0            999 V2000
  -30.6042  -14.6600   20.5187 C   0  0  0  0  0  0
  -30.4266  -12.4058   19.4680 C   0  0  0  0  0  0
  -29.5034  -12.5371   18.2370 C   0  0  0  0  0  0
  -28.0238  -12.3688   18.6397 C   0  0  0  0  0  0
  -27.6488  -13.2272   19.8779 C   0  0  2  0  0  0
  -28.6906  -13.0752   21.0116 C   0  0  0  0  0  0
  -25.2491  -13.8211   20.5720 C   0  0  0  0  0  0
  -24.1800  -13.0428   20.9236 C   0  0  0  0  0  0
  -24.6421  -11.6911   20.8811 C   0  0  0  0  0  0
  -23.9121  -10.4282   21.0419 C   0  0  0  0  0  0
  -24.3651   -9.4185   21.9190 C   0  0  0  0  0  0
  -23.6306   -8.2232   22.0762 C   0  0  0  0  0  0
  -22.4291   -8.0286   21.3548 C   0  0  0  0  0  0
  -21.9938   -9.0261   20.4665 C   0  0  0  0  0  0
  -22.7292  -10.2127   20.3050 C   0  0  0  0  0  0
  -21.6855   -6.0742   22.5296 C   0  0  0  0  0  0
  -21.4018   -6.5635   23.8232 C   0  0  0  0  0  0
  -21.3673   -5.6799   24.9199 C   0  0  0  0  0  0
  -21.6042   -4.3057   24.7258 C   0  0  0  0  0  0
  -21.8806   -3.8163   23.4385 C   0  0  0  0  0  0
  -21.9190   -4.6971   22.3432 C   0  0  0  0  0  0
  -22.7809  -13.5150   21.1874 C   0  0  0  0  0  0
  -22.1627   -4.2153   21.1001 F   0  0  0  0  0  0
  -21.5648   -3.4533   25.7775 F   0  0  0  0  0  0
  -30.0119  -13.4215   20.4612 N   0  0  0  0  0  0
  -26.2963  -12.9419   20.3428 N   0  0  0  0  0  0
  -25.9363  -11.6570   20.5874 N   0  0  0  0  0  0
  -22.0476  -12.8154   22.0469 N   0  0  0  0  0  0
  -25.4107  -15.1943   20.4079 N   0  0  0  0  0  0
  -31.7234  -14.8534   20.0305 O   0  0  0  0  0  0
  -21.6651   -6.8888   21.4254 O   0  0  0  0  0  0
  -22.3452  -14.5440   20.6714 O   0  0  0  0  0  0
  -24.6244  -31.8594   23.1983 C   0  0  0  0  0  0
  -25.9098  -32.4777   23.8315 C   0  0  1  0  0  0
  -27.2451  -27.3322   20.1239 C   0  0  0  0  0  0
  -25.5896  -33.8577   24.2238 N   0  0  0  0  0  0
  -23.4214  -30.4807   21.5375 C   0  0  2  0  0  0
  -24.8742  -28.9291   20.1129 C   0  0  0  0  0  0
  -22.7473  -29.4637   22.4894 C   0  0  0  0  0  0
  -18.0286  -28.1412   22.8477 C   0  0  0  0  0  0
  -24.1492  -36.7305   23.2628 C   0  0  0  0  0  0
  -25.9597  -30.7977   21.3647 C   0  0  0  0  0  0
  -26.0418  -29.4237   20.7100 C   0  0  0  0  0  0
  -27.2320  -28.6410   20.6959 C   0  0  0  0  0  0
  -26.0547  -26.8760   19.5179 C   0  0  0  0  0  0
  -24.8841  -27.6637   19.5022 C   0  0  0  0  0  0
  -23.6394  -29.8080   20.1551 C   0  0  0  0  0  0
  -25.4115  -36.3088   24.0320 C   0  0  1  0  0  0
  -20.5889  -28.3727   23.1279 C   0  0  2  0  0  0
  -20.6786  -26.9441   22.5425 C   0  0  0  0  0  0
  -19.5764  -26.6401   21.5221 C   0  0  0  0  0  0
  -18.1936  -26.7959   22.1619 C   0  0  0  0  0  0
  -19.1530  -28.8885   23.2889 C   0  0  0  0  0  0
  -18.9455  -30.1471   23.8912 C   0  0  0  0  0  0
  -17.6449  -30.6608   24.0574 C   0  0  0  0  0  0
  -25.9057  -34.9462   23.5104 C   0  0  0  0  0  0
  -16.5349  -29.9108   23.6316 C   0  0  0  0  0  0
  -16.7266  -28.6542   23.0327 C   0  0  0  0  0  0
  -26.4482  -31.6589   25.0690 C   0  0  0  0  0  0
  -25.3691  -31.3756   26.1390 C   0  0  0  0  0  0
  -27.0297  -30.2995   24.6161 C   0  0  0  0  0  0
  -27.6051  -32.4314   25.7459 C   0  0  0  0  0  0
  -27.5615  -37.1770   24.8429 C   0  0  0  0  0  0
  -21.4189  -29.3062   22.3645 N   0  0  0  0  0  0
  -26.4278  -37.3799   23.9439 N   0  0  0  0  0  0
  -24.6874  -31.0604   22.0916 N   0  0  0  0  0  0
  -23.4197  -28.8148   23.2952 O   0  0  0  0  0  0
  -28.3874  -26.5180   20.1074 O   0  0  0  0  0  0
  -26.5655  -34.8935   22.4682 O   0  0  0  0  0  0
  -23.5418  -32.1369   23.7324 O   0  0  0  0  0  0
  -28.8753  -19.3312   21.5826 C   0  0  0  0  0  0
  -29.1831  -17.9585   21.8141 C   0  0  0  0  0  0
  -30.0014  -17.7418   19.5703 C   0  0  0  0  0  0
  -29.0831  -19.9567   20.3220 C   0  0  0  0  0  0
  -29.7358  -17.1087   20.8171 C   0  0  0  0  0  0
  -29.6820  -19.1214   19.3268 C   0  0  0  0  0  0
  -29.2079  -25.0151   21.8283 C   0  0  0  0  0  0
  -30.5286  -24.2746   21.5490 C   0  0  0  0  0  0
  -28.7124  -23.9810   19.5237 C   0  0  0  0  0  0
  -28.3066  -25.1103   20.5772 C   0  0  2  0  0  0
  -30.2798  -22.7980   21.1564 C   0  0  2  0  0  0
  -31.6143  -22.1033   20.8385 C   0  0  0  0  0  0
  -28.4805  -21.4002   20.0285 C   0  0  0  0  0  0
  -29.8659  -15.6680   21.0878 N   0  0  0  0  0  0
  -29.3418  -22.6612   20.0040 N   0  3  1  0  0  0
  -29.9777  -19.7604   17.7496 Cl  0  0  0  0  0  0
  -31.4669  -12.5288   19.1647 H   0  0  0  0  0  0
  -30.3541  -11.4037   19.8940 H   0  0  0  0  0  0
  -29.7759  -11.8011   17.4800 H   0  0  0  0  0  0
  -29.6432  -13.5181   17.7800 H   0  0  0  0  0  0
  -27.8555  -11.3134   18.8572 H   0  0  0  0  0  0
  -27.3699  -12.6088   17.7996 H   0  0  0  0  0  0
  -27.6649  -14.2695   19.5526 H   0  0  0  0  0  0
  -28.7030  -12.0556   21.3997 H   0  0  0  0  0  0
  -28.4248  -13.7080   21.8604 H   0  0  0  0  0  0
  -25.2788   -9.5640   22.4779 H   0  0  0  0  0  0
  -24.0030   -7.4607   22.7440 H   0  0  0  0  0  0
  -21.0873   -8.8776   19.8965 H   0  0  0  0  0  0
  -22.3752  -10.9658   19.6157 H   0  0  0  0  0  0
  -21.1996   -7.6134   23.9740 H   0  0  0  0  0  0
  -21.1500   -6.0522   25.9087 H   0  0  0  0  0  0
  -22.0584   -2.7622   23.2891 H   0  0  0  0  0  0
  -22.4093  -11.9808   22.4842 H   0  0  0  0  0  0
  -21.1081  -13.1181   22.2670 H   0  0  0  0  0  0
  -24.6364  -15.8415   20.5150 H   0  0  0  0  0  0
  -26.2643  -15.6542   20.1191 H   0  0  0  0  0  0
  -26.7178  -32.5478   23.1074 H   0  0  0  0  0  0
  -24.9968  -33.9704   25.0333 H   0  0  0  0  0  0
  -22.7165  -31.3008   21.3893 H   0  0  0  0  0  0
  -23.3794  -35.9593   23.3188 H   0  0  0  0  0  0
  -24.3618  -36.9040   22.2071 H   0  0  0  0  0  0
  -23.7178  -37.6442   23.6727 H   0  0  0  0  0  0
  -26.0900  -31.5640   20.5972 H   0  0  0  0  0  0
  -26.8415  -30.8504   21.9939 H   0  0  0  0  0  0
  -28.1358  -29.0301   21.1434 H   0  0  0  0  0  0
  -26.0247  -25.9032   19.0477 H   0  0  0  0  0  0
  -23.9916  -27.2827   19.0239 H   0  0  0  0  0  0
  -23.7607  -30.5826   19.3961 H   0  0  0  0  0  0
  -22.7619  -29.2351   19.8522 H   0  0  0  0  0  0
  -25.1296  -36.1927   25.0806 H   0  0  0  0  0  0
  -21.0001  -28.3319   24.1395 H   0  0  0  0  0  0
  -20.5702  -26.2331   23.3623 H   0  0  0  0  0  0
  -21.6651  -26.7480   22.1197 H   0  0  0  0  0  0
  -19.6925  -25.6306   21.1257 H   0  0  0  0  0  0
  -19.6714  -27.3213   20.6754 H   0  0  0  0  0  0
  -17.4215  -26.6713   21.4011 H   0  0  0  0  0  0
  -18.0323  -26.0101   22.9013 H   0  0  0  0  0  0
  -19.7928  -30.7291   24.2299 H   0  0  0  0  0  0
  -17.5004  -31.6277   24.5183 H   0  0  0  0  0  0
  -15.5356  -30.3026   23.7622 H   0  0  0  0  0  0
  -15.8669  -28.0874   22.7011 H   0  0  0  0  0  0
  -24.5857  -30.7126   25.7703 H   0  0  0  0  0  0
  -24.8874  -32.2933   26.4788 H   0  0  0  0  0  0
  -25.7956  -30.8932   27.0188 H   0  0  0  0  0  0
  -26.2858  -29.6752   24.1188 H   0  0  0  0  0  0
  -27.3968  -29.7261   25.4689 H   0  0  0  0  0  0
  -27.8753  -30.4247   23.9388 H   0  0  0  0  0  0
  -27.2673  -33.3616   26.2039 H   0  0  0  0  0  0
  -28.3853  -32.6866   25.0276 H   0  0  0  0  0  0
  -28.0720  -31.8426   26.5358 H   0  0  0  0  0  0
  -28.2520  -38.0183   24.7664 H   0  0  0  0  0  0
  -28.1225  -36.2733   24.6013 H   0  0  0  0  0  0
  -27.2365  -37.1119   25.8825 H   0  0  0  0  0  0
  -20.9359  -29.8784   21.6870 H   0  0  0  0  0  0
  -26.0164  -38.2855   24.1541 H   0  0  0  0  0  0
  -28.4019  -19.8897   22.3805 H   0  0  0  0  0  0
  -28.9470  -17.5426   22.7822 H   0  0  0  0  0  0
  -30.3962  -17.1497   18.7549 H   0  0  0  0  0  0
  -29.4164  -26.0118   22.2176 H   0  0  0  0  0  0
  -28.6726  -24.4955   22.6267 H   0  0  0  0  0  0
  -31.1622  -24.3069   22.4357 H   0  0  0  0  0  0
  -31.0901  -24.7895   20.7662 H   0  0  0  0  0  0
  -29.4979  -24.4354   18.9186 H   0  0  0  0  0  0
  -27.8978  -23.7970   18.8239 H   0  0  0  0  0  0
  -27.2857  -24.9138   20.9102 H   0  0  0  0  0  0
  -29.8327  -22.2973   22.0160 H   0  0  0  0  0  0
  -32.1849  -22.6469   20.0839 H   0  0  0  0  0  0
  -31.4823  -21.0843   20.4754 H   0  0  0  0  0  0
  -32.2340  -22.0392   21.7328 H   0  0  0  0  0  0
  -27.6798  -21.5696   20.7513 H   0  0  0  0  0  0
  -27.9732  -21.3376   19.0627 H   0  0  0  0  0  0
  -29.1542  -15.3046   21.7035 H   0  0  0  0  0  0
  -29.9529  -22.4586   19.2270 H   0  0  0  0  0  0
  1 25  1  0  0  0
  1 30  2  0  0  0
  1 84  1  0  0  0
  2  3  1  0  0  0
  2 25  1  0  0  0
  2 87  1  0  0  0
  2 88  1  0  0  0
  3  4  1  0  0  0
  3 89  1  0  0  0
  3 90  1  0  0  0
  4  5  1  0  0  0
  4 91  1  0  0  0
  4 92  1  0  0  0
  5  6  1  0  0  0
  5 26  1  0  0  0
  5 93  1  0  0  0
  6 25  1  0  0  0
  6 94  1  0  0  0
  6 95  1  0  0  0
  7  8  2  0  0  0
  7 26  1  0  0  0
  7 29  1  0  0  0
  8  9  1  0  0  0
  8 22  1  0  0  0
  9 10  1  0  0  0
  9 27  2  0  0  0
 10 11  2  0  0  0
 10 15  1  0  0  0
 11 12  1  0  0  0
 11 96  1  0  0  0
 12 13  2  0  0  0
 12 97  1  0  0  0
 13 14  1  0  0  0
 13 31  1  0  0  0
 14 15  2  0  0  0
 14 98  1  0  0  0
 15 99  1  0  0  0
 16 17  2  0  0  0
 16 21  1  0  0  0
 16 31  1  0  0  0
 17 18  1  0  0  0
 17100  1  0  0  0
 18 19  2  0  0  0
 18101  1  0  0  0
 19 20  1  0  0  0
 19 24  1  0  0  0
 20 21  2  0  0  0
 20102  1  0  0  0
 21 23  1  0  0  0
 22 28  1  0  0  0
 22 32  2  0  0  0
 26 27  1  0  0  0
 28103  1  0  0  0
 28104  1  0  0  0
 29105  1  0  0  0
 29106  1  0  0  0
 33 34  1  0  0  0
 33 66  1  0  0  0
 33 70  2  0  0  0
 34 36  1  0  0  0
 34 59  1  0  0  0
 34107  1  0  0  0
 35 44  2  0  0  0
 35 45  1  0  0  0
 35 68  1  0  0  0
 36 56  1  0  0  0
 36108  1  0  0  0
 37 39  1  0  0  0
 37 47  1  0  0  0
 37 66  1  0  0  0
 37109  1  0  0  0
 38 43  2  0  0  0
 38 46  1  0  0  0
 38 47  1  0  0  0
 39 64  1  0  0  0
 39 67  2  0  0  0
 40 52  1  0  0  0
 40 53  2  0  0  0
 40 58  1  0  0  0
 41110  1  0  0  0
 41111  1  0  0  0
 41112  1  0  0  0
 41 48  1  0  0  0
 42 43  1  0  0  0
 42 66  1  0  0  0
 42113  1  0  0  0
 42114  1  0  0  0
 43 44  1  0  0  0
 44115  1  0  0  0
 45 46  2  0  0  0
 45116  1  0  0  0
 46117  1  0  0  0
 47118  1  0  0  0
 47119  1  0  0  0
 48 56  1  0  0  0
 48 65  1  0  0  0
 48120  1  0  0  0
 49 50  1  0  0  0
 49 53  1  0  0  0
 49 64  1  0  0  0
 49121  1  0  0  0
 50 51  1  0  0  0
 50122  1  0  0  0
 50123  1  0  0  0
 51 52  1  0  0  0
 51124  1  0  0  0
 51125  1  0  0  0
 52126  1  0  0  0
 52127  1  0  0  0
 53 54  1  0  0  0
 54 55  2  0  0  0
 54128  1  0  0  0
 55 57  1  0  0  0
 55129  1  0  0  0
 56 69  2  0  0  0
 57 58  2  0  0  0
 57130  1  0  0  0
 58131  1  0  0  0
 59 60  1  0  0  0
 59 61  1  0  0  0
 59 62  1  0  0  0
 60132  1  0  0  0
 60133  1  0  0  0
 60134  1  0  0  0
 61135  1  0  0  0
 61136  1  0  0  0
 61137  1  0  0  0
 62138  1  0  0  0
 62139  1  0  0  0
 62140  1  0  0  0
 63 65  1  0  0  0
 63141  1  0  0  0
 63142  1  0  0  0
 63143  1  0  0  0
 64144  1  0  0  0
 65145  1  0  0  0
 68 80  1  0  0  0
 71 72  2  0  0  0
 71 74  1  0  0  0
 71146  1  0  0  0
 72 75  1  0  0  0
 72147  1  0  0  0
 73 75  2  0  0  0
 73 76  1  0  0  0
 73148  1  0  0  0
 74 76  2  0  0  0
 74 83  1  0  0  0
 75 84  1  0  0  0
 76 86  1  0  0  0
 77 78  1  0  0  0
 77 80  1  0  0  0
 77149  1  0  0  0
 77150  1  0  0  0
 78 81  1  0  0  0
 78151  1  0  0  0
 78152  1  0  0  0
 79 80  1  0  0  0
 79 85  1  0  0  0
 79153  1  0  0  0
 79154  1  0  0  0
 80155  1  0  0  0
 81 82  1  0  0  0
 81 85  1  0  0  0
 81156  1  0  0  0
 82157  1  0  0  0
 82158  1  0  0  0
 82159  1  0  0  0
 83160  1  0  0  0
 83161  1  0  0  0
 83 85  1  0  0  0
 84162  1  0  0  0
 85163  1  0  0  0
M  CHG  1  85   1
M  ISO  4   1 100  68 101  80 101  84 100
M  END
> <chiral flag>
0

> <version>
0

> <s_m_source_file>
/data/baiqing/PycharmProjects/Reinvent-master-3.2/result/LINK_invent/BTK/process_docking_weight1_custom_product_contain_oxygen_bond_distance_aromatic_linkinvent_7_9_3/rearranged_h_0041.sdf

> <i_m_source_file_index>
40

> <r_mmod_Potential_Energy-OPLS-2005>
60.3095855712891

> <r_mmod_Stretch_Energy-OPLS-2005>
92.0764694213867

> <r_mmod_Bend_Energy-OPLS-2005>
163.245697021484

> <r_mmod_Torsional_Energy-OPLS-2005>
294.073791503906

> <r_mmod_Improper_Torsional_Energy-OPLS-2005>
4.39112281799316

> <r_mmod_Van_der_Waal_Energy-OPLS-2005>
137.402557373047

> <r_mmod_Electrostatic_Energy-OPLS-2005>
-257.558898925781

> <r_mmod_Solvation_Energy-OPLS-2005>
-420.617523193359

> <b_mmod_Minimization_Converged-OPLS-2005>
0

> <r_mmod_RMS_Derivative-OPLS-2005>
4.40893411636353

$$$$
40
                    3D
 Structure written by MMmdl.
167176  0  0  1  0            999 V2000
  -30.7171  -14.5174   20.5560 C   0  0  0  0  0  0
  -30.4134  -12.3294   19.4419 C   0  0  0  0  0  0
  -29.4945  -12.5063   18.2164 C   0  0  0  0  0  0
  -28.0163  -12.3652   18.6275 C   0  0  0  0  0  0
  -27.6572  -13.2194   19.8731 C   0  0  2  0  0  0
  -28.7003  -13.0464   21.0012 C   0  0  0  0  0  0
  -25.2551  -13.8178   20.5682 C   0  0  0  0  0  0
  -24.1825  -13.0442   20.9203 C   0  0  0  0  0  0
  -24.6403  -11.6918   20.8755 C   0  0  0  0  0  0
  -23.9070  -10.4295   21.0408 C   0  0  0  0  0  0
  -24.3617   -9.4210   21.9187 C   0  0  0  0  0  0
  -23.6289   -8.2246   22.0757 C   0  0  0  0  0  0
  -22.4273   -8.0284   21.3550 C   0  0  0  0  0  0
  -21.9912   -9.0256   20.4648 C   0  0  0  0  0  0
  -22.7240  -10.2134   20.3058 C   0  0  0  0  0  0
  -21.6856   -6.0738   22.5280 C   0  0  0  0  0  0
  -21.4013   -6.5637   23.8214 C   0  0  0  0  0  0
  -21.3664   -5.6785   24.9173 C   0  0  0  0  0  0
  -21.6039   -4.3049   24.7226 C   0  0  0  0  0  0
  -21.8822   -3.8149   23.4340 C   0  0  0  0  0  0
  -21.9192   -4.6962   22.3401 C   0  0  0  0  0  0
  -22.7842  -13.5233   21.1847 C   0  0  0  0  0  0
  -22.1662   -4.2147   21.0974 F   0  0  0  0  0  0
  -21.5628   -3.4532   25.7742 F   0  0  0  0  0  0
  -30.0260  -13.3456   20.4401 N   0  0  0  0  0  0
  -26.3011  -12.9378   20.3382 N   0  0  0  0  0  0
  -25.9336  -11.6527   20.5802 N   0  0  0  0  0  0
  -22.0484  -12.8224   22.0405 N   0  0  0  0  0  0
  -25.4225  -15.1894   20.4012 N   0  0  0  0  0  0
  -31.8445  -14.6369   20.0704 O   0  0  0  0  0  0
  -21.6642   -6.8875   21.4240 O   0  0  0  0  0  0
  -22.3525  -14.5543   20.6700 O   0  0  0  0  0  0
  -24.6194  -31.8642   23.2072 C   0  0  0  0  0  0
  -25.9065  -32.4807   23.8388 C   0  0  1  0  0  0
  -27.2344  -27.3864   20.1159 C   0  0  0  0  0  0
  -25.5898  -33.8606   24.2316 N   0  0  0  0  0  0
  -23.4114  -30.4861   21.5480 C   0  0  2  0  0  0
  -24.8586  -28.9478   20.1177 C   0  0  0  0  0  0
  -22.7452  -29.4631   22.4974 C   0  0  0  0  0  0
  -18.0277  -28.1384   22.8490 C   0  0  0  0  0  0
  -24.1481  -36.7303   23.2641 C   0  0  0  0  0  0
  -25.9450  -30.8174   21.3656 C   0  0  0  0  0  0
  -26.0220  -29.4480   20.7149 C   0  0  0  0  0  0
  -27.2131  -28.6776   20.7052 C   0  0  0  0  0  0
  -26.0518  -26.9205   19.4977 C   0  0  0  0  0  0
  -24.8719  -27.6866   19.5022 C   0  0  0  0  0  0
  -23.6221  -29.8168   20.1643 C   0  0  0  0  0  0
  -25.4105  -36.3099   24.0333 C   0  0  1  0  0  0
  -20.5873  -28.3670   23.1315 C   0  0  2  0  0  0
  -20.6767  -26.9395   22.5431 C   0  0  0  0  0  0
  -19.5741  -26.6381   21.5232 C   0  0  0  0  0  0
  -18.1918  -26.7939   22.1629 C   0  0  0  0  0  0
  -19.1532  -28.8844   23.2908 C   0  0  0  0  0  0
  -18.9460  -30.1458   23.8907 C   0  0  0  0  0  0
  -17.6454  -30.6589   24.0569 C   0  0  0  0  0  0
  -25.9029  -34.9464   23.5118 C   0  0  0  0  0  0
  -16.5343  -29.9082   23.6338 C   0  0  0  0  0  0
  -16.7265  -28.6507   23.0343 C   0  0  0  0  0  0
  -26.4481  -31.6597   25.0736 C   0  0  0  0  0  0
  -25.3730  -31.3702   26.1472 C   0  0  0  0  0  0
  -27.0333  -30.3048   24.6132 C   0  0  0  0  0  0
  -27.6065  -32.4320   25.7489 C   0  0  0  0  0  0
  -27.5580  -37.1804   24.8468 C   0  0  0  0  0  0
  -21.4168  -29.3029   22.3715 N   0  0  0  0  0  0
  -26.4293  -37.3782   23.9407 N   0  0  0  0  0  0
  -24.6768  -31.0713   22.0982 N   0  0  0  0  0  0
  -23.4198  -28.8165   23.3018 O   0  0  0  0  0  0
  -28.3918  -26.6152   20.1427 O   0  0  0  0  0  0
  -26.5596  -34.8913   22.4689 O   0  0  0  0  0  0
  -23.5382  -32.1400   23.7433 O   0  0  0  0  0  0
  -31.8883  -17.2169   21.4205 C   0  0  0  0  0  0
  -32.3698  -18.5278   21.5178 C   0  0  0  0  0  0
  -29.6266  -18.0850   21.1295 C   0  0  0  0  0  0
  -30.1083  -19.4457   21.2194 C   0  0  0  0  0  0
  -30.5181  -16.9583   21.1976 C   0  0  0  0  0  0
  -31.5111  -19.6325   21.4120 C   0  0  0  0  0  0
  -29.4205  -22.8956   19.8399 C   0  0  0  0  0  0
  -29.3072  -22.3182   18.6271 C   0  0  0  0  0  0
  -29.5712  -24.4285   20.0199 C   0  0  0  0  0  0
  -27.9112  -23.5140   22.3807 C   0  0  0  0  0  0
  -27.9533  -24.9855   21.9102 C   0  0  0  0  0  0
  -29.2830  -22.7942   22.3865 C   0  0  0  0  0  0
  -28.2726  -25.1864   20.4124 C   0  0  1  0  0  0
  -28.1285  -17.8393   20.9555 C   0  0  0  0  0  0
  -29.0918  -20.6404   21.1371 C   0  0  0  0  0  0
  -30.0582  -15.5842   21.0861 N   0  0  0  0  0  0
  -29.5967  -22.0709   21.1179 N   0  3  1  0  0  0
  -32.2786  -21.1778   21.5370 Cl  0  0  0  0  0  0
  -31.4599  -12.4028   19.1429 H   0  0  0  0  0  0
  -30.3005  -11.3292   19.8620 H   0  0  0  0  0  0
  -29.7416  -11.7705   17.4497 H   0  0  0  0  0  0
  -29.6601  -13.4873   17.7684 H   0  0  0  0  0  0
  -27.8296  -11.3100   18.8326 H   0  0  0  0  0  0
  -27.3657  -12.6305   17.7930 H   0  0  0  0  0  0
  -27.6884  -14.2624   19.5567 H   0  0  0  0  0  0
  -28.6851  -12.0242   21.3807 H   0  0  0  0  0  0
  -28.4633  -13.6817   21.8549 H   0  0  0  0  0  0
  -25.2762   -9.5686   22.4762 H   0  0  0  0  0  0
  -24.0002   -7.4637   22.7475 H   0  0  0  0  0  0
  -21.0850   -8.8766   19.8950 H   0  0  0  0  0  0
  -22.3698  -10.9670   19.6165 H   0  0  0  0  0  0
  -21.2005   -7.6147   23.9717 H   0  0  0  0  0  0
  -21.1480   -6.0517   25.9076 H   0  0  0  0  0  0
  -22.0599   -2.7608   23.2844 H   0  0  0  0  0  0
  -22.4085  -11.9875   22.4785 H   0  0  0  0  0  0
  -21.1103  -13.1244   22.2600 H   0  0  0  0  0  0
  -24.6438  -15.8340   20.4796 H   0  0  0  0  0  0
  -26.2495  -15.6154   20.0045 H   0  0  0  0  0  0
  -26.7129  -32.5507   23.1139 H   0  0  0  0  0  0
  -25.0076  -33.9778   25.0480 H   0  0  0  0  0  0
  -22.7022  -31.3036   21.4021 H   0  0  0  0  0  0
  -23.3752  -35.9632   23.3320 H   0  0  0  0  0  0
  -24.3576  -36.8934   22.2064 H   0  0  0  0  0  0
  -23.7244  -37.6514   23.6644 H   0  0  0  0  0  0
  -26.0609  -31.5789   20.5927 H   0  0  0  0  0  0
  -26.8316  -30.8739   21.9852 H   0  0  0  0  0  0
  -28.1123  -29.0570   21.1695 H   0  0  0  0  0  0
  -26.0185  -25.9663   18.9954 H   0  0  0  0  0  0
  -23.9806  -27.2963   19.0307 H   0  0  0  0  0  0
  -23.7304  -30.5879   19.4020 H   0  0  0  0  0  0
  -22.7464  -29.2349   19.8706 H   0  0  0  0  0  0
  -25.1292  -36.1963   25.0828 H   0  0  0  0  0  0
  -20.9965  -28.3220   24.1431 H   0  0  0  0  0  0
  -20.5696  -26.2262   23.3622 H   0  0  0  0  0  0
  -21.6632  -26.7434   22.1198 H   0  0  0  0  0  0
  -19.6909  -25.6299   21.1245 H   0  0  0  0  0  0
  -19.6699  -27.3202   20.6778 H   0  0  0  0  0  0
  -17.4201  -26.6719   21.4012 H   0  0  0  0  0  0
  -18.0288  -26.0081   22.9015 H   0  0  0  0  0  0
  -19.7931  -30.7292   24.2266 H   0  0  0  0  0  0
  -17.4994  -31.6268   24.5168 H   0  0  0  0  0  0
  -15.5345  -30.2975   23.7667 H   0  0  0  0  0  0
  -15.8669  -28.0836   22.7032 H   0  0  0  0  0  0
  -24.5928  -30.7013   25.7811 H   0  0  0  0  0  0
  -24.8864  -32.2842   26.4881 H   0  0  0  0  0  0
  -25.8071  -30.8911   27.0256 H   0  0  0  0  0  0
  -26.2886  -29.6805   24.1180 H   0  0  0  0  0  0
  -27.4119  -29.7300   25.4601 H   0  0  0  0  0  0
  -27.8701  -30.4414   23.9282 H   0  0  0  0  0  0
  -27.2710  -33.3644   26.2036 H   0  0  0  0  0  0
  -28.3868  -32.6857   25.0296 H   0  0  0  0  0  0
  -28.0715  -31.8458   26.5427 H   0  0  0  0  0  0
  -28.2594  -38.0104   24.7503 H   0  0  0  0  0  0
  -28.1074  -36.2634   24.6277 H   0  0  0  0  0  0
  -27.2287  -37.1445   25.8870 H   0  0  0  0  0  0
  -20.9322  -29.8773   21.6965 H   0  0  0  0  0  0
  -26.0191  -38.2866   24.1408 H   0  0  0  0  0  0
  -32.6059  -16.4162   21.5231 H   0  0  0  0  0  0
  -33.4271  -18.6889   21.6751 H   0  0  0  0  0  0
  -29.2491  -22.9299   17.7391 H   0  0  0  0  0  0
  -29.2847  -21.2502   18.4697 H   0  0  0  0  0  0
  -29.9033  -24.8253   19.0595 H   0  0  0  0  0  0
  -30.3901  -24.6687   20.6965 H   0  0  0  0  0  0
  -27.1732  -22.9488   21.8111 H   0  0  0  0  0  0
  -27.5449  -23.5203   23.4085 H   0  0  0  0  0  0
  -28.6748  -25.5374   22.5137 H   0  0  0  0  0  0
  -26.9852  -25.4404   22.1258 H   0  0  0  0  0  0
  -29.3309  -22.0957   23.2244 H   0  0  0  0  0  0
  -30.0796  -23.5073   22.6029 H   0  0  0  0  0  0
  -27.4740  -24.7455   19.8202 H   0  0  0  0  0  0
  -27.5669  -18.2840   21.7775 H   0  0  0  0  0  0
  -27.8619  -16.7851   20.9379 H   0  0  0  0  0  0
  -27.7715  -18.2685   20.0186 H   0  0  0  0  0  0
  -28.4179  -20.5181   21.9865 H   0  0  0  0  0  0
  -28.4320  -20.4815   20.2872 H   0  0  0  0  0  0
  -29.1000  -15.4072   21.3459 H   0  0  0  0  0  0
  -30.5958  -21.9189   21.2069 H   0  0  0  0  0  0
  1 25  1  0  0  0
  1 30  2  0  0  0
  1 86  1  0  0  0
  2  3  1  0  0  0
  2 25  1  0  0  0
  2 89  1  0  0  0
  2 90  1  0  0  0
  3  4  1  0  0  0
  3 91  1  0  0  0
  3 92  1  0  0  0
  4  5  1  0  0  0
  4 93  1  0  0  0
  4 94  1  0  0  0
  5  6  1  0  0  0
  5 26  1  0  0  0
  5 95  1  0  0  0
  6 25  1  0  0  0
  6 96  1  0  0  0
  6 97  1  0  0  0
  7  8  2  0  0  0
  7 26  1  0  0  0
  7 29  1  0  0  0
  8  9  1  0  0  0
  8 22  1  0  0  0
  9 10  1  0  0  0
  9 27  2  0  0  0
 10 11  2  0  0  0
 10 15  1  0  0  0
 11 12  1  0  0  0
 11 98  1  0  0  0
 12 13  2  0  0  0
 12 99  1  0  0  0
 13 14  1  0  0  0
 13 31  1  0  0  0
 14 15  2  0  0  0
 14100  1  0  0  0
 15101  1  0  0  0
 16 17  2  0  0  0
 16 21  1  0  0  0
 16 31  1  0  0  0
 17 18  1  0  0  0
 17102  1  0  0  0
 18 19  2  0  0  0
 18103  1  0  0  0
 19 20  1  0  0  0
 19 24  1  0  0  0
 20 21  2  0  0  0
 20104  1  0  0  0
 21 23  1  0  0  0
 22 28  1  0  0  0
 22 32  2  0  0  0
 26 27  1  0  0  0
 28105  1  0  0  0
 28106  1  0  0  0
 29107  1  0  0  0
 29108  1  0  0  0
 33 34  1  0  0  0
 33 66  1  0  0  0
 33 70  2  0  0  0
 34 36  1  0  0  0
 34 59  1  0  0  0
 34109  1  0  0  0
 35 44  2  0  0  0
 35 45  1  0  0  0
 35 68  1  0  0  0
 36 56  1  0  0  0
 36110  1  0  0  0
 37 39  1  0  0  0
 37 47  1  0  0  0
 37 66  1  0  0  0
 37111  1  0  0  0
 38 43  2  0  0  0
 38 46  1  0  0  0
 38 47  1  0  0  0
 39 64  1  0  0  0
 39 67  2  0  0  0
 40 52  1  0  0  0
 40 53  2  0  0  0
 40 58  1  0  0  0
 41112  1  0  0  0
 41113  1  0  0  0
 41114  1  0  0  0
 41 48  1  0  0  0
 42 43  1  0  0  0
 42 66  1  0  0  0
 42115  1  0  0  0
 42116  1  0  0  0
 43 44  1  0  0  0
 44117  1  0  0  0
 45 46  2  0  0  0
 45118  1  0  0  0
 46119  1  0  0  0
 47120  1  0  0  0
 47121  1  0  0  0
 48 56  1  0  0  0
 48 65  1  0  0  0
 48122  1  0  0  0
 49 50  1  0  0  0
 49 53  1  0  0  0
 49 64  1  0  0  0
 49123  1  0  0  0
 50 51  1  0  0  0
 50124  1  0  0  0
 50125  1  0  0  0
 51 52  1  0  0  0
 51126  1  0  0  0
 51127  1  0  0  0
 52128  1  0  0  0
 52129  1  0  0  0
 53 54  1  0  0  0
 54 55  2  0  0  0
 54130  1  0  0  0
 55 57  1  0  0  0
 55131  1  0  0  0
 56 69  2  0  0  0
 57 58  2  0  0  0
 57132  1  0  0  0
 58133  1  0  0  0
 59 60  1  0  0  0
 59 61  1  0  0  0
 59 62  1  0  0  0
 60134  1  0  0  0
 60135  1  0  0  0
 60136  1  0  0  0
 61137  1  0  0  0
 61138  1  0  0  0
 61139  1  0  0  0
 62140  1  0  0  0
 62141  1  0  0  0
 62142  1  0  0  0
 63 65  1  0  0  0
 63143  1  0  0  0
 63144  1  0  0  0
 63145  1  0  0  0
 64146  1  0  0  0
 65147  1  0  0  0
 68 83  1  0  0  0
 71 72  2  0  0  0
 71 75  1  0  0  0
 71148  1  0  0  0
 72 76  1  0  0  0
 72149  1  0  0  0
 73 74  1  0  0  0
 73 75  2  0  0  0
 73 84  1  0  0  0
 74 76  2  0  0  0
 74 85  1  0  0  0
 75 86  1  0  0  0
 76 88  1  0  0  0
 77 78  2  0  0  0
 77 79  1  0  0  0
 77 87  1  0  0  0
 78150  1  0  0  0
 78151  1  0  0  0
 79 83  1  0  0  0
 79152  1  0  0  0
 79153  1  0  0  0
 80 81  1  0  0  0
 80 82  1  0  0  0
 80154  1  0  0  0
 80155  1  0  0  0
 81 83  1  0  0  0
 81156  1  0  0  0
 81157  1  0  0  0
 82 87  1  0  0  0
 82158  1  0  0  0
 82159  1  0  0  0
 83160  1  0  0  0
 84161  1  0  0  0
 84162  1  0  0  0
 84163  1  0  0  0
 85164  1  0  0  0
 85165  1  0  0  0
 85 87  1  0  0  0
 86166  1  0  0  0
 87167  1  0  0  0
M  CHG  1  87   1
M  ISO  4   1 100  68 101  83 101  86 100
M  END
> <chiral flag>
0

> <version>
0

> <s_m_source_file>
/data/baiqing/PycharmProjects/Reinvent-master-3.2/result/LINK_invent/BTK/process_docking_weight1_custom_product_contain_oxygen_bond_distance_aromatic_linkinvent_7_9_3/rearranged_h_0041.sdf

> <i_m_source_file_index>
41

> <r_mmod_Potential_Energy-OPLS-2005>
-87.372428894043

> <r_mmod_Stretch_Energy-OPLS-2005>
67.3243026733398

> <r_mmod_Bend_Energy-OPLS-2005>
134.283340454102

> <r_mmod_Torsional_Energy-OPLS-2005>
250.803482055664

> <r_mmod_Improper_Torsional_Energy-OPLS-2005>
3.97549891471863

> <r_mmod_Van_der_Waal_Energy-OPLS-2005>
177.34587097168

> <r_mmod_Electrostatic_Energy-OPLS-2005>
-313.323455810547

> <r_mmod_Solvation_Energy-OPLS-2005>
-428.704376220703

> <b_mmod_Minimization_Converged-OPLS-2005>
0

> <r_mmod_RMS_Derivative-OPLS-2005>
2.22172594070435

$$$$
41
                    3D
 Structure written by MMmdl.
174182  0  0  1  0            999 V2000
  -30.7187  -14.5119   20.5094 C   0  0  0  0  0  0
  -30.4099  -12.3113   19.4483 C   0  0  0  0  0  0
  -29.4953  -12.4821   18.2191 C   0  0  0  0  0  0
  -28.0153  -12.3508   18.6211 C   0  0  0  0  0  0
  -27.6499  -13.2120   19.8616 C   0  0  2  0  0  0
  -28.6945  -13.0619   20.9906 C   0  0  0  0  0  0
  -25.2566  -13.8201   20.5735 C   0  0  0  0  0  0
  -24.1833  -13.0453   20.9198 C   0  0  0  0  0  0
  -24.6385  -11.6922   20.8714 C   0  0  0  0  0  0
  -23.9054  -10.4329   21.0369 C   0  0  0  0  0  0
  -24.3608   -9.4260   21.9127 C   0  0  0  0  0  0
  -23.6310   -8.2283   22.0695 C   0  0  0  0  0  0
  -22.4285   -8.0278   21.3502 C   0  0  0  0  0  0
  -21.9905   -9.0252   20.4617 C   0  0  0  0  0  0
  -22.7223  -10.2130   20.3031 C   0  0  0  0  0  0
  -21.6906   -6.0733   22.5266 C   0  0  0  0  0  0
  -21.4049   -6.5639   23.8193 C   0  0  0  0  0  0
  -21.3668   -5.6775   24.9163 C   0  0  0  0  0  0
  -21.6049   -4.3043   24.7195 C   0  0  0  0  0  0
  -21.8831   -3.8144   23.4324 C   0  0  0  0  0  0
  -21.9200   -4.6969   22.3381 C   0  0  0  0  0  0
  -22.7848  -13.5221   21.1795 C   0  0  0  0  0  0
  -22.1667   -4.2168   21.0961 F   0  0  0  0  0  0
  -21.5623   -3.4511   25.7704 F   0  0  0  0  0  0
  -30.0269  -13.3387   20.4286 N   0  0  0  0  0  0
  -26.2975  -12.9373   20.3310 N   0  0  0  0  0  0
  -25.9310  -11.6537   20.5739 N   0  0  0  0  0  0
  -22.0525  -12.8245   22.0399 N   0  0  0  0  0  0
  -25.4297  -15.1933   20.4220 N   0  0  0  0  0  0
  -31.8855  -14.6186   20.1203 O   0  0  0  0  0  0
  -21.6655   -6.8874   21.4220 O   0  0  0  0  0  0
  -22.3506  -14.5488   20.6596 O   0  0  0  0  0  0
  -24.6063  -31.8705   23.2105 C   0  0  0  0  0  0
  -25.8982  -32.4849   23.8397 C   0  0  1  0  0  0
  -27.2735  -27.4752   20.1305 C   0  0  0  0  0  0
  -25.5848  -33.8645   24.2324 N   0  0  0  0  0  0
  -23.3962  -30.4903   21.5448 C   0  0  2  0  0  0
  -24.8559  -28.9591   20.1136 C   0  0  0  0  0  0
  -22.7379  -29.4666   22.4958 C   0  0  0  0  0  0
  -18.0261  -28.1370   22.8486 C   0  0  0  0  0  0
  -24.1477  -36.7338   23.2638 C   0  0  0  0  0  0
  -25.9145  -30.8543   21.3563 C   0  0  0  0  0  0
  -26.0005  -29.4875   20.7179 C   0  0  0  0  0  0
  -27.2038  -28.7540   20.7337 C   0  0  0  0  0  0
  -26.1106  -26.9575   19.5185 C   0  0  0  0  0  0
  -24.9030  -27.6905   19.5079 C   0  0  0  0  0  0
  -23.6087  -29.8143   20.1602 C   0  0  0  0  0  0
  -25.4097  -36.3138   24.0338 C   0  0  1  0  0  0
  -20.5850  -28.3648   23.1320 C   0  0  2  0  0  0
  -20.6738  -26.9377   22.5425 C   0  0  0  0  0  0
  -19.5740  -26.6390   21.5200 C   0  0  0  0  0  0
  -18.1915  -26.7924   22.1593 C   0  0  0  0  0  0
  -19.1513  -28.8831   23.2907 C   0  0  0  0  0  0
  -18.9444  -30.1432   23.8933 C   0  0  0  0  0  0
  -17.6451  -30.6574   24.0574 C   0  0  0  0  0  0
  -25.9026  -34.9495   23.5132 C   0  0  0  0  0  0
  -16.5343  -29.9086   23.6320 C   0  0  0  0  0  0
  -16.7253  -28.6498   23.0352 C   0  0  0  0  0  0
  -26.4443  -31.6626   25.0710 C   0  0  0  0  0  0
  -25.3731  -31.3754   26.1489 C   0  0  0  0  0  0
  -27.0241  -30.3047   24.6084 C   0  0  0  0  0  0
  -27.6053  -32.4322   25.7457 C   0  0  0  0  0  0
  -27.5580  -37.1815   24.8449 C   0  0  0  0  0  0
  -21.4112  -29.3022   22.3711 N   0  0  0  0  0  0
  -26.4287  -37.3817   23.9406 N   0  0  0  0  0  0
  -24.6564  -31.0872   22.0971 N   0  0  0  0  0  0
  -23.4171  -28.8198   23.2986 O   0  0  0  0  0  0
  -28.4196  -26.6960   20.1058 O   0  0  0  0  0  0
  -26.5611  -34.8932   22.4701 O   0  0  0  0  0  0
  -23.5271  -32.1420   23.7538 O   0  0  0  0  0  0
  -31.0809  -19.5198   19.4990 C   0  0  0  0  0  0
  -30.4099  -18.6313   18.6495 C   0  0  0  0  0  0
  -31.3328  -19.1857   20.8467 C   0  0  0  0  0  0
  -30.0370  -17.3555   19.1020 C   0  0  0  0  0  0
  -30.9312  -17.8946   21.3251 C   0  0  0  0  0  0
  -30.3301  -16.9490   20.4333 C   0  0  0  0  0  0
  -29.3534  -16.4363   18.1100 C   0  0  0  0  0  0
  -31.1723  -17.4819   22.7757 C   0  0  0  0  0  0
  -32.9858  -24.6064   20.0708 C   0  0  0  0  0  0
  -32.8692  -24.0058   22.4714 C   0  0  0  0  0  0
  -32.1166  -20.2118   21.6914 C   0  0  0  0  0  0
  -31.7755  -22.5184   20.7090 C   0  0  0  0  0  0
  -30.7181  -24.8432   21.3078 C   0  0  0  0  0  0
  -29.5352  -27.1575   20.8241 C   0  0  0  0  0  0
  -32.0513  -23.9989   21.1546 C   0  0  0  0  0  0
  -30.0103  -15.6101   20.8532 N   0  0  0  0  0  0
  -31.4830  -21.5564   21.8061 N   0  3  0  0  0  0
  -30.7315  -26.1348   20.5665 N   0  3  0  0  0  0
  -31.4594  -12.3761   19.1553 H   0  0  0  0  0  0
  -30.2829  -11.3168   19.8801 H   0  0  0  0  0  0
  -29.7515  -11.7471   17.4553 H   0  0  0  0  0  0
  -29.6562  -13.4596   17.7671 H   0  0  0  0  0  0
  -27.8195  -11.2968   18.8204 H   0  0  0  0  0  0
  -27.3783  -12.6215   17.7756 H   0  0  0  0  0  0
  -27.6645  -14.2507   19.5442 H   0  0  0  0  0  0
  -28.6779  -12.0479   21.3902 H   0  0  0  0  0  0
  -28.4563  -13.7237   21.8276 H   0  0  0  0  0  0
  -25.2766   -9.5744   22.4660 H   0  0  0  0  0  0
  -24.0058   -7.4696   22.7415 H   0  0  0  0  0  0
  -21.0853   -8.8728   19.8930 H   0  0  0  0  0  0
  -22.3644  -10.9644   19.6135 H   0  0  0  0  0  0
  -21.2030   -7.6144   23.9699 H   0  0  0  0  0  0
  -21.1496   -6.0501   25.9058 H   0  0  0  0  0  0
  -22.0598   -2.7612   23.2791 H   0  0  0  0  0  0
  -22.4178  -11.9979   22.4865 H   0  0  0  0  0  0
  -21.1099  -13.1179   22.2497 H   0  0  0  0  0  0
  -24.6588  -15.8490   20.5084 H   0  0  0  0  0  0
  -26.2822  -15.6316   20.0975 H   0  0  0  0  0  0
  -26.7068  -32.5600   23.1193 H   0  0  0  0  0  0
  -24.9946  -33.9821   25.0435 H   0  0  0  0  0  0
  -22.6831  -31.3043   21.4020 H   0  0  0  0  0  0
  -23.3742  -35.9670   23.3310 H   0  0  0  0  0  0
  -24.3565  -36.8952   22.2049 H   0  0  0  0  0  0
  -23.7224  -37.6540   23.6650 H   0  0  0  0  0  0
  -26.0152  -31.6163   20.5819 H   0  0  0  0  0  0
  -26.8049  -30.9208   21.9705 H   0  0  0  0  0  0
  -28.0597  -29.1978   21.2208 H   0  0  0  0  0  0
  -26.1373  -25.9816   19.0552 H   0  0  0  0  0  0
  -24.0258  -27.2779   19.0302 H   0  0  0  0  0  0
  -23.7033  -30.5842   19.3936 H   0  0  0  0  0  0
  -22.7396  -29.2211   19.8700 H   0  0  0  0  0  0
  -25.1277  -36.2015   25.0839 H   0  0  0  0  0  0
  -20.9969  -28.3221   24.1435 H   0  0  0  0  0  0
  -20.5599  -26.2264   23.3614 H   0  0  0  0  0  0
  -21.6614  -26.7403   22.1246 H   0  0  0  0  0  0
  -19.6892  -25.6319   21.1203 H   0  0  0  0  0  0
  -19.6695  -27.3226   20.6756 H   0  0  0  0  0  0
  -17.4192  -26.6712   21.3979 H   0  0  0  0  0  0
  -18.0286  -26.0051   22.8964 H   0  0  0  0  0  0
  -19.7929  -30.7217   24.2327 H   0  0  0  0  0  0
  -17.5018  -31.6265   24.5151 H   0  0  0  0  0  0
  -15.5343  -30.3004   23.7630 H   0  0  0  0  0  0
  -15.8656  -28.0830   22.7062 H   0  0  0  0  0  0
  -24.5917  -30.7067   25.7851 H   0  0  0  0  0  0
  -24.8912  -32.2924   26.4889 H   0  0  0  0  0  0
  -25.8107  -30.8979   27.0269 H   0  0  0  0  0  0
  -26.2760  -29.6840   24.1136 H   0  0  0  0  0  0
  -27.3972  -29.7260   25.4551 H   0  0  0  0  0  0
  -27.8623  -30.4330   23.9231 H   0  0  0  0  0  0
  -27.2689  -33.3590   26.2118 H   0  0  0  0  0  0
  -28.3820  -32.6939   25.0255 H   0  0  0  0  0  0
  -28.0782  -31.8399   26.5311 H   0  0  0  0  0  0
  -28.2624  -38.0092   24.7493 H   0  0  0  0  0  0
  -28.1058  -36.2629   24.6277 H   0  0  0  0  0  0
  -27.2308  -37.1476   25.8858 H   0  0  0  0  0  0
  -20.9247  -29.8764   21.6964 H   0  0  0  0  0  0
  -26.0192  -38.2898   24.1429 H   0  0  0  0  0  0
  -31.3984  -20.4618   19.0820 H   0  0  0  0  0  0
  -30.2111  -18.9363   17.6288 H   0  0  0  0  0  0
  -30.0150  -15.6172   17.8369 H   0  0  0  0  0  0
  -29.0882  -16.9609   17.1917 H   0  0  0  0  0  0
  -28.4297  -16.0425   18.5246 H   0  0  0  0  0  0
  -32.1599  -17.0335   22.8850 H   0  0  0  0  0  0
  -30.4378  -16.7480   23.1057 H   0  0  0  0  0  0
  -31.0749  -18.3081   23.4782 H   0  0  0  0  0  0
  -33.9117  -24.0374   19.9796 H   0  0  0  0  0  0
  -33.2995  -25.6216   20.3149 H   0  0  0  0  0  0
  -32.5301  -24.6142   19.0799 H   0  0  0  0  0  0
  -33.7203  -23.3215   22.4130 H   0  0  0  0  0  0
  -32.2746  -23.7184   23.3409 H   0  0  0  0  0  0
  -33.2839  -24.9936   22.6811 H   0  0  0  0  0  0
  -33.1276  -20.3020   21.2894 H   0  0  0  0  0  0
  -32.2734  -19.8548   22.7055 H   0  0  0  0  0  0
  -32.6607  -22.1577   20.1820 H   0  0  0  0  0  0
  -30.9764  -22.4813   19.9689 H   0  0  0  0  0  0
  -30.5316  -25.0585   22.3622 H   0  0  0  0  0  0
  -29.8500  -24.2733   20.9728 H   0  0  0  0  0  0
  -29.8595  -28.1158   20.4128 H   0  0  0  0  0  0
  -29.3376  -27.2677   21.8940 H   0  0  0  0  0  0
  -29.0690  -15.4448   21.1763 H   0  0  0  0  0  0
  -31.8655  -21.9631   22.6437 H   0  0  0  0  0  0
  -30.4904  -21.4466   21.9396 H   0  0  0  0  0  0
  -30.7918  -25.9385   19.5815 H   0  0  0  0  0  0
  -31.5928  -26.5923   20.8225 H   0  0  0  0  0  0
  1 25  1  0  0  0
  1 30  2  0  0  0
  1 86  1  0  0  0
  2  3  1  0  0  0
  2 25  1  0  0  0
  2 89  1  0  0  0
  2 90  1  0  0  0
  3  4  1  0  0  0
  3 91  1  0  0  0
  3 92  1  0  0  0
  4  5  1  0  0  0
  4 93  1  0  0  0
  4 94  1  0  0  0
  5  6  1  0  0  0
  5 26  1  0  0  0
  5 95  1  0  0  0
  6 25  1  0  0  0
  6 96  1  0  0  0
  6 97  1  0  0  0
  7  8  2  0  0  0
  7 26  1  0  0  0
  7 29  1  0  0  0
  8  9  1  0  0  0
  8 22  1  0  0  0
  9 10  1  0  0  0
  9 27  2  0  0  0
 10 11  2  0  0  0
 10 15  1  0  0  0
 11 12  1  0  0  0
 11 98  1  0  0  0
 12 13  2  0  0  0
 12 99  1  0  0  0
 13 14  1  0  0  0
 13 31  1  0  0  0
 14 15  2  0  0  0
 14100  1  0  0  0
 15101  1  0  0  0
 16 17  2  0  0  0
 16 21  1  0  0  0
 16 31  1  0  0  0
 17 18  1  0  0  0
 17102  1  0  0  0
 18 19  2  0  0  0
 18103  1  0  0  0
 19 20  1  0  0  0
 19 24  1  0  0  0
 20 21  2  0  0  0
 20104  1  0  0  0
 21 23  1  0  0  0
 22 28  1  0  0  0
 22 32  2  0  0  0
 26 27  1  0  0  0
 28105  1  0  0  0
 28106  1  0  0  0
 29107  1  0  0  0
 29108  1  0  0  0
 33 34  1  0  0  0
 33 66  1  0  0  0
 33 70  2  0  0  0
 34 36  1  0  0  0
 34 59  1  0  0  0
 34109  1  0  0  0
 35 44  2  0  0  0
 35 45  1  0  0  0
 35 68  1  0  0  0
 36 56  1  0  0  0
 36110  1  0  0  0
 37 39  1  0  0  0
 37 47  1  0  0  0
 37 66  1  0  0  0
 37111  1  0  0  0
 38 43  2  0  0  0
 38 46  1  0  0  0
 38 47  1  0  0  0
 39 64  1  0  0  0
 39 67  2  0  0  0
 40 52  1  0  0  0
 40 53  2  0  0  0
 40 58  1  0  0  0
 41112  1  0  0  0
 41113  1  0  0  0
 41114  1  0  0  0
 41 48  1  0  0  0
 42 43  1  0  0  0
 42 66  1  0  0  0
 42115  1  0  0  0
 42116  1  0  0  0
 43 44  1  0  0  0
 44117  1  0  0  0
 45 46  2  0  0  0
 45118  1  0  0  0
 46119  1  0  0  0
 47120  1  0  0  0
 47121  1  0  0  0
 48 56  1  0  0  0
 48 65  1  0  0  0
 48122  1  0  0  0
 49 50  1  0  0  0
 49 53  1  0  0  0
 49 64  1  0  0  0
 49123  1  0  0  0
 50 51  1  0  0  0
 50124  1  0  0  0
 50125  1  0  0  0
 51 52  1  0  0  0
 51126  1  0  0  0
 51127  1  0  0  0
 52128  1  0  0  0
 52129  1  0  0  0
 53 54  1  0  0  0
 54 55  2  0  0  0
 54130  1  0  0  0
 55 57  1  0  0  0
 55131  1  0  0  0
 56 69  2  0  0  0
 57 58  2  0  0  0
 57132  1  0  0  0
 58133  1  0  0  0
 59 60  1  0  0  0
 59 61  1  0  0  0
 59 62  1  0  0  0
 60134  1  0  0  0
 60135  1  0  0  0
 60136  1  0  0  0
 61137  1  0  0  0
 61138  1  0  0  0
 61139  1  0  0  0
 62140  1  0  0  0
 62141  1  0  0  0
 62142  1  0  0  0
 63 65  1  0  0  0
 63143  1  0  0  0
 63144  1  0  0  0
 63145  1  0  0  0
 64146  1  0  0  0
 65147  1  0  0  0
 68 84  1  0  0  0
 71 72  2  0  0  0
 71 73  1  0  0  0
 71148  1  0  0  0
 72 74  1  0  0  0
 72149  1  0  0  0
 73 75  2  0  0  0
 73 81  1  0  0  0
 74 76  2  0  0  0
 74 77  1  0  0  0
 75 76  1  0  0  0
 75 78  1  0  0  0
 76 86  1  0  0  0
 77150  1  0  0  0
 77151  1  0  0  0
 77152  1  0  0  0
 78153  1  0  0  0
 78154  1  0  0  0
 78155  1  0  0  0
 79156  1  0  0  0
 79157  1  0  0  0
 79158  1  0  0  0
 79 85  1  0  0  0
 80 85  1  0  0  0
 80159  1  0  0  0
 80160  1  0  0  0
 80161  1  0  0  0
 81 87  1  0  0  0
 81162  1  0  0  0
 81163  1  0  0  0
 82 85  1  0  0  0
 82 87  1  0  0  0
 82164  1  0  0  0
 82165  1  0  0  0
 83 85  1  0  0  0
 83 88  1  0  0  0
 83166  1  0  0  0
 83167  1  0  0  0
 84 88  1  0  0  0
 84168  1  0  0  0
 84169  1  0  0  0
 86170  1  0  0  0
 87171  1  0  0  0
 87172  1  0  0  0
 88173  1  0  0  0
 88174  1  0  0  0
M  CHG  2  87   1  88   1
M  ISO  4   1 100  68 101  84 101  86 100
M  END
> <chiral flag>
0

> <version>
0

> <s_m_source_file>
/data/baiqing/PycharmProjects/Reinvent-master-3.2/result/LINK_invent/BTK/process_docking_weight1_custom_product_contain_oxygen_bond_distance_aromatic_linkinvent_7_9_3/rearranged_h_0041.sdf

> <i_m_source_file_index>
42

> <r_mmod_Potential_Energy-OPLS-2005>
-385.704040527344

> <r_mmod_Stretch_Energy-OPLS-2005>
49.6753578186035

> <r_mmod_Bend_Energy-OPLS-2005>
116.264312744141

> <r_mmod_Torsional_Energy-OPLS-2005>
293.1572265625

> <r_mmod_Improper_Torsional_Energy-OPLS-2005>
5.52209806442261

> <r_mmod_Van_der_Waal_Energy-OPLS-2005>
168.714797973633

> <r_mmod_Electrostatic_Energy-OPLS-2005>
-45.5079879760742

> <r_mmod_Solvation_Energy-OPLS-2005>
-991.109802246094

> <b_mmod_Minimization_Converged-OPLS-2005>
0

> <r_mmod_RMS_Derivative-OPLS-2005>
4.82256555557251

$$$$
42
                    3D
 Structure written by MMmdl.
159167  0  0  1  0            999 V2000
  -30.6957  -14.4366   20.6101 C   0  0  0  0  0  0
  -30.4281  -12.2969   19.4053 C   0  0  0  0  0  0
  -29.4922  -12.5148   18.1976 C   0  0  0  0  0  0
  -28.0119  -12.3783   18.6094 C   0  0  0  0  0  0
  -27.6665  -13.1996   19.8800 C   0  0  2  0  0  0
  -28.7061  -12.9320   20.9913 C   0  0  0  0  0  0
  -25.2604  -13.8142   20.5643 C   0  0  0  0  0  0
  -24.1851  -13.0437   20.9166 C   0  0  0  0  0  0
  -24.6396  -11.6899   20.8737 C   0  0  0  0  0  0
  -23.9063  -10.4288   21.0410 C   0  0  0  0  0  0
  -24.3615   -9.4205   21.9190 C   0  0  0  0  0  0
  -23.6291   -8.2241   22.0760 C   0  0  0  0  0  0
  -22.4276   -8.0276   21.3547 C   0  0  0  0  0  0
  -21.9908   -9.0252   20.4654 C   0  0  0  0  0  0
  -22.7237  -10.2131   20.3060 C   0  0  0  0  0  0
  -21.6848   -6.0736   22.5281 C   0  0  0  0  0  0
  -21.4014   -6.5641   23.8215 C   0  0  0  0  0  0
  -21.3659   -5.6793   24.9177 C   0  0  0  0  0  0
  -21.6040   -4.3055   24.7227 C   0  0  0  0  0  0
  -21.8819   -3.8148   23.4349 C   0  0  0  0  0  0
  -21.9196   -4.6964   22.3406 C   0  0  0  0  0  0
  -22.7876  -13.5243   21.1832 C   0  0  0  0  0  0
  -22.1661   -4.2151   21.0984 F   0  0  0  0  0  0
  -21.5630   -3.4538   25.7743 F   0  0  0  0  0  0
  -30.0426  -13.2535   20.4533 N   0  0  0  0  0  0
  -26.3045  -12.9302   20.3375 N   0  0  0  0  0  0
  -25.9320  -11.6468   20.5774 N   0  0  0  0  0  0
  -22.0514  -12.8235   22.0388 N   0  0  0  0  0  0
  -25.4321  -15.1850   20.3985 N   0  0  0  0  0  0
  -31.7905  -14.6688   20.0875 O   0  0  0  0  0  0
  -21.6635   -6.8878   21.4241 O   0  0  0  0  0  0
  -22.3565  -14.5552   20.6687 O   0  0  0  0  0  0
  -24.6124  -31.8695   23.2103 C   0  0  0  0  0  0
  -25.9014  -32.4835   23.8400 C   0  0  1  0  0  0
  -27.2384  -27.4535   20.0980 C   0  0  0  0  0  0
  -25.5876  -33.8632   24.2338 N   0  0  0  0  0  0
  -23.4010  -30.4902   21.5503 C   0  0  2  0  0  0
  -24.8493  -28.9531   20.1206 C   0  0  0  0  0  0
  -22.7406  -29.4653   22.5003 C   0  0  0  0  0  0
  -18.0272  -28.1373   22.8508 C   0  0  0  0  0  0
  -24.1485  -36.7311   23.2636 C   0  0  0  0  0  0
  -25.9268  -30.8402   21.3612 C   0  0  0  0  0  0
  -26.0071  -29.4720   20.7159 C   0  0  0  0  0  0
  -27.2068  -28.7276   20.7051 C   0  0  0  0  0  0
  -26.0688  -26.9382   19.5055 C   0  0  0  0  0  0
  -24.8723  -27.6831   19.5154 C   0  0  0  0  0  0
  -23.6103  -29.8189   20.1662 C   0  0  0  0  0  0
  -25.4106  -36.3121   24.0345 C   0  0  1  0  0  0
  -20.5862  -28.3653   23.1339 C   0  0  2  0  0  0
  -20.6770  -26.9391   22.5427 C   0  0  0  0  0  0
  -19.5750  -26.6388   21.5219 C   0  0  0  0  0  0
  -18.1925  -26.7929   22.1621 C   0  0  0  0  0  0
  -19.1522  -28.8829   23.2920 C   0  0  0  0  0  0
  -18.9451  -30.1443   23.8918 C   0  0  0  0  0  0
  -17.6456  -30.6588   24.0572 C   0  0  0  0  0  0
  -25.9026  -34.9482   23.5142 C   0  0  0  0  0  0
  -16.5345  -29.9096   23.6326 C   0  0  0  0  0  0
  -16.7260  -28.6508   23.0351 C   0  0  0  0  0  0
  -26.4450  -31.6608   25.0719 C   0  0  0  0  0  0
  -25.3721  -31.3715   26.1474 C   0  0  0  0  0  0
  -27.0274  -30.3063   24.6061 C   0  0  0  0  0  0
  -27.6041  -32.4307   25.7470 C   0  0  0  0  0  0
  -27.5585  -37.1812   24.8466 C   0  0  0  0  0  0
  -21.4133  -29.3023   22.3749 N   0  0  0  0  0  0
  -26.4298  -37.3802   23.9409 N   0  0  0  0  0  0
  -24.6646  -31.0809   22.0996 N   0  0  0  0  0  0
  -23.4188  -28.8195   23.3034 O   0  0  0  0  0  0
  -28.4023  -26.7273   20.0395 O   0  0  0  0  0  0
  -26.5591  -34.8937   22.4708 O   0  0  0  0  0  0
  -23.5319  -32.1428   23.7514 O   0  0  0  0  0  0
  -31.1426  -18.9374   20.9257 C   0  0  0  0  0  0
  -31.1069  -17.5335   20.7798 C   0  0  0  0  0  0
  -29.1609  -18.8426   22.3256 C   0  0  0  0  0  0
  -30.1795  -19.6019   21.7148 C   0  0  0  0  0  0
  -29.1165  -17.4383   22.1836 C   0  0  0  0  0  0
  -30.1032  -16.7628   21.4203 C   0  0  0  0  0  0
  -28.0048  -16.6712   22.8835 C   0  0  0  0  0  0
  -30.2842  -21.1016   21.9913 C   0  0  0  0  0  0
  -28.8338  -24.3432   20.4708 C   0  0  0  0  0  0
  -29.3656  -23.3533   21.5356 C   0  0  0  0  0  0
  -28.5573  -25.7442   21.0647 C   0  0  0  0  0  0
  -30.0151  -15.3386   21.3420 N   0  0  0  0  0  0
  -29.5052  -21.9509   21.0605 N   0  3  0  0  0  0
  -31.4708  -12.4078   19.1022 H   0  0  0  0  0  0
  -30.3363  -11.2768   19.7805 H   0  0  0  0  0  0
  -29.7258  -11.7999   17.4073 H   0  0  0  0  0  0
  -29.6636  -13.5052   17.7734 H   0  0  0  0  0  0
  -27.8112  -11.3209   18.7860 H   0  0  0  0  0  0
  -27.3639  -12.6747   17.7835 H   0  0  0  0  0  0
  -27.7249  -14.2545   19.6098 H   0  0  0  0  0  0
  -28.6789  -11.8803   21.2808 H   0  0  0  0  0  0
  -28.4569  -13.4780   21.9020 H   0  0  0  0  0  0
  -25.2762   -9.5675   22.4763 H   0  0  0  0  0  0
  -24.0000   -7.4627   22.7470 H   0  0  0  0  0  0
  -21.0843   -8.8771   19.8953 H   0  0  0  0  0  0
  -22.3703  -10.9670   19.6164 H   0  0  0  0  0  0
  -21.1998   -7.6151   23.9719 H   0  0  0  0  0  0
  -21.1480   -6.0527   25.9084 H   0  0  0  0  0  0
  -22.0598   -2.7611   23.2852 H   0  0  0  0  0  0
  -22.4124  -11.9887   22.4763 H   0  0  0  0  0  0
  -21.1136  -13.1263   22.2596 H   0  0  0  0  0  0
  -24.6619  -15.8388   20.4882 H   0  0  0  0  0  0
  -26.2791  -15.6159   20.0498 H   0  0  0  0  0  0
  -26.7088  -32.5554   23.1168 H   0  0  0  0  0  0
  -25.0044  -33.9804   25.0499 H   0  0  0  0  0  0
  -22.6892  -31.3058   21.4098 H   0  0  0  0  0  0
  -23.3752  -35.9638   23.3311 H   0  0  0  0  0  0
  -24.3588  -36.8909   22.2047 H   0  0  0  0  0  0
  -23.7238  -37.6524   23.6636 H   0  0  0  0  0  0
  -26.0346  -31.6040   20.5897 H   0  0  0  0  0  0
  -26.8166  -30.8988   21.9756 H   0  0  0  0  0  0
  -28.1051  -29.1275   21.1557 H   0  0  0  0  0  0
  -26.0893  -25.9666   19.0315 H   0  0  0  0  0  0
  -23.9821  -27.2789   19.0529 H   0  0  0  0  0  0
  -23.7163  -30.5919   19.4039 H   0  0  0  0  0  0
  -22.7367  -29.2338   19.8724 H   0  0  0  0  0  0
  -25.1287  -36.1982   25.0840 H   0  0  0  0  0  0
  -20.9944  -28.3194   24.1462 H   0  0  0  0  0  0
  -20.5678  -26.2247   23.3603 H   0  0  0  0  0  0
  -21.6642  -26.7447   22.1208 H   0  0  0  0  0  0
  -19.6916  -25.6304   21.1228 H   0  0  0  0  0  0
  -19.6698  -27.3223   20.6769 H   0  0  0  0  0  0
  -17.4201  -26.6686   21.4008 H   0  0  0  0  0  0
  -18.0314  -26.0071   22.9012 H   0  0  0  0  0  0
  -19.7927  -30.7261   24.2284 H   0  0  0  0  0  0
  -17.5012  -31.6268   24.5174 H   0  0  0  0  0  0
  -15.5346  -30.3008   23.7646 H   0  0  0  0  0  0
  -15.8657  -28.0842   22.7046 H   0  0  0  0  0  0
  -24.5881  -30.7076   25.7812 H   0  0  0  0  0  0
  -24.8918  -32.2871   26.4932 H   0  0  0  0  0  0
  -25.8069  -30.8872   27.0224 H   0  0  0  0  0  0
  -26.2813  -29.6842   24.1105 H   0  0  0  0  0  0
  -27.4064  -29.7276   25.4490 H   0  0  0  0  0  0
  -27.8628  -30.4412   23.9192 H   0  0  0  0  0  0
  -27.2686  -33.3607   26.2069 H   0  0  0  0  0  0
  -28.3832  -32.6862   25.0275 H   0  0  0  0  0  0
  -28.0722  -31.8411   26.5362 H   0  0  0  0  0  0
  -28.2607  -38.0108   24.7528 H   0  0  0  0  0  0
  -28.1083  -36.2644   24.6272 H   0  0  0  0  0  0
  -27.2311  -37.1436   25.8874 H   0  0  0  0  0  0
  -20.9285  -29.8737   21.6966 H   0  0  0  0  0  0
  -26.0190  -38.2879   24.1423 H   0  0  0  0  0  0
  -31.9376  -19.4969   20.4520 H   0  0  0  0  0  0
  -31.8767  -17.0740   20.1784 H   0  0  0  0  0  0
  -28.4213  -19.3401   22.9385 H   0  0  0  0  0  0
  -27.2329  -17.3447   23.2573 H   0  0  0  0  0  0
  -28.4032  -16.1148   23.7324 H   0  0  0  0  0  0
  -27.5195  -15.9698   22.2048 H   0  0  0  0  0  0
  -31.3327  -21.4022   21.9647 H   0  0  0  0  0  0
  -29.9457  -21.2794   23.0133 H   0  0  0  0  0  0
  -27.9199  -23.9618   20.0146 H   0  0  0  0  0  0
  -29.5681  -24.4300   19.6686 H   0  0  0  0  0  0
  -28.7075  -23.3606   22.4055 H   0  0  0  0  0  0
  -30.3376  -23.7090   21.8817 H   0  0  0  0  0  0
  -29.3985  -26.0563   21.6840 H   0  0  0  0  0  0
  -27.6915  -25.6994   21.7292 H   0  0  0  0  0  0
  -29.1985  -14.9462   21.7826 H   0  0  0  0  0  0
  -28.5897  -21.5472   20.9491 H   0  0  0  0  0  0
  -29.9617  -21.9355   20.1636 H   0  0  0  0  0  0
  1 25  1  0  0  0
  1 30  2  0  0  0
  1 82  1  0  0  0
  2  3  1  0  0  0
  2 25  1  0  0  0
  2 84  1  0  0  0
  2 85  1  0  0  0
  3  4  1  0  0  0
  3 86  1  0  0  0
  3 87  1  0  0  0
  4  5  1  0  0  0
  4 88  1  0  0  0
  4 89  1  0  0  0
  5  6  1  0  0  0
  5 26  1  0  0  0
  5 90  1  0  0  0
  6 25  1  0  0  0
  6 91  1  0  0  0
  6 92  1  0  0  0
  7  8  2  0  0  0
  7 26  1  0  0  0
  7 29  1  0  0  0
  8  9  1  0  0  0
  8 22  1  0  0  0
  9 10  1  0  0  0
  9 27  2  0  0  0
 10 11  2  0  0  0
 10 15  1  0  0  0
 11 12  1  0  0  0
 11 93  1  0  0  0
 12 13  2  0  0  0
 12 94  1  0  0  0
 13 14  1  0  0  0
 13 31  1  0  0  0
 14 15  2  0  0  0
 14 95  1  0  0  0
 15 96  1  0  0  0
 16 17  2  0  0  0
 16 21  1  0  0  0
 16 31  1  0  0  0
 17 18  1  0  0  0
 17 97  1  0  0  0
 18 19  2  0  0  0
 18 98  1  0  0  0
 19 20  1  0  0  0
 19 24  1  0  0  0
 20 21  2  0  0  0
 20 99  1  0  0  0
 21 23  1  0  0  0
 22 28  1  0  0  0
 22 32  2  0  0  0
 26 27  1  0  0  0
 28100  1  0  0  0
 28101  1  0  0  0
 29102  1  0  0  0
 29103  1  0  0  0
 33 34  1  0  0  0
 33 66  1  0  0  0
 33 70  2  0  0  0
 34 36  1  0  0  0
 34 59  1  0  0  0
 34104  1  0  0  0
 35 44  2  0  0  0
 35 45  1  0  0  0
 35 68  1  0  0  0
 36 56  1  0  0  0
 36105  1  0  0  0
 37 39  1  0  0  0
 37 47  1  0  0  0
 37 66  1  0  0  0
 37106  1  0  0  0
 38 43  2  0  0  0
 38 46  1  0  0  0
 38 47  1  0  0  0
 39 64  1  0  0  0
 39 67  2  0  0  0
 40 52  1  0  0  0
 40 53  2  0  0  0
 40 58  1  0  0  0
 41107  1  0  0  0
 41108  1  0  0  0
 41109  1  0  0  0
 41 48  1  0  0  0
 42 43  1  0  0  0
 42 66  1  0  0  0
 42110  1  0  0  0
 42111  1  0  0  0
 43 44  1  0  0  0
 44112  1  0  0  0
 45 46  2  0  0  0
 45113  1  0  0  0
 46114  1  0  0  0
 47115  1  0  0  0
 47116  1  0  0  0
 48 56  1  0  0  0
 48 65  1  0  0  0
 48117  1  0  0  0
 49 50  1  0  0  0
 49 53  1  0  0  0
 49 64  1  0  0  0
 49118  1  0  0  0
 50 51  1  0  0  0
 50119  1  0  0  0
 50120  1  0  0  0
 51 52  1  0  0  0
 51121  1  0  0  0
 51122  1  0  0  0
 52123  1  0  0  0
 52124  1  0  0  0
 53 54  1  0  0  0
 54 55  2  0  0  0
 54125  1  0  0  0
 55 57  1  0  0  0
 55126  1  0  0  0
 56 69  2  0  0  0
 57 58  2  0  0  0
 57127  1  0  0  0
 58128  1  0  0  0
 59 60  1  0  0  0
 59 61  1  0  0  0
 59 62  1  0  0  0
 60129  1  0  0  0
 60130  1  0  0  0
 60131  1  0  0  0
 61132  1  0  0  0
 61133  1  0  0  0
 61134  1  0  0  0
 62135  1  0  0  0
 62136  1  0  0  0
 62137  1  0  0  0
 63 65  1  0  0  0
 63138  1  0  0  0
 63139  1  0  0  0
 63140  1  0  0  0
 64141  1  0  0  0
 65142  1  0  0  0
 68 81  1  0  0  0
 71 72  2  0  0  0
 71 74  1  0  0  0
 71143  1  0  0  0
 72 76  1  0  0  0
 72144  1  0  0  0
 73 74  2  0  0  0
 73 75  1  0  0  0
 73145  1  0  0  0
 74 78  1  0  0  0
 75 76  2  0  0  0
 75 77  1  0  0  0
 76 82  1  0  0  0
 77146  1  0  0  0
 77147  1  0  0  0
 77148  1  0  0  0
 78 83  1  0  0  0
 78149  1  0  0  0
 78150  1  0  0  0
 79 80  1  0  0  0
 79 81  1  0  0  0
 79151  1  0  0  0
 79152  1  0  0  0
 80 83  1  0  0  0
 80153  1  0  0  0
 80154  1  0  0  0
 81155  1  0  0  0
 81156  1  0  0  0
 82157  1  0  0  0
 83158  1  0  0  0
 83159  1  0  0  0
M  CHG  1  83   1
M  ISO  4   1 100  68 101  81 101  82 100
M  END
> <chiral flag>
0

> <version>
0

> <s_m_source_file>
/data/baiqing/PycharmProjects/Reinvent-master-3.2/result/LINK_invent/BTK/process_docking_weight1_custom_product_contain_oxygen_bond_distance_aromatic_linkinvent_7_9_3/rearranged_h_0041.sdf

> <i_m_source_file_index>
43

> <r_mmod_Potential_Energy-OPLS-2005>
-280.383697509766

> <r_mmod_Stretch_Energy-OPLS-2005>
35.1504173278809

> <r_mmod_Bend_Energy-OPLS-2005>
96.3874664306641

> <r_mmod_Torsional_Energy-OPLS-2005>
225.777038574219

> <r_mmod_Improper_Torsional_Energy-OPLS-2005>
2.90509939193726

> <r_mmod_Van_der_Waal_Energy-OPLS-2005>
149.386871337891

> <r_mmod_Electrostatic_Energy-OPLS-2005>
-328.016784667969

> <r_mmod_Solvation_Energy-OPLS-2005>
-470.342498779297

> <b_mmod_Minimization_Converged-OPLS-2005>
0

> <r_mmod_RMS_Derivative-OPLS-2005>
1.33644866943359

$$$$
43
                    3D
 Structure written by MMmdl.
160168  0  0  1  0            999 V2000
  -30.5896  -14.7181   20.4934 C   0  0  0  0  0  0
  -30.4470  -12.4390   19.4694 C   0  0  0  0  0  0
  -29.5159  -12.5114   18.2369 C   0  0  0  0  0  0
  -28.0399  -12.3399   18.6459 C   0  0  0  0  0  0
  -27.6519  -13.2236   19.8606 C   0  0  2  0  0  0
  -28.6953  -13.1023   20.9942 C   0  0  0  0  0  0
  -25.2559  -13.8187   20.5694 C   0  0  0  0  0  0
  -24.1831  -13.0448   20.9192 C   0  0  0  0  0  0
  -24.6401  -11.6917   20.8723 C   0  0  0  0  0  0
  -23.9067  -10.4302   21.0395 C   0  0  0  0  0  0
  -24.3632   -9.4220   21.9166 C   0  0  0  0  0  0
  -23.6308   -8.2253   22.0744 C   0  0  0  0  0  0
  -22.4282   -8.0292   21.3545 C   0  0  0  0  0  0
  -21.9911   -9.0263   20.4644 C   0  0  0  0  0  0
  -22.7239  -10.2142   20.3049 C   0  0  0  0  0  0
  -21.6859   -6.0735   22.5270 C   0  0  0  0  0  0
  -21.4003   -6.5635   23.8201 C   0  0  0  0  0  0
  -21.3650   -5.6788   24.9164 C   0  0  0  0  0  0
  -21.6052   -4.3051   24.7217 C   0  0  0  0  0  0
  -21.8825   -3.8147   23.4335 C   0  0  0  0  0  0
  -21.9197   -4.6963   22.3390 C   0  0  0  0  0  0
  -22.7857  -13.5233   21.1854 C   0  0  0  0  0  0
  -22.1672   -4.2155   21.0965 F   0  0  0  0  0  0
  -21.5633   -3.4530   25.7724 F   0  0  0  0  0  0
  -30.0065  -13.4704   20.4356 N   0  0  0  0  0  0
  -26.2983  -12.9378   20.3298 N   0  0  0  0  0  0
  -25.9327  -11.6527   20.5739 N   0  0  0  0  0  0
  -22.0526  -12.8223   22.0423 N   0  0  0  0  0  0
  -25.4258  -15.1904   20.4123 N   0  0  0  0  0  0
  -31.7419  -14.8880   20.0828 O   0  0  0  0  0  0
  -21.6656   -6.8882   21.4234 O   0  0  0  0  0  0
  -22.3533  -14.5522   20.6682 O   0  0  0  0  0  0
  -24.6308  -31.8555   23.1972 C   0  0  0  0  0  0
  -25.9139  -32.4747   23.8310 C   0  0  1  0  0  0
  -27.2214  -27.2615   20.1347 C   0  0  0  0  0  0
  -25.5946  -33.8546   24.2249 N   0  0  0  0  0  0
  -23.4286  -30.4782   21.5400 C   0  0  2  0  0  0
  -24.8783  -28.9254   20.1113 C   0  0  0  0  0  0
  -22.7508  -29.4596   22.4888 C   0  0  0  0  0  0
  -18.0305  -28.1386   22.8468 C   0  0  0  0  0  0
  -24.1497  -36.7268   23.2629 C   0  0  0  0  0  0
  -25.9750  -30.7674   21.3809 C   0  0  0  0  0  0
  -26.0493  -29.3895   20.7244 C   0  0  0  0  0  0
  -27.2252  -28.5700   20.7257 C   0  0  0  0  0  0
  -26.0332  -26.8742   19.4770 C   0  0  0  0  0  0
  -24.8750  -27.6751   19.4756 C   0  0  0  0  0  0
  -23.6501  -29.8144   20.1561 C   0  0  0  0  0  0
  -25.4125  -36.3059   24.0319 C   0  0  1  0  0  0
  -20.5906  -28.3696   23.1261 C   0  0  2  0  0  0
  -20.6794  -26.9409   22.5415 C   0  0  0  0  0  0
  -19.5778  -26.6386   21.5204 C   0  0  0  0  0  0
  -18.1956  -26.7928   22.1614 C   0  0  0  0  0  0
  -19.1556  -28.8860   23.2864 C   0  0  0  0  0  0
  -18.9473  -30.1458   23.8885 C   0  0  0  0  0  0
  -17.6471  -30.6578   24.0568 C   0  0  0  0  0  0
  -25.9073  -34.9433   23.5094 C   0  0  0  0  0  0
  -16.5365  -29.9077   23.6318 C   0  0  0  0  0  0
  -16.7295  -28.6504   23.0322 C   0  0  0  0  0  0
  -26.4501  -31.6552   25.0688 C   0  0  0  0  0  0
  -25.3733  -31.3761   26.1428 C   0  0  0  0  0  0
  -27.0276  -30.2931   24.6185 C   0  0  0  0  0  0
  -27.6102  -32.4248   25.7427 C   0  0  0  0  0  0
  -27.5589  -37.1789   24.8461 C   0  0  0  0  0  0
  -21.4217  -29.3025   22.3628 N   0  0  0  0  0  0
  -26.4293  -37.3763   23.9411 N   0  0  0  0  0  0
  -24.6963  -31.0519   22.0951 N   0  0  0  0  0  0
  -23.4210  -28.8146   23.3001 O   0  0  0  0  0  0
  -28.3032  -26.3488   20.1740 O   0  0  0  0  0  0
  -26.5644  -34.8913   22.4660 O   0  0  0  0  0  0
  -23.5457  -32.1380   23.7256 O   0  0  0  0  0  0
  -30.5902  -17.9894   19.8854 C   0  0  0  0  0  0
  -28.3817  -19.3454   20.9248 C   0  0  0  0  0  0
  -30.3553  -19.3749   19.5686 C   0  0  0  0  0  0
  -28.6144  -17.9659   21.2449 C   0  0  0  0  0  0
  -29.7030  -17.2172   20.6903 C   0  0  0  0  0  0
  -29.2101  -20.0949   20.0465 C   0  0  0  0  0  0
  -28.6901  -22.6382   19.3110 C   0  0  0  0  0  0
  -31.3129  -20.0523   18.6032 C   0  0  0  0  0  0
  -27.6170  -17.2936   22.1785 C   0  0  0  0  0  0
  -27.9421  -20.7092   18.0879 C   0  0  0  0  0  0
  -28.9520  -23.6245   20.5118 C   0  0  0  0  0  0
  -27.9995  -24.9431   20.6295 C   0  0  0  0  0  0
  -29.7851  -15.7529   20.9308 N   0  0  0  0  0  0
  -28.6383  -21.2292   19.2810 N   0  0  0  0  0  0
  -28.5009  -23.2546   18.2542 O   0  0  0  0  0  0
  -31.4861  -12.5769   19.1655 H   0  0  0  0  0  0
  -30.4014  -11.4497   19.9284 H   0  0  0  0  0  0
  -29.7892  -11.7453   17.5103 H   0  0  0  0  0  0
  -29.6492  -13.4693   17.7326 H   0  0  0  0  0  0
  -27.8861  -11.2894   18.8943 H   0  0  0  0  0  0
  -27.3872  -12.5519   17.7981 H   0  0  0  0  0  0
  -27.6610  -14.2547   19.5055 H   0  0  0  0  0  0
  -28.7222  -12.0814   21.3783 H   0  0  0  0  0  0
  -28.4249  -13.7309   21.8429 H   0  0  0  0  0  0
  -25.2787   -9.5707   22.4723 H   0  0  0  0  0  0
  -24.0031   -7.4641   22.7454 H   0  0  0  0  0  0
  -21.0841   -8.8772   19.8952 H   0  0  0  0  0  0
  -22.3690  -10.9673   19.6159 H   0  0  0  0  0  0
  -21.1978   -7.6136   23.9695 H   0  0  0  0  0  0
  -21.1466   -6.0519   25.9061 H   0  0  0  0  0  0
  -22.0609   -2.7609   23.2834 H   0  0  0  0  0  0
  -22.4183  -11.9902   22.4802 H   0  0  0  0  0  0
  -21.1128  -13.1208   22.2613 H   0  0  0  0  0  0
  -24.6670  -15.8471   20.5547 H   0  0  0  0  0  0
  -26.2682  -15.6301   20.0661 H   0  0  0  0  0  0
  -26.7196  -32.5399   23.1040 H   0  0  0  0  0  0
  -25.0072  -33.9678   25.0379 H   0  0  0  0  0  0
  -22.7239  -31.2990   21.3927 H   0  0  0  0  0  0
  -23.3765  -35.9594   23.3279 H   0  0  0  0  0  0
  -24.3596  -36.8902   22.2045 H   0  0  0  0  0  0
  -23.7245  -37.6466   23.6657 H   0  0  0  0  0  0
  -26.1186  -31.5296   20.6136 H   0  0  0  0  0  0
  -26.8502  -30.8122   22.0172 H   0  0  0  0  0  0
  -28.1197  -28.9172   21.2234 H   0  0  0  0  0  0
  -25.9806  -25.9279   18.9592 H   0  0  0  0  0  0
  -23.9829  -27.3178   18.9797 H   0  0  0  0  0  0
  -23.7795  -30.5918   19.4021 H   0  0  0  0  0  0
  -22.7677  -29.2522   19.8456 H   0  0  0  0  0  0
  -25.1300  -36.1895   25.0810 H   0  0  0  0  0  0
  -21.0004  -28.3293   24.1380 H   0  0  0  0  0  0
  -20.5670  -26.2308   23.3626 H   0  0  0  0  0  0
  -21.6669  -26.7421   22.1227 H   0  0  0  0  0  0
  -19.6946  -25.6296   21.1233 H   0  0  0  0  0  0
  -19.6719  -27.3196   20.6734 H   0  0  0  0  0  0
  -17.4222  -26.6652   21.4026 H   0  0  0  0  0  0
  -18.0367  -26.0079   22.9020 H   0  0  0  0  0  0
  -19.7951  -30.7280   24.2247 H   0  0  0  0  0  0
  -17.5023  -31.6253   24.5181 H   0  0  0  0  0  0
  -15.5363  -30.2973   23.7653 H   0  0  0  0  0  0
  -15.8699  -28.0836   22.7008 H   0  0  0  0  0  0
  -24.5900  -30.7095   25.7800 H   0  0  0  0  0  0
  -24.8928  -32.2949   26.4798 H   0  0  0  0  0  0
  -25.8055  -30.8993   27.0235 H   0  0  0  0  0  0
  -26.2823  -29.6720   24.1196 H   0  0  0  0  0  0
  -27.3890  -29.7162   25.4711 H   0  0  0  0  0  0
  -27.8759  -30.4133   23.9443 H   0  0  0  0  0  0
  -27.2767  -33.3562   26.2015 H   0  0  0  0  0  0
  -28.3900  -32.6772   25.0225 H   0  0  0  0  0  0
  -28.0774  -31.8340   26.5321 H   0  0  0  0  0  0
  -28.2611  -38.0078   24.7494 H   0  0  0  0  0  0
  -28.1077  -36.2613   24.6283 H   0  0  0  0  0  0
  -27.2318  -37.1444   25.8867 H   0  0  0  0  0  0
  -20.9401  -29.8722   21.6809 H   0  0  0  0  0  0
  -26.0166  -38.2837   24.1417 H   0  0  0  0  0  0
  -31.4452  -17.4977   19.4421 H   0  0  0  0  0  0
  -27.4727  -19.8081   21.2825 H   0  0  0  0  0  0
  -32.3200  -19.6474   18.7051 H   0  0  0  0  0  0
  -31.3742  -21.1251   18.7881 H   0  0  0  0  0  0
  -30.9880  -19.8962   17.5746 H   0  0  0  0  0  0
  -27.9499  -17.3906   23.2122 H   0  0  0  0  0  0
  -27.4792  -16.2349   21.9654 H   0  0  0  0  0  0
  -26.6335  -17.7583   22.0988 H   0  0  0  0  0  0
  -27.7243  -19.6422   18.1620 H   0  0  0  0  0  0
  -28.5525  -20.8466   17.1944 H   0  0  0  0  0  0
  -26.9821  -21.2035   17.9276 H   0  0  0  0  0  0
  -29.9998  -23.9226   20.5020 H   0  0  0  0  0  0
  -28.8206  -23.0281   21.4153 H   0  0  0  0  0  0
  -27.8289  -25.0646   21.7003 H   0  0  0  0  0  0
  -27.0262  -24.6289   20.2602 H   0  0  0  0  0  0
  -28.9597  -15.3877   21.3791 H   0  0  0  0  0  0
  1 25  1  0  0  0
  1 30  2  0  0  0
  1 83  1  0  0  0
  2  3  1  0  0  0
  2 25  1  0  0  0
  2 86  1  0  0  0
  2 87  1  0  0  0
  3  4  1  0  0  0
  3 88  1  0  0  0
  3 89  1  0  0  0
  4  5  1  0  0  0
  4 90  1  0  0  0
  4 91  1  0  0  0
  5  6  1  0  0  0
  5 26  1  0  0  0
  5 92  1  0  0  0
  6 25  1  0  0  0
  6 93  1  0  0  0
  6 94  1  0  0  0
  7  8  2  0  0  0
  7 26  1  0  0  0
  7 29  1  0  0  0
  8  9  1  0  0  0
  8 22  1  0  0  0
  9 10  1  0  0  0
  9 27  2  0  0  0
 10 11  2  0  0  0
 10 15  1  0  0  0
 11 12  1  0  0  0
 11 95  1  0  0  0
 12 13  2  0  0  0
 12 96  1  0  0  0
 13 14  1  0  0  0
 13 31  1  0  0  0
 14 15  2  0  0  0
 14 97  1  0  0  0
 15 98  1  0  0  0
 16 17  2  0  0  0
 16 21  1  0  0  0
 16 31  1  0  0  0
 17 18  1  0  0  0
 17 99  1  0  0  0
 18 19  2  0  0  0
 18100  1  0  0  0
 19 20  1  0  0  0
 19 24  1  0  0  0
 20 21  2  0  0  0
 20101  1  0  0  0
 21 23  1  0  0  0
 22 28  1  0  0  0
 22 32  2  0  0  0
 26 27  1  0  0  0
 28102  1  0  0  0
 28103  1  0  0  0
 29104  1  0  0  0
 29105  1  0  0  0
 33 34  1  0  0  0
 33 66  1  0  0  0
 33 70  2  0  0  0
 34 36  1  0  0  0
 34 59  1  0  0  0
 34106  1  0  0  0
 35 44  2  0  0  0
 35 45  1  0  0  0
 35 68  1  0  0  0
 36 56  1  0  0  0
 36107  1  0  0  0
 37 39  1  0  0  0
 37 47  1  0  0  0
 37 66  1  0  0  0
 37108  1  0  0  0
 38 43  2  0  0  0
 38 46  1  0  0  0
 38 47  1  0  0  0
 39 64  1  0  0  0
 39 67  2  0  0  0
 40 52  1  0  0  0
 40 53  2  0  0  0
 40 58  1  0  0  0
 41109  1  0  0  0
 41110  1  0  0  0
 41111  1  0  0  0
 41 48  1  0  0  0
 42 43  1  0  0  0
 42 66  1  0  0  0
 42112  1  0  0  0
 42113  1  0  0  0
 43 44  1  0  0  0
 44114  1  0  0  0
 45 46  2  0  0  0
 45115  1  0  0  0
 46116  1  0  0  0
 47117  1  0  0  0
 47118  1  0  0  0
 48 56  1  0  0  0
 48 65  1  0  0  0
 48119  1  0  0  0
 49 50  1  0  0  0
 49 53  1  0  0  0
 49 64  1  0  0  0
 49120  1  0  0  0
 50 51  1  0  0  0
 50121  1  0  0  0
 50122  1  0  0  0
 51 52  1  0  0  0
 51123  1  0  0  0
 51124  1  0  0  0
 52125  1  0  0  0
 52126  1  0  0  0
 53 54  1  0  0  0
 54 55  2  0  0  0
 54127  1  0  0  0
 55 57  1  0  0  0
 55128  1  0  0  0
 56 69  2  0  0  0
 57 58  2  0  0  0
 57129  1  0  0  0
 58130  1  0  0  0
 59 60  1  0  0  0
 59 61  1  0  0  0
 59 62  1  0  0  0
 60131  1  0  0  0
 60132  1  0  0  0
 60133  1  0  0  0
 61134  1  0  0  0
 61135  1  0  0  0
 61136  1  0  0  0
 62137  1  0  0  0
 62138  1  0  0  0
 62139  1  0  0  0
 63 65  1  0  0  0
 63140  1  0  0  0
 63141  1  0  0  0
 63142  1  0  0  0
 64143  1  0  0  0
 65144  1  0  0  0
 68 82  1  0  0  0
 71 73  2  0  0  0
 71 75  1  0  0  0
 71145  1  0  0  0
 72 74  1  0  0  0
 72 76  2  0  0  0
 72146  1  0  0  0
 73 76  1  0  0  0
 73 78  1  0  0  0
 74 75  2  0  0  0
 74 79  1  0  0  0
 75 83  1  0  0  0
 76 84  1  0  0  0
 77 81  1  0  0  0
 77 84  1  0  0  0
 77 85  2  0  0  0
 78147  1  0  0  0
 78148  1  0  0  0
 78149  1  0  0  0
 79150  1  0  0  0
 79151  1  0  0  0
 79152  1  0  0  0
 80 84  1  0  0  0
 80153  1  0  0  0
 80154  1  0  0  0
 80155  1  0  0  0
 81 82  1  0  0  0
 81156  1  0  0  0
 81157  1  0  0  0
 82158  1  0  0  0
 82159  1  0  0  0
 83160  1  0  0  0
M  ISO  4   1 100  68 101  82 101  83 100
M  END
> <chiral flag>
0

> <version>
0

> <s_m_source_file>
/data/baiqing/PycharmProjects/Reinvent-master-3.2/result/LINK_invent/BTK/process_docking_weight1_custom_product_contain_oxygen_bond_distance_aromatic_linkinvent_7_9_3/rearranged_h_0041.sdf

> <i_m_source_file_index>
44

> <r_mmod_Potential_Energy-OPLS-2005>
284.064453125

> <r_mmod_Stretch_Energy-OPLS-2005>
121.185523986816

> <r_mmod_Bend_Energy-OPLS-2005>
223.819213867188

> <r_mmod_Torsional_Energy-OPLS-2005>
318.031860351562

> <r_mmod_Improper_Torsional_Energy-OPLS-2005>
10.333441734314

> <r_mmod_Van_der_Waal_Energy-OPLS-2005>
146.548355102539

> <r_mmod_Electrostatic_Energy-OPLS-2005>
-398.333251953125

> <r_mmod_Solvation_Energy-OPLS-2005>
-216.71955871582

> <b_mmod_Minimization_Converged-OPLS-2005>
0

> <r_mmod_RMS_Derivative-OPLS-2005>
1.74693071842194

$$$$
44
                    3D
 Structure written by MMmdl.
160168  0  0  1  0            999 V2000
  -30.6025  -14.6620   20.4904 C   0  0  0  0  0  0
  -30.4444  -12.4046   19.4379 C   0  0  0  0  0  0
  -29.5051  -12.5123   18.2146 C   0  0  0  0  0  0
  -28.0247  -12.3630   18.6238 C   0  0  0  0  0  0
  -27.6573  -13.2164   19.8676 C   0  0  2  0  0  0
  -28.7083  -13.0498   20.9884 C   0  0  0  0  0  0
  -25.2580  -13.8158   20.5662 C   0  0  0  0  0  0
  -24.1843  -13.0423   20.9150 C   0  0  0  0  0  0
  -24.6415  -11.6895   20.8710 C   0  0  0  0  0  0
  -23.9086  -10.4281   21.0401 C   0  0  0  0  0  0
  -24.3627   -9.4191   21.9183 C   0  0  0  0  0  0
  -23.6289   -8.2239   22.0770 C   0  0  0  0  0  0
  -22.4281   -8.0272   21.3564 C   0  0  0  0  0  0
  -21.9917   -9.0231   20.4661 C   0  0  0  0  0  0
  -22.7253  -10.2115   20.3063 C   0  0  0  0  0  0
  -21.6856   -6.0742   22.5269 C   0  0  0  0  0  0
  -21.4013   -6.5650   23.8192 C   0  0  0  0  0  0
  -21.3654   -5.6803   24.9150 C   0  0  0  0  0  0
  -21.6052   -4.3061   24.7203 C   0  0  0  0  0  0
  -21.8820   -3.8158   23.4313 C   0  0  0  0  0  0
  -21.9184   -4.6979   22.3378 C   0  0  0  0  0  0
  -22.7873  -13.5226   21.1780 C   0  0  0  0  0  0
  -22.1660   -4.2170   21.0955 F   0  0  0  0  0  0
  -21.5620   -3.4546   25.7707 F   0  0  0  0  0  0
  -30.0183  -13.4204   20.4239 N   0  0  0  0  0  0
  -26.3019  -12.9339   20.3356 N   0  0  0  0  0  0
  -25.9360  -11.6498   20.5786 N   0  0  0  0  0  0
  -22.0523  -12.8223   22.0351 N   0  0  0  0  0  0
  -25.4273  -15.1870   20.4073 N   0  0  0  0  0  0
  -31.7468  -14.8549   20.0726 O   0  0  0  0  0  0
  -21.6636   -6.8875   21.4241 O   0  0  0  0  0  0
  -22.3545  -14.5515   20.6604 O   0  0  0  0  0  0
  -24.6215  -31.8537   23.1991 C   0  0  0  0  0  0
  -25.9071  -32.4769   23.8295 C   0  0  1  0  0  0
  -27.2335  -27.2970   20.1388 C   0  0  0  0  0  0
  -25.5891  -33.8563   24.2233 N   0  0  0  0  0  0
  -23.4192  -30.4757   21.5389 C   0  0  2  0  0  0
  -24.8713  -28.9128   20.1218 C   0  0  0  0  0  0
  -22.7479  -29.4569   22.4908 C   0  0  0  0  0  0
  -18.0271  -28.1363   22.8415 C   0  0  0  0  0  0
  -24.1495  -36.7241   23.2646 C   0  0  0  0  0  0
  -25.9612  -30.7793   21.3750 C   0  0  0  0  0  0
  -26.0352  -29.4020   20.7252 C   0  0  0  0  0  0
  -27.2196  -28.6041   20.7183 C   0  0  0  0  0  0
  -26.0461  -26.8511   19.5267 C   0  0  0  0  0  0
  -24.8778  -27.6449   19.5146 C   0  0  0  0  0  0
  -23.6433  -29.8001   20.1589 C   0  0  0  0  0  0
  -25.4105  -36.3043   24.0343 C   0  0  1  0  0  0
  -20.5866  -28.3621   23.1289 C   0  0  2  0  0  0
  -20.6775  -26.9351   22.5402 C   0  0  0  0  0  0
  -19.5783  -26.6337   21.5181 C   0  0  0  0  0  0
  -18.1934  -26.7902   22.1562 C   0  0  0  0  0  0
  -19.1531  -28.8801   23.2859 C   0  0  0  0  0  0
  -18.9477  -30.1397   23.8873 C   0  0  0  0  0  0
  -17.6502  -30.6570   24.0518 C   0  0  0  0  0  0
  -25.9025  -34.9439   23.5089 C   0  0  0  0  0  0
  -16.5376  -29.9056   23.6353 C   0  0  0  0  0  0
  -16.7264  -28.6503   23.0312 C   0  0  0  0  0  0
  -26.4488  -31.6579   25.0663 C   0  0  0  0  0  0
  -25.3757  -31.3739   26.1412 C   0  0  0  0  0  0
  -27.0286  -30.2988   24.6041 C   0  0  0  0  0  0
  -27.6042  -32.4293   25.7428 C   0  0  0  0  0  0
  -27.5581  -37.1767   24.8481 C   0  0  0  0  0  0
  -21.4186  -29.3002   22.3697 N   0  0  0  0  0  0
  -26.4281  -37.3740   23.9440 N   0  0  0  0  0  0
  -24.6857  -31.0539   22.0961 N   0  0  0  0  0  0
  -23.4209  -28.8090   23.2963 O   0  0  0  0  0  0
  -28.3972  -26.5186   20.0639 O   0  0  0  0  0  0
  -26.5580  -34.8924   22.4643 O   0  0  0  0  0  0
  -23.5381  -32.1332   23.7312 O   0  0  0  0  0  0
  -30.3836  -19.4374   20.0830 C   0  0  0  0  0  0
  -30.5858  -18.0114   20.0928 C   0  0  0  0  0  0
  -28.6881  -17.7861   21.5318 C   0  0  0  0  0  0
  -28.4844  -19.1975   21.5443 C   0  0  0  0  0  0
  -29.3276  -20.0891   20.8030 C   0  0  0  0  0  0
  -29.7308  -17.1380   20.8267 C   0  0  0  0  0  0
  -27.4122  -19.6517   22.4452 C   0  0  0  0  0  0
  -26.3329  -20.3699   22.0933 C   0  0  0  0  0  0
  -25.2570  -20.8120   23.0640 C   0  0  0  0  0  0
  -29.2172  -21.6787   20.9553 C   0  0  0  0  0  0
  -28.1020  -23.8318   19.8001 C   0  0  0  0  0  0
  -28.5098  -25.1426   20.6242 C   0  0  0  0  0  0
  -29.7759  -15.6712   20.9260 N   0  0  0  0  0  0
  -29.0121  -22.5886   19.7558 N   0  3  0  0  0  0
  -31.4828  -12.5424   19.1282 H   0  0  0  0  0  0
  -30.3920  -11.4051   19.8721 H   0  0  0  0  0  0
  -29.7568  -11.7497   17.4760 H   0  0  0  0  0  0
  -29.6504  -13.4759   17.7222 H   0  0  0  0  0  0
  -27.8403  -11.3089   18.8284 H   0  0  0  0  0  0
  -27.3758  -12.6269   17.7870 H   0  0  0  0  0  0
  -27.6785  -14.2590   19.5456 H   0  0  0  0  0  0
  -28.7320  -12.0184   21.3427 H   0  0  0  0  0  0
  -28.4565  -13.6528   21.8622 H   0  0  0  0  0  0
  -25.2790   -9.5658   22.4743 H   0  0  0  0  0  0
  -23.9984   -7.4654   22.7524 H   0  0  0  0  0  0
  -21.0841   -8.8763   19.8972 H   0  0  0  0  0  0
  -22.3715  -10.9652   19.6159 H   0  0  0  0  0  0
  -21.2026   -7.6164   23.9700 H   0  0  0  0  0  0
  -21.1475   -6.0532   25.9052 H   0  0  0  0  0  0
  -22.0611   -2.7629   23.2799 H   0  0  0  0  0  0
  -22.4160  -11.9884   22.4720 H   0  0  0  0  0  0
  -21.1146  -13.1264   22.2593 H   0  0  0  0  0  0
  -24.6596  -15.8395   20.5226 H   0  0  0  0  0  0
  -26.2717  -15.6304   20.0711 H   0  0  0  0  0  0
  -26.7079  -32.5422   23.0982 H   0  0  0  0  0  0
  -25.0201  -33.9709   25.0491 H   0  0  0  0  0  0
  -22.7109  -31.2926   21.3795 H   0  0  0  0  0  0
  -23.3807  -35.9544   23.3289 H   0  0  0  0  0  0
  -24.3611  -36.8847   22.2077 H   0  0  0  0  0  0
  -23.7242  -37.6425   23.6671 H   0  0  0  0  0  0
  -26.0878  -31.5401   20.6035 H   0  0  0  0  0  0
  -26.8439  -30.8351   21.9995 H   0  0  0  0  0  0
  -28.1253  -28.9825   21.1695 H   0  0  0  0  0  0
  -26.0239  -25.8849   19.0432 H   0  0  0  0  0  0
  -23.9854  -27.2674   19.0357 H   0  0  0  0  0  0
  -23.7794  -30.5677   19.3982 H   0  0  0  0  0  0
  -22.7670  -29.2292   19.8462 H   0  0  0  0  0  0
  -25.1309  -36.1870   25.0845 H   0  0  0  0  0  0
  -20.9896  -28.3158   24.1440 H   0  0  0  0  0  0
  -20.5616  -26.2227   23.3572 H   0  0  0  0  0  0
  -21.6655  -26.7366   22.1226 H   0  0  0  0  0  0
  -19.6981  -25.6250   21.1195 H   0  0  0  0  0  0
  -19.6770  -27.3146   20.6717 H   0  0  0  0  0  0
  -17.4214  -26.6583   21.3954 H   0  0  0  0  0  0
  -18.0344  -26.0044   22.8957 H   0  0  0  0  0  0
  -19.7983  -30.7156   24.2238 H   0  0  0  0  0  0
  -17.5106  -31.6270   24.5068 H   0  0  0  0  0  0
  -15.5385  -30.2964   23.7749 H   0  0  0  0  0  0
  -15.8645  -28.0846   22.7033 H   0  0  0  0  0  0
  -24.5949  -30.7034   25.7798 H   0  0  0  0  0  0
  -24.8931  -32.2937   26.4751 H   0  0  0  0  0  0
  -25.8115  -30.9020   27.0228 H   0  0  0  0  0  0
  -26.2789  -29.6769   24.1131 H   0  0  0  0  0  0
  -27.4110  -29.7202   25.4448 H   0  0  0  0  0  0
  -27.8612  -30.4291   23.9140 H   0  0  0  0  0  0
  -27.2654  -33.3643   26.1916 H   0  0  0  0  0  0
  -28.3920  -32.6756   25.0304 H   0  0  0  0  0  0
  -28.0617  -31.8474   26.5426 H   0  0  0  0  0  0
  -28.2553  -38.0091   24.7505 H   0  0  0  0  0  0
  -28.1109  -36.2615   24.6305 H   0  0  0  0  0  0
  -27.2316  -37.1401   25.8885 H   0  0  0  0  0  0
  -20.9321  -29.8765   21.6957 H   0  0  0  0  0  0
  -26.0158  -38.2808   24.1473 H   0  0  0  0  0  0
  -31.0946  -20.0411   19.5385 H   0  0  0  0  0  0
  -31.4180  -17.5994   19.5343 H   0  0  0  0  0  0
  -28.0149  -17.1757   22.1189 H   0  0  0  0  0  0
  -27.5345  -19.3752   23.4845 H   0  0  0  0  0  0
  -26.1916  -20.6594   21.0617 H   0  0  0  0  0  0
  -25.4660  -20.4684   24.0794 H   0  0  0  0  0  0
  -24.2909  -20.4070   22.7605 H   0  0  0  0  0  0
  -25.1780  -21.8998   23.0876 H   0  0  0  0  0  0
  -30.1441  -22.0037   21.4294 H   0  0  0  0  0  0
  -28.4498  -21.9298   21.6837 H   0  0  0  0  0  0
  -27.9948  -24.1494   18.7624 H   0  0  0  0  0  0
  -27.1022  -23.5133   20.0975 H   0  0  0  0  0  0
  -29.5674  -25.0473   20.8635 H   0  0  0  0  0  0
  -28.0152  -25.1164   21.5971 H   0  0  0  0  0  0
  -28.9440  -15.2800   21.3402 H   0  0  0  0  0  0
  -28.6379  -22.0002   19.0293 H   0  0  0  0  0  0
  -29.9250  -22.8655   19.4310 H   0  0  0  0  0  0
  1 25  1  0  0  0
  1 30  2  0  0  0
  1 83  1  0  0  0
  2  3  1  0  0  0
  2 25  1  0  0  0
  2 85  1  0  0  0
  2 86  1  0  0  0
  3  4  1  0  0  0
  3 87  1  0  0  0
  3 88  1  0  0  0
  4  5  1  0  0  0
  4 89  1  0  0  0
  4 90  1  0  0  0
  5  6  1  0  0  0
  5 26  1  0  0  0
  5 91  1  0  0  0
  6 25  1  0  0  0
  6 92  1  0  0  0
  6 93  1  0  0  0
  7  8  2  0  0  0
  7 26  1  0  0  0
  7 29  1  0  0  0
  8  9  1  0  0  0
  8 22  1  0  0  0
  9 10  1  0  0  0
  9 27  2  0  0  0
 10 11  2  0  0  0
 10 15  1  0  0  0
 11 12  1  0  0  0
 11 94  1  0  0  0
 12 13  2  0  0  0
 12 95  1  0  0  0
 13 14  1  0  0  0
 13 31  1  0  0  0
 14 15  2  0  0  0
 14 96  1  0  0  0
 15 97  1  0  0  0
 16 17  2  0  0  0
 16 21  1  0  0  0
 16 31  1  0  0  0
 17 18  1  0  0  0
 17 98  1  0  0  0
 18 19  2  0  0  0
 18 99  1  0  0  0
 19 20  1  0  0  0
 19 24  1  0  0  0
 20 21  2  0  0  0
 20100  1  0  0  0
 21 23  1  0  0  0
 22 28  1  0  0  0
 22 32  2  0  0  0
 26 27  1  0  0  0
 28101  1  0  0  0
 28102  1  0  0  0
 29103  1  0  0  0
 29104  1  0  0  0
 33 34  1  0  0  0
 33 66  1  0  0  0
 33 70  2  0  0  0
 34 36  1  0  0  0
 34 59  1  0  0  0
 34105  1  0  0  0
 35 44  2  0  0  0
 35 45  1  0  0  0
 35 68  1  0  0  0
 36 56  1  0  0  0
 36106  1  0  0  0
 37 39  1  0  0  0
 37 47  1  0  0  0
 37 66  1  0  0  0
 37107  1  0  0  0
 38 43  2  0  0  0
 38 46  1  0  0  0
 38 47  1  0  0  0
 39 64  1  0  0  0
 39 67  2  0  0  0
 40 52  1  0  0  0
 40 53  2  0  0  0
 40 58  1  0  0  0
 41108  1  0  0  0
 41109  1  0  0  0
 41110  1  0  0  0
 41 48  1  0  0  0
 42 43  1  0  0  0
 42 66  1  0  0  0
 42111  1  0  0  0
 42112  1  0  0  0
 43 44  1  0  0  0
 44113  1  0  0  0
 45 46  2  0  0  0
 45114  1  0  0  0
 46115  1  0  0  0
 47116  1  0  0  0
 47117  1  0  0  0
 48 56  1  0  0  0
 48 65  1  0  0  0
 48118  1  0  0  0
 49 50  1  0  0  0
 49 53  1  0  0  0
 49 64  1  0  0  0
 49119  1  0  0  0
 50 51  1  0  0  0
 50120  1  0  0  0
 50121  1  0  0  0
 51 52  1  0  0  0
 51122  1  0  0  0
 51123  1  0  0  0
 52124  1  0  0  0
 52125  1  0  0  0
 53 54  1  0  0  0
 54 55  2  0  0  0
 54126  1  0  0  0
 55 57  1  0  0  0
 55127  1  0  0  0
 56 69  2  0  0  0
 57 58  2  0  0  0
 57128  1  0  0  0
 58129  1  0  0  0
 59 60  1  0  0  0
 59 61  1  0  0  0
 59 62  1  0  0  0
 60130  1  0  0  0
 60131  1  0  0  0
 60132  1  0  0  0
 61133  1  0  0  0
 61134  1  0  0  0
 61135  1  0  0  0
 62136  1  0  0  0
 62137  1  0  0  0
 62138  1  0  0  0
 63 65  1  0  0  0
 63139  1  0  0  0
 63140  1  0  0  0
 63141  1  0  0  0
 64142  1  0  0  0
 65143  1  0  0  0
 68 82  1  0  0  0
 71 72  2  0  0  0
 71 75  1  0  0  0
 71144  1  0  0  0
 72 76  1  0  0  0
 72145  1  0  0  0
 73 74  1  0  0  0
 73 76  2  0  0  0
 73146  1  0  0  0
 74 75  2  0  0  0
 74 77  1  0  0  0
 75 80  1  0  0  0
 76 83  1  0  0  0
 77 78  2  0  0  0
 77147  1  0  0  0
 78 79  1  0  0  0
 78148  1  0  0  0
 79149  1  0  0  0
 79150  1  0  0  0
 79151  1  0  0  0
 80 84  1  0  0  0
 80152  1  0  0  0
 80153  1  0  0  0
 81 82  1  0  0  0
 81 84  1  0  0  0
 81154  1  0  0  0
 81155  1  0  0  0
 82156  1  0  0  0
 82157  1  0  0  0
 83158  1  0  0  0
 84159  1  0  0  0
 84160  1  0  0  0
M  CHG  1  84   1
M  ISO  4   1 100  68 101  82 101  83 100
M  END
> <chiral flag>
0

> <version>
0

> <s_m_source_file>
/data/baiqing/PycharmProjects/Reinvent-master-3.2/result/LINK_invent/BTK/process_docking_weight1_custom_product_contain_oxygen_bond_distance_aromatic_linkinvent_7_9_3/rearranged_h_0041.sdf

> <i_m_source_file_index>
45

> <r_mmod_Potential_Energy-OPLS-2005>
3.10989594459534

> <r_mmod_Stretch_Energy-OPLS-2005>
96.1891250610352

> <r_mmod_Bend_Energy-OPLS-2005>
194.99543762207

> <r_mmod_Torsional_Energy-OPLS-2005>
262.822937011719

> <r_mmod_Improper_Torsional_Energy-OPLS-2005>
4.66568279266357

> <r_mmod_Van_der_Waal_Energy-OPLS-2005>
129.135635375977

> <r_mmod_Electrostatic_Energy-OPLS-2005>
-276.719329833984

> <r_mmod_Solvation_Energy-OPLS-2005>
-458.118713378906

> <b_mmod_Minimization_Converged-OPLS-2005>
0

> <r_mmod_RMS_Derivative-OPLS-2005>
4.47289037704468

$$$$
45
                    3D
 Structure written by MMmdl.
169178  0  0  1  0            999 V2000
  -30.6567  -14.5502   20.5409 C   0  0  0  0  0  0
  -30.4297  -12.3453   19.4241 C   0  0  0  0  0  0
  -29.5065  -12.5305   18.2008 C   0  0  0  0  0  0
  -28.0219  -12.3869   18.5984 C   0  0  0  0  0  0
  -27.6538  -13.2103   19.8635 C   0  0  2  0  0  0
  -28.7002  -13.0085   20.9814 C   0  0  0  0  0  0
  -25.2572  -13.8134   20.5567 C   0  0  0  0  0  0
  -24.1871  -13.0417   20.9156 C   0  0  0  0  0  0
  -24.6433  -11.6888   20.8724 C   0  0  0  0  0  0
  -23.9106  -10.4295   21.0373 C   0  0  0  0  0  0
  -24.3653   -9.4222   21.9180 C   0  0  0  0  0  0
  -23.6304   -8.2260   22.0754 C   0  0  0  0  0  0
  -22.4285   -8.0288   21.3530 C   0  0  0  0  0  0
  -21.9917   -9.0274   20.4645 C   0  0  0  0  0  0
  -22.7257  -10.2160   20.3032 C   0  0  0  0  0  0
  -21.6860   -6.0766   22.5284 C   0  0  0  0  0  0
  -21.4031   -6.5648   23.8225 C   0  0  0  0  0  0
  -21.3665   -5.6789   24.9184 C   0  0  0  0  0  0
  -21.6038   -4.3047   24.7220 C   0  0  0  0  0  0
  -21.8817   -3.8162   23.4328 C   0  0  0  0  0  0
  -21.9208   -4.7002   22.3410 C   0  0  0  0  0  0
  -22.7910  -13.5255   21.1805 C   0  0  0  0  0  0
  -22.1647   -4.2195   21.0971 F   0  0  0  0  0  0
  -21.5646   -3.4521   25.7733 F   0  0  0  0  0  0
  -30.0235  -13.3415   20.4281 N   0  0  0  0  0  0
  -26.2995  -12.9318   20.3291 N   0  0  0  0  0  0
  -25.9369  -11.6495   20.5744 N   0  0  0  0  0  0
  -22.0489  -12.8303   22.0350 N   0  0  0  0  0  0
  -25.4264  -15.1848   20.3935 N   0  0  0  0  0  0
  -31.8054  -14.7352   20.1295 O   0  0  0  0  0  0
  -21.6619   -6.8900   21.4231 O   0  0  0  0  0  0
  -22.3647  -14.5581   20.6654 O   0  0  0  0  0  0
  -24.6311  -31.8601   23.2062 C   0  0  0  0  0  0
  -25.9125  -32.4799   23.8431 C   0  0  1  0  0  0
  -27.2179  -27.3414   20.1434 C   0  0  0  0  0  0
  -25.5924  -33.8596   24.2336 N   0  0  0  0  0  0
  -23.4205  -30.4803   21.5491 C   0  0  2  0  0  0
  -24.8638  -28.9396   20.1073 C   0  0  0  0  0  0
  -22.7473  -29.4589   22.4946 C   0  0  0  0  0  0
  -18.0265  -28.1380   22.8511 C   0  0  0  0  0  0
  -24.1466  -36.7318   23.2631 C   0  0  0  0  0  0
  -25.9577  -30.8053   21.3661 C   0  0  0  0  0  0
  -26.0280  -29.4301   20.7150 C   0  0  0  0  0  0
  -27.2124  -28.6411   20.7220 C   0  0  0  0  0  0
  -26.0541  -26.9076   19.4781 C   0  0  0  0  0  0
  -24.8773  -27.6850   19.4737 C   0  0  0  0  0  0
  -23.6272  -29.8148   20.1600 C   0  0  0  0  0  0
  -25.4108  -36.3142   24.0336 C   0  0  1  0  0  0
  -20.5899  -28.3649   23.1294 C   0  0  2  0  0  0
  -20.6765  -26.9374   22.5431 C   0  0  0  0  0  0
  -19.5709  -26.6360   21.5268 C   0  0  0  0  0  0
  -18.1886  -26.7926   22.1653 C   0  0  0  0  0  0
  -19.1541  -28.8845   23.2903 C   0  0  0  0  0  0
  -18.9446  -30.1459   23.8905 C   0  0  0  0  0  0
  -17.6448  -30.6595   24.0564 C   0  0  0  0  0  0
  -25.9026  -34.9457   23.5129 C   0  0  0  0  0  0
  -16.5341  -29.9087   23.6323 C   0  0  0  0  0  0
  -16.7260  -28.6484   23.0375 C   0  0  0  0  0  0
  -26.4528  -31.6620   25.0775 C   0  0  0  0  0  0
  -25.3770  -31.3698   26.1482 C   0  0  0  0  0  0
  -27.0329  -30.3039   24.6156 C   0  0  0  0  0  0
  -27.6103  -32.4363   25.7522 C   0  0  0  0  0  0
  -27.5577  -37.1823   24.8453 C   0  0  0  0  0  0
  -21.4177  -29.3013   22.3718 N   0  0  0  0  0  0
  -26.4291  -37.3835   23.9399 N   0  0  0  0  0  0
  -24.6902  -31.0647   22.0985 N   0  0  0  0  0  0
  -23.4203  -28.8127   23.3043 O   0  0  0  0  0  0
  -28.3457  -26.5288   20.1585 O   0  0  0  0  0  0
  -26.5600  -34.8942   22.4704 O   0  0  0  0  0  0
  -23.5486  -32.1322   23.7416 O   0  0  0  0  0  0
  -31.0468  -17.7783   21.2344 C   0  0  0  0  0  0
  -28.8193  -17.6718   20.2938 C   0  0  0  0  0  0
  -30.9875  -19.2051   21.1917 C   0  0  0  0  0  0
  -29.8383  -19.8886   20.6747 C   0  0  0  0  0  0
  -29.9428  -16.9894   20.8169 C   0  0  0  0  0  0
  -28.7724  -19.0840   20.1960 C   0  0  0  0  0  0
  -29.6303  -24.7007   20.9898 C   0  0  0  0  0  0
  -28.4306  -25.3167   20.8692 C   0  0  0  0  0  0
  -29.8777  -23.6146   21.9479 C   0  0  0  0  0  0
  -30.4254  -23.9240   23.1512 C   0  0  0  0  0  0
  -30.4260  -23.0007   24.2717 C   0  0  0  0  0  0
  -27.1822  -24.6957   21.5305 C   0  0  0  0  0  0
  -27.0065  -23.1745   21.2184 C   0  0  0  0  0  0
  -27.8681  -22.1745   22.0370 C   0  0  0  0  0  0
  -32.1983  -19.9873   21.6783 C   0  0  0  0  0  0
  -29.7762  -21.4501   20.5283 C   0  0  0  0  0  0
  -31.6387  -22.5630   24.5851 N   0  0  0  0  0  0
  -29.8608  -15.5562   20.9870 N   0  0  0  0  0  0
  -29.3234  -22.2216   21.7338 N   0  3  1  0  0  0
  -29.4229  -22.5903   24.8553 O   0  0  0  0  0  0
  -27.3758  -19.7943   19.4650 Cl  0  0  0  0  0  0
  -31.4773  -12.4449   19.1314 H   0  0  0  0  0  0
  -30.3281  -11.3399   19.8348 H   0  0  0  0  0  0
  -29.7487  -11.8005   17.4302 H   0  0  0  0  0  0
  -29.6714  -13.5161   17.7624 H   0  0  0  0  0  0
  -27.8251  -11.3323   18.7760 H   0  0  0  0  0  0
  -27.3760  -12.6794   17.7691 H   0  0  0  0  0  0
  -27.6805  -14.2597   19.5715 H   0  0  0  0  0  0
  -28.6990  -11.9694   21.3146 H   0  0  0  0  0  0
  -28.4528  -13.6068   21.8608 H   0  0  0  0  0  0
  -25.2801   -9.5759   22.4762 H   0  0  0  0  0  0
  -24.0054   -7.4655   22.7467 H   0  0  0  0  0  0
  -21.0857   -8.8793   19.8908 H   0  0  0  0  0  0
  -22.3688  -10.9727   19.6157 H   0  0  0  0  0  0
  -21.1982   -7.6162   23.9778 H   0  0  0  0  0  0
  -21.1488   -6.0488   25.9106 H   0  0  0  0  0  0
  -22.0596   -2.7642   23.2796 H   0  0  0  0  0  0
  -22.4013  -11.9949   22.4816 H   0  0  0  0  0  0
  -21.1096  -13.1386   22.2481 H   0  0  0  0  0  0
  -24.6597  -15.8400   20.4989 H   0  0  0  0  0  0
  -26.2798  -15.6172   20.0651 H   0  0  0  0  0  0
  -26.7220  -32.5477   23.1216 H   0  0  0  0  0  0
  -25.0111  -33.9796   25.0507 H   0  0  0  0  0  0
  -22.7120  -31.3013   21.4100 H   0  0  0  0  0  0
  -23.3789  -35.9596   23.3307 H   0  0  0  0  0  0
  -24.3513  -36.8924   22.2039 H   0  0  0  0  0  0
  -23.7154  -37.6488   23.6647 H   0  0  0  0  0  0
  -26.0721  -31.5709   20.5983 H   0  0  0  0  0  0
  -26.8500  -30.8644   21.9837 H   0  0  0  0  0  0
  -28.1071  -29.0087   21.1926 H   0  0  0  0  0  0
  -26.0493  -25.9432   18.9923 H   0  0  0  0  0  0
  -23.9943  -27.3112   18.9794 H   0  0  0  0  0  0
  -23.7402  -30.5958   19.4049 H   0  0  0  0  0  0
  -22.7514  -29.2346   19.8624 H   0  0  0  0  0  0
  -25.1308  -36.2026   25.0851 H   0  0  0  0  0  0
  -20.9976  -28.3258   24.1432 H   0  0  0  0  0  0
  -20.5652  -26.2283   23.3631 H   0  0  0  0  0  0
  -21.6603  -26.7390   22.1229 H   0  0  0  0  0  0
  -19.6803  -25.6273   21.1255 H   0  0  0  0  0  0
  -19.6657  -27.3217   20.6840 H   0  0  0  0  0  0
  -17.4190  -26.6771   21.4017 H   0  0  0  0  0  0
  -18.0202  -26.0090   22.9052 H   0  0  0  0  0  0
  -19.7957  -30.7308   24.2233 H   0  0  0  0  0  0
  -17.5003  -31.6240   24.5235 H   0  0  0  0  0  0
  -15.5338  -30.2977   23.7623 H   0  0  0  0  0  0
  -15.8670  -28.0779   22.7091 H   0  0  0  0  0  0
  -24.6047  -30.6904   25.7822 H   0  0  0  0  0  0
  -24.8854  -32.2820   26.4859 H   0  0  0  0  0  0
  -25.8141  -30.8954   27.0266 H   0  0  0  0  0  0
  -26.2848  -29.6794   24.1225 H   0  0  0  0  0  0
  -27.4074  -29.7256   25.4622 H   0  0  0  0  0  0
  -27.8706  -30.4329   23.9295 H   0  0  0  0  0  0
  -27.2718  -33.3708   26.2014 H   0  0  0  0  0  0
  -28.3927  -32.6851   25.0323 H   0  0  0  0  0  0
  -28.0739  -31.8529   26.5481 H   0  0  0  0  0  0
  -28.2638  -38.0111   24.7612 H   0  0  0  0  0  0
  -28.1085  -36.2654   24.6242 H   0  0  0  0  0  0
  -27.2266  -37.1415   25.8852 H   0  0  0  0  0  0
  -20.9367  -29.8773   21.6957 H   0  0  0  0  0  0
  -26.0194  -38.2890   24.1528 H   0  0  0  0  0  0
  -31.9441  -17.2806   21.5903 H   0  0  0  0  0  0
  -27.9745  -17.1041   19.9365 H   0  0  0  0  0  0
  -30.4800  -25.1240   20.4730 H   0  0  0  0  0  0
  -30.7494  -24.9403   23.3407 H   0  0  0  0  0  0
  -26.2630  -25.1884   21.2412 H   0  0  0  0  0  0
  -27.2492  -24.8527   22.6089 H   0  0  0  0  0  0
  -27.1248  -22.9869   20.1497 H   0  0  0  0  0  0
  -25.9705  -22.9178   21.4426 H   0  0  0  0  0  0
  -27.5033  -21.1546   21.9174 H   0  0  0  0  0  0
  -27.7174  -22.3910   23.0930 H   0  0  0  0  0  0
  -32.8018  -20.3193   20.8335 H   0  0  0  0  0  0
  -32.8382  -19.3838   22.3222 H   0  0  0  0  0  0
  -31.8982  -20.8656   22.2486 H   0  0  0  0  0  0
  -29.1593  -21.7339   19.6729 H   0  0  0  0  0  0
  -30.7699  -21.7994   20.2508 H   0  0  0  0  0  0
  -32.4580  -22.9067   24.1014 H   0  0  0  0  0  0
  -31.7558  -21.8720   25.3165 H   0  0  0  0  0  0
  -28.9425  -15.2166   21.2382 H   0  0  0  0  0  0
  -29.7354  -21.6646   22.4708 H   0  0  0  0  0  0
  1 25  1  0  0  0
  1 30  2  0  0  0
  1 88  1  0  0  0
  2  3  1  0  0  0
  2 25  1  0  0  0
  2 92  1  0  0  0
  2 93  1  0  0  0
  3  4  1  0  0  0
  3 94  1  0  0  0
  3 95  1  0  0  0
  4  5  1  0  0  0
  4 96  1  0  0  0
  4 97  1  0  0  0
  5  6  1  0  0  0
  5 26  1  0  0  0
  5 98  1  0  0  0
  6 25  1  0  0  0
  6 99  1  0  0  0
  6100  1  0  0  0
  7  8  2  0  0  0
  7 26  1  0  0  0
  7 29  1  0  0  0
  8  9  1  0  0  0
  8 22  1  0  0  0
  9 10  1  0  0  0
  9 27  2  0  0  0
 10 11  2  0  0  0
 10 15  1  0  0  0
 11 12  1  0  0  0
 11101  1  0  0  0
 12 13  2  0  0  0
 12102  1  0  0  0
 13 14  1  0  0  0
 13 31  1  0  0  0
 14 15  2  0  0  0
 14103  1  0  0  0
 15104  1  0  0  0
 16 17  2  0  0  0
 16 21  1  0  0  0
 16 31  1  0  0  0
 17 18  1  0  0  0
 17105  1  0  0  0
 18 19  2  0  0  0
 18106  1  0  0  0
 19 20  1  0  0  0
 19 24  1  0  0  0
 20 21  2  0  0  0
 20107  1  0  0  0
 21 23  1  0  0  0
 22 28  1  0  0  0
 22 32  2  0  0  0
 26 27  1  0  0  0
 28108  1  0  0  0
 28109  1  0  0  0
 29110  1  0  0  0
 29111  1  0  0  0
 33 34  1  0  0  0
 33 66  1  0  0  0
 33 70  2  0  0  0
 34 36  1  0  0  0
 34 59  1  0  0  0
 34112  1  0  0  0
 35 44  2  0  0  0
 35 45  1  0  0  0
 35 68  1  0  0  0
 36 56  1  0  0  0
 36113  1  0  0  0
 37 39  1  0  0  0
 37 47  1  0  0  0
 37 66  1  0  0  0
 37114  1  0  0  0
 38 43  2  0  0  0
 38 46  1  0  0  0
 38 47  1  0  0  0
 39 64  1  0  0  0
 39 67  2  0  0  0
 40 52  1  0  0  0
 40 53  2  0  0  0
 40 58  1  0  0  0
 41115  1  0  0  0
 41116  1  0  0  0
 41117  1  0  0  0
 41 48  1  0  0  0
 42 43  1  0  0  0
 42 66  1  0  0  0
 42118  1  0  0  0
 42119  1  0  0  0
 43 44  1  0  0  0
 44120  1  0  0  0
 45 46  2  0  0  0
 45121  1  0  0  0
 46122  1  0  0  0
 47123  1  0  0  0
 47124  1  0  0  0
 48 56  1  0  0  0
 48 65  1  0  0  0
 48125  1  0  0  0
 49 50  1  0  0  0
 49 53  1  0  0  0
 49 64  1  0  0  0
 49126  1  0  0  0
 50 51  1  0  0  0
 50127  1  0  0  0
 50128  1  0  0  0
 51 52  1  0  0  0
 51129  1  0  0  0
 51130  1  0  0  0
 52131  1  0  0  0
 52132  1  0  0  0
 53 54  1  0  0  0
 54 55  2  0  0  0
 54133  1  0  0  0
 55 57  1  0  0  0
 55134  1  0  0  0
 56 69  2  0  0  0
 57 58  2  0  0  0
 57135  1  0  0  0
 58136  1  0  0  0
 59 60  1  0  0  0
 59 61  1  0  0  0
 59 62  1  0  0  0
 60137  1  0  0  0
 60138  1  0  0  0
 60139  1  0  0  0
 61140  1  0  0  0
 61141  1  0  0  0
 61142  1  0  0  0
 62143  1  0  0  0
 62144  1  0  0  0
 62145  1  0  0  0
 63 65  1  0  0  0
 63146  1  0  0  0
 63147  1  0  0  0
 63148  1  0  0  0
 64149  1  0  0  0
 65150  1  0  0  0
 68 78  1  0  0  0
 71 73  2  0  0  0
 71 75  1  0  0  0
 71151  1  0  0  0
 72 75  2  0  0  0
 72 76  1  0  0  0
 72152  1  0  0  0
 73 74  1  0  0  0
 73 85  1  0  0  0
 74 76  2  0  0  0
 74 86  1  0  0  0
 75 88  1  0  0  0
 76 91  1  0  0  0
 77 78  2  0  0  0
 77 79  1  0  0  0
 77153  1  0  0  0
 78 82  1  0  0  0
 79 80  2  0  0  0
 79 89  1  0  0  0
 80 81  1  0  0  0
 80154  1  0  0  0
 81 87  1  0  0  0
 81 90  2  0  0  0
 82 83  1  0  0  0
 82155  1  0  0  0
 82156  1  0  0  0
 83 84  1  0  0  0
 83157  1  0  0  0
 83158  1  0  0  0
 84 89  1  0  0  0
 84159  1  0  0  0
 84160  1  0  0  0
 85161  1  0  0  0
 85162  1  0  0  0
 85163  1  0  0  0
 86164  1  0  0  0
 86165  1  0  0  0
 86 89  1  0  0  0
 87166  1  0  0  0
 87167  1  0  0  0
 88168  1  0  0  0
 89169  1  0  0  0
M  CHG  1  89   1
M  ISO  4   1 100  68 101  78 101  88 100
M  END
> <chiral flag>
0

> <version>
0

> <s_m_source_file>
/data/baiqing/PycharmProjects/Reinvent-master-3.2/result/LINK_invent/BTK/process_docking_weight1_custom_product_contain_oxygen_bond_distance_aromatic_linkinvent_7_9_3/rearranged_h_0041.sdf

> <i_m_source_file_index>
46

> <r_mmod_Potential_Energy-OPLS-2005>
-149.199523925781

> <r_mmod_Stretch_Energy-OPLS-2005>
63.3895072937012

> <r_mmod_Bend_Energy-OPLS-2005>
142.732604980469

> <r_mmod_Torsional_Energy-OPLS-2005>
303.162048339844

> <r_mmod_Improper_Torsional_Energy-OPLS-2005>
6.24715232849121

> <r_mmod_Van_der_Waal_Energy-OPLS-2005>
143.009140014648

> <r_mmod_Electrostatic_Energy-OPLS-2005>
-396.328247070312

> <r_mmod_Solvation_Energy-OPLS-2005>
-441.693572998047

> <b_mmod_Minimization_Converged-OPLS-2005>
0

> <r_mmod_RMS_Derivative-OPLS-2005>
8.72104454040527

$$$$
46
                    3D
 Structure written by MMmdl.
161170  0  0  1  0            999 V2000
  -30.5787  -14.7913   20.4636 C   0  0  0  0  0  0
  -30.4414  -12.4887   19.4761 C   0  0  0  0  0  0
  -29.5135  -12.5283   18.2401 C   0  0  0  0  0  0
  -28.0405  -12.3440   18.6526 C   0  0  0  0  0  0
  -27.6424  -13.2367   19.8574 C   0  0  2  0  0  0
  -28.6882  -13.1665   20.9916 C   0  0  0  0  0  0
  -25.2512  -13.8199   20.5711 C   0  0  0  0  0  0
  -24.1811  -13.0432   20.9205 C   0  0  0  0  0  0
  -24.6408  -11.6917   20.8755 C   0  0  0  0  0  0
  -23.9089  -10.4295   21.0416 C   0  0  0  0  0  0
  -24.3631   -9.4208   21.9196 C   0  0  0  0  0  0
  -23.6299   -8.2245   22.0762 C   0  0  0  0  0  0
  -22.4279   -8.0291   21.3549 C   0  0  0  0  0  0
  -21.9927   -9.0265   20.4651 C   0  0  0  0  0  0
  -22.7261  -10.2140   20.3060 C   0  0  0  0  0  0
  -21.6851   -6.0737   22.5275 C   0  0  0  0  0  0
  -21.4007   -6.5639   23.8210 C   0  0  0  0  0  0
  -21.3663   -5.6795   24.9175 C   0  0  0  0  0  0
  -21.6049   -4.3059   24.7220 C   0  0  0  0  0  0
  -21.8823   -3.8146   23.4340 C   0  0  0  0  0  0
  -21.9191   -4.6967   22.3399 C   0  0  0  0  0  0
  -22.7827  -13.5207   21.1870 C   0  0  0  0  0  0
  -22.1663   -4.2152   21.0978 F   0  0  0  0  0  0
  -21.5639   -3.4544   25.7738 F   0  0  0  0  0  0
  -29.9849  -13.5444   20.4131 N   0  0  0  0  0  0
  -26.2946  -12.9412   20.3307 N   0  0  0  0  0  0
  -25.9342  -11.6547   20.5764 N   0  0  0  0  0  0
  -22.0474  -12.8180   22.0423 N   0  0  0  0  0  0
  -25.4195  -15.1928   20.4163 N   0  0  0  0  0  0
  -31.7575  -14.9144   20.1208 O   0  0  0  0  0  0
  -21.6642   -6.8888   21.4240 O   0  0  0  0  0  0
  -22.3509  -14.5518   20.6741 O   0  0  0  0  0  0
  -24.6344  -31.8518   23.1954 C   0  0  0  0  0  0
  -25.9160  -32.4723   23.8308 C   0  0  1  0  0  0
  -27.2215  -27.2240   20.1268 C   0  0  0  0  0  0
  -25.5956  -33.8531   24.2239 N   0  0  0  0  0  0
  -23.4315  -30.4739   21.5391 C   0  0  2  0  0  0
  -24.8789  -28.9147   20.1069 C   0  0  0  0  0  0
  -22.7506  -29.4589   22.4889 C   0  0  0  0  0  0
  -18.0287  -28.1395   22.8490 C   0  0  0  0  0  0
  -24.1496  -36.7266   23.2643 C   0  0  0  0  0  0
  -25.9816  -30.7515   21.3803 C   0  0  0  0  0  0
  -26.0508  -29.3715   20.7202 C   0  0  0  0  0  0
  -27.2191  -28.5381   20.7204 C   0  0  0  0  0  0
  -26.0210  -26.8419   19.4853 C   0  0  0  0  0  0
  -24.8719  -27.6594   19.4799 C   0  0  0  0  0  0
  -23.6504  -29.8048   20.1557 C   0  0  0  0  0  0
  -25.4124  -36.3052   24.0325 C   0  0  1  0  0  0
  -20.5896  -28.3711   23.1263 C   0  0  2  0  0  0
  -20.6777  -26.9424   22.5409 C   0  0  0  0  0  0
  -19.5753  -26.6383   21.5217 C   0  0  0  0  0  0
  -18.1929  -26.7940   22.1622 C   0  0  0  0  0  0
  -19.1543  -28.8866   23.2873 C   0  0  0  0  0  0
  -18.9465  -30.1463   23.8895 C   0  0  0  0  0  0
  -17.6467  -30.6598   24.0557 C   0  0  0  0  0  0
  -25.9065  -34.9418   23.5083 C   0  0  0  0  0  0
  -16.5357  -29.9091   23.6339 C   0  0  0  0  0  0
  -16.7273  -28.6505   23.0374 C   0  0  0  0  0  0
  -26.4524  -31.6567   25.0707 C   0  0  0  0  0  0
  -25.3738  -31.3701   26.1416 C   0  0  0  0  0  0
  -27.0407  -30.2991   24.6217 C   0  0  0  0  0  0
  -27.6063  -32.4325   25.7494 C   0  0  0  0  0  0
  -27.5582  -37.1788   24.8466 C   0  0  0  0  0  0
  -21.4211  -29.3050   22.3639 N   0  0  0  0  0  0
  -26.4298  -37.3753   23.9403 N   0  0  0  0  0  0
  -24.7016  -31.0453   22.0936 N   0  0  0  0  0  0
  -23.4190  -28.8134   23.3002 O   0  0  0  0  0  0
  -28.3214  -26.3278   20.2445 O   0  0  0  0  0  0
  -26.5624  -34.8899   22.4642 O   0  0  0  0  0  0
  -23.5489  -32.1368   23.7233 O   0  0  0  0  0  0
  -28.2299  -17.3928   18.7935 C   0  0  0  0  0  0
  -26.5511  -19.0121   18.2272 C   0  0  0  0  0  0
  -28.8559  -18.2578   19.7272 C   0  0  0  0  0  0
  -28.3867  -19.6824   19.7745 C   0  0  0  0  0  0
  -27.1105  -17.7529   18.0443 C   0  0  0  0  0  0
  -27.1603  -19.9500   19.0747 C   0  0  0  0  0  0
  -28.5055  -23.6077   20.4921 C   0  0  0  0  0  0
  -30.4296  -23.7252   18.4160 C   0  0  0  0  0  0
  -29.6881  -25.0552   18.6804 C   0  0  0  0  0  0
  -29.5313  -22.4810   18.5811 C   0  0  0  0  0  0
  -28.4400  -24.9584   19.5899 C   0  0  2  0  0  0
  -29.0137  -20.9600   20.5332 C   0  0  0  0  0  0
  -29.9602  -17.4355   20.5428 C   0  0  0  0  0  0
  -28.9575  -22.3980   19.9313 N   0  0  0  0  0  0
  -29.7699  -15.9010   20.7048 N   0  0  0  0  0  0
  -28.1184  -23.6612   21.6632 O   0  0  0  0  0  0
  -26.3946  -16.6221   16.9544 Cl  0  0  0  0  0  0
  -26.2553  -21.4142   19.2546 Cl  0  0  0  0  0  0
  -31.4791  -12.6305   19.1706 H   0  0  0  0  0  0
  -30.4066  -11.5104   19.9560 H   0  0  0  0  0  0
  -29.7990  -11.7579   17.5233 H   0  0  0  0  0  0
  -29.6341  -13.4834   17.7276 H   0  0  0  0  0  0
  -27.8969  -11.2934   18.9081 H   0  0  0  0  0  0
  -27.3845  -12.5419   17.8054 H   0  0  0  0  0  0
  -27.6350  -14.2590   19.4807 H   0  0  0  0  0  0
  -28.7345  -12.1603   21.4114 H   0  0  0  0  0  0
  -28.4164  -13.8273   21.8158 H   0  0  0  0  0  0
  -25.2773   -9.5670   22.4777 H   0  0  0  0  0  0
  -24.0004   -7.4629   22.7479 H   0  0  0  0  0  0
  -21.0865   -8.8783   19.8940 H   0  0  0  0  0  0
  -22.3733  -10.9680   19.6172 H   0  0  0  0  0  0
  -21.1981   -7.6143   23.9708 H   0  0  0  0  0  0
  -21.1490   -6.0526   25.9078 H   0  0  0  0  0  0
  -22.0594   -2.7607   23.2842 H   0  0  0  0  0  0
  -22.4085  -11.9819   22.4768 H   0  0  0  0  0  0
  -21.1095  -13.1206   22.2657 H   0  0  0  0  0  0
  -24.6413  -15.8363   20.5038 H   0  0  0  0  0  0
  -26.2555  -15.6309   20.0552 H   0  0  0  0  0  0
  -26.7216  -32.5350   23.1033 H   0  0  0  0  0  0
  -25.0157  -33.9668   25.0425 H   0  0  0  0  0  0
  -22.7299  -31.2980   21.3900 H   0  0  0  0  0  0
  -23.3767  -35.9590   23.3292 H   0  0  0  0  0  0
  -24.3588  -36.8904   22.2060 H   0  0  0  0  0  0
  -23.7251  -37.6458   23.6680 H   0  0  0  0  0  0
  -26.1292  -31.5110   20.6108 H   0  0  0  0  0  0
  -26.8564  -30.7973   22.0169 H   0  0  0  0  0  0
  -28.1131  -28.8812   21.2221 H   0  0  0  0  0  0
  -25.9081  -25.8799   19.0140 H   0  0  0  0  0  0
  -23.9726  -27.3007   18.9983 H   0  0  0  0  0  0
  -23.7733  -30.5803   19.4006 H   0  0  0  0  0  0
  -22.7680  -29.2395   19.8505 H   0  0  0  0  0  0
  -25.1312  -36.1894   25.0823 H   0  0  0  0  0  0
  -20.9993  -28.3298   24.1384 H   0  0  0  0  0  0
  -20.5698  -26.2315   23.3616 H   0  0  0  0  0  0
  -21.6643  -26.7454   22.1190 H   0  0  0  0  0  0
  -19.6920  -25.6288   21.1259 H   0  0  0  0  0  0
  -19.6702  -27.3179   20.6740 H   0  0  0  0  0  0
  -17.4206  -26.6704   21.4009 H   0  0  0  0  0  0
  -18.0314  -26.0071   22.9004 H   0  0  0  0  0  0
  -19.7935  -30.7281   24.2270 H   0  0  0  0  0  0
  -17.5016  -31.6278   24.5151 H   0  0  0  0  0  0
  -15.5359  -30.2994   23.7666 H   0  0  0  0  0  0
  -15.8671  -28.0817   22.7123 H   0  0  0  0  0  0
  -24.5947  -30.7019   25.7734 H   0  0  0  0  0  0
  -24.8892  -32.2854   26.4813 H   0  0  0  0  0  0
  -25.8050  -30.8907   27.0212 H   0  0  0  0  0  0
  -26.3018  -29.6693   24.1249 H   0  0  0  0  0  0
  -27.4116  -29.7291   25.4747 H   0  0  0  0  0  0
  -27.8870  -30.4285   23.9464 H   0  0  0  0  0  0
  -27.2683  -33.3667   26.1991 H   0  0  0  0  0  0
  -28.3913  -32.6813   25.0340 H   0  0  0  0  0  0
  -28.0676  -31.8496   26.5475 H   0  0  0  0  0  0
  -28.2576  -38.0104   24.7521 H   0  0  0  0  0  0
  -28.1104  -36.2631   24.6294 H   0  0  0  0  0  0
  -27.2288  -37.1426   25.8864 H   0  0  0  0  0  0
  -20.9405  -29.8768   21.6835 H   0  0  0  0  0  0
  -26.0171  -38.2828   24.1389 H   0  0  0  0  0  0
  -28.5952  -16.3902   18.6344 H   0  0  0  0  0  0
  -25.6393  -19.2653   17.7069 H   0  0  0  0  0  0
  -31.2657  -23.6431   19.1136 H   0  0  0  0  0  0
  -30.8787  -23.7420   17.4218 H   0  0  0  0  0  0
  -29.3810  -25.4912   17.7288 H   0  0  0  0  0  0
  -30.3997  -25.7634   19.1088 H   0  0  0  0  0  0
  -30.1204  -21.5874   18.3681 H   0  0  0  0  0  0
  -28.7243  -22.4975   17.8473 H   0  0  0  0  0  0
  -27.6057  -24.7741   18.9200 H   0  0  0  0  0  0
  -30.0630  -20.7380   20.7231 H   0  0  0  0  0  0
  -28.5459  -20.9957   21.5178 H   0  0  0  0  0  0
  -30.0413  -17.8733   21.5384 H   0  0  0  0  0  0
  -30.9210  -17.6123   20.0588 H   0  0  0  0  0  0
  -28.8453  -15.6449   21.0152 H   0  0  0  0  0  0
  1 25  1  0  0  0
  1 30  2  0  0  0
  1 85  1  0  0  0
  2  3  1  0  0  0
  2 25  1  0  0  0
  2 89  1  0  0  0
  2 90  1  0  0  0
  3  4  1  0  0  0
  3 91  1  0  0  0
  3 92  1  0  0  0
  4  5  1  0  0  0
  4 93  1  0  0  0
  4 94  1  0  0  0
  5  6  1  0  0  0
  5 26  1  0  0  0
  5 95  1  0  0  0
  6 25  1  0  0  0
  6 96  1  0  0  0
  6 97  1  0  0  0
  7  8  2  0  0  0
  7 26  1  0  0  0
  7 29  1  0  0  0
  8  9  1  0  0  0
  8 22  1  0  0  0
  9 10  1  0  0  0
  9 27  2  0  0  0
 10 11  2  0  0  0
 10 15  1  0  0  0
 11 12  1  0  0  0
 11 98  1  0  0  0
 12 13  2  0  0  0
 12 99  1  0  0  0
 13 14  1  0  0  0
 13 31  1  0  0  0
 14 15  2  0  0  0
 14100  1  0  0  0
 15101  1  0  0  0
 16 17  2  0  0  0
 16 21  1  0  0  0
 16 31  1  0  0  0
 17 18  1  0  0  0
 17102  1  0  0  0
 18 19  2  0  0  0
 18103  1  0  0  0
 19 20  1  0  0  0
 19 24  1  0  0  0
 20 21  2  0  0  0
 20104  1  0  0  0
 21 23  1  0  0  0
 22 28  1  0  0  0
 22 32  2  0  0  0
 26 27  1  0  0  0
 28105  1  0  0  0
 28106  1  0  0  0
 29107  1  0  0  0
 29108  1  0  0  0
 33 34  1  0  0  0
 33 66  1  0  0  0
 33 70  2  0  0  0
 34 36  1  0  0  0
 34 59  1  0  0  0
 34109  1  0  0  0
 35 44  2  0  0  0
 35 45  1  0  0  0
 35 68  1  0  0  0
 36 56  1  0  0  0
 36110  1  0  0  0
 37 39  1  0  0  0
 37 47  1  0  0  0
 37 66  1  0  0  0
 37111  1  0  0  0
 38 43  2  0  0  0
 38 46  1  0  0  0
 38 47  1  0  0  0
 39 64  1  0  0  0
 39 67  2  0  0  0
 40 52  1  0  0  0
 40 53  2  0  0  0
 40 58  1  0  0  0
 41112  1  0  0  0
 41113  1  0  0  0
 41114  1  0  0  0
 41 48  1  0  0  0
 42 43  1  0  0  0
 42 66  1  0  0  0
 42115  1  0  0  0
 42116  1  0  0  0
 43 44  1  0  0  0
 44117  1  0  0  0
 45 46  2  0  0  0
 45118  1  0  0  0
 46119  1  0  0  0
 47120  1  0  0  0
 47121  1  0  0  0
 48 56  1  0  0  0
 48 65  1  0  0  0
 48122  1  0  0  0
 49 50  1  0  0  0
 49 53  1  0  0  0
 49 64  1  0  0  0
 49123  1  0  0  0
 50 51  1  0  0  0
 50124  1  0  0  0
 50125  1  0  0  0
 51 52  1  0  0  0
 51126  1  0  0  0
 51127  1  0  0  0
 52128  1  0  0  0
 52129  1  0  0  0
 53 54  1  0  0  0
 54 55  2  0  0  0
 54130  1  0  0  0
 55 57  1  0  0  0
 55131  1  0  0  0
 56 69  2  0  0  0
 57 58  2  0  0  0
 57132  1  0  0  0
 58133  1  0  0  0
 59 60  1  0  0  0
 59 61  1  0  0  0
 59 62  1  0  0  0
 60134  1  0  0  0
 60135  1  0  0  0
 60136  1  0  0  0
 61137  1  0  0  0
 61138  1  0  0  0
 61139  1  0  0  0
 62140  1  0  0  0
 62141  1  0  0  0
 62142  1  0  0  0
 63 65  1  0  0  0
 63143  1  0  0  0
 63144  1  0  0  0
 63145  1  0  0  0
 64146  1  0  0  0
 65147  1  0  0  0
 68 81  1  0  0  0
 71 73  2  0  0  0
 71 75  1  0  0  0
 71148  1  0  0  0
 72 75  2  0  0  0
 72 76  1  0  0  0
 72149  1  0  0  0
 73 74  1  0  0  0
 73 83  1  0  0  0
 74 76  2  0  0  0
 74 82  1  0  0  0
 75 87  1  0  0  0
 76 88  1  0  0  0
 77 81  1  0  0  0
 77 84  1  0  0  0
 77 86  2  0  0  0
 78 79  1  0  0  0
 78 80  1  0  0  0
 78150  1  0  0  0
 78151  1  0  0  0
 79 81  1  0  0  0
 79152  1  0  0  0
 79153  1  0  0  0
 80 84  1  0  0  0
 80154  1  0  0  0
 80155  1  0  0  0
 81156  1  0  0  0
 82 84  1  0  0  0
 82157  1  0  0  0
 82158  1  0  0  0
 83 85  1  0  0  0
 83159  1  0  0  0
 83160  1  0  0  0
 85161  1  0  0  0
M  ISO  4   1 100  68 101  81 101  85 100
M  END
> <chiral flag>
0

> <version>
0

> <s_m_source_file>
/data/baiqing/PycharmProjects/Reinvent-master-3.2/result/LINK_invent/BTK/process_docking_weight1_custom_product_contain_oxygen_bond_distance_aromatic_linkinvent_7_9_3/rearranged_h_0041.sdf

> <i_m_source_file_index>
47

> <r_mmod_Potential_Energy-OPLS-2005>
284.690399169922

> <r_mmod_Stretch_Energy-OPLS-2005>
180.149795532227

> <r_mmod_Bend_Energy-OPLS-2005>
222.292709350586

> <r_mmod_Torsional_Energy-OPLS-2005>
239.415664672852

> <r_mmod_Improper_Torsional_Energy-OPLS-2005>
5.12056493759155

> <r_mmod_Van_der_Waal_Energy-OPLS-2005>
144.875534057617

> <r_mmod_Electrostatic_Energy-OPLS-2005>
-379.406616210938

> <r_mmod_Solvation_Energy-OPLS-2005>
-234.606796264648

> <b_mmod_Minimization_Converged-OPLS-2005>
0

> <r_mmod_RMS_Derivative-OPLS-2005>
1.84918785095215

$$$$
47
                    3D
 Structure written by MMmdl.
158167  0  0  1  0            999 V2000
  -30.6079  -14.6322   20.5126 C   0  0  0  0  0  0
  -30.4518  -12.3940   19.4435 C   0  0  0  0  0  0
  -29.5159  -12.5139   18.2190 C   0  0  0  0  0  0
  -28.0339  -12.3575   18.6235 C   0  0  0  0  0  0
  -27.6585  -13.2103   19.8638 C   0  0  2  0  0  0
  -28.7028  -13.0385   20.9895 C   0  0  0  0  0  0
  -25.2609  -13.8148   20.5698 C   0  0  0  0  0  0
  -24.1855  -13.0433   20.9187 C   0  0  0  0  0  0
  -24.6398  -11.6893   20.8724 C   0  0  0  0  0  0
  -23.9051  -10.4284   21.0393 C   0  0  0  0  0  0
  -24.3593   -9.4208   21.9178 C   0  0  0  0  0  0
  -23.6268   -8.2244   22.0755 C   0  0  0  0  0  0
  -22.4258   -8.0283   21.3551 C   0  0  0  0  0  0
  -21.9885   -9.0261   20.4661 C   0  0  0  0  0  0
  -22.7214  -10.2133   20.3061 C   0  0  0  0  0  0
  -21.6854   -6.0729   22.5278 C   0  0  0  0  0  0
  -21.4012   -6.5616   23.8216 C   0  0  0  0  0  0
  -21.3662   -5.6776   24.9173 C   0  0  0  0  0  0
  -21.6048   -4.3041   24.7224 C   0  0  0  0  0  0
  -21.8824   -3.8135   23.4341 C   0  0  0  0  0  0
  -21.9199   -4.6955   22.3408 C   0  0  0  0  0  0
  -22.7887  -13.5269   21.1836 C   0  0  0  0  0  0
  -22.1673   -4.2141   21.0980 F   0  0  0  0  0  0
  -21.5629   -3.4523   25.7735 F   0  0  0  0  0  0
  -30.0194  -13.3972   20.4350 N   0  0  0  0  0  0
  -26.3023  -12.9317   20.3299 N   0  0  0  0  0  0
  -25.9323  -11.6471   20.5709 N   0  0  0  0  0  0
  -22.0483  -12.8298   22.0381 N   0  0  0  0  0  0
  -25.4347  -15.1863   20.4133 N   0  0  0  0  0  0
  -31.7665  -14.8191   20.1244 O   0  0  0  0  0  0
  -21.6634   -6.8867   21.4240 O   0  0  0  0  0  0
  -22.3597  -14.5591   20.6677 O   0  0  0  0  0  0
  -24.6285  -31.8614   23.2028 C   0  0  0  0  0  0
  -25.9133  -32.4787   23.8370 C   0  0  1  0  0  0
  -27.2178  -27.3144   20.1266 C   0  0  0  0  0  0
  -25.5947  -33.8580   24.2307 N   0  0  0  0  0  0
  -23.4215  -30.4890   21.5445 C   0  0  2  0  0  0
  -24.8663  -28.9503   20.1109 C   0  0  0  0  0  0
  -22.7496  -29.4644   22.4916 C   0  0  0  0  0  0
  -18.0295  -28.1392   22.8467 C   0  0  0  0  0  0
  -24.1486  -36.7274   23.2631 C   0  0  0  0  0  0
  -25.9636  -30.7961   21.3711 C   0  0  0  0  0  0
  -26.0375  -29.4237   20.7146 C   0  0  0  0  0  0
  -27.2164  -28.6196   20.7108 C   0  0  0  0  0  0
  -26.0150  -26.8999   19.5017 C   0  0  0  0  0  0
  -24.8569  -27.6931   19.4955 C   0  0  0  0  0  0
  -23.6376  -29.8313   20.1581 C   0  0  0  0  0  0
  -25.4102  -36.3086   24.0339 C   0  0  1  0  0  0
  -20.5899  -28.3698   23.1256 C   0  0  2  0  0  0
  -20.6768  -26.9413   22.5395 C   0  0  0  0  0  0
  -19.5746  -26.6390   21.5190 C   0  0  0  0  0  0
  -18.1933  -26.7932   22.1613 C   0  0  0  0  0  0
  -19.1552  -28.8864   23.2856 C   0  0  0  0  0  0
  -18.9473  -30.1457   23.8883 C   0  0  0  0  0  0
  -17.6468  -30.6589   24.0554 C   0  0  0  0  0  0
  -25.9036  -34.9460   23.5123 C   0  0  0  0  0  0
  -16.5360  -29.9079   23.6327 C   0  0  0  0  0  0
  -16.7275  -28.6504   23.0337 C   0  0  0  0  0  0
  -26.4499  -31.6572   25.0724 C   0  0  0  0  0  0
  -25.3746  -31.3720   26.1472 C   0  0  0  0  0  0
  -27.0283  -30.2984   24.6147 C   0  0  0  0  0  0
  -27.6131  -32.4239   25.7462 C   0  0  0  0  0  0
  -27.5582  -37.1779   24.8456 C   0  0  0  0  0  0
  -21.4207  -29.3055   22.3652 N   0  0  0  0  0  0
  -26.4277  -37.3787   23.9431 N   0  0  0  0  0  0
  -24.6908  -31.0639   22.0974 N   0  0  0  0  0  0
  -23.4218  -28.8169   23.2985 O   0  0  0  0  0  0
  -28.3327  -26.4564   20.2085 O   0  0  0  0  0  0
  -26.5597  -34.8922   22.4673 O   0  0  0  0  0  0
  -23.5446  -32.1414   23.7350 O   0  0  0  0  0  0
  -30.9192  -19.3110   20.4654 C   0  0  0  0  0  0
  -30.9545  -17.8828   20.4439 C   0  0  0  0  0  0
  -28.6387  -17.8480   21.0806 C   0  0  0  0  0  0
  -29.7548  -20.0497   20.8210 C   0  0  0  0  0  0
  -29.8183  -17.1080   20.7887 C   0  0  0  0  0  0
  -28.5959  -19.2750   21.0947 C   0  0  0  0  0  0
  -29.0197  -23.9768   20.7421 C   0  0  0  0  0  0
  -27.8914  -23.2622   18.1595 C   0  0  0  0  0  0
  -28.2746  -24.7201   18.4324 C   0  0  0  0  0  0
  -28.7811  -22.2651   18.9304 C   0  0  0  0  0  0
  -28.1354  -25.0078   19.9338 C   0  0  2  0  0  0
  -29.8424  -21.6018   21.1079 C   0  0  0  0  0  0
  -29.1290  -22.6631   20.3053 N   0  0  0  0  0  0
  -29.7700  -15.6471   20.8907 N   0  0  0  0  0  0
  -29.5445  -24.3515   21.7972 O   0  0  0  0  0  0
  -27.1126  -20.0573   21.5122 Cl  0  0  0  0  0  0
  -31.4893  -12.5374   19.1353 H   0  0  0  0  0  0
  -30.4049  -11.3924   19.8734 H   0  0  0  0  0  0
  -29.7824  -11.7670   17.4693 H   0  0  0  0  0  0
  -29.6660  -13.4846   17.7428 H   0  0  0  0  0  0
  -27.8515  -11.3024   18.8314 H   0  0  0  0  0  0
  -27.3921  -12.6190   17.7812 H   0  0  0  0  0  0
  -27.6857  -14.2508   19.5377 H   0  0  0  0  0  0
  -28.7169  -12.0065   21.3453 H   0  0  0  0  0  0
  -28.4440  -13.6444   21.8584 H   0  0  0  0  0  0
  -25.2727   -9.5699   22.4758 H   0  0  0  0  0  0
  -23.9983   -7.4647   22.7472 H   0  0  0  0  0  0
  -21.0821   -8.8797   19.8972 H   0  0  0  0  0  0
  -22.3669  -10.9682   19.6183 H   0  0  0  0  0  0
  -21.1992   -7.6128   23.9710 H   0  0  0  0  0  0
  -21.1484   -6.0503   25.9081 H   0  0  0  0  0  0
  -22.0601   -2.7596   23.2851 H   0  0  0  0  0  0
  -22.4015  -11.9946   22.4810 H   0  0  0  0  0  0
  -21.1127  -13.1418   22.2559 H   0  0  0  0  0  0
  -24.6679  -15.8406   20.5271 H   0  0  0  0  0  0
  -26.2732  -15.6191   20.0502 H   0  0  0  0  0  0
  -26.7204  -32.5477   23.1119 H   0  0  0  0  0  0
  -25.0162  -33.9714   25.0502 H   0  0  0  0  0  0
  -22.7160  -31.3107   21.4028 H   0  0  0  0  0  0
  -23.3782  -35.9569   23.3244 H   0  0  0  0  0  0
  -24.3609  -36.8932   22.2058 H   0  0  0  0  0  0
  -23.7183  -37.6438   23.6664 H   0  0  0  0  0  0
  -26.0907  -31.5566   20.5998 H   0  0  0  0  0  0
  -26.8464  -30.8506   21.9961 H   0  0  0  0  0  0
  -28.1134  -28.9782   21.1953 H   0  0  0  0  0  0
  -25.9148  -25.9385   19.0257 H   0  0  0  0  0  0
  -23.9565  -27.3223   19.0260 H   0  0  0  0  0  0
  -23.7648  -30.6080   19.4023 H   0  0  0  0  0  0
  -22.7581  -29.2620   19.8525 H   0  0  0  0  0  0
  -25.1271  -36.1938   25.0829 H   0  0  0  0  0  0
  -21.0006  -28.3267   24.1369 H   0  0  0  0  0  0
  -20.5632  -26.2312   23.3599 H   0  0  0  0  0  0
  -21.6639  -26.7407   22.1219 H   0  0  0  0  0  0
  -19.6893  -25.6293   21.1237 H   0  0  0  0  0  0
  -19.6683  -27.3180   20.6699 H   0  0  0  0  0  0
  -17.4196  -26.6673   21.4020 H   0  0  0  0  0  0
  -18.0336  -26.0085   22.9025 H   0  0  0  0  0  0
  -19.7950  -30.7276   24.2258 H   0  0  0  0  0  0
  -17.5022  -31.6266   24.5151 H   0  0  0  0  0  0
  -15.5353  -30.2970   23.7650 H   0  0  0  0  0  0
  -15.8682  -28.0809   22.7052 H   0  0  0  0  0  0
  -24.5929  -30.7042   25.7805 H   0  0  0  0  0  0
  -24.8917  -32.2887   26.4873 H   0  0  0  0  0  0
  -25.8093  -30.8921   27.0254 H   0  0  0  0  0  0
  -26.2809  -29.6764   24.1206 H   0  0  0  0  0  0
  -27.4004  -29.7209   25.4613 H   0  0  0  0  0  0
  -27.8688  -30.4225   23.9320 H   0  0  0  0  0  0
  -27.2871  -33.3624   26.1945 H   0  0  0  0  0  0
  -28.3991  -32.6623   25.0283 H   0  0  0  0  0  0
  -28.0722  -31.8381   26.5432 H   0  0  0  0  0  0
  -28.2572  -38.0107   24.7576 H   0  0  0  0  0  0
  -28.1117  -36.2652   24.6187 H   0  0  0  0  0  0
  -27.2332  -37.1313   25.8866 H   0  0  0  0  0  0
  -20.9388  -29.8799   21.6884 H   0  0  0  0  0  0
  -26.0167  -38.2855   24.1480 H   0  0  0  0  0  0
  -31.8348  -19.8449   20.2530 H   0  0  0  0  0  0
  -31.8874  -17.3958   20.1959 H   0  0  0  0  0  0
  -27.7359  -17.3131   21.3363 H   0  0  0  0  0  0
  -27.9442  -23.0528   17.0906 H   0  0  0  0  0  0
  -26.8483  -23.1111   18.4448 H   0  0  0  0  0  0
  -27.6452  -25.3841   17.8434 H   0  0  0  0  0  0
  -29.2966  -24.9183   18.1084 H   0  0  0  0  0  0
  -29.7152  -22.1234   18.3862 H   0  0  0  0  0  0
  -28.2873  -21.2940   18.9377 H   0  0  0  0  0  0
  -27.1374  -24.7329   20.2758 H   0  0  0  0  0  0
  -30.9005  -21.8668   21.1191 H   0  0  0  0  0  0
  -29.5232  -21.7193   22.1436 H   0  0  0  0  0  0
  -28.8868  -15.2870   21.2164 H   0  0  0  0  0  0
  1 25  1  0  0  0
  1 30  2  0  0  0
  1 84  1  0  0  0
  2  3  1  0  0  0
  2 25  1  0  0  0
  2 87  1  0  0  0
  2 88  1  0  0  0
  3  4  1  0  0  0
  3 89  1  0  0  0
  3 90  1  0  0  0
  4  5  1  0  0  0
  4 91  1  0  0  0
  4 92  1  0  0  0
  5  6  1  0  0  0
  5 26  1  0  0  0
  5 93  1  0  0  0
  6 25  1  0  0  0
  6 94  1  0  0  0
  6 95  1  0  0  0
  7  8  2  0  0  0
  7 26  1  0  0  0
  7 29  1  0  0  0
  8  9  1  0  0  0
  8 22  1  0  0  0
  9 10  1  0  0  0
  9 27  2  0  0  0
 10 11  2  0  0  0
 10 15  1  0  0  0
 11 12  1  0  0  0
 11 96  1  0  0  0
 12 13  2  0  0  0
 12 97  1  0  0  0
 13 14  1  0  0  0
 13 31  1  0  0  0
 14 15  2  0  0  0
 14 98  1  0  0  0
 15 99  1  0  0  0
 16 17  2  0  0  0
 16 21  1  0  0  0
 16 31  1  0  0  0
 17 18  1  0  0  0
 17100  1  0  0  0
 18 19  2  0  0  0
 18101  1  0  0  0
 19 20  1  0  0  0
 19 24  1  0  0  0
 20 21  2  0  0  0
 20102  1  0  0  0
 21 23  1  0  0  0
 22 28  1  0  0  0
 22 32  2  0  0  0
 26 27  1  0  0  0
 28103  1  0  0  0
 28104  1  0  0  0
 29105  1  0  0  0
 29106  1  0  0  0
 33 34  1  0  0  0
 33 66  1  0  0  0
 33 70  2  0  0  0
 34 36  1  0  0  0
 34 59  1  0  0  0
 34107  1  0  0  0
 35 44  2  0  0  0
 35 45  1  0  0  0
 35 68  1  0  0  0
 36 56  1  0  0  0
 36108  1  0  0  0
 37 39  1  0  0  0
 37 47  1  0  0  0
 37 66  1  0  0  0
 37109  1  0  0  0
 38 43  2  0  0  0
 38 46  1  0  0  0
 38 47  1  0  0  0
 39 64  1  0  0  0
 39 67  2  0  0  0
 40 52  1  0  0  0
 40 53  2  0  0  0
 40 58  1  0  0  0
 41110  1  0  0  0
 41111  1  0  0  0
 41112  1  0  0  0
 41 48  1  0  0  0
 42 43  1  0  0  0
 42 66  1  0  0  0
 42113  1  0  0  0
 42114  1  0  0  0
 43 44  1  0  0  0
 44115  1  0  0  0
 45 46  2  0  0  0
 45116  1  0  0  0
 46117  1  0  0  0
 47118  1  0  0  0
 47119  1  0  0  0
 48 56  1  0  0  0
 48 65  1  0  0  0
 48120  1  0  0  0
 49 50  1  0  0  0
 49 53  1  0  0  0
 49 64  1  0  0  0
 49121  1  0  0  0
 50 51  1  0  0  0
 50122  1  0  0  0
 50123  1  0  0  0
 51 52  1  0  0  0
 51124  1  0  0  0
 51125  1  0  0  0
 52126  1  0  0  0
 52127  1  0  0  0
 53 54  1  0  0  0
 54 55  2  0  0  0
 54128  1  0  0  0
 55 57  1  0  0  0
 55129  1  0  0  0
 56 69  2  0  0  0
 57 58  2  0  0  0
 57130  1  0  0  0
 58131  1  0  0  0
 59 60  1  0  0  0
 59 61  1  0  0  0
 59 62  1  0  0  0
 60132  1  0  0  0
 60133  1  0  0  0
 60134  1  0  0  0
 61135  1  0  0  0
 61136  1  0  0  0
 61137  1  0  0  0
 62138  1  0  0  0
 62139  1  0  0  0
 62140  1  0  0  0
 63 65  1  0  0  0
 63141  1  0  0  0
 63142  1  0  0  0
 63143  1  0  0  0
 64144  1  0  0  0
 65145  1  0  0  0
 68 81  1  0  0  0
 71 72  2  0  0  0
 71 74  1  0  0  0
 71146  1  0  0  0
 72 75  1  0  0  0
 72147  1  0  0  0
 73 75  2  0  0  0
 73 76  1  0  0  0
 73148  1  0  0  0
 74 76  2  0  0  0
 74 82  1  0  0  0
 75 84  1  0  0  0
 76 86  1  0  0  0
 77 81  1  0  0  0
 77 83  1  0  0  0
 77 85  2  0  0  0
 78 79  1  0  0  0
 78 80  1  0  0  0
 78149  1  0  0  0
 78150  1  0  0  0
 79 81  1  0  0  0
 79151  1  0  0  0
 79152  1  0  0  0
 80 83  1  0  0  0
 80153  1  0  0  0
 80154  1  0  0  0
 81155  1  0  0  0
 82 83  1  0  0  0
 82156  1  0  0  0
 82157  1  0  0  0
 84158  1  0  0  0
M  ISO  4   1 100  68 101  81 101  84 100
M  END
> <chiral flag>
0

> <version>
0

> <s_m_source_file>
/data/baiqing/PycharmProjects/Reinvent-master-3.2/result/LINK_invent/BTK/process_docking_weight1_custom_product_contain_oxygen_bond_distance_aromatic_linkinvent_7_9_3/rearranged_h_0041.sdf

> <i_m_source_file_index>
48

> <r_mmod_Potential_Energy-OPLS-2005>
135.719436645508

> <r_mmod_Stretch_Energy-OPLS-2005>
84.8940811157227

> <r_mmod_Bend_Energy-OPLS-2005>
150.596160888672

> <r_mmod_Torsional_Energy-OPLS-2005>
238.433258056641

> <r_mmod_Improper_Torsional_Energy-OPLS-2005>
5.9082202911377

> <r_mmod_Van_der_Waal_Energy-OPLS-2005>
153.857070922852

> <r_mmod_Electrostatic_Energy-OPLS-2005>
-318.593017578125

> <r_mmod_Solvation_Energy-OPLS-2005>
-229.445495605469

> <b_mmod_Minimization_Converged-OPLS-2005>
0

> <r_mmod_RMS_Derivative-OPLS-2005>
2.84272789955139

$$$$
48
                    3D
 Structure written by MMmdl.
156164  0  0  1  0            999 V2000
  -30.7698  -14.4160   20.6199 C   0  0  0  0  0  0
  -30.4060  -12.3061   19.3976 C   0  0  0  0  0  0
  -29.4782  -12.5277   18.1867 C   0  0  0  0  0  0
  -27.9995  -12.3930   18.6023 C   0  0  0  0  0  0
  -27.6599  -13.2183   19.8705 C   0  0  2  0  0  0
  -28.7033  -13.0048   20.9890 C   0  0  0  0  0  0
  -25.2555  -13.8203   20.5693 C   0  0  0  0  0  0
  -24.1821  -13.0463   20.9187 C   0  0  0  0  0  0
  -24.6385  -11.6935   20.8705 C   0  0  0  0  0  0
  -23.9043  -10.4315   21.0416 C   0  0  0  0  0  0
  -24.3591   -9.4223   21.9201 C   0  0  0  0  0  0
  -23.6284   -8.2237   22.0758 C   0  0  0  0  0  0
  -22.4268   -8.0270   21.3552 C   0  0  0  0  0  0
  -21.9892   -9.0240   20.4657 C   0  0  0  0  0  0
  -22.7209  -10.2129   20.3082 C   0  0  0  0  0  0
  -21.6827   -6.0720   22.5282 C   0  0  0  0  0  0
  -21.4001   -6.5634   23.8213 C   0  0  0  0  0  0
  -21.3675   -5.6791   24.9181 C   0  0  0  0  0  0
  -21.6061   -4.3052   24.7211 C   0  0  0  0  0  0
  -21.8828   -3.8140   23.4323 C   0  0  0  0  0  0
  -21.9200   -4.6958   22.3393 C   0  0  0  0  0  0
  -22.7844  -13.5267   21.1842 C   0  0  0  0  0  0
  -22.1668   -4.2162   21.0952 F   0  0  0  0  0  0
  -21.5637   -3.4541   25.7712 F   0  0  0  0  0  0
  -30.0436  -13.2793   20.4403 N   0  0  0  0  0  0
  -26.3018  -12.9402   20.3370 N   0  0  0  0  0  0
  -25.9317  -11.6533   20.5712 N   0  0  0  0  0  0
  -22.0435  -12.8303   22.0392 N   0  0  0  0  0  0
  -25.4128  -15.1915   20.3948 N   0  0  0  0  0  0
  -31.8012  -14.6607   19.9900 O   0  0  0  0  0  0
  -21.6615   -6.8877   21.4250 O   0  0  0  0  0  0
  -22.3566  -14.5578   20.6674 O   0  0  0  0  0  0
  -24.6123  -31.8701   23.2097 C   0  0  0  0  0  0
  -25.9050  -32.4812   23.8378 C   0  0  1  0  0  0
  -27.2406  -27.4584   20.0768 C   0  0  0  0  0  0
  -25.5920  -33.8620   24.2319 N   0  0  0  0  0  0
  -23.4027  -30.4905   21.5504 C   0  0  2  0  0  0
  -24.8495  -28.9566   20.1133 C   0  0  0  0  0  0
  -22.7392  -29.4678   22.5003 C   0  0  0  0  0  0
  -18.0275  -28.1376   22.8492 C   0  0  0  0  0  0
  -24.1489  -36.7326   23.2636 C   0  0  0  0  0  0
  -25.9279  -30.8352   21.3630 C   0  0  0  0  0  0
  -26.0074  -29.4715   20.7104 C   0  0  0  0  0  0
  -27.2088  -28.7265   20.6947 C   0  0  0  0  0  0
  -26.0685  -26.9527   19.4730 C   0  0  0  0  0  0
  -24.8731  -27.6938   19.4946 C   0  0  0  0  0  0
  -23.6078  -29.8181   20.1669 C   0  0  0  0  0  0
  -25.4117  -36.3111   24.0330 C   0  0  1  0  0  0
  -20.5857  -28.3665   23.1347 C   0  0  2  0  0  0
  -20.6788  -26.9414   22.5414 C   0  0  0  0  0  0
  -19.5744  -26.6275   21.5264 C   0  0  0  0  0  0
  -18.1902  -26.7903   22.1653 C   0  0  0  0  0  0
  -19.1525  -28.8838   23.2929 C   0  0  0  0  0  0
  -18.9435  -30.1463   23.8931 C   0  0  0  0  0  0
  -17.6435  -30.6584   24.0579 C   0  0  0  0  0  0
  -25.9024  -34.9472   23.5123 C   0  0  0  0  0  0
  -16.5352  -29.9080   23.6289 C   0  0  0  0  0  0
  -16.7262  -28.6510   23.0283 C   0  0  0  0  0  0
  -26.4479  -31.6573   25.0695 C   0  0  0  0  0  0
  -25.3744  -31.3683   26.1432 C   0  0  0  0  0  0
  -27.0280  -30.3027   24.6029 C   0  0  0  0  0  0
  -27.6053  -32.4305   25.7437 C   0  0  0  0  0  0
  -27.5586  -37.1816   24.8459 C   0  0  0  0  0  0
  -21.4129  -29.3044   22.3756 N   0  0  0  0  0  0
  -26.4305  -37.3794   23.9392 N   0  0  0  0  0  0
  -24.6659  -31.0798   22.1003 N   0  0  0  0  0  0
  -23.4190  -28.8211   23.3022 O   0  0  0  0  0  0
  -28.3928  -26.7092   20.0586 O   0  0  0  0  0  0
  -26.5582  -34.8926   22.4657 O   0  0  0  0  0  0
  -23.5308  -32.1433   23.7485 O   0  0  0  0  0  0
  -28.4295  -18.3514   21.1678 C   0  0  0  0  0  0
  -28.7763  -16.9843   21.1318 C   0  0  0  0  0  0
  -31.0655  -17.5610   21.7493 C   0  0  0  0  0  0
  -29.3858  -19.3284   21.5373 C   0  0  0  0  0  0
  -30.0883  -16.5815   21.4660 C   0  0  0  0  0  0
  -30.7233  -18.9308   21.7753 C   0  0  0  0  0  0
  -28.9253  -20.7550   21.8346 C   0  0  0  0  0  0
  -29.0457  -24.3095   20.3560 C   0  0  0  0  0  0
  -28.5923  -23.0683   21.1602 C   0  0  0  0  0  0
  -28.3249  -25.5616   20.9101 C   0  0  0  0  0  0
  -30.4022  -15.2054   21.6349 N   0  0  0  0  0  0
  -29.2423  -21.7769   20.8159 N   0  3  0  0  0  0
  -31.9475  -20.0992   22.1365 Cl  0  0  0  0  0  0
  -31.4516  -12.3910   19.0957 H   0  0  0  0  0  0
  -30.2929  -11.2959   19.7967 H   0  0  0  0  0  0
  -29.7033  -11.8107   17.3973 H   0  0  0  0  0  0
  -29.6621  -13.5157   17.7622 H   0  0  0  0  0  0
  -27.7986  -11.3363   18.7774 H   0  0  0  0  0  0
  -27.3466  -12.6933   17.7802 H   0  0  0  0  0  0
  -27.7028  -14.2654   19.5763 H   0  0  0  0  0  0
  -28.6654  -11.9789   21.3573 H   0  0  0  0  0  0
  -28.4568  -13.6354   21.8421 H   0  0  0  0  0  0
  -25.2727   -9.5695   22.4787 H   0  0  0  0  0  0
  -23.9995   -7.4629   22.7473 H   0  0  0  0  0  0
  -21.0822   -8.8757   19.8952 H   0  0  0  0  0  0
  -22.3682  -10.9651   19.6190 H   0  0  0  0  0  0
  -21.1969   -7.6138   23.9739 H   0  0  0  0  0  0
  -21.1498   -6.0491   25.9091 H   0  0  0  0  0  0
  -22.0585   -2.7598   23.2800 H   0  0  0  0  0  0
  -22.3944  -11.9981   22.4874 H   0  0  0  0  0  0
  -21.1045  -13.1380   22.2492 H   0  0  0  0  0  0
  -24.6288  -15.8245   20.4868 H   0  0  0  0  0  0
  -26.2327  -15.6264   19.9927 H   0  0  0  0  0  0
  -26.7166  -32.5553   23.1168 H   0  0  0  0  0  0
  -25.0099  -33.9761   25.0499 H   0  0  0  0  0  0
  -22.6938  -31.3083   21.4108 H   0  0  0  0  0  0
  -23.3737  -35.9668   23.3306 H   0  0  0  0  0  0
  -24.3595  -36.8910   22.2047 H   0  0  0  0  0  0
  -23.7242  -37.6550   23.6629 H   0  0  0  0  0  0
  -26.0288  -31.5951   20.5894 H   0  0  0  0  0  0
  -26.8256  -30.8989   21.9689 H   0  0  0  0  0  0
  -28.1054  -29.1103   21.1649 H   0  0  0  0  0  0
  -26.0820  -25.9883   18.9845 H   0  0  0  0  0  0
  -23.9868  -27.2963   19.0197 H   0  0  0  0  0  0
  -23.7108  -30.5881   19.4022 H   0  0  0  0  0  0
  -22.7343  -29.2328   19.8757 H   0  0  0  0  0  0
  -25.1294  -36.1976   25.0830 H   0  0  0  0  0  0
  -20.9983  -28.3216   24.1483 H   0  0  0  0  0  0
  -20.5854  -26.2263   23.3583 H   0  0  0  0  0  0
  -21.6639  -26.7542   22.1095 H   0  0  0  0  0  0
  -19.6705  -27.3034   20.6751 H   0  0  0  0  0  0
  -19.6962  -25.6139   21.1396 H   0  0  0  0  0  0
  -17.4213  -26.6691   21.4013 H   0  0  0  0  0  0
  -18.0133  -26.0084   22.9045 H   0  0  0  0  0  0
  -19.7914  -30.7288   24.2286 H   0  0  0  0  0  0
  -17.4965  -31.6262   24.5192 H   0  0  0  0  0  0
  -15.5347  -30.2984   23.7565 H   0  0  0  0  0  0
  -15.8670  -28.0830   22.6924 H   0  0  0  0  0  0
  -24.5930  -30.7019   25.7783 H   0  0  0  0  0  0
  -24.8921  -32.2824   26.4914 H   0  0  0  0  0  0
  -25.8092  -30.8841   27.0175 H   0  0  0  0  0  0
  -26.2791  -29.6815   24.1120 H   0  0  0  0  0  0
  -27.4110  -29.7241   25.4446 H   0  0  0  0  0  0
  -27.8587  -30.4391   23.9101 H   0  0  0  0  0  0
  -27.2699  -33.3600   26.2055 H   0  0  0  0  0  0
  -28.3814  -32.6888   25.0226 H   0  0  0  0  0  0
  -28.0778  -31.8420   26.5302 H   0  0  0  0  0  0
  -28.2612  -38.0112   24.7515 H   0  0  0  0  0  0
  -28.1072  -36.2643   24.6285 H   0  0  0  0  0  0
  -27.2294  -37.1456   25.8860 H   0  0  0  0  0  0
  -20.9298  -29.8792   21.6993 H   0  0  0  0  0  0
  -26.0181  -38.2857   24.1429 H   0  0  0  0  0  0
  -27.4045  -18.6383   20.9677 H   0  0  0  0  0  0
  -28.0098  -16.2533   20.9162 H   0  0  0  0  0  0
  -32.0827  -17.2740   21.9828 H   0  0  0  0  0  0
  -29.3513  -21.0779   22.7869 H   0  0  0  0  0  0
  -27.8431  -20.7363   21.9833 H   0  0  0  0  0  0
  -28.8104  -24.1742   19.3020 H   0  0  0  0  0  0
  -30.1280  -24.4324   20.4250 H   0  0  0  0  0  0
  -27.5138  -22.9387   21.0392 H   0  0  0  0  0  0
  -28.7569  -23.2754   22.2182 H   0  0  0  0  0  0
  -28.7676  -25.8336   21.8691 H   0  0  0  0  0  0
  -27.2893  -25.2985   21.1355 H   0  0  0  0  0  0
  -31.0315  -15.0566   22.4106 H   0  0  0  0  0  0
  -28.9163  -21.4576   19.9199 H   0  0  0  0  0  0
  -30.2433  -21.8793   20.7771 H   0  0  0  0  0  0
  1 25  1  0  0  0
  1 30  2  0  0  0
  1 81  1  0  0  0
  2  3  1  0  0  0
  2 25  1  0  0  0
  2 84  1  0  0  0
  2 85  1  0  0  0
  3  4  1  0  0  0
  3 86  1  0  0  0
  3 87  1  0  0  0
  4  5  1  0  0  0
  4 88  1  0  0  0
  4 89  1  0  0  0
  5  6  1  0  0  0
  5 26  1  0  0  0
  5 90  1  0  0  0
  6 25  1  0  0  0
  6 91  1  0  0  0
  6 92  1  0  0  0
  7  8  2  0  0  0
  7 26  1  0  0  0
  7 29  1  0  0  0
  8  9  1  0  0  0
  8 22  1  0  0  0
  9 10  1  0  0  0
  9 27  2  0  0  0
 10 11  2  0  0  0
 10 15  1  0  0  0
 11 12  1  0  0  0
 11 93  1  0  0  0
 12 13  2  0  0  0
 12 94  1  0  0  0
 13 14  1  0  0  0
 13 31  1  0  0  0
 14 15  2  0  0  0
 14 95  1  0  0  0
 15 96  1  0  0  0
 16 17  2  0  0  0
 16 21  1  0  0  0
 16 31  1  0  0  0
 17 18  1  0  0  0
 17 97  1  0  0  0
 18 19  2  0  0  0
 18 98  1  0  0  0
 19 20  1  0  0  0
 19 24  1  0  0  0
 20 21  2  0  0  0
 20 99  1  0  0  0
 21 23  1  0  0  0
 22 28  1  0  0  0
 22 32  2  0  0  0
 26 27  1  0  0  0
 28100  1  0  0  0
 28101  1  0  0  0
 29102  1  0  0  0
 29103  1  0  0  0
 33 34  1  0  0  0
 33 66  1  0  0  0
 33 70  2  0  0  0
 34 36  1  0  0  0
 34 59  1  0  0  0
 34104  1  0  0  0
 35 44  2  0  0  0
 35 45  1  0  0  0
 35 68  1  0  0  0
 36 56  1  0  0  0
 36105  1  0  0  0
 37 39  1  0  0  0
 37 47  1  0  0  0
 37 66  1  0  0  0
 37106  1  0  0  0
 38 43  2  0  0  0
 38 46  1  0  0  0
 38 47  1  0  0  0
 39 64  1  0  0  0
 39 67  2  0  0  0
 40 52  1  0  0  0
 40 53  2  0  0  0
 40 58  1  0  0  0
 41107  1  0  0  0
 41108  1  0  0  0
 41109  1  0  0  0
 41 48  1  0  0  0
 42 43  1  0  0  0
 42 66  1  0  0  0
 42110  1  0  0  0
 42111  1  0  0  0
 43 44  1  0  0  0
 44112  1  0  0  0
 45 46  2  0  0  0
 45113  1  0  0  0
 46114  1  0  0  0
 47115  1  0  0  0
 47116  1  0  0  0
 48 56  1  0  0  0
 48 65  1  0  0  0
 48117  1  0  0  0
 49 50  1  0  0  0
 49 53  1  0  0  0
 49 64  1  0  0  0
 49118  1  0  0  0
 50 51  1  0  0  0
 50119  1  0  0  0
 50120  1  0  0  0
 51 52  1  0  0  0
 51121  1  0  0  0
 51122  1  0  0  0
 52123  1  0  0  0
 52124  1  0  0  0
 53 54  1  0  0  0
 54 55  2  0  0  0
 54125  1  0  0  0
 55 57  1  0  0  0
 55126  1  0  0  0
 56 69  2  0  0  0
 57 58  2  0  0  0
 57127  1  0  0  0
 58128  1  0  0  0
 59 60  1  0  0  0
 59 61  1  0  0  0
 59 62  1  0  0  0
 60129  1  0  0  0
 60130  1  0  0  0
 60131  1  0  0  0
 61132  1  0  0  0
 61133  1  0  0  0
 61134  1  0  0  0
 62135  1  0  0  0
 62136  1  0  0  0
 62137  1  0  0  0
 63 65  1  0  0  0
 63138  1  0  0  0
 63139  1  0  0  0
 63140  1  0  0  0
 64141  1  0  0  0
 65142  1  0  0  0
 68 80  1  0  0  0
 71 72  2  0  0  0
 71 74  1  0  0  0
 71143  1  0  0  0
 72 75  1  0  0  0
 72144  1  0  0  0
 73 75  2  0  0  0
 73 76  1  0  0  0
 73145  1  0  0  0
 74 76  2  0  0  0
 74 77  1  0  0  0
 75 81  1  0  0  0
 76 83  1  0  0  0
 77 82  1  0  0  0
 77146  1  0  0  0
 77147  1  0  0  0
 78 79  1  0  0  0
 78 80  1  0  0  0
 78148  1  0  0  0
 78149  1  0  0  0
 79 82  1  0  0  0
 79150  1  0  0  0
 79151  1  0  0  0
 80152  1  0  0  0
 80153  1  0  0  0
 81154  1  0  0  0
 82155  1  0  0  0
 82156  1  0  0  0
M  CHG  1  82   1
M  ISO  4   1 100  68 101  80 101  81 100
M  END
> <chiral flag>
0

> <version>
0

> <s_m_source_file>
/data/baiqing/PycharmProjects/Reinvent-master-3.2/result/LINK_invent/BTK/process_docking_weight1_custom_product_contain_oxygen_bond_distance_aromatic_linkinvent_7_9_3/rearranged_h_0041.sdf

> <i_m_source_file_index>
49

> <r_mmod_Potential_Energy-OPLS-2005>
-182.908676147461

> <r_mmod_Stretch_Energy-OPLS-2005>
34.2853775024414

> <r_mmod_Bend_Energy-OPLS-2005>
97.9046936035156

> <r_mmod_Torsional_Energy-OPLS-2005>
295.653137207031

> <r_mmod_Improper_Torsional_Energy-OPLS-2005>
8.94071769714355

> <r_mmod_Van_der_Waal_Energy-OPLS-2005>
143.800094604492

> <r_mmod_Electrostatic_Energy-OPLS-2005>
-301.602966308594

> <r_mmod_Solvation_Energy-OPLS-2005>
-471.022674560547

> <b_mmod_Minimization_Converged-OPLS-2005>
0

> <r_mmod_RMS_Derivative-OPLS-2005>
5.32481527328491

$$$$
49
                    3D
 Structure written by MMmdl.
156164  0  0  1  0            999 V2000
  -30.6925  -14.5250   20.5129 C   0  0  0  0  0  0
  -30.4107  -12.3286   19.4335 C   0  0  0  0  0  0
  -29.4924  -12.5092   18.2074 C   0  0  0  0  0  0
  -28.0081  -12.3863   18.6101 C   0  0  0  0  0  0
  -27.6516  -13.2238   19.8696 C   0  0  2  0  0  0
  -28.6992  -13.0465   20.9907 C   0  0  0  0  0  0
  -25.2545  -13.8219   20.5698 C   0  0  0  0  0  0
  -24.1810  -13.0470   20.9188 C   0  0  0  0  0  0
  -24.6373  -11.6952   20.8716 C   0  0  0  0  0  0
  -23.9014  -10.4335   21.0365 C   0  0  0  0  0  0
  -24.3590   -9.4266   21.9147 C   0  0  0  0  0  0
  -23.6291   -8.2282   22.0727 C   0  0  0  0  0  0
  -22.4281   -8.0287   21.3512 C   0  0  0  0  0  0
  -21.9884   -9.0252   20.4622 C   0  0  0  0  0  0
  -22.7186  -10.2145   20.3020 C   0  0  0  0  0  0
  -21.6884   -6.0732   22.5263 C   0  0  0  0  0  0
  -21.4058   -6.5644   23.8198 C   0  0  0  0  0  0
  -21.3648   -5.6790   24.9151 C   0  0  0  0  0  0
  -21.6022   -4.3052   24.7213 C   0  0  0  0  0  0
  -21.8830   -3.8143   23.4346 C   0  0  0  0  0  0
  -21.9212   -4.6954   22.3395 C   0  0  0  0  0  0
  -22.7841  -13.5250   21.1860 C   0  0  0  0  0  0
  -22.1687   -4.2139   21.0974 F   0  0  0  0  0  0
  -21.5572   -3.4538   25.7723 F   0  0  0  0  0  0
  -30.0155  -13.3471   20.4199 N   0  0  0  0  0  0
  -26.2980  -12.9412   20.3384 N   0  0  0  0  0  0
  -25.9308  -11.6559   20.5779 N   0  0  0  0  0  0
  -22.0494  -12.8226   22.0416 N   0  0  0  0  0  0
  -25.4280  -15.1932   20.4098 N   0  0  0  0  0  0
  -31.8675  -14.6340   20.1663 O   0  0  0  0  0  0
  -21.6670   -6.8875   21.4218 O   0  0  0  0  0  0
  -22.3501  -14.5544   20.6713 O   0  0  0  0  0  0
  -24.6157  -31.8701   23.2114 C   0  0  0  0  0  0
  -25.9021  -32.4842   23.8446 C   0  0  1  0  0  0
  -27.2345  -27.4212   20.1031 C   0  0  0  0  0  0
  -25.5864  -33.8646   24.2370 N   0  0  0  0  0  0
  -23.4058  -30.4966   21.5503 C   0  0  2  0  0  0
  -24.8540  -28.9646   20.1128 C   0  0  0  0  0  0
  -22.7396  -29.4735   22.4978 C   0  0  0  0  0  0
  -18.0325  -28.1410   22.8490 C   0  0  0  0  0  0
  -24.1467  -36.7319   23.2652 C   0  0  0  0  0  0
  -25.9374  -30.8344   21.3675 C   0  0  0  0  0  0
  -26.0162  -29.4676   20.7155 C   0  0  0  0  0  0
  -27.2078  -28.7028   20.7077 C   0  0  0  0  0  0
  -26.0541  -26.9496   19.4788 C   0  0  0  0  0  0
  -24.8716  -27.7082   19.4890 C   0  0  0  0  0  0
  -23.6138  -29.8265   20.1653 C   0  0  0  0  0  0
  -25.4083  -36.3140   24.0366 C   0  0  1  0  0  0
  -20.5879  -28.3776   23.1333 C   0  0  2  0  0  0
  -20.6827  -26.9454   22.5636 C   0  0  0  0  0  0
  -19.5923  -26.6453   21.5306 C   0  0  0  0  0  0
  -18.2042  -26.7966   22.1589 C   0  0  0  0  0  0
  -19.1526  -28.8945   23.2858 C   0  0  0  0  0  0
  -18.9424  -30.1607   23.8753 C   0  0  0  0  0  0
  -17.6409  -30.6686   24.0421 C   0  0  0  0  0  0
  -25.9005  -34.9486   23.5172 C   0  0  0  0  0  0
  -16.5337  -29.9113   23.6261 C   0  0  0  0  0  0
  -16.7286  -28.6497   23.0352 C   0  0  0  0  0  0
  -26.4446  -31.6619   25.0767 C   0  0  0  0  0  0
  -25.3718  -31.3711   26.1524 C   0  0  0  0  0  0
  -27.0273  -30.3061   24.6132 C   0  0  0  0  0  0
  -27.6032  -32.4326   25.7523 C   0  0  0  0  0  0
  -27.5570  -37.1813   24.8470 C   0  0  0  0  0  0
  -21.4133  -29.3106   22.3676 N   0  0  0  0  0  0
  -26.4280  -37.3808   23.9424 N   0  0  0  0  0  0
  -24.6721  -31.0816   22.1013 N   0  0  0  0  0  0
  -23.4116  -28.8247   23.3024 O   0  0  0  0  0  0
  -28.3934  -26.6641   20.1427 O   0  0  0  0  0  0
  -26.5581  -34.8910   22.4738 O   0  0  0  0  0  0
  -23.5333  -32.1447   23.7487 O   0  0  0  0  0  0
  -29.6261  -18.7797   22.2346 C   0  0  0  0  0  0
  -29.4049  -20.1658   22.0635 C   0  0  0  0  0  0
  -28.3323  -18.3297   20.2352 C   0  0  0  0  0  0
  -29.0826  -17.8412   21.3293 C   0  0  0  0  0  0
  -28.6246  -20.6577   20.9904 C   0  0  0  0  0  0
  -28.0921  -19.7167   20.0699 C   0  0  0  0  0  0
  -29.2464  -16.3267   21.5565 C   0  0  0  0  0  0
  -28.3222  -22.1686   20.9178 C   0  0  0  0  0  0
  -29.4240  -24.4442   20.6092 C   0  0  0  0  0  0
  -28.2589  -25.2362   19.9693 C   0  0  0  0  0  0
  -29.9434  -15.6456   20.4608 N   0  0  0  0  0  0
  -29.4207  -22.9742   20.3232 N   0  3  0  0  0  0
  -27.0907  -20.2309   18.7578 Cl  0  0  0  0  0  0
  -31.4571  -12.4126   19.1361 H   0  0  0  0  0  0
  -30.2973  -11.3278   19.8557 H   0  0  0  0  0  0
  -29.7367  -11.7748   17.4400 H   0  0  0  0  0  0
  -29.6666  -13.4891   17.7590 H   0  0  0  0  0  0
  -27.7888  -11.3321   18.7821 H   0  0  0  0  0  0
  -27.3739  -12.6919   17.7772 H   0  0  0  0  0  0
  -27.6759  -14.2694   19.5591 H   0  0  0  0  0  0
  -28.6840  -12.0262   21.3725 H   0  0  0  0  0  0
  -28.4806  -13.6850   21.8448 H   0  0  0  0  0  0
  -25.2737   -9.5798   22.4721 H   0  0  0  0  0  0
  -24.0029   -7.4701   22.7460 H   0  0  0  0  0  0
  -21.0813   -8.8732   19.8954 H   0  0  0  0  0  0
  -22.3593  -10.9661   19.6130 H   0  0  0  0  0  0
  -21.2103   -7.6164   23.9699 H   0  0  0  0  0  0
  -21.1444   -6.0523   25.9041 H   0  0  0  0  0  0
  -22.0633   -2.7609   23.2846 H   0  0  0  0  0  0
  -22.4146  -11.9865   22.4769 H   0  0  0  0  0  0
  -21.1092  -13.1202   22.2625 H   0  0  0  0  0  0
  -24.6602  -15.8510   20.4948 H   0  0  0  0  0  0
  -26.2769  -15.6137   20.0552 H   0  0  0  0  0  0
  -26.7089  -32.5554   23.1228 H   0  0  0  0  0  0
  -25.0002  -33.9836   25.0507 H   0  0  0  0  0  0
  -22.7002  -31.3180   21.4093 H   0  0  0  0  0  0
  -23.3736  -35.9645   23.3317 H   0  0  0  0  0  0
  -24.3566  -36.8914   22.2062 H   0  0  0  0  0  0
  -23.7181  -37.6518   23.6643 H   0  0  0  0  0  0
  -26.0506  -31.6005   20.5994 H   0  0  0  0  0  0
  -26.8248  -30.8912   21.9838 H   0  0  0  0  0  0
  -28.0991  -29.0810   21.1904 H   0  0  0  0  0  0
  -26.0219  -25.9958   18.9735 H   0  0  0  0  0  0
  -23.9836  -27.3203   19.0096 H   0  0  0  0  0  0
  -23.7132  -30.5989   19.4001 H   0  0  0  0  0  0
  -22.7407  -29.2381   19.8757 H   0  0  0  0  0  0
  -25.1249  -36.2042   25.0859 H   0  0  0  0  0  0
  -20.9930  -28.3467   24.1474 H   0  0  0  0  0  0
  -20.5563  -26.2454   23.3916 H   0  0  0  0  0  0
  -21.6753  -26.7333   22.1634 H   0  0  0  0  0  0
  -19.7031  -27.3300   20.6872 H   0  0  0  0  0  0
  -19.7091  -25.6402   21.1273 H   0  0  0  0  0  0
  -17.4385  -26.6729   21.3891 H   0  0  0  0  0  0
  -18.0337  -26.0083   22.8932 H   0  0  0  0  0  0
  -19.7847  -30.7586   24.1986 H   0  0  0  0  0  0
  -17.4957  -31.6418   24.4919 H   0  0  0  0  0  0
  -15.5372  -30.3045   23.7567 H   0  0  0  0  0  0
  -15.8706  -28.0765   22.7092 H   0  0  0  0  0  0
  -24.5920  -30.7019   25.7881 H   0  0  0  0  0  0
  -24.8869  -32.2849   26.4969 H   0  0  0  0  0  0
  -25.8079  -30.8918   27.0295 H   0  0  0  0  0  0
  -26.2836  -29.6857   24.1112 H   0  0  0  0  0  0
  -27.3971  -29.7261   25.4597 H   0  0  0  0  0  0
  -27.8702  -30.4389   23.9337 H   0  0  0  0  0  0
  -27.2690  -33.3642   26.2097 H   0  0  0  0  0  0
  -28.3846  -32.6844   25.0346 H   0  0  0  0  0  0
  -28.0681  -31.8435   26.5443 H   0  0  0  0  0  0
  -28.2604  -38.0094   24.7522 H   0  0  0  0  0  0
  -28.1044  -36.2630   24.6295 H   0  0  0  0  0  0
  -27.2295  -37.1467   25.8873 H   0  0  0  0  0  0
  -20.9307  -29.8729   21.6810 H   0  0  0  0  0  0
  -26.0190  -38.2900   24.1409 H   0  0  0  0  0  0
  -30.1988  -18.4468   23.0886 H   0  0  0  0  0  0
  -29.8048  -20.8568   22.7922 H   0  0  0  0  0  0
  -27.9065  -17.6307   19.5286 H   0  0  0  0  0  0
  -29.7623  -16.1449   22.5019 H   0  0  0  0  0  0
  -28.2427  -15.9097   21.6608 H   0  0  0  0  0  0
  -28.1408  -22.5124   21.9359 H   0  0  0  0  0  0
  -27.3938  -22.3521   20.3758 H   0  0  0  0  0  0
  -29.4339  -24.6026   21.6889 H   0  0  0  0  0  0
  -30.3643  -24.8466   20.2337 H   0  0  0  0  0  0
  -27.3404  -24.8831   20.4387 H   0  0  0  0  0  0
  -28.1918  -25.0116   18.9029 H   0  0  0  0  0  0
  -30.4177  -16.3333   19.8955 H   0  0  0  0  0  0
  -29.4483  -22.8194   19.3280 H   0  0  0  0  0  0
  -30.2770  -22.6036   20.6985 H   0  0  0  0  0  0
  1 25  1  0  0  0
  1 30  2  0  0  0
  1 81  1  0  0  0
  2  3  1  0  0  0
  2 25  1  0  0  0
  2 84  1  0  0  0
  2 85  1  0  0  0
  3  4  1  0  0  0
  3 86  1  0  0  0
  3 87  1  0  0  0
  4  5  1  0  0  0
  4 88  1  0  0  0
  4 89  1  0  0  0
  5  6  1  0  0  0
  5 26  1  0  0  0
  5 90  1  0  0  0
  6 25  1  0  0  0
  6 91  1  0  0  0
  6 92  1  0  0  0
  7  8  2  0  0  0
  7 26  1  0  0  0
  7 29  1  0  0  0
  8  9  1  0  0  0
  8 22  1  0  0  0
  9 10  1  0  0  0
  9 27  2  0  0  0
 10 11  2  0  0  0
 10 15  1  0  0  0
 11 12  1  0  0  0
 11 93  1  0  0  0
 12 13  2  0  0  0
 12 94  1  0  0  0
 13 14  1  0  0  0
 13 31  1  0  0  0
 14 15  2  0  0  0
 14 95  1  0  0  0
 15 96  1  0  0  0
 16 17  2  0  0  0
 16 21  1  0  0  0
 16 31  1  0  0  0
 17 18  1  0  0  0
 17 97  1  0  0  0
 18 19  2  0  0  0
 18 98  1  0  0  0
 19 20  1  0  0  0
 19 24  1  0  0  0
 20 21  2  0  0  0
 20 99  1  0  0  0
 21 23  1  0  0  0
 22 28  1  0  0  0
 22 32  2  0  0  0
 26 27  1  0  0  0
 28100  1  0  0  0
 28101  1  0  0  0
 29102  1  0  0  0
 29103  1  0  0  0
 33 34  1  0  0  0
 33 66  1  0  0  0
 33 70  2  0  0  0
 34 36  1  0  0  0
 34 59  1  0  0  0
 34104  1  0  0  0
 35 44  2  0  0  0
 35 45  1  0  0  0
 35 68  1  0  0  0
 36 56  1  0  0  0
 36105  1  0  0  0
 37 39  1  0  0  0
 37 47  1  0  0  0
 37 66  1  0  0  0
 37106  1  0  0  0
 38 43  2  0  0  0
 38 46  1  0  0  0
 38 47  1  0  0  0
 39 64  1  0  0  0
 39 67  2  0  0  0
 40 52  1  0  0  0
 40 53  2  0  0  0
 40 58  1  0  0  0
 41107  1  0  0  0
 41108  1  0  0  0
 41109  1  0  0  0
 41 48  1  0  0  0
 42 43  1  0  0  0
 42 66  1  0  0  0
 42110  1  0  0  0
 42111  1  0  0  0
 43 44  1  0  0  0
 44112  1  0  0  0
 45 46  2  0  0  0
 45113  1  0  0  0
 46114  1  0  0  0
 47115  1  0  0  0
 47116  1  0  0  0
 48 56  1  0  0  0
 48 65  1  0  0  0
 48117  1  0  0  0
 49 50  1  0  0  0
 49 53  1  0  0  0
 49 64  1  0  0  0
 49118  1  0  0  0
 50 51  1  0  0  0
 50119  1  0  0  0
 50120  1  0  0  0
 51 52  1  0  0  0
 51121  1  0  0  0
 51122  1  0  0  0
 52123  1  0  0  0
 52124  1  0  0  0
 53 54  1  0  0  0
 54 55  2  0  0  0
 54125  1  0  0  0
 55 57  1  0  0  0
 55126  1  0  0  0
 56 69  2  0  0  0
 57 58  2  0  0  0
 57127  1  0  0  0
 58128  1  0  0  0
 59 60  1  0  0  0
 59 61  1  0  0  0
 59 62  1  0  0  0
 60129  1  0  0  0
 60130  1  0  0  0
 60131  1  0  0  0
 61132  1  0  0  0
 61133  1  0  0  0
 61134  1  0  0  0
 62135  1  0  0  0
 62136  1  0  0  0
 62137  1  0  0  0
 63 65  1  0  0  0
 63138  1  0  0  0
 63139  1  0  0  0
 63140  1  0  0  0
 64141  1  0  0  0
 65142  1  0  0  0
 68 80  1  0  0  0
 71 72  2  0  0  0
 71 74  1  0  0  0
 71143  1  0  0  0
 72 75  1  0  0  0
 72144  1  0  0  0
 73 74  2  0  0  0
 73 76  1  0  0  0
 73145  1  0  0  0
 74 77  1  0  0  0
 75 76  2  0  0  0
 75 78  1  0  0  0
 76 83  1  0  0  0
 77 81  1  0  0  0
 77146  1  0  0  0
 77147  1  0  0  0
 78 82  1  0  0  0
 78148  1  0  0  0
 78149  1  0  0  0
 79 80  1  0  0  0
 79 82  1  0  0  0
 79150  1  0  0  0
 79151  1  0  0  0
 80152  1  0  0  0
 80153  1  0  0  0
 81154  1  0  0  0
 82155  1  0  0  0
 82156  1  0  0  0
M  CHG  1  82   1
M  ISO  4   1 100  68 101  80 101  81 100
M  END
> <chiral flag>
0

> <version>
0

> <s_m_source_file>
/data/baiqing/PycharmProjects/Reinvent-master-3.2/result/LINK_invent/BTK/process_docking_weight1_custom_product_contain_oxygen_bond_distance_aromatic_linkinvent_7_9_3/rearranged_h_0041.sdf

> <i_m_source_file_index>
50

> <r_mmod_Potential_Energy-OPLS-2005>
-206.504379272461

> <r_mmod_Stretch_Energy-OPLS-2005>
39.9485282897949

> <r_mmod_Bend_Energy-OPLS-2005>
108.712905883789

> <r_mmod_Torsional_Energy-OPLS-2005>
253.848648071289

> <r_mmod_Improper_Torsional_Energy-OPLS-2005>
22.0335540771484

> <r_mmod_Van_der_Waal_Energy-OPLS-2005>
142.574691772461

> <r_mmod_Electrostatic_Energy-OPLS-2005>
-338.297576904297

> <r_mmod_Solvation_Energy-OPLS-2005>
-457.303955078125

> <b_mmod_Minimization_Converged-OPLS-2005>
0

> <r_mmod_RMS_Derivative-OPLS-2005>
4.54501295089722

$$$$
50
                    3D
 Structure written by MMmdl.
167176  0  0  1  0            999 V2000
  -30.6506  -14.7199   20.4657 C   0  0  0  0  0  0
  -30.4306  -12.4383   19.4726 C   0  0  0  0  0  0
  -29.5103  -12.4976   18.2357 C   0  0  0  0  0  0
  -28.0350  -12.3326   18.6483 C   0  0  0  0  0  0
  -27.6436  -13.2339   19.8499 C   0  0  2  0  0  0
  -28.6915  -13.1741   20.9836 C   0  0  0  0  0  0
  -25.2522  -13.8196   20.5697 C   0  0  0  0  0  0
  -24.1817  -13.0434   20.9219 C   0  0  0  0  0  0
  -24.6403  -11.6920   20.8746 C   0  0  0  0  0  0
  -23.9071  -10.4290   21.0387 C   0  0  0  0  0  0
  -24.3617   -9.4210   21.9169 C   0  0  0  0  0  0
  -23.6294   -8.2240   22.0746 C   0  0  0  0  0  0
  -22.4279   -8.0271   21.3528 C   0  0  0  0  0  0
  -21.9912   -9.0244   20.4632 C   0  0  0  0  0  0
  -22.7238  -10.2129   20.3038 C   0  0  0  0  0  0
  -21.6859   -6.0728   22.5272 C   0  0  0  0  0  0
  -21.4016   -6.5635   23.8204 C   0  0  0  0  0  0
  -21.3662   -5.6789   24.9167 C   0  0  0  0  0  0
  -21.6043   -4.3051   24.7220 C   0  0  0  0  0  0
  -21.8822   -3.8142   23.4343 C   0  0  0  0  0  0
  -21.9198   -4.6956   22.3398 C   0  0  0  0  0  0
  -22.7835  -13.5214   21.1867 C   0  0  0  0  0  0
  -22.1666   -4.2140   21.0975 F   0  0  0  0  0  0
  -21.5632   -3.4537   25.7735 F   0  0  0  0  0  0
  -29.9940  -13.5116   20.3970 N   0  0  0  0  0  0
  -26.2960  -12.9415   20.3290 N   0  0  0  0  0  0
  -25.9341  -11.6554   20.5763 N   0  0  0  0  0  0
  -22.0479  -12.8186   22.0421 N   0  0  0  0  0  0
  -25.4199  -15.1907   20.4068 N   0  0  0  0  0  0
  -31.8408  -14.7702   20.1498 O   0  0  0  0  0  0
  -21.6643   -6.8869   21.4230 O   0  0  0  0  0  0
  -22.3515  -14.5508   20.6713 O   0  0  0  0  0  0
  -24.6285  -31.8587   23.1984 C   0  0  0  0  0  0
  -25.9121  -32.4777   23.8324 C   0  0  1  0  0  0
  -27.2126  -27.2725   20.1386 C   0  0  0  0  0  0
  -25.5929  -33.8574   24.2253 N   0  0  0  0  0  0
  -23.4264  -30.4773   21.5430 C   0  0  2  0  0  0
  -24.8744  -28.9309   20.1039 C   0  0  0  0  0  0
  -22.7507  -29.4578   22.4921 C   0  0  0  0  0  0
  -18.0296  -28.1406   22.8480 C   0  0  0  0  0  0
  -24.1503  -36.7307   23.2638 C   0  0  0  0  0  0
  -25.9696  -30.7753   21.3774 C   0  0  0  0  0  0
  -26.0431  -29.3975   20.7209 C   0  0  0  0  0  0
  -27.2173  -28.5801   20.7277 C   0  0  0  0  0  0
  -26.0379  -26.8864   19.4594 C   0  0  0  0  0  0
  -24.8756  -27.6827   19.4624 C   0  0  0  0  0  0
  -23.6434  -29.8149   20.1561 C   0  0  0  0  0  0
  -25.4125  -36.3084   24.0325 C   0  0  1  0  0  0
  -20.5906  -28.3690   23.1292 C   0  0  2  0  0  0
  -20.6798  -26.9407   22.5419 C   0  0  0  0  0  0
  -19.5769  -26.6376   21.5239 C   0  0  0  0  0  0
  -18.1936  -26.7953   22.1619 C   0  0  0  0  0  0
  -19.1550  -28.8866   23.2875 C   0  0  0  0  0  0
  -18.9467  -30.1478   23.8869 C   0  0  0  0  0  0
  -17.6463  -30.6596   24.0559 C   0  0  0  0  0  0
  -25.9058  -34.9456   23.5089 C   0  0  0  0  0  0
  -16.5352  -29.9088   23.6347 C   0  0  0  0  0  0
  -16.7281  -28.6520   23.0342 C   0  0  0  0  0  0
  -26.4481  -31.6610   25.0717 C   0  0  0  0  0  0
  -25.3676  -31.3795   26.1420 C   0  0  0  0  0  0
  -27.0350  -30.3034   24.6207 C   0  0  0  0  0  0
  -27.6015  -32.4367   25.7496 C   0  0  0  0  0  0
  -27.5585  -37.1807   24.8456 C   0  0  0  0  0  0
  -21.4212  -29.3047   22.3690 N   0  0  0  0  0  0
  -26.4296  -37.3782   23.9404 N   0  0  0  0  0  0
  -24.6936  -31.0563   22.0960 N   0  0  0  0  0  0
  -23.4222  -28.8095   23.2984 O   0  0  0  0  0  0
  -28.2961  -26.3687   20.1916 O   0  0  0  0  0  0
  -26.5631  -34.8933   22.4657 O   0  0  0  0  0  0
  -23.5432  -32.1386   23.7296 O   0  0  0  0  0  0
  -31.6622  -17.6444   20.9454 C   0  0  0  0  0  0
  -32.1364  -18.9658   20.8670 C   0  0  0  0  0  0
  -29.4433  -18.4442   20.3340 C   0  0  0  0  0  0
  -29.9182  -19.8301   20.2506 C   0  0  0  0  0  0
  -30.3225  -17.3143   20.6370 C   0  0  0  0  0  0
  -31.3027  -20.0300   20.4795 C   0  0  0  0  0  0
  -28.6196  -22.1720   22.0166 C   0  0  0  0  0  0
  -29.7062  -22.0490   22.7972 C   0  0  0  0  0  0
  -27.1882  -22.2870   22.4928 C   0  0  0  0  0  0
  -26.7672  -23.7545   22.6692 C   0  0  0  0  0  0
  -26.7731  -24.6295   21.3918 C   0  0  0  0  0  0
  -28.8294  -23.7291   19.9994 C   0  0  0  0  0  0
  -28.1763  -24.9823   20.8000 C   0  0  1  0  0  0
  -27.9854  -18.1477   20.0197 C   0  0  0  0  0  0
  -29.0867  -21.0847   19.7012 C   0  0  0  0  0  0
  -29.9096  -15.8825   20.6581 N   0  0  0  0  0  0
  -28.6291  -22.2973   20.5394 N   0  3  1  0  0  0
  -32.0460  -21.5716   20.2158 Cl  0  0  0  0  0  0
  -31.4723  -12.5453   19.1652 H   0  0  0  0  0  0
  -30.3660  -11.4646   19.9609 H   0  0  0  0  0  0
  -29.7865  -11.7205   17.5216 H   0  0  0  0  0  0
  -29.6481  -13.4516   17.7254 H   0  0  0  0  0  0
  -27.8831  -11.2847   18.9101 H   0  0  0  0  0  0
  -27.3819  -12.5309   17.7978 H   0  0  0  0  0  0
  -27.6379  -14.2546   19.4680 H   0  0  0  0  0  0
  -28.7239  -12.1810   21.4327 H   0  0  0  0  0  0
  -28.4369  -13.8680   21.7868 H   0  0  0  0  0  0
  -25.2754   -9.5697   22.4755 H   0  0  0  0  0  0
  -24.0007   -7.4631   22.7463 H   0  0  0  0  0  0
  -21.0849   -8.8746   19.8935 H   0  0  0  0  0  0
  -22.3671  -10.9664   19.6155 H   0  0  0  0  0  0
  -21.2003   -7.6141   23.9702 H   0  0  0  0  0  0
  -21.1487   -6.0519   25.9068 H   0  0  0  0  0  0
  -22.0602   -2.7604   23.2843 H   0  0  0  0  0  0
  -22.4109  -11.9850   22.4804 H   0  0  0  0  0  0
  -21.1080  -13.1185   22.2598 H   0  0  0  0  0  0
  -24.6453  -15.8397   20.4945 H   0  0  0  0  0  0
  -26.2483  -15.6157   20.0141 H   0  0  0  0  0  0
  -26.7180  -32.5439   23.1061 H   0  0  0  0  0  0
  -25.0063  -33.9695   25.0391 H   0  0  0  0  0  0
  -22.7212  -31.2982   21.3996 H   0  0  0  0  0  0
  -23.3755  -35.9650   23.3299 H   0  0  0  0  0  0
  -24.3587  -36.8940   22.2050 H   0  0  0  0  0  0
  -23.7263  -37.6504   23.6678 H   0  0  0  0  0  0
  -26.1067  -31.5374   20.6085 H   0  0  0  0  0  0
  -26.8486  -30.8244   22.0089 H   0  0  0  0  0  0
  -28.1099  -28.9281   21.2283 H   0  0  0  0  0  0
  -26.0032  -25.9346   18.9498 H   0  0  0  0  0  0
  -23.9840  -27.3245   18.9656 H   0  0  0  0  0  0
  -23.7643  -30.5949   19.4030 H   0  0  0  0  0  0
  -22.7623  -29.2465   19.8522 H   0  0  0  0  0  0
  -25.1302  -36.1922   25.0814 H   0  0  0  0  0  0
  -20.9990  -28.3269   24.1419 H   0  0  0  0  0  0
  -20.5780  -26.2267   23.3606 H   0  0  0  0  0  0
  -21.6650  -26.7487   22.1154 H   0  0  0  0  0  0
  -19.6929  -25.6286   21.1276 H   0  0  0  0  0  0
  -19.6732  -27.3185   20.6770 H   0  0  0  0  0  0
  -17.4222  -26.6729   21.3989 H   0  0  0  0  0  0
  -18.0272  -26.0112   22.9016 H   0  0  0  0  0  0
  -19.7939  -30.7319   24.2200 H   0  0  0  0  0  0
  -17.5013  -31.6274   24.5160 H   0  0  0  0  0  0
  -15.5354  -30.2967   23.7711 H   0  0  0  0  0  0
  -15.8682  -28.0850   22.7044 H   0  0  0  0  0  0
  -24.5842  -30.7161   25.7733 H   0  0  0  0  0  0
  -24.8868  -32.2989   26.4768 H   0  0  0  0  0  0
  -25.7937  -30.8999   27.0241 H   0  0  0  0  0  0
  -26.2965  -29.6762   24.1202 H   0  0  0  0  0  0
  -27.4010  -29.7295   25.4727 H   0  0  0  0  0  0
  -27.8837  -30.4315   23.9487 H   0  0  0  0  0  0
  -27.2609  -33.3688   26.2013 H   0  0  0  0  0  0
  -28.3853  -32.6903   25.0352 H   0  0  0  0  0  0
  -28.0662  -31.8542   26.5458 H   0  0  0  0  0  0
  -28.2570  -38.0132   24.7514 H   0  0  0  0  0  0
  -28.1110  -36.2650   24.6266 H   0  0  0  0  0  0
  -27.2300  -37.1433   25.8858 H   0  0  0  0  0  0
  -20.9388  -29.8787   21.6913 H   0  0  0  0  0  0
  -26.0176  -38.2855   24.1407 H   0  0  0  0  0  0
  -32.3763  -16.8842   21.2269 H   0  0  0  0  0  0
  -33.1809  -19.1598   21.0642 H   0  0  0  0  0  0
  -29.6063  -21.9907   23.8726 H   0  0  0  0  0  0
  -30.7071  -22.0134   22.4043 H   0  0  0  0  0  0
  -27.1012  -21.7572   23.4424 H   0  0  0  0  0  0
  -26.5074  -21.7785   21.8074 H   0  0  0  0  0  0
  -27.3832  -24.2299   23.4334 H   0  0  0  0  0  0
  -25.7563  -23.7581   23.0768 H   0  0  0  0  0  0
  -26.2756  -25.5398   21.7193 H   0  0  0  0  0  0
  -26.1296  -24.1974   20.6253 H   0  0  0  0  0  0
  -29.9004  -23.9108   19.9076 H   0  0  0  0  0  0
  -28.4420  -23.7412   18.9817 H   0  0  0  0  0  0
  -28.8149  -25.0942   21.6777 H   0  0  0  0  0  0
  -27.3253  -18.9271   20.3997 H   0  0  0  0  0  0
  -27.6591  -17.2169   20.4790 H   0  0  0  0  0  0
  -27.8421  -18.0631   18.9414 H   0  0  0  0  0  0
  -28.1793  -20.6922   19.2475 H   0  0  0  0  0  0
  -29.6349  -21.4749   18.8437 H   0  0  0  0  0  0
  -28.9207  -15.7211   20.7617 H   0  0  0  0  0  0
  -27.6471  -22.2114   20.3236 H   0  0  0  0  0  0
  1 25  1  0  0  0
  1 30  2  0  0  0
  1 86  1  0  0  0
  2  3  1  0  0  0
  2 25  1  0  0  0
  2 89  1  0  0  0
  2 90  1  0  0  0
  3  4  1  0  0  0
  3 91  1  0  0  0
  3 92  1  0  0  0
  4  5  1  0  0  0
  4 93  1  0  0  0
  4 94  1  0  0  0
  5  6  1  0  0  0
  5 26  1  0  0  0
  5 95  1  0  0  0
  6 25  1  0  0  0
  6 96  1  0  0  0
  6 97  1  0  0  0
  7  8  2  0  0  0
  7 26  1  0  0  0
  7 29  1  0  0  0
  8  9  1  0  0  0
  8 22  1  0  0  0
  9 10  1  0  0  0
  9 27  2  0  0  0
 10 11  2  0  0  0
 10 15  1  0  0  0
 11 12  1  0  0  0
 11 98  1  0  0  0
 12 13  2  0  0  0
 12 99  1  0  0  0
 13 14  1  0  0  0
 13 31  1  0  0  0
 14 15  2  0  0  0
 14100  1  0  0  0
 15101  1  0  0  0
 16 17  2  0  0  0
 16 21  1  0  0  0
 16 31  1  0  0  0
 17 18  1  0  0  0
 17102  1  0  0  0
 18 19  2  0  0  0
 18103  1  0  0  0
 19 20  1  0  0  0
 19 24  1  0  0  0
 20 21  2  0  0  0
 20104  1  0  0  0
 21 23  1  0  0  0
 22 28  1  0  0  0
 22 32  2  0  0  0
 26 27  1  0  0  0
 28105  1  0  0  0
 28106  1  0  0  0
 29107  1  0  0  0
 29108  1  0  0  0
 33 34  1  0  0  0
 33 66  1  0  0  0
 33 70  2  0  0  0
 34 36  1  0  0  0
 34 59  1  0  0  0
 34109  1  0  0  0
 35 44  2  0  0  0
 35 45  1  0  0  0
 35 68  1  0  0  0
 36 56  1  0  0  0
 36110  1  0  0  0
 37 39  1  0  0  0
 37 47  1  0  0  0
 37 66  1  0  0  0
 37111  1  0  0  0
 38 43  2  0  0  0
 38 46  1  0  0  0
 38 47  1  0  0  0
 39 64  1  0  0  0
 39 67  2  0  0  0
 40 52  1  0  0  0
 40 53  2  0  0  0
 40 58  1  0  0  0
 41112  1  0  0  0
 41113  1  0  0  0
 41114  1  0  0  0
 41 48  1  0  0  0
 42 43  1  0  0  0
 42 66  1  0  0  0
 42115  1  0  0  0
 42116  1  0  0  0
 43 44  1  0  0  0
 44117  1  0  0  0
 45 46  2  0  0  0
 45118  1  0  0  0
 46119  1  0  0  0
 47120  1  0  0  0
 47121  1  0  0  0
 48 56  1  0  0  0
 48 65  1  0  0  0
 48122  1  0  0  0
 49 50  1  0  0  0
 49 53  1  0  0  0
 49 64  1  0  0  0
 49123  1  0  0  0
 50 51  1  0  0  0
 50124  1  0  0  0
 50125  1  0  0  0
 51 52  1  0  0  0
 51126  1  0  0  0
 51127  1  0  0  0
 52128  1  0  0  0
 52129  1  0  0  0
 53 54  1  0  0  0
 54 55  2  0  0  0
 54130  1  0  0  0
 55 57  1  0  0  0
 55131  1  0  0  0
 56 69  2  0  0  0
 57 58  2  0  0  0
 57132  1  0  0  0
 58133  1  0  0  0
 59 60  1  0  0  0
 59 61  1  0  0  0
 59 62  1  0  0  0
 60134  1  0  0  0
 60135  1  0  0  0
 60136  1  0  0  0
 61137  1  0  0  0
 61138  1  0  0  0
 61139  1  0  0  0
 62140  1  0  0  0
 62141  1  0  0  0
 62142  1  0  0  0
 63 65  1  0  0  0
 63143  1  0  0  0
 63144  1  0  0  0
 63145  1  0  0  0
 64146  1  0  0  0
 65147  1  0  0  0
 68 83  1  0  0  0
 71 72  2  0  0  0
 71 75  1  0  0  0
 71148  1  0  0  0
 72 76  1  0  0  0
 72149  1  0  0  0
 73 74  1  0  0  0
 73 75  2  0  0  0
 73 84  1  0  0  0
 74 76  2  0  0  0
 74 85  1  0  0  0
 75 86  1  0  0  0
 76 88  1  0  0  0
 77 78  2  0  0  0
 77 79  1  0  0  0
 77 87  1  0  0  0
 78150  1  0  0  0
 78151  1  0  0  0
 79 80  1  0  0  0
 79152  1  0  0  0
 79153  1  0  0  0
 80 81  1  0  0  0
 80154  1  0  0  0
 80155  1  0  0  0
 81 83  1  0  0  0
 81156  1  0  0  0
 81157  1  0  0  0
 82 83  1  0  0  0
 82 87  1  0  0  0
 82158  1  0  0  0
 82159  1  0  0  0
 83160  1  0  0  0
 84161  1  0  0  0
 84162  1  0  0  0
 84163  1  0  0  0
 85164  1  0  0  0
 85165  1  0  0  0
 85 87  1  0  0  0
 86166  1  0  0  0
 87167  1  0  0  0
M  CHG  1  87   1
M  ISO  4   1 100  68 101  83 101  86 100
M  END
> <chiral flag>
0

> <version>
0

> <s_m_source_file>
/data/baiqing/PycharmProjects/Reinvent-master-3.2/result/LINK_invent/BTK/process_docking_weight1_custom_product_contain_oxygen_bond_distance_aromatic_linkinvent_7_9_3/rearranged_h_0041.sdf

> <i_m_source_file_index>
51

> <r_mmod_Potential_Energy-OPLS-2005>
116.996459960938

> <r_mmod_Stretch_Energy-OPLS-2005>
132.714950561523

> <r_mmod_Bend_Energy-OPLS-2005>
207.243606567383

> <r_mmod_Torsional_Energy-OPLS-2005>
270.289367675781

> <r_mmod_Improper_Torsional_Energy-OPLS-2005>
6.85506391525269

> <r_mmod_Van_der_Waal_Energy-OPLS-2005>
140.624481201172

> <r_mmod_Electrostatic_Energy-OPLS-2005>
-300.115692138672

> <r_mmod_Solvation_Energy-OPLS-2005>
-419.720886230469

> <b_mmod_Minimization_Converged-OPLS-2005>
0

> <r_mmod_RMS_Derivative-OPLS-2005>
2.35595750808716

$$$$
51
                    3D
 Structure written by MMmdl.
179188  0  0  1  0            999 V2000
  -30.7133  -14.5152   20.5211 C   0  0  0  0  0  0
  -30.4078  -12.3187   19.4501 C   0  0  0  0  0  0
  -29.4932  -12.4827   18.2194 C   0  0  0  0  0  0
  -28.0110  -12.3568   18.6252 C   0  0  0  0  0  0
  -27.6514  -13.2184   19.8668 C   0  0  2  0  0  0
  -28.6938  -13.0556   20.9972 C   0  0  0  0  0  0
  -25.2542  -13.8181   20.5693 C   0  0  0  0  0  0
  -24.1799  -13.0446   20.9207 C   0  0  0  0  0  0
  -24.6373  -11.6919   20.8740 C   0  0  0  0  0  0
  -23.9046  -10.4301   21.0412 C   0  0  0  0  0  0
  -24.3601   -9.4220   21.9186 C   0  0  0  0  0  0
  -23.6288   -8.2242   22.0745 C   0  0  0  0  0  0
  -22.4276   -8.0285   21.3541 C   0  0  0  0  0  0
  -21.9905   -9.0250   20.4639 C   0  0  0  0  0  0
  -22.7221  -10.2141   20.3055 C   0  0  0  0  0  0
  -21.6862   -6.0743   22.5275 C   0  0  0  0  0  0
  -21.4017   -6.5643   23.8214 C   0  0  0  0  0  0
  -21.3654   -5.6799   24.9178 C   0  0  0  0  0  0
  -21.6049   -4.3058   24.7236 C   0  0  0  0  0  0
  -21.8815   -3.8152   23.4348 C   0  0  0  0  0  0
  -21.9195   -4.6963   22.3415 C   0  0  0  0  0  0
  -22.7835  -13.5241   21.1873 C   0  0  0  0  0  0
  -22.1660   -4.2145   21.0994 F   0  0  0  0  0  0
  -21.5638   -3.4552   25.7748 F   0  0  0  0  0  0
  -30.0181  -13.3461   20.4316 N   0  0  0  0  0  0
  -26.2963  -12.9361   20.3334 N   0  0  0  0  0  0
  -25.9300  -11.6511   20.5768 N   0  0  0  0  0  0
  -22.0471  -12.8232   22.0422 N   0  0  0  0  0  0
  -25.4267  -15.1897   20.4114 N   0  0  0  0  0  0
  -31.8768  -14.5997   20.1259 O   0  0  0  0  0  0
  -21.6644   -6.8875   21.4236 O   0  0  0  0  0  0
  -22.3505  -14.5544   20.6717 O   0  0  0  0  0  0
  -24.6168  -31.8643   23.2037 C   0  0  0  0  0  0
  -25.9041  -32.4809   23.8341 C   0  0  1  0  0  0
  -27.2417  -27.4243   20.0931 C   0  0  0  0  0  0
  -25.5901  -33.8610   24.2293 N   0  0  0  0  0  0
  -23.4046  -30.4902   21.5424 C   0  0  2  0  0  0
  -24.8557  -28.9557   20.1072 C   0  0  0  0  0  0
  -22.7456  -29.4632   22.4928 C   0  0  0  0  0  0
  -18.0296  -28.1421   22.8472 C   0  0  0  0  0  0
  -24.1492  -36.7287   23.2634 C   0  0  0  0  0  0
  -25.9341  -30.8313   21.3550 C   0  0  0  0  0  0
  -26.0178  -29.4656   20.7032 C   0  0  0  0  0  0
  -27.2173  -28.7115   20.6847 C   0  0  0  0  0  0
  -26.0668  -26.9375   19.4844 C   0  0  0  0  0  0
  -24.8767  -27.6908   19.4926 C   0  0  0  0  0  0
  -23.6175  -29.8221   20.1579 C   0  0  0  0  0  0
  -25.4109  -36.3089   24.0331 C   0  0  1  0  0  0
  -20.5896  -28.3663   23.1322 C   0  0  2  0  0  0
  -20.6793  -26.9391   22.5441 C   0  0  0  0  0  0
  -19.5773  -26.6397   21.5241 C   0  0  0  0  0  0
  -18.1932  -26.7966   22.1600 C   0  0  0  0  0  0
  -19.1547  -28.8846   23.2896 C   0  0  0  0  0  0
  -18.9487  -30.1455   23.8896 C   0  0  0  0  0  0
  -17.6492  -30.6603   24.0568 C   0  0  0  0  0  0
  -25.9050  -34.9465   23.5109 C   0  0  0  0  0  0
  -16.5370  -29.9126   23.6323 C   0  0  0  0  0  0
  -16.7297  -28.6562   23.0307 C   0  0  0  0  0  0
  -26.4467  -31.6590   25.0676 C   0  0  0  0  0  0
  -25.3734  -31.3715   26.1429 C   0  0  0  0  0  0
  -27.0282  -30.3020   24.6031 C   0  0  0  0  0  0
  -27.6055  -32.4264   25.7472 C   0  0  0  0  0  0
  -27.5569  -37.1802   24.8472 C   0  0  0  0  0  0
  -21.4177  -29.3012   22.3685 N   0  0  0  0  0  0
  -26.4283  -37.3787   23.9421 N   0  0  0  0  0  0
  -24.6691  -31.0777   22.0909 N   0  0  0  0  0  0
  -23.4227  -28.8150   23.2936 O   0  0  0  0  0  0
  -28.3677  -26.6140   20.0893 O   0  0  0  0  0  0
  -26.5630  -34.8919   22.4679 O   0  0  0  0  0  0
  -23.5348  -32.1394   23.7410 O   0  0  0  0  0  0
  -29.4250  -19.3017   20.2871 C   0  0  0  0  0  0
  -29.3064  -20.6269   20.7821 C   0  0  0  0  0  0
  -30.5111  -18.6131   22.3335 C   0  0  0  0  0  0
  -30.0580  -18.2838   21.0429 C   0  0  0  0  0  0
  -29.8662  -20.9896   22.0291 C   0  0  0  0  0  0
  -30.4770  -19.9500   22.8015 C   0  0  0  0  0  0
  -27.5027  -23.4644   22.7383 C   0  0  0  0  0  0
  -26.5553  -15.9395   26.6719 C   0  0  0  0  0  0
  -26.8954  -22.5394   23.5130 C   0  0  0  0  0  0
  -27.2296  -17.0504   26.3412 C   0  0  0  0  0  0
  -27.4435  -21.3582   24.1288 C   0  0  0  0  0  0
  -26.5806  -18.2032   25.7632 C   0  0  0  0  0  0
  -26.6812  -20.3948   24.6619 C   0  0  0  0  0  0
  -27.2829  -19.2250   25.2536 C   0  0  0  0  0  0
  -26.7711  -24.7568   22.3816 C   0  0  0  0  0  0
  -27.7111  -25.9648   22.4587 C   0  0  0  0  0  0
  -29.1320  -24.4155   21.0211 C   0  0  0  0  0  0
  -28.7500  -25.9193   21.3109 C   0  0  1  0  0  0
  -31.2526  -20.2393   24.0791 C   0  0  0  0  0  0
  -30.5256  -16.9722   20.3777 C   0  0  0  0  0  0
  -29.9980  -22.4808   22.4675 C   0  0  0  0  0  0
  -30.0226  -15.6447   20.8188 N   0  0  0  0  0  0
  -28.9481  -23.5428   22.2387 N   0  3  2  0  0  0
  -31.4542  -12.3834   19.1522 H   0  0  0  0  0  0
  -30.2944  -11.3231   19.8811 H   0  0  0  0  0  0
  -29.7354  -11.7330   17.4643 H   0  0  0  0  0  0
  -29.6663  -13.4551   17.7558 H   0  0  0  0  0  0
  -27.8104  -11.3039   18.8280 H   0  0  0  0  0  0
  -27.3680  -12.6248   17.7844 H   0  0  0  0  0  0
  -27.6793  -14.2576   19.5373 H   0  0  0  0  0  0
  -28.6739  -12.0357   21.3859 H   0  0  0  0  0  0
  -28.4625  -13.7058   21.8411 H   0  0  0  0  0  0
  -25.2744   -9.5704   22.4764 H   0  0  0  0  0  0
  -24.0008   -7.4626   22.7466 H   0  0  0  0  0  0
  -21.0836   -8.8762   19.8942 H   0  0  0  0  0  0
  -22.3673  -10.9675   19.6160 H   0  0  0  0  0  0
  -21.2002   -7.6154   23.9717 H   0  0  0  0  0  0
  -21.1483   -6.0533   25.9080 H   0  0  0  0  0  0
  -22.0603   -2.7611   23.2869 H   0  0  0  0  0  0
  -22.4070  -11.9878   22.4789 H   0  0  0  0  0  0
  -21.1079  -13.1240   22.2615 H   0  0  0  0  0  0
  -24.6682  -15.8500   20.5382 H   0  0  0  0  0  0
  -26.2838  -15.6299   20.0978 H   0  0  0  0  0  0
  -26.7099  -32.5531   23.1088 H   0  0  0  0  0  0
  -25.0073  -33.9729   25.0451 H   0  0  0  0  0  0
  -22.6939  -31.3071   21.4043 H   0  0  0  0  0  0
  -23.3757  -35.9620   23.3299 H   0  0  0  0  0  0
  -24.3584  -36.8914   22.2047 H   0  0  0  0  0  0
  -23.7232  -37.6482   23.6669 H   0  0  0  0  0  0
  -26.0482  -31.5943   20.5823 H   0  0  0  0  0  0
  -26.8209  -30.8875   21.9721 H   0  0  0  0  0  0
  -28.1104  -29.1023   21.1516 H   0  0  0  0  0  0
  -26.0675  -25.9573   19.0279 H   0  0  0  0  0  0
  -23.9851  -27.2901   19.0275 H   0  0  0  0  0  0
  -23.7243  -30.5969   19.3998 H   0  0  0  0  0  0
  -22.7425  -29.2445   19.8533 H   0  0  0  0  0  0
  -25.1282  -36.1943   25.0829 H   0  0  0  0  0  0
  -20.9992  -28.3247   24.1431 H   0  0  0  0  0  0
  -20.5714  -26.2226   23.3608 H   0  0  0  0  0  0
  -21.6655  -26.7486   22.1189 H   0  0  0  0  0  0
  -19.6916  -25.6331   21.1213 H   0  0  0  0  0  0
  -19.6703  -27.3238   20.6801 H   0  0  0  0  0  0
  -17.4202  -26.6711   21.3998 H   0  0  0  0  0  0
  -18.0295  -26.0170   22.9034 H   0  0  0  0  0  0
  -19.7966  -30.7288   24.2224 H   0  0  0  0  0  0
  -17.5058  -31.6262   24.5194 H   0  0  0  0  0  0
  -15.5384  -30.3010   23.7680 H   0  0  0  0  0  0
  -15.8695  -28.0916   22.6961 H   0  0  0  0  0  0
  -24.5945  -30.6973   25.7804 H   0  0  0  0  0  0
  -24.8849  -32.2880   26.4793 H   0  0  0  0  0  0
  -25.8083  -30.8984   27.0235 H   0  0  0  0  0  0
  -26.2830  -29.6806   24.1015 H   0  0  0  0  0  0
  -27.4035  -29.7217   25.4476 H   0  0  0  0  0  0
  -27.8680  -30.4332   23.9181 H   0  0  0  0  0  0
  -27.2684  -33.3571   26.2026 H   0  0  0  0  0  0
  -28.3896  -32.6785   25.0332 H   0  0  0  0  0  0
  -28.0644  -31.8353   26.5413 H   0  0  0  0  0  0
  -28.2598  -38.0091   24.7561 H   0  0  0  0  0  0
  -28.1073  -36.2636   24.6281 H   0  0  0  0  0  0
  -27.2301  -37.1429   25.8879 H   0  0  0  0  0  0
  -20.9313  -29.8744   21.6939 H   0  0  0  0  0  0
  -26.0166  -38.2856   24.1472 H   0  0  0  0  0  0
  -29.1027  -19.0923   19.2782 H   0  0  0  0  0  0
  -28.8658  -21.3872   20.1527 H   0  0  0  0  0  0
  -31.0186  -17.8557   22.9167 H   0  0  0  0  0  0
  -27.0637  -15.0885   27.0971 H   0  0  0  0  0  0
  -25.4887  -15.8598   26.5156 H   0  0  0  0  0  0
  -25.8691  -22.7508   23.7783 H   0  0  0  0  0  0
  -28.2993  -17.0805   26.5186 H   0  0  0  0  0  0
  -28.5047  -21.2370   24.2080 H   0  0  0  0  0  0
  -25.4974  -18.2445   25.7447 H   0  0  0  0  0  0
  -25.6022  -20.4862   24.6406 H   0  0  0  0  0  0
  -28.3643  -19.1710   25.2753 H   0  0  0  0  0  0
  -25.9381  -24.9145   23.0669 H   0  0  0  0  0  0
  -26.3267  -24.6670   21.3902 H   0  0  0  0  0  0
  -28.2399  -25.9373   23.4126 H   0  0  0  0  0  0
  -27.1544  -26.8944   22.5148 H   0  0  0  0  0  0
  -30.1546  -24.3783   20.6423 H   0  0  0  0  0  0
  -28.5050  -24.0184   20.2251 H   0  0  0  0  0  0
  -29.6436  -26.4322   21.6721 H   0  0  0  0  0  0
  -31.8312  -19.3705   24.4022 H   0  0  0  0  0  0
  -30.5955  -20.5097   24.9023 H   0  0  0  0  0  0
  -31.9729  -21.0424   23.9163 H   0  0  0  0  0  0
  -31.6078  -16.9943   20.5366 H   0  0  0  0  0  0
  -30.4012  -17.0495   19.2947 H   0  0  0  0  0  0
  -30.9384  -22.8298   22.0415 H   0  0  0  0  0  0
  -30.1770  -22.5189   23.5387 H   0  0  0  0  0  0
  -29.0503  -15.5586   21.0714 H   0  0  0  0  0  0
  -29.3473  -24.1803   22.9127 H   0  0  0  0  0  0
  1 25  1  0  0  0
  1 30  2  0  0  0
  1 92  1  0  0  0
  2  3  1  0  0  0
  2 25  1  0  0  0
  2 94  1  0  0  0
  2 95  1  0  0  0
  3  4  1  0  0  0
  3 96  1  0  0  0
  3 97  1  0  0  0
  4  5  1  0  0  0
  4 98  1  0  0  0
  4 99  1  0  0  0
  5  6  1  0  0  0
  5 26  1  0  0  0
  5100  1  0  0  0
  6 25  1  0  0  0
  6101  1  0  0  0
  6102  1  0  0  0
  7  8  2  0  0  0
  7 26  1  0  0  0
  7 29  1  0  0  0
  8  9  1  0  0  0
  8 22  1  0  0  0
  9 10  1  0  0  0
  9 27  2  0  0  0
 10 11  2  0  0  0
 10 15  1  0  0  0
 11 12  1  0  0  0
 11103  1  0  0  0
 12 13  2  0  0  0
 12104  1  0  0  0
 13 14  1  0  0  0
 13 31  1  0  0  0
 14 15  2  0  0  0
 14105  1  0  0  0
 15106  1  0  0  0
 16 17  2  0  0  0
 16 21  1  0  0  0
 16 31  1  0  0  0
 17 18  1  0  0  0
 17107  1  0  0  0
 18 19  2  0  0  0
 18108  1  0  0  0
 19 20  1  0  0  0
 19 24  1  0  0  0
 20 21  2  0  0  0
 20109  1  0  0  0
 21 23  1  0  0  0
 22 28  1  0  0  0
 22 32  2  0  0  0
 26 27  1  0  0  0
 28110  1  0  0  0
 28111  1  0  0  0
 29112  1  0  0  0
 29113  1  0  0  0
 33 34  1  0  0  0
 33 66  1  0  0  0
 33 70  2  0  0  0
 34 36  1  0  0  0
 34 59  1  0  0  0
 34114  1  0  0  0
 35 44  2  0  0  0
 35 45  1  0  0  0
 35 68  1  0  0  0
 36 56  1  0  0  0
 36115  1  0  0  0
 37 39  1  0  0  0
 37 47  1  0  0  0
 37 66  1  0  0  0
 37116  1  0  0  0
 38 43  2  0  0  0
 38 46  1  0  0  0
 38 47  1  0  0  0
 39 64  1  0  0  0
 39 67  2  0  0  0
 40 52  1  0  0  0
 40 53  2  0  0  0
 40 58  1  0  0  0
 41117  1  0  0  0
 41118  1  0  0  0
 41119  1  0  0  0
 41 48  1  0  0  0
 42 43  1  0  0  0
 42 66  1  0  0  0
 42120  1  0  0  0
 42121  1  0  0  0
 43 44  1  0  0  0
 44122  1  0  0  0
 45 46  2  0  0  0
 45123  1  0  0  0
 46124  1  0  0  0
 47125  1  0  0  0
 47126  1  0  0  0
 48 56  1  0  0  0
 48 65  1  0  0  0
 48127  1  0  0  0
 49 50  1  0  0  0
 49 53  1  0  0  0
 49 64  1  0  0  0
 49128  1  0  0  0
 50 51  1  0  0  0
 50129  1  0  0  0
 50130  1  0  0  0
 51 52  1  0  0  0
 51131  1  0  0  0
 51132  1  0  0  0
 52133  1  0  0  0
 52134  1  0  0  0
 53 54  1  0  0  0
 54 55  2  0  0  0
 54135  1  0  0  0
 55 57  1  0  0  0
 55136  1  0  0  0
 56 69  2  0  0  0
 57 58  2  0  0  0
 57137  1  0  0  0
 58138  1  0  0  0
 59 60  1  0  0  0
 59 61  1  0  0  0
 59 62  1  0  0  0
 60139  1  0  0  0
 60140  1  0  0  0
 60141  1  0  0  0
 61142  1  0  0  0
 61143  1  0  0  0
 61144  1  0  0  0
 62145  1  0  0  0
 62146  1  0  0  0
 62147  1  0  0  0
 63 65  1  0  0  0
 63148  1  0  0  0
 63149  1  0  0  0
 63150  1  0  0  0
 64151  1  0  0  0
 65152  1  0  0  0
 68 88  1  0  0  0
 71 72  2  0  0  0
 71 74  1  0  0  0
 71153  1  0  0  0
 72 75  1  0  0  0
 72154  1  0  0  0
 73 74  2  0  0  0
 73 76  1  0  0  0
 73155  1  0  0  0
 74 90  1  0  0  0
 75 76  2  0  0  0
 75 91  1  0  0  0
 76 89  1  0  0  0
 77 79  2  0  0  0
 77 85  1  0  0  0
 77 93  1  0  0  0
 78 80  2  0  0  0
 78156  1  0  0  0
 78157  1  0  0  0
 79 81  1  0  0  0
 79158  1  0  0  0
 80 82  1  0  0  0
 80159  1  0  0  0
 81 83  2  0  0  0
 81160  1  0  0  0
 82 84  2  0  0  0
 82161  1  0  0  0
 83 84  1  0  0  0
 83162  1  0  0  0
 84163  1  0  0  0
 85 86  1  0  0  0
 85164  1  0  0  0
 85165  1  0  0  0
 86 88  1  0  0  0
 86166  1  0  0  0
 86167  1  0  0  0
 87 88  1  0  0  0
 87 93  1  0  0  0
 87168  1  0  0  0
 87169  1  0  0  0
 88170  1  0  0  0
 89171  1  0  0  0
 89172  1  0  0  0
 89173  1  0  0  0
 90 92  1  0  0  0
 90174  1  0  0  0
 90175  1  0  0  0
 91176  1  0  0  0
 91177  1  0  0  0
 91 93  1  0  0  0
 92178  1  0  0  0
 93179  1  0  0  0
M  CHG  1  93   1
M  ISO  4   1 100  68 101  88 101  92 100
M  END
> <chiral flag>
0

> <version>
0

> <s_m_source_file>
/data/baiqing/PycharmProjects/Reinvent-master-3.2/result/LINK_invent/BTK/process_docking_weight1_custom_product_contain_oxygen_bond_distance_aromatic_linkinvent_7_9_3/rearranged_h_0041.sdf

> <i_m_source_file_index>
52

> <r_mmod_Potential_Energy-OPLS-2005>
-4.79259920120239

> <r_mmod_Stretch_Energy-OPLS-2005>
58.8842658996582

> <r_mmod_Bend_Energy-OPLS-2005>
190.474151611328

> <r_mmod_Torsional_Energy-OPLS-2005>
278.303375244141

> <r_mmod_Improper_Torsional_Energy-OPLS-2005>
10.4432907104492

> <r_mmod_Van_der_Waal_Energy-OPLS-2005>
162.355377197266

> <r_mmod_Electrostatic_Energy-OPLS-2005>
-311.274780273438

> <r_mmod_Solvation_Energy-OPLS-2005>
-415.128295898438

> <b_mmod_Minimization_Converged-OPLS-2005>
0

> <r_mmod_RMS_Derivative-OPLS-2005>
5.29963874816895

$$$$
52
                    3D
 Structure written by MMmdl.
174183  0  0  1  0            999 V2000
  -30.6097  -14.6574   20.5427 C   0  0  0  0  0  0
  -30.4555  -12.4258   19.4283 C   0  0  0  0  0  0
  -29.4972  -12.5276   18.2182 C   0  0  0  0  0  0
  -28.0327  -12.3334   18.6447 C   0  0  0  0  0  0
  -27.6544  -13.2097   19.8665 C   0  0  2  0  0  0
  -28.7045  -13.0519   20.9934 C   0  0  0  0  0  0
  -25.2592  -13.8137   20.5683 C   0  0  0  0  0  0
  -24.1839  -13.0409   20.9248 C   0  0  0  0  0  0
  -24.6396  -11.6888   20.8790 C   0  0  0  0  0  0
  -23.9101  -10.4268   21.0426 C   0  0  0  0  0  0
  -24.3647   -9.4177   21.9204 C   0  0  0  0  0  0
  -23.6282   -8.2248   22.0785 C   0  0  0  0  0  0
  -22.4280   -8.0282   21.3558 C   0  0  0  0  0  0
  -21.9944   -9.0264   20.4671 C   0  0  0  0  0  0
  -22.7287  -10.2120   20.3074 C   0  0  0  0  0  0
  -21.6852   -6.0708   22.5276 C   0  0  0  0  0  0
  -21.4025   -6.5641   23.8184 C   0  0  0  0  0  0
  -21.3678   -5.6801   24.9168 C   0  0  0  0  0  0
  -21.6069   -4.3071   24.7222 C   0  0  0  0  0  0
  -21.8807   -3.8140   23.4340 C   0  0  0  0  0  0
  -21.9190   -4.6955   22.3393 C   0  0  0  0  0  0
  -22.7870  -13.5237   21.1820 C   0  0  0  0  0  0
  -22.1649   -4.2148   21.0964 F   0  0  0  0  0  0
  -21.5642   -3.4543   25.7732 F   0  0  0  0  0  0
  -30.0207  -13.4204   20.4345 N   0  0  0  0  0  0
  -26.2987  -12.9297   20.3330 N   0  0  0  0  0  0
  -25.9330  -11.6470   20.5769 N   0  0  0  0  0  0
  -22.0458  -12.8220   22.0344 N   0  0  0  0  0  0
  -25.4340  -15.1817   20.3983 N   0  0  0  0  0  0
  -31.7726  -14.8517   20.1683 O   0  0  0  0  0  0
  -21.6670   -6.8871   21.4232 O   0  0  0  0  0  0
  -22.3574  -14.5532   20.6638 O   0  0  0  0  0  0
  -24.6217  -31.8605   23.1979 C   0  0  0  0  0  0
  -25.9064  -32.4796   23.8328 C   0  0  1  0  0  0
  -27.2106  -27.3166   20.1228 C   0  0  0  0  0  0
  -25.5849  -33.8591   24.2247 N   0  0  0  0  0  0
  -23.4136  -30.4778   21.5462 C   0  0  2  0  0  0
  -24.8548  -28.9130   20.1364 C   0  0  0  0  0  0
  -22.7436  -29.4633   22.5013 C   0  0  0  0  0  0
  -18.0275  -28.1365   22.8501 C   0  0  0  0  0  0
  -24.1468  -36.7326   23.2643 C   0  0  0  0  0  0
  -25.9519  -30.7884   21.3622 C   0  0  0  0  0  0
  -26.0247  -29.4053   20.7287 C   0  0  0  0  0  0
  -27.2113  -28.6146   20.7136 C   0  0  0  0  0  0
  -26.0210  -26.8638   19.5212 C   0  0  0  0  0  0
  -24.8472  -27.6440   19.5366 C   0  0  0  0  0  0
  -23.6233  -29.7930   20.1707 C   0  0  0  0  0  0
  -25.4097  -36.3119   24.0332 C   0  0  1  0  0  0
  -20.5867  -28.3662   23.1307 C   0  0  2  0  0  0
  -20.6763  -26.9394   22.5422 C   0  0  0  0  0  0
  -19.5739  -26.6367   21.5226 C   0  0  0  0  0  0
  -18.1918  -26.7909   22.1636 C   0  0  0  0  0  0
  -19.1528  -28.8838   23.2893 C   0  0  0  0  0  0
  -18.9458  -30.1442   23.8905 C   0  0  0  0  0  0
  -17.6464  -30.6590   24.0561 C   0  0  0  0  0  0
  -25.9033  -34.9473   23.5118 C   0  0  0  0  0  0
  -16.5354  -29.9090   23.6333 C   0  0  0  0  0  0
  -16.7266  -28.6495   23.0380 C   0  0  0  0  0  0
  -26.4409  -31.6602   25.0697 C   0  0  0  0  0  0
  -25.3627  -31.3760   26.1427 C   0  0  0  0  0  0
  -27.0206  -30.3017   24.6119 C   0  0  0  0  0  0
  -27.5965  -32.4311   25.7492 C   0  0  0  0  0  0
  -27.5583  -37.1808   24.8462 C   0  0  0  0  0  0
  -21.4161  -29.3030   22.3735 N   0  0  0  0  0  0
  -26.4288  -37.3807   23.9416 N   0  0  0  0  0  0
  -24.6836  -31.0603   22.0932 N   0  0  0  0  0  0
  -23.4187  -28.8202   23.3090 O   0  0  0  0  0  0
  -28.3397  -26.5137   19.9754 O   0  0  0  0  0  0
  -26.5654  -34.8943   22.4712 O   0  0  0  0  0  0
  -23.5381  -32.1403   23.7309 O   0  0  0  0  0  0
  -28.5057  -17.7845   20.6255 C   0  0  0  0  0  0
  -30.8588  -18.0105   20.9071 C   0  0  0  0  0  0
  -28.3383  -19.2083   20.5837 C   0  0  0  0  0  0
  -30.7121  -19.4426   20.9105 C   0  0  0  0  0  0
  -29.4303  -20.1099   20.8109 C   0  0  0  0  0  0
  -29.7522  -17.1330   20.7983 C   0  0  0  0  0  0
  -27.9662  -24.0661   20.9187 C   0  0  0  0  0  0
  -25.2438  -22.5809   22.8654 C   0  0  0  0  0  0
  -26.7921  -23.9552   21.5796 C   0  0  0  0  0  0
  -25.9673  -22.7781   21.7498 C   0  0  0  0  0  0
  -30.9518  -25.1014   19.7312 C   0  0  0  0  0  0
  -30.9122  -23.6082   19.4140 C   0  0  0  0  0  0
  -30.2274  -25.4820   21.0300 C   0  0  0  0  0  0
  -29.5026  -23.0608   19.1123 C   0  0  0  0  0  0
  -28.6917  -25.4777   20.9526 C   0  0  1  0  0  0
  -26.9311  -19.7047   20.2873 C   0  0  0  0  0  0
  -32.0014  -20.2271   21.0739 C   0  0  0  0  0  0
  -29.2157  -21.6643   21.2148 C   0  0  0  0  0  0
  -29.7660  -15.6674   20.9374 N   0  0  0  0  0  0
  -28.6682  -22.7876   20.3048 N   0  3  1  0  0  0
  -31.4780  -12.6032   19.0927 H   0  0  0  0  0  0
  -30.4595  -11.4162   19.8422 H   0  0  0  0  0  0
  -29.7689  -11.8006   17.4522 H   0  0  0  0  0  0
  -29.6005  -13.5080   17.7513 H   0  0  0  0  0  0
  -27.8948  -11.2769   18.8888 H   0  0  0  0  0  0
  -27.3743  -12.5382   17.7994 H   0  0  0  0  0  0
  -27.6762  -14.2480   19.5342 H   0  0  0  0  0  0
  -28.7232  -12.0233   21.3565 H   0  0  0  0  0  0
  -28.4365  -13.6646   21.8563 H   0  0  0  0  0  0
  -25.2779   -9.5667   22.4787 H   0  0  0  0  0  0
  -23.9997   -7.4669   22.7533 H   0  0  0  0  0  0
  -21.0872   -8.8772   19.8964 H   0  0  0  0  0  0
  -22.3758  -10.9658   19.6178 H   0  0  0  0  0  0
  -21.2027   -7.6148   23.9701 H   0  0  0  0  0  0
  -21.1528   -6.0541   25.9075 H   0  0  0  0  0  0
  -22.0577   -2.7609   23.2844 H   0  0  0  0  0  0
  -22.4029  -11.9867   22.4733 H   0  0  0  0  0  0
  -21.1056  -13.1211   22.2426 H   0  0  0  0  0  0
  -24.6950  -15.8513   20.5853 H   0  0  0  0  0  0
  -26.2127  -15.5796   19.8880 H   0  0  0  0  0  0
  -26.7126  -32.5466   23.1082 H   0  0  0  0  0  0
  -24.9873  -33.9726   25.0310 H   0  0  0  0  0  0
  -22.7073  -31.2968   21.3948 H   0  0  0  0  0  0
  -23.3749  -35.9645   23.3283 H   0  0  0  0  0  0
  -24.3551  -36.8978   22.2066 H   0  0  0  0  0  0
  -23.7196  -37.6505   23.6680 H   0  0  0  0  0  0
  -26.0562  -31.5287   20.5682 H   0  0  0  0  0  0
  -26.8458  -30.8664   21.9701 H   0  0  0  0  0  0
  -28.1260  -28.9953   21.1455 H   0  0  0  0  0  0
  -25.9957  -25.9012   19.0320 H   0  0  0  0  0  0
  -23.9411  -27.2595   19.0904 H   0  0  0  0  0  0
  -23.7323  -30.5523   19.3952 H   0  0  0  0  0  0
  -22.7464  -29.2073   19.8896 H   0  0  0  0  0  0
  -25.1266  -36.1983   25.0824 H   0  0  0  0  0  0
  -20.9930  -28.3227   24.1440 H   0  0  0  0  0  0
  -20.5654  -26.2277   23.3623 H   0  0  0  0  0  0
  -21.6628  -26.7426   22.1228 H   0  0  0  0  0  0
  -19.6897  -25.6278   21.1260 H   0  0  0  0  0  0
  -19.6662  -27.3175   20.6753 H   0  0  0  0  0  0
  -17.4178  -26.6667   21.4044 H   0  0  0  0  0  0
  -18.0321  -26.0047   22.9017 H   0  0  0  0  0  0
  -19.7931  -30.7256   24.2279 H   0  0  0  0  0  0
  -17.5021  -31.6275   24.5145 H   0  0  0  0  0  0
  -15.5352  -30.3012   23.7638 H   0  0  0  0  0  0
  -15.8657  -28.0815   22.7115 H   0  0  0  0  0  0
  -24.5777  -30.7135   25.7747 H   0  0  0  0  0  0
  -24.8830  -32.2938   26.4846 H   0  0  0  0  0  0
  -25.7920  -30.8922   27.0216 H   0  0  0  0  0  0
  -26.2738  -29.6840   24.1106 H   0  0  0  0  0  0
  -27.3855  -29.7203   25.4599 H   0  0  0  0  0  0
  -27.8635  -30.4299   23.9327 H   0  0  0  0  0  0
  -27.2575  -33.3611   26.2083 H   0  0  0  0  0  0
  -28.3798  -32.6888   25.0345 H   0  0  0  0  0  0
  -28.0618  -31.8425   26.5422 H   0  0  0  0  0  0
  -28.2591  -38.0114   24.7553 H   0  0  0  0  0  0
  -28.1089  -36.2657   24.6235 H   0  0  0  0  0  0
  -27.2308  -37.1395   25.8864 H   0  0  0  0  0  0
  -20.9366  -29.8714   21.6904 H   0  0  0  0  0  0
  -26.0187  -38.2886   24.1427 H   0  0  0  0  0  0
  -27.6277  -17.1584   20.5404 H   0  0  0  0  0  0
  -31.8415  -17.5816   21.0494 H   0  0  0  0  0  0
  -24.6076  -21.7137   22.9813 H   0  0  0  0  0  0
  -25.2807  -23.2861   23.6870 H   0  0  0  0  0  0
  -26.3802  -24.8710   21.9840 H   0  0  0  0  0  0
  -25.8800  -22.0540   20.9580 H   0  0  0  0  0  0
  -30.5573  -25.6766   18.8932 H   0  0  0  0  0  0
  -31.9983  -25.4006   19.8174 H   0  0  0  0  0  0
  -31.4011  -23.0653   20.2169 H   0  0  0  0  0  0
  -31.5324  -23.4370   18.5334 H   0  0  0  0  0  0
  -30.5271  -26.5065   21.2645 H   0  0  0  0  0  0
  -30.5654  -24.8800   21.8710 H   0  0  0  0  0  0
  -29.5971  -22.1276   18.5606 H   0  0  0  0  0  0
  -28.9645  -23.7457   18.4527 H   0  0  0  0  0  0
  -28.3754  -25.9019   21.9070 H   0  0  0  0  0  0
  -26.4256  -18.9920   19.6332 H   0  0  0  0  0  0
  -26.9473  -20.6386   19.7304 H   0  0  0  0  0  0
  -26.3212  -19.8119   21.1864 H   0  0  0  0  0  0
  -32.8865  -19.6028   20.9186 H   0  0  0  0  0  0
  -32.0668  -20.6440   22.0800 H   0  0  0  0  0  0
  -32.0645  -21.0208   20.3298 H   0  0  0  0  0  0
  -30.1416  -22.0356   21.6440 H   0  0  0  0  0  0
  -28.5514  -21.6096   22.0747 H   0  0  0  0  0  0
  -28.8703  -15.2799   21.1890 H   0  0  0  0  0  0
  -27.9008  -22.3100   19.8598 H   0  0  0  0  0  0
  1 25  1  0  0  0
  1 30  2  0  0  0
  1 89  1  0  0  0
  2  3  1  0  0  0
  2 25  1  0  0  0
  2 91  1  0  0  0
  2 92  1  0  0  0
  3  4  1  0  0  0
  3 93  1  0  0  0
  3 94  1  0  0  0
  4  5  1  0  0  0
  4 95  1  0  0  0
  4 96  1  0  0  0
  5  6  1  0  0  0
  5 26  1  0  0  0
  5 97  1  0  0  0
  6 25  1  0  0  0
  6 98  1  0  0  0
  6 99  1  0  0  0
  7  8  2  0  0  0
  7 26  1  0  0  0
  7 29  1  0  0  0
  8  9  1  0  0  0
  8 22  1  0  0  0
  9 10  1  0  0  0
  9 27  2  0  0  0
 10 11  2  0  0  0
 10 15  1  0  0  0
 11 12  1  0  0  0
 11100  1  0  0  0
 12 13  2  0  0  0
 12101  1  0  0  0
 13 14  1  0  0  0
 13 31  1  0  0  0
 14 15  2  0  0  0
 14102  1  0  0  0
 15103  1  0  0  0
 16 17  2  0  0  0
 16 21  1  0  0  0
 16 31  1  0  0  0
 17 18  1  0  0  0
 17104  1  0  0  0
 18 19  2  0  0  0
 18105  1  0  0  0
 19 20  1  0  0  0
 19 24  1  0  0  0
 20 21  2  0  0  0
 20106  1  0  0  0
 21 23  1  0  0  0
 22 28  1  0  0  0
 22 32  2  0  0  0
 26 27  1  0  0  0
 28107  1  0  0  0
 28108  1  0  0  0
 29109  1  0  0  0
 29110  1  0  0  0
 33 34  1  0  0  0
 33 66  1  0  0  0
 33 70  2  0  0  0
 34 36  1  0  0  0
 34 59  1  0  0  0
 34111  1  0  0  0
 35 44  2  0  0  0
 35 45  1  0  0  0
 35 68  1  0  0  0
 36 56  1  0  0  0
 36112  1  0  0  0
 37 39  1  0  0  0
 37 47  1  0  0  0
 37 66  1  0  0  0
 37113  1  0  0  0
 38 43  2  0  0  0
 38 46  1  0  0  0
 38 47  1  0  0  0
 39 64  1  0  0  0
 39 67  2  0  0  0
 40 52  1  0  0  0
 40 53  2  0  0  0
 40 58  1  0  0  0
 41114  1  0  0  0
 41115  1  0  0  0
 41116  1  0  0  0
 41 48  1  0  0  0
 42 43  1  0  0  0
 42 66  1  0  0  0
 42117  1  0  0  0
 42118  1  0  0  0
 43 44  1  0  0  0
 44119  1  0  0  0
 45 46  2  0  0  0
 45120  1  0  0  0
 46121  1  0  0  0
 47122  1  0  0  0
 47123  1  0  0  0
 48 56  1  0  0  0
 48 65  1  0  0  0
 48124  1  0  0  0
 49 50  1  0  0  0
 49 53  1  0  0  0
 49 64  1  0  0  0
 49125  1  0  0  0
 50 51  1  0  0  0
 50126  1  0  0  0
 50127  1  0  0  0
 51 52  1  0  0  0
 51128  1  0  0  0
 51129  1  0  0  0
 52130  1  0  0  0
 52131  1  0  0  0
 53 54  1  0  0  0
 54 55  2  0  0  0
 54132  1  0  0  0
 55 57  1  0  0  0
 55133  1  0  0  0
 56 69  2  0  0  0
 57 58  2  0  0  0
 57134  1  0  0  0
 58135  1  0  0  0
 59 60  1  0  0  0
 59 61  1  0  0  0
 59 62  1  0  0  0
 60136  1  0  0  0
 60137  1  0  0  0
 60138  1  0  0  0
 61139  1  0  0  0
 61140  1  0  0  0
 61141  1  0  0  0
 62142  1  0  0  0
 62143  1  0  0  0
 62144  1  0  0  0
 63 65  1  0  0  0
 63145  1  0  0  0
 63146  1  0  0  0
 63147  1  0  0  0
 64148  1  0  0  0
 65149  1  0  0  0
 68 85  1  0  0  0
 71 73  2  0  0  0
 71 76  1  0  0  0
 71150  1  0  0  0
 72 74  1  0  0  0
 72 76  2  0  0  0
 72151  1  0  0  0
 73 75  1  0  0  0
 73 86  1  0  0  0
 74 75  2  0  0  0
 74 87  1  0  0  0
 75 88  1  0  0  0
 76 89  1  0  0  0
 77 79  2  0  0  0
 77 85  1  0  0  0
 77 90  1  0  0  0
 78 80  2  0  0  0
 78152  1  0  0  0
 78153  1  0  0  0
 79 80  1  0  0  0
 79154  1  0  0  0
 80155  1  0  0  0
 81 82  1  0  0  0
 81 83  1  0  0  0
 81156  1  0  0  0
 81157  1  0  0  0
 82 84  1  0  0  0
 82158  1  0  0  0
 82159  1  0  0  0
 83 85  1  0  0  0
 83160  1  0  0  0
 83161  1  0  0  0
 84 90  1  0  0  0
 84162  1  0  0  0
 84163  1  0  0  0
 85164  1  0  0  0
 86165  1  0  0  0
 86166  1  0  0  0
 86167  1  0  0  0
 87168  1  0  0  0
 87169  1  0  0  0
 87170  1  0  0  0
 88171  1  0  0  0
 88172  1  0  0  0
 88 90  1  0  0  0
 89173  1  0  0  0
 90174  1  0  0  0
M  CHG  1  90   1
M  ISO  4   1 100  68 101  85 101  89 100
M  END
> <chiral flag>
0

> <version>
0

> <s_m_source_file>
/data/baiqing/PycharmProjects/Reinvent-master-3.2/result/LINK_invent/BTK/process_docking_weight1_custom_product_contain_oxygen_bond_distance_aromatic_linkinvent_7_9_3/rearranged_h_0041.sdf

> <i_m_source_file_index>
53

> <r_mmod_Potential_Energy-OPLS-2005>
124.925331115723

> <r_mmod_Stretch_Energy-OPLS-2005>
112.340141296387

> <r_mmod_Bend_Energy-OPLS-2005>
230.503219604492

> <r_mmod_Torsional_Energy-OPLS-2005>
280.328460693359

> <r_mmod_Improper_Torsional_Energy-OPLS-2005>
7.67434358596802

> <r_mmod_Van_der_Waal_Energy-OPLS-2005>
122.993721008301

> <r_mmod_Electrostatic_Energy-OPLS-2005>
-264.787170410156

> <r_mmod_Solvation_Energy-OPLS-2005>
-412.876403808594

> <b_mmod_Minimization_Converged-OPLS-2005>
0

> <r_mmod_RMS_Derivative-OPLS-2005>
6.80788516998291

$$$$
53
                    3D
 Structure written by MMmdl.
157165  0  0  1  0            999 V2000
  -30.6334  -14.6744   20.4839 C   0  0  0  0  0  0
  -30.4368  -12.4129   19.4566 C   0  0  0  0  0  0
  -29.5053  -12.5023   18.2272 C   0  0  0  0  0  0
  -28.0304  -12.3365   18.6434 C   0  0  0  0  0  0
  -27.6484  -13.2214   19.8603 C   0  0  2  0  0  0
  -28.6989  -13.1079   20.9903 C   0  0  0  0  0  0
  -25.2451  -13.8063   20.5600 C   0  0  0  0  0  0
  -24.1773  -13.0352   20.9221 C   0  0  0  0  0  0
  -24.6393  -11.6850   20.8786 C   0  0  0  0  0  0
  -23.9071  -10.4244   21.0429 C   0  0  0  0  0  0
  -24.3620   -9.4163   21.9209 C   0  0  0  0  0  0
  -23.6278   -8.2210   22.0769 C   0  0  0  0  0  0
  -22.4268   -8.0263   21.3541 C   0  0  0  0  0  0
  -21.9909   -9.0244   20.4653 C   0  0  0  0  0  0
  -22.7248  -10.2115   20.3065 C   0  0  0  0  0  0
  -21.6851   -6.0726   22.5275 C   0  0  0  0  0  0
  -21.4006   -6.5632   23.8206 C   0  0  0  0  0  0
  -21.3651   -5.6786   24.9168 C   0  0  0  0  0  0
  -21.6046   -4.3051   24.7223 C   0  0  0  0  0  0
  -21.8820   -3.8142   23.4346 C   0  0  0  0  0  0
  -21.9187   -4.6954   22.3399 C   0  0  0  0  0  0
  -22.7795  -13.5158   21.1874 C   0  0  0  0  0  0
  -22.1660   -4.2142   21.0974 F   0  0  0  0  0  0
  -21.5633   -3.4536   25.7733 F   0  0  0  0  0  0
  -30.0117  -13.4512   20.4179 N   0  0  0  0  0  0
  -26.2957  -12.9322   20.3328 N   0  0  0  0  0  0
  -25.9340  -11.6474   20.5836 N   0  0  0  0  0  0
  -22.0440  -12.8170   22.0448 N   0  0  0  0  0  0
  -25.3917  -15.1731   20.3755 N   0  0  0  0  0  0
  -31.8063  -14.8058   20.1241 O   0  0  0  0  0  0
  -21.6621   -6.8873   21.4237 O   0  0  0  0  0  0
  -22.3485  -14.5469   20.6725 O   0  0  0  0  0  0
  -24.6264  -31.8599   23.2000 C   0  0  0  0  0  0
  -25.9127  -32.4761   23.8338 C   0  0  1  0  0  0
  -27.2325  -27.3203   20.1168 C   0  0  0  0  0  0
  -25.5959  -33.8555   24.2272 N   0  0  0  0  0  0
  -23.4190  -30.4803   21.5444 C   0  0  2  0  0  0
  -24.8670  -28.9335   20.1102 C   0  0  0  0  0  0
  -22.7487  -29.4615   22.4941 C   0  0  0  0  0  0
  -18.0292  -28.1358   22.8475 C   0  0  0  0  0  0
  -24.1504  -36.7279   23.2643 C   0  0  0  0  0  0
  -25.9597  -30.7896   21.3720 C   0  0  0  0  0  0
  -26.0360  -29.4177   20.7121 C   0  0  0  0  0  0
  -27.2202  -28.6240   20.7036 C   0  0  0  0  0  0
  -26.0392  -26.8865   19.4931 C   0  0  0  0  0  0
  -24.8705  -27.6730   19.4932 C   0  0  0  0  0  0
  -23.6333  -29.8110   20.1610 C   0  0  0  0  0  0
  -25.4120  -36.3058   24.0339 C   0  0  1  0  0  0
  -20.5889  -28.3664   23.1276 C   0  0  2  0  0  0
  -20.6769  -26.9378   22.5406 C   0  0  0  0  0  0
  -19.5742  -26.6354   21.5203 C   0  0  0  0  0  0
  -18.1918  -26.7892   22.1615 C   0  0  0  0  0  0
  -19.1540  -28.8832   23.2854 C   0  0  0  0  0  0
  -18.9473  -30.1443   23.8847 C   0  0  0  0  0  0
  -17.6472  -30.6554   24.0557 C   0  0  0  0  0  0
  -25.9070  -34.9429   23.5099 C   0  0  0  0  0  0
  -16.5364  -29.9053   23.6336 C   0  0  0  0  0  0
  -16.7279  -28.6483   23.0328 C   0  0  0  0  0  0
  -26.4504  -31.6567   25.0714 C   0  0  0  0  0  0
  -25.3734  -31.3714   26.1449 C   0  0  0  0  0  0
  -27.0376  -30.2998   24.6174 C   0  0  0  0  0  0
  -27.6050  -32.4325   25.7481 C   0  0  0  0  0  0
  -27.5573  -37.1788   24.8467 C   0  0  0  0  0  0
  -21.4207  -29.3023   22.3695 N   0  0  0  0  0  0
  -26.4288  -37.3755   23.9416 N   0  0  0  0  0  0
  -24.6868  -31.0604   22.0950 N   0  0  0  0  0  0
  -23.4221  -28.8164   23.3027 O   0  0  0  0  0  0
  -28.3640  -26.4889   20.1673 O   0  0  0  0  0  0
  -26.5624  -34.8913   22.4658 O   0  0  0  0  0  0
  -23.5439  -32.1418   23.7328 O   0  0  0  0  0  0
  -28.9384  -19.4844   20.8969 C   0  0  0  0  0  0
  -31.1853  -17.8958   20.3959 C   0  0  0  0  0  0
  -30.1451  -20.1735   20.6276 C   0  0  0  0  0  0
  -28.8531  -18.0579   20.9316 C   0  0  0  0  0  0
  -31.2773  -19.3258   20.3591 C   0  0  0  0  0  0
  -29.9792  -17.2116   20.6974 C   0  0  0  0  0  0
  -30.2522  -21.7177   20.7735 C   0  0  0  0  0  0
  -27.4971  -17.4459   21.2073 C   0  0  0  0  0  0
  -32.6435  -19.9135   20.0296 C   0  0  0  0  0  0
  -29.4219  -24.0977   20.4223 C   0  0  0  0  0  0
  -28.1900  -25.0226   20.0300 C   0  0  0  0  0  0
  -29.8256  -15.7467   20.7813 N   0  0  0  0  0  0
  -29.2904  -22.5878   20.3337 N   0  0  0  0  0  0
  -31.2635  -22.1793   21.3057 O   0  0  0  0  0  0
  -31.4777  -12.5329   19.1522 H   0  0  0  0  0  0
  -30.3737  -11.4260   19.9166 H   0  0  0  0  0  0
  -29.7733  -11.7376   17.4970 H   0  0  0  0  0  0
  -29.6407  -13.4626   17.7273 H   0  0  0  0  0  0
  -27.8777  -11.2858   18.8911 H   0  0  0  0  0  0
  -27.3717  -12.5467   17.7993 H   0  0  0  0  0  0
  -27.6548  -14.2518   19.5029 H   0  0  0  0  0  0
  -28.7220  -12.0954   21.3962 H   0  0  0  0  0  0
  -28.4432  -13.7602   21.8272 H   0  0  0  0  0  0
  -25.2769   -9.5629   22.4788 H   0  0  0  0  0  0
  -23.9979   -7.4597   22.7492 H   0  0  0  0  0  0
  -21.0842   -8.8768   19.8957 H   0  0  0  0  0  0
  -22.3723  -10.9659   19.6172 H   0  0  0  0  0  0
  -21.1993   -7.6142   23.9704 H   0  0  0  0  0  0
  -21.1477   -6.0520   25.9069 H   0  0  0  0  0  0
  -22.0609   -2.7606   23.2842 H   0  0  0  0  0  0
  -22.4033  -11.9828   22.4850 H   0  0  0  0  0  0
  -21.1069  -13.1221   22.2670 H   0  0  0  0  0  0
  -24.5972  -15.7998   20.4313 H   0  0  0  0  0  0
  -26.1924  -15.5907   19.9234 H   0  0  0  0  0  0
  -26.7208  -32.5428   23.1094 H   0  0  0  0  0  0
  -25.0116  -33.9695   25.0417 H   0  0  0  0  0  0
  -22.7118  -31.2985   21.3979 H   0  0  0  0  0  0
  -23.3753  -35.9623   23.3299 H   0  0  0  0  0  0
  -24.3590  -36.8907   22.2060 H   0  0  0  0  0  0
  -23.7266  -37.6483   23.6674 H   0  0  0  0  0  0
  -26.0952  -31.5558   20.6082 H   0  0  0  0  0  0
  -26.8386  -30.8339   22.0039 H   0  0  0  0  0  0
  -28.1153  -28.9903   21.1856 H   0  0  0  0  0  0
  -25.9812  -25.9229   19.0074 H   0  0  0  0  0  0
  -23.9733  -27.2936   19.0227 H   0  0  0  0  0  0
  -23.7451  -30.5851   19.4003 H   0  0  0  0  0  0
  -22.7548  -29.2364   19.8624 H   0  0  0  0  0  0
  -25.1282  -36.1908   25.0833 H   0  0  0  0  0  0
  -20.9965  -28.3251   24.1406 H   0  0  0  0  0  0
  -20.5670  -26.2283   23.3618 H   0  0  0  0  0  0
  -21.6638  -26.7409   22.1186 H   0  0  0  0  0  0
  -19.6917  -25.6271   21.1213 H   0  0  0  0  0  0
  -19.6665  -27.3194   20.6747 H   0  0  0  0  0  0
  -17.4189  -26.6662   21.4015 H   0  0  0  0  0  0
  -18.0308  -26.0024   22.9009 H   0  0  0  0  0  0
  -19.7967  -30.7259   24.2184 H   0  0  0  0  0  0
  -17.5036  -31.6230   24.5167 H   0  0  0  0  0  0
  -15.5358  -30.2929   23.7677 H   0  0  0  0  0  0
  -15.8691  -28.0799   22.7023 H   0  0  0  0  0  0
  -24.5890  -30.7086   25.7777 H   0  0  0  0  0  0
  -24.8940  -32.2897   26.4873 H   0  0  0  0  0  0
  -25.8049  -30.8884   27.0226 H   0  0  0  0  0  0
  -26.2970  -29.6721   24.1219 H   0  0  0  0  0  0
  -27.4117  -29.7280   25.4670 H   0  0  0  0  0  0
  -27.8811  -30.4289   23.9378 H   0  0  0  0  0  0
  -27.2640  -33.3632   26.2024 H   0  0  0  0  0  0
  -28.3864  -32.6890   25.0313 H   0  0  0  0  0  0
  -28.0732  -31.8491   26.5424 H   0  0  0  0  0  0
  -28.2567  -38.0102   24.7498 H   0  0  0  0  0  0
  -28.1085  -36.2620   24.6290 H   0  0  0  0  0  0
  -27.2293  -37.1429   25.8872 H   0  0  0  0  0  0
  -20.9418  -29.8748   21.6887 H   0  0  0  0  0  0
  -26.0166  -38.2833   24.1402 H   0  0  0  0  0  0
  -28.0531  -20.0665   21.1116 H   0  0  0  0  0  0
  -32.0754  -17.3156   20.1984 H   0  0  0  0  0  0
  -26.7903  -18.1736   21.6046 H   0  0  0  0  0  0
  -27.5564  -16.6228   21.9201 H   0  0  0  0  0  0
  -27.1019  -17.0821   20.2618 H   0  0  0  0  0  0
  -33.3214  -19.1582   19.6301 H   0  0  0  0  0  0
  -33.1089  -20.3282   20.9246 H   0  0  0  0  0  0
  -32.5599  -20.7035   19.2834 H   0  0  0  0  0  0
  -29.7131  -24.3544   21.4428 H   0  0  0  0  0  0
  -30.2667  -24.3891   19.7973 H   0  0  0  0  0  0
  -27.3442  -24.7160   20.6474 H   0  0  0  0  0  0
  -27.9183  -24.8068   18.9965 H   0  0  0  0  0  0
  -28.8980  -15.4508   21.0397 H   0  0  0  0  0  0
  -28.4707  -22.2005   19.8876 H   0  0  0  0  0  0
  1 25  1  0  0  0
  1 30  2  0  0  0
  1 82  1  0  0  0
  2  3  1  0  0  0
  2 25  1  0  0  0
  2 85  1  0  0  0
  2 86  1  0  0  0
  3  4  1  0  0  0
  3 87  1  0  0  0
  3 88  1  0  0  0
  4  5  1  0  0  0
  4 89  1  0  0  0
  4 90  1  0  0  0
  5  6  1  0  0  0
  5 26  1  0  0  0
  5 91  1  0  0  0
  6 25  1  0  0  0
  6 92  1  0  0  0
  6 93  1  0  0  0
  7  8  2  0  0  0
  7 26  1  0  0  0
  7 29  1  0  0  0
  8  9  1  0  0  0
  8 22  1  0  0  0
  9 10  1  0  0  0
  9 27  2  0  0  0
 10 11  2  0  0  0
 10 15  1  0  0  0
 11 12  1  0  0  0
 11 94  1  0  0  0
 12 13  2  0  0  0
 12 95  1  0  0  0
 13 14  1  0  0  0
 13 31  1  0  0  0
 14 15  2  0  0  0
 14 96  1  0  0  0
 15 97  1  0  0  0
 16 17  2  0  0  0
 16 21  1  0  0  0
 16 31  1  0  0  0
 17 18  1  0  0  0
 17 98  1  0  0  0
 18 19  2  0  0  0
 18 99  1  0  0  0
 19 20  1  0  0  0
 19 24  1  0  0  0
 20 21  2  0  0  0
 20100  1  0  0  0
 21 23  1  0  0  0
 22 28  1  0  0  0
 22 32  2  0  0  0
 26 27  1  0  0  0
 28101  1  0  0  0
 28102  1  0  0  0
 29103  1  0  0  0
 29104  1  0  0  0
 33 34  1  0  0  0
 33 66  1  0  0  0
 33 70  2  0  0  0
 34 36  1  0  0  0
 34 59  1  0  0  0
 34105  1  0  0  0
 35 44  2  0  0  0
 35 45  1  0  0  0
 35 68  1  0  0  0
 36 56  1  0  0  0
 36106  1  0  0  0
 37 39  1  0  0  0
 37 47  1  0  0  0
 37 66  1  0  0  0
 37107  1  0  0  0
 38 43  2  0  0  0
 38 46  1  0  0  0
 38 47  1  0  0  0
 39 64  1  0  0  0
 39 67  2  0  0  0
 40 52  1  0  0  0
 40 53  2  0  0  0
 40 58  1  0  0  0
 41108  1  0  0  0
 41109  1  0  0  0
 41110  1  0  0  0
 41 48  1  0  0  0
 42 43  1  0  0  0
 42 66  1  0  0  0
 42111  1  0  0  0
 42112  1  0  0  0
 43 44  1  0  0  0
 44113  1  0  0  0
 45 46  2  0  0  0
 45114  1  0  0  0
 46115  1  0  0  0
 47116  1  0  0  0
 47117  1  0  0  0
 48 56  1  0  0  0
 48 65  1  0  0  0
 48118  1  0  0  0
 49 50  1  0  0  0
 49 53  1  0  0  0
 49 64  1  0  0  0
 49119  1  0  0  0
 50 51  1  0  0  0
 50120  1  0  0  0
 50121  1  0  0  0
 51 52  1  0  0  0
 51122  1  0  0  0
 51123  1  0  0  0
 52124  1  0  0  0
 52125  1  0  0  0
 53 54  1  0  0  0
 54 55  2  0  0  0
 54126  1  0  0  0
 55 57  1  0  0  0
 55127  1  0  0  0
 56 69  2  0  0  0
 57 58  2  0  0  0
 57128  1  0  0  0
 58129  1  0  0  0
 59 60  1  0  0  0
 59 61  1  0  0  0
 59 62  1  0  0  0
 60130  1  0  0  0
 60131  1  0  0  0
 60132  1  0  0  0
 61133  1  0  0  0
 61134  1  0  0  0
 61135  1  0  0  0
 62136  1  0  0  0
 62137  1  0  0  0
 62138  1  0  0  0
 63 65  1  0  0  0
 63139  1  0  0  0
 63140  1  0  0  0
 63141  1  0  0  0
 64142  1  0  0  0
 65143  1  0  0  0
 68 81  1  0  0  0
 71 73  2  0  0  0
 71 74  1  0  0  0
 71144  1  0  0  0
 72 75  2  0  0  0
 72 76  1  0  0  0
 72145  1  0  0  0
 73 75  1  0  0  0
 73 77  1  0  0  0
 74 76  2  0  0  0
 74 78  1  0  0  0
 75 79  1  0  0  0
 76 82  1  0  0  0
 77 83  1  0  0  0
 77 84  2  0  0  0
 78146  1  0  0  0
 78147  1  0  0  0
 78148  1  0  0  0
 79149  1  0  0  0
 79150  1  0  0  0
 79151  1  0  0  0
 80 81  1  0  0  0
 80 83  1  0  0  0
 80152  1  0  0  0
 80153  1  0  0  0
 81154  1  0  0  0
 81155  1  0  0  0
 82156  1  0  0  0
 83157  1  0  0  0
M  ISO  4   1 100  68 101  81 101  82 100
M  END
> <chiral flag>
0

> <version>
0

> <s_m_source_file>
/data/baiqing/PycharmProjects/Reinvent-master-3.2/result/LINK_invent/BTK/process_docking_weight1_custom_product_contain_oxygen_bond_distance_aromatic_linkinvent_7_9_3/rearranged_h_0041.sdf

> <i_m_source_file_index>
54

> <r_mmod_Potential_Energy-OPLS-2005>
1.59554576873779

> <r_mmod_Stretch_Energy-OPLS-2005>
86.5090255737305

> <r_mmod_Bend_Energy-OPLS-2005>
143.084228515625

> <r_mmod_Torsional_Energy-OPLS-2005>
221.500640869141

> <r_mmod_Improper_Torsional_Energy-OPLS-2005>
5.64105176925659

> <r_mmod_Van_der_Waal_Energy-OPLS-2005>
151.186660766602

> <r_mmod_Electrostatic_Energy-OPLS-2005>
-427.311798095703

> <r_mmod_Solvation_Energy-OPLS-2005>
-233.035827636719

> <b_mmod_Minimization_Converged-OPLS-2005>
0

> <r_mmod_RMS_Derivative-OPLS-2005>
2.20994472503662

$$$$
54
                    3D
 Structure written by MMmdl.
156164  0  0  1  0            999 V2000
  -30.6476  -14.5482   20.5593 C   0  0  0  0  0  0
  -30.4373  -12.3517   19.4296 C   0  0  0  0  0  0
  -29.5022  -12.5082   18.2110 C   0  0  0  0  0  0
  -28.0252  -12.3488   18.6259 C   0  0  0  0  0  0
  -27.6580  -13.2033   19.8681 C   0  0  2  0  0  0
  -28.7009  -13.0084   20.9919 C   0  0  0  0  0  0
  -25.2590  -13.8143   20.5668 C   0  0  0  0  0  0
  -24.1848  -13.0429   20.9188 C   0  0  0  0  0  0
  -24.6392  -11.6894   20.8744 C   0  0  0  0  0  0
  -23.9046  -10.4291   21.0406 C   0  0  0  0  0  0
  -24.3602   -9.4207   21.9180 C   0  0  0  0  0  0
  -23.6283   -8.2240   22.0751 C   0  0  0  0  0  0
  -22.4267   -8.0274   21.3541 C   0  0  0  0  0  0
  -21.9893   -9.0250   20.4649 C   0  0  0  0  0  0
  -22.7216  -10.2131   20.3054 C   0  0  0  0  0  0
  -21.6850   -6.0731   22.5276 C   0  0  0  0  0  0
  -21.4018   -6.5636   23.8211 C   0  0  0  0  0  0
  -21.3661   -5.6789   24.9173 C   0  0  0  0  0  0
  -21.6040   -4.3052   24.7223 C   0  0  0  0  0  0
  -21.8820   -3.8142   23.4346 C   0  0  0  0  0  0
  -21.9198   -4.6960   22.3401 C   0  0  0  0  0  0
  -22.7870  -13.5236   21.1861 C   0  0  0  0  0  0
  -22.1665   -4.2146   21.0976 F   0  0  0  0  0  0
  -21.5631   -3.4537   25.7736 F   0  0  0  0  0  0
  -30.0218  -13.3430   20.4348 N   0  0  0  0  0  0
  -26.3011  -12.9300   20.3324 N   0  0  0  0  0  0
  -25.9318  -11.6471   20.5758 N   0  0  0  0  0  0
  -22.0493  -12.8247   22.0413 N   0  0  0  0  0  0
  -25.4303  -15.1858   20.4044 N   0  0  0  0  0  0
  -31.8011  -14.7417   20.1636 O   0  0  0  0  0  0
  -21.6637   -6.8871   21.4235 O   0  0  0  0  0  0
  -22.3570  -14.5541   20.6699 O   0  0  0  0  0  0
  -24.6173  -31.8649   23.2052 C   0  0  0  0  0  0
  -25.9048  -32.4812   23.8362 C   0  0  1  0  0  0
  -27.2366  -27.3958   20.1145 C   0  0  0  0  0  0
  -25.5901  -33.8609   24.2301 N   0  0  0  0  0  0
  -23.4060  -30.4860   21.5472 C   0  0  2  0  0  0
  -24.8540  -28.9386   20.1192 C   0  0  0  0  0  0
  -22.7425  -29.4643   22.4991 C   0  0  0  0  0  0
  -18.0274  -28.1374   22.8495 C   0  0  0  0  0  0
  -24.1486  -36.7300   23.2640 C   0  0  0  0  0  0
  -25.9369  -30.8199   21.3604 C   0  0  0  0  0  0
  -26.0155  -29.4491   20.7115 C   0  0  0  0  0  0
  -27.2115  -28.6891   20.6964 C   0  0  0  0  0  0
  -26.0560  -26.8997   19.5239 C   0  0  0  0  0  0
  -24.8710  -27.6647   19.5215 C   0  0  0  0  0  0
  -23.6162  -29.8109   20.1645 C   0  0  0  0  0  0
  -25.4111  -36.3106   24.0334 C   0  0  1  0  0  0
  -20.5864  -28.3656   23.1324 C   0  0  2  0  0  0
  -20.6766  -26.9392   22.5424 C   0  0  0  0  0  0
  -19.5748  -26.6379   21.5220 C   0  0  0  0  0  0
  -18.1925  -26.7919   22.1626 C   0  0  0  0  0  0
  -19.1526  -28.8833   23.2903 C   0  0  0  0  0  0
  -18.9456  -30.1441   23.8910 C   0  0  0  0  0  0
  -17.6460  -30.6584   24.0564 C   0  0  0  0  0  0
  -25.9044  -34.9471   23.5120 C   0  0  0  0  0  0
  -16.5347  -29.9087   23.6333 C   0  0  0  0  0  0
  -16.7264  -28.6501   23.0355 C   0  0  0  0  0  0
  -26.4464  -31.6605   25.0707 C   0  0  0  0  0  0
  -25.3737  -31.3722   26.1470 C   0  0  0  0  0  0
  -27.0294  -30.3055   24.6086 C   0  0  0  0  0  0
  -27.6039  -32.4331   25.7465 C   0  0  0  0  0  0
  -27.5580  -37.1803   24.8463 C   0  0  0  0  0  0
  -21.4147  -29.3023   22.3731 N   0  0  0  0  0  0
  -26.4288  -37.3804   23.9416 N   0  0  0  0  0  0
  -24.6719  -31.0730   22.0959 N   0  0  0  0  0  0
  -23.4185  -28.8196   23.3046 O   0  0  0  0  0  0
  -28.4063  -26.6549   20.0860 O   0  0  0  0  0  0
  -26.5612  -34.8927   22.4685 O   0  0  0  0  0  0
  -23.5357  -32.1402   23.7434 O   0  0  0  0  0  0
  -30.6219  -19.5553   22.2489 C   0  0  0  0  0  0
  -30.8393  -18.4531   23.0983 C   0  0  0  0  0  0
  -29.9237  -18.0274   20.4827 C   0  0  0  0  0  0
  -30.1555  -19.3655   20.9301 C   0  0  0  0  0  0
  -30.1662  -16.9031   21.3303 C   0  0  0  0  0  0
  -30.6127  -17.1363   22.6531 C   0  0  0  0  0  0
  -30.0479  -20.5919   19.9883 C   0  0  0  0  0  0
  -28.3108  -24.1245   19.6834 C   0  0  0  0  0  0
  -29.4374  -23.0216   19.7357 C   0  0  0  0  0  0
  -28.3994  -25.3292   20.6780 C   0  0  0  0  0  0
  -29.8310  -15.5657   20.9280 N   0  0  0  0  0  0
  -29.1160  -21.7013   20.3818 N   0  3  0  0  0  0
  -30.8542  -15.8290   23.7610 Cl  0  0  0  0  0  0
  -31.4777  -12.4819   19.1268 H   0  0  0  0  0  0
  -30.3665  -11.3444   19.8427 H   0  0  0  0  0  0
  -29.7550  -11.7731   17.4459 H   0  0  0  0  0  0
  -29.6532  -13.4873   17.7529 H   0  0  0  0  0  0
  -27.8580  -11.2932   18.8434 H   0  0  0  0  0  0
  -27.3682  -12.5948   17.7910 H   0  0  0  0  0  0
  -27.6893  -14.2462   19.5521 H   0  0  0  0  0  0
  -28.6988  -11.9736   21.3381 H   0  0  0  0  0  0
  -28.4537  -13.6114   21.8675 H   0  0  0  0  0  0
  -25.2747   -9.5700   22.4755 H   0  0  0  0  0  0
  -24.0004   -7.4632   22.7464 H   0  0  0  0  0  0
  -21.0821   -8.8761   19.8951 H   0  0  0  0  0  0
  -22.3661  -10.9673   19.6170 H   0  0  0  0  0  0
  -21.2001   -7.6143   23.9716 H   0  0  0  0  0  0
  -21.1485   -6.0515   25.9077 H   0  0  0  0  0  0
  -22.0596   -2.7601   23.2842 H   0  0  0  0  0  0
  -22.4104  -11.9917   22.4824 H   0  0  0  0  0  0
  -21.1110  -13.1290   22.2606 H   0  0  0  0  0  0
  -24.6563  -15.8347   20.4999 H   0  0  0  0  0  0
  -26.2711  -15.6228   20.0501 H   0  0  0  0  0  0
  -26.7110  -32.5524   23.1114 H   0  0  0  0  0  0
  -25.0066  -33.9760   25.0457 H   0  0  0  0  0  0
  -22.6954  -31.3034   21.4055 H   0  0  0  0  0  0
  -23.3753  -35.9631   23.3321 H   0  0  0  0  0  0
  -24.3573  -36.8899   22.2051 H   0  0  0  0  0  0
  -23.7225  -37.6502   23.6644 H   0  0  0  0  0  0
  -26.0501  -31.5824   20.5885 H   0  0  0  0  0  0
  -26.8230  -30.8749   21.9808 H   0  0  0  0  0  0
  -28.1115  -29.0843   21.1451 H   0  0  0  0  0  0
  -26.0525  -25.9247   19.0563 H   0  0  0  0  0  0
  -23.9774  -27.2648   19.0633 H   0  0  0  0  0  0
  -23.7244  -30.5828   19.4021 H   0  0  0  0  0  0
  -22.7385  -29.2328   19.8693 H   0  0  0  0  0  0
  -25.1287  -36.1967   25.0825 H   0  0  0  0  0  0
  -20.9952  -28.3220   24.1443 H   0  0  0  0  0  0
  -20.5683  -26.2260   23.3608 H   0  0  0  0  0  0
  -21.6640  -26.7445   22.1214 H   0  0  0  0  0  0
  -19.6916  -25.6296   21.1237 H   0  0  0  0  0  0
  -19.6695  -27.3206   20.6765 H   0  0  0  0  0  0
  -17.4202  -26.6675   21.4019 H   0  0  0  0  0  0
  -18.0317  -26.0051   22.9010 H   0  0  0  0  0  0
  -19.7936  -30.7250   24.2284 H   0  0  0  0  0  0
  -17.5022  -31.6271   24.5152 H   0  0  0  0  0  0
  -15.5353  -30.2998   23.7649 H   0  0  0  0  0  0
  -15.8660  -28.0827   22.7066 H   0  0  0  0  0  0
  -24.5865  -30.7125   25.7805 H   0  0  0  0  0  0
  -24.8986  -32.2892   26.4977 H   0  0  0  0  0  0
  -25.8086  -30.8836   27.0198 H   0  0  0  0  0  0
  -26.2831  -29.6827   24.1138 H   0  0  0  0  0  0
  -27.4064  -29.7281   25.4538 H   0  0  0  0  0  0
  -27.8671  -30.4383   23.9233 H   0  0  0  0  0  0
  -27.2643  -33.3605   26.2094 H   0  0  0  0  0  0
  -28.3808  -32.6948   25.0270 H   0  0  0  0  0  0
  -28.0756  -31.8438   26.5337 H   0  0  0  0  0  0
  -28.2604  -38.0098   24.7529 H   0  0  0  0  0  0
  -28.1066  -36.2631   24.6266 H   0  0  0  0  0  0
  -27.2299  -37.1422   25.8866 H   0  0  0  0  0  0
  -20.9309  -29.8729   21.6939 H   0  0  0  0  0  0
  -26.0177  -38.2881   24.1436 H   0  0  0  0  0  0
  -30.8378  -20.5482   22.6185 H   0  0  0  0  0  0
  -31.1863  -18.6210   24.1078 H   0  0  0  0  0  0
  -29.5740  -17.8563   19.4745 H   0  0  0  0  0  0
  -29.7903  -20.2573   18.9829 H   0  0  0  0  0  0
  -31.0565  -21.0017   19.9105 H   0  0  0  0  0  0
  -27.3225  -23.6677   19.7321 H   0  0  0  0  0  0
  -28.3561  -24.5620   18.6853 H   0  0  0  0  0  0
  -30.3526  -23.4253   20.1702 H   0  0  0  0  0  0
  -29.6926  -22.7952   18.6986 H   0  0  0  0  0  0
  -29.3289  -25.2535   21.2422 H   0  0  0  0  0  0
  -27.6081  -25.2487   21.4259 H   0  0  0  0  0  0
  -28.8873  -15.2788   21.1347 H   0  0  0  0  0  0
  -29.1410  -21.8133   21.3811 H   0  0  0  0  0  0
  -28.1846  -21.4164   20.1287 H   0  0  0  0  0  0
  1 25  1  0  0  0
  1 30  2  0  0  0
  1 81  1  0  0  0
  2  3  1  0  0  0
  2 25  1  0  0  0
  2 84  1  0  0  0
  2 85  1  0  0  0
  3  4  1  0  0  0
  3 86  1  0  0  0
  3 87  1  0  0  0
  4  5  1  0  0  0
  4 88  1  0  0  0
  4 89  1  0  0  0
  5  6  1  0  0  0
  5 26  1  0  0  0
  5 90  1  0  0  0
  6 25  1  0  0  0
  6 91  1  0  0  0
  6 92  1  0  0  0
  7  8  2  0  0  0
  7 26  1  0  0  0
  7 29  1  0  0  0
  8  9  1  0  0  0
  8 22  1  0  0  0
  9 10  1  0  0  0
  9 27  2  0  0  0
 10 11  2  0  0  0
 10 15  1  0  0  0
 11 12  1  0  0  0
 11 93  1  0  0  0
 12 13  2  0  0  0
 12 94  1  0  0  0
 13 14  1  0  0  0
 13 31  1  0  0  0
 14 15  2  0  0  0
 14 95  1  0  0  0
 15 96  1  0  0  0
 16 17  2  0  0  0
 16 21  1  0  0  0
 16 31  1  0  0  0
 17 18  1  0  0  0
 17 97  1  0  0  0
 18 19  2  0  0  0
 18 98  1  0  0  0
 19 20  1  0  0  0
 19 24  1  0  0  0
 20 21  2  0  0  0
 20 99  1  0  0  0
 21 23  1  0  0  0
 22 28  1  0  0  0
 22 32  2  0  0  0
 26 27  1  0  0  0
 28100  1  0  0  0
 28101  1  0  0  0
 29102  1  0  0  0
 29103  1  0  0  0
 33 34  1  0  0  0
 33 66  1  0  0  0
 33 70  2  0  0  0
 34 36  1  0  0  0
 34 59  1  0  0  0
 34104  1  0  0  0
 35 44  2  0  0  0
 35 45  1  0  0  0
 35 68  1  0  0  0
 36 56  1  0  0  0
 36105  1  0  0  0
 37 39  1  0  0  0
 37 47  1  0  0  0
 37 66  1  0  0  0
 37106  1  0  0  0
 38 43  2  0  0  0
 38 46  1  0  0  0
 38 47  1  0  0  0
 39 64  1  0  0  0
 39 67  2  0  0  0
 40 52  1  0  0  0
 40 53  2  0  0  0
 40 58  1  0  0  0
 41107  1  0  0  0
 41108  1  0  0  0
 41109  1  0  0  0
 41 48  1  0  0  0
 42 43  1  0  0  0
 42 66  1  0  0  0
 42110  1  0  0  0
 42111  1  0  0  0
 43 44  1  0  0  0
 44112  1  0  0  0
 45 46  2  0  0  0
 45113  1  0  0  0
 46114  1  0  0  0
 47115  1  0  0  0
 47116  1  0  0  0
 48 56  1  0  0  0
 48 65  1  0  0  0
 48117  1  0  0  0
 49 50  1  0  0  0
 49 53  1  0  0  0
 49 64  1  0  0  0
 49118  1  0  0  0
 50 51  1  0  0  0
 50119  1  0  0  0
 50120  1  0  0  0
 51 52  1  0  0  0
 51121  1  0  0  0
 51122  1  0  0  0
 52123  1  0  0  0
 52124  1  0  0  0
 53 54  1  0  0  0
 54 55  2  0  0  0
 54125  1  0  0  0
 55 57  1  0  0  0
 55126  1  0  0  0
 56 69  2  0  0  0
 57 58  2  0  0  0
 57127  1  0  0  0
 58128  1  0  0  0
 59 60  1  0  0  0
 59 61  1  0  0  0
 59 62  1  0  0  0
 60129  1  0  0  0
 60130  1  0  0  0
 60131  1  0  0  0
 61132  1  0  0  0
 61133  1  0  0  0
 61134  1  0  0  0
 62135  1  0  0  0
 62136  1  0  0  0
 62137  1  0  0  0
 63 65  1  0  0  0
 63138  1  0  0  0
 63139  1  0  0  0
 63140  1  0  0  0
 64141  1  0  0  0
 65142  1  0  0  0
 68 80  1  0  0  0
 71 72  2  0  0  0
 71 74  1  0  0  0
 71143  1  0  0  0
 72 76  1  0  0  0
 72144  1  0  0  0
 73 74  2  0  0  0
 73 75  1  0  0  0
 73145  1  0  0  0
 74 77  1  0  0  0
 75 76  2  0  0  0
 75 81  1  0  0  0
 76 83  1  0  0  0
 77 82  1  0  0  0
 77146  1  0  0  0
 77147  1  0  0  0
 78 79  1  0  0  0
 78 80  1  0  0  0
 78148  1  0  0  0
 78149  1  0  0  0
 79 82  1  0  0  0
 79150  1  0  0  0
 79151  1  0  0  0
 80152  1  0  0  0
 80153  1  0  0  0
 81154  1  0  0  0
 82155  1  0  0  0
 82156  1  0  0  0
M  CHG  1  82   1
M  ISO  4   1 100  68 101  80 101  81 100
M  END
> <chiral flag>
0

> <version>
0

> <s_m_source_file>
/data/baiqing/PycharmProjects/Reinvent-master-3.2/result/LINK_invent/BTK/process_docking_weight1_custom_product_contain_oxygen_bond_distance_aromatic_linkinvent_7_9_3/rearranged_h_0041.sdf

> <i_m_source_file_index>
55

> <r_mmod_Potential_Energy-OPLS-2005>
-203.394866943359

> <r_mmod_Stretch_Energy-OPLS-2005>
49.9570770263672

> <r_mmod_Bend_Energy-OPLS-2005>
112.029747009277

> <r_mmod_Torsional_Energy-OPLS-2005>
273.438507080078

> <r_mmod_Improper_Torsional_Energy-OPLS-2005>
6.74059867858887

> <r_mmod_Van_der_Waal_Energy-OPLS-2005>
139.681488037109

> <r_mmod_Electrostatic_Energy-OPLS-2005>
-311.040222167969

> <r_mmod_Solvation_Energy-OPLS-2005>
-496.1162109375

> <b_mmod_Minimization_Converged-OPLS-2005>
0

> <r_mmod_RMS_Derivative-OPLS-2005>
1.60581076145172

$$$$
55
                    3D
 Structure written by MMmdl.
164173  0  0  1  0            999 V2000
  -29.8897  -16.8163   20.2549 C   0  0  0  0  0  0
  -30.2621  -14.0032   19.4856 C   0  0  0  0  0  0
  -29.5635  -13.0425   18.4232 C   0  0  0  0  0  0
  -28.2659  -12.4243   18.9394 C   0  0  0  0  0  0
  -27.5732  -13.4686   19.8216 C   0  0  2  0  0  0
  -28.4954  -14.2792   20.8277 C   0  0  0  0  0  0
  -25.2136  -13.8559   20.6002 C   0  0  0  0  0  0
  -24.1680  -13.0488   20.9374 C   0  0  0  0  0  0
  -24.6600  -11.7076   20.8741 C   0  0  0  0  0  0
  -23.9305  -10.4347   21.0314 C   0  0  0  0  0  0
  -24.3769   -9.4249   21.9126 C   0  0  0  0  0  0
  -23.6387   -8.2304   22.0734 C   0  0  0  0  0  0
  -22.4357   -8.0340   21.3540 C   0  0  0  0  0  0
  -22.0044   -9.0320   20.4622 C   0  0  0  0  0  0
  -22.7433  -10.2173   20.3001 C   0  0  0  0  0  0
  -21.6885   -6.0775   22.5277 C   0  0  0  0  0  0
  -21.4032   -6.5662   23.8215 C   0  0  0  0  0  0
  -21.3670   -5.6805   24.9171 C   0  0  0  0  0  0
  -21.6046   -4.3068   24.7215 C   0  0  0  0  0  0
  -21.8814   -3.8169   23.4332 C   0  0  0  0  0  0
  -21.9203   -4.6996   22.3395 C   0  0  0  0  0  0
  -22.7637  -13.5065   21.1961 C   0  0  0  0  0  0
  -22.1666   -4.2182   21.0971 F   0  0  0  0  0  0
  -21.5630   -3.4546   25.7722 F   0  0  0  0  0  0
  -29.4304  -15.2690   20.0828 N   0  0  0  0  0  0
  -26.2853  -13.0251   20.3577 N   0  0  0  0  0  0
  -25.9633  -11.7124   20.5678 N   0  0  0  0  0  0
  -22.0342  -12.7998   22.0506 N   0  0  0  0  0  0
  -25.3405  -15.2327   20.4385 N   0  0  0  0  0  0
  -31.1093  -16.4240   20.3571 O   0  0  0  0  0  0
  -21.6687   -6.8945   21.4250 O   0  0  0  0  0  0
  -22.3250  -14.5332   20.6786 O   0  0  0  0  0  0
  -24.7615  -31.6990   23.0858 C   0  0  0  0  0  0
  -25.9787  -32.3991   23.7707 C   0  0  1  0  0  0
  -27.2692  -25.8944   20.2762 C   0  0  0  0  0  0
  -25.6016  -33.7862   24.1498 N   0  0  0  0  0  0
  -23.6224  -30.2620   21.4600 C   0  0  2  0  0  0
  -25.0837  -28.4265   20.1455 C   0  0  0  0  0  0
  -22.8115  -29.3764   22.4516 C   0  0  0  0  0  0
  -18.0381  -28.1460   22.8413 C   0  0  0  0  0  0
  -24.1483  -36.6946   23.2680 C   0  0  0  0  0  0
  -26.2265  -30.1646   21.4691 C   0  0  0  0  0  0
  -26.2842  -28.6374   20.8324 C   0  0  0  0  0  0
  -27.3194  -27.4332   20.8372 C   0  0  0  0  0  0
  -26.0305  -26.0966   19.5276 C   0  0  0  0  0  0
  -25.0451  -27.1863   19.4642 C   0  0  0  0  0  0
  -23.9166  -29.4780   20.1332 C   0  0  0  0  0  0
  -25.4162  -36.2621   24.0231 C   0  0  1  0  0  0
  -20.6054  -28.3835   23.1012 C   0  0  2  0  0  0
  -20.6793  -26.9420   22.5428 C   0  0  0  0  0  0
  -19.5786  -26.6338   21.5230 C   0  0  0  0  0  0
  -18.1968  -26.7970   22.1606 C   0  0  0  0  0  0
  -19.1668  -28.8991   23.2668 C   0  0  0  0  0  0
  -18.9558  -30.1557   23.8743 C   0  0  0  0  0  0
  -17.6537  -30.6617   24.0530 C   0  0  0  0  0  0
  -25.9192  -34.9028   23.4767 C   0  0  0  0  0  0
  -16.5421  -29.9085   23.6367 C   0  0  0  0  0  0
  -16.7357  -28.6518   23.0376 C   0  0  0  0  0  0
  -26.4717  -31.6392   25.0659 C   0  0  0  0  0  0
  -25.3584  -31.3914   26.1133 C   0  0  0  0  0  0
  -27.0776  -30.2661   24.7117 C   0  0  0  0  0  0
  -27.6008  -32.4458   25.7513 C   0  0  0  0  0  0
  -27.5524  -37.1628   24.8472 C   0  0  0  0  0  0
  -21.4695  -29.2916   22.3255 N   0  0  0  0  0  0
  -26.4223  -37.3468   23.9411 N   0  0  0  0  0  0
  -24.9051  -30.7613   22.0572 N   0  0  0  0  0  0
  -23.4178  -28.7513   23.3235 O   0  0  0  0  0  0
  -28.1731  -24.3398   20.3085 O   0  0  0  0  0  0
  -26.5958  -34.8765   22.4470 O   0  0  0  0  0  0
  -23.6472  -32.0432   23.5303 O   0  0  0  0  0  0
  -30.7274  -22.7018   18.1070 C   0  0  0  0  0  0
  -31.3189  -21.6834   17.3256 C   0  0  0  0  0  0
  -32.4682  -21.2874   18.0634 C   0  0  0  0  0  0
  -32.2184  -21.0924   19.4801 C   0  0  0  0  0  0
  -30.7603  -20.9005   19.8410 C   0  0  0  0  0  0
  -30.6965  -22.3421   19.4918 C   0  0  0  0  0  0
  -28.4991  -20.9237   18.7000 C   0  0  0  0  0  0
  -31.1414  -19.3099   21.3414 C   0  0  0  0  0  0
  -29.3907  -20.7654   21.6777 C   0  0  0  0  0  0
  -31.2151  -18.8776   18.9282 C   0  0  0  0  0  0
  -28.3735  -22.1445   20.3197 C   0  0  1  0  0  0
  -33.8398  -21.2258   17.4253 C   0  0  0  0  0  0
  -33.4096  -21.0959   20.4381 C   0  0  0  0  0  0
  -30.3430  -20.5327   16.9211 C   0  0  0  0  0  0
  -29.6828  -19.8834   18.0856 N   0  0  0  0  0  0
  -29.3755  -18.6416   20.1521 N   0  0  0  0  0  0
  -27.5257  -21.0695   17.9553 O   0  0  0  0  0  0
  -31.0716  -23.5694   20.6678 Cl  0  0  0  0  0  0
  -31.1204  -14.4207   18.9580 H   0  0  0  0  0  0
  -30.7274  -13.4193   20.2823 H   0  0  0  0  0  0
  -30.2525  -12.2611   18.0998 H   0  0  0  0  0  0
  -29.3387  -13.6291   17.5317 H   0  0  0  0  0  0
  -28.5020  -11.5448   19.5398 H   0  0  0  0  0  0
  -27.6276  -12.0940   18.1181 H   0  0  0  0  0  0
  -27.2874  -14.2207   19.0840 H   0  0  0  0  0  0
  -29.0081  -13.6211   21.5321 H   0  0  0  0  0  0
  -27.8641  -14.9007   21.4620 H   0  0  0  0  0  0
  -25.2899   -9.5710   22.4731 H   0  0  0  0  0  0
  -24.0072   -7.4699   22.7475 H   0  0  0  0  0  0
  -21.0972   -8.8863   19.8926 H   0  0  0  0  0  0
  -22.3882  -10.9708   19.6113 H   0  0  0  0  0  0
  -21.2021   -7.6170   23.9731 H   0  0  0  0  0  0
  -21.1496   -6.0529   25.9078 H   0  0  0  0  0  0
  -22.0578   -2.7633   23.2820 H   0  0  0  0  0  0
  -22.4043  -11.9716   22.4936 H   0  0  0  0  0  0
  -21.0907  -13.0901   22.2651 H   0  0  0  0  0  0
  -24.5526  -15.8641   20.5392 H   0  0  0  0  0  0
  -26.1818  -15.6937   20.1176 H   0  0  0  0  0  0
  -26.7985  -32.4335   23.0518 H   0  0  0  0  0  0
  -24.9925  -33.8755   24.9496 H   0  0  0  0  0  0
  -22.9961  -31.1180   21.1997 H   0  0  0  0  0  0
  -23.3781  -35.9238   23.3238 H   0  0  0  0  0  0
  -24.3517  -36.8761   22.2117 H   0  0  0  0  0  0
  -23.7224  -37.6054   23.6892 H   0  0  0  0  0  0
  -26.5092  -30.8329   20.6545 H   0  0  0  0  0  0
  -27.0536  -30.2536   22.1598 H   0  0  0  0  0  0
  -28.2142  -27.6465   21.4056 H   0  0  0  0  0  0
  -25.7371  -25.2270   18.9564 H   0  0  0  0  0  0
  -24.1696  -26.9964   18.8579 H   0  0  0  0  0  0
  -24.1538  -30.2014   19.3525 H   0  0  0  0  0  0
  -23.0063  -28.9822   19.7912 H   0  0  0  0  0  0
  -25.1415  -36.1268   25.0719 H   0  0  0  0  0  0
  -21.0099  -28.3506   24.1157 H   0  0  0  0  0  0
  -20.5565  -26.2480   23.3758 H   0  0  0  0  0  0
  -21.6647  -26.7216   22.1306 H   0  0  0  0  0  0
  -19.6917  -25.6212   21.1353 H   0  0  0  0  0  0
  -19.6760  -27.3072   20.6705 H   0  0  0  0  0  0
  -17.4245  -26.6732   21.3999 H   0  0  0  0  0  0
  -18.0309  -26.0145   22.9027 H   0  0  0  0  0  0
  -19.8031  -30.7412   24.2050 H   0  0  0  0  0  0
  -17.5080  -31.6279   24.5168 H   0  0  0  0  0  0
  -15.5414  -30.2939   23.7780 H   0  0  0  0  0  0
  -15.8760  -28.0791   22.7173 H   0  0  0  0  0  0
  -24.5853  -30.7180   25.7411 H   0  0  0  0  0  0
  -24.8694  -32.3191   26.4115 H   0  0  0  0  0  0
  -25.7596  -30.9371   27.0203 H   0  0  0  0  0  0
  -26.3599  -29.6000   24.2322 H   0  0  0  0  0  0
  -27.4099  -29.7475   25.6123 H   0  0  0  0  0  0
  -27.9617  -30.3631   24.0815 H   0  0  0  0  0  0
  -27.2440  -33.3928   26.1575 H   0  0  0  0  0  0
  -28.4061  -32.6751   25.0521 H   0  0  0  0  0  0
  -28.0402  -31.8956   26.5844 H   0  0  0  0  0  0
  -28.2482  -37.9969   24.7484 H   0  0  0  0  0  0
  -28.1069  -36.2480   24.6336 H   0  0  0  0  0  0
  -27.2230  -37.1290   25.8869 H   0  0  0  0  0  0
  -21.0203  -29.8434   21.6080 H   0  0  0  0  0  0
  -25.9979  -38.2477   24.1435 H   0  0  0  0  0  0
  -30.8978  -23.7394   17.8600 H   0  0  0  0  0  0
  -31.0100  -18.4264   21.9690 H   0  0  0  0  0  0
  -32.0557  -19.6713   21.7905 H   0  0  0  0  0  0
  -29.6808  -21.3679   22.5383 H   0  0  0  0  0  0
  -28.5843  -20.1586   22.0921 H   0  0  0  0  0  0
  -31.1194  -17.8820   18.5114 H   0  0  0  0  0  0
  -32.2051  -18.9563   18.4807 H   0  0  0  0  0  0
  -27.3370  -21.9586   20.6012 H   0  0  0  0  0  0
  -33.7527  -20.9590   16.3716 H   0  0  0  0  0  0
  -34.4633  -20.4755   17.9133 H   0  0  0  0  0  0
  -34.3346  -22.1951   17.5024 H   0  0  0  0  0  0
  -33.8447  -20.1007   20.5357 H   0  0  0  0  0  0
  -33.1295  -21.4732   21.4224 H   0  0  0  0  0  0
  -34.1933  -21.7618   20.0764 H   0  0  0  0  0  0
  -30.9003  -19.7760   16.3681 H   0  0  0  0  0  0
  -29.5965  -20.9190   16.2256 H   0  0  0  0  0  0
  -28.3733  -18.7442   20.0896 H   0  0  0  0  0  0
  1 25  1  0  0  0
  1 30  2  0  0  0
  1 86  1  0  0  0
  2  3  1  0  0  0
  2 25  1  0  0  0
  2 89  1  0  0  0
  2 90  1  0  0  0
  3  4  1  0  0  0
  3 91  1  0  0  0
  3 92  1  0  0  0
  4  5  1  0  0  0
  4 93  1  0  0  0
  4 94  1  0  0  0
  5  6  1  0  0  0
  5 26  1  0  0  0
  5 95  1  0  0  0
  6 25  1  0  0  0
  6 96  1  0  0  0
  6 97  1  0  0  0
  7  8  2  0  0  0
  7 26  1  0  0  0
  7 29  1  0  0  0
  8  9  1  0  0  0
  8 22  1  0  0  0
  9 10  1  0  0  0
  9 27  2  0  0  0
 10 11  2  0  0  0
 10 15  1  0  0  0
 11 12  1  0  0  0
 11 98  1  0  0  0
 12 13  2  0  0  0
 12 99  1  0  0  0
 13 14  1  0  0  0
 13 31  1  0  0  0
 14 15  2  0  0  0
 14100  1  0  0  0
 15101  1  0  0  0
 16 17  2  0  0  0
 16 21  1  0  0  0
 16 31  1  0  0  0
 17 18  1  0  0  0
 17102  1  0  0  0
 18 19  2  0  0  0
 18103  1  0  0  0
 19 20  1  0  0  0
 19 24  1  0  0  0
 20 21  2  0  0  0
 20104  1  0  0  0
 21 23  1  0  0  0
 22 28  1  0  0  0
 22 32  2  0  0  0
 26 27  1  0  0  0
 28105  1  0  0  0
 28106  1  0  0  0
 29107  1  0  0  0
 29108  1  0  0  0
 33 34  1  0  0  0
 33 66  1  0  0  0
 33 70  2  0  0  0
 34 36  1  0  0  0
 34 59  1  0  0  0
 34109  1  0  0  0
 35 44  2  0  0  0
 35 45  1  0  0  0
 35 68  1  0  0  0
 36 56  1  0  0  0
 36110  1  0  0  0
 37 39  1  0  0  0
 37 47  1  0  0  0
 37 66  1  0  0  0
 37111  1  0  0  0
 38 43  2  0  0  0
 38 46  1  0  0  0
 38 47  1  0  0  0
 39 64  1  0  0  0
 39 67  2  0  0  0
 40 52  1  0  0  0
 40 53  2  0  0  0
 40 58  1  0  0  0
 41112  1  0  0  0
 41113  1  0  0  0
 41114  1  0  0  0
 41 48  1  0  0  0
 42 43  1  0  0  0
 42 66  1  0  0  0
 42115  1  0  0  0
 42116  1  0  0  0
 43 44  1  0  0  0
 44117  1  0  0  0
 45 46  2  0  0  0
 45118  1  0  0  0
 46119  1  0  0  0
 47120  1  0  0  0
 47121  1  0  0  0
 48 56  1  0  0  0
 48 65  1  0  0  0
 48122  1  0  0  0
 49 50  1  0  0  0
 49 53  1  0  0  0
 49 64  1  0  0  0
 49123  1  0  0  0
 50 51  1  0  0  0
 50124  1  0  0  0
 50125  1  0  0  0
 51 52  1  0  0  0
 51126  1  0  0  0
 51127  1  0  0  0
 52128  1  0  0  0
 52129  1  0  0  0
 53 54  1  0  0  0
 54 55  2  0  0  0
 54130  1  0  0  0
 55 57  1  0  0  0
 55131  1  0  0  0
 56 69  2  0  0  0
 57 58  2  0  0  0
 57132  1  0  0  0
 58133  1  0  0  0
 59 60  1  0  0  0
 59 61  1  0  0  0
 59 62  1  0  0  0
 60134  1  0  0  0
 60135  1  0  0  0
 60136  1  0  0  0
 61137  1  0  0  0
 61138  1  0  0  0
 61139  1  0  0  0
 62140  1  0  0  0
 62141  1  0  0  0
 62142  1  0  0  0
 63 65  1  0  0  0
 63143  1  0  0  0
 63144  1  0  0  0
 63145  1  0  0  0
 64146  1  0  0  0
 65147  1  0  0  0
 68 81  1  0  0  0
 71 72  2  0  0  0
 71 76  1  0  0  0
 71148  1  0  0  0
 72 73  1  0  0  0
 72 84  1  0  0  0
 73 74  2  0  0  0
 73 82  1  0  0  0
 74 75  1  0  0  0
 74 83  1  0  0  0
 75 76  2  0  0  0
 75 86  1  0  0  0
 76 88  1  0  0  0
 77 81  1  0  0  0
 77 85  1  0  0  0
 77 87  2  0  0  0
 78 79  1  0  0  0
 78 80  1  0  0  0
 78149  1  0  0  0
 78150  1  0  0  0
 79 81  1  0  0  0
 79151  1  0  0  0
 79152  1  0  0  0
 80 85  1  0  0  0
 80153  1  0  0  0
 80154  1  0  0  0
 81155  1  0  0  0
 82156  1  0  0  0
 82157  1  0  0  0
 82158  1  0  0  0
 83159  1  0  0  0
 83160  1  0  0  0
 83161  1  0  0  0
 84 85  1  0  0  0
 84162  1  0  0  0
 84163  1  0  0  0
 86164  1  0  0  0
M  ISO  4   1 100  68 101  81 101  86 100
M  END
> <chiral flag>
0

> <version>
0

> <s_m_source_file>
/data/baiqing/PycharmProjects/Reinvent-master-3.2/result/LINK_invent/BTK/process_docking_weight1_custom_product_contain_oxygen_bond_distance_aromatic_linkinvent_7_9_3/rearranged_h_0041.sdf

> <i_m_source_file_index>
56

> <r_mmod_Potential_Energy-OPLS-2005>
15146.8603515625

> <r_mmod_Stretch_Energy-OPLS-2005>
8020.166015625

> <r_mmod_Bend_Energy-OPLS-2005>
1321.81384277344

> <r_mmod_Torsional_Energy-OPLS-2005>
770.065856933594

> <r_mmod_Improper_Torsional_Energy-OPLS-2005>
53.2837142944336

> <r_mmod_Van_der_Waal_Energy-OPLS-2005>
2079.841796875

> <r_mmod_Electrostatic_Energy-OPLS-2005>
-358.45556640625

> <r_mmod_Solvation_Energy-OPLS-2005>
-228.083404541016

> <b_mmod_Minimization_Converged-OPLS-2005>
0

> <r_mmod_RMS_Derivative-OPLS-2005>
2.23622465133667

$$$$
56
                    3D
 Structure written by MMmdl.
157165  0  0  1  0            999 V2000
  -29.8558  -15.7166   20.3168 C   0  0  0  0  0  0
  -30.3341  -13.3278   19.4804 C   0  0  0  0  0  0
  -29.4927  -12.6399   18.3400 C   0  0  0  0  0  0
  -28.1154  -12.1753   18.8768 C   0  0  0  0  0  0
  -27.5146  -13.2472   19.7871 C   0  0  2  0  0  0
  -28.4898  -13.6210   20.9292 C   0  0  0  0  0  0
  -25.1918  -13.8032   20.5798 C   0  0  0  0  0  0
  -24.1489  -13.0465   20.9342 C   0  0  0  0  0  0
  -24.6077  -11.6801   20.8908 C   0  0  0  0  0  0
  -23.8895  -10.4195   21.0466 C   0  0  0  0  0  0
  -24.3502   -9.4111   21.9238 C   0  0  0  0  0  0
  -23.6228   -8.2193   22.0761 C   0  0  0  0  0  0
  -22.4197   -8.0188   21.3556 C   0  0  0  0  0  0
  -21.9834   -9.0170   20.4656 C   0  0  0  0  0  0
  -22.7124  -10.2051   20.3094 C   0  0  0  0  0  0
  -21.6810   -6.0691   22.5292 C   0  0  0  0  0  0
  -21.3975   -6.5605   23.8209 C   0  0  0  0  0  0
  -21.3647   -5.6777   24.9181 C   0  0  0  0  0  0
  -21.6048   -4.3033   24.7247 C   0  0  0  0  0  0
  -21.8828   -3.8121   23.4359 C   0  0  0  0  0  0
  -21.9175   -4.6931   22.3412 C   0  0  0  0  0  0
  -22.7513  -13.5161   21.1996 C   0  0  0  0  0  0
  -22.1661   -4.2115   21.0993 F   0  0  0  0  0  0
  -21.5637   -3.4533   25.7755 F   0  0  0  0  0  0
  -29.5487  -14.3205   20.2678 N   0  0  0  0  0  0
  -26.2177  -12.9319   20.3146 N   0  0  0  0  0  0
  -25.8892  -11.6345   20.5833 N   0  0  0  0  0  0
  -22.0257  -12.8236   22.0397 N   0  0  0  0  0  0
  -25.3971  -15.1855   20.3987 N   0  0  0  0  0  0
  -31.0487  -15.7903   20.1752 O   0  0  0  0  0  0
  -21.6593   -6.8832   21.4242 O   0  0  0  0  0  0
  -22.3301  -14.5577   20.6711 O   0  0  0  0  0  0
  -24.6023  -31.8434   23.2266 C   0  0  0  0  0  0
  -25.9043  -32.4944   23.8719 C   0  0  1  0  0  0
  -27.2363  -27.5292   20.0464 C   0  0  0  0  0  0
  -25.5580  -33.8612   24.2394 N   0  0  0  0  0  0
  -23.4672  -30.4724   21.5873 C   0  0  2  0  0  0
  -24.8428  -28.9827   20.0545 C   0  0  0  0  0  0
  -22.7524  -29.4490   22.4425 C   0  0  0  0  0  0
  -17.9947  -28.3525   22.7842 C   0  0  0  0  0  0
  -24.1439  -36.7327   23.2681 C   0  0  0  0  0  0
  -25.9264  -30.8893   21.3189 C   0  0  0  0  0  0
  -26.0101  -29.5687   20.5680 C   0  0  0  0  0  0
  -27.2314  -28.8798   20.5006 C   0  0  0  0  0  0
  -26.0967  -27.0226   19.4059 C   0  0  0  0  0  0
  -24.8847  -27.7338   19.3816 C   0  0  0  0  0  0
  -23.5815  -29.7793   20.2200 C   0  0  0  0  0  0
  -25.4054  -36.3237   24.0400 C   0  0  1  0  0  0
  -20.4982  -28.5938   22.7428 C   0  0  2  0  0  0
  -20.7583  -27.0085   22.4653 C   0  0  0  0  0  0
  -19.5917  -26.4736   21.6633 C   0  0  0  0  0  0
  -18.2219  -26.9571   22.1432 C   0  0  0  0  0  0
  -19.1061  -29.0812   23.2217 C   0  0  0  0  0  0
  -18.9318  -30.3494   23.9136 C   0  0  0  0  0  0
  -17.6733  -30.8478   24.3055 C   0  0  0  0  0  0
  -25.8974  -34.9440   23.5240 C   0  0  0  0  0  0
  -16.4905  -30.1979   23.8148 C   0  0  0  0  0  0
  -16.6627  -29.0082   23.0935 C   0  0  0  0  0  0
  -26.4104  -31.6577   25.0692 C   0  0  0  0  0  0
  -25.3653  -31.3761   26.1738 C   0  0  0  0  0  0
  -26.9753  -30.2904   24.5859 C   0  0  0  0  0  0
  -27.5746  -32.4381   25.7247 C   0  0  0  0  0  0
  -27.5566  -37.1710   24.8450 C   0  0  0  0  0  0
  -21.4788  -29.5356   22.2354 N   0  0  0  0  0  0
  -26.4322  -37.3734   23.9401 N   0  0  0  0  0  0
  -24.7018  -31.0515   22.1225 N   0  0  0  0  0  0
  -23.2248  -28.5616   23.1621 O   0  0  0  0  0  0
  -28.0267  -26.5749   20.6690 O   0  0  0  0  0  0
  -26.5485  -34.9025   22.4730 O   0  0  0  0  0  0
  -23.5375  -32.0965   23.7810 O   0  0  0  0  0  0
  -24.4200  -21.4103   20.5562 C   0  0  0  0  0  0
  -24.5401  -20.4456   19.5071 C   0  0  0  0  0  0
  -26.5185  -20.5545   21.3305 C   0  0  0  0  0  0
  -25.4277  -21.5631   21.5201 C   0  0  0  0  0  0
  -25.7445  -19.7256   19.3195 C   0  0  0  0  0  0
  -26.6823  -19.3719   20.3492 C   0  0  0  0  0  0
  -26.9935  -24.9713   22.5870 C   0  0  0  0  0  0
  -26.2053  -20.2040   17.9566 C   0  0  0  0  0  0
  -25.2335  -23.0477   22.4296 C   0  0  0  0  0  0
  -28.0422  -18.2326   20.0074 C   0  0  0  0  0  0
  -27.3628  -26.3812   22.0021 C   0  0  0  0  0  0
  -25.9234  -24.3740   22.1322 N   0  0  0  0  0  0
  -28.7919  -16.8125   20.5666 N   0  0  0  0  0  0
  -27.3667  -24.5898   23.6807 O   0  0  0  0  0  0
  -31.1722  -13.8305   18.9693 H   0  0  0  0  0  0
  -30.7386  -12.6624   20.2416 H   0  0  0  0  0  0
  -30.0953  -11.7973   17.9725 H   0  0  0  0  0  0
  -29.2979  -13.3551   17.5148 H   0  0  0  0  0  0
  -28.2852  -11.2810   19.4912 H   0  0  0  0  0  0
  -27.4114  -11.9092   18.0637 H   0  0  0  0  0  0
  -27.3279  -14.1130   19.1334 H   0  0  0  0  0  0
  -28.9362  -12.7730   21.4372 H   0  0  0  0  0  0
  -27.9980  -14.2594   21.6489 H   0  0  0  0  0  0
  -25.2671   -9.5603   22.4794 H   0  0  0  0  0  0
  -23.9911   -7.4563   22.7503 H   0  0  0  0  0  0
  -21.0758   -8.8679   19.8978 H   0  0  0  0  0  0
  -22.3596  -10.9586   19.6168 H   0  0  0  0  0  0
  -21.1956   -7.6119   23.9696 H   0  0  0  0  0  0
  -21.1465   -6.0518   25.9086 H   0  0  0  0  0  0
  -22.0620   -2.7580   23.2873 H   0  0  0  0  0  0
  -22.3870  -11.9834   22.4734 H   0  0  0  0  0  0
  -21.0911  -13.1244   22.2813 H   0  0  0  0  0  0
  -24.6383  -15.8570   20.4609 H   0  0  0  0  0  0
  -26.2435  -15.5656   19.9986 H   0  0  0  0  0  0
  -26.6649  -32.5857   23.1386 H   0  0  0  0  0  0
  -24.9591  -33.9873   25.0319 H   0  0  0  0  0  0
  -22.7749  -31.3581   21.4802 H   0  0  0  0  0  0
  -23.3705  -35.9647   23.3297 H   0  0  0  0  0  0
  -24.3648  -36.8852   22.2145 H   0  0  0  0  0  0
  -23.7255  -37.6460   23.6674 H   0  0  0  0  0  0
  -26.0285  -31.7037   20.6186 H   0  0  0  0  0  0
  -26.7933  -30.9631   21.9666 H   0  0  0  0  0  0
  -28.1166  -29.2993   21.0167 H   0  0  0  0  0  0
  -26.0730  -25.9454   19.2800 H   0  0  0  0  0  0
  -24.0100  -27.2630   18.9832 H   0  0  0  0  0  0
  -23.6192  -30.6053   19.4818 H   0  0  0  0  0  0
  -22.6982  -29.1652   19.9851 H   0  0  0  0  0  0
  -25.1254  -36.1995   25.0834 H   0  0  0  0  0  0
  -20.1054  -28.7910   21.7987 H   0  0  0  0  0  0
  -20.8648  -26.4025   23.4356 H   0  0  0  0  0  0
  -21.6284  -26.7822   21.9304 H   0  0  0  0  0  0
  -19.6364  -25.3728   21.4952 H   0  0  0  0  0  0
  -19.5601  -27.0471   20.8237 H   0  0  0  0  0  0
  -17.7830  -27.0415   21.1023 H   0  0  0  0  0  0
  -17.9551  -26.2323   22.8494 H   0  0  0  0  0  0
  -19.6237  -31.1586   24.2022 H   0  0  0  0  0  0
  -17.4733  -31.7871   24.8848 H   0  0  0  0  0  0
  -15.4610  -30.6204   24.0014 H   0  0  0  0  0  0
  -15.6793  -28.5885   22.7773 H   0  0  0  0  0  0
  -24.5784  -30.7006   25.8359 H   0  0  0  0  0  0
  -24.8975  -32.2828   26.5633 H   0  0  0  0  0  0
  -25.8549  -30.8879   27.0214 H   0  0  0  0  0  0
  -26.2764  -29.5960   24.0992 H   0  0  0  0  0  0
  -27.3639  -29.7541   25.4505 H   0  0  0  0  0  0
  -27.7888  -30.4482   23.8890 H   0  0  0  0  0  0
  -27.2477  -33.3787   26.1763 H   0  0  0  0  0  0
  -28.3516  -32.6913   25.0022 H   0  0  0  0  0  0
  -28.0392  -31.8623   26.5260 H   0  0  0  0  0  0
  -28.2525  -38.0024   24.7452 H   0  0  0  0  0  0
  -28.1156  -36.2551   24.6343 H   0  0  0  0  0  0
  -27.2279  -37.1346   25.8835 H   0  0  0  0  0  0
  -21.3027  -30.3881   21.6374 H   0  0  0  0  0  0
  -26.0249  -38.2780   24.1210 H   0  0  0  0  0  0
  -23.7940  -22.2720   20.4824 H   0  0  0  0  0  0
  -23.9955  -20.6775   18.6404 H   0  0  0  0  0  0
  -27.3896  -20.7651   21.8504 H   0  0  0  0  0  0
  -25.4400  -20.4623   17.2399 H   0  0  0  0  0  0
  -26.8164  -19.6755   17.2083 H   0  0  0  0  0  0
  -26.6661  -21.1641   18.1820 H   0  0  0  0  0  0
  -24.5491  -23.4397   21.6001 H   0  0  0  0  0  0
  -24.4071  -23.1154   23.2546 H   0  0  0  0  0  0
  -28.8440  -18.9517   19.8591 H   0  0  0  0  0  0
  -27.7777  -17.9457   19.0362 H   0  0  0  0  0  0
  -27.9912  -26.8631   22.7403 H   0  0  0  0  0  0
  -26.4118  -26.9599   22.0268 H   0  0  0  0  0  0
  -25.4058  -25.0728   21.6701 H   0  0  0  0  0  0
  -29.4117  -17.2566   21.2172 H   0  0  0  0  0  0
  1 25  1  0  0  0
  1 30  2  0  0  0
  1 83  1  0  0  0
  2  3  1  0  0  0
  2 25  1  0  0  0
  2 85  1  0  0  0
  2 86  1  0  0  0
  3  4  1  0  0  0
  3 87  1  0  0  0
  3 88  1  0  0  0
  4  5  1  0  0  0
  4 89  1  0  0  0
  4 90  1  0  0  0
  5  6  1  0  0  0
  5 26  1  0  0  0
  5 91  1  0  0  0
  6 25  1  0  0  0
  6 92  1  0  0  0
  6 93  1  0  0  0
  7  8  2  0  0  0
  7 26  1  0  0  0
  7 29  1  0  0  0
  8  9  1  0  0  0
  8 22  1  0  0  0
  9 10  1  0  0  0
  9 27  2  0  0  0
 10 11  2  0  0  0
 10 15  1  0  0  0
 11 12  1  0  0  0
 11 94  1  0  0  0
 12 13  2  0  0  0
 12 95  1  0  0  0
 13 14  1  0  0  0
 13 31  1  0  0  0
 14 15  2  0  0  0
 14 96  1  0  0  0
 15 97  1  0  0  0
 16 17  2  0  0  0
 16 21  1  0  0  0
 16 31  1  0  0  0
 17 18  1  0  0  0
 17 98  1  0  0  0
 18 19  2  0  0  0
 18 99  1  0  0  0
 19 20  1  0  0  0
 19 24  1  0  0  0
 20 21  2  0  0  0
 20100  1  0  0  0
 21 23  1  0  0  0
 22 28  1  0  0  0
 22 32  2  0  0  0
 26 27  1  0  0  0
 28101  1  0  0  0
 28102  1  0  0  0
 29103  1  0  0  0
 29104  1  0  0  0
 33 34  1  0  0  0
 33 66  1  0  0  0
 33 70  2  0  0  0
 34 36  1  0  0  0
 34 59  1  0  0  0
 34105  1  0  0  0
 35 44  2  0  0  0
 35 45  1  0  0  0
 35 68  1  0  0  0
 36 56  1  0  0  0
 36106  1  0  0  0
 37 39  1  0  0  0
 37 47  1  0  0  0
 37 66  1  0  0  0
 37107  1  0  0  0
 38 43  2  0  0  0
 38 46  1  0  0  0
 38 47  1  0  0  0
 39 64  1  0  0  0
 39 67  2  0  0  0
 40 52  1  0  0  0
 40 53  2  0  0  0
 40 58  1  0  0  0
 41108  1  0  0  0
 41109  1  0  0  0
 41110  1  0  0  0
 41 48  1  0  0  0
 42 43  1  0  0  0
 42 66  1  0  0  0
 42111  1  0  0  0
 42112  1  0  0  0
 43 44  1  0  0  0
 44113  1  0  0  0
 45 46  2  0  0  0
 45114  1  0  0  0
 46115  1  0  0  0
 47116  1  0  0  0
 47117  1  0  0  0
 48 56  1  0  0  0
 48 65  1  0  0  0
 48118  1  0  0  0
 49 50  1  0  0  0
 49 53  1  0  0  0
 49 64  1  0  0  0
 49119  1  0  0  0
 50 51  1  0  0  0
 50120  1  0  0  0
 50121  1  0  0  0
 51 52  1  0  0  0
 51122  1  0  0  0
 51123  1  0  0  0
 52124  1  0  0  0
 52125  1  0  0  0
 53 54  1  0  0  0
 54 55  2  0  0  0
 54126  1  0  0  0
 55 57  1  0  0  0
 55127  1  0  0  0
 56 69  2  0  0  0
 57 58  2  0  0  0
 57128  1  0  0  0
 58129  1  0  0  0
 59 60  1  0  0  0
 59 61  1  0  0  0
 59 62  1  0  0  0
 60130  1  0  0  0
 60131  1  0  0  0
 60132  1  0  0  0
 61133  1  0  0  0
 61134  1  0  0  0
 61135  1  0  0  0
 62136  1  0  0  0
 62137  1  0  0  0
 62138  1  0  0  0
 63 65  1  0  0  0
 63139  1  0  0  0
 63140  1  0  0  0
 63141  1  0  0  0
 64142  1  0  0  0
 65143  1  0  0  0
 68 81  1  0  0  0
 71 72  2  0  0  0
 71 74  1  0  0  0
 71144  1  0  0  0
 72 75  1  0  0  0
 72145  1  0  0  0
 73 74  2  0  0  0
 73 76  1  0  0  0
 73146  1  0  0  0
 74 79  1  0  0  0
 75 76  2  0  0  0
 75 78  1  0  0  0
 76 80  1  0  0  0
 77 81  1  0  0  0
 77 82  1  0  0  0
 77 84  2  0  0  0
 78147  1  0  0  0
 78148  1  0  0  0
 78149  1  0  0  0
 79 82  1  0  0  0
 79150  1  0  0  0
 79151  1  0  0  0
 80 83  1  0  0  0
 80152  1  0  0  0
 80153  1  0  0  0
 81154  1  0  0  0
 81155  1  0  0  0
 82156  1  0  0  0
 83157  1  0  0  0
M  ISO  4   1 100  68 101  81 101  83 100
M  END
> <chiral flag>
0

> <version>
0

> <s_m_source_file>
/data/baiqing/PycharmProjects/Reinvent-master-3.2/result/LINK_invent/BTK/process_docking_weight1_custom_product_contain_oxygen_bond_distance_aromatic_linkinvent_7_9_3/rearranged_h_0041.sdf

> <i_m_source_file_index>
57

> <r_mmod_Potential_Energy-OPLS-2005>
2618.30712890625

> <r_mmod_Stretch_Energy-OPLS-2005>
641.463989257812

> <r_mmod_Bend_Energy-OPLS-2005>
905.372375488281

> <r_mmod_Torsional_Energy-OPLS-2005>
493.028839111328

> <r_mmod_Improper_Torsional_Energy-OPLS-2005>
57.8460159301758

> <r_mmod_Van_der_Waal_Energy-OPLS-2005>
223.428100585938

> <r_mmod_Electrostatic_Energy-OPLS-2005>
-450.094146728516

> <r_mmod_Solvation_Energy-OPLS-2005>
-234.763000488281

> <b_mmod_Minimization_Converged-OPLS-2005>
0

> <r_mmod_RMS_Derivative-OPLS-2005>
99.9990005493164

$$$$
57
                    3D
 Structure written by MMmdl.
175184  0  0  1  0            999 V2000
  -30.7841  -14.3694   20.6564 C   0  0  0  0  0  0
  -30.4058  -12.2800   19.4085 C   0  0  0  0  0  0
  -29.4807  -12.5149   18.2001 C   0  0  0  0  0  0
  -28.0068  -12.3689   18.6193 C   0  0  0  0  0  0
  -27.6636  -13.2051   19.8807 C   0  0  2  0  0  0
  -28.7030  -12.9749   21.0014 C   0  0  0  0  0  0
  -25.2591  -13.8167   20.5709 C   0  0  0  0  0  0
  -24.1835  -13.0453   20.9173 C   0  0  0  0  0  0
  -24.6382  -11.6914   20.8736 C   0  0  0  0  0  0
  -23.9048  -10.4297   21.0390 C   0  0  0  0  0  0
  -24.3605   -9.4219   21.9176 C   0  0  0  0  0  0
  -23.6289   -8.2253   22.0753 C   0  0  0  0  0  0
  -22.4269   -8.0284   21.3545 C   0  0  0  0  0  0
  -21.9899   -9.0247   20.4648 C   0  0  0  0  0  0
  -22.7219  -10.2133   20.3049 C   0  0  0  0  0  0
  -21.6854   -6.0736   22.5283 C   0  0  0  0  0  0
  -21.4014   -6.5639   23.8209 C   0  0  0  0  0  0
  -21.3664   -5.6791   24.9178 C   0  0  0  0  0  0
  -21.6041   -4.3056   24.7222 C   0  0  0  0  0  0
  -21.8823   -3.8149   23.4347 C   0  0  0  0  0  0
  -21.9192   -4.6960   22.3401 C   0  0  0  0  0  0
  -22.7856  -13.5258   21.1845 C   0  0  0  0  0  0
  -22.1659   -4.2153   21.0981 F   0  0  0  0  0  0
  -21.5631   -3.4538   25.7736 F   0  0  0  0  0  0
  -30.0459  -13.2470   20.4566 N   0  0  0  0  0  0
  -26.3034  -12.9341   20.3411 N   0  0  0  0  0  0
  -25.9310  -11.6498   20.5781 N   0  0  0  0  0  0
  -22.0498  -12.8234   22.0398 N   0  0  0  0  0  0
  -25.4334  -15.1890   20.4125 N   0  0  0  0  0  0
  -31.8209  -14.6100   20.0308 O   0  0  0  0  0  0
  -21.6640   -6.8877   21.4241 O   0  0  0  0  0  0
  -22.3545  -14.5557   20.6699 O   0  0  0  0  0  0
  -24.6138  -31.8712   23.2161 C   0  0  0  0  0  0
  -25.9045  -32.4829   23.8433 C   0  0  1  0  0  0
  -27.2315  -27.4625   20.0842 C   0  0  0  0  0  0
  -25.5900  -33.8629   24.2365 N   0  0  0  0  0  0
  -23.4016  -30.4957   21.5557 C   0  0  2  0  0  0
  -24.8492  -28.9686   20.1180 C   0  0  0  0  0  0
  -22.7387  -29.4659   22.5006 C   0  0  0  0  0  0
  -18.0256  -28.1380   22.8487 C   0  0  0  0  0  0
  -24.1497  -36.7321   23.2629 C   0  0  0  0  0  0
  -25.9292  -30.8387   21.3733 C   0  0  0  0  0  0
  -26.0082  -29.4751   20.7229 C   0  0  0  0  0  0
  -27.2051  -28.7228   20.7172 C   0  0  0  0  0  0
  -26.0645  -26.9796   19.4573 C   0  0  0  0  0  0
  -24.8668  -27.7124   19.4903 C   0  0  0  0  0  0
  -23.6131  -29.8362   20.1676 C   0  0  0  0  0  0
  -25.4102  -36.3126   24.0347 C   0  0  1  0  0  0
  -20.5835  -28.3672   23.1318 C   0  0  2  0  0  0
  -20.6742  -26.9405   22.5424 C   0  0  0  0  0  0
  -19.5735  -26.6391   21.5209 C   0  0  0  0  0  0
  -18.1915  -26.7923   22.1625 C   0  0  0  0  0  0
  -19.1497  -28.8840   23.2915 C   0  0  0  0  0  0
  -18.9439  -30.1444   23.8942 C   0  0  0  0  0  0
  -17.6442  -30.6593   24.0567 C   0  0  0  0  0  0
  -25.9015  -34.9470   23.5147 C   0  0  0  0  0  0
  -16.5331  -29.9107   23.6305 C   0  0  0  0  0  0
  -16.7249  -28.6510   23.0347 C   0  0  0  0  0  0
  -26.4493  -31.6575   25.0730 C   0  0  0  0  0  0
  -25.3792  -31.3646   26.1498 C   0  0  0  0  0  0
  -27.0317  -30.3022   24.6073 C   0  0  0  0  0  0
  -27.6093  -32.4274   25.7467 C   0  0  0  0  0  0
  -27.5585  -37.1817   24.8457 C   0  0  0  0  0  0
  -21.4112  -29.3051   22.3729 N   0  0  0  0  0  0
  -26.4303  -37.3796   23.9394 N   0  0  0  0  0  0
  -24.6659  -31.0817   22.1072 N   0  0  0  0  0  0
  -23.4149  -28.8169   23.3036 O   0  0  0  0  0  0
  -28.3753  -26.7050   20.0150 O   0  0  0  0  0  0
  -26.5575  -34.8915   22.4715 O   0  0  0  0  0  0
  -23.5335  -32.1470   23.7557 O   0  0  0  0  0  0
  -28.1364  -24.6072   17.5456 C   0  0  0  0  0  0
  -28.1107  -23.9223   18.5556 C   0  0  0  0  0  0
  -30.0834  -18.5844   21.7171 C   0  0  0  0  0  0
  -29.7416  -19.8650   21.9396 C   0  0  0  0  0  0
  -29.8700  -17.5070   23.8361 C   0  0  0  0  0  0
  -30.2234  -17.5295   22.5384 C   0  0  0  0  0  0
  -29.3271  -20.5504   23.0338 C   0  0  0  0  0  0
  -29.1894  -20.0480   24.2980 C   0  0  0  0  0  0
  -29.4009  -18.6154   24.6952 C   0  0  0  0  0  0
  -27.8853  -23.4127   20.9713 C   0  0  0  0  0  0
  -28.0997  -23.0507   19.6856 C   0  0  0  0  0  0
  -25.9419  -24.3123   23.4706 C   0  0  0  0  0  0
  -26.1355  -22.8328   23.7920 C   0  0  0  0  0  0
  -27.2406  -24.9891   23.0238 C   0  0  0  0  0  0
  -26.5238  -21.9684   22.5809 C   0  0  0  0  0  0
  -27.5856  -24.8329   21.5241 C   0  0  2  0  0  0
  -31.1033  -16.3790   22.0567 C   0  0  0  0  0  0
  -29.0624  -22.0536   22.7739 C   0  0  0  0  0  0
  -28.6721  -25.8970   21.1575 C   0  0  0  0  0  0
  -29.1749  -18.2922   25.9003 N   0  0  0  0  0  0
  -30.3452  -15.2103   21.6027 N   0  0  0  0  0  0
  -27.8392  -22.2793   21.9537 N   0  3  2  0  0  0
  -28.7316  -21.1138   25.5940 Cl  0  0  0  0  0  0
  -31.4518  -12.3547   19.1058 H   0  0  0  0  0  0
  -30.2823  -11.2648   19.7907 H   0  0  0  0  0  0
  -29.7149  -11.8087   17.4021 H   0  0  0  0  0  0
  -29.6486  -13.5121   17.7900 H   0  0  0  0  0  0
  -27.8204  -11.3113   18.8140 H   0  0  0  0  0  0
  -27.3495  -12.6443   17.7931 H   0  0  0  0  0  0
  -27.7160  -14.2550   19.5925 H   0  0  0  0  0  0
  -28.6609  -11.9419   21.3497 H   0  0  0  0  0  0
  -28.4581  -13.5826   21.8721 H   0  0  0  0  0  0
  -25.2750   -9.5704   22.4742 H   0  0  0  0  0  0
  -24.0004   -7.4650   22.7471 H   0  0  0  0  0  0
  -21.0834   -8.8764   19.8952 H   0  0  0  0  0  0
  -22.3674  -10.9669   19.6160 H   0  0  0  0  0  0
  -21.2006   -7.6147   23.9721 H   0  0  0  0  0  0
  -21.1481   -6.0519   25.9081 H   0  0  0  0  0  0
  -22.0597   -2.7610   23.2843 H   0  0  0  0  0  0
  -22.4114  -11.9884   22.4756 H   0  0  0  0  0  0
  -21.1126  -13.1269   22.2622 H   0  0  0  0  0  0
  -24.6726  -15.8496   20.5253 H   0  0  0  0  0  0
  -26.2973  -15.6250   20.1165 H   0  0  0  0  0  0
  -26.7101  -32.5542   23.1175 H   0  0  0  0  0  0
  -25.0059  -33.9786   25.0520 H   0  0  0  0  0  0
  -22.6913  -31.3123   21.4191 H   0  0  0  0  0  0
  -23.3753  -35.9665   23.3301 H   0  0  0  0  0  0
  -24.3583  -36.8925   22.2043 H   0  0  0  0  0  0
  -23.7263  -37.6533   23.6632 H   0  0  0  0  0  0
  -26.0409  -31.6045   20.6062 H   0  0  0  0  0  0
  -26.8167  -30.8900   21.9912 H   0  0  0  0  0  0
  -28.1019  -29.1053   21.1833 H   0  0  0  0  0  0
  -26.0776  -26.0242   18.9556 H   0  0  0  0  0  0
  -23.9797  -27.3168   19.0147 H   0  0  0  0  0  0
  -23.7274  -30.6185   19.4162 H   0  0  0  0  0  0
  -22.7378  -29.2591   19.8650 H   0  0  0  0  0  0
  -25.1280  -36.1999   25.0847 H   0  0  0  0  0  0
  -20.9953  -28.3265   24.1422 H   0  0  0  0  0  0
  -20.5632  -26.2279   23.3621 H   0  0  0  0  0  0
  -21.6624  -26.7437   22.1234 H   0  0  0  0  0  0
  -19.6907  -25.6310   21.1235 H   0  0  0  0  0  0
  -19.6687  -27.3217   20.6754 H   0  0  0  0  0  0
  -17.4179  -26.6670   21.4037 H   0  0  0  0  0  0
  -18.0333  -26.0064   22.9022 H   0  0  0  0  0  0
  -19.7921  -30.7238   24.2357 H   0  0  0  0  0  0
  -17.5001  -31.6271   24.5174 H   0  0  0  0  0  0
  -15.5343  -30.3035   23.7599 H   0  0  0  0  0  0
  -15.8636  -28.0849   22.7047 H   0  0  0  0  0  0
  -24.5979  -30.6979   25.7825 H   0  0  0  0  0  0
  -24.8972  -32.2784   26.5000 H   0  0  0  0  0  0
  -25.8187  -30.8781   27.0225 H   0  0  0  0  0  0
  -26.2864  -29.6759   24.1164 H   0  0  0  0  0  0
  -27.4142  -29.7260   25.4503 H   0  0  0  0  0  0
  -27.8664  -30.4314   23.9177 H   0  0  0  0  0  0
  -27.2750  -33.3548   26.2121 H   0  0  0  0  0  0
  -28.3857  -32.6889   25.0257 H   0  0  0  0  0  0
  -28.0830  -31.8362   26.5313 H   0  0  0  0  0  0
  -28.2609  -38.0109   24.7498 H   0  0  0  0  0  0
  -28.1089  -36.2646   24.6306 H   0  0  0  0  0  0
  -27.2298  -37.1489   25.8859 H   0  0  0  0  0  0
  -20.9265  -29.8802   21.6975 H   0  0  0  0  0  0
  -26.0203  -38.2879   24.1410 H   0  0  0  0  0  0
  -28.1522  -25.2233   16.6719 H   0  0  0  0  0  0
  -30.3025  -18.3676   20.6784 H   0  0  0  0  0  0
  -29.9096  -20.4809   21.0649 H   0  0  0  0  0  0
  -30.0386  -16.5664   24.3406 H   0  0  0  0  0  0
  -28.2651  -22.0108   19.4414 H   0  0  0  0  0  0
  -25.5976  -24.8045   24.3814 H   0  0  0  0  0  0
  -25.1481  -24.4658   22.7370 H   0  0  0  0  0  0
  -25.1985  -22.4502   24.2034 H   0  0  0  0  0  0
  -26.8604  -22.7352   24.5945 H   0  0  0  0  0  0
  -28.0779  -24.7124   23.6635 H   0  0  0  0  0  0
  -27.0916  -26.0548   23.2071 H   0  0  0  0  0  0
  -25.7476  -22.0390   21.8163 H   0  0  0  0  0  0
  -26.5332  -20.9247   22.8926 H   0  0  0  0  0  0
  -26.6552  -25.0855   21.0241 H   0  0  0  0  0  0
  -31.7649  -16.0584   22.8643 H   0  0  0  0  0  0
  -31.7730  -16.7456   21.2756 H   0  0  0  0  0  0
  -29.9200  -22.4399   22.2194 H   0  0  0  0  0  0
  -29.0440  -22.6786   23.6609 H   0  0  0  0  0  0
  -29.6207  -25.3952   20.9706 H   0  0  0  0  0  0
  -28.8809  -26.5690   21.9923 H   0  0  0  0  0  0
  -29.3622  -17.3104   26.0675 H   0  0  0  0  0  0
  -29.4990  -14.9616   22.0937 H   0  0  0  0  0  0
  -27.9014  -21.4749   21.3479 H   0  0  0  0  0  0
  1 25  1  0  0  0
  1 30  2  0  0  0
  1 91  1  0  0  0
  2  3  1  0  0  0
  2 25  1  0  0  0
  2 94  1  0  0  0
  2 95  1  0  0  0
  3  4  1  0  0  0
  3 96  1  0  0  0
  3 97  1  0  0  0
  4  5  1  0  0  0
  4 98  1  0  0  0
  4 99  1  0  0  0
  5  6  1  0  0  0
  5 26  1  0  0  0
  5100  1  0  0  0
  6 25  1  0  0  0
  6101  1  0  0  0
  6102  1  0  0  0
  7  8  2  0  0  0
  7 26  1  0  0  0
  7 29  1  0  0  0
  8  9  1  0  0  0
  8 22  1  0  0  0
  9 10  1  0  0  0
  9 27  2  0  0  0
 10 11  2  0  0  0
 10 15  1  0  0  0
 11 12  1  0  0  0
 11103  1  0  0  0
 12 13  2  0  0  0
 12104  1  0  0  0
 13 14  1  0  0  0
 13 31  1  0  0  0
 14 15  2  0  0  0
 14105  1  0  0  0
 15106  1  0  0  0
 16 17  2  0  0  0
 16 21  1  0  0  0
 16 31  1  0  0  0
 17 18  1  0  0  0
 17107  1  0  0  0
 18 19  2  0  0  0
 18108  1  0  0  0
 19 20  1  0  0  0
 19 24  1  0  0  0
 20 21  2  0  0  0
 20109  1  0  0  0
 21 23  1  0  0  0
 22 28  1  0  0  0
 22 32  2  0  0  0
 26 27  1  0  0  0
 28110  1  0  0  0
 28111  1  0  0  0
 29112  1  0  0  0
 29113  1  0  0  0
 33 34  1  0  0  0
 33 66  1  0  0  0
 33 70  2  0  0  0
 34 36  1  0  0  0
 34 59  1  0  0  0
 34114  1  0  0  0
 35 44  2  0  0  0
 35 45  1  0  0  0
 35 68  1  0  0  0
 36 56  1  0  0  0
 36115  1  0  0  0
 37 39  1  0  0  0
 37 47  1  0  0  0
 37 66  1  0  0  0
 37116  1  0  0  0
 38 43  2  0  0  0
 38 46  1  0  0  0
 38 47  1  0  0  0
 39 64  1  0  0  0
 39 67  2  0  0  0
 40 52  1  0  0  0
 40 53  2  0  0  0
 40 58  1  0  0  0
 41117  1  0  0  0
 41118  1  0  0  0
 41119  1  0  0  0
 41 48  1  0  0  0
 42 43  1  0  0  0
 42 66  1  0  0  0
 42120  1  0  0  0
 42121  1  0  0  0
 43 44  1  0  0  0
 44122  1  0  0  0
 45 46  2  0  0  0
 45123  1  0  0  0
 46124  1  0  0  0
 47125  1  0  0  0
 47126  1  0  0  0
 48 56  1  0  0  0
 48 65  1  0  0  0
 48127  1  0  0  0
 49 50  1  0  0  0
 49 53  1  0  0  0
 49 64  1  0  0  0
 49128  1  0  0  0
 50 51  1  0  0  0
 50129  1  0  0  0
 50130  1  0  0  0
 51 52  1  0  0  0
 51131  1  0  0  0
 51132  1  0  0  0
 52133  1  0  0  0
 52134  1  0  0  0
 53 54  1  0  0  0
 54 55  2  0  0  0
 54135  1  0  0  0
 55 57  1  0  0  0
 55136  1  0  0  0
 56 69  2  0  0  0
 57 58  2  0  0  0
 57137  1  0  0  0
 58138  1  0  0  0
 59 60  1  0  0  0
 59 61  1  0  0  0
 59 62  1  0  0  0
 60139  1  0  0  0
 60140  1  0  0  0
 60141  1  0  0  0
 61142  1  0  0  0
 61143  1  0  0  0
 61144  1  0  0  0
 62145  1  0  0  0
 62146  1  0  0  0
 62147  1  0  0  0
 63 65  1  0  0  0
 63148  1  0  0  0
 63149  1  0  0  0
 63150  1  0  0  0
 64151  1  0  0  0
 65152  1  0  0  0
 68 89  1  0  0  0
 71 72  3  0  0  0
 71153  1  0  0  0
 72 81  1  0  0  0
 73 74  2  0  0  0
 73 76  1  0  0  0
 73154  1  0  0  0
 74 77  1  0  0  0
 74155  1  0  0  0
 75 76  2  0  0  0
 75 79  1  0  0  0
 75156  1  0  0  0
 76 87  1  0  0  0
 77 78  2  0  0  0
 77 88  1  0  0  0
 78 79  1  0  0  0
 78 93  1  0  0  0
 79 90  2  0  0  0
 80 81  2  0  0  0
 80 86  1  0  0  0
 80 92  1  0  0  0
 81157  1  0  0  0
 82 83  1  0  0  0
 82 84  1  0  0  0
 82158  1  0  0  0
 82159  1  0  0  0
 83 85  1  0  0  0
 83160  1  0  0  0
 83161  1  0  0  0
 84 86  1  0  0  0
 84162  1  0  0  0
 84163  1  0  0  0
 85 92  1  0  0  0
 85164  1  0  0  0
 85165  1  0  0  0
 86 89  1  0  0  0
 86166  1  0  0  0
 87 91  1  0  0  0
 87167  1  0  0  0
 87168  1  0  0  0
 88169  1  0  0  0
 88170  1  0  0  0
 88 92  1  0  0  0
 89171  1  0  0  0
 89172  1  0  0  0
 90173  1  0  0  0
 91174  1  0  0  0
 92175  1  0  0  0
M  CHG  1  92   1
M  ISO  4   1 100  68 101  89 101  91 100
M  END
> <chiral flag>
0

> <version>
0

> <s_m_source_file>
/data/baiqing/PycharmProjects/Reinvent-master-3.2/result/LINK_invent/BTK/process_docking_weight1_custom_product_contain_oxygen_bond_distance_aromatic_linkinvent_7_9_3/rearranged_h_0041.sdf

> <i_m_source_file_index>
58

> <r_mmod_Potential_Energy-OPLS-2005>
-125.651504516602

> <r_mmod_Stretch_Energy-OPLS-2005>
43.452278137207

> <r_mmod_Bend_Energy-OPLS-2005>
182.641967773438

> <r_mmod_Torsional_Energy-OPLS-2005>
199.208389282227

> <r_mmod_Improper_Torsional_Energy-OPLS-2005>
2.43557190895081

> <r_mmod_Van_der_Waal_Energy-OPLS-2005>
156.413848876953

> <r_mmod_Electrostatic_Energy-OPLS-2005>
-264.712890625

> <r_mmod_Solvation_Energy-OPLS-2005>
-452.886962890625

> <b_mmod_Minimization_Converged-OPLS-2005>
0

> <r_mmod_RMS_Derivative-OPLS-2005>
3.11757302284241

$$$$
58
                    3D
 Structure written by MMmdl.
169178  0  0  1  0            999 V2000
  -30.5778  -14.7845   20.4289 C   0  0  0  0  0  0
  -30.4547  -12.4779   19.4332 C   0  0  0  0  0  0
  -29.5192  -12.5332   18.2011 C   0  0  0  0  0  0
  -28.0311  -12.3966   18.6008 C   0  0  0  0  0  0
  -27.6465  -13.2502   19.8354 C   0  0  2  0  0  0
  -28.7142  -13.1256   20.9432 C   0  0  0  0  0  0
  -25.2561  -13.8237   20.5673 C   0  0  0  0  0  0
  -24.1892  -13.0479   20.9116 C   0  0  0  0  0  0
  -24.6493  -11.6957   20.8609 C   0  0  0  0  0  0
  -23.9171  -10.4373   21.0314 C   0  0  0  0  0  0
  -24.3666   -9.4328   21.9164 C   0  0  0  0  0  0
  -23.6369   -8.2335   22.0732 C   0  0  0  0  0  0
  -22.4324   -8.0381   21.3563 C   0  0  0  0  0  0
  -21.9972   -9.0341   20.4624 C   0  0  0  0  0  0
  -22.7299  -10.2216   20.3048 C   0  0  0  0  0  0
  -21.6929   -6.0795   22.5291 C   0  0  0  0  0  0
  -21.4053   -6.5674   23.8234 C   0  0  0  0  0  0
  -21.3635   -5.6798   24.9181 C   0  0  0  0  0  0
  -21.6045   -4.3067   24.7214 C   0  0  0  0  0  0
  -21.8868   -3.8196   23.4338 C   0  0  0  0  0  0
  -21.9216   -4.7023   22.3399 C   0  0  0  0  0  0
  -22.7881  -13.5166   21.1812 C   0  0  0  0  0  0
  -22.1763   -4.2215   21.0993 F   0  0  0  0  0  0
  -21.5549   -3.4540   25.7716 F   0  0  0  0  0  0
  -29.9951  -13.5332   20.3555 N   0  0  0  0  0  0
  -26.3043  -12.9493   20.3247 N   0  0  0  0  0  0
  -25.9426  -11.6609   20.5600 N   0  0  0  0  0  0
  -22.0521  -12.8201   22.0372 N   0  0  0  0  0  0
  -25.4097  -15.2018   20.4205 N   0  0  0  0  0  0
  -31.7943  -14.9060   20.2695 O   0  0  0  0  0  0
  -21.6730   -6.8952   21.4257 O   0  0  0  0  0  0
  -22.3554  -14.5473   20.6637 O   0  0  0  0  0  0
  -24.6372  -31.8499   23.1929 C   0  0  0  0  0  0
  -25.9163  -32.4743   23.8339 C   0  0  1  0  0  0
  -27.2342  -27.2192   20.0884 C   0  0  0  0  0  0
  -25.5932  -33.8566   24.2267 N   0  0  0  0  0  0
  -23.4403  -30.4657   21.5383 C   0  0  2  0  0  0
  -24.8878  -28.9073   20.1132 C   0  0  0  0  0  0
  -22.7585  -29.4537   22.4924 C   0  0  0  0  0  0
  -18.0306  -28.1380   22.8507 C   0  0  0  0  0  0
  -24.1482  -36.7255   23.2654 C   0  0  0  0  0  0
  -25.9961  -30.7379   21.3891 C   0  0  0  0  0  0
  -26.0638  -29.3571   20.7293 C   0  0  0  0  0  0
  -27.2302  -28.5137   20.7229 C   0  0  0  0  0  0
  -26.0277  -26.8575   19.4403 C   0  0  0  0  0  0
  -24.8755  -27.6634   19.4671 C   0  0  0  0  0  0
  -23.6662  -29.8055   20.1538 C   0  0  0  0  0  0
  -25.4116  -36.3066   24.0350 C   0  0  1  0  0  0
  -20.5929  -28.3663   23.1312 C   0  0  2  0  0  0
  -20.6812  -26.9383   22.5413 C   0  0  0  0  0  0
  -19.5766  -26.6383   21.5230 C   0  0  0  0  0  0
  -18.1940  -26.7921   22.1627 C   0  0  0  0  0  0
  -19.1558  -28.8845   23.2887 C   0  0  0  0  0  0
  -18.9484  -30.1466   23.8893 C   0  0  0  0  0  0
  -17.6465  -30.6583   24.0558 C   0  0  0  0  0  0
  -25.9073  -34.9446   23.5097 C   0  0  0  0  0  0
  -16.5376  -29.9080   23.6323 C   0  0  0  0  0  0
  -16.7280  -28.6486   23.0375 C   0  0  0  0  0  0
  -26.4509  -31.6606   25.0763 C   0  0  0  0  0  0
  -25.3684  -31.3743   26.1440 C   0  0  0  0  0  0
  -27.0394  -30.3053   24.6293 C   0  0  0  0  0  0
  -27.6092  -32.4330   25.7454 C   0  0  0  0  0  0
  -27.5582  -37.1764   24.8481 C   0  0  0  0  0  0
  -21.4262  -29.2995   22.3690 N   0  0  0  0  0  0
  -26.4295  -37.3751   23.9424 N   0  0  0  0  0  0
  -24.7103  -31.0376   22.0963 N   0  0  0  0  0  0
  -23.4252  -28.8056   23.3019 O   0  0  0  0  0  0
  -28.3379  -26.3127   20.1066 O   0  0  0  0  0  0
  -26.5650  -34.8915   22.4676 O   0  0  0  0  0  0
  -23.5476  -32.1401   23.7149 O   0  0  0  0  0  0
  -29.0598  -19.8816   21.9098 C   0  0  0  0  0  0
  -28.7472  -18.7101   22.6105 C   0  0  0  0  0  0
  -29.9069  -18.4931   20.0839 C   0  0  0  0  0  0
  -29.6193  -19.8206   20.6208 C   0  0  0  0  0  0
  -28.9938  -17.4314   22.0647 C   0  0  0  0  0  0
  -29.6329  -17.2557   20.8042 C   0  0  0  0  0  0
  -28.5287  -24.9186   18.0794 C   0  0  0  0  0  0
  -28.2503  -23.5536   17.4221 C   0  0  0  0  0  0
  -29.1242  -23.6714   20.1834 C   0  0  0  0  0  0
  -28.2283  -24.8848   19.5873 C   0  0  1  0  0  0
  -29.1456  -22.4131   17.9802 C   0  0  2  0  0  0
  -28.4736  -16.2482   22.8524 C   0  0  0  0  0  0
  -29.6729  -20.8126   15.9660 C   0  0  0  0  0  0
  -30.0545  -21.2101   19.9913 C   0  0  0  0  0  0
  -28.8012  -21.1034   17.2092 C   0  0  0  0  0  0
  -29.7157  -15.8658   20.2616 N   0  0  0  0  0  0
  -29.0497  -22.2757   19.4865 N   0  3  1  0  0  0
  -31.4986  -12.6045   19.1431 H   0  0  0  0  0  0
  -30.3977  -11.4983   19.9126 H   0  0  0  0  0  0
  -29.7778  -11.7531   17.4871 H   0  0  0  0  0  0
  -29.6803  -13.4799   17.6810 H   0  0  0  0  0  0
  -27.8250  -11.3443   18.7905 H   0  0  0  0  0  0
  -27.4067  -12.6817   17.7534 H   0  0  0  0  0  0
  -27.6301  -14.2844   19.4903 H   0  0  0  0  0  0
  -28.7660  -12.0934   21.2911 H   0  0  0  0  0  0
  -28.4727  -13.7112   21.8226 H   0  0  0  0  0  0
  -25.2766   -9.5828   22.4801 H   0  0  0  0  0  0
  -24.0097   -7.4728   22.7447 H   0  0  0  0  0  0
  -21.0908   -8.8921   19.8912 H   0  0  0  0  0  0
  -22.3774  -10.9801   19.6225 H   0  0  0  0  0  0
  -21.2173   -7.6202   23.9784 H   0  0  0  0  0  0
  -21.1327   -6.0505   25.9056 H   0  0  0  0  0  0
  -22.0630   -2.7653   23.2841 H   0  0  0  0  0  0
  -22.4099  -11.9881   22.4838 H   0  0  0  0  0  0
  -21.1165  -13.1298   22.2584 H   0  0  0  0  0  0
  -24.6017  -15.8092   20.5153 H   0  0  0  0  0  0
  -26.2276  -15.6788   20.0638 H   0  0  0  0  0  0
  -26.7249  -32.5355   23.1100 H   0  0  0  0  0  0
  -25.0119  -33.9740   25.0429 H   0  0  0  0  0  0
  -22.7395  -31.2855   21.3866 H   0  0  0  0  0  0
  -23.3775  -35.9544   23.3318 H   0  0  0  0  0  0
  -24.3567  -36.8855   22.2062 H   0  0  0  0  0  0
  -23.7195  -37.6453   23.6653 H   0  0  0  0  0  0
  -26.1514  -31.4955   20.6217 H   0  0  0  0  0  0
  -26.8713  -30.7849   22.0235 H   0  0  0  0  0  0
  -28.1282  -28.8366   21.2339 H   0  0  0  0  0  0
  -25.9261  -25.9351   18.8921 H   0  0  0  0  0  0
  -23.9846  -27.3151   18.9594 H   0  0  0  0  0  0
  -23.7942  -30.5870   19.4032 H   0  0  0  0  0  0
  -22.7842  -29.2462   19.8355 H   0  0  0  0  0  0
  -25.1263  -36.1913   25.0837 H   0  0  0  0  0  0
  -21.0042  -28.3208   24.1422 H   0  0  0  0  0  0
  -20.5782  -26.2226   23.3592 H   0  0  0  0  0  0
  -21.6667  -26.7402   22.1157 H   0  0  0  0  0  0
  -19.6926  -25.6299   21.1253 H   0  0  0  0  0  0
  -19.6753  -27.3209   20.6788 H   0  0  0  0  0  0
  -17.4229  -26.6725   21.4014 H   0  0  0  0  0  0
  -18.0276  -26.0043   22.8994 H   0  0  0  0  0  0
  -19.7967  -30.7282   24.2281 H   0  0  0  0  0  0
  -17.5023  -31.6268   24.5152 H   0  0  0  0  0  0
  -15.5385  -30.2981   23.7658 H   0  0  0  0  0  0
  -15.8674  -28.0807   22.7125 H   0  0  0  0  0  0
  -24.5898  -30.7035   25.7718 H   0  0  0  0  0  0
  -24.8806  -32.2911   26.4810 H   0  0  0  0  0  0
  -25.7964  -30.8948   27.0260 H   0  0  0  0  0  0
  -26.3035  -29.6758   24.1317 H   0  0  0  0  0  0
  -27.4107  -29.7321   25.4779 H   0  0  0  0  0  0
  -27.8831  -30.4351   23.9536 H   0  0  0  0  0  0
  -27.2840  -33.3717   26.1923 H   0  0  0  0  0  0
  -28.3915  -32.6766   25.0262 H   0  0  0  0  0  0
  -28.0755  -31.8536   26.5417 H   0  0  0  0  0  0
  -28.2569  -38.0094   24.7576 H   0  0  0  0  0  0
  -28.1111  -36.2634   24.6230 H   0  0  0  0  0  0
  -27.2320  -37.1314   25.8891 H   0  0  0  0  0  0
  -20.9457  -29.8713   21.6905 H   0  0  0  0  0  0
  -26.0188  -38.2801   24.1486 H   0  0  0  0  0  0
  -28.8798  -20.8362   22.3868 H   0  0  0  0  0  0
  -28.2786  -18.8007   23.5833 H   0  0  0  0  0  0
  -30.3657  -18.4247   19.1044 H   0  0  0  0  0  0
  -27.9500  -25.7014   17.5936 H   0  0  0  0  0  0
  -29.5757  -25.1727   17.9150 H   0  0  0  0  0  0
  -28.3967  -23.6526   16.3430 H   0  0  0  0  0  0
  -27.1919  -23.3011   17.5466 H   0  0  0  0  0  0
  -28.8843  -23.5398   21.2407 H   0  0  0  0  0  0
  -30.1652  -23.9963   20.1825 H   0  0  0  0  0  0
  -27.2042  -24.5425   19.7437 H   0  0  0  0  0  0
  -30.1879  -22.6705   17.7638 H   0  0  0  0  0  0
  -29.2969  -15.5955   23.1498 H   0  0  0  0  0  0
  -27.7674  -15.7026   22.2292 H   0  0  0  0  0  0
  -27.9070  -16.5567   23.7329 H   0  0  0  0  0  0
  -30.7074  -20.5955   16.2294 H   0  0  0  0  0  0
  -29.6746  -21.6400   15.2524 H   0  0  0  0  0  0
  -29.2987  -19.9366   15.4357 H   0  0  0  0  0  0
  -30.7753  -20.9665   19.2130 H   0  0  0  0  0  0
  -30.6759  -21.6908   20.7487 H   0  0  0  0  0  0
  -27.7648  -21.1571   16.8677 H   0  0  0  0  0  0
  -28.8501  -20.2369   17.8724 H   0  0  0  0  0  0
  -28.8146  -15.5132   19.9856 H   0  0  0  0  0  0
  -28.1333  -21.9011   19.6897 H   0  0  0  0  0  0
  1 25  1  0  0  0
  1 30  2  0  0  0
  1 86  1  0  0  0
  2  3  1  0  0  0
  2 25  1  0  0  0
  2 88  1  0  0  0
  2 89  1  0  0  0
  3  4  1  0  0  0
  3 90  1  0  0  0
  3 91  1  0  0  0
  4  5  1  0  0  0
  4 92  1  0  0  0
  4 93  1  0  0  0
  5  6  1  0  0  0
  5 26  1  0  0  0
  5 94  1  0  0  0
  6 25  1  0  0  0
  6 95  1  0  0  0
  6 96  1  0  0  0
  7  8  2  0  0  0
  7 26  1  0  0  0
  7 29  1  0  0  0
  8  9  1  0  0  0
  8 22  1  0  0  0
  9 10  1  0  0  0
  9 27  2  0  0  0
 10 11  2  0  0  0
 10 15  1  0  0  0
 11 12  1  0  0  0
 11 97  1  0  0  0
 12 13  2  0  0  0
 12 98  1  0  0  0
 13 14  1  0  0  0
 13 31  1  0  0  0
 14 15  2  0  0  0
 14 99  1  0  0  0
 15100  1  0  0  0
 16 17  2  0  0  0
 16 21  1  0  0  0
 16 31  1  0  0  0
 17 18  1  0  0  0
 17101  1  0  0  0
 18 19  2  0  0  0
 18102  1  0  0  0
 19 20  1  0  0  0
 19 24  1  0  0  0
 20 21  2  0  0  0
 20103  1  0  0  0
 21 23  1  0  0  0
 22 28  1  0  0  0
 22 32  2  0  0  0
 26 27  1  0  0  0
 28104  1  0  0  0
 28105  1  0  0  0
 29106  1  0  0  0
 29107  1  0  0  0
 33 34  1  0  0  0
 33 66  1  0  0  0
 33 70  2  0  0  0
 34 36  1  0  0  0
 34 59  1  0  0  0
 34108  1  0  0  0
 35 44  2  0  0  0
 35 45  1  0  0  0
 35 68  1  0  0  0
 36 56  1  0  0  0
 36109  1  0  0  0
 37 39  1  0  0  0
 37 47  1  0  0  0
 37 66  1  0  0  0
 37110  1  0  0  0
 38 43  2  0  0  0
 38 46  1  0  0  0
 38 47  1  0  0  0
 39 64  1  0  0  0
 39 67  2  0  0  0
 40 52  1  0  0  0
 40 53  2  0  0  0
 40 58  1  0  0  0
 41111  1  0  0  0
 41112  1  0  0  0
 41113  1  0  0  0
 41 48  1  0  0  0
 42 43  1  0  0  0
 42 66  1  0  0  0
 42114  1  0  0  0
 42115  1  0  0  0
 43 44  1  0  0  0
 44116  1  0  0  0
 45 46  2  0  0  0
 45117  1  0  0  0
 46118  1  0  0  0
 47119  1  0  0  0
 47120  1  0  0  0
 48 56  1  0  0  0
 48 65  1  0  0  0
 48121  1  0  0  0
 49 50  1  0  0  0
 49 53  1  0  0  0
 49 64  1  0  0  0
 49122  1  0  0  0
 50 51  1  0  0  0
 50123  1  0  0  0
 50124  1  0  0  0
 51 52  1  0  0  0
 51125  1  0  0  0
 51126  1  0  0  0
 52127  1  0  0  0
 52128  1  0  0  0
 53 54  1  0  0  0
 54 55  2  0  0  0
 54129  1  0  0  0
 55 57  1  0  0  0
 55130  1  0  0  0
 56 69  2  0  0  0
 57 58  2  0  0  0
 57131  1  0  0  0
 58132  1  0  0  0
 59 60  1  0  0  0
 59 61  1  0  0  0
 59 62  1  0  0  0
 60133  1  0  0  0
 60134  1  0  0  0
 60135  1  0  0  0
 61136  1  0  0  0
 61137  1  0  0  0
 61138  1  0  0  0
 62139  1  0  0  0
 62140  1  0  0  0
 62141  1  0  0  0
 63 65  1  0  0  0
 63142  1  0  0  0
 63143  1  0  0  0
 63144  1  0  0  0
 64145  1  0  0  0
 65146  1  0  0  0
 68 80  1  0  0  0
 71 72  2  0  0  0
 71 74  1  0  0  0
 71147  1  0  0  0
 72 75  1  0  0  0
 72148  1  0  0  0
 73 74  2  0  0  0
 73 76  1  0  0  0
 73149  1  0  0  0
 74 84  1  0  0  0
 75 76  2  0  0  0
 75 82  1  0  0  0
 76 86  1  0  0  0
 77 78  1  0  0  0
 77 80  1  0  0  0
 77150  1  0  0  0
 77151  1  0  0  0
 78 81  1  0  0  0
 78152  1  0  0  0
 78153  1  0  0  0
 79 80  1  0  0  0
 79 87  1  0  0  0
 79154  1  0  0  0
 79155  1  0  0  0
 80156  1  0  0  0
 81 85  1  0  0  0
 81 87  1  0  0  0
 81157  1  0  0  0
 82158  1  0  0  0
 82159  1  0  0  0
 82160  1  0  0  0
 83 85  1  0  0  0
 83161  1  0  0  0
 83162  1  0  0  0
 83163  1  0  0  0
 84164  1  0  0  0
 84165  1  0  0  0
 84 87  1  0  0  0
 85166  1  0  0  0
 85167  1  0  0  0
 86168  1  0  0  0
 87169  1  0  0  0
M  CHG  1  87   1
M  ISO  4   1 100  68 101  80 101  86 100
M  END
> <chiral flag>
0

> <version>
0

> <s_m_source_file>
/data/baiqing/PycharmProjects/Reinvent-master-3.2/result/LINK_invent/BTK/process_docking_weight1_custom_product_contain_oxygen_bond_distance_aromatic_linkinvent_7_9_3/rearranged_h_0041.sdf

> <i_m_source_file_index>
59

> <r_mmod_Potential_Energy-OPLS-2005>
216.537109375

> <r_mmod_Stretch_Energy-OPLS-2005>
146.986541748047

> <r_mmod_Bend_Energy-OPLS-2005>
196.860794067383

> <r_mmod_Torsional_Energy-OPLS-2005>
300.377807617188

> <r_mmod_Improper_Torsional_Energy-OPLS-2005>
16.130952835083

> <r_mmod_Van_der_Waal_Energy-OPLS-2005>
137.436859130859

> <r_mmod_Electrostatic_Energy-OPLS-2005>
-269.89794921875

> <r_mmod_Solvation_Energy-OPLS-2005>
-420.930358886719

> <b_mmod_Minimization_Converged-OPLS-2005>
0

> <r_mmod_RMS_Derivative-OPLS-2005>
9.30195617675781

$$$$
59
                    3D
 Structure written by MMmdl.
170179  0  0  1  0            999 V2000
  -30.6954  -14.4564   20.5774 C   0  0  0  0  0  0
  -30.4385  -12.3073   19.4099 C   0  0  0  0  0  0
  -29.4900  -12.5036   18.2082 C   0  0  0  0  0  0
  -28.0158  -12.3642   18.6308 C   0  0  0  0  0  0
  -27.6685  -13.1957   19.8900 C   0  0  2  0  0  0
  -28.7161  -12.9593   21.0002 C   0  0  0  0  0  0
  -25.2632  -13.8139   20.5765 C   0  0  0  0  0  0
  -24.1853  -13.0428   20.9202 C   0  0  0  0  0  0
  -24.6401  -11.6888   20.8759 C   0  0  0  0  0  0
  -23.9042  -10.4297   21.0442 C   0  0  0  0  0  0
  -24.3589   -9.4215   21.9243 C   0  0  0  0  0  0
  -23.6251   -8.2247   22.0782 C   0  0  0  0  0  0
  -22.4246   -8.0280   21.3551 C   0  0  0  0  0  0
  -21.9901   -9.0265   20.4657 C   0  0  0  0  0  0
  -22.7218  -10.2153   20.3084 C   0  0  0  0  0  0
  -21.6851   -6.0737   22.5281 C   0  0  0  0  0  0
  -21.4020   -6.5645   23.8219 C   0  0  0  0  0  0
  -21.3651   -5.6804   24.9191 C   0  0  0  0  0  0
  -21.6030   -4.3060   24.7239 C   0  0  0  0  0  0
  -21.8826   -3.8159   23.4361 C   0  0  0  0  0  0
  -21.9195   -4.6966   22.3414 C   0  0  0  0  0  0
  -22.7895  -13.5225   21.1859 C   0  0  0  0  0  0
  -22.1662   -4.2157   21.0986 F   0  0  0  0  0  0
  -21.5623   -3.4534   25.7746 F   0  0  0  0  0  0
  -30.0484  -13.2687   20.4503 N   0  0  0  0  0  0
  -26.3076  -12.9305   20.3473 N   0  0  0  0  0  0
  -25.9341  -11.6485   20.5841 N   0  0  0  0  0  0
  -22.0506  -12.8238   22.0393 N   0  0  0  0  0  0
  -25.4321  -15.1883   20.4309 N   0  0  0  0  0  0
  -31.8201  -14.6659   20.1137 O   0  0  0  0  0  0
  -21.6605   -6.8874   21.4236 O   0  0  0  0  0  0
  -22.3597  -14.5545   20.6683 O   0  0  0  0  0  0
  -24.6203  -31.8684   23.2036 C   0  0  0  0  0  0
  -25.9074  -32.4816   23.8390 C   0  0  1  0  0  0
  -27.2337  -27.3962   20.1068 C   0  0  0  0  0  0
  -25.5926  -33.8617   24.2301 N   0  0  0  0  0  0
  -23.4079  -30.4887   21.5474 C   0  0  2  0  0  0
  -24.8550  -28.9531   20.1098 C   0  0  0  0  0  0
  -22.7467  -29.4655   22.4983 C   0  0  0  0  0  0
  -18.0296  -28.1401   22.8501 C   0  0  0  0  0  0
  -24.1499  -36.7342   23.2636 C   0  0  0  0  0  0
  -25.9390  -30.8197   21.3613 C   0  0  0  0  0  0
  -26.0141  -29.4482   20.7157 C   0  0  0  0  0  0
  -27.2060  -28.6782   20.7103 C   0  0  0  0  0  0
  -26.0602  -26.9478   19.4535 C   0  0  0  0  0  0
  -24.8754  -27.7036   19.4687 C   0  0  0  0  0  0
  -23.6157  -29.8196   20.1628 C   0  0  0  0  0  0
  -25.4125  -36.3116   24.0340 C   0  0  1  0  0  0
  -20.5885  -28.3701   23.1320 C   0  0  2  0  0  0
  -20.6779  -26.9442   22.5417 C   0  0  0  0  0  0
  -19.5746  -26.6410   21.5216 C   0  0  0  0  0  0
  -18.1930  -26.7956   22.1633 C   0  0  0  0  0  0
  -19.1546  -28.8880   23.2896 C   0  0  0  0  0  0
  -18.9465  -30.1489   23.8907 C   0  0  0  0  0  0
  -17.6454  -30.6595   24.0585 C   0  0  0  0  0  0
  -25.9084  -34.9474   23.5125 C   0  0  0  0  0  0
  -16.5351  -29.9093   23.6313 C   0  0  0  0  0  0
  -16.7284  -28.6504   23.0354 C   0  0  0  0  0  0
  -26.4449  -31.6582   25.0727 C   0  0  0  0  0  0
  -25.3669  -31.3656   26.1422 C   0  0  0  0  0  0
  -27.0256  -30.3019   24.6110 C   0  0  0  0  0  0
  -27.6055  -32.4242   25.7524 C   0  0  0  0  0  0
  -27.5580  -37.1823   24.8458 C   0  0  0  0  0  0
  -21.4197  -29.3041   22.3720 N   0  0  0  0  0  0
  -26.4298  -37.3820   23.9404 N   0  0  0  0  0  0
  -24.6742  -31.0769   22.0948 N   0  0  0  0  0  0
  -23.4211  -28.8222   23.3071 O   0  0  0  0  0  0
  -28.3894  -26.6204   20.1545 O   0  0  0  0  0  0
  -26.5668  -34.8941   22.4701 O   0  0  0  0  0  0
  -23.5372  -32.1438   23.7386 O   0  0  0  0  0  0
  -30.8566  -19.0788   20.7748 C   0  0  0  0  0  0
  -29.0143  -17.2105   19.7782 C   0  0  0  0  0  0
  -30.9033  -17.7351   21.2344 C   0  0  0  0  0  0
  -29.9139  -19.4969   19.7942 C   0  0  0  0  0  0
  -29.9791  -16.7898   20.7207 C   0  0  0  0  0  0
  -29.0039  -18.5325   19.2933 C   0  0  0  0  0  0
  -28.4180  -22.9729   19.0373 C   0  0  0  0  0  0
  -27.2201  -22.6079   18.5325 C   0  0  0  0  0  0
  -28.8855  -24.4281   19.0588 C   0  0  0  0  0  0
  -28.2613  -23.1682   21.8905 C   0  0  0  0  0  0
  -28.7853  -24.6056   21.5867 C   0  0  0  0  0  0
  -29.0084  -21.9465   21.2641 C   0  0  0  0  0  0
  -28.2412  -25.1762   20.2512 C   0  0  1  0  0  0
  -31.9579  -17.3088   22.2528 C   0  0  0  0  0  0
  -26.5382  -21.2629   18.5708 C   0  0  0  0  0  0
  -29.9774  -20.9048   19.1451 C   0  0  0  0  0  0
  -29.9629  -15.4324   21.1433 N   0  0  0  0  0  0
  -29.3651  -22.1015   19.8288 N   0  3  1  0  0  0
  -28.1422  -18.8409   18.2958 F   0  0  0  0  0  0
  -31.4741  -12.4380   19.0851 H   0  0  0  0  0  0
  -30.3712  -11.2880   19.7959 H   0  0  0  0  0  0
  -29.7191  -11.7801   17.4249 H   0  0  0  0  0  0
  -29.6527  -13.4866   17.7674 H   0  0  0  0  0  0
  -27.8272  -11.3070   18.8205 H   0  0  0  0  0  0
  -27.3580  -12.6466   17.8092 H   0  0  0  0  0  0
  -27.7119  -14.2428   19.6030 H   0  0  0  0  0  0
  -28.6947  -11.9201   21.3294 H   0  0  0  0  0  0
  -28.4824  -13.5421   21.8917 H   0  0  0  0  0  0
  -25.2747   -9.5674   22.4816 H   0  0  0  0  0  0
  -23.9963   -7.4636   22.7509 H   0  0  0  0  0  0
  -21.0851   -8.8773   19.8958 H   0  0  0  0  0  0
  -22.3681  -10.9695   19.6178 H   0  0  0  0  0  0
  -21.2004   -7.6155   23.9707 H   0  0  0  0  0  0
  -21.1465   -6.0552   25.9085 H   0  0  0  0  0  0
  -22.0605   -2.7616   23.2876 H   0  0  0  0  0  0
  -22.4086  -11.9870   22.4778 H   0  0  0  0  0  0
  -21.1141  -13.1329   22.2602 H   0  0  0  0  0  0
  -24.6671  -15.8435   20.5533 H   0  0  0  0  0  0
  -26.3023  -15.6407   20.1848 H   0  0  0  0  0  0
  -26.7159  -32.5494   23.1178 H   0  0  0  0  0  0
  -24.9982  -33.9798   25.0371 H   0  0  0  0  0  0
  -22.6957  -31.3036   21.4035 H   0  0  0  0  0  0
  -23.3759  -35.9677   23.3278 H   0  0  0  0  0  0
  -24.3543  -36.8987   22.2039 H   0  0  0  0  0  0
  -23.7265  -37.6556   23.6679 H   0  0  0  0  0  0
  -26.0425  -31.5766   20.5823 H   0  0  0  0  0  0
  -26.8322  -30.8859   21.9710 H   0  0  0  0  0  0
  -28.0967  -29.0587   21.1882 H   0  0  0  0  0  0
  -26.0375  -26.0138   18.9118 H   0  0  0  0  0  0
  -23.9971  -27.3246   18.9632 H   0  0  0  0  0  0
  -23.7132  -30.5894   19.3988 H   0  0  0  0  0  0
  -22.7420  -29.2373   19.8688 H   0  0  0  0  0  0
  -25.1284  -36.1990   25.0839 H   0  0  0  0  0  0
  -20.9956  -28.3274   24.1453 H   0  0  0  0  0  0
  -20.5704  -26.2336   23.3628 H   0  0  0  0  0  0
  -21.6653  -26.7473   22.1214 H   0  0  0  0  0  0
  -19.6927  -25.6314   21.1274 H   0  0  0  0  0  0
  -19.6683  -27.3200   20.6727 H   0  0  0  0  0  0
  -17.4215  -26.6736   21.4028 H   0  0  0  0  0  0
  -18.0307  -26.0096   22.9015 H   0  0  0  0  0  0
  -19.7926  -30.7317   24.2287 H   0  0  0  0  0  0
  -17.4996  -31.6263   24.5225 H   0  0  0  0  0  0
  -15.5356  -30.3009   23.7619 H   0  0  0  0  0  0
  -15.8692  -28.0830   22.7056 H   0  0  0  0  0  0
  -24.5931  -30.6930   25.7687 H   0  0  0  0  0  0
  -24.8738  -32.2769   26.4819 H   0  0  0  0  0  0
  -25.7993  -30.8854   27.0205 H   0  0  0  0  0  0
  -26.2767  -29.6843   24.1139 H   0  0  0  0  0  0
  -27.3934  -29.7232   25.4591 H   0  0  0  0  0  0
  -27.8669  -30.4296   23.9296 H   0  0  0  0  0  0
  -27.2718  -33.3510   26.2202 H   0  0  0  0  0  0
  -28.3865  -32.6818   25.0358 H   0  0  0  0  0  0
  -28.0749  -31.8272   26.5358 H   0  0  0  0  0  0
  -28.2610  -38.0105   24.7517 H   0  0  0  0  0  0
  -28.1085  -36.2651   24.6303 H   0  0  0  0  0  0
  -27.2298  -37.1475   25.8858 H   0  0  0  0  0  0
  -20.9423  -29.8757   21.6890 H   0  0  0  0  0  0
  -26.0202  -38.2917   24.1395 H   0  0  0  0  0  0
  -31.5890  -19.7808   21.1493 H   0  0  0  0  0  0
  -28.2974  -16.5112   19.3703 H   0  0  0  0  0  0
  -26.6332  -23.3699   18.0406 H   0  0  0  0  0  0
  -28.6039  -24.8964   18.1143 H   0  0  0  0  0  0
  -29.9734  -24.4922   19.1096 H   0  0  0  0  0  0
  -27.2080  -23.1170   21.6149 H   0  0  0  0  0  0
  -28.2522  -23.0197   22.9704 H   0  0  0  0  0  0
  -29.8758  -24.6332   21.6141 H   0  0  0  0  0  0
  -28.4567  -25.2613   22.3953 H   0  0  0  0  0  0
  -28.3733  -21.0663   21.3848 H   0  0  0  0  0  0
  -29.9231  -21.7432   21.8241 H   0  0  0  0  0  0
  -27.1847  -24.9186   20.2707 H   0  0  0  0  0  0
  -32.4380  -18.1655   22.7258 H   0  0  0  0  0  0
  -32.7405  -16.7122   21.7774 H   0  0  0  0  0  0
  -31.5150  -16.6984   23.0422 H   0  0  0  0  0  0
  -26.8625  -20.6573   19.4198 H   0  0  0  0  0  0
  -26.7195  -20.7419   17.6294 H   0  0  0  0  0  0
  -25.4582  -21.4085   18.6588 H   0  0  0  0  0  0
  -29.5787  -20.8285   18.1340 H   0  0  0  0  0  0
  -31.0352  -21.1347   19.0044 H   0  0  0  0  0  0
  -29.0684  -15.0958   21.4630 H   0  0  0  0  0  0
  -30.1954  -22.6738   19.8988 H   0  0  0  0  0  0
  1 25  1  0  0  0
  1 30  2  0  0  0
  1 87  1  0  0  0
  2  3  1  0  0  0
  2 25  1  0  0  0
  2 90  1  0  0  0
  2 91  1  0  0  0
  3  4  1  0  0  0
  3 92  1  0  0  0
  3 93  1  0  0  0
  4  5  1  0  0  0
  4 94  1  0  0  0
  4 95  1  0  0  0
  5  6  1  0  0  0
  5 26  1  0  0  0
  5 96  1  0  0  0
  6 25  1  0  0  0
  6 97  1  0  0  0
  6 98  1  0  0  0
  7  8  2  0  0  0
  7 26  1  0  0  0
  7 29  1  0  0  0
  8  9  1  0  0  0
  8 22  1  0  0  0
  9 10  1  0  0  0
  9 27  2  0  0  0
 10 11  2  0  0  0
 10 15  1  0  0  0
 11 12  1  0  0  0
 11 99  1  0  0  0
 12 13  2  0  0  0
 12100  1  0  0  0
 13 14  1  0  0  0
 13 31  1  0  0  0
 14 15  2  0  0  0
 14101  1  0  0  0
 15102  1  0  0  0
 16 17  2  0  0  0
 16 21  1  0  0  0
 16 31  1  0  0  0
 17 18  1  0  0  0
 17103  1  0  0  0
 18 19  2  0  0  0
 18104  1  0  0  0
 19 20  1  0  0  0
 19 24  1  0  0  0
 20 21  2  0  0  0
 20105  1  0  0  0
 21 23  1  0  0  0
 22 28  1  0  0  0
 22 32  2  0  0  0
 26 27  1  0  0  0
 28106  1  0  0  0
 28107  1  0  0  0
 29108  1  0  0  0
 29109  1  0  0  0
 33 34  1  0  0  0
 33 66  1  0  0  0
 33 70  2  0  0  0
 34 36  1  0  0  0
 34 59  1  0  0  0
 34110  1  0  0  0
 35 44  2  0  0  0
 35 45  1  0  0  0
 35 68  1  0  0  0
 36 56  1  0  0  0
 36111  1  0  0  0
 37 39  1  0  0  0
 37 47  1  0  0  0
 37 66  1  0  0  0
 37112  1  0  0  0
 38 43  2  0  0  0
 38 46  1  0  0  0
 38 47  1  0  0  0
 39 64  1  0  0  0
 39 67  2  0  0  0
 40 52  1  0  0  0
 40 53  2  0  0  0
 40 58  1  0  0  0
 41113  1  0  0  0
 41114  1  0  0  0
 41115  1  0  0  0
 41 48  1  0  0  0
 42 43  1  0  0  0
 42 66  1  0  0  0
 42116  1  0  0  0
 42117  1  0  0  0
 43 44  1  0  0  0
 44118  1  0  0  0
 45 46  2  0  0  0
 45119  1  0  0  0
 46120  1  0  0  0
 47121  1  0  0  0
 47122  1  0  0  0
 48 56  1  0  0  0
 48 65  1  0  0  0
 48123  1  0  0  0
 49 50  1  0  0  0
 49 53  1  0  0  0
 49 64  1  0  0  0
 49124  1  0  0  0
 50 51  1  0  0  0
 50125  1  0  0  0
 50126  1  0  0  0
 51 52  1  0  0  0
 51127  1  0  0  0
 51128  1  0  0  0
 52129  1  0  0  0
 52130  1  0  0  0
 53 54  1  0  0  0
 54 55  2  0  0  0
 54131  1  0  0  0
 55 57  1  0  0  0
 55132  1  0  0  0
 56 69  2  0  0  0
 57 58  2  0  0  0
 57133  1  0  0  0
 58134  1  0  0  0
 59 60  1  0  0  0
 59 61  1  0  0  0
 59 62  1  0  0  0
 60135  1  0  0  0
 60136  1  0  0  0
 60137  1  0  0  0
 61138  1  0  0  0
 61139  1  0  0  0
 61140  1  0  0  0
 62141  1  0  0  0
 62142  1  0  0  0
 62143  1  0  0  0
 63 65  1  0  0  0
 63144  1  0  0  0
 63145  1  0  0  0
 63146  1  0  0  0
 64147  1  0  0  0
 65148  1  0  0  0
 68 83  1  0  0  0
 71 73  2  0  0  0
 71 74  1  0  0  0
 71149  1  0  0  0
 72 75  2  0  0  0
 72 76  1  0  0  0
 72150  1  0  0  0
 73 75  1  0  0  0
 73 84  1  0  0  0
 74 76  2  0  0  0
 74 86  1  0  0  0
 75 87  1  0  0  0
 76 89  1  0  0  0
 77 78  2  0  0  0
 77 79  1  0  0  0
 77 88  1  0  0  0
 78 85  1  0  0  0
 78151  1  0  0  0
 79 83  1  0  0  0
 79152  1  0  0  0
 79153  1  0  0  0
 80 81  1  0  0  0
 80 82  1  0  0  0
 80154  1  0  0  0
 80155  1  0  0  0
 81 83  1  0  0  0
 81156  1  0  0  0
 81157  1  0  0  0
 82 88  1  0  0  0
 82158  1  0  0  0
 82159  1  0  0  0
 83160  1  0  0  0
 84161  1  0  0  0
 84162  1  0  0  0
 84163  1  0  0  0
 85164  1  0  0  0
 85165  1  0  0  0
 85166  1  0  0  0
 86167  1  0  0  0
 86168  1  0  0  0
 86 88  1  0  0  0
 87169  1  0  0  0
 88170  1  0  0  0
M  CHG  1  88   1
M  ISO  4   1 100  68 101  83 101  87 100
M  END
> <chiral flag>
0

> <version>
0

> <s_m_source_file>
/data/baiqing/PycharmProjects/Reinvent-master-3.2/result/LINK_invent/BTK/process_docking_weight1_custom_product_contain_oxygen_bond_distance_aromatic_linkinvent_7_9_3/rearranged_h_0041.sdf

> <i_m_source_file_index>
60

> <r_mmod_Potential_Energy-OPLS-2005>
-95.3747253417969

> <r_mmod_Stretch_Energy-OPLS-2005>
49.3300704956055

> <r_mmod_Bend_Energy-OPLS-2005>
137.696502685547

> <r_mmod_Torsional_Energy-OPLS-2005>
277.069000244141

> <r_mmod_Improper_Torsional_Energy-OPLS-2005>
6.50161838531494

> <r_mmod_Van_der_Waal_Energy-OPLS-2005>
150.856094360352

> <r_mmod_Electrostatic_Energy-OPLS-2005>
-299.794494628906

> <r_mmod_Solvation_Energy-OPLS-2005>
-433.355224609375

> <b_mmod_Minimization_Converged-OPLS-2005>
0

> <r_mmod_RMS_Derivative-OPLS-2005>
5.04678726196289

$$$$
60
                    3D
 Structure written by MMmdl.
163171  0  0  1  0            999 V2000
  -30.7476  -14.4348   20.5123 C   0  0  0  0  0  0
  -30.4013  -12.2754   19.4155 C   0  0  0  0  0  0
  -29.4813  -12.5007   18.1990 C   0  0  0  0  0  0
  -28.0069  -12.3646   18.6190 C   0  0  0  0  0  0
  -27.6581  -13.2142   19.8703 C   0  0  2  0  0  0
  -28.7047  -13.0260   20.9931 C   0  0  0  0  0  0
  -25.2565  -13.8166   20.5685 C   0  0  0  0  0  0
  -24.1821  -13.0418   20.9148 C   0  0  0  0  0  0
  -24.6396  -11.6895   20.8728 C   0  0  0  0  0  0
  -23.9052  -10.4290   21.0404 C   0  0  0  0  0  0
  -24.3610   -9.4210   21.9197 C   0  0  0  0  0  0
  -23.6296   -8.2241   22.0772 C   0  0  0  0  0  0
  -22.4286   -8.0273   21.3543 C   0  0  0  0  0  0
  -21.9901   -9.0247   20.4647 C   0  0  0  0  0  0
  -22.7217  -10.2134   20.3061 C   0  0  0  0  0  0
  -21.6856   -6.0739   22.5279 C   0  0  0  0  0  0
  -21.4013   -6.5645   23.8211 C   0  0  0  0  0  0
  -21.3655   -5.6795   24.9176 C   0  0  0  0  0  0
  -21.6045   -4.3058   24.7231 C   0  0  0  0  0  0
  -21.8819   -3.8143   23.4348 C   0  0  0  0  0  0
  -21.9192   -4.6959   22.3401 C   0  0  0  0  0  0
  -22.7844  -13.5227   21.1823 C   0  0  0  0  0  0
  -22.1657   -4.2143   21.0975 F   0  0  0  0  0  0
  -21.5642   -3.4542   25.7746 F   0  0  0  0  0  0
  -30.0369  -13.2818   20.4246 N   0  0  0  0  0  0
  -26.3018  -12.9357   20.3377 N   0  0  0  0  0  0
  -25.9333  -11.6505   20.5791 N   0  0  0  0  0  0
  -22.0478  -12.8240   22.0393 N   0  0  0  0  0  0
  -25.4283  -15.1876   20.4173 N   0  0  0  0  0  0
  -31.9220  -14.5036   20.1535 O   0  0  0  0  0  0
  -21.6638   -6.8881   21.4244 O   0  0  0  0  0  0
  -22.3527  -14.5544   20.6696 O   0  0  0  0  0  0
  -24.6037  -31.8742   23.2114 C   0  0  0  0  0  0
  -25.8971  -32.4862   23.8395 C   0  0  1  0  0  0
  -27.2703  -27.4992   20.1149 C   0  0  0  0  0  0
  -25.5865  -33.8663   24.2337 N   0  0  0  0  0  0
  -23.3878  -30.4901   21.5513 C   0  0  2  0  0  0
  -24.8415  -28.9583   20.1144 C   0  0  0  0  0  0
  -22.7340  -29.4668   22.5039 C   0  0  0  0  0  0
  -18.0254  -28.1365   22.8497 C   0  0  0  0  0  0
  -24.1487  -36.7347   23.2633 C   0  0  0  0  0  0
  -25.9007  -30.8649   21.3459 C   0  0  0  0  0  0
  -25.9842  -29.4961   20.7118 C   0  0  0  0  0  0
  -27.1881  -28.7752   20.7228 C   0  0  0  0  0  0
  -26.1116  -26.9681   19.5081 C   0  0  0  0  0  0
  -24.8959  -27.6879   19.5103 C   0  0  0  0  0  0
  -23.5927  -29.8109   20.1665 C   0  0  0  0  0  0
  -25.4103  -36.3145   24.0333 C   0  0  1  0  0  0
  -20.5832  -28.3642   23.1347 C   0  0  2  0  0  0
  -20.6745  -26.9388   22.5433 C   0  0  0  0  0  0
  -19.5742  -26.6371   21.5207 C   0  0  0  0  0  0
  -18.1905  -26.7915   22.1600 C   0  0  0  0  0  0
  -19.1493  -28.8814   23.2933 C   0  0  0  0  0  0
  -18.9439  -30.1420   23.8946 C   0  0  0  0  0  0
  -17.6449  -30.6591   24.0558 C   0  0  0  0  0  0
  -25.9028  -34.9506   23.5141 C   0  0  0  0  0  0
  -16.5340  -29.9107   23.6304 C   0  0  0  0  0  0
  -16.7239  -28.6502   23.0362 C   0  0  0  0  0  0
  -26.4444  -31.6601   25.0668 C   0  0  0  0  0  0
  -25.3745  -31.3708   26.1453 C   0  0  0  0  0  0
  -27.0211  -30.3036   24.5951 C   0  0  0  0  0  0
  -27.6054  -32.4286   25.7427 C   0  0  0  0  0  0
  -27.5587  -37.1835   24.8457 C   0  0  0  0  0  0
  -21.4079  -29.3011   22.3758 N   0  0  0  0  0  0
  -26.4292  -37.3829   23.9411 N   0  0  0  0  0  0
  -24.6493  -31.0893   22.0974 N   0  0  0  0  0  0
  -23.4147  -28.8230   23.3065 O   0  0  0  0  0  0
  -28.4321  -26.7537   20.0816 O   0  0  0  0  0  0
  -26.5610  -34.8953   22.4709 O   0  0  0  0  0  0
  -23.5255  -32.1461   23.7557 O   0  0  0  0  0  0
  -29.3380  -19.1316   20.0435 C   0  0  0  0  0  0
  -31.3913  -17.2870   19.5965 C   0  0  0  0  0  0
  -30.4459  -19.5111   19.2517 C   0  0  0  0  0  0
  -30.2556  -16.8745   20.3452 C   0  0  0  0  0  0
  -29.2381  -17.8276   20.5767 C   0  0  0  0  0  0
  -31.4855  -18.5786   19.0514 C   0  0  0  0  0  0
  -32.0715  -24.0733   19.0808 C   0  0  0  0  0  0
  -30.4742  -20.8705   18.5561 C   0  0  0  0  0  0
  -31.7958  -22.9294   18.1223 C   0  0  0  0  0  0
  -30.6869  -26.2346   20.9348 C   0  0  0  0  0  0
  -31.5612  -26.4229   19.6743 C   0  0  0  0  0  0
  -29.4662  -27.1580   20.9851 C   0  0  0  0  0  0
  -30.0499  -15.5380   20.8348 N   0  0  0  0  0  0
  -31.5178  -25.2566   18.7989 N   0  0  0  0  0  0
  -31.6526  -21.6882   18.9056 N   0  3  0  0  0  0
  -32.7371  -23.8685   20.0981 O   0  0  0  0  0  0
  -27.8319  -17.3944   21.4834 Cl  0  0  0  0  0  0
  -32.8878  -18.9798   18.1207 Cl  0  0  0  0  0  0
  -31.4468  -12.3364   19.1089 H   0  0  0  0  0  0
  -30.2642  -11.2721   19.8202 H   0  0  0  0  0  0
  -29.7114  -11.7868   17.4068 H   0  0  0  0  0  0
  -29.6567  -13.4923   17.7772 H   0  0  0  0  0  0
  -27.8173  -11.3101   18.8219 H   0  0  0  0  0  0
  -27.3536  -12.6367   17.7887 H   0  0  0  0  0  0
  -27.6888  -14.2578   19.5564 H   0  0  0  0  0  0
  -28.6663  -12.0078   21.3830 H   0  0  0  0  0  0
  -28.4915  -13.6793   21.8399 H   0  0  0  0  0  0
  -25.2760   -9.5702   22.4763 H   0  0  0  0  0  0
  -24.0001   -7.4646   22.7510 H   0  0  0  0  0  0
  -21.0824   -8.8771   19.8967 H   0  0  0  0  0  0
  -22.3672  -10.9686   19.6184 H   0  0  0  0  0  0
  -21.2006   -7.6156   23.9714 H   0  0  0  0  0  0
  -21.1480   -6.0528   25.9081 H   0  0  0  0  0  0
  -22.0607   -2.7601   23.2849 H   0  0  0  0  0  0
  -22.4055  -11.9875   22.4758 H   0  0  0  0  0  0
  -21.1135  -13.1360   22.2643 H   0  0  0  0  0  0
  -24.6763  -15.8467   20.5828 H   0  0  0  0  0  0
  -26.3098  -15.6399   20.2117 H   0  0  0  0  0  0
  -26.7052  -32.5633   23.1195 H   0  0  0  0  0  0
  -25.0021  -33.9845   25.0482 H   0  0  0  0  0  0
  -22.6731  -31.3031   21.4121 H   0  0  0  0  0  0
  -23.3750  -35.9683   23.3298 H   0  0  0  0  0  0
  -24.3587  -36.8960   22.2049 H   0  0  0  0  0  0
  -23.7234  -37.6544   23.6656 H   0  0  0  0  0  0
  -25.9800  -31.6226   20.5637 H   0  0  0  0  0  0
  -26.7980  -30.9468   21.9454 H   0  0  0  0  0  0
  -28.0373  -29.2355   21.2028 H   0  0  0  0  0  0
  -26.1525  -25.9955   19.0391 H   0  0  0  0  0  0
  -24.0172  -27.2614   19.0459 H   0  0  0  0  0  0
  -23.6813  -30.5836   19.4027 H   0  0  0  0  0  0
  -22.7228  -29.2166   19.8819 H   0  0  0  0  0  0
  -25.1264  -36.2034   25.0823 H   0  0  0  0  0  0
  -20.9920  -28.3205   24.1467 H   0  0  0  0  0  0
  -20.5627  -26.2252   23.3609 H   0  0  0  0  0  0
  -21.6628  -26.7442   22.1245 H   0  0  0  0  0  0
  -19.6930  -25.6280   21.1238 H   0  0  0  0  0  0
  -19.6697  -27.3166   20.6731 H   0  0  0  0  0  0
  -17.4181  -26.6655   21.4000 H   0  0  0  0  0  0
  -18.0326  -26.0025   22.8963 H   0  0  0  0  0  0
  -19.7921  -30.7190   24.2367 H   0  0  0  0  0  0
  -17.5024  -31.6276   24.5150 H   0  0  0  0  0  0
  -15.5348  -30.3055   23.7591 H   0  0  0  0  0  0
  -15.8623  -28.0838   22.7094 H   0  0  0  0  0  0
  -24.5863  -30.7123   25.7786 H   0  0  0  0  0  0
  -24.9016  -32.2884   26.4969 H   0  0  0  0  0  0
  -25.8100  -30.8809   27.0169 H   0  0  0  0  0  0
  -26.2674  -29.6849   24.1064 H   0  0  0  0  0  0
  -27.4050  -29.7213   25.4340 H   0  0  0  0  0  0
  -27.8498  -30.4335   23.8979 H   0  0  0  0  0  0
  -27.2680  -33.3554   26.2082 H   0  0  0  0  0  0
  -28.3843  -32.6900   25.0244 H   0  0  0  0  0  0
  -28.0771  -31.8366   26.5287 H   0  0  0  0  0  0
  -28.2613  -38.0131   24.7509 H   0  0  0  0  0  0
  -28.1075  -36.2663   24.6263 H   0  0  0  0  0  0
  -27.2325  -37.1467   25.8868 H   0  0  0  0  0  0
  -20.9215  -29.8729   21.6984 H   0  0  0  0  0  0
  -26.0187  -38.2901   24.1443 H   0  0  0  0  0  0
  -28.5272  -19.8251   20.2138 H   0  0  0  0  0  0
  -32.2176  -16.6340   19.3784 H   0  0  0  0  0  0
  -29.5698  -21.4336   18.7896 H   0  0  0  0  0  0
  -30.4662  -20.6980   17.4784 H   0  0  0  0  0  0
  -32.6212  -22.8302   17.4163 H   0  0  0  0  0  0
  -30.8951  -23.1419   17.5438 H   0  0  0  0  0  0
  -31.3068  -26.4734   21.8004 H   0  0  0  0  0  0
  -30.3782  -25.1995   21.0816 H   0  0  0  0  0  0
  -32.5970  -26.6110   19.9630 H   0  0  0  0  0  0
  -31.2461  -27.3022   19.1094 H   0  0  0  0  0  0
  -29.8058  -28.1716   20.7671 H   0  0  0  0  0  0
  -29.0636  -27.1489   22.0021 H   0  0  0  0  0  0
  -29.1355  -15.3728   21.2310 H   0  0  0  0  0  0
  -30.9987  -25.3468   17.9334 H   0  0  0  0  0  0
  -32.4883  -21.1367   18.7826 H   0  0  0  0  0  0
  -31.6163  -21.9733   19.8728 H   0  0  0  0  0  0
  1 25  1  0  0  0
  1 30  2  0  0  0
  1 83  1  0  0  0
  2  3  1  0  0  0
  2 25  1  0  0  0
  2 89  1  0  0  0
  2 90  1  0  0  0
  3  4  1  0  0  0
  3 91  1  0  0  0
  3 92  1  0  0  0
  4  5  1  0  0  0
  4 93  1  0  0  0
  4 94  1  0  0  0
  5  6  1  0  0  0
  5 26  1  0  0  0
  5 95  1  0  0  0
  6 25  1  0  0  0
  6 96  1  0  0  0
  6 97  1  0  0  0
  7  8  2  0  0  0
  7 26  1  0  0  0
  7 29  1  0  0  0
  8  9  1  0  0  0
  8 22  1  0  0  0
  9 10  1  0  0  0
  9 27  2  0  0  0
 10 11  2  0  0  0
 10 15  1  0  0  0
 11 12  1  0  0  0
 11 98  1  0  0  0
 12 13  2  0  0  0
 12 99  1  0  0  0
 13 14  1  0  0  0
 13 31  1  0  0  0
 14 15  2  0  0  0
 14100  1  0  0  0
 15101  1  0  0  0
 16 17  2  0  0  0
 16 21  1  0  0  0
 16 31  1  0  0  0
 17 18  1  0  0  0
 17102  1  0  0  0
 18 19  2  0  0  0
 18103  1  0  0  0
 19 20  1  0  0  0
 19 24  1  0  0  0
 20 21  2  0  0  0
 20104  1  0  0  0
 21 23  1  0  0  0
 22 28  1  0  0  0
 22 32  2  0  0  0
 26 27  1  0  0  0
 28105  1  0  0  0
 28106  1  0  0  0
 29107  1  0  0  0
 29108  1  0  0  0
 33 34  1  0  0  0
 33 66  1  0  0  0
 33 70  2  0  0  0
 34 36  1  0  0  0
 34 59  1  0  0  0
 34109  1  0  0  0
 35 44  2  0  0  0
 35 45  1  0  0  0
 35 68  1  0  0  0
 36 56  1  0  0  0
 36110  1  0  0  0
 37 39  1  0  0  0
 37 47  1  0  0  0
 37 66  1  0  0  0
 37111  1  0  0  0
 38 43  2  0  0  0
 38 46  1  0  0  0
 38 47  1  0  0  0
 39 64  1  0  0  0
 39 67  2  0  0  0
 40 52  1  0  0  0
 40 53  2  0  0  0
 40 58  1  0  0  0
 41112  1  0  0  0
 41113  1  0  0  0
 41114  1  0  0  0
 41 48  1  0  0  0
 42 43  1  0  0  0
 42 66  1  0  0  0
 42115  1  0  0  0
 42116  1  0  0  0
 43 44  1  0  0  0
 44117  1  0  0  0
 45 46  2  0  0  0
 45118  1  0  0  0
 46119  1  0  0  0
 47120  1  0  0  0
 47121  1  0  0  0
 48 56  1  0  0  0
 48 65  1  0  0  0
 48122  1  0  0  0
 49 50  1  0  0  0
 49 53  1  0  0  0
 49 64  1  0  0  0
 49123  1  0  0  0
 50 51  1  0  0  0
 50124  1  0  0  0
 50125  1  0  0  0
 51 52  1  0  0  0
 51126  1  0  0  0
 51127  1  0  0  0
 52128  1  0  0  0
 52129  1  0  0  0
 53 54  1  0  0  0
 54 55  2  0  0  0
 54130  1  0  0  0
 55 57  1  0  0  0
 55131  1  0  0  0
 56 69  2  0  0  0
 57 58  2  0  0  0
 57132  1  0  0  0
 58133  1  0  0  0
 59 60  1  0  0  0
 59 61  1  0  0  0
 59 62  1  0  0  0
 60134  1  0  0  0
 60135  1  0  0  0
 60136  1  0  0  0
 61137  1  0  0  0
 61138  1  0  0  0
 61139  1  0  0  0
 62140  1  0  0  0
 62141  1  0  0  0
 62142  1  0  0  0
 63 65  1  0  0  0
 63143  1  0  0  0
 63144  1  0  0  0
 63145  1  0  0  0
 64146  1  0  0  0
 65147  1  0  0  0
 68 82  1  0  0  0
 71 73  2  0  0  0
 71 75  1  0  0  0
 71148  1  0  0  0
 72 74  1  0  0  0
 72 76  2  0  0  0
 72149  1  0  0  0
 73 76  1  0  0  0
 73 78  1  0  0  0
 74 75  2  0  0  0
 74 83  1  0  0  0
 75 87  1  0  0  0
 76 88  1  0  0  0
 77 79  1  0  0  0
 77 84  1  0  0  0
 77 86  2  0  0  0
 78 85  1  0  0  0
 78150  1  0  0  0
 78151  1  0  0  0
 79 85  1  0  0  0
 79152  1  0  0  0
 79153  1  0  0  0
 80 81  1  0  0  0
 80 82  1  0  0  0
 80154  1  0  0  0
 80155  1  0  0  0
 81 84  1  0  0  0
 81156  1  0  0  0
 81157  1  0  0  0
 82158  1  0  0  0
 82159  1  0  0  0
 83160  1  0  0  0
 84161  1  0  0  0
 85162  1  0  0  0
 85163  1  0  0  0
M  CHG  1  85   1
M  ISO  4   1 100  68 101  82 101  83 100
M  END
> <chiral flag>
0

> <version>
0

> <s_m_source_file>
/data/baiqing/PycharmProjects/Reinvent-master-3.2/result/LINK_invent/BTK/process_docking_weight1_custom_product_contain_oxygen_bond_distance_aromatic_linkinvent_7_9_3/rearranged_h_0041.sdf

> <i_m_source_file_index>
61

> <r_mmod_Potential_Energy-OPLS-2005>
-462.049133300781

> <r_mmod_Stretch_Energy-OPLS-2005>
34.7258224487305

> <r_mmod_Bend_Energy-OPLS-2005>
98.9522171020508

> <r_mmod_Torsional_Energy-OPLS-2005>
233.415298461914

> <r_mmod_Improper_Torsional_Energy-OPLS-2005>
5.48029899597168

> <r_mmod_Van_der_Waal_Energy-OPLS-2005>
173.057022094727

> <r_mmod_Electrostatic_Energy-OPLS-2005>
-537.974243164062

> <r_mmod_Solvation_Energy-OPLS-2005>
-485.458343505859

> <b_mmod_Minimization_Converged-OPLS-2005>
0

> <r_mmod_RMS_Derivative-OPLS-2005>
2.72762036323547

$$$$
61
                    3D
 Structure written by MMmdl.
157165  0  0  1  0            999 V2000
  -30.6072  -14.6420   20.4918 C   0  0  0  0  0  0
  -30.4438  -12.3940   19.4450 C   0  0  0  0  0  0
  -29.5077  -12.5066   18.2201 C   0  0  0  0  0  0
  -28.0309  -12.3422   18.6344 C   0  0  0  0  0  0
  -27.6534  -13.2114   19.8627 C   0  0  2  0  0  0
  -28.7001  -13.0607   20.9902 C   0  0  0  0  0  0
  -25.2567  -13.8154   20.5680 C   0  0  0  0  0  0
  -24.1825  -13.0437   20.9185 C   0  0  0  0  0  0
  -24.6386  -11.6902   20.8742 C   0  0  0  0  0  0
  -23.9054  -10.4291   21.0415 C   0  0  0  0  0  0
  -24.3607   -9.4203   21.9187 C   0  0  0  0  0  0
  -23.6277   -8.2241   22.0757 C   0  0  0  0  0  0
  -22.4259   -8.0291   21.3549 C   0  0  0  0  0  0
  -21.9895   -9.0263   20.4656 C   0  0  0  0  0  0
  -22.7229  -10.2137   20.3066 C   0  0  0  0  0  0
  -21.6855   -6.0737   22.5277 C   0  0  0  0  0  0
  -21.4018   -6.5641   23.8210 C   0  0  0  0  0  0
  -21.3656   -5.6789   24.9171 C   0  0  0  0  0  0
  -21.6046   -4.3055   24.7223 C   0  0  0  0  0  0
  -21.8818   -3.8145   23.4345 C   0  0  0  0  0  0
  -21.9190   -4.6965   22.3396 C   0  0  0  0  0  0
  -22.7851  -13.5252   21.1838 C   0  0  0  0  0  0
  -22.1659   -4.2149   21.0973 F   0  0  0  0  0  0
  -21.5617   -3.4535   25.7738 F   0  0  0  0  0  0
  -30.0141  -13.4089   20.4250 N   0  0  0  0  0  0
  -26.2990  -12.9324   20.3313 N   0  0  0  0  0  0
  -25.9313  -11.6483   20.5751 N   0  0  0  0  0  0
  -22.0469  -12.8273   22.0402 N   0  0  0  0  0  0
  -25.4267  -15.1881   20.4094 N   0  0  0  0  0  0
  -31.7769  -14.8195   20.1363 O   0  0  0  0  0  0
  -21.6631   -6.8884   21.4242 O   0  0  0  0  0  0
  -22.3548  -14.5553   20.6673 O   0  0  0  0  0  0
  -24.6255  -31.8600   23.2032 C   0  0  0  0  0  0
  -25.9102  -32.4781   23.8362 C   0  0  1  0  0  0
  -27.2278  -27.3254   20.1207 C   0  0  0  0  0  0
  -25.5918  -33.8580   24.2288 N   0  0  0  0  0  0
  -23.4198  -30.4819   21.5453 C   0  0  2  0  0  0
  -24.8686  -28.9366   20.1138 C   0  0  0  0  0  0
  -22.7476  -29.4611   22.4945 C   0  0  0  0  0  0
  -18.0285  -28.1382   22.8485 C   0  0  0  0  0  0
  -24.1486  -36.7296   23.2634 C   0  0  0  0  0  0
  -25.9603  -30.7926   21.3742 C   0  0  0  0  0  0
  -26.0365  -29.4192   20.7193 C   0  0  0  0  0  0
  -27.2212  -28.6245   20.7137 C   0  0  0  0  0  0
  -26.0428  -26.8993   19.4816 C   0  0  0  0  0  0
  -24.8729  -27.6815   19.4862 C   0  0  0  0  0  0
  -23.6358  -29.8151   20.1613 C   0  0  0  0  0  0
  -25.4107  -36.3082   24.0330 C   0  0  1  0  0  0
  -20.5883  -28.3679   23.1289 C   0  0  2  0  0  0
  -20.6771  -26.9402   22.5413 C   0  0  0  0  0  0
  -19.5748  -26.6379   21.5211 C   0  0  0  0  0  0
  -18.1928  -26.7927   22.1621 C   0  0  0  0  0  0
  -19.1535  -28.8850   23.2882 C   0  0  0  0  0  0
  -18.9461  -30.1453   23.8898 C   0  0  0  0  0  0
  -17.6457  -30.6584   24.0561 C   0  0  0  0  0  0
  -25.9046  -34.9453   23.5109 C   0  0  0  0  0  0
  -16.5350  -29.9082   23.6324 C   0  0  0  0  0  0
  -16.7272  -28.6499   23.0350 C   0  0  0  0  0  0
  -26.4490  -31.6592   25.0731 C   0  0  0  0  0  0
  -25.3730  -31.3735   26.1466 C   0  0  0  0  0  0
  -27.0323  -30.3015   24.6175 C   0  0  0  0  0  0
  -27.6058  -32.4324   25.7494 C   0  0  0  0  0  0
  -27.5579  -37.1794   24.8455 C   0  0  0  0  0  0
  -21.4189  -29.3036   22.3692 N   0  0  0  0  0  0
  -26.4283  -37.3778   23.9413 N   0  0  0  0  0  0
  -24.6872  -31.0612   22.0981 N   0  0  0  0  0  0
  -23.4200  -28.8148   23.3016 O   0  0  0  0  0  0
  -28.3408  -26.4748   20.1402 O   0  0  0  0  0  0
  -26.5612  -34.8916   22.4677 O   0  0  0  0  0  0
  -23.5419  -32.1395   23.7358 O   0  0  0  0  0  0
  -28.9406  -19.1762   19.5068 C   0  0  0  0  0  0
  -28.9524  -17.7619   19.6785 C   0  0  0  0  0  0
  -30.7146  -17.9682   21.2986 C   0  0  0  0  0  0
  -29.8109  -20.0361   20.2270 C   0  0  0  0  0  0
  -30.6924  -19.3966   21.1592 C   0  0  0  0  0  0
  -29.8589  -17.1155   20.5574 C   0  0  0  0  0  0
  -29.1064  -23.9790   20.0677 C   0  0  0  0  0  0
  -27.9385  -22.2130   21.3588 C   0  0  0  0  0  0
  -29.8942  -21.5746   19.8634 C   0  0  0  0  0  0
  -28.1108  -25.0841   20.6093 C   0  0  0  0  0  0
  -31.6503  -20.2230   22.0155 C   0  0  0  0  0  0
  -29.7604  -15.6770   20.7863 N   0  0  0  0  0  0
  -28.9837  -22.6439   20.4264 N   0  0  0  0  0  0
  -30.0006  -24.3445   19.2972 O   0  0  0  0  0  0
  -32.1439  -19.5140   23.0314 F   0  0  0  0  0  0
  -32.6722  -20.6439   21.2712 F   0  0  0  0  0  0
  -31.0275  -21.2819   22.5347 F   0  0  0  0  0  0
  -31.4825  -12.5321   19.1397 H   0  0  0  0  0  0
  -30.3886  -11.3968   19.8835 H   0  0  0  0  0  0
  -29.7712  -11.7564   17.4732 H   0  0  0  0  0  0
  -29.6479  -13.4759   17.7388 H   0  0  0  0  0  0
  -27.8704  -11.2888   18.8653 H   0  0  0  0  0  0
  -27.3758  -12.5745   17.7938 H   0  0  0  0  0  0
  -27.6714  -14.2457   19.5205 H   0  0  0  0  0  0
  -28.7127  -12.0364   21.3667 H   0  0  0  0  0  0
  -28.4470  -13.6877   21.8471 H   0  0  0  0  0  0
  -25.2749   -9.5673   22.4761 H   0  0  0  0  0  0
  -23.9984   -7.4636   22.7480 H   0  0  0  0  0  0
  -21.0818   -8.8793   19.8970 H   0  0  0  0  0  0
  -22.3691  -10.9678   19.6182 H   0  0  0  0  0  0
  -21.2020   -7.6151   23.9717 H   0  0  0  0  0  0
  -21.1473   -6.0517   25.9072 H   0  0  0  0  0  0
  -22.0597   -2.7609   23.2845 H   0  0  0  0  0  0
  -22.4059  -11.9948   22.4829 H   0  0  0  0  0  0
  -21.1097  -13.1336   22.2589 H   0  0  0  0  0  0
  -24.6554  -15.8378   20.5175 H   0  0  0  0  0  0
  -26.2684  -15.6310   20.0645 H   0  0  0  0  0  0
  -26.7170  -32.5455   23.1114 H   0  0  0  0  0  0
  -25.0070  -33.9729   25.0435 H   0  0  0  0  0  0
  -22.7129  -31.3017   21.4009 H   0  0  0  0  0  0
  -23.3749  -35.9625   23.3286 H   0  0  0  0  0  0
  -24.3587  -36.8930   22.2052 H   0  0  0  0  0  0
  -23.7235  -37.6493   23.6667 H   0  0  0  0  0  0
  -26.0894  -31.5547   20.6042 H   0  0  0  0  0  0
  -26.8413  -30.8440   22.0025 H   0  0  0  0  0  0
  -28.1181  -28.9890   21.1944 H   0  0  0  0  0  0
  -26.0099  -25.9473   18.9714 H   0  0  0  0  0  0
  -23.9800  -27.3107   19.0011 H   0  0  0  0  0  0
  -23.7550  -30.5903   19.4035 H   0  0  0  0  0  0
  -22.7574  -29.2421   19.8583 H   0  0  0  0  0  0
  -25.1282  -36.1932   25.0819 H   0  0  0  0  0  0
  -20.9969  -28.3251   24.1411 H   0  0  0  0  0  0
  -20.5665  -26.2287   23.3610 H   0  0  0  0  0  0
  -21.6646  -26.7429   22.1214 H   0  0  0  0  0  0
  -19.6909  -25.6287   21.1247 H   0  0  0  0  0  0
  -19.6690  -27.3187   20.6738 H   0  0  0  0  0  0
  -17.4197  -26.6674   21.4024 H   0  0  0  0  0  0
  -18.0327  -26.0069   22.9015 H   0  0  0  0  0  0
  -19.7936  -30.7273   24.2270 H   0  0  0  0  0  0
  -17.5011  -31.6265   24.5160 H   0  0  0  0  0  0
  -15.5351  -30.2983   23.7647 H   0  0  0  0  0  0
  -15.8672  -28.0813   22.7070 H   0  0  0  0  0  0
  -24.5901  -30.7082   25.7808 H   0  0  0  0  0  0
  -24.8926  -32.2903   26.4893 H   0  0  0  0  0  0
  -25.8063  -30.8920   27.0241 H   0  0  0  0  0  0
  -26.2890  -29.6781   24.1192 H   0  0  0  0  0  0
  -27.4014  -29.7257   25.4671 H   0  0  0  0  0  0
  -27.8765  -30.4302   23.9398 H   0  0  0  0  0  0
  -27.2672  -33.3620   26.2081 H   0  0  0  0  0  0
  -28.3860  -32.6890   25.0315 H   0  0  0  0  0  0
  -28.0736  -31.8446   26.5403 H   0  0  0  0  0  0
  -28.2579  -38.0108   24.7531 H   0  0  0  0  0  0
  -28.1097  -36.2649   24.6238 H   0  0  0  0  0  0
  -27.2314  -37.1390   25.8859 H   0  0  0  0  0  0
  -20.9369  -29.8773   21.6917 H   0  0  0  0  0  0
  -26.0167  -38.2847   24.1439 H   0  0  0  0  0  0
  -28.2597  -19.6018   18.7826 H   0  0  0  0  0  0
  -28.2554  -17.1682   19.1036 H   0  0  0  0  0  0
  -31.3931  -17.5203   22.0092 H   0  0  0  0  0  0
  -26.9538  -22.3182   20.9020 H   0  0  0  0  0  0
  -27.9579  -22.8116   22.2700 H   0  0  0  0  0  0
  -28.0407  -21.1760   21.6729 H   0  0  0  0  0  0
  -29.7789  -21.6240   18.7794 H   0  0  0  0  0  0
  -30.9199  -21.9052   20.0274 H   0  0  0  0  0  0
  -28.1905  -25.1022   21.6962 H   0  0  0  0  0  0
  -27.1036  -24.7333   20.3925 H   0  0  0  0  0  0
  -28.8259  -15.3493   20.9768 H   0  0  0  0  0  0
  1 25  1  0  0  0
  1 30  2  0  0  0
  1 82  1  0  0  0
  2  3  1  0  0  0
  2 25  1  0  0  0
  2 88  1  0  0  0
  2 89  1  0  0  0
  3  4  1  0  0  0
  3 90  1  0  0  0
  3 91  1  0  0  0
  4  5  1  0  0  0
  4 92  1  0  0  0
  4 93  1  0  0  0
  5  6  1  0  0  0
  5 26  1  0  0  0
  5 94  1  0  0  0
  6 25  1  0  0  0
  6 95  1  0  0  0
  6 96  1  0  0  0
  7  8  2  0  0  0
  7 26  1  0  0  0
  7 29  1  0  0  0
  8  9  1  0  0  0
  8 22  1  0  0  0
  9 10  1  0  0  0
  9 27  2  0  0  0
 10 11  2  0  0  0
 10 15  1  0  0  0
 11 12  1  0  0  0
 11 97  1  0  0  0
 12 13  2  0  0  0
 12 98  1  0  0  0
 13 14  1  0  0  0
 13 31  1  0  0  0
 14 15  2  0  0  0
 14 99  1  0  0  0
 15100  1  0  0  0
 16 17  2  0  0  0
 16 21  1  0  0  0
 16 31  1  0  0  0
 17 18  1  0  0  0
 17101  1  0  0  0
 18 19  2  0  0  0
 18102  1  0  0  0
 19 20  1  0  0  0
 19 24  1  0  0  0
 20 21  2  0  0  0
 20103  1  0  0  0
 21 23  1  0  0  0
 22 28  1  0  0  0
 22 32  2  0  0  0
 26 27  1  0  0  0
 28104  1  0  0  0
 28105  1  0  0  0
 29106  1  0  0  0
 29107  1  0  0  0
 33 34  1  0  0  0
 33 66  1  0  0  0
 33 70  2  0  0  0
 34 36  1  0  0  0
 34 59  1  0  0  0
 34108  1  0  0  0
 35 44  2  0  0  0
 35 45  1  0  0  0
 35 68  1  0  0  0
 36 56  1  0  0  0
 36109  1  0  0  0
 37 39  1  0  0  0
 37 47  1  0  0  0
 37 66  1  0  0  0
 37110  1  0  0  0
 38 43  2  0  0  0
 38 46  1  0  0  0
 38 47  1  0  0  0
 39 64  1  0  0  0
 39 67  2  0  0  0
 40 52  1  0  0  0
 40 53  2  0  0  0
 40 58  1  0  0  0
 41111  1  0  0  0
 41112  1  0  0  0
 41113  1  0  0  0
 41 48  1  0  0  0
 42 43  1  0  0  0
 42 66  1  0  0  0
 42114  1  0  0  0
 42115  1  0  0  0
 43 44  1  0  0  0
 44116  1  0  0  0
 45 46  2  0  0  0
 45117  1  0  0  0
 46118  1  0  0  0
 47119  1  0  0  0
 47120  1  0  0  0
 48 56  1  0  0  0
 48 65  1  0  0  0
 48121  1  0  0  0
 49 50  1  0  0  0
 49 53  1  0  0  0
 49 64  1  0  0  0
 49122  1  0  0  0
 50 51  1  0  0  0
 50123  1  0  0  0
 50124  1  0  0  0
 51 52  1  0  0  0
 51125  1  0  0  0
 51126  1  0  0  0
 52127  1  0  0  0
 52128  1  0  0  0
 53 54  1  0  0  0
 54 55  2  0  0  0
 54129  1  0  0  0
 55 57  1  0  0  0
 55130  1  0  0  0
 56 69  2  0  0  0
 57 58  2  0  0  0
 57131  1  0  0  0
 58132  1  0  0  0
 59 60  1  0  0  0
 59 61  1  0  0  0
 59 62  1  0  0  0
 60133  1  0  0  0
 60134  1  0  0  0
 60135  1  0  0  0
 61136  1  0  0  0
 61137  1  0  0  0
 61138  1  0  0  0
 62139  1  0  0  0
 62140  1  0  0  0
 62141  1  0  0  0
 63 65  1  0  0  0
 63142  1  0  0  0
 63143  1  0  0  0
 63144  1  0  0  0
 64145  1  0  0  0
 65146  1  0  0  0
 68 80  1  0  0  0
 71 72  2  0  0  0
 71 74  1  0  0  0
 71147  1  0  0  0
 72 76  1  0  0  0
 72148  1  0  0  0
 73 75  1  0  0  0
 73 76  2  0  0  0
 73149  1  0  0  0
 74 75  2  0  0  0
 74 79  1  0  0  0
 75 81  1  0  0  0
 76 82  1  0  0  0
 77 80  1  0  0  0
 77 83  1  0  0  0
 77 84  2  0  0  0
 78 83  1  0  0  0
 78150  1  0  0  0
 78151  1  0  0  0
 78152  1  0  0  0
 79 83  1  0  0  0
 79153  1  0  0  0
 79154  1  0  0  0
 80155  1  0  0  0
 80156  1  0  0  0
 81 85  1  0  0  0
 81 86  1  0  0  0
 81 87  1  0  0  0
 82157  1  0  0  0
M  ISO  4   1 100  68 101  80 101  82 100
M  END
> <chiral flag>
0

> <version>
0

> <s_m_source_file>
/data/baiqing/PycharmProjects/Reinvent-master-3.2/result/LINK_invent/BTK/process_docking_weight1_custom_product_contain_oxygen_bond_distance_aromatic_linkinvent_7_9_3/rearranged_h_0041.sdf

> <i_m_source_file_index>
62

> <r_mmod_Potential_Energy-OPLS-2005>
133.811416625977

> <r_mmod_Stretch_Energy-OPLS-2005>
83.6171798706055

> <r_mmod_Bend_Energy-OPLS-2005>
133.660369873047

> <r_mmod_Torsional_Energy-OPLS-2005>
267.274322509766

> <r_mmod_Improper_Torsional_Energy-OPLS-2005>
6.51393365859985

> <r_mmod_Van_der_Waal_Energy-OPLS-2005>
148.013519287109

> <r_mmod_Electrostatic_Energy-OPLS-2005>
-318.032684326172

> <r_mmod_Solvation_Energy-OPLS-2005>
-235.478302001953

> <b_mmod_Minimization_Converged-OPLS-2005>
0

> <r_mmod_RMS_Derivative-OPLS-2005>
1.34651350975037

$$$$
62
                    3D
 Structure written by MMmdl.
174183  0  0  1  0            999 V2000
  -30.5844  -14.6860   20.4830 C   0  0  0  0  0  0
  -30.4469  -12.4227   19.4497 C   0  0  0  0  0  0
  -29.5095  -12.5171   18.2242 C   0  0  0  0  0  0
  -28.0332  -12.3441   18.6361 C   0  0  0  0  0  0
  -27.6515  -13.2122   19.8637 C   0  0  2  0  0  0
  -28.6988  -13.0744   20.9909 C   0  0  0  0  0  0
  -25.2565  -13.8157   20.5708 C   0  0  0  0  0  0
  -24.1827  -13.0423   20.9188 C   0  0  0  0  0  0
  -24.6394  -11.6890   20.8741 C   0  0  0  0  0  0
  -23.9066  -10.4276   21.0418 C   0  0  0  0  0  0
  -24.3619   -9.4193   21.9196 C   0  0  0  0  0  0
  -23.6295   -8.2232   22.0769 C   0  0  0  0  0  0
  -22.4275   -8.0276   21.3562 C   0  0  0  0  0  0
  -21.9914   -9.0241   20.4661 C   0  0  0  0  0  0
  -22.7241  -10.2118   20.3070 C   0  0  0  0  0  0
  -21.6838   -6.0739   22.5290 C   0  0  0  0  0  0
  -21.4001   -6.5645   23.8222 C   0  0  0  0  0  0
  -21.3659   -5.6804   24.9191 C   0  0  0  0  0  0
  -21.6043   -4.3066   24.7241 C   0  0  0  0  0  0
  -21.8816   -3.8154   23.4361 C   0  0  0  0  0  0
  -21.9190   -4.6970   22.3414 C   0  0  0  0  0  0
  -22.7849  -13.5220   21.1856 C   0  0  0  0  0  0
  -22.1661   -4.2155   21.0991 F   0  0  0  0  0  0
  -21.5641   -3.4551   25.7757 F   0  0  0  0  0  0
  -30.0067  -13.4409   20.4243 N   0  0  0  0  0  0
  -26.2985  -12.9321   20.3327 N   0  0  0  0  0  0
  -25.9319  -11.6486   20.5754 N   0  0  0  0  0  0
  -22.0479  -12.8224   22.0410 N   0  0  0  0  0  0
  -25.4274  -15.1887   20.4181 N   0  0  0  0  0  0
  -31.7521  -14.8652   20.1211 O   0  0  0  0  0  0
  -21.6635   -6.8875   21.4252 O   0  0  0  0  0  0
  -22.3544  -14.5529   20.6707 O   0  0  0  0  0  0
  -24.6262  -31.8577   23.2011 C   0  0  0  0  0  0
  -25.9098  -32.4775   23.8351 C   0  0  1  0  0  0
  -27.2331  -27.3078   20.1042 C   0  0  0  0  0  0
  -25.5918  -33.8579   24.2276 N   0  0  0  0  0  0
  -23.4222  -30.4803   21.5426 C   0  0  2  0  0  0
  -24.8719  -28.9373   20.1028 C   0  0  0  0  0  0
  -22.7479  -29.4606   22.4917 C   0  0  0  0  0  0
  -18.0285  -28.1384   22.8494 C   0  0  0  0  0  0
  -24.1485  -36.7289   23.2642 C   0  0  0  0  0  0
  -25.9641  -30.7840   21.3758 C   0  0  0  0  0  0
  -26.0387  -29.4117   20.7128 C   0  0  0  0  0  0
  -27.2155  -28.6037   20.7123 C   0  0  0  0  0  0
  -26.0381  -26.8848   19.4881 C   0  0  0  0  0  0
  -24.8744  -27.6775   19.4844 C   0  0  0  0  0  0
  -23.6376  -29.8147   20.1571 C   0  0  0  0  0  0
  -25.4113  -36.3089   24.0332 C   0  0  1  0  0  0
  -20.5887  -28.3691   23.1284 C   0  0  2  0  0  0
  -20.6768  -26.9413   22.5416 C   0  0  0  0  0  0
  -19.5749  -26.6384   21.5217 C   0  0  0  0  0  0
  -18.1925  -26.7926   22.1626 C   0  0  0  0  0  0
  -19.1537  -28.8852   23.2884 C   0  0  0  0  0  0
  -18.9460  -30.1450   23.8905 C   0  0  0  0  0  0
  -17.6463  -30.6591   24.0564 C   0  0  0  0  0  0
  -25.9052  -34.9454   23.5110 C   0  0  0  0  0  0
  -16.5355  -29.9087   23.6332 C   0  0  0  0  0  0
  -16.7270  -28.6500   23.0364 C   0  0  0  0  0  0
  -26.4491  -31.6594   25.0730 C   0  0  0  0  0  0
  -25.3721  -31.3712   26.1451 C   0  0  0  0  0  0
  -27.0341  -30.3020   24.6187 C   0  0  0  0  0  0
  -27.6047  -32.4326   25.7508 C   0  0  0  0  0  0
  -27.5588  -37.1801   24.8467 C   0  0  0  0  0  0
  -21.4190  -29.3044   22.3670 N   0  0  0  0  0  0
  -26.4297  -37.3788   23.9409 N   0  0  0  0  0  0
  -24.6897  -31.0576   22.0970 N   0  0  0  0  0  0
  -23.4192  -28.8147   23.3003 O   0  0  0  0  0  0
  -28.3366  -26.4462   20.2437 O   0  0  0  0  0  0
  -26.5627  -34.8925   22.4681 O   0  0  0  0  0  0
  -23.5425  -32.1378   23.7338 O   0  0  0  0  0  0
  -28.8038  -19.1944   19.4637 C   0  0  0  0  0  0
  -30.2183  -18.0730   21.5843 C   0  0  0  0  0  0
  -29.0615  -17.7846   19.5011 C   0  0  0  0  0  0
  -29.1969  -20.0911   20.4992 C   0  0  0  0  0  0
  -29.7565  -17.1723   20.5863 C   0  0  0  0  0  0
  -29.9545  -19.4806   21.5475 C   0  0  0  0  0  0
  -28.2045  -23.9096   19.2887 C   0  0  0  0  0  0
  -27.1755  -23.6218   18.4535 C   0  0  0  0  0  0
  -26.7025  -22.3292   17.9849 C   0  0  0  0  0  0
  -25.6515  -22.2202   17.1522 C   0  0  0  0  0  0
  -25.1821  -20.9308   16.6290 C   0  0  0  0  0  0
  -30.7964  -24.4960   20.4629 C   0  0  0  0  0  0
  -30.2990  -25.4354   19.3656 C   0  0  0  0  0  0
  -30.5733  -23.0419   20.0353 C   0  0  0  0  0  0
  -28.7702  -25.4071   19.2791 C   0  0  2  0  0  0
  -28.5048  -16.9254   18.3792 C   0  0  0  0  0  0
  -23.8767  -19.5168   15.3322 C   0  0  0  0  0  0
  -28.6287  -21.5839   20.5943 C   0  0  0  0  0  0
  -24.2243  -20.8460   15.7993 N   0  0  0  0  0  0
  -29.7322  -15.7173   20.8070 N   0  0  0  0  0  0
  -29.1585  -22.7149   19.7115 N   0  3  1  0  0  0
  -30.5095  -20.4297   22.8813 Cl  0  0  0  0  0  0
  -31.4840  -12.5712   19.1425 H   0  0  0  0  0  0
  -30.4039  -11.4282   19.8956 H   0  0  0  0  0  0
  -29.7791  -11.7624   17.4841 H   0  0  0  0  0  0
  -29.6405  -13.4855   17.7367 H   0  0  0  0  0  0
  -27.8758  -11.2892   18.8665 H   0  0  0  0  0  0
  -27.3785  -12.5725   17.7948 H   0  0  0  0  0  0
  -27.6629  -14.2449   19.5205 H   0  0  0  0  0  0
  -28.7247  -12.0510   21.3682 H   0  0  0  0  0  0
  -28.4397  -13.6981   21.8479 H   0  0  0  0  0  0
  -25.2770   -9.5670   22.4761 H   0  0  0  0  0  0
  -24.0002   -7.4623   22.7493 H   0  0  0  0  0  0
  -21.0847   -8.8758   19.8955 H   0  0  0  0  0  0
  -22.3710  -10.9659   19.6178 H   0  0  0  0  0  0
  -21.1969   -7.6148   23.9723 H   0  0  0  0  0  0
  -21.1497   -6.0543   25.9092 H   0  0  0  0  0  0
  -22.0591   -2.7615   23.2871 H   0  0  0  0  0  0
  -22.4084  -11.9873   22.4793 H   0  0  0  0  0  0
  -21.1099  -13.1267   22.2610 H   0  0  0  0  0  0
  -24.6590  -15.8385   20.5424 H   0  0  0  0  0  0
  -26.2815  -15.6419   20.1236 H   0  0  0  0  0  0
  -26.7168  -32.5431   23.1099 H   0  0  0  0  0  0
  -25.0041  -33.9727   25.0410 H   0  0  0  0  0  0
  -22.7168  -31.3012   21.3978 H   0  0  0  0  0  0
  -23.3769  -35.9605   23.3300 H   0  0  0  0  0  0
  -24.3575  -36.8911   22.2058 H   0  0  0  0  0  0
  -23.7216  -37.6479   23.6671 H   0  0  0  0  0  0
  -26.0984  -31.5484   20.6094 H   0  0  0  0  0  0
  -26.8447  -30.8316   22.0060 H   0  0  0  0  0  0
  -28.1049  -28.9577   21.2145 H   0  0  0  0  0  0
  -25.9492  -25.9051   19.0679 H   0  0  0  0  0  0
  -23.9746  -27.2950   19.0229 H   0  0  0  0  0  0
  -23.7542  -30.5913   19.4003 H   0  0  0  0  0  0
  -22.7593  -29.2422   19.8555 H   0  0  0  0  0  0
  -25.1294  -36.1957   25.0829 H   0  0  0  0  0  0
  -20.9980  -28.3266   24.1405 H   0  0  0  0  0  0
  -20.5652  -26.2302   23.3615 H   0  0  0  0  0  0
  -21.6636  -26.7417   22.1229 H   0  0  0  0  0  0
  -19.6903  -25.6293   21.1247 H   0  0  0  0  0  0
  -19.6690  -27.3195   20.6745 H   0  0  0  0  0  0
  -17.4194  -26.6690   21.4025 H   0  0  0  0  0  0
  -18.0313  -26.0060   22.9015 H   0  0  0  0  0  0
  -19.7935  -30.7262   24.2286 H   0  0  0  0  0  0
  -17.5017  -31.6270   24.5162 H   0  0  0  0  0  0
  -15.5356  -30.2997   23.7638 H   0  0  0  0  0  0
  -15.8673  -28.0812   22.7093 H   0  0  0  0  0  0
  -24.5918  -30.7038   25.7777 H   0  0  0  0  0  0
  -24.8883  -32.2861   26.4874 H   0  0  0  0  0  0
  -25.8042  -30.8900   27.0229 H   0  0  0  0  0  0
  -26.2916  -29.6775   24.1202 H   0  0  0  0  0  0
  -27.4030  -29.7279   25.4695 H   0  0  0  0  0  0
  -27.8793  -30.4322   23.9423 H   0  0  0  0  0  0
  -27.2658  -33.3620   26.2098 H   0  0  0  0  0  0
  -28.3859  -32.6883   25.0339 H   0  0  0  0  0  0
  -28.0720  -31.8437   26.5414 H   0  0  0  0  0  0
  -28.2598  -38.0106   24.7534 H   0  0  0  0  0  0
  -28.1089  -36.2634   24.6277 H   0  0  0  0  0  0
  -27.2300  -37.1437   25.8868 H   0  0  0  0  0  0
  -20.9357  -29.8781   21.6904 H   0  0  0  0  0  0
  -26.0181  -38.2861   24.1430 H   0  0  0  0  0  0
  -28.2195  -19.5726   18.6398 H   0  0  0  0  0  0
  -30.7223  -17.6706   22.4507 H   0  0  0  0  0  0
  -26.7107  -24.4571   17.9574 H   0  0  0  0  0  0
  -27.1971  -21.4202   18.2744 H   0  0  0  0  0  0
  -25.1019  -23.0879   16.8148 H   0  0  0  0  0  0
  -25.7266  -20.0546   16.9956 H   0  0  0  0  0  0
  -30.2966  -24.7061   21.4100 H   0  0  0  0  0  0
  -31.8610  -24.6584   20.6337 H   0  0  0  0  0  0
  -30.7285  -25.1383   18.4078 H   0  0  0  0  0  0
  -30.6512  -26.4528   19.5439 H   0  0  0  0  0  0
  -30.9716  -22.3728   20.7974 H   0  0  0  0  0  0
  -31.1626  -22.8383   19.1404 H   0  0  0  0  0  0
  -28.5234  -25.8232   18.3002 H   0  0  0  0  0  0
  -28.2937  -17.5206   17.4897 H   0  0  0  0  0  0
  -27.5751  -16.4521   18.6916 H   0  0  0  0  0  0
  -29.2133  -16.1476   18.0929 H   0  0  0  0  0  0
  -22.8046  -19.4487   15.1446 H   0  0  0  0  0  0
  -24.1258  -18.7232   16.0409 H   0  0  0  0  0  0
  -24.3835  -19.2932   14.3911 H   0  0  0  0  0  0
  -28.6892  -21.9301   21.6251 H   0  0  0  0  0  0
  -27.5545  -21.4998   20.4379 H   0  0  0  0  0  0
  -28.8279  -15.3692   21.0845 H   0  0  0  0  0  0
  -29.2947  -22.2109   18.8497 H   0  0  0  0  0  0
  1 25  1  0  0  0
  1 30  2  0  0  0
  1 90  1  0  0  0
  2  3  1  0  0  0
  2 25  1  0  0  0
  2 93  1  0  0  0
  2 94  1  0  0  0
  3  4  1  0  0  0
  3 95  1  0  0  0
  3 96  1  0  0  0
  4  5  1  0  0  0
  4 97  1  0  0  0
  4 98  1  0  0  0
  5  6  1  0  0  0
  5 26  1  0  0  0
  5 99  1  0  0  0
  6 25  1  0  0  0
  6100  1  0  0  0
  6101  1  0  0  0
  7  8  2  0  0  0
  7 26  1  0  0  0
  7 29  1  0  0  0
  8  9  1  0  0  0
  8 22  1  0  0  0
  9 10  1  0  0  0
  9 27  2  0  0  0
 10 11  2  0  0  0
 10 15  1  0  0  0
 11 12  1  0  0  0
 11102  1  0  0  0
 12 13  2  0  0  0
 12103  1  0  0  0
 13 14  1  0  0  0
 13 31  1  0  0  0
 14 15  2  0  0  0
 14104  1  0  0  0
 15105  1  0  0  0
 16 17  2  0  0  0
 16 21  1  0  0  0
 16 31  1  0  0  0
 17 18  1  0  0  0
 17106  1  0  0  0
 18 19  2  0  0  0
 18107  1  0  0  0
 19 20  1  0  0  0
 19 24  1  0  0  0
 20 21  2  0  0  0
 20108  1  0  0  0
 21 23  1  0  0  0
 22 28  1  0  0  0
 22 32  2  0  0  0
 26 27  1  0  0  0
 28109  1  0  0  0
 28110  1  0  0  0
 29111  1  0  0  0
 29112  1  0  0  0
 33 34  1  0  0  0
 33 66  1  0  0  0
 33 70  2  0  0  0
 34 36  1  0  0  0
 34 59  1  0  0  0
 34113  1  0  0  0
 35 44  2  0  0  0
 35 45  1  0  0  0
 35 68  1  0  0  0
 36 56  1  0  0  0
 36114  1  0  0  0
 37 39  1  0  0  0
 37 47  1  0  0  0
 37 66  1  0  0  0
 37115  1  0  0  0
 38 43  2  0  0  0
 38 46  1  0  0  0
 38 47  1  0  0  0
 39 64  1  0  0  0
 39 67  2  0  0  0
 40 52  1  0  0  0
 40 53  2  0  0  0
 40 58  1  0  0  0
 41116  1  0  0  0
 41117  1  0  0  0
 41118  1  0  0  0
 41 48  1  0  0  0
 42 43  1  0  0  0
 42 66  1  0  0  0
 42119  1  0  0  0
 42120  1  0  0  0
 43 44  1  0  0  0
 44121  1  0  0  0
 45 46  2  0  0  0
 45122  1  0  0  0
 46123  1  0  0  0
 47124  1  0  0  0
 47125  1  0  0  0
 48 56  1  0  0  0
 48 65  1  0  0  0
 48126  1  0  0  0
 49 50  1  0  0  0
 49 53  1  0  0  0
 49 64  1  0  0  0
 49127  1  0  0  0
 50 51  1  0  0  0
 50128  1  0  0  0
 50129  1  0  0  0
 51 52  1  0  0  0
 51130  1  0  0  0
 51131  1  0  0  0
 52132  1  0  0  0
 52133  1  0  0  0
 53 54  1  0  0  0
 54 55  2  0  0  0
 54134  1  0  0  0
 55 57  1  0  0  0
 55135  1  0  0  0
 56 69  2  0  0  0
 57 58  2  0  0  0
 57136  1  0  0  0
 58137  1  0  0  0
 59 60  1  0  0  0
 59 61  1  0  0  0
 59 62  1  0  0  0
 60138  1  0  0  0
 60139  1  0  0  0
 60140  1  0  0  0
 61141  1  0  0  0
 61142  1  0  0  0
 61143  1  0  0  0
 62144  1  0  0  0
 62145  1  0  0  0
 62146  1  0  0  0
 63 65  1  0  0  0
 63147  1  0  0  0
 63148  1  0  0  0
 63149  1  0  0  0
 64150  1  0  0  0
 65151  1  0  0  0
 68 85  1  0  0  0
 71 73  2  0  0  0
 71 74  1  0  0  0
 71152  1  0  0  0
 72 75  2  0  0  0
 72 76  1  0  0  0
 72153  1  0  0  0
 73 75  1  0  0  0
 73 86  1  0  0  0
 74 76  2  0  0  0
 74 88  1  0  0  0
 75 90  1  0  0  0
 76 92  1  0  0  0
 77 78  2  0  0  0
 77 85  1  0  0  0
 77 91  1  0  0  0
 78 79  1  0  0  0
 78154  1  0  0  0
 79 80  2  0  0  0
 79155  1  0  0  0
 80 81  1  0  0  0
 80156  1  0  0  0
 81 89  2  0  0  0
 81157  1  0  0  0
 82 83  1  0  0  0
 82 84  1  0  0  0
 82158  1  0  0  0
 82159  1  0  0  0
 83 85  1  0  0  0
 83160  1  0  0  0
 83161  1  0  0  0
 84 91  1  0  0  0
 84162  1  0  0  0
 84163  1  0  0  0
 85164  1  0  0  0
 86165  1  0  0  0
 86166  1  0  0  0
 86167  1  0  0  0
 87 89  1  0  0  0
 87168  1  0  0  0
 87169  1  0  0  0
 87170  1  0  0  0
 88171  1  0  0  0
 88172  1  0  0  0
 88 91  1  0  0  0
 90173  1  0  0  0
 91174  1  0  0  0
M  CHG  1  91   1
M  ISO  4   1 100  68 101  85 101  90 100
M  END
> <chiral flag>
0

> <version>
0

> <s_m_source_file>
/data/baiqing/PycharmProjects/Reinvent-master-3.2/result/LINK_invent/BTK/process_docking_weight1_custom_product_contain_oxygen_bond_distance_aromatic_linkinvent_7_9_3/rearranged_h_0041.sdf

> <i_m_source_file_index>
63

> <r_mmod_Potential_Energy-OPLS-2005>
62.2969017028809

> <r_mmod_Stretch_Energy-OPLS-2005>
110.16121673584

> <r_mmod_Bend_Energy-OPLS-2005>
211.963821411133

> <r_mmod_Torsional_Energy-OPLS-2005>
274.902984619141

> <r_mmod_Improper_Torsional_Energy-OPLS-2005>
10.2189950942993

> <r_mmod_Van_der_Waal_Energy-OPLS-2005>
138.907104492188

> <r_mmod_Electrostatic_Energy-OPLS-2005>
-278.846801757812

> <r_mmod_Solvation_Energy-OPLS-2005>
-468.556457519531

> <b_mmod_Minimization_Converged-OPLS-2005>
0

> <r_mmod_RMS_Derivative-OPLS-2005>
1.57162940502167

$$$$
63
                    3D
 Structure written by MMmdl.
177186  0  0  1  0            999 V2000
  -30.7338  -14.3901   20.5884 C   0  0  0  0  0  0
  -30.4108  -12.2611   19.4130 C   0  0  0  0  0  0
  -29.4873  -12.5019   18.2025 C   0  0  0  0  0  0
  -28.0079  -12.3743   18.6135 C   0  0  0  0  0  0
  -27.6652  -13.2012   19.8823 C   0  0  2  0  0  0
  -28.7032  -12.9561   21.0018 C   0  0  0  0  0  0
  -25.2615  -13.8167   20.5700 C   0  0  0  0  0  0
  -24.1856  -13.0447   20.9178 C   0  0  0  0  0  0
  -24.6403  -11.6909   20.8754 C   0  0  0  0  0  0
  -23.9049  -10.4300   21.0413 C   0  0  0  0  0  0
  -24.3600   -9.4210   21.9185 C   0  0  0  0  0  0
  -23.6284   -8.2241   22.0749 C   0  0  0  0  0  0
  -22.4267   -8.0281   21.3533 C   0  0  0  0  0  0
  -21.9898   -9.0252   20.4636 C   0  0  0  0  0  0
  -22.7225  -10.2135   20.3056 C   0  0  0  0  0  0
  -21.6845   -6.0735   22.5276 C   0  0  0  0  0  0
  -21.4004   -6.5637   23.8214 C   0  0  0  0  0  0
  -21.3661   -5.6789   24.9179 C   0  0  0  0  0  0
  -21.6049   -4.3052   24.7224 C   0  0  0  0  0  0
  -21.8819   -3.8143   23.4343 C   0  0  0  0  0  0
  -21.9191   -4.6963   22.3405 C   0  0  0  0  0  0
  -22.7884  -13.5246   21.1832 C   0  0  0  0  0  0
  -22.1662   -4.2155   21.0978 F   0  0  0  0  0  0
  -21.5631   -3.4539   25.7739 F   0  0  0  0  0  0
  -30.0412  -13.2325   20.4533 N   0  0  0  0  0  0
  -26.3041  -12.9331   20.3397 N   0  0  0  0  0  0
  -25.9312  -11.6490   20.5757 N   0  0  0  0  0  0
  -22.0512  -12.8243   22.0392 N   0  0  0  0  0  0
  -25.4356  -15.1883   20.4133 N   0  0  0  0  0  0
  -31.8555  -14.5627   20.1003 O   0  0  0  0  0  0
  -21.6627   -6.8880   21.4238 O   0  0  0  0  0  0
  -22.3575  -14.5555   20.6688 O   0  0  0  0  0  0
  -24.6043  -31.8744   23.2140 C   0  0  0  0  0  0
  -25.8963  -32.4876   23.8411 C   0  0  1  0  0  0
  -27.2420  -27.4910   20.0990 C   0  0  0  0  0  0
  -25.5851  -33.8656   24.2355 N   0  0  0  0  0  0
  -23.3888  -30.4974   21.5521 C   0  0  2  0  0  0
  -24.8364  -28.9631   20.1226 C   0  0  0  0  0  0
  -22.7340  -29.4683   22.5003 C   0  0  0  0  0  0
  -18.0260  -28.1344   22.8527 C   0  0  0  0  0  0
  -24.1484  -36.7302   23.2643 C   0  0  0  0  0  0
  -25.9083  -30.8603   21.3556 C   0  0  0  0  0  0
  -25.9878  -29.4939   20.7159 C   0  0  0  0  0  0
  -27.1907  -28.7667   20.7052 C   0  0  0  0  0  0
  -26.0766  -26.9602   19.5108 C   0  0  0  0  0  0
  -24.8704  -27.6905   19.5222 C   0  0  0  0  0  0
  -23.5967  -29.8270   20.1670 C   0  0  0  0  0  0
  -25.4107  -36.3125   24.0355 C   0  0  1  0  0  0
  -20.5840  -28.3625   23.1346 C   0  0  2  0  0  0
  -20.6758  -26.9369   22.5430 C   0  0  0  0  0  0
  -19.5738  -26.6369   21.5218 C   0  0  0  0  0  0
  -18.1903  -26.7905   22.1617 C   0  0  0  0  0  0
  -19.1505  -28.8796   23.2946 C   0  0  0  0  0  0
  -18.9440  -30.1402   23.8963 C   0  0  0  0  0  0
  -17.6453  -30.6575   24.0577 C   0  0  0  0  0  0
  -25.9025  -34.9499   23.5153 C   0  0  0  0  0  0
  -16.5344  -29.9083   23.6324 C   0  0  0  0  0  0
  -16.7253  -28.6476   23.0395 C   0  0  0  0  0  0
  -26.4421  -31.6635   25.0702 C   0  0  0  0  0  0
  -25.3726  -31.3735   26.1494 C   0  0  0  0  0  0
  -27.0211  -30.3094   24.5973 C   0  0  0  0  0  0
  -27.5990  -32.4359   25.7459 C   0  0  0  0  0  0
  -27.5600  -37.1793   24.8458 C   0  0  0  0  0  0
  -21.4072  -29.3019   22.3753 N   0  0  0  0  0  0
  -26.4299  -37.3804   23.9429 N   0  0  0  0  0  0
  -24.6513  -31.0908   22.1003 N   0  0  0  0  0  0
  -23.4148  -28.8232   23.3013 O   0  0  0  0  0  0
  -28.4191  -26.7926   19.9897 O   0  0  0  0  0  0
  -26.5591  -34.8948   22.4713 O   0  0  0  0  0  0
  -23.5252  -32.1450   23.7593 O   0  0  0  0  0  0
  -29.8394  -25.6957   17.1996 C   0  0  0  0  0  0
  -29.5259  -24.5460   16.4518 C   0  0  0  0  0  0
  -31.2175  -24.3478   18.6794 C   0  0  0  0  0  0
  -30.9803  -18.6496   19.6071 C   0  0  0  0  0  0
  -30.9116  -23.1838   17.9423 C   0  0  0  0  0  0
  -30.6814  -25.5961   18.3239 C   0  0  0  0  0  0
  -30.0477  -23.2835   16.8152 C   0  0  0  0  0  0
  -31.5035  -19.3596   20.7028 C   0  0  0  0  0  0
  -30.4213  -17.3735   19.7654 C   0  0  0  0  0  0
  -31.3724  -18.8184   22.0109 C   0  0  0  0  0  0
  -30.8915  -17.4889   22.1738 C   0  0  0  0  0  0
  -30.4518  -16.7560   21.0413 C   0  0  0  0  0  0
  -31.5615  -21.8963   18.3636 C   0  0  0  0  0  0
  -29.2710  -26.6683   21.0297 C   0  0  0  0  0  0
  -29.6383  -22.0670   15.9969 C   0  0  0  0  0  0
  -29.8508  -16.6844   18.5332 C   0  0  0  0  0  0
  -31.7578  -19.6433   23.2350 C   0  0  0  0  0  0
  -30.8841  -16.8293   23.5522 C   0  0  0  0  0  0
  -30.9921  -26.8092   19.1820 C   0  0  0  0  0  0
  -32.2645  -20.6502   20.4036 C   0  0  0  0  0  0
  -30.0695  -15.3968   21.1754 N   0  0  0  0  0  0
  -31.4885  -21.6464   19.6755 N   0  0  0  0  0  0
  -30.5787  -26.6218   20.5742 N   0  0  0  0  0  0
  -32.1445  -21.1714   17.5540 O   0  0  0  0  0  0
  -28.9370  -26.6390   22.2147 O   0  0  0  0  0  0
  -31.4568  -12.3385   19.1091 H   0  0  0  0  0  0
  -30.2871  -11.2458   19.7924 H   0  0  0  0  0  0
  -29.7180  -11.7897   17.4092 H   0  0  0  0  0  0
  -29.6679  -13.4942   17.7857 H   0  0  0  0  0  0
  -27.8063  -11.3179   18.7926 H   0  0  0  0  0  0
  -27.3582  -12.6660   17.7876 H   0  0  0  0  0  0
  -27.7166  -14.2534   19.6039 H   0  0  0  0  0  0
  -28.6614  -11.9196   21.3401 H   0  0  0  0  0  0
  -28.4760  -13.5555   21.8844 H   0  0  0  0  0  0
  -25.2741   -9.5702   22.4757 H   0  0  0  0  0  0
  -24.0010   -7.4636   22.7465 H   0  0  0  0  0  0
  -21.0831   -8.8763   19.8941 H   0  0  0  0  0  0
  -22.3672  -10.9678   19.6168 H   0  0  0  0  0  0
  -21.1991   -7.6145   23.9722 H   0  0  0  0  0  0
  -21.1488   -6.0511   25.9080 H   0  0  0  0  0  0
  -22.0602   -2.7604   23.2830 H   0  0  0  0  0  0
  -22.4095  -11.9888   22.4778 H   0  0  0  0  0  0
  -21.1144  -13.1294   22.2598 H   0  0  0  0  0  0
  -24.6709  -15.8455   20.5278 H   0  0  0  0  0  0
  -26.2991  -15.6291   20.1234 H   0  0  0  0  0  0
  -26.7037  -32.5636   23.1185 H   0  0  0  0  0  0
  -25.0033  -33.9838   25.0519 H   0  0  0  0  0  0
  -22.6749  -31.3122   21.4148 H   0  0  0  0  0  0
  -23.3773  -35.9597   23.3271 H   0  0  0  0  0  0
  -24.3599  -36.8940   22.2059 H   0  0  0  0  0  0
  -23.7185  -37.6479   23.6672 H   0  0  0  0  0  0
  -26.0086  -31.6244   20.5832 H   0  0  0  0  0  0
  -26.8008  -30.9232   21.9658 H   0  0  0  0  0  0
  -28.0805  -29.1991   21.1399 H   0  0  0  0  0  0
  -26.1100  -25.9938   19.0291 H   0  0  0  0  0  0
  -23.9844  -27.2735   19.0625 H   0  0  0  0  0  0
  -23.7030  -30.6015   19.4055 H   0  0  0  0  0  0
  -22.7219  -29.2446   19.8739 H   0  0  0  0  0  0
  -25.1262  -36.1999   25.0846 H   0  0  0  0  0  0
  -20.9963  -28.3188   24.1453 H   0  0  0  0  0  0
  -20.5638  -26.2216   23.3597 H   0  0  0  0  0  0
  -21.6645  -26.7399   22.1255 H   0  0  0  0  0  0
  -19.6908  -25.6286   21.1228 H   0  0  0  0  0  0
  -19.6686  -27.3201   20.6768 H   0  0  0  0  0  0
  -17.4187  -26.6676   21.4006 H   0  0  0  0  0  0
  -18.0288  -26.0001   22.8964 H   0  0  0  0  0  0
  -19.7918  -30.7190   24.2363 H   0  0  0  0  0  0
  -17.5025  -31.6278   24.5129 H   0  0  0  0  0  0
  -15.5360  -30.3043   23.7562 H   0  0  0  0  0  0
  -15.8650  -28.0797   22.7136 H   0  0  0  0  0  0
  -24.5858  -30.7102   25.7883 H   0  0  0  0  0  0
  -24.8957  -32.2899   26.4984 H   0  0  0  0  0  0
  -25.8133  -30.8899   27.0222 H   0  0  0  0  0  0
  -26.2700  -29.6915   24.1031 H   0  0  0  0  0  0
  -27.4030  -29.7261   25.4357 H   0  0  0  0  0  0
  -27.8524  -30.4443   23.9044 H   0  0  0  0  0  0
  -27.2577  -33.3649   26.2044 H   0  0  0  0  0  0
  -28.3792  -32.6949   25.0289 H   0  0  0  0  0  0
  -28.0649  -31.8477   26.5373 H   0  0  0  0  0  0
  -28.2580  -38.0130   24.7624 H   0  0  0  0  0  0
  -28.1136  -36.2680   24.6149 H   0  0  0  0  0  0
  -27.2345  -37.1315   25.8864 H   0  0  0  0  0  0
  -20.9177  -29.8757   21.7038 H   0  0  0  0  0  0
  -26.0186  -38.2861   24.1505 H   0  0  0  0  0  0
  -29.4163  -26.6511   16.9174 H   0  0  0  0  0  0
  -28.8662  -24.6395   15.5996 H   0  0  0  0  0  0
  -31.8798  -24.2914   19.5337 H   0  0  0  0  0  0
  -31.0405  -19.0730   18.6156 H   0  0  0  0  0  0
  -28.8460  -22.3104   15.2876 H   0  0  0  0  0  0
  -29.2643  -21.2717   16.6423 H   0  0  0  0  0  0
  -30.4826  -21.6783   15.4269 H   0  0  0  0  0  0
  -29.5379  -17.4119   17.7834 H   0  0  0  0  0  0
  -28.9769  -16.0848   18.7845 H   0  0  0  0  0  0
  -30.5996  -16.0400   18.0755 H   0  0  0  0  0  0
  -31.5855  -20.7089   23.0872 H   0  0  0  0  0  0
  -32.8045  -19.4826   23.4932 H   0  0  0  0  0  0
  -31.1476  -19.3814   24.0997 H   0  0  0  0  0  0
  -31.6877  -17.1969   24.1912 H   0  0  0  0  0  0
  -31.0309  -15.7519   23.4913 H   0  0  0  0  0  0
  -29.9328  -17.0133   24.0519 H   0  0  0  0  0  0
  -30.5316  -27.7063   18.7631 H   0  0  0  0  0  0
  -32.0672  -26.9866   19.1627 H   0  0  0  0  0  0
  -33.1481  -20.3765   19.8244 H   0  0  0  0  0  0
  -32.6696  -21.1222   21.2949 H   0  0  0  0  0  0
  -29.2003  -15.1922   21.6431 H   0  0  0  0  0  0
  -30.9486  -22.2967   20.2281 H   0  0  0  0  0  0
  -31.2893  -26.5326   21.2874 H   0  0  0  0  0  0
  1 25  1  0  0  0
  1 30  2  0  0  0
  1 91  1  0  0  0
  2  3  1  0  0  0
  2 25  1  0  0  0
  2 96  1  0  0  0
  2 97  1  0  0  0
  3  4  1  0  0  0
  3 98  1  0  0  0
  3 99  1  0  0  0
  4  5  1  0  0  0
  4100  1  0  0  0
  4101  1  0  0  0
  5  6  1  0  0  0
  5 26  1  0  0  0
  5102  1  0  0  0
  6 25  1  0  0  0
  6103  1  0  0  0
  6104  1  0  0  0
  7  8  2  0  0  0
  7 26  1  0  0  0
  7 29  1  0  0  0
  8  9  1  0  0  0
  8 22  1  0  0  0
  9 10  1  0  0  0
  9 27  2  0  0  0
 10 11  2  0  0  0
 10 15  1  0  0  0
 11 12  1  0  0  0
 11105  1  0  0  0
 12 13  2  0  0  0
 12106  1  0  0  0
 13 14  1  0  0  0
 13 31  1  0  0  0
 14 15  2  0  0  0
 14107  1  0  0  0
 15108  1  0  0  0
 16 17  2  0  0  0
 16 21  1  0  0  0
 16 31  1  0  0  0
 17 18  1  0  0  0
 17109  1  0  0  0
 18 19  2  0  0  0
 18110  1  0  0  0
 19 20  1  0  0  0
 19 24  1  0  0  0
 20 21  2  0  0  0
 20111  1  0  0  0
 21 23  1  0  0  0
 22 28  1  0  0  0
 22 32  2  0  0  0
 26 27  1  0  0  0
 28112  1  0  0  0
 28113  1  0  0  0
 29114  1  0  0  0
 29115  1  0  0  0
 33 34  1  0  0  0
 33 66  1  0  0  0
 33 70  2  0  0  0
 34 36  1  0  0  0
 34 59  1  0  0  0
 34116  1  0  0  0
 35 44  2  0  0  0
 35 45  1  0  0  0
 35 68  1  0  0  0
 36 56  1  0  0  0
 36117  1  0  0  0
 37 39  1  0  0  0
 37 47  1  0  0  0
 37 66  1  0  0  0
 37118  1  0  0  0
 38 43  2  0  0  0
 38 46  1  0  0  0
 38 47  1  0  0  0
 39 64  1  0  0  0
 39 67  2  0  0  0
 40 52  1  0  0  0
 40 53  2  0  0  0
 40 58  1  0  0  0
 41119  1  0  0  0
 41120  1  0  0  0
 41121  1  0  0  0
 41 48  1  0  0  0
 42 43  1  0  0  0
 42 66  1  0  0  0
 42122  1  0  0  0
 42123  1  0  0  0
 43 44  1  0  0  0
 44124  1  0  0  0
 45 46  2  0  0  0
 45125  1  0  0  0
 46126  1  0  0  0
 47127  1  0  0  0
 47128  1  0  0  0
 48 56  1  0  0  0
 48 65  1  0  0  0
 48129  1  0  0  0
 49 50  1  0  0  0
 49 53  1  0  0  0
 49 64  1  0  0  0
 49130  1  0  0  0
 50 51  1  0  0  0
 50131  1  0  0  0
 50132  1  0  0  0
 51 52  1  0  0  0
 51133  1  0  0  0
 51134  1  0  0  0
 52135  1  0  0  0
 52136  1  0  0  0
 53 54  1  0  0  0
 54 55  2  0  0  0
 54137  1  0  0  0
 55 57  1  0  0  0
 55138  1  0  0  0
 56 69  2  0  0  0
 57 58  2  0  0  0
 57139  1  0  0  0
 58140  1  0  0  0
 59 60  1  0  0  0
 59 61  1  0  0  0
 59 62  1  0  0  0
 60141  1  0  0  0
 60142  1  0  0  0
 60143  1  0  0  0
 61144  1  0  0  0
 61145  1  0  0  0
 61146  1  0  0  0
 62147  1  0  0  0
 62148  1  0  0  0
 62149  1  0  0  0
 63 65  1  0  0  0
 63150  1  0  0  0
 63151  1  0  0  0
 63152  1  0  0  0
 64153  1  0  0  0
 65154  1  0  0  0
 68 84  1  0  0  0
 71 72  2  0  0  0
 71 76  1  0  0  0
 71155  1  0  0  0
 72 77  1  0  0  0
 72156  1  0  0  0
 73 75  1  0  0  0
 73 76  2  0  0  0
 73157  1  0  0  0
 74 78  2  0  0  0
 74 79  1  0  0  0
 74158  1  0  0  0
 75 77  2  0  0  0
 75 83  1  0  0  0
 76 89  1  0  0  0
 77 85  1  0  0  0
 78 80  1  0  0  0
 78 90  1  0  0  0
 79 82  2  0  0  0
 79 86  1  0  0  0
 80 81  2  0  0  0
 80 87  1  0  0  0
 81 82  1  0  0  0
 81 88  1  0  0  0
 82 91  1  0  0  0
 83 92  1  0  0  0
 83 94  2  0  0  0
 84 93  1  0  0  0
 84 95  2  0  0  0
 85159  1  0  0  0
 85160  1  0  0  0
 85161  1  0  0  0
 86162  1  0  0  0
 86163  1  0  0  0
 86164  1  0  0  0
 87165  1  0  0  0
 87166  1  0  0  0
 87167  1  0  0  0
 88168  1  0  0  0
 88169  1  0  0  0
 88170  1  0  0  0
 89 93  1  0  0  0
 89171  1  0  0  0
 89172  1  0  0  0
 90 92  1  0  0  0
 90173  1  0  0  0
 90174  1  0  0  0
 91175  1  0  0  0
 92176  1  0  0  0
 93177  1  0  0  0
M  ISO  4   1 100  68 101  84 101  91 100
M  END
> <chiral flag>
0

> <version>
0

> <s_m_source_file>
/data/baiqing/PycharmProjects/Reinvent-master-3.2/result/LINK_invent/BTK/process_docking_weight1_custom_product_contain_oxygen_bond_distance_aromatic_linkinvent_7_9_3/rearranged_h_0041.sdf

> <i_m_source_file_index>
64

> <r_mmod_Potential_Energy-OPLS-2005>
-185.641265869141

> <r_mmod_Stretch_Energy-OPLS-2005>
36.3691520690918

> <r_mmod_Bend_Energy-OPLS-2005>
95.7758712768555

> <r_mmod_Torsional_Energy-OPLS-2005>
267.366333007812

> <r_mmod_Improper_Torsional_Energy-OPLS-2005>
4.22386598587036

> <r_mmod_Van_der_Waal_Energy-OPLS-2005>
193.378509521484

> <r_mmod_Electrostatic_Energy-OPLS-2005>
-532.865112304688

> <r_mmod_Solvation_Energy-OPLS-2005>
-258.468658447266

> <b_mmod_Minimization_Converged-OPLS-2005>
0

> <r_mmod_RMS_Derivative-OPLS-2005>
2.23189473152161

$$$$
64
                    3D
 Structure written by MMmdl.
151159  0  0  1  0            999 V2000
  -30.5218  -14.9111   20.4333 C   0  0  0  0  0  0
  -30.4492  -12.5593   19.4981 C   0  0  0  0  0  0
  -29.5254  -12.5334   18.2566 C   0  0  0  0  0  0
  -28.0551  -12.3257   18.6690 C   0  0  0  0  0  0
  -27.6387  -13.2410   19.8497 C   0  0  2  0  0  0
  -28.6810  -13.2219   20.9894 C   0  0  0  0  0  0
  -25.2494  -13.8201   20.5695 C   0  0  0  0  0  0
  -24.1800  -13.0438   20.9220 C   0  0  0  0  0  0
  -24.6404  -11.6919   20.8752 C   0  0  0  0  0  0
  -23.9081  -10.4293   21.0408 C   0  0  0  0  0  0
  -24.3627   -9.4206   21.9185 C   0  0  0  0  0  0
  -23.6298   -8.2244   22.0754 C   0  0  0  0  0  0
  -22.4279   -8.0283   21.3545 C   0  0  0  0  0  0
  -21.9918   -9.0259   20.4647 C   0  0  0  0  0  0
  -22.7252  -10.2136   20.3057 C   0  0  0  0  0  0
  -21.6855   -6.0737   22.5279 C   0  0  0  0  0  0
  -21.4016   -6.5641   23.8212 C   0  0  0  0  0  0
  -21.3660   -5.6793   24.9174 C   0  0  0  0  0  0
  -21.6044   -4.3056   24.7225 C   0  0  0  0  0  0
  -21.8819   -3.8148   23.4346 C   0  0  0  0  0  0
  -21.9193   -4.6965   22.3402 C   0  0  0  0  0  0
  -22.7819  -13.5215   21.1874 C   0  0  0  0  0  0
  -22.1662   -4.2150   21.0980 F   0  0  0  0  0  0
  -21.5628   -3.4539   25.7737 F   0  0  0  0  0  0
  -29.9674  -13.6345   20.4090 N   0  0  0  0  0  0
  -26.2926  -12.9422   20.3272 N   0  0  0  0  0  0
  -25.9338  -11.6558   20.5750 N   0  0  0  0  0  0
  -22.0467  -12.8204   22.0430 N   0  0  0  0  0  0
  -25.4159  -15.1922   20.4077 N   0  0  0  0  0  0
  -31.7012  -15.0370   20.0840 O   0  0  0  0  0  0
  -21.6642   -6.8881   21.4241 O   0  0  0  0  0  0
  -22.3501  -14.5518   20.6717 O   0  0  0  0  0  0
  -24.6423  -31.8446   23.1891 C   0  0  0  0  0  0
  -25.9201  -32.4696   23.8275 C   0  0  1  0  0  0
  -27.2222  -27.1465   20.1367 C   0  0  0  0  0  0
  -25.5952  -33.8503   24.2191 N   0  0  0  0  0  0
  -23.4452  -30.4646   21.5343 C   0  0  2  0  0  0
  -24.8945  -28.8952   20.1062 C   0  0  0  0  0  0
  -22.7562  -29.4547   22.4859 C   0  0  0  0  0  0
  -18.0304  -28.1395   22.8477 C   0  0  0  0  0  0
  -24.1491  -36.7257   23.2642 C   0  0  0  0  0  0
  -26.0006  -30.7200   21.3877 C   0  0  0  0  0  0
  -26.0702  -29.3332   20.7266 C   0  0  0  0  0  0
  -27.2294  -28.4723   20.7307 C   0  0  0  0  0  0
  -26.0149  -26.8070   19.4828 C   0  0  0  0  0  0
  -24.8793  -27.6449   19.4720 C   0  0  0  0  0  0
  -23.6704  -29.7955   20.1524 C   0  0  0  0  0  0
  -25.4124  -36.3033   24.0315 C   0  0  1  0  0  0
  -20.5916  -28.3719   23.1237 C   0  0  2  0  0  0
  -20.6787  -26.9422   22.5405 C   0  0  0  0  0  0
  -19.5761  -26.6380   21.5212 C   0  0  0  0  0  0
  -18.1943  -26.7933   22.1624 C   0  0  0  0  0  0
  -19.1560  -28.8875   23.2849 C   0  0  0  0  0  0
  -18.9477  -30.1471   23.8875 C   0  0  0  0  0  0
  -17.6473  -30.6591   24.0559 C   0  0  0  0  0  0
  -25.9073  -34.9408   23.5062 C   0  0  0  0  0  0
  -16.5364  -29.9084   23.6336 C   0  0  0  0  0  0
  -16.7288  -28.6503   23.0356 C   0  0  0  0  0  0
  -26.4525  -31.6565   25.0717 C   0  0  0  0  0  0
  -25.3709  -31.3755   26.1413 C   0  0  0  0  0  0
  -27.0394  -30.2962   24.6302 C   0  0  0  0  0  0
  -27.6051  -32.4336   25.7504 C   0  0  0  0  0  0
  -27.5575  -37.1786   24.8466 C   0  0  0  0  0  0
  -21.4255  -29.3045   22.3609 N   0  0  0  0  0  0
  -26.4288  -37.3745   23.9406 N   0  0  0  0  0  0
  -24.7158  -31.0309   22.0921 N   0  0  0  0  0  0
  -23.4210  -28.8096   23.3007 O   0  0  0  0  0  0
  -28.2914  -26.1842   20.2513 O   0  0  0  0  0  0
  -26.5660  -34.8904   22.4641 O   0  0  0  0  0  0
  -23.5545  -32.1320   23.7116 O   0  0  0  0  0  0
  -30.2386  -19.7607   19.4643 C   0  0  0  0  0  0
  -30.4206  -18.3282   19.6444 C   0  0  0  0  0  0
  -28.5869  -19.8077   21.1304 C   0  0  0  0  0  0
  -29.3003  -20.5968   20.1711 C   0  0  0  0  0  0
  -28.7445  -18.3674   21.3101 C   0  0  0  0  0  0
  -29.6658  -17.5365   20.5672 C   0  0  0  0  0  0
  -29.1215  -22.1506   19.8147 C   0  0  0  0  0  0
  -28.5022  -23.3214   20.3160 C   0  0  0  0  0  0
  -27.8609  -17.6966   22.3477 C   0  0  0  0  0  0
  -28.3486  -24.7859   19.5828 C   0  0  0  0  0  0
  -29.6858  -16.0126   20.7326 N   0  0  0  0  0  0
  -31.4832  -12.7218   19.1899 H   0  0  0  0  0  0
  -30.4399  -11.5944   20.0075 H   0  0  0  0  0  0
  -29.8365  -11.7458   17.5690 H   0  0  0  0  0  0
  -29.6220  -13.4728   17.7099 H   0  0  0  0  0  0
  -27.9391  -11.2800   18.9566 H   0  0  0  0  0  0
  -27.3949  -12.4816   17.8151 H   0  0  0  0  0  0
  -27.6165  -14.2534   19.4455 H   0  0  0  0  0  0
  -28.7552  -12.2284   21.4341 H   0  0  0  0  0  0
  -28.3836  -13.8938   21.7959 H   0  0  0  0  0  0
  -25.2771   -9.5681   22.4762 H   0  0  0  0  0  0
  -24.0005   -7.4634   22.7474 H   0  0  0  0  0  0
  -21.0850   -8.8781   19.8952 H   0  0  0  0  0  0
  -22.3711  -10.9677   19.6168 H   0  0  0  0  0  0
  -21.2010   -7.6149   23.9716 H   0  0  0  0  0  0
  -21.1481   -6.0523   25.9077 H   0  0  0  0  0  0
  -22.0598   -2.7610   23.2846 H   0  0  0  0  0  0
  -22.4090  -11.9870   22.4822 H   0  0  0  0  0  0
  -21.1082  -13.1222   22.2634 H   0  0  0  0  0  0
  -24.6389  -15.8372   20.5013 H   0  0  0  0  0  0
  -26.2446  -15.6266   20.0232 H   0  0  0  0  0  0
  -26.7265  -32.5302   23.1002 H   0  0  0  0  0  0
  -25.0075  -33.9618   25.0322 H   0  0  0  0  0  0
  -22.7473  -31.2904   21.3815 H   0  0  0  0  0  0
  -23.3757  -35.9585   23.3294 H   0  0  0  0  0  0
  -24.3576  -36.8900   22.2059 H   0  0  0  0  0  0
  -23.7244  -37.6449   23.6687 H   0  0  0  0  0  0
  -26.1577  -31.4762   20.6174 H   0  0  0  0  0  0
  -26.8706  -30.7673   22.0311 H   0  0  0  0  0  0
  -28.1223  -28.8009   21.2437 H   0  0  0  0  0  0
  -25.8837  -25.8505   19.0062 H   0  0  0  0  0  0
  -23.9784  -27.3012   18.9822 H   0  0  0  0  0  0
  -23.8050  -30.5711   19.3975 H   0  0  0  0  0  0
  -22.7854  -29.2371   19.8423 H   0  0  0  0  0  0
  -25.1312  -36.1861   25.0808 H   0  0  0  0  0  0
  -21.0008  -28.3309   24.1358 H   0  0  0  0  0  0
  -20.5680  -26.2332   23.3623 H   0  0  0  0  0  0
  -21.6653  -26.7428   22.1203 H   0  0  0  0  0  0
  -19.6921  -25.6285   21.1256 H   0  0  0  0  0  0
  -19.6697  -27.3178   20.6732 H   0  0  0  0  0  0
  -17.4211  -26.6676   21.4029 H   0  0  0  0  0  0
  -18.0343  -26.0081   22.9027 H   0  0  0  0  0  0
  -19.7952  -30.7294   24.2233 H   0  0  0  0  0  0
  -17.5026  -31.6269   24.5165 H   0  0  0  0  0  0
  -15.5363  -30.2977   23.7673 H   0  0  0  0  0  0
  -15.8689  -28.0814   22.7083 H   0  0  0  0  0  0
  -24.5896  -30.7094   25.7735 H   0  0  0  0  0  0
  -24.8890  -32.2936   26.4780 H   0  0  0  0  0  0
  -25.7993  -30.8967   27.0227 H   0  0  0  0  0  0
  -26.3014  -29.6680   24.1299 H   0  0  0  0  0  0
  -27.3995  -29.7265   25.4879 H   0  0  0  0  0  0
  -27.8926  -30.4198   23.9629 H   0  0  0  0  0  0
  -27.2639  -33.3653   26.2027 H   0  0  0  0  0  0
  -28.3890  -32.6870   25.0355 H   0  0  0  0  0  0
  -28.0688  -31.8500   26.5467 H   0  0  0  0  0  0
  -28.2587  -38.0087   24.7508 H   0  0  0  0  0  0
  -28.1076  -36.2616   24.6300 H   0  0  0  0  0  0
  -27.2291  -37.1442   25.8869 H   0  0  0  0  0  0
  -20.9464  -29.8758   21.6790 H   0  0  0  0  0  0
  -26.0155  -38.2814   24.1406 H   0  0  0  0  0  0
  -30.8504  -20.2341   18.7093 H   0  0  0  0  0  0
  -31.1450  -17.8286   19.0164 H   0  0  0  0  0  0
  -27.8499  -20.3209   21.7321 H   0  0  0  0  0  0
  -29.5878  -22.3503   18.8597 H   0  0  0  0  0  0
  -27.9998  -23.2502   21.2699 H   0  0  0  0  0  0
  -27.2944  -18.4250   22.9284 H   0  0  0  0  0  0
  -28.4631  -17.1155   23.0467 H   0  0  0  0  0  0
  -27.1478  -17.0270   21.8676 H   0  0  0  0  0  0
  -27.5166  -24.6615   18.8976 H   0  0  0  0  0  0
  -29.2046  -24.8481   18.9106 H   0  0  0  0  0  0
  -28.8237  -15.6702   21.1273 H   0  0  0  0  0  0
  1 25  1  0  0  0
  1 30  2  0  0  0
  1 81  1  0  0  0
  2  3  1  0  0  0
  2 25  1  0  0  0
  2 82  1  0  0  0
  2 83  1  0  0  0
  3  4  1  0  0  0
  3 84  1  0  0  0
  3 85  1  0  0  0
  4  5  1  0  0  0
  4 86  1  0  0  0
  4 87  1  0  0  0
  5  6  1  0  0  0
  5 26  1  0  0  0
  5 88  1  0  0  0
  6 25  1  0  0  0
  6 89  1  0  0  0
  6 90  1  0  0  0
  7  8  2  0  0  0
  7 26  1  0  0  0
  7 29  1  0  0  0
  8  9  1  0  0  0
  8 22  1  0  0  0
  9 10  1  0  0  0
  9 27  2  0  0  0
 10 11  2  0  0  0
 10 15  1  0  0  0
 11 12  1  0  0  0
 11 91  1  0  0  0
 12 13  2  0  0  0
 12 92  1  0  0  0
 13 14  1  0  0  0
 13 31  1  0  0  0
 14 15  2  0  0  0
 14 93  1  0  0  0
 15 94  1  0  0  0
 16 17  2  0  0  0
 16 21  1  0  0  0
 16 31  1  0  0  0
 17 18  1  0  0  0
 17 95  1  0  0  0
 18 19  2  0  0  0
 18 96  1  0  0  0
 19 20  1  0  0  0
 19 24  1  0  0  0
 20 21  2  0  0  0
 20 97  1  0  0  0
 21 23  1  0  0  0
 22 28  1  0  0  0
 22 32  2  0  0  0
 26 27  1  0  0  0
 28 98  1  0  0  0
 28 99  1  0  0  0
 29100  1  0  0  0
 29101  1  0  0  0
 33 34  1  0  0  0
 33 66  1  0  0  0
 33 70  2  0  0  0
 34 36  1  0  0  0
 34 59  1  0  0  0
 34102  1  0  0  0
 35 44  2  0  0  0
 35 45  1  0  0  0
 35 68  1  0  0  0
 36 56  1  0  0  0
 36103  1  0  0  0
 37 39  1  0  0  0
 37 47  1  0  0  0
 37 66  1  0  0  0
 37104  1  0  0  0
 38 43  2  0  0  0
 38 46  1  0  0  0
 38 47  1  0  0  0
 39 64  1  0  0  0
 39 67  2  0  0  0
 40 52  1  0  0  0
 40 53  2  0  0  0
 40 58  1  0  0  0
 41105  1  0  0  0
 41106  1  0  0  0
 41107  1  0  0  0
 41 48  1  0  0  0
 42 43  1  0  0  0
 42 66  1  0  0  0
 42108  1  0  0  0
 42109  1  0  0  0
 43 44  1  0  0  0
 44110  1  0  0  0
 45 46  2  0  0  0
 45111  1  0  0  0
 46112  1  0  0  0
 47113  1  0  0  0
 47114  1  0  0  0
 48 56  1  0  0  0
 48 65  1  0  0  0
 48115  1  0  0  0
 49 50  1  0  0  0
 49 53  1  0  0  0
 49 64  1  0  0  0
 49116  1  0  0  0
 50 51  1  0  0  0
 50117  1  0  0  0
 50118  1  0  0  0
 51 52  1  0  0  0
 51119  1  0  0  0
 51120  1  0  0  0
 52121  1  0  0  0
 52122  1  0  0  0
 53 54  1  0  0  0
 54 55  2  0  0  0
 54123  1  0  0  0
 55 57  1  0  0  0
 55124  1  0  0  0
 56 69  2  0  0  0
 57 58  2  0  0  0
 57125  1  0  0  0
 58126  1  0  0  0
 59 60  1  0  0  0
 59 61  1  0  0  0
 59 62  1  0  0  0
 60127  1  0  0  0
 60128  1  0  0  0
 60129  1  0  0  0
 61130  1  0  0  0
 61131  1  0  0  0
 61132  1  0  0  0
 62133  1  0  0  0
 62134  1  0  0  0
 62135  1  0  0  0
 63 65  1  0  0  0
 63136  1  0  0  0
 63137  1  0  0  0
 63138  1  0  0  0
 64139  1  0  0  0
 65140  1  0  0  0
 68 80  1  0  0  0
 71 72  2  0  0  0
 71 74  1  0  0  0
 71141  1  0  0  0
 72 76  1  0  0  0
 72142  1  0  0  0
 73 74  2  0  0  0
 73 75  1  0  0  0
 73143  1  0  0  0
 74 77  1  0  0  0
 75 76  2  0  0  0
 75 79  1  0  0  0
 76 81  1  0  0  0
 77 78  2  0  0  0
 77144  1  0  0  0
 78 80  1  0  0  0
 78145  1  0  0  0
 79146  1  0  0  0
 79147  1  0  0  0
 79148  1  0  0  0
 80149  1  0  0  0
 80150  1  0  0  0
 81151  1  0  0  0
M  ISO  4   1 100  68 101  80 101  81 100
M  END
> <chiral flag>
0

> <version>
0

> <s_m_source_file>
/data/baiqing/PycharmProjects/Reinvent-master-3.2/result/LINK_invent/BTK/process_docking_weight1_custom_product_contain_oxygen_bond_distance_aromatic_linkinvent_7_9_3/rearranged_h_0041.sdf

> <i_m_source_file_index>
65

> <r_mmod_Potential_Energy-OPLS-2005>
408.698364257812

> <r_mmod_Stretch_Energy-OPLS-2005>
215.310684204102

> <r_mmod_Bend_Energy-OPLS-2005>
258.638916015625

> <r_mmod_Torsional_Energy-OPLS-2005>
216.464721679688

> <r_mmod_Improper_Torsional_Energy-OPLS-2005>
4.63520336151123

> <r_mmod_Van_der_Waal_Energy-OPLS-2005>
132.428573608398

> <r_mmod_Electrostatic_Energy-OPLS-2005>
-386.17919921875

> <r_mmod_Solvation_Energy-OPLS-2005>
-206.719619750977

> <b_mmod_Minimization_Converged-OPLS-2005>
0

> <r_mmod_RMS_Derivative-OPLS-2005>
0.0722123458981514

$$$$
65
                    3D
 Structure written by MMmdl.
162170  0  0  1  0            999 V2000
  -30.7675  -14.3750   20.6798 C   0  0  0  0  0  0
  -30.4111  -12.2922   19.4039 C   0  0  0  0  0  0
  -29.4817  -12.5230   18.1979 C   0  0  0  0  0  0
  -28.0068  -12.3785   18.6142 C   0  0  0  0  0  0
  -27.6638  -13.2044   19.8813 C   0  0  2  0  0  0
  -28.7006  -12.9574   21.0003 C   0  0  0  0  0  0
  -25.2592  -13.8173   20.5682 C   0  0  0  0  0  0
  -24.1840  -13.0445   20.9167 C   0  0  0  0  0  0
  -24.6386  -11.6910   20.8731 C   0  0  0  0  0  0
  -23.9056  -10.4296   21.0407 C   0  0  0  0  0  0
  -24.3613   -9.4216   21.9188 C   0  0  0  0  0  0
  -23.6292   -8.2246   22.0759 C   0  0  0  0  0  0
  -22.4276   -8.0277   21.3542 C   0  0  0  0  0  0
  -21.9911   -9.0249   20.4640 C   0  0  0  0  0  0
  -22.7233  -10.2133   20.3050 C   0  0  0  0  0  0
  -21.6846   -6.0732   22.5279 C   0  0  0  0  0  0
  -21.4012   -6.5638   23.8212 C   0  0  0  0  0  0
  -21.3658   -5.6794   24.9177 C   0  0  0  0  0  0
  -21.6046   -4.3056   24.7226 C   0  0  0  0  0  0
  -21.8821   -3.8149   23.4343 C   0  0  0  0  0  0
  -21.9192   -4.6965   22.3400 C   0  0  0  0  0  0
  -22.7867  -13.5239   21.1839 C   0  0  0  0  0  0
  -22.1661   -4.2153   21.0979 F   0  0  0  0  0  0
  -21.5631   -3.4540   25.7738 F   0  0  0  0  0  0
  -30.0420  -13.2475   20.4607 N   0  0  0  0  0  0
  -26.3023  -12.9333   20.3381 N   0  0  0  0  0  0
  -25.9306  -11.6493   20.5762 N   0  0  0  0  0  0
  -22.0502  -12.8217   22.0387 N   0  0  0  0  0  0
  -25.4324  -15.1886   20.4088 N   0  0  0  0  0  0
  -31.7979  -14.6362   20.0500 O   0  0  0  0  0  0
  -21.6632   -6.8878   21.4242 O   0  0  0  0  0  0
  -22.3556  -14.5555   20.6703 O   0  0  0  0  0  0
  -24.6121  -31.8693   23.2137 C   0  0  0  0  0  0
  -25.9026  -32.4829   23.8413 C   0  0  1  0  0  0
  -27.2343  -27.4451   20.0823 C   0  0  0  0  0  0
  -25.5899  -33.8630   24.2347 N   0  0  0  0  0  0
  -23.3972  -30.4937   21.5558 C   0  0  2  0  0  0
  -24.8404  -28.9612   20.1179 C   0  0  0  0  0  0
  -22.7379  -29.4661   22.5021 C   0  0  0  0  0  0
  -18.0268  -28.1384   22.8494 C   0  0  0  0  0  0
  -24.1481  -36.7306   23.2641 C   0  0  0  0  0  0
  -25.9241  -30.8365   21.3641 C   0  0  0  0  0  0
  -25.9991  -29.4704   20.7138 C   0  0  0  0  0  0
  -27.1936  -28.7183   20.6952 C   0  0  0  0  0  0
  -26.0528  -26.9517   19.4766 C   0  0  0  0  0  0
  -24.8614  -27.7001   19.5002 C   0  0  0  0  0  0
  -23.6028  -29.8276   20.1701 C   0  0  0  0  0  0
  -25.4113  -36.3115   24.0334 C   0  0  1  0  0  0
  -20.5849  -28.3663   23.1331 C   0  0  2  0  0  0
  -20.6756  -26.9409   22.5413 C   0  0  0  0  0  0
  -19.5737  -26.6399   21.5201 C   0  0  0  0  0  0
  -18.1915  -26.7934   22.1612 C   0  0  0  0  0  0
  -19.1515  -28.8839   23.2903 C   0  0  0  0  0  0
  -18.9443  -30.1443   23.8921 C   0  0  0  0  0  0
  -17.6451  -30.6592   24.0575 C   0  0  0  0  0  0
  -25.9040  -34.9478   23.5137 C   0  0  0  0  0  0
  -16.5342  -29.9101   23.6332 C   0  0  0  0  0  0
  -16.7259  -28.6514   23.0359 C   0  0  0  0  0  0
  -26.4475  -31.6596   25.0720 C   0  0  0  0  0  0
  -25.3748  -31.3631   26.1452 C   0  0  0  0  0  0
  -27.0342  -30.3074   24.6057 C   0  0  0  0  0  0
  -27.6038  -32.4319   25.7497 C   0  0  0  0  0  0
  -27.5578  -37.1820   24.8474 C   0  0  0  0  0  0
  -21.4114  -29.3020   22.3736 N   0  0  0  0  0  0
  -26.4297  -37.3802   23.9407 N   0  0  0  0  0  0
  -24.6633  -31.0800   22.1036 N   0  0  0  0  0  0
  -23.4154  -28.8201   23.3060 O   0  0  0  0  0  0
  -28.4437  -26.7757   20.0841 O   0  0  0  0  0  0
  -26.5595  -34.8914   22.4694 O   0  0  0  0  0  0
  -23.5325  -32.1443   23.7547 O   0  0  0  0  0  0
  -32.1448  -18.7523   23.0336 C   0  0  0  0  0  0
  -32.2770  -16.4079   22.4174 C   0  0  0  0  0  0
  -30.7635  -18.7697   22.7427 C   0  0  0  0  0  0
  -30.1284  -17.5833   22.2715 C   0  0  0  0  0  0
  -30.9009  -16.4018   22.0903 C   0  0  0  0  0  0
  -32.8969  -17.5774   22.8823 C   0  0  0  0  0  0
  -28.6323  -17.5637   21.9686 C   0  0  0  0  0  0
  -30.0208  -20.0855   22.9756 C   0  0  0  0  0  0
  -29.3579  -23.1422   20.7509 C   0  0  0  0  0  0
  -29.1443  -24.6489   21.0045 C   0  0  0  0  0  0
  -29.7557  -22.3650   22.0229 C   0  0  0  0  0  0
  -28.5212  -25.3746   19.7998 C   0  0  0  0  0  0
  -30.2913  -15.1983   21.6304 N   0  0  0  0  0  0
  -29.9930  -20.9266   21.7599 N   0  3  0  0  0  0
  -34.5771  -17.5686   23.2732 Cl  0  0  0  0  0  0
  -31.4545  -12.3874   19.0989 H   0  0  0  0  0  0
  -30.3059  -11.2721   19.7766 H   0  0  0  0  0  0
  -29.7136  -11.8158   17.4007 H   0  0  0  0  0  0
  -29.6514  -13.5185   17.7844 H   0  0  0  0  0  0
  -27.8148  -11.3210   18.7970 H   0  0  0  0  0  0
  -27.3544  -12.6686   17.7899 H   0  0  0  0  0  0
  -27.7193  -14.2563   19.6021 H   0  0  0  0  0  0
  -28.6633  -11.9163   21.3265 H   0  0  0  0  0  0
  -28.4473  -13.5431   21.8835 H   0  0  0  0  0  0
  -25.2749   -9.5691   22.4766 H   0  0  0  0  0  0
  -23.9993   -7.4645   22.7483 H   0  0  0  0  0  0
  -21.0845   -8.8767   19.8940 H   0  0  0  0  0  0
  -22.3695  -10.9675   19.6157 H   0  0  0  0  0  0
  -21.2006   -7.6148   23.9718 H   0  0  0  0  0  0
  -21.1477   -6.0522   25.9081 H   0  0  0  0  0  0
  -22.0602   -2.7608   23.2844 H   0  0  0  0  0  0
  -22.4114  -11.9853   22.4731 H   0  0  0  0  0  0
  -21.1125  -13.1241   22.2605 H   0  0  0  0  0  0
  -24.6654  -15.8445   20.5108 H   0  0  0  0  0  0
  -26.2854  -15.6246   20.0816 H   0  0  0  0  0  0
  -26.7084  -32.5552   23.1171 H   0  0  0  0  0  0
  -25.0058  -33.9798   25.0495 H   0  0  0  0  0  0
  -22.6838  -31.3091   21.4207 H   0  0  0  0  0  0
  -23.3748  -35.9630   23.3305 H   0  0  0  0  0  0
  -24.3564  -36.8925   22.2053 H   0  0  0  0  0  0
  -23.7212  -37.6502   23.6658 H   0  0  0  0  0  0
  -26.0272  -31.6009   20.5924 H   0  0  0  0  0  0
  -26.8163  -30.8940   21.9759 H   0  0  0  0  0  0
  -28.0895  -29.1126   21.1528 H   0  0  0  0  0  0
  -26.0144  -26.0087   18.9543 H   0  0  0  0  0  0
  -23.9714  -27.3074   19.0277 H   0  0  0  0  0  0
  -23.7090  -30.6042   19.4123 H   0  0  0  0  0  0
  -22.7261  -29.2476   19.8761 H   0  0  0  0  0  0
  -25.1296  -36.1985   25.0830 H   0  0  0  0  0  0
  -20.9939  -28.3233   24.1449 H   0  0  0  0  0  0
  -20.5658  -26.2276   23.3583 H   0  0  0  0  0  0
  -21.6627  -26.7455   22.1208 H   0  0  0  0  0  0
  -19.6897  -25.6313   21.1218 H   0  0  0  0  0  0
  -19.6690  -27.3208   20.6726 H   0  0  0  0  0  0
  -17.4189  -26.6687   21.4007 H   0  0  0  0  0  0
  -18.0311  -26.0061   22.8995 H   0  0  0  0  0  0
  -19.7919  -30.7243   24.2309 H   0  0  0  0  0  0
  -17.5013  -31.6274   24.5177 H   0  0  0  0  0  0
  -15.5342  -30.3021   23.7639 H   0  0  0  0  0  0
  -15.8653  -28.0837   22.7087 H   0  0  0  0  0  0
  -24.5997  -30.6898   25.7768 H   0  0  0  0  0  0
  -24.8841  -32.2739   26.4893 H   0  0  0  0  0  0
  -25.8128  -30.8831   27.0214 H   0  0  0  0  0  0
  -26.2887  -29.6798   24.1165 H   0  0  0  0  0  0
  -27.4214  -29.7336   25.4486 H   0  0  0  0  0  0
  -27.8655  -30.4448   23.9137 H   0  0  0  0  0  0
  -27.2665  -33.3621   26.2089 H   0  0  0  0  0  0
  -28.3852  -32.6881   25.0326 H   0  0  0  0  0  0
  -28.0699  -31.8431   26.5413 H   0  0  0  0  0  0
  -28.2612  -38.0109   24.7548 H   0  0  0  0  0  0
  -28.1067  -36.2645   24.6302 H   0  0  0  0  0  0
  -27.2283  -37.1467   25.8873 H   0  0  0  0  0  0
  -20.9262  -29.8747   21.6967 H   0  0  0  0  0  0
  -26.0186  -38.2875   24.1430 H   0  0  0  0  0  0
  -32.6396  -19.6436   23.3941 H   0  0  0  0  0  0
  -32.8726  -15.5124   22.3146 H   0  0  0  0  0  0
  -28.2595  -18.5299   21.6355 H   0  0  0  0  0  0
  -28.0741  -17.2729   22.8589 H   0  0  0  0  0  0
  -28.3859  -16.8608   21.1733 H   0  0  0  0  0  0
  -30.5319  -20.6282   23.7736 H   0  0  0  0  0  0
  -29.0111  -19.9107   23.3470 H   0  0  0  0  0  0
  -30.1195  -23.0150   19.9801 H   0  0  0  0  0  0
  -28.4379  -22.7152   20.3488 H   0  0  0  0  0  0
  -30.0971  -25.1149   21.2594 H   0  0  0  0  0  0
  -28.4925  -24.7873   21.8684 H   0  0  0  0  0  0
  -28.9645  -22.4708   22.7674 H   0  0  0  0  0  0
  -30.6566  -22.7971   22.4605 H   0  0  0  0  0  0
  -27.5743  -24.8890   19.5820 H   0  0  0  0  0  0
  -29.1473  -25.2437   18.9175 H   0  0  0  0  0  0
  -29.3869  -14.9638   22.0115 H   0  0  0  0  0  0
  -29.2757  -20.5742   21.1488 H   0  0  0  0  0  0
  -30.8757  -20.8257   21.2865 H   0  0  0  0  0  0
  1 25  1  0  0  0
  1 30  2  0  0  0
  1 83  1  0  0  0
  2  3  1  0  0  0
  2 25  1  0  0  0
  2 86  1  0  0  0
  2 87  1  0  0  0
  3  4  1  0  0  0
  3 88  1  0  0  0
  3 89  1  0  0  0
  4  5  1  0  0  0
  4 90  1  0  0  0
  4 91  1  0  0  0
  5  6  1  0  0  0
  5 26  1  0  0  0
  5 92  1  0  0  0
  6 25  1  0  0  0
  6 93  1  0  0  0
  6 94  1  0  0  0
  7  8  2  0  0  0
  7 26  1  0  0  0
  7 29  1  0  0  0
  8  9  1  0  0  0
  8 22  1  0  0  0
  9 10  1  0  0  0
  9 27  2  0  0  0
 10 11  2  0  0  0
 10 15  1  0  0  0
 11 12  1  0  0  0
 11 95  1  0  0  0
 12 13  2  0  0  0
 12 96  1  0  0  0
 13 14  1  0  0  0
 13 31  1  0  0  0
 14 15  2  0  0  0
 14 97  1  0  0  0
 15 98  1  0  0  0
 16 17  2  0  0  0
 16 21  1  0  0  0
 16 31  1  0  0  0
 17 18  1  0  0  0
 17 99  1  0  0  0
 18 19  2  0  0  0
 18100  1  0  0  0
 19 20  1  0  0  0
 19 24  1  0  0  0
 20 21  2  0  0  0
 20101  1  0  0  0
 21 23  1  0  0  0
 22 28  1  0  0  0
 22 32  2  0  0  0
 26 27  1  0  0  0
 28102  1  0  0  0
 28103  1  0  0  0
 29104  1  0  0  0
 29105  1  0  0  0
 33 34  1  0  0  0
 33 66  1  0  0  0
 33 70  2  0  0  0
 34 36  1  0  0  0
 34 59  1  0  0  0
 34106  1  0  0  0
 35 44  2  0  0  0
 35 45  1  0  0  0
 35 68  1  0  0  0
 36 56  1  0  0  0
 36107  1  0  0  0
 37 39  1  0  0  0
 37 47  1  0  0  0
 37 66  1  0  0  0
 37108  1  0  0  0
 38 43  2  0  0  0
 38 46  1  0  0  0
 38 47  1  0  0  0
 39 64  1  0  0  0
 39 67  2  0  0  0
 40 52  1  0  0  0
 40 53  2  0  0  0
 40 58  1  0  0  0
 41109  1  0  0  0
 41110  1  0  0  0
 41111  1  0  0  0
 41 48  1  0  0  0
 42 43  1  0  0  0
 42 66  1  0  0  0
 42112  1  0  0  0
 42113  1  0  0  0
 43 44  1  0  0  0
 44114  1  0  0  0
 45 46  2  0  0  0
 45115  1  0  0  0
 46116  1  0  0  0
 47117  1  0  0  0
 47118  1  0  0  0
 48 56  1  0  0  0
 48 65  1  0  0  0
 48119  1  0  0  0
 49 50  1  0  0  0
 49 53  1  0  0  0
 49 64  1  0  0  0
 49120  1  0  0  0
 50 51  1  0  0  0
 50121  1  0  0  0
 50122  1  0  0  0
 51 52  1  0  0  0
 51123  1  0  0  0
 51124  1  0  0  0
 52125  1  0  0  0
 52126  1  0  0  0
 53 54  1  0  0  0
 54 55  2  0  0  0
 54127  1  0  0  0
 55 57  1  0  0  0
 55128  1  0  0  0
 56 69  2  0  0  0
 57 58  2  0  0  0
 57129  1  0  0  0
 58130  1  0  0  0
 59 60  1  0  0  0
 59 61  1  0  0  0
 59 62  1  0  0  0
 60131  1  0  0  0
 60132  1  0  0  0
 60133  1  0  0  0
 61134  1  0  0  0
 61135  1  0  0  0
 61136  1  0  0  0
 62137  1  0  0  0
 62138  1  0  0  0
 62139  1  0  0  0
 63 65  1  0  0  0
 63140  1  0  0  0
 63141  1  0  0  0
 63142  1  0  0  0
 64143  1  0  0  0
 65144  1  0  0  0
 68 82  1  0  0  0
 71 73  2  0  0  0
 71 76  1  0  0  0
 71145  1  0  0  0
 72 75  1  0  0  0
 72 76  2  0  0  0
 72146  1  0  0  0
 73 74  1  0  0  0
 73 78  1  0  0  0
 74 75  2  0  0  0
 74 77  1  0  0  0
 75 83  1  0  0  0
 76 85  1  0  0  0
 77147  1  0  0  0
 77148  1  0  0  0
 77149  1  0  0  0
 78 84  1  0  0  0
 78150  1  0  0  0
 78151  1  0  0  0
 79 80  1  0  0  0
 79 81  1  0  0  0
 79152  1  0  0  0
 79153  1  0  0  0
 80 82  1  0  0  0
 80154  1  0  0  0
 80155  1  0  0  0
 81 84  1  0  0  0
 81156  1  0  0  0
 81157  1  0  0  0
 82158  1  0  0  0
 82159  1  0  0  0
 83160  1  0  0  0
 84161  1  0  0  0
 84162  1  0  0  0
M  CHG  1  84   1
M  ISO  4   1 100  68 101  82 101  83 100
M  END
> <chiral flag>
0

> <version>
0

> <s_m_source_file>
/data/baiqing/PycharmProjects/Reinvent-master-3.2/result/LINK_invent/BTK/process_docking_weight1_custom_product_contain_oxygen_bond_distance_aromatic_linkinvent_7_9_3/rearranged_h_0041.sdf

> <i_m_source_file_index>
66

> <r_mmod_Potential_Energy-OPLS-2005>
-275.155517578125

> <r_mmod_Stretch_Energy-OPLS-2005>
35.3805885314941

> <r_mmod_Bend_Energy-OPLS-2005>
99.8025588989258

> <r_mmod_Torsional_Energy-OPLS-2005>
206.283157348633

> <r_mmod_Improper_Torsional_Energy-OPLS-2005>
1.7885844707489

> <r_mmod_Van_der_Waal_Energy-OPLS-2005>
158.932220458984

> <r_mmod_Electrostatic_Energy-OPLS-2005>
-299.963562011719

> <r_mmod_Solvation_Energy-OPLS-2005>
-485.537414550781

> <b_mmod_Minimization_Converged-OPLS-2005>
0

> <r_mmod_RMS_Derivative-OPLS-2005>
1.65892350673676

$$$$
66
                    3D
 Structure written by MMmdl.
163171  0  0  1  0            999 V2000
  -30.7611  -14.3994   20.6487 C   0  0  0  0  0  0
  -30.4144  -12.2916   19.4106 C   0  0  0  0  0  0
  -29.4883  -12.5229   18.2010 C   0  0  0  0  0  0
  -28.0120  -12.3797   18.6163 C   0  0  0  0  0  0
  -27.6666  -13.2068   19.8827 C   0  0  2  0  0  0
  -28.7059  -12.9641   21.0013 C   0  0  0  0  0  0
  -25.2601  -13.8171   20.5683 C   0  0  0  0  0  0
  -24.1853  -13.0446   20.9190 C   0  0  0  0  0  0
  -24.6405  -11.6914   20.8739 C   0  0  0  0  0  0
  -23.9070  -10.4299   21.0405 C   0  0  0  0  0  0
  -24.3611   -9.4218   21.9189 C   0  0  0  0  0  0
  -23.6292   -8.2248   22.0755 C   0  0  0  0  0  0
  -22.4276   -8.0282   21.3546 C   0  0  0  0  0  0
  -21.9909   -9.0263   20.4649 C   0  0  0  0  0  0
  -22.7238  -10.2145   20.3062 C   0  0  0  0  0  0
  -21.6856   -6.0732   22.5282 C   0  0  0  0  0  0
  -21.4010   -6.5636   23.8215 C   0  0  0  0  0  0
  -21.3665   -5.6792   24.9176 C   0  0  0  0  0  0
  -21.6045   -4.3055   24.7229 C   0  0  0  0  0  0
  -21.8822   -3.8145   23.4350 C   0  0  0  0  0  0
  -21.9194   -4.6957   22.3402 C   0  0  0  0  0  0
  -22.7871  -13.5243   21.1857 C   0  0  0  0  0  0
  -22.1664   -4.2143   21.0981 F   0  0  0  0  0  0
  -21.5634   -3.4540   25.7742 F   0  0  0  0  0  0
  -30.0488  -13.2540   20.4630 N   0  0  0  0  0  0
  -26.3045  -12.9342   20.3392 N   0  0  0  0  0  0
  -25.9336  -11.6503   20.5775 N   0  0  0  0  0  0
  -22.0507  -12.8236   22.0402 N   0  0  0  0  0  0
  -25.4320  -15.1872   20.4043 N   0  0  0  0  0  0
  -31.8068  -14.6298   20.0352 O   0  0  0  0  0  0
  -21.6643   -6.8877   21.4243 O   0  0  0  0  0  0
  -22.3568  -14.5573   20.6735 O   0  0  0  0  0  0
  -24.6119  -31.8692   23.2099 C   0  0  0  0  0  0
  -25.9012  -32.4840   23.8399 C   0  0  1  0  0  0
  -27.2484  -27.4577   20.1138 C   0  0  0  0  0  0
  -25.5863  -33.8637   24.2341 N   0  0  0  0  0  0
  -23.4020  -30.4935   21.5440 C   0  0  2  0  0  0
  -24.8567  -28.9586   20.1164 C   0  0  0  0  0  0
  -22.7407  -29.4688   22.4937 C   0  0  0  0  0  0
  -18.0296  -28.1419   22.8513 C   0  0  0  0  0  0
  -24.1485  -36.7317   23.2639 C   0  0  0  0  0  0
  -25.9260  -30.8464   21.3583 C   0  0  0  0  0  0
  -26.0095  -29.4763   20.7206 C   0  0  0  0  0  0
  -27.2090  -28.7304   20.7274 C   0  0  0  0  0  0
  -26.0873  -26.9567   19.4920 C   0  0  0  0  0  0
  -24.8870  -27.6941   19.4998 C   0  0  0  0  0  0
  -23.6166  -29.8230   20.1584 C   0  0  0  0  0  0
  -25.4106  -36.3130   24.0345 C   0  0  1  0  0  0
  -20.5887  -28.3702   23.1324 C   0  0  2  0  0  0
  -20.6791  -26.9440   22.5421 C   0  0  0  0  0  0
  -19.5765  -26.6422   21.5229 C   0  0  0  0  0  0
  -18.1944  -26.7973   22.1636 C   0  0  0  0  0  0
  -19.1544  -28.8875   23.2927 C   0  0  0  0  0  0
  -18.9470  -30.1486   23.8935 C   0  0  0  0  0  0
  -17.6470  -30.6622   24.0604 C   0  0  0  0  0  0
  -25.9020  -34.9490   23.5146 C   0  0  0  0  0  0
  -16.5363  -29.9139   23.6328 C   0  0  0  0  0  0
  -16.7285  -28.6552   23.0349 C   0  0  0  0  0  0
  -26.4459  -31.6601   25.0709 C   0  0  0  0  0  0
  -25.3727  -31.3700   26.1454 C   0  0  0  0  0  0
  -27.0259  -30.3051   24.6027 C   0  0  0  0  0  0
  -27.6039  -32.4316   25.7473 C   0  0  0  0  0  0
  -27.5594  -37.1818   24.8474 C   0  0  0  0  0  0
  -21.4139  -29.3060   22.3693 N   0  0  0  0  0  0
  -26.4301  -37.3813   23.9425 N   0  0  0  0  0  0
  -24.6641  -31.0839   22.0970 N   0  0  0  0  0  0
  -23.4180  -28.8217   23.2968 O   0  0  0  0  0  0
  -28.3901  -26.6908   20.0827 O   0  0  0  0  0  0
  -26.5591  -34.8943   22.4717 O   0  0  0  0  0  0
  -23.5318  -32.1412   23.7512 O   0  0  0  0  0  0
  -32.2212  -18.4616   21.8054 C   0  0  0  0  0  0
  -31.9093  -17.1071   21.6087 C   0  0  0  0  0  0
  -31.2326  -19.3921   22.1904 C   0  0  0  0  0  0
  -29.8999  -18.9304   22.4079 C   0  0  0  0  0  0
  -29.5752  -17.5597   22.1577 C   0  0  0  0  0  0
  -30.5820  -16.6395   21.7487 C   0  0  0  0  0  0
  -30.1445  -24.1596   21.8915 C   0  0  0  0  0  0
  -30.0513  -25.3455   21.2565 C   0  0  0  0  0  0
  -31.6694  -20.7957   22.3596 C   0  0  0  0  0  0
  -28.8192  -19.8811   22.9320 C   0  0  0  0  0  0
  -28.1323  -17.0856   22.3326 C   0  0  0  0  0  0
  -31.3669  -23.2554   21.8353 C   0  0  0  0  0  0
  -28.8836  -26.3135   21.3680 C   0  0  0  0  0  0
  -32.7869  -21.0462   23.0430 N   0  0  0  0  0  0
  -30.2437  -15.2644   21.5394 N   0  0  0  0  0  0
  -30.9875  -21.8257   21.8209 N   0  3  0  0  0  0
  -31.4605  -12.3721   19.1098 H   0  0  0  0  0  0
  -30.2974  -11.2739   19.7859 H   0  0  0  0  0  0
  -29.7230  -11.8137   17.4057 H   0  0  0  0  0  0
  -29.6614  -13.5165   17.7851 H   0  0  0  0  0  0
  -27.8220  -11.3217   18.8000 H   0  0  0  0  0  0
  -27.3591  -12.6657   17.7909 H   0  0  0  0  0  0
  -27.7217  -14.2592   19.6043 H   0  0  0  0  0  0
  -28.6682  -11.9238   21.3277 H   0  0  0  0  0  0
  -28.4560  -13.5492   21.8866 H   0  0  0  0  0  0
  -25.2758   -9.5692   22.4761 H   0  0  0  0  0  0
  -24.0012   -7.4631   22.7464 H   0  0  0  0  0  0
  -21.0847   -8.8782   19.8941 H   0  0  0  0  0  0
  -22.3707  -10.9683   19.6165 H   0  0  0  0  0  0
  -21.1998   -7.6144   23.9719 H   0  0  0  0  0  0
  -21.1484   -6.0518   25.9083 H   0  0  0  0  0  0
  -22.0592   -2.7606   23.2855 H   0  0  0  0  0  0
  -22.4101  -11.9877   22.4773 H   0  0  0  0  0  0
  -21.1122  -13.1264   22.2609 H   0  0  0  0  0  0
  -24.6593  -15.8383   20.4900 H   0  0  0  0  0  0
  -26.2743  -15.6185   20.0451 H   0  0  0  0  0  0
  -26.7072  -32.5597   23.1161 H   0  0  0  0  0  0
  -25.0014  -33.9800   25.0490 H   0  0  0  0  0  0
  -22.6914  -31.3105   21.4014 H   0  0  0  0  0  0
  -23.3757  -35.9644   23.3319 H   0  0  0  0  0  0
  -24.3570  -36.8905   22.2044 H   0  0  0  0  0  0
  -23.7229  -37.6539   23.6624 H   0  0  0  0  0  0
  -26.0228  -31.6047   20.5798 H   0  0  0  0  0  0
  -26.8186  -30.9173   21.9663 H   0  0  0  0  0  0
  -28.0973  -29.1372   21.1924 H   0  0  0  0  0  0
  -26.1131  -25.9891   19.0106 H   0  0  0  0  0  0
  -24.0028  -27.2904   19.0258 H   0  0  0  0  0  0
  -23.7327  -30.5985   19.3991 H   0  0  0  0  0  0
  -22.7436  -29.2428   19.8555 H   0  0  0  0  0  0
  -25.1290  -36.1989   25.0840 H   0  0  0  0  0  0
  -21.0012  -28.3275   24.1430 H   0  0  0  0  0  0
  -20.5746  -26.2302   23.3599 H   0  0  0  0  0  0
  -21.6660  -26.7520   22.1186 H   0  0  0  0  0  0
  -19.6918  -25.6334   21.1256 H   0  0  0  0  0  0
  -19.6714  -27.3258   20.6776 H   0  0  0  0  0  0
  -17.4221  -26.6763   21.4019 H   0  0  0  0  0  0
  -18.0335  -26.0127   22.9031 H   0  0  0  0  0  0
  -19.7934  -30.7318   24.2320 H   0  0  0  0  0  0
  -17.5018  -31.6303   24.5210 H   0  0  0  0  0  0
  -15.5374  -30.3057   23.7625 H   0  0  0  0  0  0
  -15.8682  -28.0890   22.7018 H   0  0  0  0  0  0
  -24.5913  -30.7023   25.7793 H   0  0  0  0  0  0
  -24.8904  -32.2857   26.4895 H   0  0  0  0  0  0
  -25.8093  -30.8885   27.0207 H   0  0  0  0  0  0
  -26.2768  -29.6845   24.1086 H   0  0  0  0  0  0
  -27.4062  -29.7252   25.4448 H   0  0  0  0  0  0
  -27.8599  -30.4407   23.9133 H   0  0  0  0  0  0
  -27.2669  -33.3621   26.2068 H   0  0  0  0  0  0
  -28.3854  -32.6854   25.0289 H   0  0  0  0  0  0
  -28.0695  -31.8407   26.5377 H   0  0  0  0  0  0
  -28.2626  -38.0103   24.7536 H   0  0  0  0  0  0
  -28.1078  -36.2641   24.6298 H   0  0  0  0  0  0
  -27.2312  -37.1482   25.8877 H   0  0  0  0  0  0
  -20.9285  -29.8754   21.6897 H   0  0  0  0  0  0
  -26.0187  -38.2894   24.1430 H   0  0  0  0  0  0
  -33.2431  -18.7839   21.6545 H   0  0  0  0  0  0
  -32.7147  -16.4394   21.3397 H   0  0  0  0  0  0
  -29.3268  -23.8325   22.5195 H   0  0  0  0  0  0
  -30.8717  -25.6776   20.6364 H   0  0  0  0  0  0
  -29.2330  -20.6468   23.5881 H   0  0  0  0  0  0
  -28.0689  -19.3690   23.5322 H   0  0  0  0  0  0
  -28.3097  -20.3758   22.1052 H   0  0  0  0  0  0
  -27.4422  -17.7791   21.8508 H   0  0  0  0  0  0
  -27.8841  -17.0312   23.3928 H   0  0  0  0  0  0
  -27.9279  -16.1091   21.8976 H   0  0  0  0  0  0
  -31.9761  -23.4784   22.7130 H   0  0  0  0  0  0
  -31.9760  -23.4905   20.9604 H   0  0  0  0  0  0
  -29.2272  -27.1926   21.9160 H   0  0  0  0  0  0
  -28.0873  -25.8575   21.9601 H   0  0  0  0  0  0
  -33.2653  -20.2821   23.4957 H   0  0  0  0  0  0
  -33.1742  -21.9697   23.1338 H   0  0  0  0  0  0
  -29.3885  -14.9529   21.9700 H   0  0  0  0  0  0
  -30.1903  -21.5728   21.2499 H   0  0  0  0  0  0
  1 25  1  0  0  0
  1 30  2  0  0  0
  1 85  1  0  0  0
  2  3  1  0  0  0
  2 25  1  0  0  0
  2 87  1  0  0  0
  2 88  1  0  0  0
  3  4  1  0  0  0
  3 89  1  0  0  0
  3 90  1  0  0  0
  4  5  1  0  0  0
  4 91  1  0  0  0
  4 92  1  0  0  0
  5  6  1  0  0  0
  5 26  1  0  0  0
  5 93  1  0  0  0
  6 25  1  0  0  0
  6 94  1  0  0  0
  6 95  1  0  0  0
  7  8  2  0  0  0
  7 26  1  0  0  0
  7 29  1  0  0  0
  8  9  1  0  0  0
  8 22  1  0  0  0
  9 10  1  0  0  0
  9 27  2  0  0  0
 10 11  2  0  0  0
 10 15  1  0  0  0
 11 12  1  0  0  0
 11 96  1  0  0  0
 12 13  2  0  0  0
 12 97  1  0  0  0
 13 14  1  0  0  0
 13 31  1  0  0  0
 14 15  2  0  0  0
 14 98  1  0  0  0
 15 99  1  0  0  0
 16 17  2  0  0  0
 16 21  1  0  0  0
 16 31  1  0  0  0
 17 18  1  0  0  0
 17100  1  0  0  0
 18 19  2  0  0  0
 18101  1  0  0  0
 19 20  1  0  0  0
 19 24  1  0  0  0
 20 21  2  0  0  0
 20102  1  0  0  0
 21 23  1  0  0  0
 22 28  1  0  0  0
 22 32  2  0  0  0
 26 27  1  0  0  0
 28103  1  0  0  0
 28104  1  0  0  0
 29105  1  0  0  0
 29106  1  0  0  0
 33 34  1  0  0  0
 33 66  1  0  0  0
 33 70  2  0  0  0
 34 36  1  0  0  0
 34 59  1  0  0  0
 34107  1  0  0  0
 35 44  2  0  0  0
 35 45  1  0  0  0
 35 68  1  0  0  0
 36 56  1  0  0  0
 36108  1  0  0  0
 37 39  1  0  0  0
 37 47  1  0  0  0
 37 66  1  0  0  0
 37109  1  0  0  0
 38 43  2  0  0  0
 38 46  1  0  0  0
 38 47  1  0  0  0
 39 64  1  0  0  0
 39 67  2  0  0  0
 40 52  1  0  0  0
 40 53  2  0  0  0
 40 58  1  0  0  0
 41110  1  0  0  0
 41111  1  0  0  0
 41112  1  0  0  0
 41 48  1  0  0  0
 42 43  1  0  0  0
 42 66  1  0  0  0
 42113  1  0  0  0
 42114  1  0  0  0
 43 44  1  0  0  0
 44115  1  0  0  0
 45 46  2  0  0  0
 45116  1  0  0  0
 46117  1  0  0  0
 47118  1  0  0  0
 47119  1  0  0  0
 48 56  1  0  0  0
 48 65  1  0  0  0
 48120  1  0  0  0
 49 50  1  0  0  0
 49 53  1  0  0  0
 49 64  1  0  0  0
 49121  1  0  0  0
 50 51  1  0  0  0
 50122  1  0  0  0
 50123  1  0  0  0
 51 52  1  0  0  0
 51124  1  0  0  0
 51125  1  0  0  0
 52126  1  0  0  0
 52127  1  0  0  0
 53 54  1  0  0  0
 54 55  2  0  0  0
 54128  1  0  0  0
 55 57  1  0  0  0
 55129  1  0  0  0
 56 69  2  0  0  0
 57 58  2  0  0  0
 57130  1  0  0  0
 58131  1  0  0  0
 59 60  1  0  0  0
 59 61  1  0  0  0
 59 62  1  0  0  0
 60132  1  0  0  0
 60133  1  0  0  0
 60134  1  0  0  0
 61135  1  0  0  0
 61136  1  0  0  0
 61137  1  0  0  0
 62138  1  0  0  0
 62139  1  0  0  0
 62140  1  0  0  0
 63 65  1  0  0  0
 63141  1  0  0  0
 63142  1  0  0  0
 63143  1  0  0  0
 64144  1  0  0  0
 65145  1  0  0  0
 68 83  1  0  0  0
 71 72  2  0  0  0
 71 73  1  0  0  0
 71146  1  0  0  0
 72 76  1  0  0  0
 72147  1  0  0  0
 73 74  2  0  0  0
 73 79  1  0  0  0
 74 75  1  0  0  0
 74 80  1  0  0  0
 75 76  2  0  0  0
 75 81  1  0  0  0
 76 85  1  0  0  0
 77 78  2  0  0  0
 77 82  1  0  0  0
 77148  1  0  0  0
 78 83  1  0  0  0
 78149  1  0  0  0
 79 84  1  0  0  0
 79 86  2  0  0  0
 80150  1  0  0  0
 80151  1  0  0  0
 80152  1  0  0  0
 81153  1  0  0  0
 81154  1  0  0  0
 81155  1  0  0  0
 82 86  1  0  0  0
 82156  1  0  0  0
 82157  1  0  0  0
 83158  1  0  0  0
 83159  1  0  0  0
 84160  1  0  0  0
 84161  1  0  0  0
 85162  1  0  0  0
 86163  1  0  0  0
M  CHG  1  86   1
M  ISO  4   1 100  68 101  83 101  85 100
M  END
> <chiral flag>
0

> <version>
0

> <s_m_source_file>
/data/baiqing/PycharmProjects/Reinvent-master-3.2/result/LINK_invent/BTK/process_docking_weight1_custom_product_contain_oxygen_bond_distance_aromatic_linkinvent_7_9_3/rearranged_h_0041.sdf

> <i_m_source_file_index>
67

> <r_mmod_Potential_Energy-OPLS-2005>
-261.683959960938

> <r_mmod_Stretch_Energy-OPLS-2005>
39.7620697021484

> <r_mmod_Bend_Energy-OPLS-2005>
94.4660110473633

> <r_mmod_Torsional_Energy-OPLS-2005>
223.669128417969

> <r_mmod_Improper_Torsional_Energy-OPLS-2005>
3.16252613067627

> <r_mmod_Van_der_Waal_Energy-OPLS-2005>
168.840774536133

> <r_mmod_Electrostatic_Energy-OPLS-2005>
-407.888580322266

> <r_mmod_Solvation_Energy-OPLS-2005>
-391.257202148438

> <b_mmod_Minimization_Converged-OPLS-2005>
0

> <r_mmod_RMS_Derivative-OPLS-2005>
2.37247490882874

$$$$
67
                    3D
 Structure written by MMmdl.
159167  0  0  1  0            999 V2000
  -30.6291  -14.6210   20.5120 C   0  0  0  0  0  0
  -30.4416  -12.3841   19.4501 C   0  0  0  0  0  0
  -29.5104  -12.5089   18.2233 C   0  0  0  0  0  0
  -28.0334  -12.3456   18.6349 C   0  0  0  0  0  0
  -27.6576  -13.2133   19.8656 C   0  0  2  0  0  0
  -28.7006  -13.0549   20.9950 C   0  0  0  0  0  0
  -25.2588  -13.8169   20.5674 C   0  0  0  0  0  0
  -24.1846  -13.0444   20.9169 C   0  0  0  0  0  0
  -24.6402  -11.6910   20.8724 C   0  0  0  0  0  0
  -23.9063  -10.4297   21.0401 C   0  0  0  0  0  0
  -24.3610   -9.4215   21.9183 C   0  0  0  0  0  0
  -23.6286   -8.2250   22.0757 C   0  0  0  0  0  0
  -22.4270   -8.0285   21.3549 C   0  0  0  0  0  0
  -21.9897   -9.0261   20.4653 C   0  0  0  0  0  0
  -22.7230  -10.2139   20.3061 C   0  0  0  0  0  0
  -21.6856   -6.0731   22.5277 C   0  0  0  0  0  0
  -21.4015   -6.5633   23.8211 C   0  0  0  0  0  0
  -21.3659   -5.6785   24.9172 C   0  0  0  0  0  0
  -21.6045   -4.3050   24.7227 C   0  0  0  0  0  0
  -21.8819   -3.8140   23.4350 C   0  0  0  0  0  0
  -21.9197   -4.6958   22.3403 C   0  0  0  0  0  0
  -22.7872  -13.5257   21.1826 C   0  0  0  0  0  0
  -22.1666   -4.2142   21.0983 F   0  0  0  0  0  0
  -21.5629   -3.4535   25.7741 F   0  0  0  0  0  0
  -30.0204  -13.3960   20.4385 N   0  0  0  0  0  0
  -26.3012  -12.9337   20.3313 N   0  0  0  0  0  0
  -25.9330  -11.6497   20.5742 N   0  0  0  0  0  0
  -22.0501  -12.8265   22.0382 N   0  0  0  0  0  0
  -25.4318  -15.1888   20.4094 N   0  0  0  0  0  0
  -31.7792  -14.7965   20.0999 O   0  0  0  0  0  0
  -21.6644   -6.8876   21.4240 O   0  0  0  0  0  0
  -22.3569  -14.5566   20.6673 O   0  0  0  0  0  0
  -24.6259  -31.8607   23.2033 C   0  0  0  0  0  0
  -25.9110  -32.4779   23.8360 C   0  0  1  0  0  0
  -27.2261  -27.3278   20.1108 C   0  0  0  0  0  0
  -25.5929  -33.8579   24.2292 N   0  0  0  0  0  0
  -23.4186  -30.4854   21.5463 C   0  0  2  0  0  0
  -24.8646  -28.9439   20.1109 C   0  0  0  0  0  0
  -22.7470  -29.4628   22.4942 C   0  0  0  0  0  0
  -18.0280  -28.1382   22.8482 C   0  0  0  0  0  0
  -24.1487  -36.7297   23.2639 C   0  0  0  0  0  0
  -25.9605  -30.7940   21.3728 C   0  0  0  0  0  0
  -26.0342  -29.4229   20.7137 C   0  0  0  0  0  0
  -27.2181  -28.6280   20.7025 C   0  0  0  0  0  0
  -26.0294  -26.9008   19.4858 C   0  0  0  0  0  0
  -24.8641  -27.6877   19.4882 C   0  0  0  0  0  0
  -23.6324  -29.8230   20.1609 C   0  0  0  0  0  0
  -25.4110  -36.3081   24.0331 C   0  0  1  0  0  0
  -20.5879  -28.3682   23.1287 C   0  0  2  0  0  0
  -20.6771  -26.9405   22.5412 C   0  0  0  0  0  0
  -19.5752  -26.6383   21.5209 C   0  0  0  0  0  0
  -18.1927  -26.7928   22.1616 C   0  0  0  0  0  0
  -19.1531  -28.8849   23.2881 C   0  0  0  0  0  0
  -18.9455  -30.1452   23.8897 C   0  0  0  0  0  0
  -17.6455  -30.6584   24.0561 C   0  0  0  0  0  0
  -25.9046  -34.9450   23.5110 C   0  0  0  0  0  0
  -16.5346  -29.9083   23.6329 C   0  0  0  0  0  0
  -16.7265  -28.6500   23.0350 C   0  0  0  0  0  0
  -26.4501  -31.6582   25.0722 C   0  0  0  0  0  0
  -25.3751  -31.3720   26.1464 C   0  0  0  0  0  0
  -27.0337  -30.3003   24.6170 C   0  0  0  0  0  0
  -27.6064  -32.4316   25.7484 C   0  0  0  0  0  0
  -27.5579  -37.1795   24.8463 C   0  0  0  0  0  0
  -21.4182  -29.3042   22.3686 N   0  0  0  0  0  0
  -26.4291  -37.3770   23.9407 N   0  0  0  0  0  0
  -24.6872  -31.0632   22.0972 N   0  0  0  0  0  0
  -23.4200  -28.8165   23.3011 O   0  0  0  0  0  0
  -28.3494  -26.4860   20.1585 O   0  0  0  0  0  0
  -26.5611  -34.8913   22.4672 O   0  0  0  0  0  0
  -23.5426  -32.1403   23.7362 O   0  0  0  0  0  0
  -29.8627  -17.9522   21.8969 C   0  0  0  0  0  0
  -30.0011  -19.1615   19.3970 C   0  0  0  0  0  0
  -29.8716  -19.3777   21.7962 C   0  0  0  0  0  0
  -29.9516  -20.0269   20.5255 C   0  0  0  0  0  0
  -29.9588  -17.0944   20.7712 C   0  0  0  0  0  0
  -30.0002  -17.7376   19.5026 C   0  0  0  0  0  0
  -28.3705  -20.4897   23.5145 C   0  0  0  0  0  0
  -29.8101  -20.1688   23.0973 C   0  0  0  0  0  0
  -30.1598  -21.5824   20.3416 C   0  0  0  0  0  0
  -29.3130  -24.0220   20.3503 C   0  0  0  0  0  0
  -28.1213  -25.0263   20.0493 C   0  0  0  0  0  0
  -29.8493  -15.6500   20.9584 N   0  0  0  0  0  0
  -28.9829  -22.5306   20.3185 N   0  3  0  0  0  0
  -29.9951  -16.8132   18.0410 Cl  0  0  0  0  0  0
  -31.4827  -12.5110   19.1475 H   0  0  0  0  0  0
  -30.3777  -11.3851   19.8841 H   0  0  0  0  0  0
  -29.7731  -11.7606   17.4739 H   0  0  0  0  0  0
  -29.6543  -13.4805   17.7477 H   0  0  0  0  0  0
  -27.8702  -11.2914   18.8626 H   0  0  0  0  0  0
  -27.3804  -12.5782   17.7932 H   0  0  0  0  0  0
  -27.6820  -14.2507   19.5316 H   0  0  0  0  0  0
  -28.7070  -12.0296   21.3678 H   0  0  0  0  0  0
  -28.4440  -13.6773   21.8533 H   0  0  0  0  0  0
  -25.2752   -9.5694   22.4757 H   0  0  0  0  0  0
  -23.9996   -7.4644   22.7478 H   0  0  0  0  0  0
  -21.0825   -8.8784   19.8966 H   0  0  0  0  0  0
  -22.3685  -10.9678   19.6174 H   0  0  0  0  0  0
  -21.2002   -7.6138   23.9711 H   0  0  0  0  0  0
  -21.1483   -6.0516   25.9074 H   0  0  0  0  0  0
  -22.0598   -2.7602   23.2857 H   0  0  0  0  0  0
  -22.4098  -11.9929   22.4783 H   0  0  0  0  0  0
  -21.1131  -13.1330   22.2586 H   0  0  0  0  0  0
  -24.6651  -15.8440   20.5167 H   0  0  0  0  0  0
  -26.2818  -15.6249   20.0746 H   0  0  0  0  0  0
  -26.7177  -32.5450   23.1109 H   0  0  0  0  0  0
  -25.0086  -33.9729   25.0443 H   0  0  0  0  0  0
  -22.7117  -31.3055   21.4050 H   0  0  0  0  0  0
  -23.3741  -35.9638   23.3304 H   0  0  0  0  0  0
  -24.3584  -36.8913   22.2053 H   0  0  0  0  0  0
  -23.7250  -37.6504   23.6658 H   0  0  0  0  0  0
  -26.0947  -31.5565   20.6042 H   0  0  0  0  0  0
  -26.8408  -30.8403   22.0024 H   0  0  0  0  0  0
  -28.1159  -28.9945   21.1807 H   0  0  0  0  0  0
  -25.9567  -25.9457   18.9892 H   0  0  0  0  0  0
  -23.9684  -27.3163   19.0095 H   0  0  0  0  0  0
  -23.7502  -30.6014   19.4061 H   0  0  0  0  0  0
  -22.7522  -29.2529   19.8583 H   0  0  0  0  0  0
  -25.1285  -36.1939   25.0824 H   0  0  0  0  0  0
  -20.9967  -28.3249   24.1409 H   0  0  0  0  0  0
  -20.5665  -26.2284   23.3605 H   0  0  0  0  0  0
  -21.6642  -26.7433   22.1209 H   0  0  0  0  0  0
  -19.6914  -25.6294   21.1235 H   0  0  0  0  0  0
  -19.6700  -27.3194   20.6740 H   0  0  0  0  0  0
  -17.4198  -26.6668   21.4018 H   0  0  0  0  0  0
  -18.0327  -26.0073   22.9013 H   0  0  0  0  0  0
  -19.7929  -30.7267   24.2268 H   0  0  0  0  0  0
  -17.5007  -31.6264   24.5161 H   0  0  0  0  0  0
  -15.5347  -30.2986   23.7655 H   0  0  0  0  0  0
  -15.8662  -28.0821   22.7072 H   0  0  0  0  0  0
  -24.5928  -30.7056   25.7813 H   0  0  0  0  0  0
  -24.8944  -32.2885   26.4893 H   0  0  0  0  0  0
  -25.8102  -30.8911   27.0234 H   0  0  0  0  0  0
  -26.2900  -29.6748   24.1215 H   0  0  0  0  0  0
  -27.4057  -29.7264   25.4668 H   0  0  0  0  0  0
  -27.8764  -30.4285   23.9372 H   0  0  0  0  0  0
  -27.2673  -33.3608   26.2075 H   0  0  0  0  0  0
  -28.3861  -32.6889   25.0302 H   0  0  0  0  0  0
  -28.0748  -31.8437   26.5389 H   0  0  0  0  0  0
  -28.2597  -38.0090   24.7495 H   0  0  0  0  0  0
  -28.1073  -36.2619   24.6300 H   0  0  0  0  0  0
  -27.2299  -37.1457   25.8868 H   0  0  0  0  0  0
  -20.9351  -29.8776   21.6914 H   0  0  0  0  0  0
  -26.0175  -38.2846   24.1406 H   0  0  0  0  0  0
  -29.7879  -17.5028   22.8778 H   0  0  0  0  0  0
  -30.0664  -19.5941   18.4089 H   0  0  0  0  0  0
  -28.3538  -21.0645   24.4410 H   0  0  0  0  0  0
  -27.7969  -19.5773   23.6821 H   0  0  0  0  0  0
  -27.8523  -21.0722   22.7543 H   0  0  0  0  0  0
  -30.3949  -21.0846   23.0377 H   0  0  0  0  0  0
  -30.2889  -19.5860   23.8859 H   0  0  0  0  0  0
  -30.6938  -21.7242   19.4010 H   0  0  0  0  0  0
  -30.8653  -21.9280   21.0959 H   0  0  0  0  0  0
  -29.7290  -24.2543   21.3310 H   0  0  0  0  0  0
  -30.1091  -24.2179   19.6315 H   0  0  0  0  0  0
  -27.2975  -24.7670   20.7160 H   0  0  0  0  0  0
  -27.7849  -24.8132   19.0347 H   0  0  0  0  0  0
  -29.0001  -15.3469   21.4090 H   0  0  0  0  0  0
  -28.3899  -22.3120   21.1024 H   0  0  0  0  0  0
  -28.4573  -22.3232   19.4837 H   0  0  0  0  0  0
  1 25  1  0  0  0
  1 30  2  0  0  0
  1 82  1  0  0  0
  2  3  1  0  0  0
  2 25  1  0  0  0
  2 85  1  0  0  0
  2 86  1  0  0  0
  3  4  1  0  0  0
  3 87  1  0  0  0
  3 88  1  0  0  0
  4  5  1  0  0  0
  4 89  1  0  0  0
  4 90  1  0  0  0
  5  6  1  0  0  0
  5 26  1  0  0  0
  5 91  1  0  0  0
  6 25  1  0  0  0
  6 92  1  0  0  0
  6 93  1  0  0  0
  7  8  2  0  0  0
  7 26  1  0  0  0
  7 29  1  0  0  0
  8  9  1  0  0  0
  8 22  1  0  0  0
  9 10  1  0  0  0
  9 27  2  0  0  0
 10 11  2  0  0  0
 10 15  1  0  0  0
 11 12  1  0  0  0
 11 94  1  0  0  0
 12 13  2  0  0  0
 12 95  1  0  0  0
 13 14  1  0  0  0
 13 31  1  0  0  0
 14 15  2  0  0  0
 14 96  1  0  0  0
 15 97  1  0  0  0
 16 17  2  0  0  0
 16 21  1  0  0  0
 16 31  1  0  0  0
 17 18  1  0  0  0
 17 98  1  0  0  0
 18 19  2  0  0  0
 18 99  1  0  0  0
 19 20  1  0  0  0
 19 24  1  0  0  0
 20 21  2  0  0  0
 20100  1  0  0  0
 21 23  1  0  0  0
 22 28  1  0  0  0
 22 32  2  0  0  0
 26 27  1  0  0  0
 28101  1  0  0  0
 28102  1  0  0  0
 29103  1  0  0  0
 29104  1  0  0  0
 33 34  1  0  0  0
 33 66  1  0  0  0
 33 70  2  0  0  0
 34 36  1  0  0  0
 34 59  1  0  0  0
 34105  1  0  0  0
 35 44  2  0  0  0
 35 45  1  0  0  0
 35 68  1  0  0  0
 36 56  1  0  0  0
 36106  1  0  0  0
 37 39  1  0  0  0
 37 47  1  0  0  0
 37 66  1  0  0  0
 37107  1  0  0  0
 38 43  2  0  0  0
 38 46  1  0  0  0
 38 47  1  0  0  0
 39 64  1  0  0  0
 39 67  2  0  0  0
 40 52  1  0  0  0
 40 53  2  0  0  0
 40 58  1  0  0  0
 41108  1  0  0  0
 41109  1  0  0  0
 41110  1  0  0  0
 41 48  1  0  0  0
 42 43  1  0  0  0
 42 66  1  0  0  0
 42111  1  0  0  0
 42112  1  0  0  0
 43 44  1  0  0  0
 44113  1  0  0  0
 45 46  2  0  0  0
 45114  1  0  0  0
 46115  1  0  0  0
 47116  1  0  0  0
 47117  1  0  0  0
 48 56  1  0  0  0
 48 65  1  0  0  0
 48118  1  0  0  0
 49 50  1  0  0  0
 49 53  1  0  0  0
 49 64  1  0  0  0
 49119  1  0  0  0
 50 51  1  0  0  0
 50120  1  0  0  0
 50121  1  0  0  0
 51 52  1  0  0  0
 51122  1  0  0  0
 51123  1  0  0  0
 52124  1  0  0  0
 52125  1  0  0  0
 53 54  1  0  0  0
 54 55  2  0  0  0
 54126  1  0  0  0
 55 57  1  0  0  0
 55127  1  0  0  0
 56 69  2  0  0  0
 57 58  2  0  0  0
 57128  1  0  0  0
 58129  1  0  0  0
 59 60  1  0  0  0
 59 61  1  0  0  0
 59 62  1  0  0  0
 60130  1  0  0  0
 60131  1  0  0  0
 60132  1  0  0  0
 61133  1  0  0  0
 61134  1  0  0  0
 61135  1  0  0  0
 62136  1  0  0  0
 62137  1  0  0  0
 62138  1  0  0  0
 63 65  1  0  0  0
 63139  1  0  0  0
 63140  1  0  0  0
 63141  1  0  0  0
 64142  1  0  0  0
 65143  1  0  0  0
 68 81  1  0  0  0
 71 73  2  0  0  0
 71 75  1  0  0  0
 71144  1  0  0  0
 72 74  2  0  0  0
 72 76  1  0  0  0
 72145  1  0  0  0
 73 74  1  0  0  0
 73 78  1  0  0  0
 74 79  1  0  0  0
 75 76  2  0  0  0
 75 82  1  0  0  0
 76 84  1  0  0  0
 77 78  1  0  0  0
 77146  1  0  0  0
 77147  1  0  0  0
 77148  1  0  0  0
 78149  1  0  0  0
 78150  1  0  0  0
 79 83  1  0  0  0
 79151  1  0  0  0
 79152  1  0  0  0
 80 81  1  0  0  0
 80 83  1  0  0  0
 80153  1  0  0  0
 80154  1  0  0  0
 81155  1  0  0  0
 81156  1  0  0  0
 82157  1  0  0  0
 83158  1  0  0  0
 83159  1  0  0  0
M  CHG  1  83   1
M  ISO  4   1 100  68 101  81 101  82 100
M  END
> <chiral flag>
0

> <version>
0

> <s_m_source_file>
/data/baiqing/PycharmProjects/Reinvent-master-3.2/result/LINK_invent/BTK/process_docking_weight1_custom_product_contain_oxygen_bond_distance_aromatic_linkinvent_7_9_3/rearranged_h_0041.sdf

> <i_m_source_file_index>
68

> <r_mmod_Potential_Energy-OPLS-2005>
-154.984405517578

> <r_mmod_Stretch_Energy-OPLS-2005>
76.6461181640625

> <r_mmod_Bend_Energy-OPLS-2005>
129.924896240234

> <r_mmod_Torsional_Energy-OPLS-2005>
225.731246948242

> <r_mmod_Improper_Torsional_Energy-OPLS-2005>
4.34935426712036

> <r_mmod_Van_der_Waal_Energy-OPLS-2005>
139.183258056641

> <r_mmod_Electrostatic_Energy-OPLS-2005>
-301.898620605469

> <r_mmod_Solvation_Energy-OPLS-2005>
-472.301452636719

> <b_mmod_Minimization_Converged-OPLS-2005>
0

> <r_mmod_RMS_Derivative-OPLS-2005>
0.949390947818756

$$$$
68
                    3D
 Structure written by MMmdl.
160168  0  0  1  0            999 V2000
  -30.6483  -14.5610   20.5469 C   0  0  0  0  0  0
  -30.4394  -12.3569   19.4259 C   0  0  0  0  0  0
  -29.5016  -12.5003   18.2085 C   0  0  0  0  0  0
  -28.0247  -12.3431   18.6269 C   0  0  0  0  0  0
  -27.6564  -13.2040   19.8644 C   0  0  2  0  0  0
  -28.7023  -13.0228   20.9868 C   0  0  0  0  0  0
  -25.2581  -13.8146   20.5679 C   0  0  0  0  0  0
  -24.1830  -13.0433   20.9193 C   0  0  0  0  0  0
  -24.6371  -11.6897   20.8733 C   0  0  0  0  0  0
  -23.9033  -10.4290   21.0406 C   0  0  0  0  0  0
  -24.3590   -9.4214   21.9188 C   0  0  0  0  0  0
  -23.6276   -8.2245   22.0752 C   0  0  0  0  0  0
  -22.4263   -8.0275   21.3540 C   0  0  0  0  0  0
  -21.9891   -9.0247   20.4644 C   0  0  0  0  0  0
  -22.7205  -10.2131   20.3057 C   0  0  0  0  0  0
  -21.6851   -6.0726   22.5274 C   0  0  0  0  0  0
  -21.4006   -6.5631   23.8208 C   0  0  0  0  0  0
  -21.3660   -5.6785   24.9174 C   0  0  0  0  0  0
  -21.6051   -4.3050   24.7222 C   0  0  0  0  0  0
  -21.8818   -3.8137   23.4345 C   0  0  0  0  0  0
  -21.9191   -4.6953   22.3398 C   0  0  0  0  0  0
  -22.7853  -13.5247   21.1850 C   0  0  0  0  0  0
  -22.1663   -4.2143   21.0975 F   0  0  0  0  0  0
  -21.5634   -3.4531   25.7734 F   0  0  0  0  0  0
  -30.0201  -13.3562   20.4220 N   0  0  0  0  0  0
  -26.2992  -12.9300   20.3315 N   0  0  0  0  0  0
  -25.9298  -11.6469   20.5750 N   0  0  0  0  0  0
  -22.0473  -12.8254   22.0400 N   0  0  0  0  0  0
  -25.4320  -15.1863   20.4077 N   0  0  0  0  0  0
  -31.8122  -14.7440   20.1764 O   0  0  0  0  0  0
  -21.6635   -6.8867   21.4237 O   0  0  0  0  0  0
  -22.3564  -14.5566   20.6700 O   0  0  0  0  0  0
  -24.6206  -31.8642   23.2066 C   0  0  0  0  0  0
  -25.9071  -32.4805   23.8366 C   0  0  1  0  0  0
  -27.2260  -27.3686   20.1130 C   0  0  0  0  0  0
  -25.5932  -33.8611   24.2302 N   0  0  0  0  0  0
  -23.4113  -30.4900   21.5479 C   0  0  2  0  0  0
  -24.8557  -28.9499   20.1136 C   0  0  0  0  0  0
  -22.7457  -29.4648   22.4941 C   0  0  0  0  0  0
  -18.0288  -28.1401   22.8483 C   0  0  0  0  0  0
  -24.1494  -36.7296   23.2636 C   0  0  0  0  0  0
  -25.9469  -30.8115   21.3669 C   0  0  0  0  0  0
  -26.0209  -29.4411   20.7148 C   0  0  0  0  0  0
  -27.2100  -28.6621   20.7063 C   0  0  0  0  0  0
  -26.0399  -26.9181   19.4889 C   0  0  0  0  0  0
  -24.8638  -27.6912   19.4941 C   0  0  0  0  0  0
  -23.6234  -29.8284   20.1609 C   0  0  0  0  0  0
  -25.4113  -36.3102   24.0340 C   0  0  1  0  0  0
  -20.5887  -28.3692   23.1306 C   0  0  2  0  0  0
  -20.6788  -26.9423   22.5423 C   0  0  0  0  0  0
  -19.5761  -26.6393   21.5231 C   0  0  0  0  0  0
  -18.1931  -26.7937   22.1624 C   0  0  0  0  0  0
  -19.1540  -28.8858   23.2891 C   0  0  0  0  0  0
  -18.9465  -30.1457   23.8909 C   0  0  0  0  0  0
  -17.6470  -30.6601   24.0571 C   0  0  0  0  0  0
  -25.9054  -34.9470   23.5112 C   0  0  0  0  0  0
  -16.5357  -29.9110   23.6332 C   0  0  0  0  0  0
  -16.7278  -28.6531   23.0346 C   0  0  0  0  0  0
  -26.4480  -31.6612   25.0717 C   0  0  0  0  0  0
  -25.3742  -31.3747   26.1470 C   0  0  0  0  0  0
  -27.0290  -30.3044   24.6094 C   0  0  0  0  0  0
  -27.6030  -32.4346   25.7494 C   0  0  0  0  0  0
  -27.5581  -37.1810   24.8465 C   0  0  0  0  0  0
  -21.4171  -29.3050   22.3705 N   0  0  0  0  0  0
  -26.4290  -37.3799   23.9420 N   0  0  0  0  0  0
  -24.6783  -31.0711   22.0978 N   0  0  0  0  0  0
  -23.4217  -28.8171   23.2984 O   0  0  0  0  0  0
  -28.3680  -26.5709   20.1302 O   0  0  0  0  0  0
  -26.5602  -34.8931   22.4668 O   0  0  0  0  0  0
  -23.5383  -32.1405   23.7436 O   0  0  0  0  0  0
  -30.1087  -18.0927   20.6533 C   0  0  0  0  0  0
  -30.3292  -16.9709   22.8001 C   0  0  0  0  0  0
  -30.3178  -19.3727   21.2628 C   0  0  0  0  0  0
  -30.5503  -19.4151   22.6686 C   0  0  0  0  0  0
  -30.1429  -16.8824   21.4099 C   0  0  0  0  0  0
  -30.5282  -18.2138   23.4265 C   0  0  0  0  0  0
  -30.4202  -24.6235   19.4014 C   0  0  0  0  0  0
  -29.4512  -24.2717   20.2628 C   0  0  0  0  0  0
  -30.8343  -20.7402   23.3685 C   0  0  0  0  0  0
  -30.4031  -20.6651   20.3905 C   0  0  0  0  0  0
  -29.6139  -23.0056   21.1471 C   0  0  0  0  0  0
  -28.1834  -25.1451   20.4172 C   0  0  0  0  0  0
  -29.8241  -15.5944   20.8601 N   0  0  0  0  0  0
  -29.3000  -21.6812   20.5057 N   0  3  0  0  0  0
  -30.7370  -18.2092   25.1442 Cl  0  0  0  0  0  0
  -31.4791  -12.4892   19.1198 H   0  0  0  0  0  0
  -30.3752  -11.3531   19.8489 H   0  0  0  0  0  0
  -29.7570  -11.7594   17.4499 H   0  0  0  0  0  0
  -29.6501  -13.4760   17.7425 H   0  0  0  0  0  0
  -27.8573  -11.2891   18.8511 H   0  0  0  0  0  0
  -27.3677  -12.5810   17.7900 H   0  0  0  0  0  0
  -27.6846  -14.2434   19.5373 H   0  0  0  0  0  0
  -28.7032  -11.9921   21.3440 H   0  0  0  0  0  0
  -28.4580  -13.6355   21.8561 H   0  0  0  0  0  0
  -25.2732   -9.5706   22.4766 H   0  0  0  0  0  0
  -23.9991   -7.4640   22.7474 H   0  0  0  0  0  0
  -21.0824   -8.8752   19.8954 H   0  0  0  0  0  0
  -22.3652  -10.9667   19.6167 H   0  0  0  0  0  0
  -21.1991   -7.6140   23.9710 H   0  0  0  0  0  0
  -21.1488   -6.0516   25.9080 H   0  0  0  0  0  0
  -22.0596   -2.7599   23.2840 H   0  0  0  0  0  0
  -22.4042  -11.9904   22.4802 H   0  0  0  0  0  0
  -21.1094  -13.1307   22.2580 H   0  0  0  0  0  0
  -24.6644  -15.8409   20.5114 H   0  0  0  0  0  0
  -26.2796  -15.6235   20.0687 H   0  0  0  0  0  0
  -26.7137  -32.5484   23.1117 H   0  0  0  0  0  0
  -25.0174  -33.9790   25.0502 H   0  0  0  0  0  0
  -22.7021  -31.3088   21.4101 H   0  0  0  0  0  0
  -23.3763  -35.9623   23.3305 H   0  0  0  0  0  0
  -24.3600  -36.8908   22.2051 H   0  0  0  0  0  0
  -23.7236  -37.6501   23.6641 H   0  0  0  0  0  0
  -26.0675  -31.5739   20.5971 H   0  0  0  0  0  0
  -26.8311  -30.8641   21.9899 H   0  0  0  0  0  0
  -28.1032  -29.0389   21.1829 H   0  0  0  0  0  0
  -25.9962  -25.9683   18.9789 H   0  0  0  0  0  0
  -23.9724  -27.3126   19.0133 H   0  0  0  0  0  0
  -23.7481  -30.6084   19.4090 H   0  0  0  0  0  0
  -22.7419  -29.2636   19.8531 H   0  0  0  0  0  0
  -25.1299  -36.1949   25.0835 H   0  0  0  0  0  0
  -20.9978  -28.3251   24.1428 H   0  0  0  0  0  0
  -20.5715  -26.2301   23.3618 H   0  0  0  0  0  0
  -21.6653  -26.7487   22.1195 H   0  0  0  0  0  0
  -19.6935  -25.6310   21.1253 H   0  0  0  0  0  0
  -19.6697  -27.3211   20.6765 H   0  0  0  0  0  0
  -17.4217  -26.6703   21.4007 H   0  0  0  0  0  0
  -18.0307  -26.0081   22.9014 H   0  0  0  0  0  0
  -19.7948  -30.7272   24.2268 H   0  0  0  0  0  0
  -17.5036  -31.6279   24.5185 H   0  0  0  0  0  0
  -15.5356  -30.3024   23.7666 H   0  0  0  0  0  0
  -15.8674  -28.0876   22.7039 H   0  0  0  0  0  0
  -24.5915  -30.7083   25.7839 H   0  0  0  0  0  0
  -24.8924  -32.2913   26.4881 H   0  0  0  0  0  0
  -25.8103  -30.8964   27.0249 H   0  0  0  0  0  0
  -26.2828  -29.6837   24.1116 H   0  0  0  0  0  0
  -27.4030  -29.7262   25.4553 H   0  0  0  0  0  0
  -27.8688  -30.4379   23.9272 H   0  0  0  0  0  0
  -27.2627  -33.3652   26.2049 H   0  0  0  0  0  0
  -28.3849  -32.6893   25.0334 H   0  0  0  0  0  0
  -28.0665  -31.8474   26.5435 H   0  0  0  0  0  0
  -28.2598  -38.0110   24.7530 H   0  0  0  0  0  0
  -28.1080  -36.2643   24.6263 H   0  0  0  0  0  0
  -27.2307  -37.1433   25.8872 H   0  0  0  0  0  0
  -20.9333  -29.8807   21.6955 H   0  0  0  0  0  0
  -26.0166  -38.2874   24.1429 H   0  0  0  0  0  0
  -29.9328  -18.0364   19.5876 H   0  0  0  0  0  0
  -30.3018  -16.0784   23.4091 H   0  0  0  0  0  0
  -31.3206  -24.0366   19.2935 H   0  0  0  0  0  0
  -30.3313  -25.5087   18.7871 H   0  0  0  0  0  0
  -31.5765  -21.3210   22.8238 H   0  0  0  0  0  0
  -31.2426  -20.6176   24.3692 H   0  0  0  0  0  0
  -29.9203  -21.3241   23.4658 H   0  0  0  0  0  0
  -30.4227  -20.3526   19.3463 H   0  0  0  0  0  0
  -31.3765  -21.1327   20.5376 H   0  0  0  0  0  0
  -28.9909  -23.1152   22.0347 H   0  0  0  0  0  0
  -30.6364  -23.0020   21.5221 H   0  0  0  0  0  0
  -27.8268  -25.0639   21.4446 H   0  0  0  0  0  0
  -27.4277  -24.6779   19.7891 H   0  0  0  0  0  0
  -28.8671  -15.3062   20.9936 H   0  0  0  0  0  0
  -28.5291  -21.2515   20.9873 H   0  0  0  0  0  0
  -28.9839  -21.8667   19.5690 H   0  0  0  0  0  0
  1 25  1  0  0  0
  1 30  2  0  0  0
  1 83  1  0  0  0
  2  3  1  0  0  0
  2 25  1  0  0  0
  2 86  1  0  0  0
  2 87  1  0  0  0
  3  4  1  0  0  0
  3 88  1  0  0  0
  3 89  1  0  0  0
  4  5  1  0  0  0
  4 90  1  0  0  0
  4 91  1  0  0  0
  5  6  1  0  0  0
  5 26  1  0  0  0
  5 92  1  0  0  0
  6 25  1  0  0  0
  6 93  1  0  0  0
  6 94  1  0  0  0
  7  8  2  0  0  0
  7 26  1  0  0  0
  7 29  1  0  0  0
  8  9  1  0  0  0
  8 22  1  0  0  0
  9 10  1  0  0  0
  9 27  2  0  0  0
 10 11  2  0  0  0
 10 15  1  0  0  0
 11 12  1  0  0  0
 11 95  1  0  0  0
 12 13  2  0  0  0
 12 96  1  0  0  0
 13 14  1  0  0  0
 13 31  1  0  0  0
 14 15  2  0  0  0
 14 97  1  0  0  0
 15 98  1  0  0  0
 16 17  2  0  0  0
 16 21  1  0  0  0
 16 31  1  0  0  0
 17 18  1  0  0  0
 17 99  1  0  0  0
 18 19  2  0  0  0
 18100  1  0  0  0
 19 20  1  0  0  0
 19 24  1  0  0  0
 20 21  2  0  0  0
 20101  1  0  0  0
 21 23  1  0  0  0
 22 28  1  0  0  0
 22 32  2  0  0  0
 26 27  1  0  0  0
 28102  1  0  0  0
 28103  1  0  0  0
 29104  1  0  0  0
 29105  1  0  0  0
 33 34  1  0  0  0
 33 66  1  0  0  0
 33 70  2  0  0  0
 34 36  1  0  0  0
 34 59  1  0  0  0
 34106  1  0  0  0
 35 44  2  0  0  0
 35 45  1  0  0  0
 35 68  1  0  0  0
 36 56  1  0  0  0
 36107  1  0  0  0
 37 39  1  0  0  0
 37 47  1  0  0  0
 37 66  1  0  0  0
 37108  1  0  0  0
 38 43  2  0  0  0
 38 46  1  0  0  0
 38 47  1  0  0  0
 39 64  1  0  0  0
 39 67  2  0  0  0
 40 52  1  0  0  0
 40 53  2  0  0  0
 40 58  1  0  0  0
 41109  1  0  0  0
 41110  1  0  0  0
 41111  1  0  0  0
 41 48  1  0  0  0
 42 43  1  0  0  0
 42 66  1  0  0  0
 42112  1  0  0  0
 42113  1  0  0  0
 43 44  1  0  0  0
 44114  1  0  0  0
 45 46  2  0  0  0
 45115  1  0  0  0
 46116  1  0  0  0
 47117  1  0  0  0
 47118  1  0  0  0
 48 56  1  0  0  0
 48 65  1  0  0  0
 48119  1  0  0  0
 49 50  1  0  0  0
 49 53  1  0  0  0
 49 64  1  0  0  0
 49120  1  0  0  0
 50 51  1  0  0  0
 50121  1  0  0  0
 50122  1  0  0  0
 51 52  1  0  0  0
 51123  1  0  0  0
 51124  1  0  0  0
 52125  1  0  0  0
 52126  1  0  0  0
 53 54  1  0  0  0
 54 55  2  0  0  0
 54127  1  0  0  0
 55 57  1  0  0  0
 55128  1  0  0  0
 56 69  2  0  0  0
 57 58  2  0  0  0
 57129  1  0  0  0
 58130  1  0  0  0
 59 60  1  0  0  0
 59 61  1  0  0  0
 59 62  1  0  0  0
 60131  1  0  0  0
 60132  1  0  0  0
 60133  1  0  0  0
 61134  1  0  0  0
 61135  1  0  0  0
 61136  1  0  0  0
 62137  1  0  0  0
 62138  1  0  0  0
 62139  1  0  0  0
 63 65  1  0  0  0
 63140  1  0  0  0
 63141  1  0  0  0
 63142  1  0  0  0
 64143  1  0  0  0
 65144  1  0  0  0
 68 82  1  0  0  0
 71 73  2  0  0  0
 71 75  1  0  0  0
 71145  1  0  0  0
 72 75  2  0  0  0
 72 76  1  0  0  0
 72146  1  0  0  0
 73 74  1  0  0  0
 73 80  1  0  0  0
 74 76  2  0  0  0
 74 79  1  0  0  0
 75 83  1  0  0  0
 76 85  1  0  0  0
 77 78  2  0  0  0
 77147  1  0  0  0
 77148  1  0  0  0
 78 81  1  0  0  0
 78 82  1  0  0  0
 79149  1  0  0  0
 79150  1  0  0  0
 79151  1  0  0  0
 80 84  1  0  0  0
 80152  1  0  0  0
 80153  1  0  0  0
 81 84  1  0  0  0
 81154  1  0  0  0
 81155  1  0  0  0
 82156  1  0  0  0
 82157  1  0  0  0
 83158  1  0  0  0
 84159  1  0  0  0
 84160  1  0  0  0
M  CHG  1  84   1
M  ISO  4   1 100  68 101  82 101  83 100
M  END
> <chiral flag>
0

> <version>
0

> <s_m_source_file>
/data/baiqing/PycharmProjects/Reinvent-master-3.2/result/LINK_invent/BTK/process_docking_weight1_custom_product_contain_oxygen_bond_distance_aromatic_linkinvent_7_9_3/rearranged_h_0041.sdf

> <i_m_source_file_index>
69

> <r_mmod_Potential_Energy-OPLS-2005>
-151.473678588867

> <r_mmod_Stretch_Energy-OPLS-2005>
57.3547554016113

> <r_mmod_Bend_Energy-OPLS-2005>
115.033050537109

> <r_mmod_Torsional_Energy-OPLS-2005>
264.340789794922

> <r_mmod_Improper_Torsional_Energy-OPLS-2005>
7.9879994392395

> <r_mmod_Van_der_Waal_Energy-OPLS-2005>
148.263519287109

> <r_mmod_Electrostatic_Energy-OPLS-2005>
-291.742156982422

> <r_mmod_Solvation_Energy-OPLS-2005>
-481.338623046875

> <b_mmod_Minimization_Converged-OPLS-2005>
0

> <r_mmod_RMS_Derivative-OPLS-2005>
1.98791015148163

$$$$
69
                    3D
 Structure written by MMmdl.
162170  0  0  1  0            999 V2000
  -30.7646  -14.4041   20.6698 C   0  0  0  0  0  0
  -30.4222  -12.3023   19.4228 C   0  0  0  0  0  0
  -29.4962  -12.5116   18.2109 C   0  0  0  0  0  0
  -28.0207  -12.3664   18.6258 C   0  0  0  0  0  0
  -27.6689  -13.2052   19.8843 C   0  0  2  0  0  0
  -28.7050  -12.9764   21.0076 C   0  0  0  0  0  0
  -25.2626  -13.8171   20.5678 C   0  0  0  0  0  0
  -24.1867  -13.0451   20.9173 C   0  0  0  0  0  0
  -24.6414  -11.6923   20.8739 C   0  0  0  0  0  0
  -23.9085  -10.4305   21.0410 C   0  0  0  0  0  0
  -24.3632   -9.4217   21.9184 C   0  0  0  0  0  0
  -23.6301   -8.2255   22.0752 C   0  0  0  0  0  0
  -22.4285   -8.0291   21.3534 C   0  0  0  0  0  0
  -21.9926   -9.0275   20.4640 C   0  0  0  0  0  0
  -22.7265  -10.2153   20.3054 C   0  0  0  0  0  0
  -21.6858   -6.0759   22.5284 C   0  0  0  0  0  0
  -21.4012   -6.5651   23.8220 C   0  0  0  0  0  0
  -21.3649   -5.6791   24.9179 C   0  0  0  0  0  0
  -21.6051   -4.3057   24.7223 C   0  0  0  0  0  0
  -21.8816   -3.8162   23.4335 C   0  0  0  0  0  0
  -21.9194   -4.6987   22.3401 C   0  0  0  0  0  0
  -22.7895  -13.5258   21.1829 C   0  0  0  0  0  0
  -22.1664   -4.2175   21.0974 F   0  0  0  0  0  0
  -21.5628   -3.4531   25.7731 F   0  0  0  0  0  0
  -30.0426  -13.2697   20.4654 N   0  0  0  0  0  0
  -26.3060  -12.9332   20.3395 N   0  0  0  0  0  0
  -25.9335  -11.6497   20.5780 N   0  0  0  0  0  0
  -22.0523  -12.8241   22.0371 N   0  0  0  0  0  0
  -25.4380  -15.1882   20.4111 N   0  0  0  0  0  0
  -31.8225  -14.6260   20.0792 O   0  0  0  0  0  0
  -21.6630   -6.8902   21.4250 O   0  0  0  0  0  0
  -22.3591  -14.5572   20.6698 O   0  0  0  0  0  0
  -24.6136  -31.8687   23.2072 C   0  0  0  0  0  0
  -25.9029  -32.4820   23.8377 C   0  0  1  0  0  0
  -27.2344  -27.4368   20.1099 C   0  0  0  0  0  0
  -25.5882  -33.8619   24.2307 N   0  0  0  0  0  0
  -23.4020  -30.4924   21.5475 C   0  0  2  0  0  0
  -24.8485  -28.9516   20.1168 C   0  0  0  0  0  0
  -22.7410  -29.4681   22.4983 C   0  0  0  0  0  0
  -18.0291  -28.1368   22.8475 C   0  0  0  0  0  0
  -24.1510  -36.7328   23.2642 C   0  0  0  0  0  0
  -25.9294  -30.8337   21.3621 C   0  0  0  0  0  0
  -26.0055  -29.4632   20.7204 C   0  0  0  0  0  0
  -27.2028  -28.7119   20.7181 C   0  0  0  0  0  0
  -26.0694  -26.9417   19.4894 C   0  0  0  0  0  0
  -24.8757  -27.6879   19.4995 C   0  0  0  0  0  0
  -23.6108  -29.8182   20.1638 C   0  0  0  0  0  0
  -25.4123  -36.3117   24.0335 C   0  0  1  0  0  0
  -20.5877  -28.3653   23.1306 C   0  0  2  0  0  0
  -20.6778  -26.9385   22.5409 C   0  0  0  0  0  0
  -19.5758  -26.6378   21.5198 C   0  0  0  0  0  0
  -18.1934  -26.7905   22.1603 C   0  0  0  0  0  0
  -19.1534  -28.8829   23.2882 C   0  0  0  0  0  0
  -18.9463  -30.1441   23.8880 C   0  0  0  0  0  0
  -17.6454  -30.6557   24.0567 C   0  0  0  0  0  0
  -25.9044  -34.9483   23.5129 C   0  0  0  0  0  0
  -16.5353  -29.9068   23.6311 C   0  0  0  0  0  0
  -16.7280  -28.6499   23.0313 C   0  0  0  0  0  0
  -26.4459  -31.6591   25.0702 C   0  0  0  0  0  0
  -25.3709  -31.3713   26.1446 C   0  0  0  0  0  0
  -27.0274  -30.3043   24.6048 C   0  0  0  0  0  0
  -27.6030  -32.4312   25.7463 C   0  0  0  0  0  0
  -27.5600  -37.1803   24.8449 C   0  0  0  0  0  0
  -21.4146  -29.3040   22.3710 N   0  0  0  0  0  0
  -26.4319  -37.3792   23.9397 N   0  0  0  0  0  0
  -24.6663  -31.0822   22.0956 N   0  0  0  0  0  0
  -23.4189  -28.8245   23.3026 O   0  0  0  0  0  0
  -28.4000  -26.7092   20.0541 O   0  0  0  0  0  0
  -26.5633  -34.8941   22.4713 O   0  0  0  0  0  0
  -23.5333  -32.1442   23.7482 O   0  0  0  0  0  0
  -29.6820  -20.2647   20.2590 C   0  0  0  0  0  0
  -30.7373  -19.5272   19.7074 C   0  0  0  0  0  0
  -29.0177  -19.8210   21.4255 C   0  0  0  0  0  0
  -29.4096  -18.5691   22.0031 C   0  0  0  0  0  0
  -30.4800  -17.8080   21.4325 C   0  0  0  0  0  0
  -31.1554  -18.3258   20.2947 C   0  0  0  0  0  0
  -28.7195  -18.0434   23.2604 C   0  0  0  0  0  0
  -30.9503  -16.4805   22.0609 C   0  0  0  0  0  0
  -27.9059  -20.6943   22.0509 C   0  0  0  0  0  0
  -27.8826  -24.3449   20.6798 C   0  0  0  0  0  0
  -28.2698  -23.1613   21.6089 C   0  0  0  0  0  0
  -28.5645  -25.6851   21.0457 C   0  0  0  0  0  0
  -30.2703  -15.2721   21.5682 N   0  0  0  0  0  0
  -27.5230  -21.9144   21.2906 N   0  3  0  0  0  0
  -32.5384  -17.5589   19.5997 Cl  0  0  0  0  0  0
  -31.4658  -12.3994   19.1197 H   0  0  0  0  0  0
  -30.3262  -11.2876   19.8125 H   0  0  0  0  0  0
  -29.7394  -11.7934   17.4268 H   0  0  0  0  0  0
  -29.6652  -13.5011   17.7838 H   0  0  0  0  0  0
  -27.8375  -11.3099   18.8259 H   0  0  0  0  0  0
  -27.3680  -12.6354   17.7955 H   0  0  0  0  0  0
  -27.7204  -14.2553   19.5944 H   0  0  0  0  0  0
  -28.6733  -11.9388   21.3458 H   0  0  0  0  0  0
  -28.4517  -13.5723   21.8847 H   0  0  0  0  0  0
  -25.2791   -9.5688   22.4743 H   0  0  0  0  0  0
  -24.0018   -7.4646   22.7457 H   0  0  0  0  0  0
  -21.0867   -8.8806   19.8927 H   0  0  0  0  0  0
  -22.3746  -10.9695   19.6146 H   0  0  0  0  0  0
  -21.1996   -7.6152   23.9740 H   0  0  0  0  0  0
  -21.1471   -6.0509   25.9083 H   0  0  0  0  0  0
  -22.0604   -2.7625   23.2825 H   0  0  0  0  0  0
  -22.4129  -11.9892   22.4749 H   0  0  0  0  0  0
  -21.1136  -13.1264   22.2556 H   0  0  0  0  0  0
  -24.6786  -15.8504   20.5217 H   0  0  0  0  0  0
  -26.2995  -15.6222   20.1032 H   0  0  0  0  0  0
  -26.7088  -32.5554   23.1139 H   0  0  0  0  0  0
  -24.9939  -33.9754   25.0382 H   0  0  0  0  0  0
  -22.6897  -31.3065   21.4063 H   0  0  0  0  0  0
  -23.3754  -35.9680   23.3298 H   0  0  0  0  0  0
  -24.3588  -36.8963   22.2053 H   0  0  0  0  0  0
  -23.7281  -37.6545   23.6655 H   0  0  0  0  0  0
  -26.0409  -31.5917   20.5862 H   0  0  0  0  0  0
  -26.8167  -30.8910   21.9808 H   0  0  0  0  0  0
  -28.0989  -29.1079   21.1785 H   0  0  0  0  0  0
  -26.0894  -25.9840   18.9892 H   0  0  0  0  0  0
  -23.9912  -27.2913   19.0199 H   0  0  0  0  0  0
  -23.7161  -30.5897   19.3994 H   0  0  0  0  0  0
  -22.7337  -29.2368   19.8711 H   0  0  0  0  0  0
  -25.1304  -36.1993   25.0824 H   0  0  0  0  0  0
  -20.9965  -28.3229   24.1427 H   0  0  0  0  0  0
  -20.5687  -26.2255   23.3608 H   0  0  0  0  0  0
  -21.6653  -26.7437   22.1205 H   0  0  0  0  0  0
  -19.6922  -25.6300   21.1214 H   0  0  0  0  0  0
  -19.6707  -27.3214   20.6757 H   0  0  0  0  0  0
  -17.4211  -26.6671   21.3995 H   0  0  0  0  0  0
  -18.0325  -26.0064   22.9015 H   0  0  0  0  0  0
  -19.7960  -30.7263   24.2234 H   0  0  0  0  0  0
  -17.5027  -31.6236   24.5186 H   0  0  0  0  0  0
  -15.5346  -30.2951   23.7671 H   0  0  0  0  0  0
  -15.8695  -28.0835   22.6974 H   0  0  0  0  0  0
  -24.5866  -30.7085   25.7774 H   0  0  0  0  0  0
  -24.8904  -32.2871   26.4878 H   0  0  0  0  0  0
  -25.8045  -30.8879   27.0213 H   0  0  0  0  0  0
  -26.2813  -29.6795   24.1110 H   0  0  0  0  0  0
  -27.4084  -29.7293   25.4503 H   0  0  0  0  0  0
  -27.8647  -30.4376   23.9190 H   0  0  0  0  0  0
  -27.2655  -33.3609   26.2060 H   0  0  0  0  0  0
  -28.3828  -32.6853   25.0262 H   0  0  0  0  0  0
  -28.0706  -31.8408   26.5354 H   0  0  0  0  0  0
  -28.2607  -38.0113   24.7522 H   0  0  0  0  0  0
  -28.1126  -36.2648   24.6265 H   0  0  0  0  0  0
  -27.2318  -37.1437   25.8855 H   0  0  0  0  0  0
  -20.9304  -29.8759   21.6926 H   0  0  0  0  0  0
  -26.0224  -38.2897   24.1337 H   0  0  0  0  0  0
  -29.4203  -21.1889   19.7664 H   0  0  0  0  0  0
  -31.2515  -19.9040   18.8333 H   0  0  0  0  0  0
  -27.8222  -18.5867   23.5458 H   0  0  0  0  0  0
  -29.4019  -18.0966   24.1086 H   0  0  0  0  0  0
  -28.4206  -17.0025   23.1300 H   0  0  0  0  0  0
  -30.8225  -16.5101   23.1424 H   0  0  0  0  0  0
  -32.0313  -16.3804   21.9503 H   0  0  0  0  0  0
  -28.1787  -20.9585   23.0736 H   0  0  0  0  0  0
  -27.0019  -20.0874   22.1227 H   0  0  0  0  0  0
  -26.8032  -24.4867   20.7040 H   0  0  0  0  0  0
  -28.1348  -24.0931   19.6495 H   0  0  0  0  0  0
  -28.0755  -23.4327   22.6483 H   0  0  0  0  0  0
  -29.3422  -22.9736   21.5325 H   0  0  0  0  0  0
  -29.6385  -25.5173   21.1425 H   0  0  0  0  0  0
  -28.2201  -26.0369   22.0195 H   0  0  0  0  0  0
  -29.4060  -15.0145   22.0196 H   0  0  0  0  0  0
  -26.5509  -22.0828   21.4911 H   0  0  0  0  0  0
  -27.5861  -21.7046   20.3091 H   0  0  0  0  0  0
  1 25  1  0  0  0
  1 30  2  0  0  0
  1 83  1  0  0  0
  2  3  1  0  0  0
  2 25  1  0  0  0
  2 86  1  0  0  0
  2 87  1  0  0  0
  3  4  1  0  0  0
  3 88  1  0  0  0
  3 89  1  0  0  0
  4  5  1  0  0  0
  4 90  1  0  0  0
  4 91  1  0  0  0
  5  6  1  0  0  0
  5 26  1  0  0  0
  5 92  1  0  0  0
  6 25  1  0  0  0
  6 93  1  0  0  0
  6 94  1  0  0  0
  7  8  2  0  0  0
  7 26  1  0  0  0
  7 29  1  0  0  0
  8  9  1  0  0  0
  8 22  1  0  0  0
  9 10  1  0  0  0
  9 27  2  0  0  0
 10 11  2  0  0  0
 10 15  1  0  0  0
 11 12  1  0  0  0
 11 95  1  0  0  0
 12 13  2  0  0  0
 12 96  1  0  0  0
 13 14  1  0  0  0
 13 31  1  0  0  0
 14 15  2  0  0  0
 14 97  1  0  0  0
 15 98  1  0  0  0
 16 17  2  0  0  0
 16 21  1  0  0  0
 16 31  1  0  0  0
 17 18  1  0  0  0
 17 99  1  0  0  0
 18 19  2  0  0  0
 18100  1  0  0  0
 19 20  1  0  0  0
 19 24  1  0  0  0
 20 21  2  0  0  0
 20101  1  0  0  0
 21 23  1  0  0  0
 22 28  1  0  0  0
 22 32  2  0  0  0
 26 27  1  0  0  0
 28102  1  0  0  0
 28103  1  0  0  0
 29104  1  0  0  0
 29105  1  0  0  0
 33 34  1  0  0  0
 33 66  1  0  0  0
 33 70  2  0  0  0
 34 36  1  0  0  0
 34 59  1  0  0  0
 34106  1  0  0  0
 35 44  2  0  0  0
 35 45  1  0  0  0
 35 68  1  0  0  0
 36 56  1  0  0  0
 36107  1  0  0  0
 37 39  1  0  0  0
 37 47  1  0  0  0
 37 66  1  0  0  0
 37108  1  0  0  0
 38 43  2  0  0  0
 38 46  1  0  0  0
 38 47  1  0  0  0
 39 64  1  0  0  0
 39 67  2  0  0  0
 40 52  1  0  0  0
 40 53  2  0  0  0
 40 58  1  0  0  0
 41109  1  0  0  0
 41110  1  0  0  0
 41111  1  0  0  0
 41 48  1  0  0  0
 42 43  1  0  0  0
 42 66  1  0  0  0
 42112  1  0  0  0
 42113  1  0  0  0
 43 44  1  0  0  0
 44114  1  0  0  0
 45 46  2  0  0  0
 45115  1  0  0  0
 46116  1  0  0  0
 47117  1  0  0  0
 47118  1  0  0  0
 48 56  1  0  0  0
 48 65  1  0  0  0
 48119  1  0  0  0
 49 50  1  0  0  0
 49 53  1  0  0  0
 49 64  1  0  0  0
 49120  1  0  0  0
 50 51  1  0  0  0
 50121  1  0  0  0
 50122  1  0  0  0
 51 52  1  0  0  0
 51123  1  0  0  0
 51124  1  0  0  0
 52125  1  0  0  0
 52126  1  0  0  0
 53 54  1  0  0  0
 54 55  2  0  0  0
 54127  1  0  0  0
 55 57  1  0  0  0
 55128  1  0  0  0
 56 69  2  0  0  0
 57 58  2  0  0  0
 57129  1  0  0  0
 58130  1  0  0  0
 59 60  1  0  0  0
 59 61  1  0  0  0
 59 62  1  0  0  0
 60131  1  0  0  0
 60132  1  0  0  0
 60133  1  0  0  0
 61134  1  0  0  0
 61135  1  0  0  0
 61136  1  0  0  0
 62137  1  0  0  0
 62138  1  0  0  0
 62139  1  0  0  0
 63 65  1  0  0  0
 63140  1  0  0  0
 63141  1  0  0  0
 63142  1  0  0  0
 64143  1  0  0  0
 65144  1  0  0  0
 68 82  1  0  0  0
 71 72  2  0  0  0
 71 73  1  0  0  0
 71145  1  0  0  0
 72 76  1  0  0  0
 72146  1  0  0  0
 73 74  2  0  0  0
 73 79  1  0  0  0
 74 75  1  0  0  0
 74 77  1  0  0  0
 75 76  2  0  0  0
 75 78  1  0  0  0
 76 85  1  0  0  0
 77147  1  0  0  0
 77148  1  0  0  0
 77149  1  0  0  0
 78 83  1  0  0  0
 78150  1  0  0  0
 78151  1  0  0  0
 79 84  1  0  0  0
 79152  1  0  0  0
 79153  1  0  0  0
 80 81  1  0  0  0
 80 82  1  0  0  0
 80154  1  0  0  0
 80155  1  0  0  0
 81 84  1  0  0  0
 81156  1  0  0  0
 81157  1  0  0  0
 82158  1  0  0  0
 82159  1  0  0  0
 83160  1  0  0  0
 84161  1  0  0  0
 84162  1  0  0  0
M  CHG  1  84   1
M  ISO  4   1 100  68 101  82 101  83 100
M  END
> <chiral flag>
0

> <version>
0

> <s_m_source_file>
/data/baiqing/PycharmProjects/Reinvent-master-3.2/result/LINK_invent/BTK/process_docking_weight1_custom_product_contain_oxygen_bond_distance_aromatic_linkinvent_7_9_3/rearranged_h_0041.sdf

> <i_m_source_file_index>
70

> <r_mmod_Potential_Energy-OPLS-2005>
-257.450347900391

> <r_mmod_Stretch_Energy-OPLS-2005>
41.5779838562012

> <r_mmod_Bend_Energy-OPLS-2005>
97.3764343261719

> <r_mmod_Torsional_Energy-OPLS-2005>
220.515762329102

> <r_mmod_Improper_Torsional_Energy-OPLS-2005>
2.04546880722046

> <r_mmod_Van_der_Waal_Energy-OPLS-2005>
152.476409912109

> <r_mmod_Electrostatic_Energy-OPLS-2005>
-289.891754150391

> <r_mmod_Solvation_Energy-OPLS-2005>
-490.089202880859

> <b_mmod_Minimization_Converged-OPLS-2005>
0

> <r_mmod_RMS_Derivative-OPLS-2005>
3.07293200492859

$$$$
70
                    3D
 Structure written by MMmdl.
154162  0  0  1  0            999 V2000
  -30.6247  -14.6533   20.4851 C   0  0  0  0  0  0
  -30.4383  -12.3984   19.4531 C   0  0  0  0  0  0
  -29.5067  -12.5025   18.2246 C   0  0  0  0  0  0
  -28.0297  -12.3452   18.6370 C   0  0  0  0  0  0
  -27.6527  -13.2197   19.8624 C   0  0  2  0  0  0
  -28.6994  -13.0841   20.9919 C   0  0  0  0  0  0
  -25.2531  -13.8148   20.5627 C   0  0  0  0  0  0
  -24.1825  -13.0420   20.9203 C   0  0  0  0  0  0
  -24.6410  -11.6900   20.8766 C   0  0  0  0  0  0
  -23.9077  -10.4286   21.0423 C   0  0  0  0  0  0
  -24.3626   -9.4194   21.9194 C   0  0  0  0  0  0
  -23.6299   -8.2230   22.0752 C   0  0  0  0  0  0
  -22.4278   -8.0277   21.3543 C   0  0  0  0  0  0
  -21.9921   -9.0253   20.4643 C   0  0  0  0  0  0
  -22.7253  -10.2133   20.3064 C   0  0  0  0  0  0
  -21.6853   -6.0739   22.5279 C   0  0  0  0  0  0
  -21.4008   -6.5643   23.8212 C   0  0  0  0  0  0
  -21.3654   -5.6794   24.9175 C   0  0  0  0  0  0
  -21.6049   -4.3057   24.7225 C   0  0  0  0  0  0
  -21.8819   -3.8150   23.4344 C   0  0  0  0  0  0
  -21.9194   -4.6968   22.3402 C   0  0  0  0  0  0
  -22.7848  -13.5208   21.1866 C   0  0  0  0  0  0
  -22.1664   -4.2157   21.0980 F   0  0  0  0  0  0
  -21.5633   -3.4538   25.7736 F   0  0  0  0  0  0
  -30.0137  -13.4262   20.4253 N   0  0  0  0  0  0
  -26.2988  -12.9356   20.3315 N   0  0  0  0  0  0
  -25.9343  -11.6511   20.5792 N   0  0  0  0  0  0
  -22.0500  -12.8200   22.0429 N   0  0  0  0  0  0
  -25.4162  -15.1840   20.3852 N   0  0  0  0  0  0
  -31.7901  -14.7993   20.1046 O   0  0  0  0  0  0
  -21.6636   -6.8878   21.4238 O   0  0  0  0  0  0
  -22.3532  -14.5517   20.6717 O   0  0  0  0  0  0
  -24.6272  -31.8588   23.2048 C   0  0  0  0  0  0
  -25.9112  -32.4773   23.8374 C   0  0  1  0  0  0
  -27.2257  -27.3173   20.1081 C   0  0  0  0  0  0
  -25.5926  -33.8575   24.2296 N   0  0  0  0  0  0
  -23.4214  -30.4851   21.5461 C   0  0  2  0  0  0
  -24.8678  -28.9431   20.1103 C   0  0  0  0  0  0
  -22.7483  -29.4625   22.4927 C   0  0  0  0  0  0
  -18.0287  -28.1394   22.8502 C   0  0  0  0  0  0
  -24.1478  -36.7281   23.2640 C   0  0  0  0  0  0
  -25.9637  -30.7901   21.3766 C   0  0  0  0  0  0
  -26.0380  -29.4186   20.7149 C   0  0  0  0  0  0
  -27.2206  -28.6176   20.7049 C   0  0  0  0  0  0
  -26.0277  -26.8982   19.4826 C   0  0  0  0  0  0
  -24.8646  -27.6880   19.4861 C   0  0  0  0  0  0
  -23.6369  -29.8249   20.1597 C   0  0  0  0  0  0
  -25.4106  -36.3074   24.0334 C   0  0  1  0  0  0
  -20.5893  -28.3689   23.1283 C   0  0  2  0  0  0
  -20.6773  -26.9409   22.5411 C   0  0  0  0  0  0
  -19.5743  -26.6389   21.5218 C   0  0  0  0  0  0
  -18.1924  -26.7943   22.1629 C   0  0  0  0  0  0
  -19.1546  -28.8858   23.2886 C   0  0  0  0  0  0
  -18.9468  -30.1469   23.8896 C   0  0  0  0  0  0
  -17.6470  -30.6599   24.0573 C   0  0  0  0  0  0
  -25.9042  -34.9449   23.5113 C   0  0  0  0  0  0
  -16.5358  -29.9104   23.6344 C   0  0  0  0  0  0
  -16.7274  -28.6519   23.0364 C   0  0  0  0  0  0
  -26.4502  -31.6586   25.0740 C   0  0  0  0  0  0
  -25.3747  -31.3742   26.1474 C   0  0  0  0  0  0
  -27.0334  -30.3009   24.6200 C   0  0  0  0  0  0
  -27.6061  -32.4319   25.7507 C   0  0  0  0  0  0
  -27.5570  -37.1799   24.8472 C   0  0  0  0  0  0
  -21.4191  -29.3049   22.3675 N   0  0  0  0  0  0
  -26.4280  -37.3775   23.9419 N   0  0  0  0  0  0
  -24.6896  -31.0616   22.0990 N   0  0  0  0  0  0
  -23.4208  -28.8152   23.2996 O   0  0  0  0  0  0
  -28.3419  -26.4610   20.1515 O   0  0  0  0  0  0
  -26.5600  -34.8919   22.4674 O   0  0  0  0  0  0
  -23.5438  -32.1366   23.7387 O   0  0  0  0  0  0
  -30.9983  -19.2414   19.7925 C   0  0  0  0  0  0
  -30.9509  -17.8209   19.9236 C   0  0  0  0  0  0
  -29.0057  -19.4586   21.1089 C   0  0  0  0  0  0
  -30.0376  -20.1056   20.3867 C   0  0  0  0  0  0
  -28.9570  -18.0347   21.2576 C   0  0  0  0  0  0
  -29.9359  -17.1688   20.6732 C   0  0  0  0  0  0
  -29.2981  -24.0322   20.2911 C   0  0  0  0  0  0
  -27.8236  -17.4539   22.0860 C   0  0  0  0  0  0
  -30.2564  -21.6675   20.3573 C   0  0  0  0  0  0
  -28.1004  -25.0057   19.9610 C   0  0  0  0  0  0
  -29.8249  -15.7110   20.8403 N   0  0  0  0  0  0
  -29.1457  -22.6675   20.2003 N   0  0  0  0  0  0
  -30.3845  -24.5213   20.6104 O   0  0  0  0  0  0
  -31.4779  -12.5248   19.1462 H   0  0  0  0  0  0
  -30.3783  -11.4054   19.9008 H   0  0  0  0  0  0
  -29.7682  -11.7429   17.4865 H   0  0  0  0  0  0
  -29.6500  -13.4667   17.7341 H   0  0  0  0  0  0
  -27.8644  -11.2932   18.8717 H   0  0  0  0  0  0
  -27.3750  -12.5735   17.7949 H   0  0  0  0  0  0
  -27.6680  -14.2542   19.5189 H   0  0  0  0  0  0
  -28.7130  -12.0646   21.3812 H   0  0  0  0  0  0
  -28.4448  -13.7225   21.8392 H   0  0  0  0  0  0
  -25.2769   -9.5665   22.4774 H   0  0  0  0  0  0
  -24.0007   -7.4614   22.7464 H   0  0  0  0  0  0
  -21.0856   -8.8775   19.8945 H   0  0  0  0  0  0
  -22.3715  -10.9675   19.6177 H   0  0  0  0  0  0
  -21.1993   -7.6150   23.9717 H   0  0  0  0  0  0
  -21.1476   -6.0524   25.9079 H   0  0  0  0  0  0
  -22.0602   -2.7615   23.2841 H   0  0  0  0  0  0
  -22.4120  -11.9864   22.4816 H   0  0  0  0  0  0
  -21.1114  -13.1214   22.2636 H   0  0  0  0  0  0
  -24.6283  -15.8197   20.4413 H   0  0  0  0  0  0
  -26.2326  -15.6023   19.9581 H   0  0  0  0  0  0
  -26.7183  -32.5441   23.1128 H   0  0  0  0  0  0
  -25.0102  -33.9724   25.0461 H   0  0  0  0  0  0
  -22.7161  -31.3069   21.4065 H   0  0  0  0  0  0
  -23.3741  -35.9611   23.3298 H   0  0  0  0  0  0
  -24.3576  -36.8901   22.2056 H   0  0  0  0  0  0
  -23.7227  -37.6486   23.6661 H   0  0  0  0  0  0
  -26.1008  -31.5572   20.6134 H   0  0  0  0  0  0
  -26.8421  -30.8347   22.0080 H   0  0  0  0  0  0
  -28.1185  -28.9786   21.1869 H   0  0  0  0  0  0
  -25.9538  -25.9423   18.9863 H   0  0  0  0  0  0
  -23.9684  -27.3179   19.0060 H   0  0  0  0  0  0
  -23.7586  -30.6045   19.4060 H   0  0  0  0  0  0
  -22.7550  -29.2573   19.8555 H   0  0  0  0  0  0
  -25.1287  -36.1918   25.0827 H   0  0  0  0  0  0
  -21.0002  -28.3254   24.1395 H   0  0  0  0  0  0
  -20.5673  -26.2293   23.3612 H   0  0  0  0  0  0
  -21.6637  -26.7432   22.1198 H   0  0  0  0  0  0
  -19.6888  -25.6299   21.1244 H   0  0  0  0  0  0
  -19.6680  -27.3203   20.6754 H   0  0  0  0  0  0
  -17.4194  -26.6702   21.4029 H   0  0  0  0  0  0
  -18.0307  -26.0093   22.9032 H   0  0  0  0  0  0
  -19.7942  -30.7295   24.2247 H   0  0  0  0  0  0
  -17.5024  -31.6280   24.5172 H   0  0  0  0  0  0
  -15.5358  -30.3006   23.7678 H   0  0  0  0  0  0
  -15.8669  -28.0848   22.7075 H   0  0  0  0  0  0
  -24.5922  -30.7076   25.7830 H   0  0  0  0  0  0
  -24.8934  -32.2912   26.4886 H   0  0  0  0  0  0
  -25.8081  -30.8948   27.0259 H   0  0  0  0  0  0
  -26.2905  -29.6763   24.1227 H   0  0  0  0  0  0
  -27.4029  -29.7270   25.4708 H   0  0  0  0  0  0
  -27.8780  -30.4295   23.9430 H   0  0  0  0  0  0
  -27.2687  -33.3650   26.2040 H   0  0  0  0  0  0
  -28.3898  -32.6822   25.0341 H   0  0  0  0  0  0
  -28.0687  -31.8460   26.5460 H   0  0  0  0  0  0
  -28.2594  -38.0091   24.7508 H   0  0  0  0  0  0
  -28.1058  -36.2621   24.6301 H   0  0  0  0  0  0
  -27.2293  -37.1454   25.8878 H   0  0  0  0  0  0
  -20.9354  -29.8799   21.6921 H   0  0  0  0  0  0
  -26.0149  -38.2842   24.1437 H   0  0  0  0  0  0
  -31.8211  -19.6730   19.2382 H   0  0  0  0  0  0
  -31.7244  -17.2408   19.4408 H   0  0  0  0  0  0
  -28.2571  -20.0695   21.5941 H   0  0  0  0  0  0
  -27.4054  -18.2036   22.7584 H   0  0  0  0  0  0
  -28.1563  -16.6197   22.7036 H   0  0  0  0  0  0
  -27.0248  -17.1079   21.4333 H   0  0  0  0  0  0
  -30.9815  -21.8822   19.5706 H   0  0  0  0  0  0
  -30.7715  -21.9078   21.2889 H   0  0  0  0  0  0
  -27.2552  -24.6938   20.5759 H   0  0  0  0  0  0
  -27.8334  -24.8222   18.9198 H   0  0  0  0  0  0
  -28.9389  -15.4085   21.2122 H   0  0  0  0  0  0
  -28.2398  -22.3130   19.9249 H   0  0  0  0  0  0
  1 25  1  0  0  0
  1 30  2  0  0  0
  1 81  1  0  0  0
  2  3  1  0  0  0
  2 25  1  0  0  0
  2 84  1  0  0  0
  2 85  1  0  0  0
  3  4  1  0  0  0
  3 86  1  0  0  0
  3 87  1  0  0  0
  4  5  1  0  0  0
  4 88  1  0  0  0
  4 89  1  0  0  0
  5  6  1  0  0  0
  5 26  1  0  0  0
  5 90  1  0  0  0
  6 25  1  0  0  0
  6 91  1  0  0  0
  6 92  1  0  0  0
  7  8  2  0  0  0
  7 26  1  0  0  0
  7 29  1  0  0  0
  8  9  1  0  0  0
  8 22  1  0  0  0
  9 10  1  0  0  0
  9 27  2  0  0  0
 10 11  2  0  0  0
 10 15  1  0  0  0
 11 12  1  0  0  0
 11 93  1  0  0  0
 12 13  2  0  0  0
 12 94  1  0  0  0
 13 14  1  0  0  0
 13 31  1  0  0  0
 14 15  2  0  0  0
 14 95  1  0  0  0
 15 96  1  0  0  0
 16 17  2  0  0  0
 16 21  1  0  0  0
 16 31  1  0  0  0
 17 18  1  0  0  0
 17 97  1  0  0  0
 18 19  2  0  0  0
 18 98  1  0  0  0
 19 20  1  0  0  0
 19 24  1  0  0  0
 20 21  2  0  0  0
 20 99  1  0  0  0
 21 23  1  0  0  0
 22 28  1  0  0  0
 22 32  2  0  0  0
 26 27  1  0  0  0
 28100  1  0  0  0
 28101  1  0  0  0
 29102  1  0  0  0
 29103  1  0  0  0
 33 34  1  0  0  0
 33 66  1  0  0  0
 33 70  2  0  0  0
 34 36  1  0  0  0
 34 59  1  0  0  0
 34104  1  0  0  0
 35 44  2  0  0  0
 35 45  1  0  0  0
 35 68  1  0  0  0
 36 56  1  0  0  0
 36105  1  0  0  0
 37 39  1  0  0  0
 37 47  1  0  0  0
 37 66  1  0  0  0
 37106  1  0  0  0
 38 43  2  0  0  0
 38 46  1  0  0  0
 38 47  1  0  0  0
 39 64  1  0  0  0
 39 67  2  0  0  0
 40 52  1  0  0  0
 40 53  2  0  0  0
 40 58  1  0  0  0
 41107  1  0  0  0
 41108  1  0  0  0
 41109  1  0  0  0
 41 48  1  0  0  0
 42 43  1  0  0  0
 42 66  1  0  0  0
 42110  1  0  0  0
 42111  1  0  0  0
 43 44  1  0  0  0
 44112  1  0  0  0
 45 46  2  0  0  0
 45113  1  0  0  0
 46114  1  0  0  0
 47115  1  0  0  0
 47116  1  0  0  0
 48 56  1  0  0  0
 48 65  1  0  0  0
 48117  1  0  0  0
 49 50  1  0  0  0
 49 53  1  0  0  0
 49 64  1  0  0  0
 49118  1  0  0  0
 50 51  1  0  0  0
 50119  1  0  0  0
 50120  1  0  0  0
 51 52  1  0  0  0
 51121  1  0  0  0
 51122  1  0  0  0
 52123  1  0  0  0
 52124  1  0  0  0
 53 54  1  0  0  0
 54 55  2  0  0  0
 54125  1  0  0  0
 55 57  1  0  0  0
 55126  1  0  0  0
 56 69  2  0  0  0
 57 58  2  0  0  0
 57127  1  0  0  0
 58128  1  0  0  0
 59 60  1  0  0  0
 59 61  1  0  0  0
 59 62  1  0  0  0
 60129  1  0  0  0
 60130  1  0  0  0
 60131  1  0  0  0
 61132  1  0  0  0
 61133  1  0  0  0
 61134  1  0  0  0
 62135  1  0  0  0
 62136  1  0  0  0
 62137  1  0  0  0
 63 65  1  0  0  0
 63138  1  0  0  0
 63139  1  0  0  0
 63140  1  0  0  0
 64141  1  0  0  0
 65142  1  0  0  0
 68 80  1  0  0  0
 71 72  2  0  0  0
 71 74  1  0  0  0
 71143  1  0  0  0
 72 76  1  0  0  0
 72144  1  0  0  0
 73 74  2  0  0  0
 73 75  1  0  0  0
 73145  1  0  0  0
 74 79  1  0  0  0
 75 76  2  0  0  0
 75 78  1  0  0  0
 76 81  1  0  0  0
 77 80  1  0  0  0
 77 82  1  0  0  0
 77 83  2  0  0  0
 78146  1  0  0  0
 78147  1  0  0  0
 78148  1  0  0  0
 79 82  1  0  0  0
 79149  1  0  0  0
 79150  1  0  0  0
 80151  1  0  0  0
 80152  1  0  0  0
 81153  1  0  0  0
 82154  1  0  0  0
M  ISO  4   1 100  68 101  80 101  81 100
M  END
> <chiral flag>
0

> <version>
0

> <s_m_source_file>
/data/baiqing/PycharmProjects/Reinvent-master-3.2/result/LINK_invent/BTK/process_docking_weight1_custom_product_contain_oxygen_bond_distance_aromatic_linkinvent_7_9_3/rearranged_h_0041.sdf

> <i_m_source_file_index>
71

> <r_mmod_Potential_Energy-OPLS-2005>
-36.7220497131348

> <r_mmod_Stretch_Energy-OPLS-2005>
82.0404663085938

> <r_mmod_Bend_Energy-OPLS-2005>
137.692825317383

> <r_mmod_Torsional_Energy-OPLS-2005>
211.098007202148

> <r_mmod_Improper_Torsional_Energy-OPLS-2005>
4.98490428924561

> <r_mmod_Van_der_Waal_Energy-OPLS-2005>
146.462951660156

> <r_mmod_Electrostatic_Energy-OPLS-2005>
-425.531311035156

> <r_mmod_Solvation_Energy-OPLS-2005>
-244.69841003418

> <b_mmod_Minimization_Converged-OPLS-2005>
0

> <r_mmod_RMS_Derivative-OPLS-2005>
1.42273783683777

$$$$
71
                    3D
 Structure written by MMmdl.
161170  0  0  1  0            999 V2000
  -30.5826  -14.6599   20.5231 C   0  0  0  0  0  0
  -30.4415  -12.4116   19.4549 C   0  0  0  0  0  0
  -29.5112  -12.5249   18.2246 C   0  0  0  0  0  0
  -28.0275  -12.3831   18.6213 C   0  0  0  0  0  0
  -27.6538  -13.2223   19.8704 C   0  0  2  0  0  0
  -28.6913  -13.0523   21.0003 C   0  0  0  0  0  0
  -25.2541  -13.8159   20.5607 C   0  0  0  0  0  0
  -24.1828  -13.0439   20.9175 C   0  0  0  0  0  0
  -24.6413  -11.6908   20.8751 C   0  0  0  0  0  0
  -23.9106  -10.4292   21.0423 C   0  0  0  0  0  0
  -24.3662   -9.4202   21.9201 C   0  0  0  0  0  0
  -23.6336   -8.2234   22.0749 C   0  0  0  0  0  0
  -22.4313   -8.0293   21.3542 C   0  0  0  0  0  0
  -21.9963   -9.0267   20.4638 C   0  0  0  0  0  0
  -22.7287  -10.2144   20.3062 C   0  0  0  0  0  0
  -21.6860   -6.0766   22.5287 C   0  0  0  0  0  0
  -21.4000   -6.5663   23.8219 C   0  0  0  0  0  0
  -21.3661   -5.6810   24.9189 C   0  0  0  0  0  0
  -21.6043   -4.3066   24.7226 C   0  0  0  0  0  0
  -21.8821   -3.8173   23.4336 C   0  0  0  0  0  0
  -21.9197   -4.6998   22.3404 C   0  0  0  0  0  0
  -22.7847  -13.5215   21.1872 C   0  0  0  0  0  0
  -22.1678   -4.2187   21.0979 F   0  0  0  0  0  0
  -21.5638   -3.4541   25.7732 F   0  0  0  0  0  0
  -30.0071  -13.4160   20.4504 N   0  0  0  0  0  0
  -26.2989  -12.9362   20.3305 N   0  0  0  0  0  0
  -25.9334  -11.6512   20.5735 N   0  0  0  0  0  0
  -22.0500  -12.8210   22.0425 N   0  0  0  0  0  0
  -25.4210  -15.1871   20.3861 N   0  0  0  0  0  0
  -31.7258  -14.8621   20.0961 O   0  0  0  0  0  0
  -21.6653   -6.8909   21.4248 O   0  0  0  0  0  0
  -22.3541  -14.5542   20.6756 O   0  0  0  0  0  0
  -24.6254  -31.8553   23.1964 C   0  0  0  0  0  0
  -25.9081  -32.4775   23.8307 C   0  0  1  0  0  0
  -27.2518  -27.3490   20.1200 C   0  0  0  0  0  0
  -25.5887  -33.8571   24.2246 N   0  0  0  0  0  0
  -23.4240  -30.4760   21.5358 C   0  0  2  0  0  0
  -24.8779  -28.9236   20.1195 C   0  0  0  0  0  0
  -22.7495  -29.4614   22.4897 C   0  0  0  0  0  0
  -18.0288  -28.1398   22.8523 C   0  0  0  0  0  0
  -24.1479  -36.7253   23.2651 C   0  0  0  0  0  0
  -25.9646  -30.7961   21.3684 C   0  0  0  0  0  0
  -26.0446  -29.4240   20.7170 C   0  0  0  0  0  0
  -27.2354  -28.6474   20.7060 C   0  0  0  0  0  0
  -26.0690  -26.8841   19.5117 C   0  0  0  0  0  0
  -24.8900  -27.6549   19.5132 C   0  0  0  0  0  0
  -23.6442  -29.7955   20.1567 C   0  0  0  0  0  0
  -25.4108  -36.3078   24.0345 C   0  0  1  0  0  0
  -20.5904  -28.3678   23.1276 C   0  0  2  0  0  0
  -20.6790  -26.9393   22.5413 C   0  0  0  0  0  0
  -19.5751  -26.6417   21.5224 C   0  0  0  0  0  0
  -18.1927  -26.7967   22.1621 C   0  0  0  0  0  0
  -19.1566  -28.8847   23.2918 C   0  0  0  0  0  0
  -18.9488  -30.1462   23.8919 C   0  0  0  0  0  0
  -17.6495  -30.6605   24.0587 C   0  0  0  0  0  0
  -25.9027  -34.9461   23.5087 C   0  0  0  0  0  0
  -16.5367  -29.9126   23.6349 C   0  0  0  0  0  0
  -16.7285  -28.6536   23.0378 C   0  0  0  0  0  0
  -26.4443  -31.6606   25.0696 C   0  0  0  0  0  0
  -25.3668  -31.3782   26.1423 C   0  0  0  0  0  0
  -27.0277  -30.3033   24.6148 C   0  0  0  0  0  0
  -27.6003  -32.4326   25.7469 C   0  0  0  0  0  0
  -27.5566  -37.1782   24.8480 C   0  0  0  0  0  0
  -21.4203  -29.3045   22.3674 N   0  0  0  0  0  0
  -26.4278  -37.3780   23.9423 N   0  0  0  0  0  0
  -24.6899  -31.0603   22.0900 N   0  0  0  0  0  0
  -23.4216  -28.8137   23.2962 O   0  0  0  0  0  0
  -28.3820  -26.5307   20.1047 O   0  0  0  0  0  0
  -26.5628  -34.8930   22.4670 O   0  0  0  0  0  0
  -23.5419  -32.1305   23.7327 O   0  0  0  0  0  0
  -28.6742  -19.3319   21.2972 C   0  0  0  0  0  0
  -30.0918  -17.7100   19.5262 C   0  0  0  0  0  0
  -28.9570  -17.9714   21.6262 C   0  0  0  0  0  0
  -29.0988  -19.9506   20.0892 C   0  0  0  0  0  0
  -29.6647  -17.1027   20.7349 C   0  0  0  0  0  0
  -29.8205  -19.0787   19.2111 C   0  0  0  0  0  0
  -28.4215  -23.9328   19.8641 C   0  0  0  0  0  0
  -29.1190  -23.8561   22.6766 C   0  0  0  0  0  0
  -29.3216  -25.1554   21.8921 C   0  0  0  0  0  0
  -29.3010  -22.6114   21.7842 C   0  0  0  0  0  0
  -28.2747  -25.2200   20.7745 C   0  0  1  0  0  0
  -28.4415  -17.4791   22.9702 C   0  0  0  0  0  0
  -28.6206  -21.4037   19.6292 C   0  0  0  0  0  0
  -28.7244  -22.6967   20.4280 N   0  0  0  0  0  0
  -29.7795  -15.6636   21.0136 N   0  0  0  0  0  0
  -28.2065  -24.0551   18.6522 O   0  0  0  0  0  0
  -30.3223  -19.6200   17.6496 Cl  0  0  0  0  0  0
  -31.4779  -12.5655   19.1486 H   0  0  0  0  0  0
  -30.4015  -11.4078   19.8786 H   0  0  0  0  0  0
  -29.7683  -11.7663   17.4842 H   0  0  0  0  0  0
  -29.6664  -13.4901   17.7385 H   0  0  0  0  0  0
  -27.8269  -11.3278   18.8096 H   0  0  0  0  0  0
  -27.3919  -12.6704   17.7823 H   0  0  0  0  0  0
  -27.6779  -14.2666   19.5592 H   0  0  0  0  0  0
  -28.6987  -12.0256   21.3683 H   0  0  0  0  0  0
  -28.4209  -13.6665   21.8600 H   0  0  0  0  0  0
  -25.2791   -9.5688   22.4796 H   0  0  0  0  0  0
  -24.0049   -7.4619   22.7459 H   0  0  0  0  0  0
  -21.0898   -8.8819   19.8922 H   0  0  0  0  0  0
  -22.3766  -10.9724   19.6195 H   0  0  0  0  0  0
  -21.1968   -7.6164   23.9745 H   0  0  0  0  0  0
  -21.1477   -6.0524   25.9097 H   0  0  0  0  0  0
  -22.0586   -2.7632   23.2817 H   0  0  0  0  0  0
  -22.4104  -11.9862   22.4815 H   0  0  0  0  0  0
  -21.1115  -13.1242   22.2622 H   0  0  0  0  0  0
  -24.6247  -15.8152   20.4030 H   0  0  0  0  0  0
  -26.2468  -15.6098   19.9801 H   0  0  0  0  0  0
  -26.7166  -32.5416   23.1077 H   0  0  0  0  0  0
  -25.0092  -33.9708   25.0434 H   0  0  0  0  0  0
  -22.7201  -31.2965   21.3800 H   0  0  0  0  0  0
  -23.3790  -35.9531   23.3315 H   0  0  0  0  0  0
  -24.3595  -36.8849   22.2068 H   0  0  0  0  0  0
  -23.7181  -37.6431   23.6649 H   0  0  0  0  0  0
  -26.1038  -31.5591   20.6010 H   0  0  0  0  0  0
  -26.8442  -30.8404   22.0004 H   0  0  0  0  0  0
  -28.1348  -29.0345   21.1636 H   0  0  0  0  0  0
  -26.0665  -25.9082   19.0438 H   0  0  0  0  0  0
  -23.9937  -27.2618   19.0513 H   0  0  0  0  0  0
  -23.7700  -30.5589   19.3891 H   0  0  0  0  0  0
  -22.7683  -29.2149   19.8530 H   0  0  0  0  0  0
  -25.1316  -36.1909   25.0844 H   0  0  0  0  0  0
  -20.9984  -28.3219   24.1394 H   0  0  0  0  0  0
  -20.5693  -26.2250   23.3600 H   0  0  0  0  0  0
  -21.6648  -26.7438   22.1155 H   0  0  0  0  0  0
  -19.6899  -25.6349   21.1190 H   0  0  0  0  0  0
  -19.6695  -27.3286   20.6801 H   0  0  0  0  0  0
  -17.4204  -26.6754   21.4021 H   0  0  0  0  0  0
  -18.0293  -26.0125   22.8999 H   0  0  0  0  0  0
  -19.7965  -30.7301   24.2267 H   0  0  0  0  0  0
  -17.5050  -31.6283   24.5193 H   0  0  0  0  0  0
  -15.5359  -30.3045   23.7707 H   0  0  0  0  0  0
  -15.8666  -28.0882   22.7073 H   0  0  0  0  0  0
  -24.5885  -30.7071   25.7785 H   0  0  0  0  0  0
  -24.8824  -32.2972   26.4719 H   0  0  0  0  0  0
  -25.7997  -30.9079   27.0264 H   0  0  0  0  0  0
  -26.2847  -29.6825   24.1131 H   0  0  0  0  0  0
  -27.3968  -29.7245   25.4624 H   0  0  0  0  0  0
  -27.8712  -30.4378   23.9381 H   0  0  0  0  0  0
  -27.2642  -33.3708   26.1897 H   0  0  0  0  0  0
  -28.3885  -32.6712   25.0323 H   0  0  0  0  0  0
  -28.0550  -31.8519   26.5508 H   0  0  0  0  0  0
  -28.2578  -38.0082   24.7548 H   0  0  0  0  0  0
  -28.1064  -36.2615   24.6288 H   0  0  0  0  0  0
  -27.2288  -37.1397   25.8883 H   0  0  0  0  0  0
  -20.9362  -29.8735   21.6873 H   0  0  0  0  0  0
  -26.0159  -38.2835   24.1476 H   0  0  0  0  0  0
  -28.0491  -19.8821   21.9842 H   0  0  0  0  0  0
  -30.5861  -17.1043   18.7798 H   0  0  0  0  0  0
  -28.1149  -23.8555   23.1080 H   0  0  0  0  0  0
  -29.8105  -23.8143   23.5197 H   0  0  0  0  0  0
  -30.3258  -25.1848   21.4659 H   0  0  0  0  0  0
  -29.2402  -26.0180   22.5522 H   0  0  0  0  0  0
  -28.8773  -21.7682   22.3193 H   0  0  0  0  0  0
  -30.3689  -22.4193   21.6736 H   0  0  0  0  0  0
  -27.2899  -25.1513   21.2400 H   0  0  0  0  0  0
  -28.6426  -16.4284   23.1703 H   0  0  0  0  0  0
  -27.3641  -17.6342   23.0328 H   0  0  0  0  0  0
  -28.9045  -18.0593   23.7690 H   0  0  0  0  0  0
  -27.5614  -21.2764   19.3941 H   0  0  0  0  0  0
  -29.0731  -21.6200   18.6639 H   0  0  0  0  0  0
  -28.9910  -15.2980   21.5254 H   0  0  0  0  0  0
  1 25  1  0  0  0
  1 30  2  0  0  0
  1 85  1  0  0  0
  2  3  1  0  0  0
  2 25  1  0  0  0
  2 88  1  0  0  0
  2 89  1  0  0  0
  3  4  1  0  0  0
  3 90  1  0  0  0
  3 91  1  0  0  0
  4  5  1  0  0  0
  4 92  1  0  0  0
  4 93  1  0  0  0
  5  6  1  0  0  0
  5 26  1  0  0  0
  5 94  1  0  0  0
  6 25  1  0  0  0
  6 95  1  0  0  0
  6 96  1  0  0  0
  7  8  2  0  0  0
  7 26  1  0  0  0
  7 29  1  0  0  0
  8  9  1  0  0  0
  8 22  1  0  0  0
  9 10  1  0  0  0
  9 27  2  0  0  0
 10 11  2  0  0  0
 10 15  1  0  0  0
 11 12  1  0  0  0
 11 97  1  0  0  0
 12 13  2  0  0  0
 12 98  1  0  0  0
 13 14  1  0  0  0
 13 31  1  0  0  0
 14 15  2  0  0  0
 14 99  1  0  0  0
 15100  1  0  0  0
 16 17  2  0  0  0
 16 21  1  0  0  0
 16 31  1  0  0  0
 17 18  1  0  0  0
 17101  1  0  0  0
 18 19  2  0  0  0
 18102  1  0  0  0
 19 20  1  0  0  0
 19 24  1  0  0  0
 20 21  2  0  0  0
 20103  1  0  0  0
 21 23  1  0  0  0
 22 28  1  0  0  0
 22 32  2  0  0  0
 26 27  1  0  0  0
 28104  1  0  0  0
 28105  1  0  0  0
 29106  1  0  0  0
 29107  1  0  0  0
 33 34  1  0  0  0
 33 66  1  0  0  0
 33 70  2  0  0  0
 34 36  1  0  0  0
 34 59  1  0  0  0
 34108  1  0  0  0
 35 44  2  0  0  0
 35 45  1  0  0  0
 35 68  1  0  0  0
 36 56  1  0  0  0
 36109  1  0  0  0
 37 39  1  0  0  0
 37 47  1  0  0  0
 37 66  1  0  0  0
 37110  1  0  0  0
 38 43  2  0  0  0
 38 46  1  0  0  0
 38 47  1  0  0  0
 39 64  1  0  0  0
 39 67  2  0  0  0
 40 52  1  0  0  0
 40 53  2  0  0  0
 40 58  1  0  0  0
 41111  1  0  0  0
 41112  1  0  0  0
 41113  1  0  0  0
 41 48  1  0  0  0
 42 43  1  0  0  0
 42 66  1  0  0  0
 42114  1  0  0  0
 42115  1  0  0  0
 43 44  1  0  0  0
 44116  1  0  0  0
 45 46  2  0  0  0
 45117  1  0  0  0
 46118  1  0  0  0
 47119  1  0  0  0
 47120  1  0  0  0
 48 56  1  0  0  0
 48 65  1  0  0  0
 48121  1  0  0  0
 49 50  1  0  0  0
 49 53  1  0  0  0
 49 64  1  0  0  0
 49122  1  0  0  0
 50 51  1  0  0  0
 50123  1  0  0  0
 50124  1  0  0  0
 51 52  1  0  0  0
 51125  1  0  0  0
 51126  1  0  0  0
 52127  1  0  0  0
 52128  1  0  0  0
 53 54  1  0  0  0
 54 55  2  0  0  0
 54129  1  0  0  0
 55 57  1  0  0  0
 55130  1  0  0  0
 56 69  2  0  0  0
 57 58  2  0  0  0
 57131  1  0  0  0
 58132  1  0  0  0
 59 60  1  0  0  0
 59 61  1  0  0  0
 59 62  1  0  0  0
 60133  1  0  0  0
 60134  1  0  0  0
 60135  1  0  0  0
 61136  1  0  0  0
 61137  1  0  0  0
 61138  1  0  0  0
 62139  1  0  0  0
 62140  1  0  0  0
 62141  1  0  0  0
 63 65  1  0  0  0
 63142  1  0  0  0
 63143  1  0  0  0
 63144  1  0  0  0
 64145  1  0  0  0
 65146  1  0  0  0
 68 81  1  0  0  0
 71 73  2  0  0  0
 71 74  1  0  0  0
 71147  1  0  0  0
 72 75  2  0  0  0
 72 76  1  0  0  0
 72148  1  0  0  0
 73 75  1  0  0  0
 73 82  1  0  0  0
 74 76  2  0  0  0
 74 83  1  0  0  0
 75 85  1  0  0  0
 76 87  1  0  0  0
 77 81  1  0  0  0
 77 84  1  0  0  0
 77 86  2  0  0  0
 78 79  1  0  0  0
 78 80  1  0  0  0
 78149  1  0  0  0
 78150  1  0  0  0
 79 81  1  0  0  0
 79151  1  0  0  0
 79152  1  0  0  0
 80 84  1  0  0  0
 80153  1  0  0  0
 80154  1  0  0  0
 81155  1  0  0  0
 82156  1  0  0  0
 82157  1  0  0  0
 82158  1  0  0  0
 83 84  1  0  0  0
 83159  1  0  0  0
 83160  1  0  0  0
 85161  1  0  0  0
M  ISO  4   1 100  68 101  81 101  85 100
M  END
> <chiral flag>
0

> <version>
0

> <s_m_source_file>
/data/baiqing/PycharmProjects/Reinvent-master-3.2/result/LINK_invent/BTK/process_docking_weight1_custom_product_contain_oxygen_bond_distance_aromatic_linkinvent_7_9_3/rearranged_h_0041.sdf

> <i_m_source_file_index>
72

> <r_mmod_Potential_Energy-OPLS-2005>
144.641845703125

> <r_mmod_Stretch_Energy-OPLS-2005>
91.9359970092773

> <r_mmod_Bend_Energy-OPLS-2005>
154.780715942383

> <r_mmod_Torsional_Energy-OPLS-2005>
272.225616455078

> <r_mmod_Improper_Torsional_Energy-OPLS-2005>
6.1530499458313

> <r_mmod_Van_der_Waal_Energy-OPLS-2005>
151.483337402344

> <r_mmod_Electrostatic_Energy-OPLS-2005>
-345.661956787109

> <r_mmod_Solvation_Energy-OPLS-2005>
-232.319915771484

> <b_mmod_Minimization_Converged-OPLS-2005>
0

> <r_mmod_RMS_Derivative-OPLS-2005>
4.99071931838989

$$$$
72
                    3D
 Structure written by MMmdl.
160168  0  0  1  0            999 V2000
  -30.6509  -14.5609   20.5514 C   0  0  0  0  0  0
  -30.4396  -12.3568   19.4273 C   0  0  0  0  0  0
  -29.5020  -12.5015   18.2096 C   0  0  0  0  0  0
  -28.0254  -12.3434   18.6276 C   0  0  0  0  0  0
  -27.6574  -13.2040   19.8652 C   0  0  2  0  0  0
  -28.7032  -13.0226   20.9878 C   0  0  0  0  0  0
  -25.2588  -13.8146   20.5680 C   0  0  0  0  0  0
  -24.1837  -13.0429   20.9185 C   0  0  0  0  0  0
  -24.6382  -11.6894   20.8734 C   0  0  0  0  0  0
  -23.9044  -10.4287   21.0406 C   0  0  0  0  0  0
  -24.3601   -9.4211   21.9190 C   0  0  0  0  0  0
  -23.6282   -8.2245   22.0758 C   0  0  0  0  0  0
  -22.4268   -8.0279   21.3543 C   0  0  0  0  0  0
  -21.9898   -9.0251   20.4648 C   0  0  0  0  0  0
  -22.7216  -10.2132   20.3058 C   0  0  0  0  0  0
  -21.6852   -6.0731   22.5274 C   0  0  0  0  0  0
  -21.4009   -6.5636   23.8210 C   0  0  0  0  0  0
  -21.3659   -5.6789   24.9175 C   0  0  0  0  0  0
  -21.6048   -4.3054   24.7221 C   0  0  0  0  0  0
  -21.8819   -3.8143   23.4343 C   0  0  0  0  0  0
  -21.9192   -4.6958   22.3397 C   0  0  0  0  0  0
  -22.7861  -13.5244   21.1838 C   0  0  0  0  0  0
  -22.1663   -4.2150   21.0974 F   0  0  0  0  0  0
  -21.5632   -3.4532   25.7733 F   0  0  0  0  0  0
  -30.0214  -13.3565   20.4241 N   0  0  0  0  0  0
  -26.3001  -12.9301   20.3322 N   0  0  0  0  0  0
  -25.9310  -11.6469   20.5756 N   0  0  0  0  0  0
  -22.0487  -12.8251   22.0390 N   0  0  0  0  0  0
  -25.4322  -15.1867   20.4084 N   0  0  0  0  0  0
  -31.8124  -14.7449   20.1732 O   0  0  0  0  0  0
  -21.6636   -6.8874   21.4239 O   0  0  0  0  0  0
  -22.3568  -14.5560   20.6687 O   0  0  0  0  0  0
  -24.6205  -31.8641   23.2071 C   0  0  0  0  0  0
  -25.9071  -32.4805   23.8376 C   0  0  1  0  0  0
  -27.2252  -27.3720   20.1145 C   0  0  0  0  0  0
  -25.5926  -33.8610   24.2305 N   0  0  0  0  0  0
  -23.4115  -30.4897   21.5486 C   0  0  2  0  0  0
  -24.8562  -28.9506   20.1137 C   0  0  0  0  0  0
  -22.7462  -29.4643   22.4944 C   0  0  0  0  0  0
  -18.0284  -28.1398   22.8483 C   0  0  0  0  0  0
  -24.1491  -36.7299   23.2638 C   0  0  0  0  0  0
  -25.9468  -30.8135   21.3664 C   0  0  0  0  0  0
  -26.0212  -29.4431   20.7146 C   0  0  0  0  0  0
  -27.2103  -28.6651   20.7070 C   0  0  0  0  0  0
  -26.0416  -26.9209   19.4872 C   0  0  0  0  0  0
  -24.8647  -27.6921   19.4933 C   0  0  0  0  0  0
  -23.6235  -29.8282   20.1615 C   0  0  0  0  0  0
  -25.4109  -36.3102   24.0342 C   0  0  1  0  0  0
  -20.5885  -28.3686   23.1309 C   0  0  2  0  0  0
  -20.6782  -26.9415   22.5429 C   0  0  0  0  0  0
  -19.5756  -26.6391   21.5237 C   0  0  0  0  0  0
  -18.1925  -26.7935   22.1628 C   0  0  0  0  0  0
  -19.1535  -28.8856   23.2892 C   0  0  0  0  0  0
  -18.9461  -30.1457   23.8908 C   0  0  0  0  0  0
  -17.6465  -30.6596   24.0573 C   0  0  0  0  0  0
  -25.9051  -34.9469   23.5118 C   0  0  0  0  0  0
  -16.5353  -29.9105   23.6331 C   0  0  0  0  0  0
  -16.7276  -28.6527   23.0341 C   0  0  0  0  0  0
  -26.4476  -31.6608   25.0722 C   0  0  0  0  0  0
  -25.3742  -31.3742   26.1475 C   0  0  0  0  0  0
  -27.0288  -30.3043   24.6101 C   0  0  0  0  0  0
  -27.6031  -32.4339   25.7492 C   0  0  0  0  0  0
  -27.5578  -37.1811   24.8464 C   0  0  0  0  0  0
  -21.4177  -29.3043   22.3711 N   0  0  0  0  0  0
  -26.4286  -37.3797   23.9420 N   0  0  0  0  0  0
  -24.6782  -31.0713   22.0981 N   0  0  0  0  0  0
  -23.4221  -28.8164   23.2985 O   0  0  0  0  0  0
  -28.3633  -26.5706   20.1339 O   0  0  0  0  0  0
  -26.5600  -34.8930   22.4675 O   0  0  0  0  0  0
  -23.5382  -32.1397   23.7443 O   0  0  0  0  0  0
  -30.5686  -18.2140   23.4264 C   0  0  0  0  0  0
  -30.3740  -16.9659   22.8119 C   0  0  0  0  0  0
  -30.0904  -18.0926   20.6696 C   0  0  0  0  0  0
  -30.5464  -19.4103   22.6770 C   0  0  0  0  0  0
  -30.2946  -19.3751   21.2776 C   0  0  0  0  0  0
  -30.1523  -16.8806   21.4253 C   0  0  0  0  0  0
  -30.3811  -24.5878   19.4380 C   0  0  0  0  0  0
  -29.4157  -24.2622   20.3134 C   0  0  0  0  0  0
  -30.8172  -20.7103   23.4148 C   0  0  0  0  0  0
  -30.3614  -20.6751   20.4183 C   0  0  0  0  0  0
  -29.5602  -22.9989   21.2034 C   0  0  0  0  0  0
  -28.1700  -25.1620   20.4854 C   0  0  0  0  0  0
  -29.8302  -15.5917   20.8808 N   0  0  0  0  0  0
  -29.2498  -21.6766   20.5578 N   0  3  0  0  0  0
  -31.4795  -12.4879   19.1213 H   0  0  0  0  0  0
  -30.3750  -11.3527   19.8499 H   0  0  0  0  0  0
  -29.7576  -11.7627   17.4489 H   0  0  0  0  0  0
  -29.6499  -13.4786   17.7470 H   0  0  0  0  0  0
  -27.8580  -11.2893   18.8519 H   0  0  0  0  0  0
  -27.3683  -12.5818   17.7908 H   0  0  0  0  0  0
  -27.6861  -14.2431   19.5379 H   0  0  0  0  0  0
  -28.7044  -11.9923   21.3457 H   0  0  0  0  0  0
  -28.4587  -13.6352   21.8569 H   0  0  0  0  0  0
  -25.2747   -9.5696   22.4764 H   0  0  0  0  0  0
  -23.9993   -7.4641   22.7483 H   0  0  0  0  0  0
  -21.0831   -8.8760   19.8961 H   0  0  0  0  0  0
  -22.3671  -10.9667   19.6166 H   0  0  0  0  0  0
  -21.1997   -7.6147   23.9713 H   0  0  0  0  0  0
  -21.1484   -6.0519   25.9079 H   0  0  0  0  0  0
  -22.0599   -2.7604   23.2835 H   0  0  0  0  0  0
  -22.4063  -11.9899   22.4781 H   0  0  0  0  0  0
  -21.1111  -13.1308   22.2577 H   0  0  0  0  0  0
  -24.6648  -15.8411   20.5161 H   0  0  0  0  0  0
  -26.2803  -15.6260   20.0733 H   0  0  0  0  0  0
  -26.7137  -32.5488   23.1129 H   0  0  0  0  0  0
  -25.0152  -33.9788   25.0497 H   0  0  0  0  0  0
  -22.7024  -31.3085   21.4107 H   0  0  0  0  0  0
  -23.3755  -35.9633   23.3306 H   0  0  0  0  0  0
  -24.3598  -36.8909   22.2053 H   0  0  0  0  0  0
  -23.7239  -37.6508   23.6641 H   0  0  0  0  0  0
  -26.0657  -31.5765   20.5966 H   0  0  0  0  0  0
  -26.8323  -30.8679   21.9877 H   0  0  0  0  0  0
  -28.1040  -29.0416   21.1833 H   0  0  0  0  0  0
  -26.0050  -25.9712   18.9759 H   0  0  0  0  0  0
  -23.9736  -27.3129   19.0125 H   0  0  0  0  0  0
  -23.7475  -30.6080   19.4088 H   0  0  0  0  0  0
  -22.7424  -29.2625   19.8534 H   0  0  0  0  0  0
  -25.1293  -36.1952   25.0837 H   0  0  0  0  0  0
  -20.9978  -28.3242   24.1433 H   0  0  0  0  0  0
  -20.5708  -26.2295   23.3622 H   0  0  0  0  0  0
  -21.6646  -26.7477   22.1203 H   0  0  0  0  0  0
  -19.6927  -25.6311   21.1248 H   0  0  0  0  0  0
  -19.6688  -27.3219   20.6777 H   0  0  0  0  0  0
  -17.4213  -26.6704   21.4006 H   0  0  0  0  0  0
  -18.0294  -26.0081   22.9018 H   0  0  0  0  0  0
  -19.7941  -30.7275   24.2264 H   0  0  0  0  0  0
  -17.5025  -31.6272   24.5187 H   0  0  0  0  0  0
  -15.5348  -30.3017   23.7665 H   0  0  0  0  0  0
  -15.8671  -28.0877   22.7026 H   0  0  0  0  0  0
  -24.5923  -30.7063   25.7848 H   0  0  0  0  0  0
  -24.8911  -32.2904   26.4880 H   0  0  0  0  0  0
  -25.8107  -30.8968   27.0257 H   0  0  0  0  0  0
  -26.2828  -29.6833   24.1121 H   0  0  0  0  0  0
  -27.4024  -29.7260   25.4563 H   0  0  0  0  0  0
  -27.8689  -30.4373   23.9281 H   0  0  0  0  0  0
  -27.2636  -33.3650   26.2048 H   0  0  0  0  0  0
  -28.3849  -32.6880   25.0324 H   0  0  0  0  0  0
  -28.0671  -31.8466   26.5430 H   0  0  0  0  0  0
  -28.2601  -38.0106   24.7522 H   0  0  0  0  0  0
  -28.1068  -36.2638   24.6266 H   0  0  0  0  0  0
  -27.2302  -37.1443   25.8872 H   0  0  0  0  0  0
  -20.9337  -29.8798   21.6959 H   0  0  0  0  0  0
  -26.0161  -38.2873   24.1426 H   0  0  0  0  0  0
  -30.7441  -18.2420   24.4936 H   0  0  0  0  0  0
  -30.3787  -16.0729   23.4226 H   0  0  0  0  0  0
  -29.8951  -18.0366   19.6077 H   0  0  0  0  0  0
  -31.2667  -23.9801   19.3220 H   0  0  0  0  0  0
  -30.3040  -25.4714   18.8198 H   0  0  0  0  0  0
  -31.1142  -20.5240   24.4474 H   0  0  0  0  0  0
  -29.9235  -21.3315   23.4466 H   0  0  0  0  0  0
  -31.6305  -21.2651   22.9487 H   0  0  0  0  0  0
  -30.3846  -20.3764   19.3701 H   0  0  0  0  0  0
  -31.3277  -21.1527   20.5784 H   0  0  0  0  0  0
  -28.9147  -23.1103   22.0752 H   0  0  0  0  0  0
  -30.5731  -22.9918   21.6048 H   0  0  0  0  0  0
  -27.8649  -25.1327   21.5321 H   0  0  0  0  0  0
  -27.3736  -24.6828   19.9192 H   0  0  0  0  0  0
  -28.8763  -15.3014   21.0278 H   0  0  0  0  0  0
  -28.4984  -21.2344   21.0584 H   0  0  0  0  0  0
  -28.9075  -21.8632   19.6305 H   0  0  0  0  0  0
  1 25  1  0  0  0
  1 30  2  0  0  0
  1 83  1  0  0  0
  2  3  1  0  0  0
  2 25  1  0  0  0
  2 85  1  0  0  0
  2 86  1  0  0  0
  3  4  1  0  0  0
  3 87  1  0  0  0
  3 88  1  0  0  0
  4  5  1  0  0  0
  4 89  1  0  0  0
  4 90  1  0  0  0
  5  6  1  0  0  0
  5 26  1  0  0  0
  5 91  1  0  0  0
  6 25  1  0  0  0
  6 92  1  0  0  0
  6 93  1  0  0  0
  7  8  2  0  0  0
  7 26  1  0  0  0
  7 29  1  0  0  0
  8  9  1  0  0  0
  8 22  1  0  0  0
  9 10  1  0  0  0
  9 27  2  0  0  0
 10 11  2  0  0  0
 10 15  1  0  0  0
 11 12  1  0  0  0
 11 94  1  0  0  0
 12 13  2  0  0  0
 12 95  1  0  0  0
 13 14  1  0  0  0
 13 31  1  0  0  0
 14 15  2  0  0  0
 14 96  1  0  0  0
 15 97  1  0  0  0
 16 17  2  0  0  0
 16 21  1  0  0  0
 16 31  1  0  0  0
 17 18  1  0  0  0
 17 98  1  0  0  0
 18 19  2  0  0  0
 18 99  1  0  0  0
 19 20  1  0  0  0
 19 24  1  0  0  0
 20 21  2  0  0  0
 20100  1  0  0  0
 21 23  1  0  0  0
 22 28  1  0  0  0
 22 32  2  0  0  0
 26 27  1  0  0  0
 28101  1  0  0  0
 28102  1  0  0  0
 29103  1  0  0  0
 29104  1  0  0  0
 33 34  1  0  0  0
 33 66  1  0  0  0
 33 70  2  0  0  0
 34 36  1  0  0  0
 34 59  1  0  0  0
 34105  1  0  0  0
 35 44  2  0  0  0
 35 45  1  0  0  0
 35 68  1  0  0  0
 36 56  1  0  0  0
 36106  1  0  0  0
 37 39  1  0  0  0
 37 47  1  0  0  0
 37 66  1  0  0  0
 37107  1  0  0  0
 38 43  2  0  0  0
 38 46  1  0  0  0
 38 47  1  0  0  0
 39 64  1  0  0  0
 39 67  2  0  0  0
 40 52  1  0  0  0
 40 53  2  0  0  0
 40 58  1  0  0  0
 41108  1  0  0  0
 41109  1  0  0  0
 41110  1  0  0  0
 41 48  1  0  0  0
 42 43  1  0  0  0
 42 66  1  0  0  0
 42111  1  0  0  0
 42112  1  0  0  0
 43 44  1  0  0  0
 44113  1  0  0  0
 45 46  2  0  0  0
 45114  1  0  0  0
 46115  1  0  0  0
 47116  1  0  0  0
 47117  1  0  0  0
 48 56  1  0  0  0
 48 65  1  0  0  0
 48118  1  0  0  0
 49 50  1  0  0  0
 49 53  1  0  0  0
 49 64  1  0  0  0
 49119  1  0  0  0
 50 51  1  0  0  0
 50120  1  0  0  0
 50121  1  0  0  0
 51 52  1  0  0  0
 51122  1  0  0  0
 51123  1  0  0  0
 52124  1  0  0  0
 52125  1  0  0  0
 53 54  1  0  0  0
 54 55  2  0  0  0
 54126  1  0  0  0
 55 57  1  0  0  0
 55127  1  0  0  0
 56 69  2  0  0  0
 57 58  2  0  0  0
 57128  1  0  0  0
 58129  1  0  0  0
 59 60  1  0  0  0
 59 61  1  0  0  0
 59 62  1  0  0  0
 60130  1  0  0  0
 60131  1  0  0  0
 60132  1  0  0  0
 61133  1  0  0  0
 61134  1  0  0  0
 61135  1  0  0  0
 62136  1  0  0  0
 62137  1  0  0  0
 62138  1  0  0  0
 63 65  1  0  0  0
 63139  1  0  0  0
 63140  1  0  0  0
 63141  1  0  0  0
 64142  1  0  0  0
 65143  1  0  0  0
 68 82  1  0  0  0
 71 72  2  0  0  0
 71 74  1  0  0  0
 71144  1  0  0  0
 72 76  1  0  0  0
 72145  1  0  0  0
 73 75  1  0  0  0
 73 76  2  0  0  0
 73146  1  0  0  0
 74 75  2  0  0  0
 74 79  1  0  0  0
 75 80  1  0  0  0
 76 83  1  0  0  0
 77 78  2  0  0  0
 77147  1  0  0  0
 77148  1  0  0  0
 78 81  1  0  0  0
 78 82  1  0  0  0
 79149  1  0  0  0
 79150  1  0  0  0
 79151  1  0  0  0
 80 84  1  0  0  0
 80152  1  0  0  0
 80153  1  0  0  0
 81 84  1  0  0  0
 81154  1  0  0  0
 81155  1  0  0  0
 82156  1  0  0  0
 82157  1  0  0  0
 83158  1  0  0  0
 84159  1  0  0  0
 84160  1  0  0  0
M  CHG  1  84   1
M  ISO  4   1 100  68 101  82 101  83 100
M  END
> <chiral flag>
0

> <version>
0

> <s_m_source_file>
/data/baiqing/PycharmProjects/Reinvent-master-3.2/result/LINK_invent/BTK/process_docking_weight1_custom_product_contain_oxygen_bond_distance_aromatic_linkinvent_7_9_3/rearranged_h_0041.sdf

> <i_m_source_file_index>
73

> <r_mmod_Potential_Energy-OPLS-2005>
-162.598236083984

> <r_mmod_Stretch_Energy-OPLS-2005>
55.4770202636719

> <r_mmod_Bend_Energy-OPLS-2005>
112.674377441406

> <r_mmod_Torsional_Energy-OPLS-2005>
266.071228027344

> <r_mmod_Improper_Torsional_Energy-OPLS-2005>
7.84522247314453

> <r_mmod_Van_der_Waal_Energy-OPLS-2005>
144.805328369141

> <r_mmod_Electrostatic_Energy-OPLS-2005>
-309.524108886719

> <r_mmod_Solvation_Energy-OPLS-2005>
-468.164672851562

> <b_mmod_Minimization_Converged-OPLS-2005>
0

> <r_mmod_RMS_Derivative-OPLS-2005>
1.98660337924957

$$$$
73
                    3D
 Structure written by MMmdl.
156164  0  0  1  0            999 V2000
  -30.7464  -14.5036   20.6272 C   0  0  0  0  0  0
  -30.4201  -12.3566   19.4276 C   0  0  0  0  0  0
  -29.4900  -12.5276   18.2119 C   0  0  0  0  0  0
  -28.0166  -12.3689   18.6314 C   0  0  0  0  0  0
  -27.6593  -13.2210   19.8787 C   0  0  2  0  0  0
  -28.7062  -13.0359   21.0018 C   0  0  0  0  0  0
  -25.2520  -13.8156   20.5608 C   0  0  0  0  0  0
  -24.1815  -13.0417   20.9183 C   0  0  0  0  0  0
  -24.6417  -11.6904   20.8764 C   0  0  0  0  0  0
  -23.9082  -10.4281   21.0408 C   0  0  0  0  0  0
  -24.3627   -9.4196   21.9191 C   0  0  0  0  0  0
  -23.6283   -8.2248   22.0769 C   0  0  0  0  0  0
  -22.4260   -8.0288   21.3560 C   0  0  0  0  0  0
  -21.9905   -9.0256   20.4658 C   0  0  0  0  0  0
  -22.7251  -10.2125   20.3065 C   0  0  0  0  0  0
  -21.6857   -6.0733   22.5280 C   0  0  0  0  0  0
  -21.4019   -6.5632   23.8211 C   0  0  0  0  0  0
  -21.3659   -5.6788   24.9170 C   0  0  0  0  0  0
  -21.6043   -4.3054   24.7220 C   0  0  0  0  0  0
  -21.8819   -3.8146   23.4341 C   0  0  0  0  0  0
  -21.9202   -4.6961   22.3403 C   0  0  0  0  0  0
  -22.7827  -13.5203   21.1822 C   0  0  0  0  0  0
  -22.1663   -4.2144   21.0982 F   0  0  0  0  0  0
  -21.5625   -3.4541   25.7734 F   0  0  0  0  0  0
  -30.0290  -13.3530   20.4454 N   0  0  0  0  0  0
  -26.3023  -12.9380   20.3414 N   0  0  0  0  0  0
  -25.9359  -11.6529   20.5838 N   0  0  0  0  0  0
  -22.0477  -12.8221   22.0408 N   0  0  0  0  0  0
  -25.4080  -15.1842   20.3798 N   0  0  0  0  0  0
  -31.8203  -14.6944   20.0540 O   0  0  0  0  0  0
  -21.6641   -6.8871   21.4242 O   0  0  0  0  0  0
  -22.3495  -14.5489   20.6645 O   0  0  0  0  0  0
  -24.6188  -31.8653   23.2057 C   0  0  0  0  0  0
  -25.9066  -32.4809   23.8362 C   0  0  1  0  0  0
  -27.2214  -27.3714   20.1080 C   0  0  0  0  0  0
  -25.5923  -33.8610   24.2301 N   0  0  0  0  0  0
  -23.4106  -30.4889   21.5472 C   0  0  2  0  0  0
  -24.8573  -28.9577   20.1075 C   0  0  0  0  0  0
  -22.7443  -29.4631   22.4941 C   0  0  0  0  0  0
  -18.0289  -28.1378   22.8497 C   0  0  0  0  0  0
  -24.1494  -36.7305   23.2628 C   0  0  0  0  0  0
  -25.9463  -30.8105   21.3729 C   0  0  0  0  0  0
  -26.0211  -29.4425   20.7169 C   0  0  0  0  0  0
  -27.2048  -28.6567   20.7165 C   0  0  0  0  0  0
  -26.0392  -26.9375   19.4596 C   0  0  0  0  0  0
  -24.8648  -27.7089   19.4720 C   0  0  0  0  0  0
  -23.6224  -29.8293   20.1604 C   0  0  0  0  0  0
  -25.4121  -36.3105   24.0323 C   0  0  1  0  0  0
  -20.5878  -28.3671   23.1306 C   0  0  2  0  0  0
  -20.6788  -26.9405   22.5422 C   0  0  0  0  0  0
  -19.5766  -26.6383   21.5229 C   0  0  0  0  0  0
  -18.1939  -26.7923   22.1632 C   0  0  0  0  0  0
  -19.1536  -28.8846   23.2901 C   0  0  0  0  0  0
  -18.9460  -30.1458   23.8909 C   0  0  0  0  0  0
  -17.6459  -30.6587   24.0567 C   0  0  0  0  0  0
  -25.9053  -34.9472   23.5112 C   0  0  0  0  0  0
  -16.5351  -29.9087   23.6328 C   0  0  0  0  0  0
  -16.7277  -28.6506   23.0347 C   0  0  0  0  0  0
  -26.4480  -31.6585   25.0697 C   0  0  0  0  0  0
  -25.3727  -31.3709   26.1428 C   0  0  0  0  0  0
  -27.0304  -30.3016   24.6096 C   0  0  0  0  0  0
  -27.6057  -32.4301   25.7469 C   0  0  0  0  0  0
  -27.5585  -37.1812   24.8464 C   0  0  0  0  0  0
  -21.4156  -29.3031   22.3702 N   0  0  0  0  0  0
  -26.4305  -37.3795   23.9397 N   0  0  0  0  0  0
  -24.6767  -31.0706   22.0991 N   0  0  0  0  0  0
  -23.4200  -28.8167   23.2988 O   0  0  0  0  0  0
  -28.3515  -26.5557   20.1770 O   0  0  0  0  0  0
  -26.5611  -34.8930   22.4672 O   0  0  0  0  0  0
  -23.5365  -32.1432   23.7409 O   0  0  0  0  0  0
  -27.4508  -17.8191   21.3452 C   0  0  0  0  0  0
  -28.0751  -19.0115   20.9262 C   0  0  0  0  0  0
  -28.1926  -16.6319   21.5085 C   0  0  0  0  0  0
  -30.2067  -17.8319   20.8596 C   0  0  0  0  0  0
  -29.4635  -19.0420   20.6823 C   0  0  0  0  0  0
  -29.5774  -16.6096   21.2499 C   0  0  0  0  0  0
  -30.1256  -20.3319   20.1321 C   0  0  0  0  0  0
  -29.2097  -24.1384   20.5570 C   0  0  0  0  0  0
  -28.9571  -22.6231   20.1949 C   0  0  0  0  0  0
  -28.1630  -25.1252   19.9383 C   0  0  0  0  0  0
  -30.3248  -15.4148   21.5334 N   0  0  0  0  0  0
  -29.8788  -21.6304   20.8461 N   0  3  0  0  0  0
  -31.4614  -12.4545   19.1143 H   0  0  0  0  0  0
  -30.3354  -11.3493   19.8396 H   0  0  0  0  0  0
  -29.7421  -11.8017   17.4378 H   0  0  0  0  0  0
  -29.6407  -13.5143   17.7711 H   0  0  0  0  0  0
  -27.8454  -11.3134   18.8435 H   0  0  0  0  0  0
  -27.3587  -12.6200   17.7986 H   0  0  0  0  0  0
  -27.6938  -14.2663   19.5698 H   0  0  0  0  0  0
  -28.6993  -12.0059   21.3606 H   0  0  0  0  0  0
  -28.4667  -13.6514   21.8690 H   0  0  0  0  0  0
  -25.2768   -9.5654   22.4764 H   0  0  0  0  0  0
  -23.9991   -7.4630   22.7482 H   0  0  0  0  0  0
  -21.0848   -8.8767   19.8946 H   0  0  0  0  0  0
  -22.3718  -10.9657   19.6170 H   0  0  0  0  0  0
  -21.2018   -7.6137   23.9717 H   0  0  0  0  0  0
  -21.1479   -6.0512   25.9069 H   0  0  0  0  0  0
  -22.0612   -2.7610   23.2845 H   0  0  0  0  0  0
  -22.4063  -11.9864   22.4775 H   0  0  0  0  0  0
  -21.1114  -13.1270   22.2636 H   0  0  0  0  0  0
  -24.6270  -15.8247   20.4578 H   0  0  0  0  0  0
  -26.2514  -15.6284   20.0398 H   0  0  0  0  0  0
  -26.7128  -32.5509   23.1112 H   0  0  0  0  0  0
  -25.0112  -33.9780   25.0471 H   0  0  0  0  0  0
  -22.7018  -31.3068   21.4073 H   0  0  0  0  0  0
  -23.3763  -35.9634   23.3310 H   0  0  0  0  0  0
  -24.3582  -36.8905   22.2039 H   0  0  0  0  0  0
  -23.7250  -37.6513   23.6640 H   0  0  0  0  0  0
  -26.0704  -31.5754   20.6046 H   0  0  0  0  0  0
  -26.8294  -30.8584   21.9980 H   0  0  0  0  0  0
  -28.0932  -29.0164   21.2180 H   0  0  0  0  0  0
  -25.9900  -25.9915   18.9410 H   0  0  0  0  0  0
  -23.9747  -27.3376   18.9823 H   0  0  0  0  0  0
  -23.7378  -30.6073   19.4055 H   0  0  0  0  0  0
  -22.7451  -29.2542   19.8583 H   0  0  0  0  0  0
  -25.1300  -36.1965   25.0818 H   0  0  0  0  0  0
  -20.9990  -28.3244   24.1412 H   0  0  0  0  0  0
  -20.5738  -26.2266   23.3601 H   0  0  0  0  0  0
  -21.6647  -26.7465   22.1185 H   0  0  0  0  0  0
  -19.6944  -25.6304   21.1236 H   0  0  0  0  0  0
  -19.6711  -27.3211   20.6776 H   0  0  0  0  0  0
  -17.4216  -26.6686   21.4020 H   0  0  0  0  0  0
  -18.0338  -26.0049   22.9015 H   0  0  0  0  0  0
  -19.7939  -30.7281   24.2267 H   0  0  0  0  0  0
  -17.5013  -31.6261   24.5167 H   0  0  0  0  0  0
  -15.5357  -30.2998   23.7639 H   0  0  0  0  0  0
  -15.8677  -28.0840   22.7043 H   0  0  0  0  0  0
  -24.5919  -30.7040   25.7749 H   0  0  0  0  0  0
  -24.8896  -32.2872   26.4833 H   0  0  0  0  0  0
  -25.8052  -30.8900   27.0210 H   0  0  0  0  0  0
  -26.2844  -29.6791   24.1137 H   0  0  0  0  0  0
  -27.4045  -29.7234   25.4556 H   0  0  0  0  0  0
  -27.8703  -30.4312   23.9265 H   0  0  0  0  0  0
  -27.2683  -33.3604   26.2055 H   0  0  0  0  0  0
  -28.3868  -32.6852   25.0293 H   0  0  0  0  0  0
  -28.0729  -31.8414   26.5377 H   0  0  0  0  0  0
  -28.2611  -38.0100   24.7508 H   0  0  0  0  0  0
  -28.1074  -36.2633   24.6305 H   0  0  0  0  0  0
  -27.2292  -37.1472   25.8863 H   0  0  0  0  0  0
  -20.9327  -29.8750   21.6914 H   0  0  0  0  0  0
  -26.0189  -38.2872   24.1398 H   0  0  0  0  0  0
  -26.3882  -17.8144   21.5443 H   0  0  0  0  0  0
  -27.4732  -19.8988   20.7844 H   0  0  0  0  0  0
  -27.6851  -15.7459   21.8621 H   0  0  0  0  0  0
  -31.2723  -17.8368   20.6757 H   0  0  0  0  0  0
  -29.8717  -20.4253   19.0768 H   0  0  0  0  0  0
  -31.2047  -20.1751   20.1539 H   0  0  0  0  0  0
  -30.2067  -24.4268   20.2236 H   0  0  0  0  0  0
  -29.2019  -24.2597   21.6407 H   0  0  0  0  0  0
  -29.0307  -22.5267   19.1111 H   0  0  0  0  0  0
  -27.9352  -22.3455   20.4553 H   0  0  0  0  0  0
  -27.1965  -24.8066   20.3322 H   0  0  0  0  0  0
  -28.1287  -24.9709   18.8597 H   0  0  0  0  0  0
  -31.1553  -15.6774   22.0446 H   0  0  0  0  0  0
  -30.7834  -22.0700   20.8924 H   0  0  0  0  0  0
  -29.6000  -21.4468   21.7960 H   0  0  0  0  0  0
  1 25  1  0  0  0
  1 30  2  0  0  0
  1 81  1  0  0  0
  2  3  1  0  0  0
  2 25  1  0  0  0
  2 83  1  0  0  0
  2 84  1  0  0  0
  3  4  1  0  0  0
  3 85  1  0  0  0
  3 86  1  0  0  0
  4  5  1  0  0  0
  4 87  1  0  0  0
  4 88  1  0  0  0
  5  6  1  0  0  0
  5 26  1  0  0  0
  5 89  1  0  0  0
  6 25  1  0  0  0
  6 90  1  0  0  0
  6 91  1  0  0  0
  7  8  2  0  0  0
  7 26  1  0  0  0
  7 29  1  0  0  0
  8  9  1  0  0  0
  8 22  1  0  0  0
  9 10  1  0  0  0
  9 27  2  0  0  0
 10 11  2  0  0  0
 10 15  1  0  0  0
 11 12  1  0  0  0
 11 92  1  0  0  0
 12 13  2  0  0  0
 12 93  1  0  0  0
 13 14  1  0  0  0
 13 31  1  0  0  0
 14 15  2  0  0  0
 14 94  1  0  0  0
 15 95  1  0  0  0
 16 17  2  0  0  0
 16 21  1  0  0  0
 16 31  1  0  0  0
 17 18  1  0  0  0
 17 96  1  0  0  0
 18 19  2  0  0  0
 18 97  1  0  0  0
 19 20  1  0  0  0
 19 24  1  0  0  0
 20 21  2  0  0  0
 20 98  1  0  0  0
 21 23  1  0  0  0
 22 28  1  0  0  0
 22 32  2  0  0  0
 26 27  1  0  0  0
 28 99  1  0  0  0
 28100  1  0  0  0
 29101  1  0  0  0
 29102  1  0  0  0
 33 34  1  0  0  0
 33 66  1  0  0  0
 33 70  2  0  0  0
 34 36  1  0  0  0
 34 59  1  0  0  0
 34103  1  0  0  0
 35 44  2  0  0  0
 35 45  1  0  0  0
 35 68  1  0  0  0
 36 56  1  0  0  0
 36104  1  0  0  0
 37 39  1  0  0  0
 37 47  1  0  0  0
 37 66  1  0  0  0
 37105  1  0  0  0
 38 43  2  0  0  0
 38 46  1  0  0  0
 38 47  1  0  0  0
 39 64  1  0  0  0
 39 67  2  0  0  0
 40 52  1  0  0  0
 40 53  2  0  0  0
 40 58  1  0  0  0
 41106  1  0  0  0
 41107  1  0  0  0
 41108  1  0  0  0
 41 48  1  0  0  0
 42 43  1  0  0  0
 42 66  1  0  0  0
 42109  1  0  0  0
 42110  1  0  0  0
 43 44  1  0  0  0
 44111  1  0  0  0
 45 46  2  0  0  0
 45112  1  0  0  0
 46113  1  0  0  0
 47114  1  0  0  0
 47115  1  0  0  0
 48 56  1  0  0  0
 48 65  1  0  0  0
 48116  1  0  0  0
 49 50  1  0  0  0
 49 53  1  0  0  0
 49 64  1  0  0  0
 49117  1  0  0  0
 50 51  1  0  0  0
 50118  1  0  0  0
 50119  1  0  0  0
 51 52  1  0  0  0
 51120  1  0  0  0
 51121  1  0  0  0
 52122  1  0  0  0
 52123  1  0  0  0
 53 54  1  0  0  0
 54 55  2  0  0  0
 54124  1  0  0  0
 55 57  1  0  0  0
 55125  1  0  0  0
 56 69  2  0  0  0
 57 58  2  0  0  0
 57126  1  0  0  0
 58127  1  0  0  0
 59 60  1  0  0  0
 59 61  1  0  0  0
 59 62  1  0  0  0
 60128  1  0  0  0
 60129  1  0  0  0
 60130  1  0  0  0
 61131  1  0  0  0
 61132  1  0  0  0
 61133  1  0  0  0
 62134  1  0  0  0
 62135  1  0  0  0
 62136  1  0  0  0
 63 65  1  0  0  0
 63137  1  0  0  0
 63138  1  0  0  0
 63139  1  0  0  0
 64140  1  0  0  0
 65141  1  0  0  0
 68 80  1  0  0  0
 71 72  2  0  0  0
 71 73  1  0  0  0
 71142  1  0  0  0
 72 75  1  0  0  0
 72143  1  0  0  0
 73 76  2  0  0  0
 73144  1  0  0  0
 74 75  2  0  0  0
 74 76  1  0  0  0
 74145  1  0  0  0
 75 77  1  0  0  0
 76 81  1  0  0  0
 77 82  1  0  0  0
 77146  1  0  0  0
 77147  1  0  0  0
 78 79  1  0  0  0
 78 80  1  0  0  0
 78148  1  0  0  0
 78149  1  0  0  0
 79 82  1  0  0  0
 79150  1  0  0  0
 79151  1  0  0  0
 80152  1  0  0  0
 80153  1  0  0  0
 81154  1  0  0  0
 82155  1  0  0  0
 82156  1  0  0  0
M  CHG  1  82   1
M  ISO  4   1 100  68 101  80 101  81 100
M  END
> <chiral flag>
0

> <version>
0

> <s_m_source_file>
/data/baiqing/PycharmProjects/Reinvent-master-3.2/result/LINK_invent/BTK/process_docking_weight1_custom_product_contain_oxygen_bond_distance_aromatic_linkinvent_7_9_3/rearranged_h_0041.sdf

> <i_m_source_file_index>
74

> <r_mmod_Potential_Energy-OPLS-2005>
-168.487808227539

> <r_mmod_Stretch_Energy-OPLS-2005>
53.3097610473633

> <r_mmod_Bend_Energy-OPLS-2005>
129.124069213867

> <r_mmod_Torsional_Energy-OPLS-2005>
262.076812744141

> <r_mmod_Improper_Torsional_Energy-OPLS-2005>
8.60186576843262

> <r_mmod_Van_der_Waal_Energy-OPLS-2005>
141.568786621094

> <r_mmod_Electrostatic_Energy-OPLS-2005>
-311.963745117188

> <r_mmod_Solvation_Energy-OPLS-2005>
-475.174072265625

> <b_mmod_Minimization_Converged-OPLS-2005>
0

> <r_mmod_RMS_Derivative-OPLS-2005>
2.13928484916687

$$$$
74
                    3D
 Structure written by MMmdl.
171180  0  0  1  0            999 V2000
  -30.6009  -14.6390   20.5069 C   0  0  0  0  0  0
  -30.4404  -12.3921   19.4536 C   0  0  0  0  0  0
  -29.5112  -12.5151   18.2247 C   0  0  0  0  0  0
  -28.0317  -12.3555   18.6304 C   0  0  0  0  0  0
  -27.6546  -13.2151   19.8671 C   0  0  2  0  0  0
  -28.6963  -13.0459   20.9949 C   0  0  0  0  0  0
  -25.2560  -13.8162   20.5684 C   0  0  0  0  0  0
  -24.1824  -13.0431   20.9185 C   0  0  0  0  0  0
  -24.6388  -11.6901   20.8723 C   0  0  0  0  0  0
  -23.9056  -10.4282   21.0393 C   0  0  0  0  0  0
  -24.3606   -9.4203   21.9174 C   0  0  0  0  0  0
  -23.6284   -8.2237   22.0746 C   0  0  0  0  0  0
  -22.4267   -8.0270   21.3539 C   0  0  0  0  0  0
  -21.9900   -9.0244   20.4641 C   0  0  0  0  0  0
  -22.7226  -10.2123   20.3047 C   0  0  0  0  0  0
  -21.6854   -6.0722   22.5277 C   0  0  0  0  0  0
  -21.4015   -6.5628   23.8208 C   0  0  0  0  0  0
  -21.3667   -5.6784   24.9172 C   0  0  0  0  0  0
  -21.6049   -4.3045   24.7223 C   0  0  0  0  0  0
  -21.8819   -3.8139   23.4346 C   0  0  0  0  0  0
  -21.9196   -4.6951   22.3402 C   0  0  0  0  0  0
  -22.7849  -13.5229   21.1859 C   0  0  0  0  0  0
  -22.1659   -4.2139   21.0979 F   0  0  0  0  0  0
  -21.5637   -3.4531   25.7741 F   0  0  0  0  0  0
  -30.0128  -13.4023   20.4416 N   0  0  0  0  0  0
  -26.2988  -12.9337   20.3320 N   0  0  0  0  0  0
  -25.9315  -11.6490   20.5739 N   0  0  0  0  0  0
  -22.0487  -12.8224   22.0414 N   0  0  0  0  0  0
  -25.4293  -15.1887   20.4135 N   0  0  0  0  0  0
  -31.7558  -14.8186   20.1097 O   0  0  0  0  0  0
  -21.6639   -6.8862   21.4238 O   0  0  0  0  0  0
  -22.3532  -14.5534   20.6711 O   0  0  0  0  0  0
  -24.6258  -31.8595   23.2023 C   0  0  0  0  0  0
  -25.9107  -32.4776   23.8351 C   0  0  1  0  0  0
  -27.2277  -27.3251   20.1182 C   0  0  0  0  0  0
  -25.5925  -33.8576   24.2281 N   0  0  0  0  0  0
  -23.4196  -30.4806   21.5456 C   0  0  2  0  0  0
  -24.8671  -28.9340   20.1149 C   0  0  0  0  0  0
  -22.7474  -29.4617   22.4960 C   0  0  0  0  0  0
  -18.0277  -28.1390   22.8487 C   0  0  0  0  0  0
  -24.1492  -36.7289   23.2638 C   0  0  0  0  0  0
  -25.9599  -30.7917   21.3731 C   0  0  0  0  0  0
  -26.0355  -29.4187   20.7170 C   0  0  0  0  0  0
  -27.2208  -28.6263   20.7060 C   0  0  0  0  0  0
  -26.0405  -26.8923   19.4890 C   0  0  0  0  0  0
  -24.8704  -27.6757   19.4924 C   0  0  0  0  0  0
  -23.6334  -29.8114   20.1625 C   0  0  0  0  0  0
  -25.4116  -36.3080   24.0327 C   0  0  1  0  0  0
  -20.5878  -28.3682   23.1293 C   0  0  2  0  0  0
  -20.6771  -26.9409   22.5411 C   0  0  0  0  0  0
  -19.5748  -26.6387   21.5213 C   0  0  0  0  0  0
  -18.1924  -26.7936   22.1620 C   0  0  0  0  0  0
  -19.1531  -28.8855   23.2884 C   0  0  0  0  0  0
  -18.9455  -30.1462   23.8893 C   0  0  0  0  0  0
  -17.6455  -30.6592   24.0561 C   0  0  0  0  0  0
  -25.9050  -34.9448   23.5106 C   0  0  0  0  0  0
  -16.5345  -29.9087   23.6336 C   0  0  0  0  0  0
  -16.7264  -28.6511   23.0349 C   0  0  0  0  0  0
  -26.4494  -31.6584   25.0718 C   0  0  0  0  0  0
  -25.3731  -31.3708   26.1446 C   0  0  0  0  0  0
  -27.0335  -30.3009   24.6170 C   0  0  0  0  0  0
  -27.6058  -32.4314   25.7485 C   0  0  0  0  0  0
  -27.5583  -37.1794   24.8463 C   0  0  0  0  0  0
  -21.4189  -29.3037   22.3697 N   0  0  0  0  0  0
  -26.4297  -37.3774   23.9406 N   0  0  0  0  0  0
  -24.6871  -31.0604   22.0976 N   0  0  0  0  0  0
  -23.4197  -28.8158   23.3043 O   0  0  0  0  0  0
  -28.3553  -26.4921   20.1190 O   0  0  0  0  0  0
  -26.5618  -34.8911   22.4670 O   0  0  0  0  0  0
  -23.5423  -32.1390   23.7356 O   0  0  0  0  0  0
  -29.7699  -19.2094   19.3820 C   0  0  0  0  0  0
  -28.8907  -19.3004   21.6087 C   0  0  0  0  0  0
  -29.1619  -19.9918   20.4013 C   0  0  0  0  0  0
  -30.0342  -17.8077   19.5230 C   0  0  0  0  0  0
  -29.1702  -17.9100   21.7778 C   0  0  0  0  0  0
  -29.7384  -17.1132   20.7383 C   0  0  0  0  0  0
  -29.1062  -24.0261   19.8078 C   0  0  0  0  0  0
  -31.1141  -23.6669   16.7127 C   0  0  0  0  0  0
  -29.6903  -24.2700   18.6162 C   0  0  0  0  0  0
  -30.5660  -23.3577   17.8982 C   0  0  0  0  0  0
  -28.3968  -23.6417   22.6421 C   0  0  0  0  0  0
  -28.3965  -25.0643   22.0716 C   0  0  0  0  0  0
  -29.5343  -22.8192   22.0203 C   0  0  0  0  0  0
  -28.1990  -25.0787   20.5474 C   0  0  1  0  0  0
  -30.5400  -17.0656   18.2982 C   0  0  0  0  0  0
  -28.7851  -17.2625   23.0985 C   0  0  0  0  0  0
  -28.6131  -21.4514   20.1256 C   0  0  0  0  0  0
  -29.7830  -15.6557   20.9305 N   0  0  0  0  0  0
  -29.3893  -22.6852   20.5503 N   0  3  1  0  0  0
  -31.4826  -12.5217   19.1572 H   0  0  0  0  0  0
  -30.3754  -11.3925   19.8846 H   0  0  0  0  0  0
  -29.7754  -11.7669   17.4764 H   0  0  0  0  0  0
  -29.6581  -13.4857   17.7496 H   0  0  0  0  0  0
  -27.8634  -11.3012   18.8490 H   0  0  0  0  0  0
  -27.3810  -12.5979   17.7895 H   0  0  0  0  0  0
  -27.6788  -14.2552   19.5424 H   0  0  0  0  0  0
  -28.7065  -12.0130   21.3474 H   0  0  0  0  0  0
  -28.4379  -13.6515   21.8652 H   0  0  0  0  0  0
  -25.2745   -9.5689   22.4750 H   0  0  0  0  0  0
  -24.0005   -7.4625   22.7457 H   0  0  0  0  0  0
  -21.0834   -8.8748   19.8942 H   0  0  0  0  0  0
  -22.3674  -10.9654   19.6154 H   0  0  0  0  0  0
  -21.1996   -7.6134   23.9712 H   0  0  0  0  0  0
  -21.1497   -6.0511   25.9078 H   0  0  0  0  0  0
  -22.0597   -2.7602   23.2852 H   0  0  0  0  0  0
  -22.4098  -11.9891   22.4816 H   0  0  0  0  0  0
  -21.1092  -13.1238   22.2591 H   0  0  0  0  0  0
  -24.6639  -15.8449   20.5207 H   0  0  0  0  0  0
  -26.2845  -15.6289   20.0982 H   0  0  0  0  0  0
  -26.7177  -32.5444   23.1101 H   0  0  0  0  0  0
  -25.0059  -33.9725   25.0417 H   0  0  0  0  0  0
  -22.7134  -31.3004   21.4007 H   0  0  0  0  0  0
  -23.3761  -35.9619   23.3299 H   0  0  0  0  0  0
  -24.3587  -36.8914   22.2056 H   0  0  0  0  0  0
  -23.7244  -37.6485   23.6664 H   0  0  0  0  0  0
  -26.0895  -31.5560   20.6055 H   0  0  0  0  0  0
  -26.8409  -30.8408   22.0018 H   0  0  0  0  0  0
  -28.1220  -28.9967   21.1745 H   0  0  0  0  0  0
  -26.0054  -25.9375   18.9854 H   0  0  0  0  0  0
  -23.9766  -27.3017   19.0120 H   0  0  0  0  0  0
  -23.7466  -30.5843   19.4016 H   0  0  0  0  0  0
  -22.7555  -29.2341   19.8664 H   0  0  0  0  0  0
  -25.1304  -36.1929   25.0822 H   0  0  0  0  0  0
  -20.9954  -28.3252   24.1422 H   0  0  0  0  0  0
  -20.5676  -26.2291   23.3608 H   0  0  0  0  0  0
  -21.6639  -26.7447   22.1200 H   0  0  0  0  0  0
  -19.6905  -25.6298   21.1246 H   0  0  0  0  0  0
  -19.6694  -27.3201   20.6750 H   0  0  0  0  0  0
  -17.4196  -26.6684   21.4023 H   0  0  0  0  0  0
  -18.0317  -26.0081   22.9021 H   0  0  0  0  0  0
  -19.7928  -30.7282   24.2263 H   0  0  0  0  0  0
  -17.5004  -31.6274   24.5158 H   0  0  0  0  0  0
  -15.5345  -30.2980   23.7676 H   0  0  0  0  0  0
  -15.8664  -28.0830   22.7063 H   0  0  0  0  0  0
  -24.5909  -30.7062   25.7759 H   0  0  0  0  0  0
  -24.8921  -32.2868   26.4887 H   0  0  0  0  0  0
  -25.8056  -30.8863   27.0211 H   0  0  0  0  0  0
  -26.2902  -29.6754   24.1213 H   0  0  0  0  0  0
  -27.4055  -29.7270   25.4668 H   0  0  0  0  0  0
  -27.8766  -30.4297   23.9378 H   0  0  0  0  0  0
  -27.2682  -33.3621   26.2056 H   0  0  0  0  0  0
  -28.3870  -32.6862   25.0309 H   0  0  0  0  0  0
  -28.0729  -31.8444   26.5404 H   0  0  0  0  0  0
  -28.2590  -38.0099   24.7518 H   0  0  0  0  0  0
  -28.1091  -36.2630   24.6286 H   0  0  0  0  0  0
  -27.2298  -37.1436   25.8864 H   0  0  0  0  0  0
  -20.9372  -29.8751   21.6896 H   0  0  0  0  0  0
  -26.0178  -38.2851   24.1409 H   0  0  0  0  0  0
  -29.9616  -19.6758   18.4254 H   0  0  0  0  0  0
  -28.3939  -19.8306   22.4099 H   0  0  0  0  0  0
  -31.7605  -22.9670   16.1997 H   0  0  0  0  0  0
  -30.9314  -24.6165   16.2298 H   0  0  0  0  0  0
  -29.4848  -25.2274   18.1579 H   0  0  0  0  0  0
  -30.8030  -22.3857   18.3061 H   0  0  0  0  0  0
  -27.4339  -23.1605   22.4682 H   0  0  0  0  0  0
  -28.5269  -23.6839   23.7242 H   0  0  0  0  0  0
  -29.3365  -25.5586   22.3211 H   0  0  0  0  0  0
  -27.6096  -25.6522   22.5452 H   0  0  0  0  0  0
  -29.6103  -21.8445   22.4990 H   0  0  0  0  0  0
  -30.4848  -23.3149   22.2202 H   0  0  0  0  0  0
  -27.1844  -24.7331   20.3569 H   0  0  0  0  0  0
  -30.4655  -17.6771   17.3988 H   0  0  0  0  0  0
  -29.9520  -16.1648   18.1213 H   0  0  0  0  0  0
  -31.5852  -16.7849   18.4233 H   0  0  0  0  0  0
  -28.5231  -18.0082   23.8496 H   0  0  0  0  0  0
  -29.6124  -16.6740   23.4972 H   0  0  0  0  0  0
  -27.9244  -16.6073   22.9623 H   0  0  0  0  0  0
  -27.6121  -21.5206   20.5515 H   0  0  0  0  0  0
  -28.4592  -21.5254   19.0488 H   0  0  0  0  0  0
  -28.9744  -15.2953   21.4114 H   0  0  0  0  0  0
  -30.3235  -22.4282   20.2721 H   0  0  0  0  0  0
  1 25  1  0  0  0
  1 30  2  0  0  0
  1 88  1  0  0  0
  2  3  1  0  0  0
  2 25  1  0  0  0
  2 90  1  0  0  0
  2 91  1  0  0  0
  3  4  1  0  0  0
  3 92  1  0  0  0
  3 93  1  0  0  0
  4  5  1  0  0  0
  4 94  1  0  0  0
  4 95  1  0  0  0
  5  6  1  0  0  0
  5 26  1  0  0  0
  5 96  1  0  0  0
  6 25  1  0  0  0
  6 97  1  0  0  0
  6 98  1  0  0  0
  7  8  2  0  0  0
  7 26  1  0  0  0
  7 29  1  0  0  0
  8  9  1  0  0  0
  8 22  1  0  0  0
  9 10  1  0  0  0
  9 27  2  0  0  0
 10 11  2  0  0  0
 10 15  1  0  0  0
 11 12  1  0  0  0
 11 99  1  0  0  0
 12 13  2  0  0  0
 12100  1  0  0  0
 13 14  1  0  0  0
 13 31  1  0  0  0
 14 15  2  0  0  0
 14101  1  0  0  0
 15102  1  0  0  0
 16 17  2  0  0  0
 16 21  1  0  0  0
 16 31  1  0  0  0
 17 18  1  0  0  0
 17103  1  0  0  0
 18 19  2  0  0  0
 18104  1  0  0  0
 19 20  1  0  0  0
 19 24  1  0  0  0
 20 21  2  0  0  0
 20105  1  0  0  0
 21 23  1  0  0  0
 22 28  1  0  0  0
 22 32  2  0  0  0
 26 27  1  0  0  0
 28106  1  0  0  0
 28107  1  0  0  0
 29108  1  0  0  0
 29109  1  0  0  0
 33 34  1  0  0  0
 33 66  1  0  0  0
 33 70  2  0  0  0
 34 36  1  0  0  0
 34 59  1  0  0  0
 34110  1  0  0  0
 35 44  2  0  0  0
 35 45  1  0  0  0
 35 68  1  0  0  0
 36 56  1  0  0  0
 36111  1  0  0  0
 37 39  1  0  0  0
 37 47  1  0  0  0
 37 66  1  0  0  0
 37112  1  0  0  0
 38 43  2  0  0  0
 38 46  1  0  0  0
 38 47  1  0  0  0
 39 64  1  0  0  0
 39 67  2  0  0  0
 40 52  1  0  0  0
 40 53  2  0  0  0
 40 58  1  0  0  0
 41113  1  0  0  0
 41114  1  0  0  0
 41115  1  0  0  0
 41 48  1  0  0  0
 42 43  1  0  0  0
 42 66  1  0  0  0
 42116  1  0  0  0
 42117  1  0  0  0
 43 44  1  0  0  0
 44118  1  0  0  0
 45 46  2  0  0  0
 45119  1  0  0  0
 46120  1  0  0  0
 47121  1  0  0  0
 47122  1  0  0  0
 48 56  1  0  0  0
 48 65  1  0  0  0
 48123  1  0  0  0
 49 50  1  0  0  0
 49 53  1  0  0  0
 49 64  1  0  0  0
 49124  1  0  0  0
 50 51  1  0  0  0
 50125  1  0  0  0
 50126  1  0  0  0
 51 52  1  0  0  0
 51127  1  0  0  0
 51128  1  0  0  0
 52129  1  0  0  0
 52130  1  0  0  0
 53 54  1  0  0  0
 54 55  2  0  0  0
 54131  1  0  0  0
 55 57  1  0  0  0
 55132  1  0  0  0
 56 69  2  0  0  0
 57 58  2  0  0  0
 57133  1  0  0  0
 58134  1  0  0  0
 59 60  1  0  0  0
 59 61  1  0  0  0
 59 62  1  0  0  0
 60135  1  0  0  0
 60136  1  0  0  0
 60137  1  0  0  0
 61138  1  0  0  0
 61139  1  0  0  0
 61140  1  0  0  0
 62141  1  0  0  0
 62142  1  0  0  0
 62143  1  0  0  0
 63 65  1  0  0  0
 63144  1  0  0  0
 63145  1  0  0  0
 63146  1  0  0  0
 64147  1  0  0  0
 65148  1  0  0  0
 68 84  1  0  0  0
 71 73  2  0  0  0
 71 74  1  0  0  0
 71149  1  0  0  0
 72 73  1  0  0  0
 72 75  2  0  0  0
 72150  1  0  0  0
 73 87  1  0  0  0
 74 76  2  0  0  0
 74 85  1  0  0  0
 75 76  1  0  0  0
 75 86  1  0  0  0
 76 88  1  0  0  0
 77 79  2  0  0  0
 77 84  1  0  0  0
 77 89  1  0  0  0
 78 80  2  0  0  0
 78151  1  0  0  0
 78152  1  0  0  0
 79 80  1  0  0  0
 79153  1  0  0  0
 80154  1  0  0  0
 81 82  1  0  0  0
 81 83  1  0  0  0
 81155  1  0  0  0
 81156  1  0  0  0
 82 84  1  0  0  0
 82157  1  0  0  0
 82158  1  0  0  0
 83 89  1  0  0  0
 83159  1  0  0  0
 83160  1  0  0  0
 84161  1  0  0  0
 85162  1  0  0  0
 85163  1  0  0  0
 85164  1  0  0  0
 86165  1  0  0  0
 86166  1  0  0  0
 86167  1  0  0  0
 87168  1  0  0  0
 87169  1  0  0  0
 87 89  1  0  0  0
 88170  1  0  0  0
 89171  1  0  0  0
M  CHG  1  89   1
M  ISO  4   1 100  68 101  84 101  88 100
M  END
> <chiral flag>
0

> <version>
0

> <s_m_source_file>
/data/baiqing/PycharmProjects/Reinvent-master-3.2/result/LINK_invent/BTK/process_docking_weight1_custom_product_contain_oxygen_bond_distance_aromatic_linkinvent_7_9_3/rearranged_h_0041.sdf

> <i_m_source_file_index>
75

> <r_mmod_Potential_Energy-OPLS-2005>
-63.5112495422363

> <r_mmod_Stretch_Energy-OPLS-2005>
88.1406326293945

> <r_mmod_Bend_Energy-OPLS-2005>
156.666366577148

> <r_mmod_Torsional_Energy-OPLS-2005>
247.116882324219

> <r_mmod_Improper_Torsional_Energy-OPLS-2005>
5.49292087554932

> <r_mmod_Van_der_Waal_Energy-OPLS-2005>
138.602722167969

> <r_mmod_Electrostatic_Energy-OPLS-2005>
-322.102325439453

> <r_mmod_Solvation_Energy-OPLS-2005>
-422.655090332031

> <b_mmod_Minimization_Converged-OPLS-2005>
0

> <r_mmod_RMS_Derivative-OPLS-2005>
1.21898806095123

$$$$
75
                    3D
 Structure written by MMmdl.
174183  0  0  1  0            999 V2000
  -30.5983  -14.6485   20.4997 C   0  0  0  0  0  0
  -30.4419  -12.3982   19.4516 C   0  0  0  0  0  0
  -29.5095  -12.5141   18.2242 C   0  0  0  0  0  0
  -28.0321  -12.3485   18.6342 C   0  0  0  0  0  0
  -27.6541  -13.2146   19.8652 C   0  0  2  0  0  0
  -28.6972  -13.0554   20.9942 C   0  0  0  0  0  0
  -25.2569  -13.8168   20.5673 C   0  0  0  0  0  0
  -24.1827  -13.0441   20.9175 C   0  0  0  0  0  0
  -24.6390  -11.6908   20.8729 C   0  0  0  0  0  0
  -23.9062  -10.4291   21.0403 C   0  0  0  0  0  0
  -24.3613   -9.4209   21.9183 C   0  0  0  0  0  0
  -23.6288   -8.2246   22.0756 C   0  0  0  0  0  0
  -22.4273   -8.0287   21.3544 C   0  0  0  0  0  0
  -21.9902   -9.0259   20.4649 C   0  0  0  0  0  0
  -22.7233  -10.2135   20.3058 C   0  0  0  0  0  0
  -21.6852   -6.0739   22.5276 C   0  0  0  0  0  0
  -21.4013   -6.5639   23.8209 C   0  0  0  0  0  0
  -21.3657   -5.6790   24.9169 C   0  0  0  0  0  0
  -21.6045   -4.3055   24.7219 C   0  0  0  0  0  0
  -21.8820   -3.8149   23.4338 C   0  0  0  0  0  0
  -21.9191   -4.6966   22.3396 C   0  0  0  0  0  0
  -22.7853  -13.5245   21.1845 C   0  0  0  0  0  0
  -22.1665   -4.2153   21.0970 F   0  0  0  0  0  0
  -21.5622   -3.4537   25.7732 F   0  0  0  0  0  0
  -30.0128  -13.4101   20.4373 N   0  0  0  0  0  0
  -26.2993  -12.9343   20.3315 N   0  0  0  0  0  0
  -25.9317  -11.6500   20.5743 N   0  0  0  0  0  0
  -22.0487  -12.8248   22.0402 N   0  0  0  0  0  0
  -25.4291  -15.1888   20.4082 N   0  0  0  0  0  0
  -31.7569  -14.8303   20.1127 O   0  0  0  0  0  0
  -21.6639   -6.8886   21.4241 O   0  0  0  0  0  0
  -22.3551  -14.5557   20.6696 O   0  0  0  0  0  0
  -24.6252  -31.8590   23.2004 C   0  0  0  0  0  0
  -25.9098  -32.4775   23.8338 C   0  0  1  0  0  0
  -27.2332  -27.3254   20.1266 C   0  0  0  0  0  0
  -25.5914  -33.8576   24.2272 N   0  0  0  0  0  0
  -23.4194  -30.4787   21.5430 C   0  0  2  0  0  0
  -24.8675  -28.9231   20.1199 C   0  0  0  0  0  0
  -22.7467  -29.4615   22.4945 C   0  0  0  0  0  0
  -18.0284  -28.1383   22.8487 C   0  0  0  0  0  0
  -24.1487  -36.7293   23.2638 C   0  0  0  0  0  0
  -25.9575  -30.7920   21.3684 C   0  0  0  0  0  0
  -26.0345  -29.4160   20.7179 C   0  0  0  0  0  0
  -27.2226  -28.6303   20.7053 C   0  0  0  0  0  0
  -26.0447  -26.8699   19.5198 C   0  0  0  0  0  0
  -24.8731  -27.6548   19.5132 C   0  0  0  0  0  0
  -23.6350  -29.8041   20.1617 C   0  0  0  0  0  0
  -25.4110  -36.3082   24.0331 C   0  0  1  0  0  0
  -20.5882  -28.3683   23.1291 C   0  0  2  0  0  0
  -20.6773  -26.9408   22.5413 C   0  0  0  0  0  0
  -19.5748  -26.6386   21.5213 C   0  0  0  0  0  0
  -18.1928  -26.7929   22.1626 C   0  0  0  0  0  0
  -19.1537  -28.8851   23.2885 C   0  0  0  0  0  0
  -18.9460  -30.1454   23.8901 C   0  0  0  0  0  0
  -17.6460  -30.6585   24.0565 C   0  0  0  0  0  0
  -25.9049  -34.9451   23.5105 C   0  0  0  0  0  0
  -16.5353  -29.9084   23.6329 C   0  0  0  0  0  0
  -16.7273  -28.6502   23.0351 C   0  0  0  0  0  0
  -26.4489  -31.6586   25.0710 C   0  0  0  0  0  0
  -25.3729  -31.3723   26.1444 C   0  0  0  0  0  0
  -27.0334  -30.3014   24.6153 C   0  0  0  0  0  0
  -27.6050  -32.4324   25.7479 C   0  0  0  0  0  0
  -27.5583  -37.1794   24.8459 C   0  0  0  0  0  0
  -21.4182  -29.3038   22.3688 N   0  0  0  0  0  0
  -26.4285  -37.3779   23.9417 N   0  0  0  0  0  0
  -24.6860  -31.0602   22.0947 N   0  0  0  0  0  0
  -23.4191  -28.8166   23.3033 O   0  0  0  0  0  0
  -28.3787  -26.5246   20.0917 O   0  0  0  0  0  0
  -26.5620  -34.8919   22.4675 O   0  0  0  0  0  0
  -23.5419  -32.1381   23.7338 O   0  0  0  0  0  0
  -29.5299  -17.9528   21.8006 C   0  0  0  0  0  0
  -29.2128  -19.3400   21.7092 C   0  0  0  0  0  0
  -29.3039  -19.1699   19.2948 C   0  0  0  0  0  0
  -29.0669  -20.0017   20.4470 C   0  0  0  0  0  0
  -29.6615  -17.7709   19.4064 C   0  0  0  0  0  0
  -29.7458  -17.1235   20.6760 C   0  0  0  0  0  0
  -28.7271  -24.0162   19.5581 C   0  0  0  0  0  0
  -28.8944  -23.5334   15.8916 C   0  0  0  0  0  0
  -28.6530  -24.2261   18.2278 C   0  0  0  0  0  0
  -29.1405  -23.3314   17.1947 C   0  0  0  0  0  0
  -29.6836  -23.7776   22.3354 C   0  0  0  0  0  0
  -29.2892  -25.1651   21.8141 C   0  0  0  0  0  0
  -30.3224  -22.9457   21.2118 C   0  0  0  0  0  0
  -28.3401  -25.1329   20.5990 C   0  0  1  0  0  0
  -28.9374  -20.0601   23.0232 C   0  0  0  0  0  0
  -29.0933  -19.7406   17.8931 C   0  0  0  0  0  0
  -29.8628  -16.9242   18.1496 C   0  0  0  0  0  0
  -28.4707  -21.4869   20.3561 C   0  0  0  0  0  0
  -29.7696  -15.6705   20.8899 N   0  0  0  0  0  0
  -29.3608  -22.7001   20.1153 N   0  3  1  0  0  0
  -31.4820  -12.5325   19.1501 H   0  0  0  0  0  0
  -30.3838  -11.3997   19.8866 H   0  0  0  0  0  0
  -29.7743  -11.7649   17.4767 H   0  0  0  0  0  0
  -29.6502  -13.4856   17.7473 H   0  0  0  0  0  0
  -27.8681  -11.2940   18.8610 H   0  0  0  0  0  0
  -27.3787  -12.5835   17.7928 H   0  0  0  0  0  0
  -27.6750  -14.2515   19.5299 H   0  0  0  0  0  0
  -28.7109  -12.0275   21.3587 H   0  0  0  0  0  0
  -28.4383  -13.6694   21.8579 H   0  0  0  0  0  0
  -25.2753   -9.5683   22.4761 H   0  0  0  0  0  0
  -23.9991   -7.4638   22.7480 H   0  0  0  0  0  0
  -21.0828   -8.8786   19.8957 H   0  0  0  0  0  0
  -22.3694  -10.9678   19.6173 H   0  0  0  0  0  0
  -21.2007   -7.6149   23.9716 H   0  0  0  0  0  0
  -21.1479   -6.0517   25.9072 H   0  0  0  0  0  0
  -22.0598   -2.7612   23.2836 H   0  0  0  0  0  0
  -22.4092  -11.9906   22.4795 H   0  0  0  0  0  0
  -21.1114  -13.1299   22.2611 H   0  0  0  0  0  0
  -24.6619  -15.8435   20.5168 H   0  0  0  0  0  0
  -26.2792  -15.6281   20.0780 H   0  0  0  0  0  0
  -26.7168  -32.5449   23.1091 H   0  0  0  0  0  0
  -25.0055  -33.9718   25.0413 H   0  0  0  0  0  0
  -22.7133  -31.2983   21.3954 H   0  0  0  0  0  0
  -23.3749  -35.9624   23.3295 H   0  0  0  0  0  0
  -24.3581  -36.8920   22.2054 H   0  0  0  0  0  0
  -23.7236  -37.6493   23.6664 H   0  0  0  0  0  0
  -26.0848  -31.5521   20.5963 H   0  0  0  0  0  0
  -26.8394  -30.8462   21.9950 H   0  0  0  0  0  0
  -28.1259  -29.0104   21.1619 H   0  0  0  0  0  0
  -26.0215  -25.8993   19.0446 H   0  0  0  0  0  0
  -23.9782  -27.2710   19.0431 H   0  0  0  0  0  0
  -23.7549  -30.5756   19.4000 H   0  0  0  0  0  0
  -22.7555  -29.2313   19.8618 H   0  0  0  0  0  0
  -25.1286  -36.1933   25.0820 H   0  0  0  0  0  0
  -20.9973  -28.3259   24.1413 H   0  0  0  0  0  0
  -20.5673  -26.2293   23.3608 H   0  0  0  0  0  0
  -21.6643  -26.7440   22.1209 H   0  0  0  0  0  0
  -19.6910  -25.6299   21.1240 H   0  0  0  0  0  0
  -19.6686  -27.3199   20.6744 H   0  0  0  0  0  0
  -17.4197  -26.6676   21.4029 H   0  0  0  0  0  0
  -18.0330  -26.0070   22.9019 H   0  0  0  0  0  0
  -19.7935  -30.7270   24.2274 H   0  0  0  0  0  0
  -17.5013  -31.6265   24.5165 H   0  0  0  0  0  0
  -15.5353  -30.2989   23.7649 H   0  0  0  0  0  0
  -15.8673  -28.0823   22.7066 H   0  0  0  0  0  0
  -24.5897  -30.7080   25.7775 H   0  0  0  0  0  0
  -24.8931  -32.2890   26.4881 H   0  0  0  0  0  0
  -25.8060  -30.8892   27.0212 H   0  0  0  0  0  0
  -26.2903  -29.6764   24.1187 H   0  0  0  0  0  0
  -27.4052  -29.7271   25.4649 H   0  0  0  0  0  0
  -27.8760  -30.4310   23.9358 H   0  0  0  0  0  0
  -27.2657  -33.3618   26.2063 H   0  0  0  0  0  0
  -28.3852  -32.6895   25.0303 H   0  0  0  0  0  0
  -28.0726  -31.8449   26.5390 H   0  0  0  0  0  0
  -28.2580  -38.0111   24.7538 H   0  0  0  0  0  0
  -28.1100  -36.2647   24.6240 H   0  0  0  0  0  0
  -27.2309  -37.1383   25.8862 H   0  0  0  0  0  0
  -20.9363  -29.8755   21.6892 H   0  0  0  0  0  0
  -26.0168  -38.2851   24.1436 H   0  0  0  0  0  0
  -29.5511  -17.4892   22.7773 H   0  0  0  0  0  0
  -29.2793  -22.8562   15.1414 H   0  0  0  0  0  0
  -28.3074  -24.3736   15.5474 H   0  0  0  0  0  0
  -28.2465  -25.1753   17.9051 H   0  0  0  0  0  0
  -29.7465  -22.4775   17.4537 H   0  0  0  0  0  0
  -28.8150  -23.2717   22.7565 H   0  0  0  0  0  0
  -30.3986  -23.8882   23.1512 H   0  0  0  0  0  0
  -30.2000  -25.6978   21.5365 H   0  0  0  0  0  0
  -28.8361  -25.7499   22.6156 H   0  0  0  0  0  0
  -30.7349  -22.0092   21.5844 H   0  0  0  0  0  0
  -31.1741  -23.4891   20.8009 H   0  0  0  0  0  0
  -27.3374  -24.8888   20.9540 H   0  0  0  0  0  0
  -29.1626  -19.4250   23.8811 H   0  0  0  0  0  0
  -27.8872  -20.3416   23.1046 H   0  0  0  0  0  0
  -29.5495  -20.9514   23.1358 H   0  0  0  0  0  0
  -28.5247  -20.6623   17.8618 H   0  0  0  0  0  0
  -28.5180  -19.0501   17.2760 H   0  0  0  0  0  0
  -30.0525  -19.9182   17.4053 H   0  0  0  0  0  0
  -30.1211  -17.5041   17.2662 H   0  0  0  0  0  0
  -28.9632  -16.3482   17.9317 H   0  0  0  0  0  0
  -30.6913  -16.2319   18.2683 H   0  0  0  0  0  0
  -27.8991  -21.6915   21.2584 H   0  0  0  0  0  0
  -27.6909  -21.4938   19.5971 H   0  0  0  0  0  0
  -28.9372  -15.3195   21.3377 H   0  0  0  0  0  0
  -29.9584  -22.3652   19.3760 H   0  0  0  0  0  0
  1 25  1  0  0  0
  1 30  2  0  0  0
  1 89  1  0  0  0
  2  3  1  0  0  0
  2 25  1  0  0  0
  2 91  1  0  0  0
  2 92  1  0  0  0
  3  4  1  0  0  0
  3 93  1  0  0  0
  3 94  1  0  0  0
  4  5  1  0  0  0
  4 95  1  0  0  0
  4 96  1  0  0  0
  5  6  1  0  0  0
  5 26  1  0  0  0
  5 97  1  0  0  0
  6 25  1  0  0  0
  6 98  1  0  0  0
  6 99  1  0  0  0
  7  8  2  0  0  0
  7 26  1  0  0  0
  7 29  1  0  0  0
  8  9  1  0  0  0
  8 22  1  0  0  0
  9 10  1  0  0  0
  9 27  2  0  0  0
 10 11  2  0  0  0
 10 15  1  0  0  0
 11 12  1  0  0  0
 11100  1  0  0  0
 12 13  2  0  0  0
 12101  1  0  0  0
 13 14  1  0  0  0
 13 31  1  0  0  0
 14 15  2  0  0  0
 14102  1  0  0  0
 15103  1  0  0  0
 16 17  2  0  0  0
 16 21  1  0  0  0
 16 31  1  0  0  0
 17 18  1  0  0  0
 17104  1  0  0  0
 18 19  2  0  0  0
 18105  1  0  0  0
 19 20  1  0  0  0
 19 24  1  0  0  0
 20 21  2  0  0  0
 20106  1  0  0  0
 21 23  1  0  0  0
 22 28  1  0  0  0
 22 32  2  0  0  0
 26 27  1  0  0  0
 28107  1  0  0  0
 28108  1  0  0  0
 29109  1  0  0  0
 29110  1  0  0  0
 33 34  1  0  0  0
 33 66  1  0  0  0
 33 70  2  0  0  0
 34 36  1  0  0  0
 34 59  1  0  0  0
 34111  1  0  0  0
 35 44  2  0  0  0
 35 45  1  0  0  0
 35 68  1  0  0  0
 36 56  1  0  0  0
 36112  1  0  0  0
 37 39  1  0  0  0
 37 47  1  0  0  0
 37 66  1  0  0  0
 37113  1  0  0  0
 38 43  2  0  0  0
 38 46  1  0  0  0
 38 47  1  0  0  0
 39 64  1  0  0  0
 39 67  2  0  0  0
 40 52  1  0  0  0
 40 53  2  0  0  0
 40 58  1  0  0  0
 41114  1  0  0  0
 41115  1  0  0  0
 41116  1  0  0  0
 41 48  1  0  0  0
 42 43  1  0  0  0
 42 66  1  0  0  0
 42117  1  0  0  0
 42118  1  0  0  0
 43 44  1  0  0  0
 44119  1  0  0  0
 45 46  2  0  0  0
 45120  1  0  0  0
 46121  1  0  0  0
 47122  1  0  0  0
 47123  1  0  0  0
 48 56  1  0  0  0
 48 65  1  0  0  0
 48124  1  0  0  0
 49 50  1  0  0  0
 49 53  1  0  0  0
 49 64  1  0  0  0
 49125  1  0  0  0
 50 51  1  0  0  0
 50126  1  0  0  0
 50127  1  0  0  0
 51 52  1  0  0  0
 51128  1  0  0  0
 51129  1  0  0  0
 52130  1  0  0  0
 52131  1  0  0  0
 53 54  1  0  0  0
 54 55  2  0  0  0
 54132  1  0  0  0
 55 57  1  0  0  0
 55133  1  0  0  0
 56 69  2  0  0  0
 57 58  2  0  0  0
 57134  1  0  0  0
 58135  1  0  0  0
 59 60  1  0  0  0
 59 61  1  0  0  0
 59 62  1  0  0  0
 60136  1  0  0  0
 60137  1  0  0  0
 60138  1  0  0  0
 61139  1  0  0  0
 61140  1  0  0  0
 61141  1  0  0  0
 62142  1  0  0  0
 62143  1  0  0  0
 62144  1  0  0  0
 63 65  1  0  0  0
 63145  1  0  0  0
 63146  1  0  0  0
 63147  1  0  0  0
 64148  1  0  0  0
 65149  1  0  0  0
 68 84  1  0  0  0
 71 72  2  0  0  0
 71 76  1  0  0  0
 71150  1  0  0  0
 72 74  1  0  0  0
 72 85  1  0  0  0
 73 74  2  0  0  0
 73 75  1  0  0  0
 73 86  1  0  0  0
 74 88  1  0  0  0
 75 76  2  0  0  0
 75 87  1  0  0  0
 76 89  1  0  0  0
 77 79  2  0  0  0
 77 84  1  0  0  0
 77 90  1  0  0  0
 78 80  2  0  0  0
 78151  1  0  0  0
 78152  1  0  0  0
 79 80  1  0  0  0
 79153  1  0  0  0
 80154  1  0  0  0
 81 82  1  0  0  0
 81 83  1  0  0  0
 81155  1  0  0  0
 81156  1  0  0  0
 82 84  1  0  0  0
 82157  1  0  0  0
 82158  1  0  0  0
 83 90  1  0  0  0
 83159  1  0  0  0
 83160  1  0  0  0
 84161  1  0  0  0
 85162  1  0  0  0
 85163  1  0  0  0
 85164  1  0  0  0
 86165  1  0  0  0
 86166  1  0  0  0
 86167  1  0  0  0
 87168  1  0  0  0
 87169  1  0  0  0
 87170  1  0  0  0
 88171  1  0  0  0
 88172  1  0  0  0
 88 90  1  0  0  0
 89173  1  0  0  0
 90174  1  0  0  0
M  CHG  1  90   1
M  ISO  4   1 100  68 101  84 101  89 100
M  END
> <chiral flag>
0

> <version>
0

> <s_m_source_file>
/data/baiqing/PycharmProjects/Reinvent-master-3.2/result/LINK_invent/BTK/process_docking_weight1_custom_product_contain_oxygen_bond_distance_aromatic_linkinvent_7_9_3/rearranged_h_0041.sdf

> <i_m_source_file_index>
76

> <r_mmod_Potential_Energy-OPLS-2005>
1.51055705547333

> <r_mmod_Stretch_Energy-OPLS-2005>
98.2615737915039

> <r_mmod_Bend_Energy-OPLS-2005>
165.266571044922

> <r_mmod_Torsional_Energy-OPLS-2005>
265.624725341797

> <r_mmod_Improper_Torsional_Energy-OPLS-2005>
6.80016851425171

> <r_mmod_Van_der_Waal_Energy-OPLS-2005>
142.239318847656

> <r_mmod_Electrostatic_Energy-OPLS-2005>
-303.123321533203

> <r_mmod_Solvation_Energy-OPLS-2005>
-418.902496337891

> <b_mmod_Minimization_Converged-OPLS-2005>
0

> <r_mmod_RMS_Derivative-OPLS-2005>
1.03856348991394

$$$$
76
                    3D
 Structure written by MMmdl.
153161  0  0  1  0            999 V2000
  -30.5770  -14.6725   20.4904 C   0  0  0  0  0  0
  -30.4513  -12.4109   19.4460 C   0  0  0  0  0  0
  -29.5111  -12.5082   18.2218 C   0  0  0  0  0  0
  -28.0331  -12.3427   18.6331 C   0  0  0  0  0  0
  -27.6543  -13.2087   19.8629 C   0  0  2  0  0  0
  -28.7018  -13.0503   20.9891 C   0  0  0  0  0  0
  -25.2563  -13.8138   20.5656 C   0  0  0  0  0  0
  -24.1833  -13.0425   20.9212 C   0  0  0  0  0  0
  -24.6390  -11.6893   20.8755 C   0  0  0  0  0  0
  -23.9055  -10.4285   21.0419 C   0  0  0  0  0  0
  -24.3609   -9.4201   21.9193 C   0  0  0  0  0  0
  -23.6289   -8.2232   22.0753 C   0  0  0  0  0  0
  -22.4268   -8.0274   21.3546 C   0  0  0  0  0  0
  -21.9909   -9.0246   20.4644 C   0  0  0  0  0  0
  -22.7231  -10.2129   20.3062 C   0  0  0  0  0  0
  -21.6849   -6.0736   22.5281 C   0  0  0  0  0  0
  -21.4005   -6.5638   23.8214 C   0  0  0  0  0  0
  -21.3661   -5.6793   24.9176 C   0  0  0  0  0  0
  -21.6049   -4.3055   24.7226 C   0  0  0  0  0  0
  -21.8819   -3.8148   23.4346 C   0  0  0  0  0  0
  -21.9188   -4.6965   22.3403 C   0  0  0  0  0  0
  -22.7855  -13.5229   21.1870 C   0  0  0  0  0  0
  -22.1658   -4.2152   21.0983 F   0  0  0  0  0  0
  -21.5636   -3.4540   25.7739 F   0  0  0  0  0  0
  -30.0133  -13.4213   20.4294 N   0  0  0  0  0  0
  -26.2989  -12.9307   20.3298 N   0  0  0  0  0  0
  -25.9316  -11.6473   20.5761 N   0  0  0  0  0  0
  -22.0490  -12.8221   22.0420 N   0  0  0  0  0  0
  -25.4254  -15.1846   20.3952 N   0  0  0  0  0  0
  -31.7356  -14.8765   20.1136 O   0  0  0  0  0  0
  -21.6634   -6.8874   21.4241 O   0  0  0  0  0  0
  -22.3553  -14.5545   20.6725 O   0  0  0  0  0  0
  -24.6242  -31.8581   23.2006 C   0  0  0  0  0  0
  -25.9092  -32.4770   23.8324 C   0  0  1  0  0  0
  -27.2353  -27.3171   20.1323 C   0  0  0  0  0  0
  -25.5919  -33.8570   24.2267 N   0  0  0  0  0  0
  -23.4180  -30.4783   21.5426 C   0  0  2  0  0  0
  -24.8675  -28.9199   20.1207 C   0  0  0  0  0  0
  -22.7468  -29.4607   22.4944 C   0  0  0  0  0  0
  -18.0286  -28.1387   22.8478 C   0  0  0  0  0  0
  -24.1489  -36.7273   23.2644 C   0  0  0  0  0  0
  -25.9574  -30.7895   21.3696 C   0  0  0  0  0  0
  -26.0339  -29.4124   20.7186 C   0  0  0  0  0  0
  -27.2204  -28.6243   20.7086 C   0  0  0  0  0  0
  -26.0471  -26.8622   19.5262 C   0  0  0  0  0  0
  -24.8748  -27.6490   19.5176 C   0  0  0  0  0  0
  -23.6358  -29.8027   20.1618 C   0  0  0  0  0  0
  -25.4111  -36.3068   24.0337 C   0  0  1  0  0  0
  -20.5881  -28.3677   23.1298 C   0  0  2  0  0  0
  -20.6777  -26.9401   22.5421 C   0  0  0  0  0  0
  -19.5758  -26.6377   21.5221 C   0  0  0  0  0  0
  -18.1929  -26.7928   22.1619 C   0  0  0  0  0  0
  -19.1534  -28.8846   23.2878 C   0  0  0  0  0  0
  -18.9464  -30.1450   23.8886 C   0  0  0  0  0  0
  -17.6468  -30.6586   24.0557 C   0  0  0  0  0  0
  -25.9047  -34.9445   23.5100 C   0  0  0  0  0  0
  -16.5356  -29.9082   23.6343 C   0  0  0  0  0  0
  -16.7271  -28.6513   23.0338 C   0  0  0  0  0  0
  -26.4496  -31.6579   25.0692 C   0  0  0  0  0  0
  -25.3740  -31.3719   26.1432 C   0  0  0  0  0  0
  -27.0334  -30.3004   24.6123 C   0  0  0  0  0  0
  -27.6044  -32.4321   25.7465 C   0  0  0  0  0  0
  -27.5574  -37.1790   24.8473 C   0  0  0  0  0  0
  -21.4185  -29.3026   22.3690 N   0  0  0  0  0  0
  -26.4286  -37.3765   23.9417 N   0  0  0  0  0  0
  -24.6856  -31.0590   22.0950 N   0  0  0  0  0  0
  -23.4198  -28.8156   23.3030 O   0  0  0  0  0  0
  -28.3897  -26.5274   20.0881 O   0  0  0  0  0  0
  -26.5611  -34.8921   22.4664 O   0  0  0  0  0  0
  -23.5409  -32.1382   23.7341 O   0  0  0  0  0  0
  -28.0843  -19.1029   20.7846 C   0  0  0  0  0  0
  -30.4328  -19.4867   20.4955 C   0  0  0  0  0  0
  -28.3189  -17.7007   20.8122 C   0  0  0  0  0  0
  -30.6689  -18.0648   20.5003 C   0  0  0  0  0  0
  -29.1298  -20.0528   20.6588 C   0  0  0  0  0  0
  -29.6109  -17.1280   20.6915 C   0  0  0  0  0  0
  -28.8026  -21.5923   20.8911 C   0  0  0  0  0  0
  -28.2631  -23.8881   19.6650 C   0  0  0  0  0  0
  -28.4108  -25.1466   20.6335 C   0  0  0  0  0  0
  -29.7000  -15.6689   20.8443 N   0  0  0  0  0  0
  -29.1370  -22.6385   19.8529 N   0  3  0  0  0  0
  -31.4877  -12.5627   19.1392 H   0  0  0  0  0  0
  -30.4120  -11.4125   19.8842 H   0  0  0  0  0  0
  -29.7765  -11.7507   17.4829 H   0  0  0  0  0  0
  -29.6473  -13.4736   17.7317 H   0  0  0  0  0  0
  -27.8690  -11.2888   18.8602 H   0  0  0  0  0  0
  -27.3786  -12.5759   17.7921 H   0  0  0  0  0  0
  -27.6729  -14.2451   19.5254 H   0  0  0  0  0  0
  -28.7240  -12.0195   21.3463 H   0  0  0  0  0  0
  -28.4409  -13.6543   21.8597 H   0  0  0  0  0  0
  -25.2752   -9.5682   22.4767 H   0  0  0  0  0  0
  -24.0001   -7.4627   22.7468 H   0  0  0  0  0  0
  -21.0844   -8.8765   19.8941 H   0  0  0  0  0  0
  -22.3693  -10.9672   19.6174 H   0  0  0  0  0  0
  -21.1988   -7.6144   23.9720 H   0  0  0  0  0  0
  -21.1487   -6.0520   25.9083 H   0  0  0  0  0  0
  -22.0595   -2.7609   23.2846 H   0  0  0  0  0  0
  -22.4087  -11.9862   22.4797 H   0  0  0  0  0  0
  -21.1110  -13.1256   22.2627 H   0  0  0  0  0  0
  -24.6433  -15.8260   20.4683 H   0  0  0  0  0  0
  -26.2318  -15.5958   19.9446 H   0  0  0  0  0  0
  -26.7147  -32.5448   23.1060 H   0  0  0  0  0  0
  -25.0105  -33.9708   25.0434 H   0  0  0  0  0  0
  -22.7111  -31.2973   21.3937 H   0  0  0  0  0  0
  -23.3762  -35.9598   23.3312 H   0  0  0  0  0  0
  -24.3582  -36.8879   22.2059 H   0  0  0  0  0  0
  -23.7244  -37.6476   23.6661 H   0  0  0  0  0  0
  -26.0847  -31.5498   20.5975 H   0  0  0  0  0  0
  -26.8390  -30.8431   21.9958 H   0  0  0  0  0  0
  -28.1236  -29.0078   21.1621 H   0  0  0  0  0  0
  -26.0259  -25.8942   19.0471 H   0  0  0  0  0  0
  -23.9799  -27.2641   19.0491 H   0  0  0  0  0  0
  -23.7586  -30.5754   19.4020 H   0  0  0  0  0  0
  -22.7559  -29.2328   19.8589 H   0  0  0  0  0  0
  -25.1296  -36.1913   25.0833 H   0  0  0  0  0  0
  -20.9956  -28.3246   24.1425 H   0  0  0  0  0  0
  -20.5694  -26.2276   23.3606 H   0  0  0  0  0  0
  -21.6644  -26.7443   22.1200 H   0  0  0  0  0  0
  -19.6924  -25.6294   21.1238 H   0  0  0  0  0  0
  -19.6709  -27.3196   20.6758 H   0  0  0  0  0  0
  -17.4206  -26.6674   21.4016 H   0  0  0  0  0  0
  -18.0314  -26.0076   22.9015 H   0  0  0  0  0  0
  -19.7945  -30.7259   24.2247 H   0  0  0  0  0  0
  -17.5032  -31.6274   24.5145 H   0  0  0  0  0  0
  -15.5361  -30.2975   23.7689 H   0  0  0  0  0  0
  -15.8670  -28.0837   22.7043 H   0  0  0  0  0  0
  -24.5908  -30.7073   25.7769 H   0  0  0  0  0  0
  -24.8948  -32.2889   26.4860 H   0  0  0  0  0  0
  -25.8075  -30.8896   27.0200 H   0  0  0  0  0  0
  -26.2885  -29.6750   24.1184 H   0  0  0  0  0  0
  -27.4093  -29.7261   25.4602 H   0  0  0  0  0  0
  -27.8733  -30.4302   23.9292 H   0  0  0  0  0  0
  -27.2645  -33.3626   26.2018 H   0  0  0  0  0  0
  -28.3868  -32.6868   25.0305 H   0  0  0  0  0  0
  -28.0697  -31.8468   26.5403 H   0  0  0  0  0  0
  -28.2589  -38.0084   24.7501 H   0  0  0  0  0  0
  -28.1070  -36.2613   24.6319 H   0  0  0  0  0  0
  -27.2293  -37.1458   25.8876 H   0  0  0  0  0  0
  -20.9357  -29.8720   21.6881 H   0  0  0  0  0  0
  -26.0168  -38.2841   24.1418 H   0  0  0  0  0  0
  -27.0694  -19.4472   20.9290 H   0  0  0  0  0  0
  -31.2852  -20.1463   20.4074 H   0  0  0  0  0  0
  -27.4664  -17.0557   20.9654 H   0  0  0  0  0  0
  -31.6835  -17.7046   20.3999 H   0  0  0  0  0  0
  -29.2703  -21.8923   21.8299 H   0  0  0  0  0  0
  -27.7307  -21.6654   21.0755 H   0  0  0  0  0  0
  -28.5007  -24.2511   18.6650 H   0  0  0  0  0  0
  -27.2150  -23.5904   19.6133 H   0  0  0  0  0  0
  -29.3783  -25.0637   21.1280 H   0  0  0  0  0  0
  -27.6831  -25.0662   21.4427 H   0  0  0  0  0  0
  -28.8315  -15.2577   21.1476 H   0  0  0  0  0  0
  -29.0980  -22.1450   18.9757 H   0  0  0  0  0  0
  -30.1001  -22.9112   19.9729 H   0  0  0  0  0  0
  1 25  1  0  0  0
  1 30  2  0  0  0
  1 80  1  0  0  0
  2  3  1  0  0  0
  2 25  1  0  0  0
  2 82  1  0  0  0
  2 83  1  0  0  0
  3  4  1  0  0  0
  3 84  1  0  0  0
  3 85  1  0  0  0
  4  5  1  0  0  0
  4 86  1  0  0  0
  4 87  1  0  0  0
  5  6  1  0  0  0
  5 26  1  0  0  0
  5 88  1  0  0  0
  6 25  1  0  0  0
  6 89  1  0  0  0
  6 90  1  0  0  0
  7  8  2  0  0  0
  7 26  1  0  0  0
  7 29  1  0  0  0
  8  9  1  0  0  0
  8 22  1  0  0  0
  9 10  1  0  0  0
  9 27  2  0  0  0
 10 11  2  0  0  0
 10 15  1  0  0  0
 11 12  1  0  0  0
 11 91  1  0  0  0
 12 13  2  0  0  0
 12 92  1  0  0  0
 13 14  1  0  0  0
 13 31  1  0  0  0
 14 15  2  0  0  0
 14 93  1  0  0  0
 15 94  1  0  0  0
 16 17  2  0  0  0
 16 21  1  0  0  0
 16 31  1  0  0  0
 17 18  1  0  0  0
 17 95  1  0  0  0
 18 19  2  0  0  0
 18 96  1  0  0  0
 19 20  1  0  0  0
 19 24  1  0  0  0
 20 21  2  0  0  0
 20 97  1  0  0  0
 21 23  1  0  0  0
 22 28  1  0  0  0
 22 32  2  0  0  0
 26 27  1  0  0  0
 28 98  1  0  0  0
 28 99  1  0  0  0
 29100  1  0  0  0
 29101  1  0  0  0
 33 34  1  0  0  0
 33 66  1  0  0  0
 33 70  2  0  0  0
 34 36  1  0  0  0
 34 59  1  0  0  0
 34102  1  0  0  0
 35 44  2  0  0  0
 35 45  1  0  0  0
 35 68  1  0  0  0
 36 56  1  0  0  0
 36103  1  0  0  0
 37 39  1  0  0  0
 37 47  1  0  0  0
 37 66  1  0  0  0
 37104  1  0  0  0
 38 43  2  0  0  0
 38 46  1  0  0  0
 38 47  1  0  0  0
 39 64  1  0  0  0
 39 67  2  0  0  0
 40 52  1  0  0  0
 40 53  2  0  0  0
 40 58  1  0  0  0
 41105  1  0  0  0
 41106  1  0  0  0
 41107  1  0  0  0
 41 48  1  0  0  0
 42 43  1  0  0  0
 42 66  1  0  0  0
 42108  1  0  0  0
 42109  1  0  0  0
 43 44  1  0  0  0
 44110  1  0  0  0
 45 46  2  0  0  0
 45111  1  0  0  0
 46112  1  0  0  0
 47113  1  0  0  0
 47114  1  0  0  0
 48 56  1  0  0  0
 48 65  1  0  0  0
 48115  1  0  0  0
 49 50  1  0  0  0
 49 53  1  0  0  0
 49 64  1  0  0  0
 49116  1  0  0  0
 50 51  1  0  0  0
 50117  1  0  0  0
 50118  1  0  0  0
 51 52  1  0  0  0
 51119  1  0  0  0
 51120  1  0  0  0
 52121  1  0  0  0
 52122  1  0  0  0
 53 54  1  0  0  0
 54 55  2  0  0  0
 54123  1  0  0  0
 55 57  1  0  0  0
 55124  1  0  0  0
 56 69  2  0  0  0
 57 58  2  0  0  0
 57125  1  0  0  0
 58126  1  0  0  0
 59 60  1  0  0  0
 59 61  1  0  0  0
 59 62  1  0  0  0
 60127  1  0  0  0
 60128  1  0  0  0
 60129  1  0  0  0
 61130  1  0  0  0
 61131  1  0  0  0
 61132  1  0  0  0
 62133  1  0  0  0
 62134  1  0  0  0
 62135  1  0  0  0
 63 65  1  0  0  0
 63136  1  0  0  0
 63137  1  0  0  0
 63138  1  0  0  0
 64139  1  0  0  0
 65140  1  0  0  0
 68 79  1  0  0  0
 71 73  2  0  0  0
 71 75  1  0  0  0
 71141  1  0  0  0
 72 74  1  0  0  0
 72 75  2  0  0  0
 72142  1  0  0  0
 73 76  1  0  0  0
 73143  1  0  0  0
 74 76  2  0  0  0
 74144  1  0  0  0
 75 77  1  0  0  0
 76 80  1  0  0  0
 77 81  1  0  0  0
 77145  1  0  0  0
 77146  1  0  0  0
 78 79  1  0  0  0
 78 81  1  0  0  0
 78147  1  0  0  0
 78148  1  0  0  0
 79149  1  0  0  0
 79150  1  0  0  0
 80151  1  0  0  0
 81152  1  0  0  0
 81153  1  0  0  0
M  CHG  1  81   1
M  ISO  4   1 100  68 101  79 101  80 100
M  END
> <chiral flag>
0

> <version>
0

> <s_m_source_file>
/data/baiqing/PycharmProjects/Reinvent-master-3.2/result/LINK_invent/BTK/process_docking_weight1_custom_product_contain_oxygen_bond_distance_aromatic_linkinvent_7_9_3/rearranged_h_0041.sdf

> <i_m_source_file_index>
77

> <r_mmod_Potential_Energy-OPLS-2005>
-54.9934043884277

> <r_mmod_Stretch_Energy-OPLS-2005>
85.6707229614258

> <r_mmod_Bend_Energy-OPLS-2005>
175.563705444336

> <r_mmod_Torsional_Energy-OPLS-2005>
239.738403320312

> <r_mmod_Improper_Torsional_Energy-OPLS-2005>
5.90545845031738

> <r_mmod_Van_der_Waal_Energy-OPLS-2005>
131.060195922852

> <r_mmod_Electrostatic_Energy-OPLS-2005>
-278.882781982422

> <r_mmod_Solvation_Energy-OPLS-2005>
-465.260192871094

> <b_mmod_Minimization_Converged-OPLS-2005>
0

> <r_mmod_RMS_Derivative-OPLS-2005>
1.49292147159576

$$$$
77
                    3D
 Structure written by MMmdl.
163172  0  0  1  0            999 V2000
  -30.5969  -14.7495   20.4759 C   0  0  0  0  0  0
  -30.4323  -12.4493   19.4883 C   0  0  0  0  0  0
  -29.5197  -12.5171   18.2433 C   0  0  0  0  0  0
  -28.0415  -12.3414   18.6438 C   0  0  0  0  0  0
  -27.6434  -13.2333   19.8504 C   0  0  2  0  0  0
  -28.6806  -13.1579   20.9893 C   0  0  0  0  0  0
  -25.2527  -13.8200   20.5691 C   0  0  0  0  0  0
  -24.1806  -13.0442   20.9174 C   0  0  0  0  0  0
  -24.6388  -11.6918   20.8702 C   0  0  0  0  0  0
  -23.9057  -10.4297   21.0379 C   0  0  0  0  0  0
  -24.3616   -9.4219   21.9161 C   0  0  0  0  0  0
  -23.6299   -8.2252   22.0747 C   0  0  0  0  0  0
  -22.4279   -8.0279   21.3546 C   0  0  0  0  0  0
  -21.9904   -9.0243   20.4645 C   0  0  0  0  0  0
  -22.7222  -10.2129   20.3042 C   0  0  0  0  0  0
  -21.6865   -6.0731   22.5278 C   0  0  0  0  0  0
  -21.4020   -6.5636   23.8209 C   0  0  0  0  0  0
  -21.3664   -5.6792   24.9172 C   0  0  0  0  0  0
  -21.6042   -4.3053   24.7225 C   0  0  0  0  0  0
  -21.8820   -3.8142   23.4348 C   0  0  0  0  0  0
  -21.9198   -4.6958   22.3402 C   0  0  0  0  0  0
  -22.7831  -13.5223   21.1851 C   0  0  0  0  0  0
  -22.1666   -4.2142   21.0982 F   0  0  0  0  0  0
  -21.5629   -3.4539   25.7740 F   0  0  0  0  0  0
  -29.9908  -13.5103   20.4267 N   0  0  0  0  0  0
  -26.2944  -12.9402   20.3251 N   0  0  0  0  0  0
  -25.9317  -11.6537   20.5698 N   0  0  0  0  0  0
  -22.0495  -12.8210   22.0422 N   0  0  0  0  0  0
  -25.4253  -15.1924   20.4181 N   0  0  0  0  0  0
  -31.7618  -14.8370   20.0784 O   0  0  0  0  0  0
  -21.6651   -6.8872   21.4241 O   0  0  0  0  0  0
  -22.3501  -14.5525   20.6708 O   0  0  0  0  0  0
  -24.6315  -31.8546   23.1971 C   0  0  0  0  0  0
  -25.9143  -32.4745   23.8321 C   0  0  1  0  0  0
  -27.2192  -27.2500   20.1276 C   0  0  0  0  0  0
  -25.5931  -33.8550   24.2240 N   0  0  0  0  0  0
  -23.4277  -30.4768   21.5415 C   0  0  2  0  0  0
  -24.8733  -28.9219   20.1069 C   0  0  0  0  0  0
  -22.7503  -29.4599   22.4917 C   0  0  0  0  0  0
  -18.0295  -28.1392   22.8487 C   0  0  0  0  0  0
  -24.1491  -36.7277   23.2639 C   0  0  0  0  0  0
  -25.9747  -30.7612   21.3816 C   0  0  0  0  0  0
  -26.0433  -29.3849   20.7187 C   0  0  0  0  0  0
  -27.2138  -28.5606   20.7190 C   0  0  0  0  0  0
  -26.0205  -26.8511   19.4934 C   0  0  0  0  0  0
  -24.8682  -27.6638   19.4844 C   0  0  0  0  0  0
  -23.6445  -29.8115   20.1564 C   0  0  0  0  0  0
  -25.4118  -36.3060   24.0320 C   0  0  1  0  0  0
  -20.5899  -28.3698   23.1275 C   0  0  2  0  0  0
  -20.6784  -26.9415   22.5414 C   0  0  0  0  0  0
  -19.5754  -26.6385   21.5221 C   0  0  0  0  0  0
  -18.1934  -26.7936   22.1629 C   0  0  0  0  0  0
  -19.1547  -28.8862   23.2875 C   0  0  0  0  0  0
  -18.9468  -30.1467   23.8887 C   0  0  0  0  0  0
  -17.6465  -30.6590   24.0565 C   0  0  0  0  0  0
  -25.9061  -34.9433   23.5086 C   0  0  0  0  0  0
  -16.5356  -29.9083   23.6339 C   0  0  0  0  0  0
  -16.7281  -28.6505   23.0354 C   0  0  0  0  0  0
  -26.4493  -31.6584   25.0729 C   0  0  0  0  0  0
  -25.3695  -31.3778   26.1442 C   0  0  0  0  0  0
  -27.0342  -30.2981   24.6270 C   0  0  0  0  0  0
  -27.6033  -32.4339   25.7509 C   0  0  0  0  0  0
  -27.5583  -37.1793   24.8459 C   0  0  0  0  0  0
  -21.4212  -29.3035   22.3657 N   0  0  0  0  0  0
  -26.4291  -37.3761   23.9406 N   0  0  0  0  0  0
  -24.6967  -31.0501   22.0953 N   0  0  0  0  0  0
  -23.4204  -28.8160   23.3031 O   0  0  0  0  0  0
  -28.3378  -26.3866   20.2322 O   0  0  0  0  0  0
  -26.5643  -34.8913   22.4661 O   0  0  0  0  0  0
  -23.5465  -32.1382   23.7259 O   0  0  0  0  0  0
  -27.8442  -19.6357   22.3123 C   0  0  0  0  0  0
  -28.4721  -18.4615   21.8553 C   0  0  0  0  0  0
  -28.1201  -20.8942   21.7417 C   0  0  0  0  0  0
  -29.3952  -18.4779   20.7886 C   0  0  0  0  0  0
  -29.6230  -19.7934   20.1709 C   0  0  0  0  0  0
  -29.0200  -21.0492   20.6629 C   0  0  0  0  0  0
  -30.0721  -17.1054   20.4299 C   0  0  0  0  0  0
  -31.0241  -25.1649   19.5191 C   0  0  0  0  0  0
  -31.2711  -24.0148   20.5148 C   0  0  0  0  0  0
  -29.6911  -25.0821   18.7557 C   0  0  0  0  0  0
  -30.7503  -22.6409   20.0440 C   0  0  0  0  0  0
  -28.4557  -23.6462   20.5798 C   0  0  0  0  0  0
  -28.4483  -24.9970   19.6528 C   0  0  1  0  0  0
  -30.4984  -19.8312   18.9220 C   0  0  0  0  0  0
  -29.7872  -15.8824   20.8504 N   0  0  0  0  0  0
  -29.2986  -22.4168   20.1989 N   0  0  0  0  0  0
  -31.4780  -12.5561   19.1954 H   0  0  0  0  0  0
  -30.3580  -11.4690   19.9628 H   0  0  0  0  0  0
  -29.8047  -11.7502   17.5215 H   0  0  0  0  0  0
  -29.6563  -13.4758   17.7413 H   0  0  0  0  0  0
  -27.8910  -11.2913   18.8940 H   0  0  0  0  0  0
  -27.3922  -12.5451   17.7915 H   0  0  0  0  0  0
  -27.6437  -14.2585   19.4800 H   0  0  0  0  0  0
  -28.7080  -12.1585   21.4263 H   0  0  0  0  0  0
  -28.4055  -13.8352   21.7991 H   0  0  0  0  0  0
  -25.2767   -9.5702   22.4722 H   0  0  0  0  0  0
  -24.0016   -7.4647   22.7467 H   0  0  0  0  0  0
  -21.0835   -8.8744   19.8953 H   0  0  0  0  0  0
  -22.3663  -10.9656   19.6147 H   0  0  0  0  0  0
  -21.2013   -7.6145   23.9709 H   0  0  0  0  0  0
  -21.1488   -6.0525   25.9075 H   0  0  0  0  0  0
  -22.0597   -2.7604   23.2853 H   0  0  0  0  0  0
  -22.4158  -11.9888   22.4801 H   0  0  0  0  0  0
  -21.1106  -13.1208   22.2634 H   0  0  0  0  0  0
  -24.6705  -15.8560   20.5502 H   0  0  0  0  0  0
  -26.3017  -15.6305   20.1611 H   0  0  0  0  0  0
  -26.7215  -32.5380   23.1065 H   0  0  0  0  0  0
  -25.0054  -33.9693   25.0369 H   0  0  0  0  0  0
  -22.7237  -31.2992   21.3975 H   0  0  0  0  0  0
  -23.3757  -35.9606   23.3290 H   0  0  0  0  0  0
  -24.3579  -36.8917   22.2057 H   0  0  0  0  0  0
  -23.7245  -37.6471   23.6679 H   0  0  0  0  0  0
  -26.1262  -31.5252   20.6183 H   0  0  0  0  0  0
  -26.8466  -30.7987   22.0230 H   0  0  0  0  0  0
  -28.1084  -28.9094   21.2158 H   0  0  0  0  0  0
  -25.9190  -25.8866   19.0242 H   0  0  0  0  0  0
  -23.9701  -27.2988   19.0063 H   0  0  0  0  0  0
  -23.7689  -30.5897   19.4022 H   0  0  0  0  0  0
  -22.7606  -29.2483   19.8522 H   0  0  0  0  0  0
  -25.1309  -36.1896   25.0813 H   0  0  0  0  0  0
  -20.9995  -28.3277   24.1393 H   0  0  0  0  0  0
  -20.5695  -26.2306   23.3619 H   0  0  0  0  0  0
  -21.6651  -26.7445   22.1198 H   0  0  0  0  0  0
  -19.6913  -25.6293   21.1254 H   0  0  0  0  0  0
  -19.6695  -27.3195   20.6751 H   0  0  0  0  0  0
  -17.4210  -26.6694   21.4025 H   0  0  0  0  0  0
  -18.0320  -26.0081   22.9024 H   0  0  0  0  0  0
  -19.7940  -30.7293   24.2246 H   0  0  0  0  0  0
  -17.5015  -31.6269   24.5168 H   0  0  0  0  0  0
  -15.5355  -30.2979   23.7673 H   0  0  0  0  0  0
  -15.8684  -28.0827   22.7065 H   0  0  0  0  0  0
  -24.5844  -30.7159   25.7773 H   0  0  0  0  0  0
  -24.8920  -32.2971   26.4840 H   0  0  0  0  0  0
  -25.7976  -30.8959   27.0242 H   0  0  0  0  0  0
  -26.2951  -29.6732   24.1242 H   0  0  0  0  0  0
  -27.3930  -29.7250   25.4834 H   0  0  0  0  0  0
  -27.8872  -30.4229   23.9594 H   0  0  0  0  0  0
  -27.2613  -33.3626   26.2096 H   0  0  0  0  0  0
  -28.3833  -32.6932   25.0335 H   0  0  0  0  0  0
  -28.0719  -31.8471   26.5422 H   0  0  0  0  0  0
  -28.2592  -38.0098   24.7504 H   0  0  0  0  0  0
  -28.1089  -36.2627   24.6279 H   0  0  0  0  0  0
  -27.2307  -37.1437   25.8865 H   0  0  0  0  0  0
  -20.9399  -29.8736   21.6845 H   0  0  0  0  0  0
  -26.0166  -38.2835   24.1397 H   0  0  0  0  0  0
  -27.1502  -19.5726   23.1389 H   0  0  0  0  0  0
  -28.2395  -17.5279   22.3489 H   0  0  0  0  0  0
  -27.6320  -21.7496   22.1835 H   0  0  0  0  0  0
  -30.9155  -17.2224   19.7439 H   0  0  0  0  0  0
  -31.8325  -25.1755   18.7868 H   0  0  0  0  0  0
  -31.0929  -26.1176   20.0458 H   0  0  0  0  0  0
  -30.8848  -24.2616   21.5042 H   0  0  0  0  0  0
  -32.3501  -23.9387   20.6596 H   0  0  0  0  0  0
  -29.7051  -24.2248   18.0814 H   0  0  0  0  0  0
  -29.5990  -25.9496   18.1016 H   0  0  0  0  0  0
  -31.2960  -21.8901   20.6193 H   0  0  0  0  0  0
  -31.0373  -22.4975   19.0026 H   0  0  0  0  0  0
  -27.4165  -23.3276   20.6670 H   0  0  0  0  0  0
  -28.7343  -23.9317   21.5944 H   0  0  0  0  0  0
  -27.6459  -24.8348   18.9401 H   0  0  0  0  0  0
  -30.4216  -18.9138   18.3398 H   0  0  0  0  0  0
  -31.5455  -19.9838   19.1831 H   0  0  0  0  0  0
  -30.1829  -20.6264   18.2481 H   0  0  0  0  0  0
  1 25  1  0  0  0
  1 30  2  0  0  0
  1 85  1  0  0  0
  2  3  1  0  0  0
  2 25  1  0  0  0
  2 87  1  0  0  0
  2 88  1  0  0  0
  3  4  1  0  0  0
  3 89  1  0  0  0
  3 90  1  0  0  0
  4  5  1  0  0  0
  4 91  1  0  0  0
  4 92  1  0  0  0
  5  6  1  0  0  0
  5 26  1  0  0  0
  5 93  1  0  0  0
  6 25  1  0  0  0
  6 94  1  0  0  0
  6 95  1  0  0  0
  7  8  2  0  0  0
  7 26  1  0  0  0
  7 29  1  0  0  0
  8  9  1  0  0  0
  8 22  1  0  0  0
  9 10  1  0  0  0
  9 27  2  0  0  0
 10 11  2  0  0  0
 10 15  1  0  0  0
 11 12  1  0  0  0
 11 96  1  0  0  0
 12 13  2  0  0  0
 12 97  1  0  0  0
 13 14  1  0  0  0
 13 31  1  0  0  0
 14 15  2  0  0  0
 14 98  1  0  0  0
 15 99  1  0  0  0
 16 17  2  0  0  0
 16 21  1  0  0  0
 16 31  1  0  0  0
 17 18  1  0  0  0
 17100  1  0  0  0
 18 19  2  0  0  0
 18101  1  0  0  0
 19 20  1  0  0  0
 19 24  1  0  0  0
 20 21  2  0  0  0
 20102  1  0  0  0
 21 23  1  0  0  0
 22 28  1  0  0  0
 22 32  2  0  0  0
 26 27  1  0  0  0
 28103  1  0  0  0
 28104  1  0  0  0
 29105  1  0  0  0
 29106  1  0  0  0
 33 34  1  0  0  0
 33 66  1  0  0  0
 33 70  2  0  0  0
 34 36  1  0  0  0
 34 59  1  0  0  0
 34107  1  0  0  0
 35 44  2  0  0  0
 35 45  1  0  0  0
 35 68  1  0  0  0
 36 56  1  0  0  0
 36108  1  0  0  0
 37 39  1  0  0  0
 37 47  1  0  0  0
 37 66  1  0  0  0
 37109  1  0  0  0
 38 43  2  0  0  0
 38 46  1  0  0  0
 38 47  1  0  0  0
 39 64  1  0  0  0
 39 67  2  0  0  0
 40 52  1  0  0  0
 40 53  2  0  0  0
 40 58  1  0  0  0
 41110  1  0  0  0
 41111  1  0  0  0
 41112  1  0  0  0
 41 48  1  0  0  0
 42 43  1  0  0  0
 42 66  1  0  0  0
 42113  1  0  0  0
 42114  1  0  0  0
 43 44  1  0  0  0
 44115  1  0  0  0
 45 46  2  0  0  0
 45116  1  0  0  0
 46117  1  0  0  0
 47118  1  0  0  0
 47119  1  0  0  0
 48 56  1  0  0  0
 48 65  1  0  0  0
 48120  1  0  0  0
 49 50  1  0  0  0
 49 53  1  0  0  0
 49 64  1  0  0  0
 49121  1  0  0  0
 50 51  1  0  0  0
 50122  1  0  0  0
 50123  1  0  0  0
 51 52  1  0  0  0
 51124  1  0  0  0
 51125  1  0  0  0
 52126  1  0  0  0
 52127  1  0  0  0
 53 54  1  0  0  0
 54 55  2  0  0  0
 54128  1  0  0  0
 55 57  1  0  0  0
 55129  1  0  0  0
 56 69  2  0  0  0
 57 58  2  0  0  0
 57130  1  0  0  0
 58131  1  0  0  0
 59 60  1  0  0  0
 59 61  1  0  0  0
 59 62  1  0  0  0
 60132  1  0  0  0
 60133  1  0  0  0
 60134  1  0  0  0
 61135  1  0  0  0
 61136  1  0  0  0
 61137  1  0  0  0
 62138  1  0  0  0
 62139  1  0  0  0
 62140  1  0  0  0
 63 65  1  0  0  0
 63141  1  0  0  0
 63142  1  0  0  0
 63143  1  0  0  0
 64144  1  0  0  0
 65145  1  0  0  0
 68 83  1  0  0  0
 71 72  2  0  0  0
 71 73  1  0  0  0
 71146  1  0  0  0
 72 74  1  0  0  0
 72147  1  0  0  0
 73 76  2  0  0  0
 73148  1  0  0  0
 74 75  2  0  0  0
 74 77  1  0  0  0
 75 76  1  0  0  0
 75 84  1  0  0  0
 76 86  1  0  0  0
 77 85  2  0  0  0
 77149  1  0  0  0
 78 79  1  0  0  0
 78 80  1  0  0  0
 78150  1  0  0  0
 78151  1  0  0  0
 79 81  1  0  0  0
 79152  1  0  0  0
 79153  1  0  0  0
 80 83  1  0  0  0
 80154  1  0  0  0
 80155  1  0  0  0
 81 86  1  0  0  0
 81156  1  0  0  0
 81157  1  0  0  0
 82 83  1  0  0  0
 82 86  1  0  0  0
 82158  1  0  0  0
 82159  1  0  0  0
 83160  1  0  0  0
 84161  1  0  0  0
 84162  1  0  0  0
 84163  1  0  0  0
M  ISO  4   1 100  68 101  83 101  85 100
M  END
> <chiral flag>
0

> <version>
0

> <s_m_source_file>
/data/baiqing/PycharmProjects/Reinvent-master-3.2/result/LINK_invent/BTK/process_docking_weight1_custom_product_contain_oxygen_bond_distance_aromatic_linkinvent_7_9_3/rearranged_h_0041.sdf

> <i_m_source_file_index>
78

> <r_mmod_Potential_Energy-OPLS-2005>
264.636474609375

> <r_mmod_Stretch_Energy-OPLS-2005>
153.119354248047

> <r_mmod_Bend_Energy-OPLS-2005>
193.084075927734

> <r_mmod_Torsional_Energy-OPLS-2005>
216.385818481445

> <r_mmod_Improper_Torsional_Energy-OPLS-2005>
5.91765403747559

> <r_mmod_Van_der_Waal_Energy-OPLS-2005>
167.132369995117

> <r_mmod_Electrostatic_Energy-OPLS-2005>
-367.403717041016

> <r_mmod_Solvation_Energy-OPLS-2005>
-189.469650268555

> <b_mmod_Minimization_Converged-OPLS-2005>
0

> <r_mmod_RMS_Derivative-OPLS-2005>
1.23139405250549

$$$$
78
                    3D
 Structure written by MMmdl.
173182  0  0  1  0            999 V2000
  -30.5979  -14.6427   20.4944 C   0  0  0  0  0  0
  -30.4476  -12.3917   19.4455 C   0  0  0  0  0  0
  -29.5149  -12.5088   18.2192 C   0  0  0  0  0  0
  -28.0333  -12.3557   18.6260 C   0  0  0  0  0  0
  -27.6556  -13.2135   19.8635 C   0  0  2  0  0  0
  -28.7020  -13.0490   20.9897 C   0  0  0  0  0  0
  -25.2571  -13.8160   20.5661 C   0  0  0  0  0  0
  -24.1840  -13.0422   20.9163 C   0  0  0  0  0  0
  -24.6408  -11.6891   20.8720 C   0  0  0  0  0  0
  -23.9070  -10.4280   21.0396 C   0  0  0  0  0  0
  -24.3623   -9.4206   21.9181 C   0  0  0  0  0  0
  -23.6287   -8.2247   22.0759 C   0  0  0  0  0  0
  -22.4266   -8.0282   21.3549 C   0  0  0  0  0  0
  -21.9901   -9.0254   20.4650 C   0  0  0  0  0  0
  -22.7235  -10.2127   20.3053 C   0  0  0  0  0  0
  -21.6857   -6.0728   22.5277 C   0  0  0  0  0  0
  -21.4021   -6.5631   23.8215 C   0  0  0  0  0  0
  -21.3661   -5.6784   24.9177 C   0  0  0  0  0  0
  -21.6044   -4.3044   24.7226 C   0  0  0  0  0  0
  -21.8822   -3.8139   23.4348 C   0  0  0  0  0  0
  -21.9197   -4.6958   22.3398 C   0  0  0  0  0  0
  -22.7862  -13.5221   21.1811 C   0  0  0  0  0  0
  -22.1662   -4.2152   21.0974 F   0  0  0  0  0  0
  -21.5635   -3.4519   25.7735 F   0  0  0  0  0  0
  -30.0155  -13.4046   20.4276 N   0  0  0  0  0  0
  -26.3005  -12.9334   20.3308 N   0  0  0  0  0  0
  -25.9337  -11.6488   20.5746 N   0  0  0  0  0  0
  -22.0494  -12.8240   22.0379 N   0  0  0  0  0  0
  -25.4241  -15.1890   20.4061 N   0  0  0  0  0  0
  -31.7608  -14.8318   20.1204 O   0  0  0  0  0  0
  -21.6637   -6.8872   21.4239 O   0  0  0  0  0  0
  -22.3536  -14.5512   20.6626 O   0  0  0  0  0  0
  -24.6236  -31.8604   23.2034 C   0  0  0  0  0  0
  -25.9090  -32.4784   23.8351 C   0  0  1  0  0  0
  -27.2268  -27.3308   20.1089 C   0  0  0  0  0  0
  -25.5913  -33.8585   24.2278 N   0  0  0  0  0  0
  -23.4164  -30.4844   21.5442 C   0  0  2  0  0  0
  -24.8632  -28.9415   20.1096 C   0  0  0  0  0  0
  -22.7456  -29.4624   22.4930 C   0  0  0  0  0  0
  -18.0282  -28.1377   22.8486 C   0  0  0  0  0  0
  -24.1495  -36.7297   23.2639 C   0  0  0  0  0  0
  -25.9560  -30.7943   21.3742 C   0  0  0  0  0  0
  -26.0281  -29.4220   20.7168 C   0  0  0  0  0  0
  -27.2070  -28.6245   20.7139 C   0  0  0  0  0  0
  -26.0380  -26.9004   19.4743 C   0  0  0  0  0  0
  -24.8690  -27.6852   19.4838 C   0  0  0  0  0  0
  -23.6313  -29.8208   20.1584 C   0  0  0  0  0  0
  -25.4121  -36.3090   24.0331 C   0  0  1  0  0  0
  -20.5881  -28.3685   23.1289 C   0  0  2  0  0  0
  -20.6773  -26.9407   22.5416 C   0  0  0  0  0  0
  -19.5751  -26.6378   21.5214 C   0  0  0  0  0  0
  -18.1929  -26.7919   22.1619 C   0  0  0  0  0  0
  -19.1534  -28.8846   23.2884 C   0  0  0  0  0  0
  -18.9456  -30.1444   23.8911 C   0  0  0  0  0  0
  -17.6459  -30.6584   24.0563 C   0  0  0  0  0  0
  -25.9052  -34.9459   23.5101 C   0  0  0  0  0  0
  -16.5350  -29.9090   23.6323 C   0  0  0  0  0  0
  -16.7269  -28.6503   23.0350 C   0  0  0  0  0  0
  -26.4482  -31.6597   25.0719 C   0  0  0  0  0  0
  -25.3716  -31.3726   26.1445 C   0  0  0  0  0  0
  -27.0329  -30.3029   24.6167 C   0  0  0  0  0  0
  -27.6045  -32.4327   25.7489 C   0  0  0  0  0  0
  -27.5586  -37.1805   24.8463 C   0  0  0  0  0  0
  -21.4175  -29.3044   22.3688 N   0  0  0  0  0  0
  -26.4301  -37.3786   23.9403 N   0  0  0  0  0  0
  -24.6834  -31.0631   22.0977 N   0  0  0  0  0  0
  -23.4194  -28.8161   23.2999 O   0  0  0  0  0  0
  -28.3736  -26.5300   20.2006 O   0  0  0  0  0  0
  -26.5623  -34.8923   22.4672 O   0  0  0  0  0  0
  -23.5402  -32.1393   23.7376 O   0  0  0  0  0  0
  -29.9091  -19.3461   21.7436 C   0  0  0  0  0  0
  -29.2543  -20.0048   20.6700 C   0  0  0  0  0  0
  -30.1546  -17.9434   21.7624 C   0  0  0  0  0  0
  -28.9403  -19.1858   19.5401 C   0  0  0  0  0  0
  -29.2118  -17.7682   19.5405 C   0  0  0  0  0  0
  -29.7909  -17.1120   20.6709 C   0  0  0  0  0  0
  -29.0751  -24.1066   20.6420 C   0  0  0  0  0  0
  -29.4404  -24.3972   21.9049 C   0  0  0  0  0  0
  -30.0516  -24.1938   17.7231 C   0  0  0  0  0  0
  -31.1420  -23.5658   18.6141 C   0  0  0  0  0  0
  -29.3629  -25.4028   18.3865 C   0  0  0  0  0  0
  -30.6417  -22.4432   19.5433 C   0  0  0  0  0  0
  -28.4886  -25.1645   19.6427 C   0  0  2  0  0  0
  -30.7440  -17.3266   23.0171 C   0  0  0  0  0  0
  -28.2643  -19.8031   18.3190 C   0  0  0  0  0  0
  -28.8278  -16.9447   18.3131 C   0  0  0  0  0  0
  -28.7625  -21.4995   20.8869 C   0  0  0  0  0  0
  -29.7460  -15.6587   20.8357 N   0  0  0  0  0  0
  -29.2739  -22.6770   20.0675 N   0  3  1  0  0  0
  -31.4871  -12.5326   19.1424 H   0  0  0  0  0  0
  -30.3954  -11.3901   19.8756 H   0  0  0  0  0  0
  -29.7747  -11.7556   17.4731 H   0  0  0  0  0  0
  -29.6666  -13.4757   17.7379 H   0  0  0  0  0  0
  -27.8572  -11.3010   18.8394 H   0  0  0  0  0  0
  -27.3904  -12.6077   17.7816 H   0  0  0  0  0  0
  -27.6719  -14.2524   19.5336 H   0  0  0  0  0  0
  -28.7176  -12.0184   21.3466 H   0  0  0  0  0  0
  -28.4487  -13.6580   21.8592 H   0  0  0  0  0  0
  -25.2777   -9.5691   22.4747 H   0  0  0  0  0  0
  -24.0001   -7.4647   22.7481 H   0  0  0  0  0  0
  -21.0836   -8.8763   19.8959 H   0  0  0  0  0  0
  -22.3691  -10.9658   19.6158 H   0  0  0  0  0  0
  -21.2013   -7.6142   23.9716 H   0  0  0  0  0  0
  -21.1479   -6.0518   25.9082 H   0  0  0  0  0  0
  -22.0603   -2.7599   23.2846 H   0  0  0  0  0  0
  -22.4085  -11.9905   22.4800 H   0  0  0  0  0  0
  -21.1110  -13.1288   22.2557 H   0  0  0  0  0  0
  -24.6474  -15.8336   20.5082 H   0  0  0  0  0  0
  -26.2668  -15.6359   20.0696 H   0  0  0  0  0  0
  -26.7157  -32.5456   23.1098 H   0  0  0  0  0  0
  -25.0054  -33.9739   25.0418 H   0  0  0  0  0  0
  -22.7091  -31.3044   21.4015 H   0  0  0  0  0  0
  -23.3761  -35.9623   23.3296 H   0  0  0  0  0  0
  -24.3590  -36.8921   22.2053 H   0  0  0  0  0  0
  -23.7246  -37.6497   23.6666 H   0  0  0  0  0  0
  -26.0868  -31.5595   20.6080 H   0  0  0  0  0  0
  -26.8358  -30.8413   22.0041 H   0  0  0  0  0  0
  -28.0999  -28.9877   21.2034 H   0  0  0  0  0  0
  -25.9610  -25.9513   18.9708 H   0  0  0  0  0  0
  -23.9739  -27.3128   19.0047 H   0  0  0  0  0  0
  -23.7548  -30.5976   19.4025 H   0  0  0  0  0  0
  -22.7513  -29.2514   19.8538 H   0  0  0  0  0  0
  -25.1307  -36.1937   25.0827 H   0  0  0  0  0  0
  -20.9970  -28.3253   24.1409 H   0  0  0  0  0  0
  -20.5663  -26.2293   23.3612 H   0  0  0  0  0  0
  -21.6641  -26.7434   22.1216 H   0  0  0  0  0  0
  -19.6912  -25.6286   21.1247 H   0  0  0  0  0  0
  -19.6692  -27.3187   20.6740 H   0  0  0  0  0  0
  -17.4197  -26.6667   21.4020 H   0  0  0  0  0  0
  -18.0327  -26.0061   22.9016 H   0  0  0  0  0  0
  -19.7936  -30.7248   24.2295 H   0  0  0  0  0  0
  -17.5020  -31.6269   24.5153 H   0  0  0  0  0  0
  -15.5354  -30.2997   23.7642 H   0  0  0  0  0  0
  -15.8666  -28.0829   22.7061 H   0  0  0  0  0  0
  -24.5885  -30.7090   25.7759 H   0  0  0  0  0  0
  -24.8916  -32.2892   26.4884 H   0  0  0  0  0  0
  -25.8036  -30.8879   27.0210 H   0  0  0  0  0  0
  -26.2902  -29.6775   24.1198 H   0  0  0  0  0  0
  -27.4041  -29.7289   25.4667 H   0  0  0  0  0  0
  -27.8766  -30.4325   23.9384 H   0  0  0  0  0  0
  -27.2659  -33.3620   26.2083 H   0  0  0  0  0  0
  -28.3848  -32.6894   25.0312 H   0  0  0  0  0  0
  -28.0724  -31.8437   26.5388 H   0  0  0  0  0  0
  -28.2597  -38.0108   24.7523 H   0  0  0  0  0  0
  -28.1086  -36.2638   24.6276 H   0  0  0  0  0  0
  -27.2301  -37.1445   25.8865 H   0  0  0  0  0  0
  -20.9332  -29.8791   21.6933 H   0  0  0  0  0  0
  -26.0176  -38.2859   24.1402 H   0  0  0  0  0  0
  -30.1555  -19.9187   22.6277 H   0  0  0  0  0  0
  -29.3184  -25.3970   22.2947 H   0  0  0  0  0  0
  -29.8726  -23.6659   22.5714 H   0  0  0  0  0  0
  -29.3301  -23.4530   17.3772 H   0  0  0  0  0  0
  -30.5338  -24.5621   16.8169 H   0  0  0  0  0  0
  -31.6338  -24.3419   19.2026 H   0  0  0  0  0  0
  -31.9298  -23.1512   17.9821 H   0  0  0  0  0  0
  -28.7469  -25.9076   17.6410 H   0  0  0  0  0  0
  -30.1443  -26.1222   18.6381 H   0  0  0  0  0  0
  -31.3347  -22.3142   20.3762 H   0  0  0  0  0  0
  -30.6558  -21.5094   18.9822 H   0  0  0  0  0  0
  -27.5349  -24.7425   19.3417 H   0  0  0  0  0  0
  -31.0670  -18.0886   23.7265 H   0  0  0  0  0  0
  -31.6079  -16.7099   22.7668 H   0  0  0  0  0  0
  -30.0023  -16.6997   23.5107 H   0  0  0  0  0  0
  -28.9311  -19.7561   17.4576 H   0  0  0  0  0  0
  -27.9837  -20.8437   18.4521 H   0  0  0  0  0  0
  -27.3478  -19.2682   18.0689 H   0  0  0  0  0  0
  -29.3103  -17.3545   17.4264 H   0  0  0  0  0  0
  -27.7496  -16.9573   18.1548 H   0  0  0  0  0  0
  -29.1363  -15.9031   18.3730 H   0  0  0  0  0  0
  -28.9538  -21.7259   21.9352 H   0  0  0  0  0  0
  -27.6748  -21.5023   20.8130 H   0  0  0  0  0  0
  -28.8399  -15.3106   21.1071 H   0  0  0  0  0  0
  -28.7008  -22.6296   19.2387 H   0  0  0  0  0  0
  1 25  1  0  0  0
  1 30  2  0  0  0
  1 88  1  0  0  0
  2  3  1  0  0  0
  2 25  1  0  0  0
  2 90  1  0  0  0
  2 91  1  0  0  0
  3  4  1  0  0  0
  3 92  1  0  0  0
  3 93  1  0  0  0
  4  5  1  0  0  0
  4 94  1  0  0  0
  4 95  1  0  0  0
  5  6  1  0  0  0
  5 26  1  0  0  0
  5 96  1  0  0  0
  6 25  1  0  0  0
  6 97  1  0  0  0
  6 98  1  0  0  0
  7  8  2  0  0  0
  7 26  1  0  0  0
  7 29  1  0  0  0
  8  9  1  0  0  0
  8 22  1  0  0  0
  9 10  1  0  0  0
  9 27  2  0  0  0
 10 11  2  0  0  0
 10 15  1  0  0  0
 11 12  1  0  0  0
 11 99  1  0  0  0
 12 13  2  0  0  0
 12100  1  0  0  0
 13 14  1  0  0  0
 13 31  1  0  0  0
 14 15  2  0  0  0
 14101  1  0  0  0
 15102  1  0  0  0
 16 17  2  0  0  0
 16 21  1  0  0  0
 16 31  1  0  0  0
 17 18  1  0  0  0
 17103  1  0  0  0
 18 19  2  0  0  0
 18104  1  0  0  0
 19 20  1  0  0  0
 19 24  1  0  0  0
 20 21  2  0  0  0
 20105  1  0  0  0
 21 23  1  0  0  0
 22 28  1  0  0  0
 22 32  2  0  0  0
 26 27  1  0  0  0
 28106  1  0  0  0
 28107  1  0  0  0
 29108  1  0  0  0
 29109  1  0  0  0
 33 34  1  0  0  0
 33 66  1  0  0  0
 33 70  2  0  0  0
 34 36  1  0  0  0
 34 59  1  0  0  0
 34110  1  0  0  0
 35 44  2  0  0  0
 35 45  1  0  0  0
 35 68  1  0  0  0
 36 56  1  0  0  0
 36111  1  0  0  0
 37 39  1  0  0  0
 37 47  1  0  0  0
 37 66  1  0  0  0
 37112  1  0  0  0
 38 43  2  0  0  0
 38 46  1  0  0  0
 38 47  1  0  0  0
 39 64  1  0  0  0
 39 67  2  0  0  0
 40 52  1  0  0  0
 40 53  2  0  0  0
 40 58  1  0  0  0
 41113  1  0  0  0
 41114  1  0  0  0
 41115  1  0  0  0
 41 48  1  0  0  0
 42 43  1  0  0  0
 42 66  1  0  0  0
 42116  1  0  0  0
 42117  1  0  0  0
 43 44  1  0  0  0
 44118  1  0  0  0
 45 46  2  0  0  0
 45119  1  0  0  0
 46120  1  0  0  0
 47121  1  0  0  0
 47122  1  0  0  0
 48 56  1  0  0  0
 48 65  1  0  0  0
 48123  1  0  0  0
 49 50  1  0  0  0
 49 53  1  0  0  0
 49 64  1  0  0  0
 49124  1  0  0  0
 50 51  1  0  0  0
 50125  1  0  0  0
 50126  1  0  0  0
 51 52  1  0  0  0
 51127  1  0  0  0
 51128  1  0  0  0
 52129  1  0  0  0
 52130  1  0  0  0
 53 54  1  0  0  0
 54 55  2  0  0  0
 54131  1  0  0  0
 55 57  1  0  0  0
 55132  1  0  0  0
 56 69  2  0  0  0
 57 58  2  0  0  0
 57133  1  0  0  0
 58134  1  0  0  0
 59 60  1  0  0  0
 59 61  1  0  0  0
 59 62  1  0  0  0
 60135  1  0  0  0
 60136  1  0  0  0
 60137  1  0  0  0
 61138  1  0  0  0
 61139  1  0  0  0
 61140  1  0  0  0
 62141  1  0  0  0
 62142  1  0  0  0
 62143  1  0  0  0
 63 65  1  0  0  0
 63144  1  0  0  0
 63145  1  0  0  0
 63146  1  0  0  0
 64147  1  0  0  0
 65148  1  0  0  0
 68 83  1  0  0  0
 71 72  2  0  0  0
 71 73  1  0  0  0
 71149  1  0  0  0
 72 74  1  0  0  0
 72 87  1  0  0  0
 73 76  2  0  0  0
 73 84  1  0  0  0
 74 75  2  0  0  0
 74 85  1  0  0  0
 75 76  1  0  0  0
 75 86  1  0  0  0
 76 88  1  0  0  0
 77 78  2  0  0  0
 77 83  1  0  0  0
 77 89  1  0  0  0
 78150  1  0  0  0
 78151  1  0  0  0
 79 80  1  0  0  0
 79 81  1  0  0  0
 79152  1  0  0  0
 79153  1  0  0  0
 80 82  1  0  0  0
 80154  1  0  0  0
 80155  1  0  0  0
 81 83  1  0  0  0
 81156  1  0  0  0
 81157  1  0  0  0
 82 89  1  0  0  0
 82158  1  0  0  0
 82159  1  0  0  0
 83160  1  0  0  0
 84161  1  0  0  0
 84162  1  0  0  0
 84163  1  0  0  0
 85164  1  0  0  0
 85165  1  0  0  0
 85166  1  0  0  0
 86167  1  0  0  0
 86168  1  0  0  0
 86169  1  0  0  0
 87170  1  0  0  0
 87171  1  0  0  0
 87 89  1  0  0  0
 88172  1  0  0  0
 89173  1  0  0  0
M  CHG  1  89   1
M  ISO  4   1 100  68 101  83 101  88 100
M  END
> <chiral flag>
0

> <version>
0

> <s_m_source_file>
/data/baiqing/PycharmProjects/Reinvent-master-3.2/result/LINK_invent/BTK/process_docking_weight1_custom_product_contain_oxygen_bond_distance_aromatic_linkinvent_7_9_3/rearranged_h_0041.sdf

> <i_m_source_file_index>
79

> <r_mmod_Potential_Energy-OPLS-2005>
-7.01935911178589

> <r_mmod_Stretch_Energy-OPLS-2005>
87.3261032104492

> <r_mmod_Bend_Energy-OPLS-2005>
168.227615356445

> <r_mmod_Torsional_Energy-OPLS-2005>
269.124572753906

> <r_mmod_Improper_Torsional_Energy-OPLS-2005>
7.32537126541138

> <r_mmod_Van_der_Waal_Energy-OPLS-2005>
148.256774902344

> <r_mmod_Electrostatic_Energy-OPLS-2005>
-314.40380859375

> <r_mmod_Solvation_Energy-OPLS-2005>
-419.588439941406

> <b_mmod_Minimization_Converged-OPLS-2005>
0

> <r_mmod_RMS_Derivative-OPLS-2005>
1.95501840114594

$$$$
79
                    3D
 Structure written by MMmdl.
158166  0  0  1  0            999 V2000
  -30.6977  -14.4730   20.5154 C   0  0  0  0  0  0
  -30.4167  -12.2875   19.4400 C   0  0  0  0  0  0
  -29.4988  -12.4848   18.2155 C   0  0  0  0  0  0
  -28.0174  -12.3544   18.6224 C   0  0  0  0  0  0
  -27.6584  -13.2066   19.8701 C   0  0  2  0  0  0
  -28.6992  -13.0129   20.9981 C   0  0  0  0  0  0
  -25.2576  -13.8166   20.5683 C   0  0  0  0  0  0
  -24.1828  -13.0439   20.9184 C   0  0  0  0  0  0
  -24.6375  -11.6904   20.8726 C   0  0  0  0  0  0
  -23.9040  -10.4293   21.0405 C   0  0  0  0  0  0
  -24.3601   -9.4207   21.9180 C   0  0  0  0  0  0
  -23.6285   -8.2242   22.0750 C   0  0  0  0  0  0
  -22.4267   -8.0277   21.3543 C   0  0  0  0  0  0
  -21.9894   -9.0250   20.4644 C   0  0  0  0  0  0
  -22.7213  -10.2132   20.3053 C   0  0  0  0  0  0
  -21.6853   -6.0726   22.5274 C   0  0  0  0  0  0
  -21.4017   -6.5631   23.8204 C   0  0  0  0  0  0
  -21.3664   -5.6786   24.9169 C   0  0  0  0  0  0
  -21.6051   -4.3051   24.7217 C   0  0  0  0  0  0
  -21.8820   -3.8139   23.4338 C   0  0  0  0  0  0
  -21.9198   -4.6957   22.3395 C   0  0  0  0  0  0
  -22.7845  -13.5239   21.1837 C   0  0  0  0  0  0
  -22.1663   -4.2141   21.0970 F   0  0  0  0  0  0
  -21.5628   -3.4530   25.7729 F   0  0  0  0  0  0
  -30.0323  -13.2913   20.4429 N   0  0  0  0  0  0
  -26.3001  -12.9332   20.3344 N   0  0  0  0  0  0
  -25.9303  -11.6491   20.5754 N   0  0  0  0  0  0
  -22.0488  -12.8253   22.0406 N   0  0  0  0  0  0
  -25.4287  -15.1885   20.4090 N   0  0  0  0  0  0
  -31.8535  -14.6154   20.1087 O   0  0  0  0  0  0
  -21.6636   -6.8873   21.4237 O   0  0  0  0  0  0
  -22.3539  -14.5548   20.6678 O   0  0  0  0  0  0
  -24.6118  -31.8689   23.2097 C   0  0  0  0  0  0
  -25.9017  -32.4826   23.8393 C   0  0  1  0  0  0
  -27.2360  -27.4508   20.1015 C   0  0  0  0  0  0
  -25.5884  -33.8624   24.2329 N   0  0  0  0  0  0
  -23.4005  -30.4905   21.5491 C   0  0  2  0  0  0
  -24.8493  -28.9552   20.1151 C   0  0  0  0  0  0
  -22.7403  -29.4651   22.4994 C   0  0  0  0  0  0
  -18.0274  -28.1375   22.8492 C   0  0  0  0  0  0
  -24.1483  -36.7322   23.2639 C   0  0  0  0  0  0
  -25.9259  -30.8399   21.3581 C   0  0  0  0  0  0
  -26.0068  -29.4735   20.7100 C   0  0  0  0  0  0
  -27.2069  -28.7295   20.6973 C   0  0  0  0  0  0
  -26.0666  -26.9381   19.5047 C   0  0  0  0  0  0
  -24.8736  -27.6870   19.5068 C   0  0  0  0  0  0
  -23.6092  -29.8193   20.1639 C   0  0  0  0  0  0
  -25.4101  -36.3122   24.0344 C   0  0  1  0  0  0
  -20.5854  -28.3660   23.1333 C   0  0  2  0  0  0
  -20.6760  -26.9394   22.5435 C   0  0  0  0  0  0
  -19.5756  -26.6379   21.5212 C   0  0  0  0  0  0
  -18.1930  -26.7924   22.1621 C   0  0  0  0  0  0
  -19.1517  -28.8838   23.2909 C   0  0  0  0  0  0
  -18.9439  -30.1440   23.8920 C   0  0  0  0  0  0
  -17.6441  -30.6583   24.0567 C   0  0  0  0  0  0
  -25.9025  -34.9482   23.5138 C   0  0  0  0  0  0
  -16.5336  -29.9082   23.6318 C   0  0  0  0  0  0
  -16.7260  -28.6499   23.0342 C   0  0  0  0  0  0
  -26.4464  -31.6591   25.0702 C   0  0  0  0  0  0
  -25.3740  -31.3695   26.1458 C   0  0  0  0  0  0
  -27.0278  -30.3038   24.6045 C   0  0  0  0  0  0
  -27.6056  -32.4292   25.7458 C   0  0  0  0  0  0
  -27.5584  -37.1819   24.8471 C   0  0  0  0  0  0
  -21.4129  -29.3031   22.3739 N   0  0  0  0  0  0
  -26.4298  -37.3797   23.9411 N   0  0  0  0  0  0
  -24.6644  -31.0797   22.0986 N   0  0  0  0  0  0
  -23.4177  -28.8204   23.3043 O   0  0  0  0  0  0
  -28.3922  -26.7081   20.0960 O   0  0  0  0  0  0
  -26.5587  -34.8935   22.4697 O   0  0  0  0  0  0
  -23.5317  -32.1424   23.7506 O   0  0  0  0  0  0
  -28.7869  -19.1222   22.9874 C   0  0  0  0  0  0
  -29.2605  -17.9964   22.2918 C   0  0  0  0  0  0
  -28.6911  -20.3672   22.3413 C   0  0  0  0  0  0
  -29.6517  -18.1024   20.9397 C   0  0  0  0  0  0
  -29.5657  -19.3713   20.2875 C   0  0  0  0  0  0
  -29.0730  -20.5106   20.9876 C   0  0  0  0  0  0
  -29.9915  -19.5166   18.8258 C   0  0  0  0  0  0
  -30.2073  -16.8725   20.2073 C   0  0  0  0  0  0
  -28.6564  -24.2452   20.1399 C   0  0  0  0  0  0
  -28.6405  -22.9913   21.0453 C   0  0  0  0  0  0
  -28.3452  -25.5382   20.9242 C   0  0  0  0  0  0
  -28.9699  -21.7555   20.3304 N   0  0  0  0  0  0
  -29.9326  -15.5469   20.7859 N   0  0  0  0  0  0
  -31.4646  -12.3668   19.1455 H   0  0  0  0  0  0
  -30.2986  -11.2847   19.8527 H   0  0  0  0  0  0
  -29.7385  -11.7508   17.4449 H   0  0  0  0  0  0
  -29.6758  -13.4658   17.7719 H   0  0  0  0  0  0
  -27.8284  -11.2999   18.8295 H   0  0  0  0  0  0
  -27.3697  -12.6187   17.7849 H   0  0  0  0  0  0
  -27.6932  -14.2485   19.5532 H   0  0  0  0  0  0
  -28.6662  -11.9900   21.3766 H   0  0  0  0  0  0
  -28.4738  -13.6525   21.8526 H   0  0  0  0  0  0
  -25.2747   -9.5691   22.4738 H   0  0  0  0  0  0
  -23.9998   -7.4638   22.7471 H   0  0  0  0  0  0
  -21.0822   -8.8769   19.8951 H   0  0  0  0  0  0
  -22.3677  -10.9667   19.6156 H   0  0  0  0  0  0
  -21.2008   -7.6136   23.9709 H   0  0  0  0  0  0
  -21.1487   -6.0509   25.9074 H   0  0  0  0  0  0
  -22.0598   -2.7598   23.2835 H   0  0  0  0  0  0
  -22.4102  -11.9924   22.4814 H   0  0  0  0  0  0
  -21.1102  -13.1288   22.2591 H   0  0  0  0  0  0
  -24.6595  -15.8410   20.5174 H   0  0  0  0  0  0
  -26.2782  -15.6308   20.0805 H   0  0  0  0  0  0
  -26.7093  -32.5560   23.1172 H   0  0  0  0  0  0
  -25.0049  -33.9784   25.0486 H   0  0  0  0  0  0
  -22.6867  -31.3053   21.4099 H   0  0  0  0  0  0
  -23.3737  -35.9666   23.3309 H   0  0  0  0  0  0
  -24.3581  -36.8910   22.2052 H   0  0  0  0  0  0
  -23.7236  -37.6539   23.6628 H   0  0  0  0  0  0
  -26.0289  -31.6021   20.5849 H   0  0  0  0  0  0
  -26.8165  -30.8996   21.9711 H   0  0  0  0  0  0
  -28.1028  -29.1258   21.1540 H   0  0  0  0  0  0
  -26.0810  -25.9629   19.0392 H   0  0  0  0  0  0
  -23.9857  -27.2804   19.0428 H   0  0  0  0  0  0
  -23.7167  -30.5915   19.4011 H   0  0  0  0  0  0
  -22.7352  -29.2351   19.8707 H   0  0  0  0  0  0
  -25.1274  -36.2003   25.0837 H   0  0  0  0  0  0
  -20.9947  -28.3227   24.1455 H   0  0  0  0  0  0
  -20.5649  -26.2276   23.3625 H   0  0  0  0  0  0
  -21.6642  -26.7438   22.1251 H   0  0  0  0  0  0
  -19.6907  -25.6292   21.1240 H   0  0  0  0  0  0
  -19.6697  -27.3196   20.6749 H   0  0  0  0  0  0
  -17.4210  -26.6686   21.4010 H   0  0  0  0  0  0
  -18.0321  -26.0051   22.9003 H   0  0  0  0  0  0
  -19.7915  -30.7247   24.2300 H   0  0  0  0  0  0
  -17.4996  -31.6262   24.5178 H   0  0  0  0  0  0
  -15.5339  -30.2992   23.7622 H   0  0  0  0  0  0
  -15.8662  -28.0822   22.7031 H   0  0  0  0  0  0
  -24.5923  -30.7026   25.7806 H   0  0  0  0  0  0
  -24.8916  -32.2847   26.4908 H   0  0  0  0  0  0
  -25.8098  -30.8879   27.0219 H   0  0  0  0  0  0
  -26.2799  -29.6819   24.1108 H   0  0  0  0  0  0
  -27.4077  -29.7262   25.4485 H   0  0  0  0  0  0
  -27.8626  -30.4371   23.9152 H   0  0  0  0  0  0
  -27.2689  -33.3583   26.2079 H   0  0  0  0  0  0
  -28.3841  -32.6860   25.0255 H   0  0  0  0  0  0
  -28.0747  -31.8376   26.5338 H   0  0  0  0  0  0
  -28.2630  -38.0092   24.7501 H   0  0  0  0  0  0
  -28.1053  -36.2631   24.6310 H   0  0  0  0  0  0
  -27.2310  -37.1481   25.8877 H   0  0  0  0  0  0
  -20.9278  -29.8787   21.6995 H   0  0  0  0  0  0
  -26.0198  -38.2888   24.1385 H   0  0  0  0  0  0
  -28.4959  -19.0312   24.0244 H   0  0  0  0  0  0
  -29.3362  -17.0538   22.8152 H   0  0  0  0  0  0
  -28.3189  -21.2050   22.9118 H   0  0  0  0  0  0
  -30.7664  -18.8067   18.5404 H   0  0  0  0  0  0
  -30.4087  -20.5006   18.6148 H   0  0  0  0  0  0
  -29.1321  -19.3618   18.1726 H   0  0  0  0  0  0
  -31.2822  -17.0302   20.0993 H   0  0  0  0  0  0
  -29.7964  -16.8432   19.1962 H   0  0  0  0  0  0
  -27.9289  -24.1296   19.3357 H   0  0  0  0  0  0
  -29.6338  -24.3473   19.6660 H   0  0  0  0  0  0
  -27.6505  -22.8901   21.4937 H   0  0  0  0  0  0
  -29.3459  -23.1297   21.8667 H   0  0  0  0  0  0
  -29.0838  -25.6690   21.7158 H   0  0  0  0  0  0
  -27.3838  -25.4322   21.4318 H   0  0  0  0  0  0
  -29.2686  -21.8217   19.3615 H   0  0  0  0  0  0
  -28.9933  -15.3689   21.1043 H   0  0  0  0  0  0
  1 25  1  0  0  0
  1 30  2  0  0  0
  1 83  1  0  0  0
  2  3  1  0  0  0
  2 25  1  0  0  0
  2 84  1  0  0  0
  2 85  1  0  0  0
  3  4  1  0  0  0
  3 86  1  0  0  0
  3 87  1  0  0  0
  4  5  1  0  0  0
  4 88  1  0  0  0
  4 89  1  0  0  0
  5  6  1  0  0  0
  5 26  1  0  0  0
  5 90  1  0  0  0
  6 25  1  0  0  0
  6 91  1  0  0  0
  6 92  1  0  0  0
  7  8  2  0  0  0
  7 26  1  0  0  0
  7 29  1  0  0  0
  8  9  1  0  0  0
  8 22  1  0  0  0
  9 10  1  0  0  0
  9 27  2  0  0  0
 10 11  2  0  0  0
 10 15  1  0  0  0
 11 12  1  0  0  0
 11 93  1  0  0  0
 12 13  2  0  0  0
 12 94  1  0  0  0
 13 14  1  0  0  0
 13 31  1  0  0  0
 14 15  2  0  0  0
 14 95  1  0  0  0
 15 96  1  0  0  0
 16 17  2  0  0  0
 16 21  1  0  0  0
 16 31  1  0  0  0
 17 18  1  0  0  0
 17 97  1  0  0  0
 18 19  2  0  0  0
 18 98  1  0  0  0
 19 20  1  0  0  0
 19 24  1  0  0  0
 20 21  2  0  0  0
 20 99  1  0  0  0
 21 23  1  0  0  0
 22 28  1  0  0  0
 22 32  2  0  0  0
 26 27  1  0  0  0
 28100  1  0  0  0
 28101  1  0  0  0
 29102  1  0  0  0
 29103  1  0  0  0
 33 34  1  0  0  0
 33 66  1  0  0  0
 33 70  2  0  0  0
 34 36  1  0  0  0
 34 59  1  0  0  0
 34104  1  0  0  0
 35 44  2  0  0  0
 35 45  1  0  0  0
 35 68  1  0  0  0
 36 56  1  0  0  0
 36105  1  0  0  0
 37 39  1  0  0  0
 37 47  1  0  0  0
 37 66  1  0  0  0
 37106  1  0  0  0
 38 43  2  0  0  0
 38 46  1  0  0  0
 38 47  1  0  0  0
 39 64  1  0  0  0
 39 67  2  0  0  0
 40 52  1  0  0  0
 40 53  2  0  0  0
 40 58  1  0  0  0
 41107  1  0  0  0
 41108  1  0  0  0
 41109  1  0  0  0
 41 48  1  0  0  0
 42 43  1  0  0  0
 42 66  1  0  0  0
 42110  1  0  0  0
 42111  1  0  0  0
 43 44  1  0  0  0
 44112  1  0  0  0
 45 46  2  0  0  0
 45113  1  0  0  0
 46114  1  0  0  0
 47115  1  0  0  0
 47116  1  0  0  0
 48 56  1  0  0  0
 48 65  1  0  0  0
 48117  1  0  0  0
 49 50  1  0  0  0
 49 53  1  0  0  0
 49 64  1  0  0  0
 49118  1  0  0  0
 50 51  1  0  0  0
 50119  1  0  0  0
 50120  1  0  0  0
 51 52  1  0  0  0
 51121  1  0  0  0
 51122  1  0  0  0
 52123  1  0  0  0
 52124  1  0  0  0
 53 54  1  0  0  0
 54 55  2  0  0  0
 54125  1  0  0  0
 55 57  1  0  0  0
 55126  1  0  0  0
 56 69  2  0  0  0
 57 58  2  0  0  0
 57127  1  0  0  0
 58128  1  0  0  0
 59 60  1  0  0  0
 59 61  1  0  0  0
 59 62  1  0  0  0
 60129  1  0  0  0
 60130  1  0  0  0
 60131  1  0  0  0
 61132  1  0  0  0
 61133  1  0  0  0
 61134  1  0  0  0
 62135  1  0  0  0
 62136  1  0  0  0
 62137  1  0  0  0
 63 65  1  0  0  0
 63138  1  0  0  0
 63139  1  0  0  0
 63140  1  0  0  0
 64141  1  0  0  0
 65142  1  0  0  0
 68 81  1  0  0  0
 71 72  2  0  0  0
 71 73  1  0  0  0
 71143  1  0  0  0
 72 74  1  0  0  0
 72144  1  0  0  0
 73 76  2  0  0  0
 73145  1  0  0  0
 74 75  2  0  0  0
 74 78  1  0  0  0
 75 76  1  0  0  0
 75 77  1  0  0  0
 76 82  1  0  0  0
 77146  1  0  0  0
 77147  1  0  0  0
 77148  1  0  0  0
 78 83  1  0  0  0
 78149  1  0  0  0
 78150  1  0  0  0
 79 80  1  0  0  0
 79 81  1  0  0  0
 79151  1  0  0  0
 79152  1  0  0  0
 80 82  1  0  0  0
 80153  1  0  0  0
 80154  1  0  0  0
 81155  1  0  0  0
 81156  1  0  0  0
 82157  1  0  0  0
 83158  1  0  0  0
M  ISO  4   1 100  68 101  81 101  83 100
M  END
> <chiral flag>
0

> <version>
0

> <s_m_source_file>
/data/baiqing/PycharmProjects/Reinvent-master-3.2/result/LINK_invent/BTK/process_docking_weight1_custom_product_contain_oxygen_bond_distance_aromatic_linkinvent_7_9_3/rearranged_h_0041.sdf

> <i_m_source_file_index>
80

> <r_mmod_Potential_Energy-OPLS-2005>
-116.131713867188

> <r_mmod_Stretch_Energy-OPLS-2005>
37.4052238464355

> <r_mmod_Bend_Energy-OPLS-2005>
98.4757766723633

> <r_mmod_Torsional_Energy-OPLS-2005>
218.375106811523

> <r_mmod_Improper_Torsional_Energy-OPLS-2005>
8.4139289855957

> <r_mmod_Van_der_Waal_Energy-OPLS-2005>
161.025695800781

> <r_mmod_Electrostatic_Energy-OPLS-2005>
-441.113189697266

> <r_mmod_Solvation_Energy-OPLS-2005>
-212.847747802734

> <b_mmod_Minimization_Converged-OPLS-2005>
0

> <r_mmod_RMS_Derivative-OPLS-2005>
1.65800774097443

$$$$
80
                    3D
 Structure written by MMmdl.
169178  0  0  1  0            999 V2000
  -28.5594  -13.7696   18.9568 C   0  0  0  0  0  0
  -30.5483  -12.4526   19.2078 C   0  0  0  0  0  0
  -29.6003  -11.4110   18.7096 C   0  0  0  0  0  0
  -28.5500  -11.2445   19.8979 C   0  0  0  0  0  0
  -28.2455  -12.5757   21.0667 C   0  0  2  0  0  0
  -29.4273  -13.3293   21.1690 C   0  0  0  0  0  0
  -26.2749  -14.7656   20.5707 C   0  0  0  0  0  0
  -25.0200  -14.5161   20.7246 C   0  0  0  0  0  0
  -25.4467  -13.2268   21.4845 C   0  0  0  0  0  0
  -23.8801  -10.8905   21.4492 C   0  0  0  0  0  0
  -24.2263   -9.4920   21.9392 C   0  0  0  0  0  0
  -23.5645   -8.2582   21.9795 C   0  0  0  0  0  0
  -22.3438   -8.1168   21.3587 C   0  0  0  0  0  0
  -21.8936   -9.2691   20.6981 C   0  0  0  0  0  0
  -22.5727  -10.5321   20.8201 C   0  0  0  0  0  0
  -21.6668   -6.1017   22.4913 C   0  0  0  0  0  0
  -21.3908   -6.5805   23.7942 C   0  0  0  0  0  0
  -21.3670   -5.6951   24.8943 C   0  0  0  0  0  0
  -21.6061   -4.3210   24.7013 C   0  0  0  0  0  0
  -21.8800   -3.8358   23.4105 C   0  0  0  0  0  0
  -21.9105   -4.7202   22.3147 C   0  0  0  0  0  0
  -23.4854  -15.0612   20.0272 C   0  0  0  0  0  0
  -22.1628   -4.2309   21.0775 F   0  0  0  0  0  0
  -21.5707   -3.4674   25.7527 F   0  0  0  0  0  0
  -29.6023  -13.3890   19.7838 N   0  0  0  0  0  0
  -27.0727  -13.6684   21.1536 N   0  0  0  0  0  0
  -26.4754  -13.5002   22.1589 N   0  0  0  0  0  0
  -22.1815  -14.5572   20.2338 N   0  0  0  0  0  0
  -26.5906  -15.8508   19.8703 N   0  0  0  0  0  0
  -29.2710  -14.7636   18.5916 O   0  0  0  0  0  0
  -21.6342   -6.9311   21.3820 O   0  0  0  0  0  0
  -23.2507  -16.1449   19.6706 O   0  0  0  0  0  0
  -24.7292  -31.7179   23.1212 C   0  0  0  0  0  0
  -25.9680  -32.3980   23.7829 C   0  0  1  0  0  0
  -26.2238  -25.6627   20.6774 C   0  0  0  0  0  0
  -25.6058  -33.7900   24.1566 N   0  0  0  0  0  0
  -23.5434  -30.3397   21.4881 C   0  0  2  0  0  0
  -24.8595  -28.5054   20.1282 C   0  0  0  0  0  0
  -22.7749  -29.3968   22.4537 C   0  0  0  0  0  0
  -18.0316  -28.1424   22.8444 C   0  0  0  0  0  0
  -24.1515  -36.6956   23.2665 C   0  0  0  0  0  0
  -26.0938  -30.0622   21.5681 C   0  0  0  0  0  0
  -25.9539  -28.5376   20.9811 C   0  0  0  0  0  0
  -26.6387  -27.1488   21.2079 C   0  0  0  0  0  0
  -25.4552  -26.1075   19.5523 C   0  0  0  0  0  0
  -24.7533  -27.3490   19.3407 C   0  0  0  0  0  0
  -23.8112  -29.6436   20.1110 C   0  0  0  0  0  0
  -25.4192  -36.2628   24.0218 C   0  0  1  0  0  0
  -20.5938  -28.3770   23.1085 C   0  0  2  0  0  0
  -20.6743  -26.9394   22.5430 C   0  0  0  0  0  0
  -19.5737  -26.6331   21.5228 C   0  0  0  0  0  0
  -18.1921  -26.7950   22.1610 C   0  0  0  0  0  0
  -19.1586  -28.8932   23.2747 C   0  0  0  0  0  0
  -18.9504  -30.1518   23.8797 C   0  0  0  0  0  0
  -17.6492  -30.6603   24.0551 C   0  0  0  0  0  0
  -25.9217  -34.9032   23.4776 C   0  0  0  0  0  0
  -16.5380  -29.9081   23.6361 C   0  0  0  0  0  0
  -16.7302  -28.6507   23.0372 C   0  0  0  0  0  0
  -26.4685  -31.6430   25.0784 C   0  0  0  0  0  0
  -25.3584  -31.3992   26.1285 C   0  0  0  0  0  0
  -27.0747  -30.2687   24.7377 C   0  0  0  0  0  0
  -27.6002  -32.4537   25.7541 C   0  0  0  0  0  0
  -27.5545  -37.1638   24.8462 C   0  0  0  0  0  0
  -21.4387  -29.2926   22.3302 N   0  0  0  0  0  0
  -26.4253  -37.3471   23.9391 N   0  0  0  0  0  0
  -24.8333  -30.7795   22.0986 N   0  0  0  0  0  0
  -23.3986  -28.7617   23.3085 O   0  0  0  0  0  0
  -26.3832  -23.9034   20.9447 O   0  0  0  0  0  0
  -26.5953  -34.8736   22.4463 O   0  0  0  0  0  0
  -23.6251  -32.0819   23.5708 O   0  0  0  0  0  0
  -26.1976  -11.0413   21.2530 C   0  0  0  0  0  0
  -23.3086  -13.3628   21.9642 C   0  0  0  0  0  0
  -23.9103  -12.5779   19.9730 C   0  0  0  0  0  0
  -24.1432  -12.4457   23.2422 C   0  0  0  0  0  0
  -25.6540  -11.8600   19.7009 C   0  0  0  0  0  0
  -25.5735  -11.3930   22.9557 C   0  0  0  0  0  0
  -25.6524  -21.3571   22.9135 C   0  0  0  0  0  0
  -24.6677  -20.1700   23.5469 C   0  0  0  0  0  0
  -24.8947  -19.5747   21.1422 C   0  0  0  0  0  0
  -25.4726  -21.8805   21.3990 C   0  0  2  0  0  0
  -24.7756  -18.5008   23.4384 C   0  0  2  0  0  0
  -23.1441  -12.5258   18.6225 C   0  0  0  0  0  0
  -23.7675  -12.7492   24.6794 C   0  0  0  0  0  0
  -26.0840  -18.0086   24.0748 C   0  0  0  0  0  0
  -23.6424  -15.7608   22.4490 C   0  0  0  0  0  0
  -27.0210  -12.9424   18.7796 N   0  0  0  0  0  0
  -24.5231  -17.7628   22.1112 N   0  3  1  0  0  0
  -26.3815  -10.6614   24.2999 Cl  0  0  0  0  0  0
  -31.1227  -12.8946   18.3904 H   0  0  0  0  0  0
  -31.2566  -12.0534   19.9359 H   0  0  0  0  0  0
  -30.1336  -10.4731   18.5434 H   0  0  0  0  0  0
  -29.1442  -11.6271   17.7401 H   0  0  0  0  0  0
  -29.0283  -10.4903   20.5250 H   0  0  0  0  0  0
  -27.7464  -10.6675   19.4501 H   0  0  0  0  0  0
  -28.2687  -12.0727   22.0402 H   0  0  0  0  0  0
  -30.2265  -12.7988   21.6889 H   0  0  0  0  0  0
  -29.3151  -14.3201   21.6154 H   0  0  0  0  0  0
  -25.1694   -9.2264   22.3883 H   0  0  0  0  0  0
  -24.0366   -7.4113   22.4583 H   0  0  0  0  0  0
  -20.9394   -9.2355   20.1901 H   0  0  0  0  0  0
  -21.9492  -11.3155   20.4277 H   0  0  0  0  0  0
  -21.1839   -7.6294   23.9499 H   0  0  0  0  0  0
  -21.1581   -6.0699   25.8858 H   0  0  0  0  0  0
  -22.0617   -2.7833   23.2582 H   0  0  0  0  0  0
  -22.0685  -13.6850   20.7319 H   0  0  0  0  0  0
  -21.3781  -15.0539   19.8791 H   0  0  0  0  0  0
  -25.9157  -16.4540   19.4145 H   0  0  0  0  0  0
  -27.5485  -16.1091   19.6562 H   0  0  0  0  0  0
  -26.7758  -32.4155   23.0494 H   0  0  0  0  0  0
  -24.9995  -33.8862   24.9576 H   0  0  0  0  0  0
  -22.9165  -31.2121   21.2936 H   0  0  0  0  0  0
  -23.3807  -35.9249   23.3212 H   0  0  0  0  0  0
  -24.3561  -36.8781   22.2104 H   0  0  0  0  0  0
  -23.7262  -37.6066   23.6885 H   0  0  0  0  0  0
  -26.4531  -30.6741   20.7395 H   0  0  0  0  0  0
  -26.9233  -30.0757   22.2559 H   0  0  0  0  0  0
  -27.3913  -27.1520   21.9840 H   0  0  0  0  0  0
  -25.1470  -25.3144   18.8851 H   0  0  0  0  0  0
  -24.0083  -27.3481   18.5563 H   0  0  0  0  0  0
  -24.1488  -30.3909   19.3922 H   0  0  0  0  0  0
  -22.8740  -29.2523   19.7114 H   0  0  0  0  0  0
  -25.1441  -36.1288   25.0705 H   0  0  0  0  0  0
  -21.0028  -28.3444   24.1211 H   0  0  0  0  0  0
  -20.5558  -26.2407   23.3727 H   0  0  0  0  0  0
  -21.6608  -26.7270   22.1286 H   0  0  0  0  0  0
  -19.6874  -25.6212   21.1332 H   0  0  0  0  0  0
  -19.6708  -27.3083   20.6717 H   0  0  0  0  0  0
  -17.4205  -26.6739   21.3999 H   0  0  0  0  0  0
  -18.0262  -26.0110   22.9010 H   0  0  0  0  0  0
  -19.7988  -30.7361   24.2113 H   0  0  0  0  0  0
  -17.5044  -31.6270   24.5173 H   0  0  0  0  0  0
  -15.5377  -30.2950   23.7734 H   0  0  0  0  0  0
  -15.8712  -28.0795   22.7129 H   0  0  0  0  0  0
  -24.5845  -30.7236   25.7622 H   0  0  0  0  0  0
  -24.8694  -32.3281   26.4226 H   0  0  0  0  0  0
  -25.7618  -30.9504   27.0371 H   0  0  0  0  0  0
  -26.3433  -29.5871   24.3032 H   0  0  0  0  0  0
  -27.4363  -29.7720   25.6391 H   0  0  0  0  0  0
  -27.9408  -30.3578   24.0820 H   0  0  0  0  0  0
  -27.2449  -33.4028   26.1569 H   0  0  0  0  0  0
  -28.4023  -32.6795   25.0501 H   0  0  0  0  0  0
  -28.0442  -31.9095   26.5888 H   0  0  0  0  0  0
  -28.2479  -38.0004   24.7502 H   0  0  0  0  0  0
  -28.1124  -36.2513   24.6305 H   0  0  0  0  0  0
  -27.2250  -37.1266   25.8860 H   0  0  0  0  0  0
  -20.9752  -29.8540   21.6298 H   0  0  0  0  0  0
  -26.0006  -38.2483   24.1401 H   0  0  0  0  0  0
  -26.9876  -10.3137   21.3087 H   0  0  0  0  0  0
  -26.6896  -21.0523   23.0506 H   0  0  0  0  0  0
  -25.5328  -22.2379   23.5455 H   0  0  0  0  0  0
  -23.6432  -20.4411   23.2848 H   0  0  0  0  0  0
  -24.6956  -20.3609   24.6196 H   0  0  0  0  0  0
  -25.6806  -19.2430   20.4647 H   0  0  0  0  0  0
  -24.0284  -19.6331   20.4844 H   0  0  0  0  0  0
  -24.4560  -22.2700   21.3469 H   0  0  0  0  0  0
  -23.9723  -18.1378   24.0815 H   0  0  0  0  0  0
  -22.0593  -12.5865   18.7069 H   0  0  0  0  0  0
  -23.3573  -11.5716   18.1418 H   0  0  0  0  0  0
  -23.4907  -13.2950   17.9319 H   0  0  0  0  0  0
  -23.8879  -13.8082   24.8984 H   0  0  0  0  0  0
  -24.3866  -12.1949   25.3825 H   0  0  0  0  0  0
  -22.7296  -12.4727   24.8635 H   0  0  0  0  0  0
  -26.9544  -18.3038   23.4885 H   0  0  0  0  0  0
  -26.0966  -16.9230   24.1745 H   0  0  0  0  0  0
  -26.2049  -18.4202   25.0776 H   0  0  0  0  0  0
  -24.0445  -15.6211   23.4496 H   0  0  0  0  0  0
  -22.6113  -16.0606   22.6384 H   0  0  0  0  0  0
  -26.5908  -13.3960   17.9862 H   0  0  0  0  0  0
  -25.4289  -17.3752   21.8920 H   0  0  0  0  0  0
  1 25  1  0  0  0
  1 30  2  0  0  0
  1 86  1  0  0  0
  2  3  1  0  0  0
  2 25  1  0  0  0
  2 89  1  0  0  0
  2 90  1  0  0  0
  3  4  1  0  0  0
  3 91  1  0  0  0
  3 92  1  0  0  0
  4  5  1  0  0  0
  4 93  1  0  0  0
  4 94  1  0  0  0
  5  6  1  0  0  0
  5 26  1  0  0  0
  5 95  1  0  0  0
  6 25  1  0  0  0
  6 96  1  0  0  0
  6 97  1  0  0  0
  7  8  2  0  0  0
  7 26  1  0  0  0
  7 29  1  0  0  0
  8  9  1  0  0  0
  8 22  1  0  0  0
  9 10  1  0  0  0
  9 27  2  0  0  0
 10 11  2  0  0  0
 10 15  1  0  0  0
 11 12  1  0  0  0
 11 98  1  0  0  0
 12 13  2  0  0  0
 12 99  1  0  0  0
 13 14  1  0  0  0
 13 31  1  0  0  0
 14 15  2  0  0  0
 14100  1  0  0  0
 15101  1  0  0  0
 16 17  2  0  0  0
 16 21  1  0  0  0
 16 31  1  0  0  0
 17 18  1  0  0  0
 17102  1  0  0  0
 18 19  2  0  0  0
 18103  1  0  0  0
 19 20  1  0  0  0
 19 24  1  0  0  0
 20 21  2  0  0  0
 20104  1  0  0  0
 21 23  1  0  0  0
 22 28  1  0  0  0
 22 32  2  0  0  0
 26 27  1  0  0  0
 28105  1  0  0  0
 28106  1  0  0  0
 29107  1  0  0  0
 29108  1  0  0  0
 33 34  1  0  0  0
 33 66  1  0  0  0
 33 70  2  0  0  0
 34 36  1  0  0  0
 34 59  1  0  0  0
 34109  1  0  0  0
 35 44  2  0  0  0
 35 45  1  0  0  0
 35 68  1  0  0  0
 36 56  1  0  0  0
 36110  1  0  0  0
 37 39  1  0  0  0
 37 47  1  0  0  0
 37 66  1  0  0  0
 37111  1  0  0  0
 38 43  2  0  0  0
 38 46  1  0  0  0
 38 47  1  0  0  0
 39 64  1  0  0  0
 39 67  2  0  0  0
 40 52  1  0  0  0
 40 53  2  0  0  0
 40 58  1  0  0  0
 41112  1  0  0  0
 41113  1  0  0  0
 41114  1  0  0  0
 41 48  1  0  0  0
 42 43  1  0  0  0
 42 66  1  0  0  0
 42115  1  0  0  0
 42116  1  0  0  0
 43 44  1  0  0  0
 44117  1  0  0  0
 45 46  2  0  0  0
 45118  1  0  0  0
 46119  1  0  0  0
 47120  1  0  0  0
 47121  1  0  0  0
 48 56  1  0  0  0
 48 65  1  0  0  0
 48122  1  0  0  0
 49 50  1  0  0  0
 49 53  1  0  0  0
 49 64  1  0  0  0
 49123  1  0  0  0
 50 51  1  0  0  0
 50124  1  0  0  0
 50125  1  0  0  0
 51 52  1  0  0  0
 51126  1  0  0  0
 51127  1  0  0  0
 52128  1  0  0  0
 52129  1  0  0  0
 53 54  1  0  0  0
 54 55  2  0  0  0
 54130  1  0  0  0
 55 57  1  0  0  0
 55131  1  0  0  0
 56 69  2  0  0  0
 57 58  2  0  0  0
 57132  1  0  0  0
 58133  1  0  0  0
 59 60  1  0  0  0
 59 61  1  0  0  0
 59 62  1  0  0  0
 60134  1  0  0  0
 60135  1  0  0  0
 60136  1  0  0  0
 61137  1  0  0  0
 61138  1  0  0  0
 61139  1  0  0  0
 62140  1  0  0  0
 62141  1  0  0  0
 62142  1  0  0  0
 63 65  1  0  0  0
 63143  1  0  0  0
 63144  1  0  0  0
 63145  1  0  0  0
 64146  1  0  0  0
 65147  1  0  0  0
 68 80  1  0  0  0
 71 75  2  0  0  0
 71 76  1  0  0  0
 71148  1  0  0  0
 72 73  2  0  0  0
 72 74  1  0  0  0
 72 85  1  0  0  0
 73 75  1  0  0  0
 73 82  1  0  0  0
 74 76  2  0  0  0
 74 83  1  0  0  0
 75 86  1  0  0  0
 76 88  1  0  0  0
 77 78  1  0  0  0
 77 80  1  0  0  0
 77149  1  0  0  0
 77150  1  0  0  0
 78 81  1  0  0  0
 78151  1  0  0  0
 78152  1  0  0  0
 79 80  1  0  0  0
 79 87  1  0  0  0
 79153  1  0  0  0
 79154  1  0  0  0
 80155  1  0  0  0
 81 84  1  0  0  0
 81 87  1  0  0  0
 81156  1  0  0  0
 82157  1  0  0  0
 82158  1  0  0  0
 82159  1  0  0  0
 83160  1  0  0  0
 83161  1  0  0  0
 83162  1  0  0  0
 84163  1  0  0  0
 84164  1  0  0  0
 84165  1  0  0  0
 85166  1  0  0  0
 85167  1  0  0  0
 85 87  1  0  0  0
 86168  1  0  0  0
 87169  1  0  0  0
M  CHG  1  87   1
M  ISO  4   1 100  68 101  80 101  86 100
M  END
> <chiral flag>
0

> <version>
0

> <s_m_source_file>
/data/baiqing/PycharmProjects/Reinvent-master-3.2/result/LINK_invent/BTK/process_docking_weight1_custom_product_contain_oxygen_bond_distance_aromatic_linkinvent_7_9_3/rearranged_h_0041.sdf

> <i_m_source_file_index>
81

> <r_mmod_Potential_Energy-OPLS-2005>
26899.85546875

> <r_mmod_Stretch_Energy-OPLS-2005>
12170.625

> <r_mmod_Bend_Energy-OPLS-2005>
2213.03100585938

> <r_mmod_Torsional_Energy-OPLS-2005>
861.013671875

> <r_mmod_Improper_Torsional_Energy-OPLS-2005>
66.4633560180664

> <r_mmod_Van_der_Waal_Energy-OPLS-2005>
3954.68530273438

> <r_mmod_Electrostatic_Energy-OPLS-2005>
-357.758361816406

> <r_mmod_Solvation_Energy-OPLS-2005>
-366.980895996094

> <b_mmod_Minimization_Converged-OPLS-2005>
0

> <r_mmod_RMS_Derivative-OPLS-2005>
3.23983478546143

$$$$
81
                    3D
 Structure written by MMmdl.
160168  0  0  1  0            999 V2000
  -30.7173  -14.4200   20.6435 C   0  0  0  0  0  0
  -30.4267  -12.3009   19.4082 C   0  0  0  0  0  0
  -29.4942  -12.5276   18.2013 C   0  0  0  0  0  0
  -28.0156  -12.3784   18.6124 C   0  0  0  0  0  0
  -27.6681  -13.2014   19.8810 C   0  0  2  0  0  0
  -28.7047  -12.9404   20.9960 C   0  0  0  0  0  0
  -25.2614  -13.8156   20.5655 C   0  0  0  0  0  0
  -24.1857  -13.0442   20.9161 C   0  0  0  0  0  0
  -24.6399  -11.6910   20.8711 C   0  0  0  0  0  0
  -23.9050  -10.4303   21.0386 C   0  0  0  0  0  0
  -24.3614   -9.4218   21.9160 C   0  0  0  0  0  0
  -23.6297   -8.2254   22.0736 C   0  0  0  0  0  0
  -22.4278   -8.0283   21.3535 C   0  0  0  0  0  0
  -21.9902   -9.0250   20.4633 C   0  0  0  0  0  0
  -22.7221  -10.2134   20.3029 C   0  0  0  0  0  0
  -21.6859   -6.0728   22.5272 C   0  0  0  0  0  0
  -21.4020   -6.5633   23.8205 C   0  0  0  0  0  0
  -21.3660   -5.6785   24.9166 C   0  0  0  0  0  0
  -21.6048   -4.3047   24.7216 C   0  0  0  0  0  0
  -21.8826   -3.8137   23.4338 C   0  0  0  0  0  0
  -21.9206   -4.6956   22.3395 C   0  0  0  0  0  0
  -22.7879  -13.5240   21.1828 C   0  0  0  0  0  0
  -22.1667   -4.2147   21.0969 F   0  0  0  0  0  0
  -21.5632   -3.4527   25.7723 F   0  0  0  0  0  0
  -30.0467  -13.2506   20.4639 N   0  0  0  0  0  0
  -26.3053  -12.9319   20.3374 N   0  0  0  0  0  0
  -25.9322  -11.6486   20.5766 N   0  0  0  0  0  0
  -22.0523  -12.8236   22.0394 N   0  0  0  0  0  0
  -25.4379  -15.1868   20.4039 N   0  0  0  0  0  0
  -31.7701  -14.6962   20.0574 O   0  0  0  0  0  0
  -21.6647   -6.8875   21.4236 O   0  0  0  0  0  0
  -22.3558  -14.5541   20.6671 O   0  0  0  0  0  0
  -24.6147  -31.8693   23.2120 C   0  0  0  0  0  0
  -25.9053  -32.4828   23.8407 C   0  0  1  0  0  0
  -27.2320  -27.4465   20.0823 C   0  0  0  0  0  0
  -25.5928  -33.8628   24.2343 N   0  0  0  0  0  0
  -23.3991  -30.4971   21.5529 C   0  0  2  0  0  0
  -24.8407  -28.9652   20.1145 C   0  0  0  0  0  0
  -22.7388  -29.4681   22.4981 C   0  0  0  0  0  0
  -18.0268  -28.1372   22.8488 C   0  0  0  0  0  0
  -24.1494  -36.7325   23.2639 C   0  0  0  0  0  0
  -25.9272  -30.8369   21.3629 C   0  0  0  0  0  0
  -26.0019  -29.4725   20.7102 C   0  0  0  0  0  0
  -27.1968  -28.7199   20.6935 C   0  0  0  0  0  0
  -26.0449  -26.9450   19.4954 C   0  0  0  0  0  0
  -24.8567  -27.6989   19.5077 C   0  0  0  0  0  0
  -23.6045  -29.8340   20.1652 C   0  0  0  0  0  0
  -25.4111  -36.3114   24.0333 C   0  0  1  0  0  0
  -20.5855  -28.3669   23.1296 C   0  0  2  0  0  0
  -20.6767  -26.9406   22.5397 C   0  0  0  0  0  0
  -19.5753  -26.6379   21.5195 C   0  0  0  0  0  0
  -18.1926  -26.7921   22.1602 C   0  0  0  0  0  0
  -19.1518  -28.8832   23.2901 C   0  0  0  0  0  0
  -18.9455  -30.1436   23.8924 C   0  0  0  0  0  0
  -17.6462  -30.6587   24.0568 C   0  0  0  0  0  0
  -25.9036  -34.9473   23.5115 C   0  0  0  0  0  0
  -16.5349  -29.9088   23.6328 C   0  0  0  0  0  0
  -16.7258  -28.6498   23.0356 C   0  0  0  0  0  0
  -26.4494  -31.6610   25.0731 C   0  0  0  0  0  0
  -25.3774  -31.3695   26.1495 C   0  0  0  0  0  0
  -27.0329  -30.3060   24.6094 C   0  0  0  0  0  0
  -27.6066  -32.4333   25.7489 C   0  0  0  0  0  0
  -27.5584  -37.1812   24.8467 C   0  0  0  0  0  0
  -21.4118  -29.3045   22.3707 N   0  0  0  0  0  0
  -26.4297  -37.3795   23.9403 N   0  0  0  0  0  0
  -24.6657  -31.0812   22.1011 N   0  0  0  0  0  0
  -23.4160  -28.8218   23.3017 O   0  0  0  0  0  0
  -28.4242  -26.7483   20.0821 O   0  0  0  0  0  0
  -26.5582  -34.8916   22.4672 O   0  0  0  0  0  0
  -23.5344  -32.1447   23.7522 O   0  0  0  0  0  0
  -31.0359  -18.5606   22.9881 C   0  0  0  0  0  0
  -30.9506  -17.1715   22.7955 C   0  0  0  0  0  0
  -29.8427  -17.5534   20.6601 C   0  0  0  0  0  0
  -30.5020  -19.4616   22.0412 C   0  0  0  0  0  0
  -29.9030  -18.9572   20.8506 C   0  0  0  0  0  0
  -30.3551  -16.6591   21.6278 C   0  0  0  0  0  0
  -29.2287  -22.2849   19.2904 C   0  0  0  0  0  0
  -30.5469  -20.9438   22.3794 C   0  0  0  0  0  0
  -29.2173  -19.8440   19.8003 C   0  0  0  0  0  0
  -30.0858  -23.5038   18.9232 C   0  0  0  0  0  0
  -29.8185  -24.7862   19.7481 C   0  0  0  0  0  0
  -28.4284  -25.4201   19.5586 C   0  0  0  0  0  0
  -30.1445  -15.2620   21.5177 N   0  0  0  0  0  0
  -29.8658  -21.1218   19.4933 N   0  0  0  0  0  0
  -28.0035  -22.3854   19.3562 O   0  0  0  0  0  0
  -31.4707  -12.4094   19.1074 H   0  0  0  0  0  0
  -30.3308  -11.2797   19.7780 H   0  0  0  0  0  0
  -29.7337  -11.8253   17.4019 H   0  0  0  0  0  0
  -29.6623  -13.5252   17.7935 H   0  0  0  0  0  0
  -27.8266  -11.3199   18.7942 H   0  0  0  0  0  0
  -27.3629  -12.6676   17.7885 H   0  0  0  0  0  0
  -27.7257  -14.2562   19.6091 H   0  0  0  0  0  0
  -28.6748  -11.8923   21.2973 H   0  0  0  0  0  0
  -28.4473  -13.4985   21.8968 H   0  0  0  0  0  0
  -25.2767   -9.5709   22.4719 H   0  0  0  0  0  0
  -24.0020   -7.4653   22.7440 H   0  0  0  0  0  0
  -21.0841   -8.8746   19.8945 H   0  0  0  0  0  0
  -22.3664  -10.9659   19.6128 H   0  0  0  0  0  0
  -21.2002   -7.6141   23.9707 H   0  0  0  0  0  0
  -21.1478   -6.0509   25.9071 H   0  0  0  0  0  0
  -22.0609   -2.7599   23.2830 H   0  0  0  0  0  0
  -22.4158  -11.9909   22.4789 H   0  0  0  0  0  0
  -21.1122  -13.1224   22.2579 H   0  0  0  0  0  0
  -24.6769  -15.8497   20.5052 H   0  0  0  0  0  0
  -26.3000  -15.6194   20.0949 H   0  0  0  0  0  0
  -26.7109  -32.5544   23.1163 H   0  0  0  0  0  0
  -25.0162  -33.9822   25.0544 H   0  0  0  0  0  0
  -22.6892  -31.3156   21.4170 H   0  0  0  0  0  0
  -23.3748  -35.9670   23.3323 H   0  0  0  0  0  0
  -24.3599  -36.8926   22.2052 H   0  0  0  0  0  0
  -23.7235  -37.6527   23.6644 H   0  0  0  0  0  0
  -26.0395  -31.6030   20.5927 H   0  0  0  0  0  0
  -26.8150  -30.8873   21.9807 H   0  0  0  0  0  0
  -28.0938  -29.1129   21.1507 H   0  0  0  0  0  0
  -26.0099  -25.9777   19.0177 H   0  0  0  0  0  0
  -23.9648  -27.3003   19.0449 H   0  0  0  0  0  0
  -23.7123  -30.6132   19.4098 H   0  0  0  0  0  0
  -22.7272  -29.2608   19.8640 H   0  0  0  0  0  0
  -25.1276  -36.1997   25.0823 H   0  0  0  0  0  0
  -20.9961  -28.3240   24.1412 H   0  0  0  0  0  0
  -20.5666  -26.2278   23.3589 H   0  0  0  0  0  0
  -21.6638  -26.7453   22.1194 H   0  0  0  0  0  0
  -19.6925  -25.6287   21.1235 H   0  0  0  0  0  0
  -19.6698  -27.3187   20.6724 H   0  0  0  0  0  0
  -17.4191  -26.6670   21.4006 H   0  0  0  0  0  0
  -18.0348  -26.0046   22.8986 H   0  0  0  0  0  0
  -19.7935  -30.7236   24.2309 H   0  0  0  0  0  0
  -17.5023  -31.6279   24.5154 H   0  0  0  0  0  0
  -15.5353  -30.3011   23.7637 H   0  0  0  0  0  0
  -15.8656  -28.0828   22.7075 H   0  0  0  0  0  0
  -24.5948  -30.7049   25.7840 H   0  0  0  0  0  0
  -24.8989  -32.2843   26.4991 H   0  0  0  0  0  0
  -25.8157  -30.8834   27.0226 H   0  0  0  0  0  0
  -26.2856  -29.6794   24.1218 H   0  0  0  0  0  0
  -27.4186  -29.7321   25.4533 H   0  0  0  0  0  0
  -27.8655  -30.4397   23.9183 H   0  0  0  0  0  0
  -27.2690  -33.3618   26.2108 H   0  0  0  0  0  0
  -28.3857  -32.6923   25.0308 H   0  0  0  0  0  0
  -28.0769  -31.8444   26.5379 H   0  0  0  0  0  0
  -28.2593  -38.0117   24.7513 H   0  0  0  0  0  0
  -28.1067  -36.2637   24.6282 H   0  0  0  0  0  0
  -27.2307  -37.1468   25.8873 H   0  0  0  0  0  0
  -20.9266  -29.8795   21.6970 H   0  0  0  0  0  0
  -26.0192  -38.2870   24.1413 H   0  0  0  0  0  0
  -31.4853  -18.9323   23.8995 H   0  0  0  0  0  0
  -31.3206  -16.5049   23.5622 H   0  0  0  0  0  0
  -29.3509  -17.1554   19.7831 H   0  0  0  0  0  0
  -30.8214  -21.1063   23.4221 H   0  0  0  0  0  0
  -29.5727  -21.4086   22.2253 H   0  0  0  0  0  0
  -31.2842  -21.4618   21.7659 H   0  0  0  0  0  0
  -28.1906  -20.0001   20.1364 H   0  0  0  0  0  0
  -29.1410  -19.2979   18.8601 H   0  0  0  0  0  0
  -29.9321  -23.7166   17.8638 H   0  0  0  0  0  0
  -31.1388  -23.2404   19.0200 H   0  0  0  0  0  0
  -30.5688  -25.5227   19.4601 H   0  0  0  0  0  0
  -29.9894  -24.5893   20.8071 H   0  0  0  0  0  0
  -27.6788  -24.8213   20.0765 H   0  0  0  0  0  0
  -28.1757  -25.4458   18.4972 H   0  0  0  0  0  0
  -29.3597  -14.8870   22.0301 H   0  0  0  0  0  0
  -30.8730  -21.1114   19.4066 H   0  0  0  0  0  0
  1 25  1  0  0  0
  1 30  2  0  0  0
  1 83  1  0  0  0
  2  3  1  0  0  0
  2 25  1  0  0  0
  2 86  1  0  0  0
  2 87  1  0  0  0
  3  4  1  0  0  0
  3 88  1  0  0  0
  3 89  1  0  0  0
  4  5  1  0  0  0
  4 90  1  0  0  0
  4 91  1  0  0  0
  5  6  1  0  0  0
  5 26  1  0  0  0
  5 92  1  0  0  0
  6 25  1  0  0  0
  6 93  1  0  0  0
  6 94  1  0  0  0
  7  8  2  0  0  0
  7 26  1  0  0  0
  7 29  1  0  0  0
  8  9  1  0  0  0
  8 22  1  0  0  0
  9 10  1  0  0  0
  9 27  2  0  0  0
 10 11  2  0  0  0
 10 15  1  0  0  0
 11 12  1  0  0  0
 11 95  1  0  0  0
 12 13  2  0  0  0
 12 96  1  0  0  0
 13 14  1  0  0  0
 13 31  1  0  0  0
 14 15  2  0  0  0
 14 97  1  0  0  0
 15 98  1  0  0  0
 16 17  2  0  0  0
 16 21  1  0  0  0
 16 31  1  0  0  0
 17 18  1  0  0  0
 17 99  1  0  0  0
 18 19  2  0  0  0
 18100  1  0  0  0
 19 20  1  0  0  0
 19 24  1  0  0  0
 20 21  2  0  0  0
 20101  1  0  0  0
 21 23  1  0  0  0
 22 28  1  0  0  0
 22 32  2  0  0  0
 26 27  1  0  0  0
 28102  1  0  0  0
 28103  1  0  0  0
 29104  1  0  0  0
 29105  1  0  0  0
 33 34  1  0  0  0
 33 66  1  0  0  0
 33 70  2  0  0  0
 34 36  1  0  0  0
 34 59  1  0  0  0
 34106  1  0  0  0
 35 44  2  0  0  0
 35 45  1  0  0  0
 35 68  1  0  0  0
 36 56  1  0  0  0
 36107  1  0  0  0
 37 39  1  0  0  0
 37 47  1  0  0  0
 37 66  1  0  0  0
 37108  1  0  0  0
 38 43  2  0  0  0
 38 46  1  0  0  0
 38 47  1  0  0  0
 39 64  1  0  0  0
 39 67  2  0  0  0
 40 52  1  0  0  0
 40 53  2  0  0  0
 40 58  1  0  0  0
 41109  1  0  0  0
 41110  1  0  0  0
 41111  1  0  0  0
 41 48  1  0  0  0
 42 43  1  0  0  0
 42 66  1  0  0  0
 42112  1  0  0  0
 42113  1  0  0  0
 43 44  1  0  0  0
 44114  1  0  0  0
 45 46  2  0  0  0
 45115  1  0  0  0
 46116  1  0  0  0
 47117  1  0  0  0
 47118  1  0  0  0
 48 56  1  0  0  0
 48 65  1  0  0  0
 48119  1  0  0  0
 49 50  1  0  0  0
 49 53  1  0  0  0
 49 64  1  0  0  0
 49120  1  0  0  0
 50 51  1  0  0  0
 50121  1  0  0  0
 50122  1  0  0  0
 51 52  1  0  0  0
 51123  1  0  0  0
 51124  1  0  0  0
 52125  1  0  0  0
 52126  1  0  0  0
 53 54  1  0  0  0
 54 55  2  0  0  0
 54127  1  0  0  0
 55 57  1  0  0  0
 55128  1  0  0  0
 56 69  2  0  0  0
 57 58  2  0  0  0
 57129  1  0  0  0
 58130  1  0  0  0
 59 60  1  0  0  0
 59 61  1  0  0  0
 59 62  1  0  0  0
 60131  1  0  0  0
 60132  1  0  0  0
 60133  1  0  0  0
 61134  1  0  0  0
 61135  1  0  0  0
 61136  1  0  0  0
 62137  1  0  0  0
 62138  1  0  0  0
 62139  1  0  0  0
 63 65  1  0  0  0
 63140  1  0  0  0
 63141  1  0  0  0
 63142  1  0  0  0
 64143  1  0  0  0
 65144  1  0  0  0
 68 82  1  0  0  0
 71 72  2  0  0  0
 71 74  1  0  0  0
 71145  1  0  0  0
 72 76  1  0  0  0
 72146  1  0  0  0
 73 75  1  0  0  0
 73 76  2  0  0  0
 73147  1  0  0  0
 74 75  2  0  0  0
 74 78  1  0  0  0
 75 79  1  0  0  0
 76 83  1  0  0  0
 77 80  1  0  0  0
 77 84  1  0  0  0
 77 85  2  0  0  0
 78148  1  0  0  0
 78149  1  0  0  0
 78150  1  0  0  0
 79 84  1  0  0  0
 79151  1  0  0  0
 79152  1  0  0  0
 80 81  1  0  0  0
 80153  1  0  0  0
 80154  1  0  0  0
 81 82  1  0  0  0
 81155  1  0  0  0
 81156  1  0  0  0
 82157  1  0  0  0
 82158  1  0  0  0
 83159  1  0  0  0
 84160  1  0  0  0
M  ISO  4   1 100  68 101  82 101  83 100
M  END
> <chiral flag>
0

> <version>
0

> <s_m_source_file>
/data/baiqing/PycharmProjects/Reinvent-master-3.2/result/LINK_invent/BTK/process_docking_weight1_custom_product_contain_oxygen_bond_distance_aromatic_linkinvent_7_9_3/rearranged_h_0041.sdf

> <i_m_source_file_index>
82

> <r_mmod_Potential_Energy-OPLS-2005>
-185.827056884766

> <r_mmod_Stretch_Energy-OPLS-2005>
35.4907073974609

> <r_mmod_Bend_Energy-OPLS-2005>
97.7834167480469

> <r_mmod_Torsional_Energy-OPLS-2005>
219.51220703125

> <r_mmod_Improper_Torsional_Energy-OPLS-2005>
3.25260591506958

> <r_mmod_Van_der_Waal_Energy-OPLS-2005>
160.648941040039

> <r_mmod_Electrostatic_Energy-OPLS-2005>
-478.098541259766

> <r_mmod_Solvation_Energy-OPLS-2005>
-233.253982543945

> <b_mmod_Minimization_Converged-OPLS-2005>
0

> <r_mmod_RMS_Derivative-OPLS-2005>
2.19664144515991

$$$$
82
                    3D
 Structure written by MMmdl.
209218  0  0  1  0            999 V2000
  -30.6978  -14.4295   20.5936 C   0  0  0  0  0  0
  -30.4261  -12.2848   19.4130 C   0  0  0  0  0  0
  -29.4920  -12.5017   18.2036 C   0  0  0  0  0  0
  -28.0110  -12.3703   18.6169 C   0  0  0  0  0  0
  -27.6635  -13.1993   19.8828 C   0  0  2  0  0  0
  -28.7029  -12.9441   20.9975 C   0  0  0  0  0  0
  -25.2599  -13.8146   20.5702 C   0  0  0  0  0  0
  -24.1836  -13.0441   20.9204 C   0  0  0  0  0  0
  -24.6384  -11.6903   20.8768 C   0  0  0  0  0  0
  -23.9056  -10.4290   21.0435 C   0  0  0  0  0  0
  -24.3597   -9.4222   21.9239 C   0  0  0  0  0  0
  -23.6276   -8.2259   22.0788 C   0  0  0  0  0  0
  -22.4278   -8.0283   21.3549 C   0  0  0  0  0  0
  -21.9927   -9.0246   20.4641 C   0  0  0  0  0  0
  -22.7242  -10.2129   20.3054 C   0  0  0  0  0  0
  -21.6859   -6.0755   22.5287 C   0  0  0  0  0  0
  -21.4040   -6.5639   23.8226 C   0  0  0  0  0  0
  -21.3647   -5.6759   24.9163 C   0  0  0  0  0  0
  -21.6017   -4.3025   24.7186 C   0  0  0  0  0  0
  -21.8813   -3.8140   23.4309 C   0  0  0  0  0  0
  -21.9189   -4.6984   22.3388 C   0  0  0  0  0  0
  -22.7865  -13.5251   21.1869 C   0  0  0  0  0  0
  -22.1647   -4.2179   21.0973 F   0  0  0  0  0  0
  -21.5554   -3.4469   25.7653 F   0  0  0  0  0  0
  -30.0378  -13.2496   20.4516 N   0  0  0  0  0  0
  -26.3029  -12.9299   20.3422 N   0  0  0  0  0  0
  -25.9306  -11.6464   20.5796 N   0  0  0  0  0  0
  -22.0490  -12.8216   22.0388 N   0  0  0  0  0  0
  -25.4359  -15.1862   20.4113 N   0  0  0  0  0  0
  -31.8403  -14.6121   20.1684 O   0  0  0  0  0  0
  -21.6633   -6.8899   21.4250 O   0  0  0  0  0  0
  -22.3542  -14.5562   20.6711 O   0  0  0  0  0  0
  -24.6087  -31.8724   23.2149 C   0  0  0  0  0  0
  -25.9018  -32.4841   23.8409 C   0  0  1  0  0  0
  -27.2312  -27.4991   20.0631 C   0  0  0  0  0  0
  -25.5887  -33.8629   24.2342 N   0  0  0  0  0  0
  -23.3923  -30.4960   21.5567 C   0  0  2  0  0  0
  -24.8382  -28.9741   20.1135 C   0  0  0  0  0  0
  -22.7396  -29.4647   22.5029 C   0  0  0  0  0  0
  -18.0256  -28.1358   22.8465 C   0  0  0  0  0  0
  -24.1490  -36.7296   23.2621 C   0  0  0  0  0  0
  -25.9164  -30.8546   21.3634 C   0  0  0  0  0  0
  -25.9960  -29.4973   20.7040 C   0  0  0  0  0  0
  -27.2006  -28.7645   20.6783 C   0  0  0  0  0  0
  -26.0605  -26.9761   19.4761 C   0  0  0  0  0  0
  -24.8612  -27.7092   19.5022 C   0  0  0  0  0  0
  -23.5955  -29.8318   20.1698 C   0  0  0  0  0  0
  -25.4106  -36.3114   24.0337 C   0  0  1  0  0  0
  -20.5842  -28.3603   23.1334 C   0  0  2  0  0  0
  -20.6752  -26.9345   22.5408 C   0  0  0  0  0  0
  -19.5743  -26.6352   21.5193 C   0  0  0  0  0  0
  -18.1904  -26.7905   22.1572 C   0  0  0  0  0  0
  -19.1510  -28.8795   23.2902 C   0  0  0  0  0  0
  -18.9451  -30.1401   23.8921 C   0  0  0  0  0  0
  -17.6459  -30.6566   24.0570 C   0  0  0  0  0  0
  -25.9026  -34.9472   23.5133 C   0  0  0  0  0  0
  -16.5339  -29.9069   23.6347 C   0  0  0  0  0  0
  -16.7244  -28.6487   23.0348 C   0  0  0  0  0  0
  -26.4465  -31.6601   25.0729 C   0  0  0  0  0  0
  -25.3757  -31.3758   26.1513 C   0  0  0  0  0  0
  -27.0232  -30.3024   24.6068 C   0  0  0  0  0  0
  -27.6072  -32.4268   25.7476 C   0  0  0  0  0  0
  -27.5598  -37.1768   24.8431 C   0  0  0  0  0  0
  -21.4117  -29.2999   22.3778 N   0  0  0  0  0  0
  -26.4280  -37.3811   23.9442 N   0  0  0  0  0  0
  -24.6566  -31.0869   22.1029 N   0  0  0  0  0  0
  -23.4213  -28.8196   23.3040 O   0  0  0  0  0  0
  -28.3836  -26.7619   20.0618 O   0  0  0  0  0  0
  -26.5605  -34.8921   22.4698 O   0  0  0  0  0  0
  -23.5292  -32.1426   23.7578 O   0  0  0  0  0  0
  -30.7629  -18.9918   20.2113 C   0  0  0  0  0  0
  -29.8274  -18.8957   22.4452 C   0  0  0  0  0  0
  -30.3329  -19.6611   21.3749 C   0  0  0  0  0  0
  -30.6213  -17.5951   20.0724 C   0  0  0  0  0  0
  -29.7440  -17.4897   22.3547 C   0  0  0  0  0  0
  -30.1498  -16.8195   21.1721 C   0  0  0  0  0  0
  -28.9130  -23.2345   21.3929 C   0  0  0  0  0  0
  -28.2478  -23.2118   22.5721 C   0  0  0  0  0  0
  -27.9648  -22.0686   23.4110 C   0  0  0  0  0  0
  -27.2967  -22.1953   24.5724 C   0  0  0  0  0  0
  -26.8943  -21.0885   25.4162 C   0  0  0  0  0  0
  -26.5881  -19.8692   24.9405 C   0  0  0  0  0  0
  -26.0998  -18.7920   25.7712 C   0  0  0  0  0  0
  -25.9320  -17.5489   25.2945 C   0  0  0  0  0  0
  -25.3432  -16.4797   26.0699 C   0  0  0  0  0  0
  -25.2957  -15.2125   25.6291 C   0  0  0  0  0  0
  -24.6318  -14.1579   26.3652 C   0  0  0  0  0  0
  -24.7399  -12.8603   26.0402 C   0  0  0  0  0  0
  -24.0345  -11.8263   26.7655 C   0  0  0  0  0  0
  -24.2453  -10.5150   26.5682 C   0  0  0  0  0  0
  -23.5272   -9.5021   27.3116 C   0  0  0  0  0  0
  -23.7616   -8.1880   27.1739 C   0  0  0  0  0  0
  -23.0614   -7.1879   27.9519 C   0  0  0  0  0  0
  -23.3260   -5.8765   27.8437 C   0  0  0  0  0  0
  -22.6616   -4.8707   28.6441 C   0  0  0  0  0  0
  -22.9295   -3.5609   28.5250 C   0  0  0  0  0  0
  -28.6374  -22.6282   18.5350 C   0  0  0  0  0  0
  -28.1702  -23.9820   19.1072 C   0  0  0  0  0  0
  -28.7550  -21.5351   19.6186 C   0  0  0  0  0  0
  -28.9280  -24.4023   20.3969 C   0  0  1  0  0  0
  -30.9300  -17.0081   18.7041 C   0  0  0  0  0  0
  -29.2140  -16.7108   23.5485 C   0  0  0  0  0  0
  -22.2753   -2.4775   29.3531 C   0  0  0  0  0  0
  -30.4969  -21.1828   21.5066 C   0  0  0  0  0  0
  -28.3233  -25.6873   20.9879 C   0  0  0  0  0  0
  -29.9455  -15.4082   21.1281 N   0  0  0  0  0  0
  -29.5880  -22.0756   20.7197 N   0  3  2  0  0  0
  -31.4688  -12.3921   19.1069 H   0  0  0  0  0  0
  -30.3304  -11.2660   19.7921 H   0  0  0  0  0  0
  -29.7208  -11.7804   17.4175 H   0  0  0  0  0  0
  -29.6676  -13.4881   17.7704 H   0  0  0  0  0  0
  -27.8132  -11.3145   18.8045 H   0  0  0  0  0  0
  -27.3599  -12.6549   17.7891 H   0  0  0  0  0  0
  -27.7178  -14.2521   19.6026 H   0  0  0  0  0  0
  -28.6710  -11.8990   21.3084 H   0  0  0  0  0  0
  -28.4683  -13.5132   21.8986 H   0  0  0  0  0  0
  -25.2738   -9.5709   22.4821 H   0  0  0  0  0  0
  -23.9970   -7.4669   22.7515 H   0  0  0  0  0  0
  -21.0870   -8.8740   19.8933 H   0  0  0  0  0  0
  -22.3714  -10.9659   19.6131 H   0  0  0  0  0  0
  -21.2066   -7.6143   23.9766 H   0  0  0  0  0  0
  -21.1464   -6.0476   25.9070 H   0  0  0  0  0  0
  -22.0578   -2.7599   23.2794 H   0  0  0  0  0  0
  -22.4051  -11.9823   22.4730 H   0  0  0  0  0  0
  -21.1108  -13.1224   22.2577 H   0  0  0  0  0  0
  -24.6727  -15.8461   20.5059 H   0  0  0  0  0  0
  -26.2934  -15.6230   20.0990 H   0  0  0  0  0  0
  -26.7089  -32.5611   23.1172 H   0  0  0  0  0  0
  -25.0071  -33.9815   25.0507 H   0  0  0  0  0  0
  -22.6747  -31.3088   21.4256 H   0  0  0  0  0  0
  -23.3847  -35.9527   23.3120 H   0  0  0  0  0  0
  -24.3624  -36.9092   22.2075 H   0  0  0  0  0  0
  -23.7102  -37.6378   23.6750 H   0  0  0  0  0  0
  -26.0265  -31.6309   20.6046 H   0  0  0  0  0  0
  -26.8012  -30.8975   21.9861 H   0  0  0  0  0  0
  -28.0978  -29.1575   21.1337 H   0  0  0  0  0  0
  -26.0733  -26.0062   19.0029 H   0  0  0  0  0  0
  -23.9696  -27.3015   19.0466 H   0  0  0  0  0  0
  -23.6910  -30.6100   19.4107 H   0  0  0  0  0  0
  -22.7226  -29.2435   19.8805 H   0  0  0  0  0  0
  -25.1269  -36.1948   25.0828 H   0  0  0  0  0  0
  -20.9874  -28.3125   24.1478 H   0  0  0  0  0  0
  -20.5620  -26.2196   23.3568 H   0  0  0  0  0  0
  -21.6628  -26.7381   22.1218 H   0  0  0  0  0  0
  -19.6911  -25.6280   21.1175 H   0  0  0  0  0  0
  -19.6733  -27.3213   20.6777 H   0  0  0  0  0  0
  -17.4183  -26.6685   21.3960 H   0  0  0  0  0  0
  -18.0297  -26.0027   22.8929 H   0  0  0  0  0  0
  -19.7948  -30.7205   24.2287 H   0  0  0  0  0  0
  -17.5033  -31.6263   24.5125 H   0  0  0  0  0  0
  -15.5342  -30.2987   23.7681 H   0  0  0  0  0  0
  -15.8631  -28.0825   22.7055 H   0  0  0  0  0  0
  -24.5802  -30.7264   25.7840 H   0  0  0  0  0  0
  -24.9156  -32.2985   26.5071 H   0  0  0  0  0  0
  -25.8085  -30.8775   27.0200 H   0  0  0  0  0  0
  -26.2722  -29.6830   24.1149 H   0  0  0  0  0  0
  -27.4031  -29.7217   25.4481 H   0  0  0  0  0  0
  -27.8568  -30.4337   23.9167 H   0  0  0  0  0  0
  -27.2754  -33.3634   26.1967 H   0  0  0  0  0  0
  -28.3945  -32.6673   25.0320 H   0  0  0  0  0  0
  -28.0649  -31.8425   26.5469 H   0  0  0  0  0  0
  -28.2484  -38.0187   24.7637 H   0  0  0  0  0  0
  -28.1218  -36.2717   24.6034 H   0  0  0  0  0  0
  -27.2356  -37.1153   25.8837 H   0  0  0  0  0  0
  -20.9228  -29.8748   21.7053 H   0  0  0  0  0  0
  -26.0160  -38.2860   24.1577 H   0  0  0  0  0  0
  -31.1719  -19.5629   19.3898 H   0  0  0  0  0  0
  -29.5274  -19.3817   23.3617 H   0  0  0  0  0  0
  -27.7721  -24.1220   22.9008 H   0  0  0  0  0  0
  -28.2559  -21.0866   23.0845 H   0  0  0  0  0  0
  -26.9996  -23.1846   24.8963 H   0  0  0  0  0  0
  -26.8213  -21.2688   26.4809 H   0  0  0  0  0  0
  -26.6731  -19.6877   23.8783 H   0  0  0  0  0  0
  -25.8304  -19.0038   26.7975 H   0  0  0  0  0  0
  -26.2235  -17.3427   24.2729 H   0  0  0  0  0  0
  -24.9039  -16.7182   27.0304 H   0  0  0  0  0  0
  -25.7517  -14.9749   24.6770 H   0  0  0  0  0  0
  -24.0070  -14.4328   27.2052 H   0  0  0  0  0  0
  -25.3706  -12.5785   25.2067 H   0  0  0  0  0  0
  -23.2959  -12.1270   27.4991 H   0  0  0  0  0  0
  -24.9816  -10.2035   25.8369 H   0  0  0  0  0  0
  -22.7705   -9.8206   28.0168 H   0  0  0  0  0  0
  -24.5114   -7.8646   26.4640 H   0  0  0  0  0  0
  -22.3038   -7.5134   28.6534 H   0  0  0  0  0  0
  -24.0766   -5.5574   27.1332 H   0  0  0  0  0  0
  -21.9255   -5.1864   29.3714 H   0  0  0  0  0  0
  -23.6509   -3.2239   27.7924 H   0  0  0  0  0  0
  -29.6064  -22.7638   18.0510 H   0  0  0  0  0  0
  -27.9567  -22.3040   17.7470 H   0  0  0  0  0  0
  -27.1039  -23.9144   19.3253 H   0  0  0  0  0  0
  -28.2720  -24.7515   18.3377 H   0  0  0  0  0  0
  -29.1686  -20.6487   19.1508 H   0  0  0  0  0  0
  -27.7734  -21.2536   20.0021 H   0  0  0  0  0  0
  -29.9669  -24.6157   20.1424 H   0  0  0  0  0  0
  -30.8826  -17.7770   17.9333 H   0  0  0  0  0  0
  -30.2071  -16.2397   18.4314 H   0  0  0  0  0  0
  -31.9334  -16.5860   18.6740 H   0  0  0  0  0  0
  -29.0819  -17.3482   24.4233 H   0  0  0  0  0  0
  -29.9055  -15.9144   23.8255 H   0  0  0  0  0  0
  -28.2477  -16.2654   23.3133 H   0  0  0  0  0  0
  -21.6619   -2.9005   30.1485 H   0  0  0  0  0  0
  -23.0359   -1.8443   29.8105 H   0  0  0  0  0  0
  -21.6404   -1.8515   28.7259 H   0  0  0  0  0  0
  -31.5087  -21.4253   21.1810 H   0  0  0  0  0  0
  -30.4908  -21.4571   22.5594 H   0  0  0  0  0  0
  -28.8685  -25.9897   21.8816 H   0  0  0  0  0  0
  -27.2939  -25.4887   21.3034 H   0  0  0  0  0  0
  -29.0984  -15.0820   21.5619 H   0  0  0  0  0  0
  -30.3085  -22.5163   20.1698 H   0  0  0  0  0  0
  1 25  1  0  0  0
  1 30  2  0  0  0
  1106  1  0  0  0
  2  3  1  0  0  0
  2 25  1  0  0  0
  2108  1  0  0  0
  2109  1  0  0  0
  3  4  1  0  0  0
  3110  1  0  0  0
  3111  1  0  0  0
  4  5  1  0  0  0
  4112  1  0  0  0
  4113  1  0  0  0
  5  6  1  0  0  0
  5 26  1  0  0  0
  5114  1  0  0  0
  6 25  1  0  0  0
  6115  1  0  0  0
  6116  1  0  0  0
  7  8  2  0  0  0
  7 26  1  0  0  0
  7 29  1  0  0  0
  8  9  1  0  0  0
  8 22  1  0  0  0
  9 10  1  0  0  0
  9 27  2  0  0  0
 10 11  2  0  0  0
 10 15  1  0  0  0
 11 12  1  0  0  0
 11117  1  0  0  0
 12 13  2  0  0  0
 12118  1  0  0  0
 13 14  1  0  0  0
 13 31  1  0  0  0
 14 15  2  0  0  0
 14119  1  0  0  0
 15120  1  0  0  0
 16 17  2  0  0  0
 16 21  1  0  0  0
 16 31  1  0  0  0
 17 18  1  0  0  0
 17121  1  0  0  0
 18 19  2  0  0  0
 18122  1  0  0  0
 19 20  1  0  0  0
 19 24  1  0  0  0
 20 21  2  0  0  0
 20123  1  0  0  0
 21 23  1  0  0  0
 22 28  1  0  0  0
 22 32  2  0  0  0
 26 27  1  0  0  0
 28124  1  0  0  0
 28125  1  0  0  0
 29126  1  0  0  0
 29127  1  0  0  0
 33 34  1  0  0  0
 33 66  1  0  0  0
 33 70  2  0  0  0
 34 36  1  0  0  0
 34 59  1  0  0  0
 34128  1  0  0  0
 35 44  2  0  0  0
 35 45  1  0  0  0
 35 68  1  0  0  0
 36 56  1  0  0  0
 36129  1  0  0  0
 37 39  1  0  0  0
 37 47  1  0  0  0
 37 66  1  0  0  0
 37130  1  0  0  0
 38 43  2  0  0  0
 38 46  1  0  0  0
 38 47  1  0  0  0
 39 64  1  0  0  0
 39 67  2  0  0  0
 40 52  1  0  0  0
 40 53  2  0  0  0
 40 58  1  0  0  0
 41131  1  0  0  0
 41132  1  0  0  0
 41133  1  0  0  0
 41 48  1  0  0  0
 42 43  1  0  0  0
 42 66  1  0  0  0
 42134  1  0  0  0
 42135  1  0  0  0
 43 44  1  0  0  0
 44136  1  0  0  0
 45 46  2  0  0  0
 45137  1  0  0  0
 46138  1  0  0  0
 47139  1  0  0  0
 47140  1  0  0  0
 48 56  1  0  0  0
 48 65  1  0  0  0
 48141  1  0  0  0
 49 50  1  0  0  0
 49 53  1  0  0  0
 49 64  1  0  0  0
 49142  1  0  0  0
 50 51  1  0  0  0
 50143  1  0  0  0
 50144  1  0  0  0
 51 52  1  0  0  0
 51145  1  0  0  0
 51146  1  0  0  0
 52147  1  0  0  0
 52148  1  0  0  0
 53 54  1  0  0  0
 54 55  2  0  0  0
 54149  1  0  0  0
 55 57  1  0  0  0
 55150  1  0  0  0
 56 69  2  0  0  0
 57 58  2  0  0  0
 57151  1  0  0  0
 58152  1  0  0  0
 59 60  1  0  0  0
 59 61  1  0  0  0
 59 62  1  0  0  0
 60153  1  0  0  0
 60154  1  0  0  0
 60155  1  0  0  0
 61156  1  0  0  0
 61157  1  0  0  0
 61158  1  0  0  0
 62159  1  0  0  0
 62160  1  0  0  0
 62161  1  0  0  0
 63 65  1  0  0  0
 63162  1  0  0  0
 63163  1  0  0  0
 63164  1  0  0  0
 64165  1  0  0  0
 65166  1  0  0  0
 68105  1  0  0  0
 71 73  2  0  0  0
 71 74  1  0  0  0
 71167  1  0  0  0
 72 73  1  0  0  0
 72 75  2  0  0  0
 72168  1  0  0  0
 73104  1  0  0  0
 74 76  2  0  0  0
 74101  1  0  0  0
 75 76  1  0  0  0
 75102  1  0  0  0
 76106  1  0  0  0
 77 78  2  0  0  0
 77100  1  0  0  0
 77107  1  0  0  0
 78 79  1  0  0  0
 78169  1  0  0  0
 79 80  2  0  0  0
 79170  1  0  0  0
 80 81  1  0  0  0
 80171  1  0  0  0
 81 82  2  0  0  0
 81172  1  0  0  0
 82 83  1  0  0  0
 82173  1  0  0  0
 83 84  2  0  0  0
 83174  1  0  0  0
 84 85  1  0  0  0
 84175  1  0  0  0
 85 86  2  0  0  0
 85176  1  0  0  0
 86 87  1  0  0  0
 86177  1  0  0  0
 87 88  2  0  0  0
 87178  1  0  0  0
 88 89  1  0  0  0
 88179  1  0  0  0
 89 90  2  0  0  0
 89180  1  0  0  0
 90 91  1  0  0  0
 90181  1  0  0  0
 91 92  2  0  0  0
 91182  1  0  0  0
 92 93  1  0  0  0
 92183  1  0  0  0
 93 94  2  0  0  0
 93184  1  0  0  0
 94 95  1  0  0  0
 94185  1  0  0  0
 95 96  2  0  0  0
 95186  1  0  0  0
 96103  1  0  0  0
 96187  1  0  0  0
 97 98  1  0  0  0
 97 99  1  0  0  0
 97188  1  0  0  0
 97189  1  0  0  0
 98100  1  0  0  0
 98190  1  0  0  0
 98191  1  0  0  0
 99107  1  0  0  0
 99192  1  0  0  0
 99193  1  0  0  0
100105  1  0  0  0
100194  1  0  0  0
101195  1  0  0  0
101196  1  0  0  0
101197  1  0  0  0
102198  1  0  0  0
102199  1  0  0  0
102200  1  0  0  0
103201  1  0  0  0
103202  1  0  0  0
103203  1  0  0  0
104204  1  0  0  0
104205  1  0  0  0
104107  1  0  0  0
105206  1  0  0  0
105207  1  0  0  0
106208  1  0  0  0
107209  1  0  0  0
M  CHG  1 107   1
M  ISO  4   1 100  68 101 105 101 106 100
M  END
> <chiral flag>
0

> <version>
0

> <s_m_source_file>
/data/baiqing/PycharmProjects/Reinvent-master-3.2/result/LINK_invent/BTK/process_docking_weight1_custom_product_contain_oxygen_bond_distance_aromatic_linkinvent_7_9_3/rearranged_h_0041.sdf

> <i_m_source_file_index>
83

> <r_mmod_Potential_Energy-OPLS-2005>
-99.7363128662109

> <r_mmod_Stretch_Energy-OPLS-2005>
38.3121566772461

> <r_mmod_Bend_Energy-OPLS-2005>
143.237838745117

> <r_mmod_Torsional_Energy-OPLS-2005>
262.784118652344

> <r_mmod_Improper_Torsional_Energy-OPLS-2005>
4.96207523345947

> <r_mmod_Van_der_Waal_Energy-OPLS-2005>
149.956665039062

> <r_mmod_Electrostatic_Energy-OPLS-2005>
-291.369995117188

> <r_mmod_Solvation_Energy-OPLS-2005>
-418.287170410156

> <b_mmod_Minimization_Converged-OPLS-2005>
0

> <r_mmod_RMS_Derivative-OPLS-2005>
3.60957813262939

$$$$
83
                    3D
 Structure written by MMmdl.
177186  0  0  1  0            999 V2000
  -30.6518  -14.7549   20.4393 C   0  0  0  0  0  0
  -30.4187  -12.4590   19.4786 C   0  0  0  0  0  0
  -29.5041  -12.5022   18.2369 C   0  0  0  0  0  0
  -28.0320  -12.3284   18.6532 C   0  0  0  0  0  0
  -27.6364  -13.2406   19.8453 C   0  0  2  0  0  0
  -28.6832  -13.2119   20.9807 C   0  0  0  0  0  0
  -25.2489  -13.8222   20.5707 C   0  0  0  0  0  0
  -24.1790  -13.0447   20.9219 C   0  0  0  0  0  0
  -24.6391  -11.6931   20.8747 C   0  0  0  0  0  0
  -23.9072  -10.4298   21.0400 C   0  0  0  0  0  0
  -24.3622   -9.4211   21.9176 C   0  0  0  0  0  0
  -23.6299   -8.2244   22.0750 C   0  0  0  0  0  0
  -22.4281   -8.0279   21.3542 C   0  0  0  0  0  0
  -21.9917   -9.0249   20.4641 C   0  0  0  0  0  0
  -22.7243  -10.2133   20.3049 C   0  0  0  0  0  0
  -21.6855   -6.0732   22.5274 C   0  0  0  0  0  0
  -21.4017   -6.5636   23.8207 C   0  0  0  0  0  0
  -21.3661   -5.6793   24.9171 C   0  0  0  0  0  0
  -21.6046   -4.3054   24.7225 C   0  0  0  0  0  0
  -21.8822   -3.8144   23.4345 C   0  0  0  0  0  0
  -21.9196   -4.6960   22.3398 C   0  0  0  0  0  0
  -22.7811  -13.5216   21.1877 C   0  0  0  0  0  0
  -22.1664   -4.2143   21.0978 F   0  0  0  0  0  0
  -21.5629   -3.4538   25.7738 F   0  0  0  0  0  0
  -29.9828  -13.5483   20.3884 N   0  0  0  0  0  0
  -26.2914  -12.9439   20.3283 N   0  0  0  0  0  0
  -25.9323  -11.6571   20.5757 N   0  0  0  0  0  0
  -22.0467  -12.8188   22.0432 N   0  0  0  0  0  0
  -25.4164  -15.1943   20.4122 N   0  0  0  0  0  0
  -31.8509  -14.7514   20.1611 O   0  0  0  0  0  0
  -21.6647   -6.8874   21.4236 O   0  0  0  0  0  0
  -22.3488  -14.5517   20.6726 O   0  0  0  0  0  0
  -24.6298  -31.8550   23.1994 C   0  0  0  0  0  0
  -25.9129  -32.4743   23.8322 C   0  0  1  0  0  0
  -27.2082  -27.2556   20.1433 C   0  0  0  0  0  0
  -25.5929  -33.8542   24.2236 N   0  0  0  0  0  0
  -23.4256  -30.4763   21.5438 C   0  0  2  0  0  0
  -24.8715  -28.9180   20.1160 C   0  0  0  0  0  0
  -22.7497  -29.4583   22.4938 C   0  0  0  0  0  0
  -18.0282  -28.1369   22.8461 C   0  0  0  0  0  0
  -24.1497  -36.7282   23.2645 C   0  0  0  0  0  0
  -25.9694  -30.7639   21.3813 C   0  0  0  0  0  0
  -26.0412  -29.3815   20.7341 C   0  0  0  0  0  0
  -27.2146  -28.5606   20.7406 C   0  0  0  0  0  0
  -26.0328  -26.8737   19.4683 C   0  0  0  0  0  0
  -24.8716  -27.6708   19.4723 C   0  0  0  0  0  0
  -23.6448  -29.8095   20.1594 C   0  0  0  0  0  0
  -25.4119  -36.3057   24.0329 C   0  0  1  0  0  0
  -20.5871  -28.3669   23.1277 C   0  0  2  0  0  0
  -20.6765  -26.9390   22.5401 C   0  0  0  0  0  0
  -19.5745  -26.6360   21.5197 C   0  0  0  0  0  0
  -18.1923  -26.7903   22.1608 C   0  0  0  0  0  0
  -19.1531  -28.8837   23.2853 C   0  0  0  0  0  0
  -18.9475  -30.1434   23.8871 C   0  0  0  0  0  0
  -17.6482  -30.6576   24.0543 C   0  0  0  0  0  0
  -25.9063  -34.9432   23.5085 C   0  0  0  0  0  0
  -16.5366  -29.9070   23.6331 C   0  0  0  0  0  0
  -16.7273  -28.6487   23.0345 C   0  0  0  0  0  0
  -26.4490  -31.6574   25.0714 C   0  0  0  0  0  0
  -25.3703  -31.3745   26.1437 C   0  0  0  0  0  0
  -27.0342  -30.2990   24.6190 C   0  0  0  0  0  0
  -27.6016  -32.4344   25.7501 C   0  0  0  0  0  0
  -27.5570  -37.1791   24.8463 C   0  0  0  0  0  0
  -21.4201  -29.3028   22.3686 N   0  0  0  0  0  0
  -26.4280  -37.3755   23.9409 N   0  0  0  0  0  0
  -24.6937  -31.0503   22.0983 N   0  0  0  0  0  0
  -23.4199  -28.8122   23.3033 O   0  0  0  0  0  0
  -28.3081  -26.3714   20.0910 O   0  0  0  0  0  0
  -26.5644  -34.8911   22.4657 O   0  0  0  0  0  0
  -23.5451  -32.1391   23.7290 O   0  0  0  0  0  0
  -31.6475  -17.6981   19.9395 C   0  0  0  0  0  0
  -29.4533  -18.5463   20.4785 C   0  0  0  0  0  0
  -32.0488  -18.9976   19.5717 C   0  0  0  0  0  0
  -29.8295  -19.9226   20.1338 C   0  0  0  0  0  0
  -31.1479  -20.0912   19.6112 C   0  0  0  0  0  0
  -30.3335  -17.3843   20.3580 C   0  0  0  0  0  0
  -27.9495  -23.7218   20.7057 C   0  0  0  0  0  0
  -24.6088  -22.2878   19.9489 C   0  0  0  0  0  0
  -26.6230  -23.5767   20.4765 C   0  0  0  0  0  0
  -25.8188  -22.3688   20.5229 C   0  0  0  0  0  0
  -29.8559  -24.2921   23.7077 C   0  0  0  0  0  0
  -28.3820  -24.7096   23.5902 C   0  0  0  0  0  0
  -30.1602  -22.8797   23.1815 C   0  0  0  0  0  0
  -28.0932  -25.6739   22.4315 C   0  0  0  0  0  0
  -30.1952  -22.6755   21.6511 C   0  0  0  0  0  0
  -28.5117  -25.1998   21.0200 C   0  0  2  0  0  0
  -33.4795  -19.1817   19.0817 C   0  0  0  0  0  0
  -31.6363  -21.4242   19.0354 C   0  0  0  0  0  0
  -28.8076  -21.1736   20.1062 C   0  0  0  0  0  0
  -29.9416  -15.9514   20.6030 N   0  0  0  0  0  0
  -28.8557  -22.4284   21.0356 N   0  3  2  0  0  0
  -31.4614  -12.5552   19.1728 H   0  0  0  0  0  0
  -30.3452  -11.4924   19.9793 H   0  0  0  0  0  0
  -29.7857  -11.7203   17.5299 H   0  0  0  0  0  0
  -29.6313  -13.4508   17.7130 H   0  0  0  0  0  0
  -27.8918  -11.2824   18.9260 H   0  0  0  0  0  0
  -27.3735  -12.5095   17.8019 H   0  0  0  0  0  0
  -27.6207  -14.2558   19.4472 H   0  0  0  0  0  0
  -28.7195  -12.2304   21.4552 H   0  0  0  0  0  0
  -28.4202  -13.9237   21.7645 H   0  0  0  0  0  0
  -25.2762   -9.5694   22.4756 H   0  0  0  0  0  0
  -24.0007   -7.4641   22.7471 H   0  0  0  0  0  0
  -21.0846   -8.8763   19.8947 H   0  0  0  0  0  0
  -22.3688  -10.9669   19.6162 H   0  0  0  0  0  0
  -21.2007   -7.6144   23.9707 H   0  0  0  0  0  0
  -21.1483   -6.0523   25.9074 H   0  0  0  0  0  0
  -22.0600   -2.7604   23.2847 H   0  0  0  0  0  0
  -22.4104  -11.9853   22.4809 H   0  0  0  0  0  0
  -21.1083  -13.1191   22.2648 H   0  0  0  0  0  0
  -24.6454  -15.8452   20.5156 H   0  0  0  0  0  0
  -26.2598  -15.6328   20.0662 H   0  0  0  0  0  0
  -26.7185  -32.5412   23.1056 H   0  0  0  0  0  0
  -25.0026  -33.9661   25.0348 H   0  0  0  0  0  0
  -22.7223  -31.2995   21.3993 H   0  0  0  0  0  0
  -23.3748  -35.9628   23.3305 H   0  0  0  0  0  0
  -24.3572  -36.8907   22.2053 H   0  0  0  0  0  0
  -23.7263  -37.6484   23.6686 H   0  0  0  0  0  0
  -26.1019  -31.5208   20.6065 H   0  0  0  0  0  0
  -26.8490  -30.8172   22.0111 H   0  0  0  0  0  0
  -28.1152  -28.9132   21.2225 H   0  0  0  0  0  0
  -26.0069  -25.9436   18.9197 H   0  0  0  0  0  0
  -23.9841  -27.3210   18.9613 H   0  0  0  0  0  0
  -23.7725  -30.5869   19.4056 H   0  0  0  0  0  0
  -22.7613  -29.2457   19.8545 H   0  0  0  0  0  0
  -25.1296  -36.1889   25.0818 H   0  0  0  0  0  0
  -20.9937  -28.3241   24.1402 H   0  0  0  0  0  0
  -20.5651  -26.2279   23.3603 H   0  0  0  0  0  0
  -21.6645  -26.7413   22.1201 H   0  0  0  0  0  0
  -19.6918  -25.6265   21.1235 H   0  0  0  0  0  0
  -19.6691  -27.3170   20.6724 H   0  0  0  0  0  0
  -17.4184  -26.6633   21.4015 H   0  0  0  0  0  0
  -18.0323  -26.0060   22.9021 H   0  0  0  0  0  0
  -19.7968  -30.7224   24.2240 H   0  0  0  0  0  0
  -17.5059  -31.6267   24.5136 H   0  0  0  0  0  0
  -15.5363  -30.2972   23.7685 H   0  0  0  0  0  0
  -15.8665  -28.0814   22.7069 H   0  0  0  0  0  0
  -24.5871  -30.7095   25.7775 H   0  0  0  0  0  0
  -24.8906  -32.2928   26.4833 H   0  0  0  0  0  0
  -25.8011  -30.8941   27.0229 H   0  0  0  0  0  0
  -26.2913  -29.6730   24.1229 H   0  0  0  0  0  0
  -27.4028  -29.7263   25.4707 H   0  0  0  0  0  0
  -27.8794  -30.4258   23.9423 H   0  0  0  0  0  0
  -27.2572  -33.3646   26.2034 H   0  0  0  0  0  0
  -28.3848  -32.6888   25.0351 H   0  0  0  0  0  0
  -28.0655  -31.8497   26.5459 H   0  0  0  0  0  0
  -28.2570  -38.0104   24.7497 H   0  0  0  0  0  0
  -28.1075  -36.2619   24.6305 H   0  0  0  0  0  0
  -27.2280  -37.1446   25.8864 H   0  0  0  0  0  0
  -20.9393  -29.8771   21.6902 H   0  0  0  0  0  0
  -26.0161  -38.2823   24.1428 H   0  0  0  0  0  0
  -32.4009  -16.9364   19.8417 H   0  0  0  0  0  0
  -28.4358  -18.3716   20.7987 H   0  0  0  0  0  0
  -24.0200  -21.3834   20.0228 H   0  0  0  0  0  0
  -24.1842  -23.1143   19.3966 H   0  0  0  0  0  0
  -26.0538  -24.4868   20.4209 H   0  0  0  0  0  0
  -26.1487  -21.5047   21.0777 H   0  0  0  0  0  0
  -30.1144  -24.2984   24.7680 H   0  0  0  0  0  0
  -30.5189  -25.0319   23.2572 H   0  0  0  0  0  0
  -28.1012  -25.2244   24.5102 H   0  0  0  0  0  0
  -27.7275  -23.8381   23.5482 H   0  0  0  0  0  0
  -29.5031  -22.1476   23.6531 H   0  0  0  0  0  0
  -31.1572  -22.6312   23.5497 H   0  0  0  0  0  0
  -28.5916  -26.6205   22.6413 H   0  0  0  0  0  0
  -27.0249  -25.8953   22.4421 H   0  0  0  0  0  0
  -30.8025  -21.7836   21.5533 H   0  0  0  0  0  0
  -30.7758  -23.4369   21.1334 H   0  0  0  0  0  0
  -29.5936  -25.1405   21.0194 H   0  0  0  0  0  0
  -34.1058  -18.3251   19.3310 H   0  0  0  0  0  0
  -33.9480  -20.0561   19.5334 H   0  0  0  0  0  0
  -33.4993  -19.3001   17.9983 H   0  0  0  0  0  0
  -32.0532  -21.2737   18.0392 H   0  0  0  0  0  0
  -32.4246  -21.8467   19.6598 H   0  0  0  0  0  0
  -30.8705  -22.1862   18.9210 H   0  0  0  0  0  0
  -27.8368  -20.7051   20.2170 H   0  0  0  0  0  0
  -28.7865  -21.5446   19.0821 H   0  0  0  0  0  0
  -28.9700  -15.8106   20.8318 H   0  0  0  0  0  0
  -28.4034  -22.0205   21.8383 H   0  0  0  0  0  0
  1 25  1  0  0  0
  1 30  2  0  0  0
  1 90  1  0  0  0
  2  3  1  0  0  0
  2 25  1  0  0  0
  2 92  1  0  0  0
  2 93  1  0  0  0
  3  4  1  0  0  0
  3 94  1  0  0  0
  3 95  1  0  0  0
  4  5  1  0  0  0
  4 96  1  0  0  0
  4 97  1  0  0  0
  5  6  1  0  0  0
  5 26  1  0  0  0
  5 98  1  0  0  0
  6 25  1  0  0  0
  6 99  1  0  0  0
  6100  1  0  0  0
  7  8  2  0  0  0
  7 26  1  0  0  0
  7 29  1  0  0  0
  8  9  1  0  0  0
  8 22  1  0  0  0
  9 10  1  0  0  0
  9 27  2  0  0  0
 10 11  2  0  0  0
 10 15  1  0  0  0
 11 12  1  0  0  0
 11101  1  0  0  0
 12 13  2  0  0  0
 12102  1  0  0  0
 13 14  1  0  0  0
 13 31  1  0  0  0
 14 15  2  0  0  0
 14103  1  0  0  0
 15104  1  0  0  0
 16 17  2  0  0  0
 16 21  1  0  0  0
 16 31  1  0  0  0
 17 18  1  0  0  0
 17105  1  0  0  0
 18 19  2  0  0  0
 18106  1  0  0  0
 19 20  1  0  0  0
 19 24  1  0  0  0
 20 21  2  0  0  0
 20107  1  0  0  0
 21 23  1  0  0  0
 22 28  1  0  0  0
 22 32  2  0  0  0
 26 27  1  0  0  0
 28108  1  0  0  0
 28109  1  0  0  0
 29110  1  0  0  0
 29111  1  0  0  0
 33 34  1  0  0  0
 33 66  1  0  0  0
 33 70  2  0  0  0
 34 36  1  0  0  0
 34 59  1  0  0  0
 34112  1  0  0  0
 35 44  2  0  0  0
 35 45  1  0  0  0
 35 68  1  0  0  0
 36 56  1  0  0  0
 36113  1  0  0  0
 37 39  1  0  0  0
 37 47  1  0  0  0
 37 66  1  0  0  0
 37114  1  0  0  0
 38 43  2  0  0  0
 38 46  1  0  0  0
 38 47  1  0  0  0
 39 64  1  0  0  0
 39 67  2  0  0  0
 40 52  1  0  0  0
 40 53  2  0  0  0
 40 58  1  0  0  0
 41115  1  0  0  0
 41116  1  0  0  0
 41117  1  0  0  0
 41 48  1  0  0  0
 42 43  1  0  0  0
 42 66  1  0  0  0
 42118  1  0  0  0
 42119  1  0  0  0
 43 44  1  0  0  0
 44120  1  0  0  0
 45 46  2  0  0  0
 45121  1  0  0  0
 46122  1  0  0  0
 47123  1  0  0  0
 47124  1  0  0  0
 48 56  1  0  0  0
 48 65  1  0  0  0
 48125  1  0  0  0
 49 50  1  0  0  0
 49 53  1  0  0  0
 49 64  1  0  0  0
 49126  1  0  0  0
 50 51  1  0  0  0
 50127  1  0  0  0
 50128  1  0  0  0
 51 52  1  0  0  0
 51129  1  0  0  0
 51130  1  0  0  0
 52131  1  0  0  0
 52132  1  0  0  0
 53 54  1  0  0  0
 54 55  2  0  0  0
 54133  1  0  0  0
 55 57  1  0  0  0
 55134  1  0  0  0
 56 69  2  0  0  0
 57 58  2  0  0  0
 57135  1  0  0  0
 58136  1  0  0  0
 59 60  1  0  0  0
 59 61  1  0  0  0
 59 62  1  0  0  0
 60137  1  0  0  0
 60138  1  0  0  0
 60139  1  0  0  0
 61140  1  0  0  0
 61141  1  0  0  0
 61142  1  0  0  0
 62143  1  0  0  0
 62144  1  0  0  0
 62145  1  0  0  0
 63 65  1  0  0  0
 63146  1  0  0  0
 63147  1  0  0  0
 63148  1  0  0  0
 64149  1  0  0  0
 65150  1  0  0  0
 68 86  1  0  0  0
 71 73  2  0  0  0
 71 76  1  0  0  0
 71151  1  0  0  0
 72 74  1  0  0  0
 72 76  2  0  0  0
 72152  1  0  0  0
 73 75  1  0  0  0
 73 87  1  0  0  0
 74 75  2  0  0  0
 74 89  1  0  0  0
 75 88  1  0  0  0
 76 90  1  0  0  0
 77 79  2  0  0  0
 77 86  1  0  0  0
 77 91  1  0  0  0
 78 80  2  0  0  0
 78153  1  0  0  0
 78154  1  0  0  0
 79 80  1  0  0  0
 79155  1  0  0  0
 80156  1  0  0  0
 81 82  1  0  0  0
 81 83  1  0  0  0
 81157  1  0  0  0
 81158  1  0  0  0
 82 84  1  0  0  0
 82159  1  0  0  0
 82160  1  0  0  0
 83 85  1  0  0  0
 83161  1  0  0  0
 83162  1  0  0  0
 84 86  1  0  0  0
 84163  1  0  0  0
 84164  1  0  0  0
 85 91  1  0  0  0
 85165  1  0  0  0
 85166  1  0  0  0
 86167  1  0  0  0
 87168  1  0  0  0
 87169  1  0  0  0
 87170  1  0  0  0
 88171  1  0  0  0
 88172  1  0  0  0
 88173  1  0  0  0
 89174  1  0  0  0
 89175  1  0  0  0
 89 91  1  0  0  0
 90176  1  0  0  0
 91177  1  0  0  0
M  CHG  1  91   1
M  ISO  4   1 100  68 101  86 101  90 100
M  END
> <chiral flag>
0

> <version>
0

> <s_m_source_file>
/data/baiqing/PycharmProjects/Reinvent-master-3.2/result/LINK_invent/BTK/process_docking_weight1_custom_product_contain_oxygen_bond_distance_aromatic_linkinvent_7_9_3/rearranged_h_0041.sdf

> <i_m_source_file_index>
84

> <r_mmod_Potential_Energy-OPLS-2005>
244.60774230957

> <r_mmod_Stretch_Energy-OPLS-2005>
167.159423828125

> <r_mmod_Bend_Energy-OPLS-2005>
245.952545166016

> <r_mmod_Torsional_Energy-OPLS-2005>
275.163818359375

> <r_mmod_Improper_Torsional_Energy-OPLS-2005>
7.0327262878418

> <r_mmod_Van_der_Waal_Energy-OPLS-2005>
159.451034545898

> <r_mmod_Electrostatic_Energy-OPLS-2005>
-281.197906494141

> <r_mmod_Solvation_Energy-OPLS-2005>
-416.674407958984

> <b_mmod_Minimization_Converged-OPLS-2005>
0

> <r_mmod_RMS_Derivative-OPLS-2005>
1.94750320911407

$$$$
84
                    3D
 Structure written by MMmdl.
173182  0  0  1  0            999 V2000
  -30.6422  -14.5807   20.5067 C   0  0  0  0  0  0
  -30.4276  -12.3493   19.4695 C   0  0  0  0  0  0
  -29.5093  -12.4993   18.2353 C   0  0  0  0  0  0
  -28.0269  -12.3622   18.6348 C   0  0  0  0  0  0
  -27.6556  -13.2185   19.8748 C   0  0  2  0  0  0
  -28.6927  -13.0476   21.0088 C   0  0  0  0  0  0
  -25.2529  -13.8226   20.5639 C   0  0  0  0  0  0
  -24.1794  -13.0466   20.9129 C   0  0  0  0  0  0
  -24.6356  -11.6941   20.8695 C   0  0  0  0  0  0
  -23.9029  -10.4308   21.0362 C   0  0  0  0  0  0
  -24.3582   -9.4238   21.9150 C   0  0  0  0  0  0
  -23.6275   -8.2257   22.0712 C   0  0  0  0  0  0
  -22.4265   -8.0265   21.3502 C   0  0  0  0  0  0
  -21.9889   -9.0239   20.4608 C   0  0  0  0  0  0
  -22.7189  -10.2136   20.3022 C   0  0  0  0  0  0
  -21.6856   -6.0726   22.5263 C   0  0  0  0  0  0
  -21.4032   -6.5624   23.8202 C   0  0  0  0  0  0
  -21.3668   -5.6778   24.9162 C   0  0  0  0  0  0
  -21.6047   -4.3040   24.7222 C   0  0  0  0  0  0
  -21.8823   -3.8134   23.4346 C   0  0  0  0  0  0
  -21.9180   -4.6949   22.3404 C   0  0  0  0  0  0
  -22.7816  -13.5233   21.1834 C   0  0  0  0  0  0
  -22.1621   -4.2136   21.0982 F   0  0  0  0  0  0
  -21.5655   -3.4528   25.7737 F   0  0  0  0  0  0
  -30.0188  -13.3650   20.4564 N   0  0  0  0  0  0
  -26.2961  -12.9384   20.3318 N   0  0  0  0  0  0
  -25.9284  -11.6532   20.5708 N   0  0  0  0  0  0
  -22.0502  -12.8191   22.0392 N   0  0  0  0  0  0
  -25.4249  -15.1959   20.4082 N   0  0  0  0  0  0
  -31.7898  -14.7422   20.0756 O   0  0  0  0  0  0
  -21.6631   -6.8860   21.4217 O   0  0  0  0  0  0
  -22.3476  -14.5535   20.6706 O   0  0  0  0  0  0
  -24.6233  -31.8578   23.2045 C   0  0  0  0  0  0
  -25.9103  -32.4755   23.8365 C   0  0  1  0  0  0
  -27.2360  -27.3597   20.1301 C   0  0  0  0  0  0
  -25.5951  -33.8559   24.2306 N   0  0  0  0  0  0
  -23.4162  -30.4783   21.5444 C   0  0  2  0  0  0
  -24.8645  -28.9260   20.1200 C   0  0  0  0  0  0
  -22.7467  -29.4607   22.4968 C   0  0  0  0  0  0
  -18.0272  -28.1399   22.8482 C   0  0  0  0  0  0
  -24.1501  -36.7271   23.2644 C   0  0  0  0  0  0
  -25.9506  -30.8029   21.3671 C   0  0  0  0  0  0
  -26.0271  -29.4312   20.7151 C   0  0  0  0  0  0
  -27.2186  -28.6593   20.7051 C   0  0  0  0  0  0
  -26.0575  -26.8829   19.5215 C   0  0  0  0  0  0
  -24.8773  -27.6544   19.5183 C   0  0  0  0  0  0
  -23.6292  -29.8017   20.1626 C   0  0  0  0  0  0
  -25.4118  -36.3061   24.0349 C   0  0  1  0  0  0
  -20.5869  -28.3688   23.1294 C   0  0  2  0  0  0
  -20.6762  -26.9409   22.5414 C   0  0  0  0  0  0
  -19.5736  -26.6386   21.5216 C   0  0  0  0  0  0
  -18.1913  -26.7953   22.1617 C   0  0  0  0  0  0
  -19.1520  -28.8863   23.2883 C   0  0  0  0  0  0
  -18.9450  -30.1473   23.8896 C   0  0  0  0  0  0
  -17.6448  -30.6605   24.0562 C   0  0  0  0  0  0
  -25.9049  -34.9431   23.5117 C   0  0  0  0  0  0
  -16.5340  -29.9102   23.6339 C   0  0  0  0  0  0
  -16.7256  -28.6517   23.0359 C   0  0  0  0  0  0
  -26.4520  -31.6573   25.0727 C   0  0  0  0  0  0
  -25.3787  -31.3655   26.1469 C   0  0  0  0  0  0
  -27.0368  -30.3012   24.6150 C   0  0  0  0  0  0
  -27.6095  -32.4297   25.7495 C   0  0  0  0  0  0
  -27.5585  -37.1781   24.8466 C   0  0  0  0  0  0
  -21.4184  -29.3038   22.3705 N   0  0  0  0  0  0
  -26.4292  -37.3758   23.9417 N   0  0  0  0  0  0
  -24.6816  -31.0639   22.0957 N   0  0  0  0  0  0
  -23.4215  -28.8154   23.3032 O   0  0  0  0  0  0
  -28.3913  -26.5878   20.1189 O   0  0  0  0  0  0
  -26.5586  -34.8910   22.4669 O   0  0  0  0  0  0
  -23.5413  -32.1366   23.7402 O   0  0  0  0  0  0
  -29.2657  -19.2848   18.7086 C   0  0  0  0  0  0
  -29.4674  -16.8487   18.8121 C   0  0  0  0  0  0
  -29.7119  -18.1828   20.8376 C   0  0  0  0  0  0
  -29.2288  -18.0271   18.0755 C   0  0  0  0  0  0
  -29.4964  -19.3979   20.0955 C   0  0  0  0  0  0
  -29.7258  -16.8965   20.2000 C   0  0  0  0  0  0
  -28.3724  -22.8385   19.5808 C   0  0  0  0  0  0
  -27.5885  -22.7307   18.4895 C   0  0  0  0  0  0
  -29.1680  -24.1138   19.9303 C   0  0  0  0  0  0
  -26.9085  -23.3673   21.9057 C   0  0  0  0  0  0
  -27.3675  -24.8492   21.8055 C   0  0  0  0  0  0
  -28.0219  -22.2840   21.9791 C   0  0  0  0  0  0
  -28.4472  -25.2580   20.7450 C   0  0  2  0  0  0
  -28.9306  -17.9470   16.5920 C   0  0  0  0  0  0
  -25.1955  -22.0295   18.1168 C   0  0  0  0  0  0
  -29.6211  -20.8283   20.7132 C   0  0  0  0  0  0
  -26.6621  -21.5814   18.1295 C   0  0  0  0  0  0
  -29.8903  -15.6434   20.9141 N   0  0  0  0  0  0
  -28.4184  -21.7502   20.6458 N   0  3  2  0  0  0
  -31.4727  -12.4573   19.1768 H   0  0  0  0  0  0
  -30.3419  -11.3499   19.9012 H   0  0  0  0  0  0
  -29.7602  -11.7486   17.4846 H   0  0  0  0  0  0
  -29.6791  -13.4692   17.7661 H   0  0  0  0  0  0
  -27.8380  -11.3076   18.8434 H   0  0  0  0  0  0
  -27.3853  -12.6246   17.7930 H   0  0  0  0  0  0
  -27.6861  -14.2601   19.5559 H   0  0  0  0  0  0
  -28.6764  -12.0248   21.3885 H   0  0  0  0  0  0
  -28.4487  -13.6838   21.8600 H   0  0  0  0  0  0
  -25.2709   -9.5742   22.4734 H   0  0  0  0  0  0
  -23.9982   -7.4641   22.7423 H   0  0  0  0  0  0
  -21.0829   -8.8757   19.8906 H   0  0  0  0  0  0
  -22.3612  -10.9678   19.6150 H   0  0  0  0  0  0
  -21.2043   -7.6126   23.9729 H   0  0  0  0  0  0
  -21.1464   -6.0490   25.9068 H   0  0  0  0  0  0
  -22.0598   -2.7597   23.2855 H   0  0  0  0  0  0
  -22.4112  -11.9824   22.4734 H   0  0  0  0  0  0
  -21.1142  -13.1223   22.2668 H   0  0  0  0  0  0
  -24.6670  -15.8548   20.5460 H   0  0  0  0  0  0
  -26.2864  -15.6435   20.1224 H   0  0  0  0  0  0
  -26.7173  -32.5436   23.1123 H   0  0  0  0  0  0
  -25.0185  -33.9713   25.0513 H   0  0  0  0  0  0
  -22.7093  -31.2971   21.3966 H   0  0  0  0  0  0
  -23.3774  -35.9589   23.3274 H   0  0  0  0  0  0
  -24.3585  -36.8905   22.2058 H   0  0  0  0  0  0
  -23.7260  -37.6475   23.6667 H   0  0  0  0  0  0
  -26.0816  -31.5653   20.5988 H   0  0  0  0  0  0
  -26.8309  -30.8484   21.9952 H   0  0  0  0  0  0
  -28.1199  -29.0470   21.1584 H   0  0  0  0  0  0
  -26.0494  -25.9012   19.0687 H   0  0  0  0  0  0
  -23.9828  -27.2564   19.0598 H   0  0  0  0  0  0
  -23.7459  -30.5710   19.3991 H   0  0  0  0  0  0
  -22.7542  -29.2226   19.8620 H   0  0  0  0  0  0
  -25.1306  -36.1898   25.0843 H   0  0  0  0  0  0
  -20.9936  -28.3238   24.1424 H   0  0  0  0  0  0
  -20.5671  -26.2282   23.3612 H   0  0  0  0  0  0
  -21.6627  -26.7448   22.1181 H   0  0  0  0  0  0
  -19.6882  -25.6291   21.1258 H   0  0  0  0  0  0
  -19.6696  -27.3188   20.6744 H   0  0  0  0  0  0
  -17.4190  -26.6714   21.4016 H   0  0  0  0  0  0
  -18.0284  -26.0108   22.9017 H   0  0  0  0  0  0
  -19.7926  -30.7293   24.2268 H   0  0  0  0  0  0
  -17.5001  -31.6290   24.5156 H   0  0  0  0  0  0
  -15.5341  -30.3000   23.7698 H   0  0  0  0  0  0
  -15.8642  -28.0851   22.7081 H   0  0  0  0  0  0
  -24.5994  -30.6973   25.7787 H   0  0  0  0  0  0
  -24.8977  -32.2801   26.4940 H   0  0  0  0  0  0
  -25.8165  -30.8809   27.0214 H   0  0  0  0  0  0
  -26.2906  -29.6728   24.1271 H   0  0  0  0  0  0
  -27.4196  -29.7290   25.4622 H   0  0  0  0  0  0
  -27.8733  -30.4315   23.9272 H   0  0  0  0  0  0
  -27.2711  -33.3587   26.2089 H   0  0  0  0  0  0
  -28.3902  -32.6855   25.0316 H   0  0  0  0  0  0
  -28.0778  -31.8420   26.5403 H   0  0  0  0  0  0
  -28.2569  -38.0107   24.7526 H   0  0  0  0  0  0
  -28.1119  -36.2640   24.6271 H   0  0  0  0  0  0
  -27.2296  -37.1384   25.8865 H   0  0  0  0  0  0
  -20.9377  -29.8748   21.6895 H   0  0  0  0  0  0
  -26.0170  -38.2831   24.1435 H   0  0  0  0  0  0
  -29.1249  -20.1748   18.1097 H   0  0  0  0  0  0
  -29.4378  -15.8966   18.3003 H   0  0  0  0  0  0
  -29.9052  -18.2384   21.9018 H   0  0  0  0  0  0
  -27.5669  -23.5640   17.7998 H   0  0  0  0  0  0
  -29.5503  -24.5343   19.0001 H   0  0  0  0  0  0
  -30.0636  -23.8000   20.4708 H   0  0  0  0  0  0
  -26.1928  -23.1377   21.1150 H   0  0  0  0  0  0
  -26.3209  -23.2875   22.8203 H   0  0  0  0  0  0
  -27.7431  -25.1430   22.7869 H   0  0  0  0  0  0
  -26.4621  -25.4401   21.6919 H   0  0  0  0  0  0
  -27.6589  -21.4444   22.5742 H   0  0  0  0  0  0
  -28.8901  -22.6802   22.5094 H   0  0  0  0  0  0
  -29.2672  -25.5154   21.4181 H   0  0  0  0  0  0
  -29.5593  -18.6424   16.0348 H   0  0  0  0  0  0
  -27.8884  -18.2068   16.4020 H   0  0  0  0  0  0
  -29.1078  -16.9445   16.2003 H   0  0  0  0  0  0
  -24.5435  -21.2095   17.8141 H   0  0  0  0  0  0
  -25.0339  -22.8533   17.4197 H   0  0  0  0  0  0
  -24.8702  -22.3619   19.1045 H   0  0  0  0  0  0
  -30.4705  -21.3299   20.2467 H   0  0  0  0  0  0
  -29.9144  -20.6957   21.7559 H   0  0  0  0  0  0
  -26.7792  -20.7369   18.8082 H   0  0  0  0  0  0
  -26.9423  -21.2223   17.1383 H   0  0  0  0  0  0
  -29.0996  -15.3819   21.4855 H   0  0  0  0  0  0
  -27.6722  -21.1090   20.4201 H   0  0  0  0  0  0
  1 25  1  0  0  0
  1 30  2  0  0  0
  1 88  1  0  0  0
  2  3  1  0  0  0
  2 25  1  0  0  0
  2 90  1  0  0  0
  2 91  1  0  0  0
  3  4  1  0  0  0
  3 92  1  0  0  0
  3 93  1  0  0  0
  4  5  1  0  0  0
  4 94  1  0  0  0
  4 95  1  0  0  0
  5  6  1  0  0  0
  5 26  1  0  0  0
  5 96  1  0  0  0
  6 25  1  0  0  0
  6 97  1  0  0  0
  6 98  1  0  0  0
  7  8  2  0  0  0
  7 26  1  0  0  0
  7 29  1  0  0  0
  8  9  1  0  0  0
  8 22  1  0  0  0
  9 10  1  0  0  0
  9 27  2  0  0  0
 10 11  2  0  0  0
 10 15  1  0  0  0
 11 12  1  0  0  0
 11 99  1  0  0  0
 12 13  2  0  0  0
 12100  1  0  0  0
 13 14  1  0  0  0
 13 31  1  0  0  0
 14 15  2  0  0  0
 14101  1  0  0  0
 15102  1  0  0  0
 16 17  2  0  0  0
 16 21  1  0  0  0
 16 31  1  0  0  0
 17 18  1  0  0  0
 17103  1  0  0  0
 18 19  2  0  0  0
 18104  1  0  0  0
 19 20  1  0  0  0
 19 24  1  0  0  0
 20 21  2  0  0  0
 20105  1  0  0  0
 21 23  1  0  0  0
 22 28  1  0  0  0
 22 32  2  0  0  0
 26 27  1  0  0  0
 28106  1  0  0  0
 28107  1  0  0  0
 29108  1  0  0  0
 29109  1  0  0  0
 33 34  1  0  0  0
 33 66  1  0  0  0
 33 70  2  0  0  0
 34 36  1  0  0  0
 34 59  1  0  0  0
 34110  1  0  0  0
 35 44  2  0  0  0
 35 45  1  0  0  0
 35 68  1  0  0  0
 36 56  1  0  0  0
 36111  1  0  0  0
 37 39  1  0  0  0
 37 47  1  0  0  0
 37 66  1  0  0  0
 37112  1  0  0  0
 38 43  2  0  0  0
 38 46  1  0  0  0
 38 47  1  0  0  0
 39 64  1  0  0  0
 39 67  2  0  0  0
 40 52  1  0  0  0
 40 53  2  0  0  0
 40 58  1  0  0  0
 41113  1  0  0  0
 41114  1  0  0  0
 41115  1  0  0  0
 41 48  1  0  0  0
 42 43  1  0  0  0
 42 66  1  0  0  0
 42116  1  0  0  0
 42117  1  0  0  0
 43 44  1  0  0  0
 44118  1  0  0  0
 45 46  2  0  0  0
 45119  1  0  0  0
 46120  1  0  0  0
 47121  1  0  0  0
 47122  1  0  0  0
 48 56  1  0  0  0
 48 65  1  0  0  0
 48123  1  0  0  0
 49 50  1  0  0  0
 49 53  1  0  0  0
 49 64  1  0  0  0
 49124  1  0  0  0
 50 51  1  0  0  0
 50125  1  0  0  0
 50126  1  0  0  0
 51 52  1  0  0  0
 51127  1  0  0  0
 51128  1  0  0  0
 52129  1  0  0  0
 52130  1  0  0  0
 53 54  1  0  0  0
 54 55  2  0  0  0
 54131  1  0  0  0
 55 57  1  0  0  0
 55132  1  0  0  0
 56 69  2  0  0  0
 57 58  2  0  0  0
 57133  1  0  0  0
 58134  1  0  0  0
 59 60  1  0  0  0
 59 61  1  0  0  0
 59 62  1  0  0  0
 60135  1  0  0  0
 60136  1  0  0  0
 60137  1  0  0  0
 61138  1  0  0  0
 61139  1  0  0  0
 61140  1  0  0  0
 62141  1  0  0  0
 62142  1  0  0  0
 62143  1  0  0  0
 63 65  1  0  0  0
 63144  1  0  0  0
 63145  1  0  0  0
 63146  1  0  0  0
 64147  1  0  0  0
 65148  1  0  0  0
 68 83  1  0  0  0
 71 74  2  0  0  0
 71 75  1  0  0  0
 71149  1  0  0  0
 72 74  1  0  0  0
 72 76  2  0  0  0
 72150  1  0  0  0
 73 75  2  0  0  0
 73 76  1  0  0  0
 73151  1  0  0  0
 74 84  1  0  0  0
 75 86  1  0  0  0
 76 88  1  0  0  0
 77 78  2  0  0  0
 77 79  1  0  0  0
 77 89  1  0  0  0
 78 87  1  0  0  0
 78152  1  0  0  0
 79 83  1  0  0  0
 79153  1  0  0  0
 79154  1  0  0  0
 80 81  1  0  0  0
 80 82  1  0  0  0
 80155  1  0  0  0
 80156  1  0  0  0
 81 83  1  0  0  0
 81157  1  0  0  0
 81158  1  0  0  0
 82 89  1  0  0  0
 82159  1  0  0  0
 82160  1  0  0  0
 83161  1  0  0  0
 84162  1  0  0  0
 84163  1  0  0  0
 84164  1  0  0  0
 85 87  1  0  0  0
 85165  1  0  0  0
 85166  1  0  0  0
 85167  1  0  0  0
 86168  1  0  0  0
 86169  1  0  0  0
 86 89  1  0  0  0
 87170  1  0  0  0
 87171  1  0  0  0
 88172  1  0  0  0
 89173  1  0  0  0
M  CHG  1  89   1
M  ISO  4   1 100  68 101  83 101  88 100
M  END
> <chiral flag>
0

> <version>
0

> <s_m_source_file>
/data/baiqing/PycharmProjects/Reinvent-master-3.2/result/LINK_invent/BTK/process_docking_weight1_custom_product_contain_oxygen_bond_distance_aromatic_linkinvent_7_9_3/rearranged_h_0041.sdf

> <i_m_source_file_index>
85

> <r_mmod_Potential_Energy-OPLS-2005>
23.0452709197998

> <r_mmod_Stretch_Energy-OPLS-2005>
68.391242980957

> <r_mmod_Bend_Energy-OPLS-2005>
174.855514526367

> <r_mmod_Torsional_Energy-OPLS-2005>
309.793701171875

> <r_mmod_Improper_Torsional_Energy-OPLS-2005>
6.06953907012939

> <r_mmod_Van_der_Waal_Energy-OPLS-2005>
134.26188659668

> <r_mmod_Electrostatic_Energy-OPLS-2005>
-263.520874023438

> <r_mmod_Solvation_Energy-OPLS-2005>
-437.148162841797

> <b_mmod_Minimization_Converged-OPLS-2005>
0

> <r_mmod_RMS_Derivative-OPLS-2005>
3.02911567687988

$$$$
85
                    3D
 Structure written by MMmdl.
156164  0  0  1  0            999 V2000
  -30.7076  -14.3947   20.6465 C   0  0  0  0  0  0
  -30.4240  -12.2725   19.4258 C   0  0  0  0  0  0
  -29.5095  -12.5218   18.2120 C   0  0  0  0  0  0
  -28.0254  -12.3792   18.6048 C   0  0  0  0  0  0
  -27.6672  -13.1940   19.8754 C   0  0  2  0  0  0
  -28.6908  -12.9326   20.9998 C   0  0  0  0  0  0
  -25.2640  -13.8146   20.5717 C   0  0  0  0  0  0
  -24.1861  -13.0454   20.9181 C   0  0  0  0  0  0
  -24.6377  -11.6905   20.8682 C   0  0  0  0  0  0
  -23.9027  -10.4303   21.0378 C   0  0  0  0  0  0
  -24.3598   -9.4237   21.9174 C   0  0  0  0  0  0
  -23.6288   -8.2275   22.0750 C   0  0  0  0  0  0
  -22.4270   -8.0289   21.3545 C   0  0  0  0  0  0
  -21.9892   -9.0245   20.4644 C   0  0  0  0  0  0
  -22.7206  -10.2135   20.3040 C   0  0  0  0  0  0
  -21.6854   -6.0735   22.5283 C   0  0  0  0  0  0
  -21.4012   -6.5635   23.8216 C   0  0  0  0  0  0
  -21.3660   -5.6784   24.9176 C   0  0  0  0  0  0
  -21.6037   -4.3052   24.7199 C   0  0  0  0  0  0
  -21.8826   -3.8140   23.4317 C   0  0  0  0  0  0
  -21.9209   -4.6968   22.3387 C   0  0  0  0  0  0
  -22.7897  -13.5292   21.1830 C   0  0  0  0  0  0
  -22.1668   -4.2171   21.0951 F   0  0  0  0  0  0
  -21.5637   -3.4518   25.7709 F   0  0  0  0  0  0
  -30.0453  -13.2210   20.4827 N   0  0  0  0  0  0
  -26.3025  -12.9278   20.3264 N   0  0  0  0  0  0
  -25.9287  -11.6448   20.5634 N   0  0  0  0  0  0
  -22.0461  -12.8313   22.0335 N   0  0  0  0  0  0
  -25.4380  -15.1866   20.4331 N   0  0  0  0  0  0
  -31.7416  -14.6911   20.0379 O   0  0  0  0  0  0
  -21.6637   -6.8882   21.4249 O   0  0  0  0  0  0
  -22.3621  -14.5599   20.6660 O   0  0  0  0  0  0
  -24.6119  -31.8694   23.2095 C   0  0  0  0  0  0
  -25.9028  -32.4837   23.8389 C   0  0  1  0  0  0
  -27.2468  -27.4549   20.1169 C   0  0  0  0  0  0
  -25.5896  -33.8640   24.2336 N   0  0  0  0  0  0
  -23.4038  -30.4853   21.5476 C   0  0  2  0  0  0
  -24.8576  -28.9514   20.1156 C   0  0  0  0  0  0
  -22.7391  -29.4651   22.4966 C   0  0  0  0  0  0
  -18.0269  -28.1377   22.8508 C   0  0  0  0  0  0
  -24.1467  -36.7303   23.2647 C   0  0  0  0  0  0
  -25.9262  -30.8387   21.3637 C   0  0  0  0  0  0
  -26.0095  -29.4705   20.7237 C   0  0  0  0  0  0
  -27.2078  -28.7238   20.7300 C   0  0  0  0  0  0
  -26.0875  -26.9449   19.4961 C   0  0  0  0  0  0
  -24.8906  -27.6894   19.4958 C   0  0  0  0  0  0
  -23.6154  -29.8126   20.1623 C   0  0  0  0  0  0
  -25.4103  -36.3116   24.0342 C   0  0  1  0  0  0
  -20.5857  -28.3687   23.1342 C   0  0  2  0  0  0
  -20.6806  -26.9431   22.5386 C   0  0  0  0  0  0
  -19.5757  -26.6356   21.5224 C   0  0  0  0  0  0
  -18.1920  -26.7923   22.1620 C   0  0  0  0  0  0
  -19.1510  -28.8838   23.2931 C   0  0  0  0  0  0
  -18.9425  -30.1452   23.8924 C   0  0  0  0  0  0
  -17.6419  -30.6576   24.0584 C   0  0  0  0  0  0
  -25.9028  -34.9491   23.5129 C   0  0  0  0  0  0
  -16.5336  -29.9083   23.6297 C   0  0  0  0  0  0
  -16.7259  -28.6505   23.0312 C   0  0  0  0  0  0
  -26.4457  -31.6591   25.0683 C   0  0  0  0  0  0
  -25.3751  -31.3641   26.1430 C   0  0  0  0  0  0
  -27.0296  -30.3062   24.6008 C   0  0  0  0  0  0
  -27.6027  -32.4302   25.7440 C   0  0  0  0  0  0
  -27.5566  -37.1812   24.8469 C   0  0  0  0  0  0
  -21.4117  -29.3059   22.3733 N   0  0  0  0  0  0
  -26.4277  -37.3811   23.9397 N   0  0  0  0  0  0
  -24.6652  -31.0780   22.1006 N   0  0  0  0  0  0
  -23.4170  -28.8183   23.2984 O   0  0  0  0  0  0
  -28.4071  -26.7220   20.0886 O   0  0  0  0  0  0
  -26.5557  -34.8941   22.4663 O   0  0  0  0  0  0
  -23.5307  -32.1458   23.7472 O   0  0  0  0  0  0
  -30.5450  -18.8597   22.2334 C   0  0  0  0  0  0
  -29.0473  -17.1687   20.5666 C   0  0  0  0  0  0
  -29.4890  -19.4039   21.4657 C   0  0  0  0  0  0
  -30.0430  -16.6193   21.4064 C   0  0  0  0  0  0
  -30.8112  -17.4765   22.2201 C   0  0  0  0  0  0
  -28.7758  -18.5541   20.5838 C   0  0  0  0  0  0
  -29.0152  -20.8276   21.7620 C   0  0  0  0  0  0
  -29.0611  -24.3827   20.4217 C   0  0  0  0  0  0
  -29.2452  -23.2549   21.4655 C   0  0  0  0  0  0
  -28.4667  -25.6644   21.0524 C   0  0  0  0  0  0
  -30.1531  -15.2144   21.5439 N   0  0  0  0  0  0
  -29.5278  -21.9122   20.8904 N   0  3  0  0  0  0
  -32.0267  -16.8413   23.2719 Cl  0  0  0  0  0  0
  -27.5153  -19.1693   19.5740 Cl  0  0  0  0  0  0
  -31.4743  -12.3651   19.1450 H   0  0  0  0  0  0
  -30.3050  -11.2477   19.7846 H   0  0  0  0  0  0
  -29.7512  -11.8290   17.4054 H   0  0  0  0  0  0
  -29.6980  -13.5218   17.8161 H   0  0  0  0  0  0
  -27.8262  -11.3201   18.7730 H   0  0  0  0  0  0
  -27.3897  -12.6828   17.7699 H   0  0  0  0  0  0
  -27.7242  -14.2467   19.6020 H   0  0  0  0  0  0
  -28.6395  -11.8926   21.3255 H   0  0  0  0  0  0
  -28.4218  -13.5145   21.8848 H   0  0  0  0  0  0
  -25.2730   -9.5740   22.4746 H   0  0  0  0  0  0
  -24.0008   -7.4665   22.7475 H   0  0  0  0  0  0
  -21.0815   -8.8712   19.8959 H   0  0  0  0  0  0
  -22.3619  -10.9646   19.6134 H   0  0  0  0  0  0
  -21.1980   -7.6148   23.9729 H   0  0  0  0  0  0
  -21.1488   -6.0499   25.9090 H   0  0  0  0  0  0
  -22.0612   -2.7605   23.2779 H   0  0  0  0  0  0
  -22.4010  -11.9968   22.4742 H   0  0  0  0  0  0
  -21.1059  -13.1347   22.2448 H   0  0  0  0  0  0
  -24.6827  -15.8389   20.6114 H   0  0  0  0  0  0
  -26.2847  -15.6386   20.1161 H   0  0  0  0  0  0
  -26.7132  -32.5609   23.1192 H   0  0  0  0  0  0
  -25.0104  -33.9797   25.0520 H   0  0  0  0  0  0
  -22.6965  -31.3045   21.4047 H   0  0  0  0  0  0
  -23.3751  -35.9612   23.3320 H   0  0  0  0  0  0
  -24.3561  -36.8888   22.2049 H   0  0  0  0  0  0
  -23.7184  -37.6506   23.6640 H   0  0  0  0  0  0
  -26.0284  -31.5972   20.5881 H   0  0  0  0  0  0
  -26.8189  -30.9089   21.9718 H   0  0  0  0  0  0
  -28.0963  -29.1125   21.2088 H   0  0  0  0  0  0
  -26.1211  -25.9794   19.0108 H   0  0  0  0  0  0
  -24.0138  -27.2904   19.0058 H   0  0  0  0  0  0
  -23.7179  -30.5829   19.3968 H   0  0  0  0  0  0
  -22.7451  -29.2181   19.8754 H   0  0  0  0  0  0
  -25.1295  -36.1984   25.0841 H   0  0  0  0  0  0
  -21.0013  -28.3239   24.1444 H   0  0  0  0  0  0
  -20.5835  -26.2259   23.3542 H   0  0  0  0  0  0
  -21.6668  -26.7553   22.1153 H   0  0  0  0  0  0
  -19.6948  -25.6254   21.1279 H   0  0  0  0  0  0
  -19.6637  -27.3133   20.6727 H   0  0  0  0  0  0
  -17.4239  -26.6710   21.3988 H   0  0  0  0  0  0
  -18.0291  -26.0054   22.8986 H   0  0  0  0  0  0
  -19.7877  -30.7322   24.2266 H   0  0  0  0  0  0
  -17.4933  -31.6261   24.5182 H   0  0  0  0  0  0
  -15.5333  -30.2993   23.7569 H   0  0  0  0  0  0
  -15.8665  -28.0868   22.6947 H   0  0  0  0  0  0
  -24.5961  -30.6963   25.7742 H   0  0  0  0  0  0
  -24.8910  -32.2764   26.4905 H   0  0  0  0  0  0
  -25.8136  -30.8781   27.0160 H   0  0  0  0  0  0
  -26.2841  -29.6844   24.1053 H   0  0  0  0  0  0
  -27.4102  -29.7236   25.4408 H   0  0  0  0  0  0
  -27.8621  -30.4410   23.9120 H   0  0  0  0  0  0
  -27.2678  -33.3626   26.1995 H   0  0  0  0  0  0
  -28.3842  -32.6830   25.0269 H   0  0  0  0  0  0
  -28.0698  -31.8451   26.5372 H   0  0  0  0  0  0
  -28.2614  -38.0091   24.7555 H   0  0  0  0  0  0
  -28.1053  -36.2630   24.6295 H   0  0  0  0  0  0
  -27.2283  -37.1444   25.8878 H   0  0  0  0  0  0
  -20.9250  -29.8822   21.7021 H   0  0  0  0  0  0
  -26.0172  -38.2881   24.1449 H   0  0  0  0  0  0
  -31.1047  -19.4831   22.9166 H   0  0  0  0  0  0
  -28.4468  -16.5263   19.9414 H   0  0  0  0  0  0
  -29.2930  -21.0442   22.7933 H   0  0  0  0  0  0
  -27.9243  -20.8406   21.7500 H   0  0  0  0  0  0
  -28.3951  -24.0488   19.6281 H   0  0  0  0  0  0
  -30.0186  -24.6110   19.9520 H   0  0  0  0  0  0
  -28.3387  -23.1978   22.0685 H   0  0  0  0  0  0
  -30.0469  -23.5158   22.1599 H   0  0  0  0  0  0
  -29.0873  -25.9915   21.8865 H   0  0  0  0  0  0
  -27.4827  -25.4445   21.4795 H   0  0  0  0  0  0
  -29.4323  -14.7798   22.1004 H   0  0  0  0  0  0
  -29.0873  -21.8346   19.9888 H   0  0  0  0  0  0
  -30.5218  -21.8051   20.7663 H   0  0  0  0  0  0
  1 25  1  0  0  0
  1 30  2  0  0  0
  1 81  1  0  0  0
  2  3  1  0  0  0
  2 25  1  0  0  0
  2 85  1  0  0  0
  2 86  1  0  0  0
  3  4  1  0  0  0
  3 87  1  0  0  0
  3 88  1  0  0  0
  4  5  1  0  0  0
  4 89  1  0  0  0
  4 90  1  0  0  0
  5  6  1  0  0  0
  5 26  1  0  0  0
  5 91  1  0  0  0
  6 25  1  0  0  0
  6 92  1  0  0  0
  6 93  1  0  0  0
  7  8  2  0  0  0
  7 26  1  0  0  0
  7 29  1  0  0  0
  8  9  1  0  0  0
  8 22  1  0  0  0
  9 10  1  0  0  0
  9 27  2  0  0  0
 10 11  2  0  0  0
 10 15  1  0  0  0
 11 12  1  0  0  0
 11 94  1  0  0  0
 12 13  2  0  0  0
 12 95  1  0  0  0
 13 14  1  0  0  0
 13 31  1  0  0  0
 14 15  2  0  0  0
 14 96  1  0  0  0
 15 97  1  0  0  0
 16 17  2  0  0  0
 16 21  1  0  0  0
 16 31  1  0  0  0
 17 18  1  0  0  0
 17 98  1  0  0  0
 18 19  2  0  0  0
 18 99  1  0  0  0
 19 20  1  0  0  0
 19 24  1  0  0  0
 20 21  2  0  0  0
 20100  1  0  0  0
 21 23  1  0  0  0
 22 28  1  0  0  0
 22 32  2  0  0  0
 26 27  1  0  0  0
 28101  1  0  0  0
 28102  1  0  0  0
 29103  1  0  0  0
 29104  1  0  0  0
 33 34  1  0  0  0
 33 66  1  0  0  0
 33 70  2  0  0  0
 34 36  1  0  0  0
 34 59  1  0  0  0
 34105  1  0  0  0
 35 44  2  0  0  0
 35 45  1  0  0  0
 35 68  1  0  0  0
 36 56  1  0  0  0
 36106  1  0  0  0
 37 39  1  0  0  0
 37 47  1  0  0  0
 37 66  1  0  0  0
 37107  1  0  0  0
 38 43  2  0  0  0
 38 46  1  0  0  0
 38 47  1  0  0  0
 39 64  1  0  0  0
 39 67  2  0  0  0
 40 52  1  0  0  0
 40 53  2  0  0  0
 40 58  1  0  0  0
 41108  1  0  0  0
 41109  1  0  0  0
 41110  1  0  0  0
 41 48  1  0  0  0
 42 43  1  0  0  0
 42 66  1  0  0  0
 42111  1  0  0  0
 42112  1  0  0  0
 43 44  1  0  0  0
 44113  1  0  0  0
 45 46  2  0  0  0
 45114  1  0  0  0
 46115  1  0  0  0
 47116  1  0  0  0
 47117  1  0  0  0
 48 56  1  0  0  0
 48 65  1  0  0  0
 48118  1  0  0  0
 49 50  1  0  0  0
 49 53  1  0  0  0
 49 64  1  0  0  0
 49119  1  0  0  0
 50 51  1  0  0  0
 50120  1  0  0  0
 50121  1  0  0  0
 51 52  1  0  0  0
 51122  1  0  0  0
 51123  1  0  0  0
 52124  1  0  0  0
 52125  1  0  0  0
 53 54  1  0  0  0
 54 55  2  0  0  0
 54126  1  0  0  0
 55 57  1  0  0  0
 55127  1  0  0  0
 56 69  2  0  0  0
 57 58  2  0  0  0
 57128  1  0  0  0
 58129  1  0  0  0
 59 60  1  0  0  0
 59 61  1  0  0  0
 59 62  1  0  0  0
 60130  1  0  0  0
 60131  1  0  0  0
 60132  1  0  0  0
 61133  1  0  0  0
 61134  1  0  0  0
 61135  1  0  0  0
 62136  1  0  0  0
 62137  1  0  0  0
 62138  1  0  0  0
 63 65  1  0  0  0
 63139  1  0  0  0
 63140  1  0  0  0
 63141  1  0  0  0
 64142  1  0  0  0
 65143  1  0  0  0
 68 80  1  0  0  0
 71 73  2  0  0  0
 71 75  1  0  0  0
 71144  1  0  0  0
 72 74  1  0  0  0
 72 76  2  0  0  0
 72145  1  0  0  0
 73 76  1  0  0  0
 73 77  1  0  0  0
 74 75  2  0  0  0
 74 81  1  0  0  0
 75 83  1  0  0  0
 76 84  1  0  0  0
 77 82  1  0  0  0
 77146  1  0  0  0
 77147  1  0  0  0
 78 79  1  0  0  0
 78 80  1  0  0  0
 78148  1  0  0  0
 78149  1  0  0  0
 79 82  1  0  0  0
 79150  1  0  0  0
 79151  1  0  0  0
 80152  1  0  0  0
 80153  1  0  0  0
 81154  1  0  0  0
 82155  1  0  0  0
 82156  1  0  0  0
M  CHG  1  82   1
M  ISO  4   1 100  68 101  80 101  81 100
M  END
> <chiral flag>
0

> <version>
0

> <s_m_source_file>
/data/baiqing/PycharmProjects/Reinvent-master-3.2/result/LINK_invent/BTK/process_docking_weight1_custom_product_contain_oxygen_bond_distance_aromatic_linkinvent_7_9_3/rearranged_h_0041.sdf

> <i_m_source_file_index>
86

> <r_mmod_Potential_Energy-OPLS-2005>
-268.102478027344

> <r_mmod_Stretch_Energy-OPLS-2005>
33.4702491760254

> <r_mmod_Bend_Energy-OPLS-2005>
88.6516799926758

> <r_mmod_Torsional_Energy-OPLS-2005>
269.980621337891

> <r_mmod_Improper_Torsional_Energy-OPLS-2005>
5.75085401535034

> <r_mmod_Van_der_Waal_Energy-OPLS-2005>
143.211822509766

> <r_mmod_Electrostatic_Energy-OPLS-2005>
-322.545745849609

> <r_mmod_Solvation_Energy-OPLS-2005>
-494.585601806641

> <b_mmod_Minimization_Converged-OPLS-2005>
0

> <r_mmod_RMS_Derivative-OPLS-2005>
4.74846315383911

$$$$
86
                    3D
 Structure written by MMmdl.
176185  0  0  1  0            999 V2000
  -30.7073  -14.4271   20.5735 C   0  0  0  0  0  0
  -30.4201  -12.2785   19.4157 C   0  0  0  0  0  0
  -29.4947  -12.5066   18.2032 C   0  0  0  0  0  0
  -28.0147  -12.3724   18.6133 C   0  0  0  0  0  0
  -27.6651  -13.2011   19.8792 C   0  0  2  0  0  0
  -28.7044  -12.9578   20.9974 C   0  0  0  0  0  0
  -25.2607  -13.8151   20.5687 C   0  0  0  0  0  0
  -24.1850  -13.0431   20.9172 C   0  0  0  0  0  0
  -24.6391  -11.6896   20.8720 C   0  0  0  0  0  0
  -23.9051  -10.4287   21.0392 C   0  0  0  0  0  0
  -24.3606   -9.4208   21.9175 C   0  0  0  0  0  0
  -23.6288   -8.2240   22.0751 C   0  0  0  0  0  0
  -22.4268   -8.0274   21.3545 C   0  0  0  0  0  0
  -21.9896   -9.0244   20.4646 C   0  0  0  0  0  0
  -22.7216  -10.2127   20.3049 C   0  0  0  0  0  0
  -21.6854   -6.0733   22.5279 C   0  0  0  0  0  0
  -21.4014   -6.5637   23.8212 C   0  0  0  0  0  0
  -21.3664   -5.6789   24.9177 C   0  0  0  0  0  0
  -21.6043   -4.3052   24.7227 C   0  0  0  0  0  0
  -21.8820   -3.8143   23.4349 C   0  0  0  0  0  0
  -21.9196   -4.6960   22.3407 C   0  0  0  0  0  0
  -22.7873  -13.5234   21.1837 C   0  0  0  0  0  0
  -22.1661   -4.2145   21.0982 F   0  0  0  0  0  0
  -21.5631   -3.4535   25.7743 F   0  0  0  0  0  0
  -30.0414  -13.2505   20.4506 N   0  0  0  0  0  0
  -26.3039  -12.9309   20.3381 N   0  0  0  0  0  0
  -25.9315  -11.6471   20.5759 N   0  0  0  0  0  0
  -22.0508  -12.8236   22.0398 N   0  0  0  0  0  0
  -25.4336  -15.1872   20.4119 N   0  0  0  0  0  0
  -31.8369  -14.6165   20.1109 O   0  0  0  0  0  0
  -21.6637   -6.8868   21.4238 O   0  0  0  0  0  0
  -22.3559  -14.5543   20.6689 O   0  0  0  0  0  0
  -24.6120  -31.8705   23.2141 C   0  0  0  0  0  0
  -25.9029  -32.4835   23.8417 C   0  0  1  0  0  0
  -27.2365  -27.4641   20.0718 C   0  0  0  0  0  0
  -25.5890  -33.8635   24.2342 N   0  0  0  0  0  0
  -23.3984  -30.4949   21.5544 C   0  0  2  0  0  0
  -24.8437  -28.9638   20.1184 C   0  0  0  0  0  0
  -22.7395  -29.4666   22.5015 C   0  0  0  0  0  0
  -18.0266  -28.1377   22.8500 C   0  0  0  0  0  0
  -24.1485  -36.7327   23.2636 C   0  0  0  0  0  0
  -25.9264  -30.8375   21.3694 C   0  0  0  0  0  0
  -26.0018  -29.4731   20.7193 C   0  0  0  0  0  0
  -27.1978  -28.7223   20.7093 C   0  0  0  0  0  0
  -26.0563  -26.9574   19.4853 C   0  0  0  0  0  0
  -24.8623  -27.6997   19.5065 C   0  0  0  0  0  0
  -23.6062  -29.8292   20.1681 C   0  0  0  0  0  0
  -25.4105  -36.3123   24.0337 C   0  0  1  0  0  0
  -20.5856  -28.3657   23.1334 C   0  0  2  0  0  0
  -20.6761  -26.9398   22.5427 C   0  0  0  0  0  0
  -19.5741  -26.6388   21.5223 C   0  0  0  0  0  0
  -18.1915  -26.7929   22.1626 C   0  0  0  0  0  0
  -19.1514  -28.8835   23.2916 C   0  0  0  0  0  0
  -18.9441  -30.1443   23.8924 C   0  0  0  0  0  0
  -17.6442  -30.6585   24.0572 C   0  0  0  0  0  0
  -25.9029  -34.9485   23.5137 C   0  0  0  0  0  0
  -16.5336  -29.9086   23.6326 C   0  0  0  0  0  0
  -16.7255  -28.6503   23.0350 C   0  0  0  0  0  0
  -26.4462  -31.6611   25.0740 C   0  0  0  0  0  0
  -25.3732  -31.3727   26.1492 C   0  0  0  0  0  0
  -27.0274  -30.3043   24.6121 C   0  0  0  0  0  0
  -27.6047  -32.4326   25.7489 C   0  0  0  0  0  0
  -27.5584  -37.1815   24.8460 C   0  0  0  0  0  0
  -21.4126  -29.3028   22.3749 N   0  0  0  0  0  0
  -26.4298  -37.3803   23.9404 N   0  0  0  0  0  0
  -24.6633  -31.0819   22.1040 N   0  0  0  0  0  0
  -23.4175  -28.8206   23.3050 O   0  0  0  0  0  0
  -28.4117  -26.7498   20.0425 O   0  0  0  0  0  0
  -26.5592  -34.8926   22.4697 O   0  0  0  0  0  0
  -23.5318  -32.1455   23.7541 O   0  0  0  0  0  0
  -30.5870  -18.8345   19.6382 C   0  0  0  0  0  0
  -30.3636  -17.5949   22.1405 C   0  0  0  0  0  0
  -30.7201  -19.6210   20.8068 C   0  0  0  0  0  0
  -30.3150  -17.4530   19.7057 C   0  0  0  0  0  0
  -30.6032  -18.9852   22.0712 C   0  0  0  0  0  0
  -30.2443  -16.8153   20.9722 C   0  0  0  0  0  0
  -30.9186  -23.0849   19.1317 C   0  0  0  0  0  0
  -32.0093  -23.1191   18.3398 C   0  0  0  0  0  0
  -30.2062  -24.3279   19.6556 C   0  0  0  0  0  0
  -28.0335  -22.4505   18.5815 C   0  0  0  0  0  0
  -27.8302  -23.9644   18.7729 C   0  0  0  0  0  0
  -28.8065  -21.7734   19.7341 C   0  0  0  0  0  0
  -29.1182  -24.8025   18.6683 C   0  0  1  0  0  0
  -30.0730  -16.7038   18.4025 C   0  0  0  0  0  0
  -30.7509  -19.7603   23.3714 C   0  0  0  0  0  0
  -32.7615  -21.9341   17.7615 C   0  0  0  0  0  0
  -31.0076  -21.1265   20.6816 C   0  0  0  0  0  0
  -28.8513  -26.3229   18.7510 C   0  0  0  0  0  0
  -29.9918  -15.4249   21.1173 N   0  0  0  0  0  0
  -30.2880  -21.7906   19.5620 N   0  3  2  0  0  0
  -31.4665  -12.3692   19.1178 H   0  0  0  0  0  0
  -30.3082  -11.2621   19.7971 H   0  0  0  0  0  0
  -29.7281  -11.7919   17.4130 H   0  0  0  0  0  0
  -29.6712  -13.4974   17.7811 H   0  0  0  0  0  0
  -27.8184  -11.3158   18.7981 H   0  0  0  0  0  0
  -27.3662  -12.6584   17.7844 H   0  0  0  0  0  0
  -27.7163  -14.2532   19.5987 H   0  0  0  0  0  0
  -28.6681  -11.9179   21.3254 H   0  0  0  0  0  0
  -28.4712  -13.5469   21.8850 H   0  0  0  0  0  0
  -25.2752   -9.5698   22.4747 H   0  0  0  0  0  0
  -24.0008   -7.4634   22.7467 H   0  0  0  0  0  0
  -21.0831   -8.8748   19.8955 H   0  0  0  0  0  0
  -22.3660  -10.9662   19.6157 H   0  0  0  0  0  0
  -21.2000   -7.6143   23.9718 H   0  0  0  0  0  0
  -21.1485   -6.0518   25.9080 H   0  0  0  0  0  0
  -22.0598   -2.7605   23.2850 H   0  0  0  0  0  0
  -22.4113  -11.9901   22.4803 H   0  0  0  0  0  0
  -21.1123  -13.1272   22.2588 H   0  0  0  0  0  0
  -24.6688  -15.8433   20.5265 H   0  0  0  0  0  0
  -26.2929  -15.6289   20.1094 H   0  0  0  0  0  0
  -26.7101  -32.5552   23.1185 H   0  0  0  0  0  0
  -25.0036  -33.9810   25.0482 H   0  0  0  0  0  0
  -22.6865  -31.3113   21.4175 H   0  0  0  0  0  0
  -23.3738  -35.9671   23.3321 H   0  0  0  0  0  0
  -24.3580  -36.8920   22.2047 H   0  0  0  0  0  0
  -23.7253  -37.6545   23.6635 H   0  0  0  0  0  0
  -26.0398  -31.6031   20.6006 H   0  0  0  0  0  0
  -26.8146  -30.8898   21.9874 H   0  0  0  0  0  0
  -28.0940  -29.1125   21.1708 H   0  0  0  0  0  0
  -26.0462  -25.9921   19.0062 H   0  0  0  0  0  0
  -23.9698  -27.2979   19.0464 H   0  0  0  0  0  0
  -23.7155  -30.6049   19.4095 H   0  0  0  0  0  0
  -22.7303  -29.2484   19.8722 H   0  0  0  0  0  0
  -25.1285  -36.1994   25.0833 H   0  0  0  0  0  0
  -20.9943  -28.3215   24.1456 H   0  0  0  0  0  0
  -20.5673  -26.2260   23.3608 H   0  0  0  0  0  0
  -21.6630  -26.7452   22.1212 H   0  0  0  0  0  0
  -19.6901  -25.6303   21.1239 H   0  0  0  0  0  0
  -19.6683  -27.3214   20.6765 H   0  0  0  0  0  0
  -17.4191  -26.6690   21.4018 H   0  0  0  0  0  0
  -18.0300  -26.0060   22.9006 H   0  0  0  0  0  0
  -19.7916  -30.7257   24.2301 H   0  0  0  0  0  0
  -17.4995  -31.6269   24.5167 H   0  0  0  0  0  0
  -15.5338  -30.2995   23.7637 H   0  0  0  0  0  0
  -15.8655  -28.0831   22.7053 H   0  0  0  0  0  0
  -24.5911  -30.7061   25.7842 H   0  0  0  0  0  0
  -24.8909  -32.2883   26.4924 H   0  0  0  0  0  0
  -25.8085  -30.8917   27.0260 H   0  0  0  0  0  0
  -26.2813  -29.6828   24.1153 H   0  0  0  0  0  0
  -27.4003  -29.7263   25.4589 H   0  0  0  0  0  0
  -27.8673  -30.4346   23.9292 H   0  0  0  0  0  0
  -27.2671  -33.3611   26.2107 H   0  0  0  0  0  0
  -28.3824  -32.6916   25.0292 H   0  0  0  0  0  0
  -28.0750  -31.8429   26.5369 H   0  0  0  0  0  0
  -28.2614  -38.0100   24.7495 H   0  0  0  0  0  0
  -28.1066  -36.2634   24.6292 H   0  0  0  0  0  0
  -27.2306  -37.1478   25.8865 H   0  0  0  0  0  0
  -20.9284  -29.8744   21.6970 H   0  0  0  0  0  0
  -26.0191  -38.2885   24.1398 H   0  0  0  0  0  0
  -30.6720  -19.2869   18.6610 H   0  0  0  0  0  0
  -30.2833  -17.1150   23.1061 H   0  0  0  0  0  0
  -32.4108  -24.0860   18.0673 H   0  0  0  0  0  0
  -30.9610  -25.1076   19.7648 H   0  0  0  0  0  0
  -29.8055  -24.1801   20.6595 H   0  0  0  0  0  0
  -28.4933  -22.2357   17.6155 H   0  0  0  0  0  0
  -27.0423  -21.9965   18.5350 H   0  0  0  0  0  0
  -27.3429  -24.1477   19.7317 H   0  0  0  0  0  0
  -27.1320  -24.3045   18.0073 H   0  0  0  0  0  0
  -28.4805  -20.7341   19.7867 H   0  0  0  0  0  0
  -28.5242  -22.2134   20.6911 H   0  0  0  0  0  0
  -29.5088  -24.6502   17.6598 H   0  0  0  0  0  0
  -29.8157  -17.3868   17.5928 H   0  0  0  0  0  0
  -29.2461  -16.0001   18.5009 H   0  0  0  0  0  0
  -30.9638  -16.1551   18.0991 H   0  0  0  0  0  0
  -30.7707  -19.0930   24.2335 H   0  0  0  0  0  0
  -29.9151  -20.4474   23.5066 H   0  0  0  0  0  0
  -31.6807  -20.3302   23.3851 H   0  0  0  0  0  0
  -32.3113  -20.9726   18.0015 H   0  0  0  0  0  0
  -33.7866  -21.9290   18.1340 H   0  0  0  0  0  0
  -32.8025  -22.0205   16.6751 H   0  0  0  0  0  0
  -32.0843  -21.2334   20.5431 H   0  0  0  0  0  0
  -30.7691  -21.6635   21.5991 H   0  0  0  0  0  0
  -28.1689  -26.6205   17.9524 H   0  0  0  0  0  0
  -29.7771  -26.8588   18.5369 H   0  0  0  0  0  0
  -29.1397  -15.1618   21.5889 H   0  0  0  0  0  0
  -30.4415  -21.1566   18.7941 H   0  0  0  0  0  0
  1 25  1  0  0  0
  1 30  2  0  0  0
  1 89  1  0  0  0
  2  3  1  0  0  0
  2 25  1  0  0  0
  2 91  1  0  0  0
  2 92  1  0  0  0
  3  4  1  0  0  0
  3 93  1  0  0  0
  3 94  1  0  0  0
  4  5  1  0  0  0
  4 95  1  0  0  0
  4 96  1  0  0  0
  5  6  1  0  0  0
  5 26  1  0  0  0
  5 97  1  0  0  0
  6 25  1  0  0  0
  6 98  1  0  0  0
  6 99  1  0  0  0
  7  8  2  0  0  0
  7 26  1  0  0  0
  7 29  1  0  0  0
  8  9  1  0  0  0
  8 22  1  0  0  0
  9 10  1  0  0  0
  9 27  2  0  0  0
 10 11  2  0  0  0
 10 15  1  0  0  0
 11 12  1  0  0  0
 11100  1  0  0  0
 12 13  2  0  0  0
 12101  1  0  0  0
 13 14  1  0  0  0
 13 31  1  0  0  0
 14 15  2  0  0  0
 14102  1  0  0  0
 15103  1  0  0  0
 16 17  2  0  0  0
 16 21  1  0  0  0
 16 31  1  0  0  0
 17 18  1  0  0  0
 17104  1  0  0  0
 18 19  2  0  0  0
 18105  1  0  0  0
 19 20  1  0  0  0
 19 24  1  0  0  0
 20 21  2  0  0  0
 20106  1  0  0  0
 21 23  1  0  0  0
 22 28  1  0  0  0
 22 32  2  0  0  0
 26 27  1  0  0  0
 28107  1  0  0  0
 28108  1  0  0  0
 29109  1  0  0  0
 29110  1  0  0  0
 33 34  1  0  0  0
 33 66  1  0  0  0
 33 70  2  0  0  0
 34 36  1  0  0  0
 34 59  1  0  0  0
 34111  1  0  0  0
 35 44  2  0  0  0
 35 45  1  0  0  0
 35 68  1  0  0  0
 36 56  1  0  0  0
 36112  1  0  0  0
 37 39  1  0  0  0
 37 47  1  0  0  0
 37 66  1  0  0  0
 37113  1  0  0  0
 38 43  2  0  0  0
 38 46  1  0  0  0
 38 47  1  0  0  0
 39 64  1  0  0  0
 39 67  2  0  0  0
 40 52  1  0  0  0
 40 53  2  0  0  0
 40 58  1  0  0  0
 41114  1  0  0  0
 41115  1  0  0  0
 41116  1  0  0  0
 41 48  1  0  0  0
 42 43  1  0  0  0
 42 66  1  0  0  0
 42117  1  0  0  0
 42118  1  0  0  0
 43 44  1  0  0  0
 44119  1  0  0  0
 45 46  2  0  0  0
 45120  1  0  0  0
 46121  1  0  0  0
 47122  1  0  0  0
 47123  1  0  0  0
 48 56  1  0  0  0
 48 65  1  0  0  0
 48124  1  0  0  0
 49 50  1  0  0  0
 49 53  1  0  0  0
 49 64  1  0  0  0
 49125  1  0  0  0
 50 51  1  0  0  0
 50126  1  0  0  0
 50127  1  0  0  0
 51 52  1  0  0  0
 51128  1  0  0  0
 51129  1  0  0  0
 52130  1  0  0  0
 52131  1  0  0  0
 53 54  1  0  0  0
 54 55  2  0  0  0
 54132  1  0  0  0
 55 57  1  0  0  0
 55133  1  0  0  0
 56 69  2  0  0  0
 57 58  2  0  0  0
 57134  1  0  0  0
 58135  1  0  0  0
 59 60  1  0  0  0
 59 61  1  0  0  0
 59 62  1  0  0  0
 60136  1  0  0  0
 60137  1  0  0  0
 60138  1  0  0  0
 61139  1  0  0  0
 61140  1  0  0  0
 61141  1  0  0  0
 62142  1  0  0  0
 62143  1  0  0  0
 62144  1  0  0  0
 63 65  1  0  0  0
 63145  1  0  0  0
 63146  1  0  0  0
 63147  1  0  0  0
 64148  1  0  0  0
 65149  1  0  0  0
 68 88  1  0  0  0
 71 73  2  0  0  0
 71 74  1  0  0  0
 71150  1  0  0  0
 72 75  2  0  0  0
 72 76  1  0  0  0
 72151  1  0  0  0
 73 75  1  0  0  0
 73 87  1  0  0  0
 74 76  2  0  0  0
 74 84  1  0  0  0
 75 85  1  0  0  0
 76 89  1  0  0  0
 77 78  2  0  0  0
 77 79  1  0  0  0
 77 90  1  0  0  0
 78 86  1  0  0  0
 78152  1  0  0  0
 79 83  1  0  0  0
 79153  1  0  0  0
 79154  1  0  0  0
 80 81  1  0  0  0
 80 82  1  0  0  0
 80155  1  0  0  0
 80156  1  0  0  0
 81 83  1  0  0  0
 81157  1  0  0  0
 81158  1  0  0  0
 82 90  1  0  0  0
 82159  1  0  0  0
 82160  1  0  0  0
 83 88  1  0  0  0
 83161  1  0  0  0
 84162  1  0  0  0
 84163  1  0  0  0
 84164  1  0  0  0
 85165  1  0  0  0
 85166  1  0  0  0
 85167  1  0  0  0
 86168  1  0  0  0
 86169  1  0  0  0
 86170  1  0  0  0
 87171  1  0  0  0
 87172  1  0  0  0
 87 90  1  0  0  0
 88173  1  0  0  0
 88174  1  0  0  0
 89175  1  0  0  0
 90176  1  0  0  0
M  CHG  1  90   1
M  ISO  4   1 100  68 101  88 101  89 100
M  END
> <chiral flag>
0

> <version>
0

> <s_m_source_file>
/data/baiqing/PycharmProjects/Reinvent-master-3.2/result/LINK_invent/BTK/process_docking_weight1_custom_product_contain_oxygen_bond_distance_aromatic_linkinvent_7_9_3/rearranged_h_0041.sdf

> <i_m_source_file_index>
87

> <r_mmod_Potential_Energy-OPLS-2005>
-109.144340515137

> <r_mmod_Stretch_Energy-OPLS-2005>
37.3535766601562

> <r_mmod_Bend_Energy-OPLS-2005>
110.365898132324

> <r_mmod_Torsional_Energy-OPLS-2005>
270.957672119141

> <r_mmod_Improper_Torsional_Energy-OPLS-2005>
3.40205979347229

> <r_mmod_Van_der_Waal_Energy-OPLS-2005>
157.135070800781

> <r_mmod_Electrostatic_Energy-OPLS-2005>
-285.004669189453

> <r_mmod_Solvation_Energy-OPLS-2005>
-412.997802734375

> <b_mmod_Minimization_Converged-OPLS-2005>
0

> <r_mmod_RMS_Derivative-OPLS-2005>
0.927575051784515

$$$$
87
                    3D
 Structure written by MMmdl.
176185  0  0  1  0            999 V2000
  -30.7026  -14.7149   20.4661 C   0  0  0  0  0  0
  -30.4306  -12.4445   19.4526 C   0  0  0  0  0  0
  -29.5032  -12.5042   18.2201 C   0  0  0  0  0  0
  -28.0319  -12.3371   18.6402 C   0  0  0  0  0  0
  -27.6462  -13.2412   19.8431 C   0  0  2  0  0  0
  -28.7079  -13.2002   20.9704 C   0  0  0  0  0  0
  -25.2522  -13.8195   20.5696 C   0  0  0  0  0  0
  -24.1821  -13.0437   20.9156 C   0  0  0  0  0  0
  -24.6408  -11.6896   20.8666 C   0  0  0  0  0  0
  -23.9089  -10.4274   21.0342 C   0  0  0  0  0  0
  -24.3639   -9.4197   21.9139 C   0  0  0  0  0  0
  -23.6306   -8.2246   22.0766 C   0  0  0  0  0  0
  -22.4305   -8.0264   21.3534 C   0  0  0  0  0  0
  -21.9930   -9.0225   20.4630 C   0  0  0  0  0  0
  -22.7259  -10.2091   20.3005 C   0  0  0  0  0  0
  -21.6872   -6.0703   22.5274 C   0  0  0  0  0  0
  -21.4021   -6.5622   23.8195 C   0  0  0  0  0  0
  -21.3666   -5.6790   24.9155 C   0  0  0  0  0  0
  -21.6044   -4.3053   24.7216 C   0  0  0  0  0  0
  -21.8830   -3.8133   23.4348 C   0  0  0  0  0  0
  -21.9203   -4.6935   22.3395 C   0  0  0  0  0  0
  -22.7854  -13.5191   21.1858 C   0  0  0  0  0  0
  -22.1669   -4.2123   21.0966 F   0  0  0  0  0  0
  -21.5639   -3.4543   25.7739 F   0  0  0  0  0  0
  -30.0095  -13.5262   20.3736 N   0  0  0  0  0  0
  -26.2994  -12.9420   20.3284 N   0  0  0  0  0  0
  -25.9361  -11.6541   20.5735 N   0  0  0  0  0  0
  -22.0544  -12.8089   22.0402 N   0  0  0  0  0  0
  -25.4116  -15.1938   20.4132 N   0  0  0  0  0  0
  -31.8963  -14.7504   20.1693 O   0  0  0  0  0  0
  -21.6655   -6.8849   21.4235 O   0  0  0  0  0  0
  -22.3474  -14.5482   20.6743 O   0  0  0  0  0  0
  -24.6314  -31.8518   23.1960 C   0  0  0  0  0  0
  -25.9130  -32.4741   23.8291 C   0  0  1  0  0  0
  -27.2319  -27.2297   20.1743 C   0  0  0  0  0  0
  -25.5921  -33.8538   24.2177 N   0  0  0  0  0  0
  -23.4327  -30.4618   21.5486 C   0  0  2  0  0  0
  -24.8849  -28.9038   20.1251 C   0  0  0  0  0  0
  -22.7507  -29.4520   22.5060 C   0  0  0  0  0  0
  -18.0222  -28.1354   22.8509 C   0  0  0  0  0  0
  -24.1472  -36.7300   23.2659 C   0  0  0  0  0  0
  -25.9758  -30.7502   21.3862 C   0  0  0  0  0  0
  -26.0502  -29.3666   20.7448 C   0  0  0  0  0  0
  -27.2260  -28.5423   20.7632 C   0  0  0  0  0  0
  -26.0504  -26.8566   19.5023 C   0  0  0  0  0  0
  -24.8904  -27.6546   19.4860 C   0  0  0  0  0  0
  -23.6473  -29.7808   20.1688 C   0  0  0  0  0  0
  -25.4109  -36.3054   24.0301 C   0  0  1  0  0  0
  -20.5842  -28.3626   23.1345 C   0  0  2  0  0  0
  -20.6722  -26.9372   22.5441 C   0  0  0  0  0  0
  -19.5687  -26.6349   21.5238 C   0  0  0  0  0  0
  -18.1847  -26.7909   22.1609 C   0  0  0  0  0  0
  -19.1493  -28.8825   23.2879 C   0  0  0  0  0  0
  -18.9431  -30.1473   23.8834 C   0  0  0  0  0  0
  -17.6451  -30.6596   24.0546 C   0  0  0  0  0  0
  -25.9060  -34.9419   23.5047 C   0  0  0  0  0  0
  -16.5324  -29.9064   23.6414 C   0  0  0  0  0  0
  -16.7230  -28.6488   23.0415 C   0  0  0  0  0  0
  -26.4483  -31.6607   25.0735 C   0  0  0  0  0  0
  -25.3669  -31.3717   26.1430 C   0  0  0  0  0  0
  -27.0468  -30.3060   24.6291 C   0  0  0  0  0  0
  -27.6002  -32.4411   25.7501 C   0  0  0  0  0  0
  -27.5546  -37.1778   24.8475 C   0  0  0  0  0  0
  -21.4198  -29.2994   22.3810 N   0  0  0  0  0  0
  -26.4250  -37.3778   23.9438 N   0  0  0  0  0  0
  -24.6990  -31.0422   22.0971 N   0  0  0  0  0  0
  -23.4203  -28.8051   23.3167 O   0  0  0  0  0  0
  -28.3195  -26.3147   20.1938 O   0  0  0  0  0  0
  -26.5636  -34.8903   22.4613 O   0  0  0  0  0  0
  -23.5487  -32.1367   23.7258 O   0  0  0  0  0  0
  -29.7252  -18.4598   20.2318 C   0  0  0  0  0  0
  -31.3369  -20.0272   21.1341 C   0  0  0  0  0  0
  -31.6552  -17.6021   21.4249 C   0  0  0  0  0  0
  -30.1369  -19.8447   20.4107 C   0  0  0  0  0  0
  -30.4586  -17.3063   20.7340 C   0  0  0  0  0  0
  -32.0806  -18.9350   21.6303 C   0  0  0  0  0  0
  -28.1823  -23.5795   19.9898 C   0  0  0  0  0  0
  -25.7808  -19.5837   13.0847 C   0  0  0  0  0  0
  -27.0833  -23.2789   19.2463 C   0  0  0  0  0  0
  -25.6240  -19.6872   14.4131 C   0  0  0  0  0  0
  -26.6889  -22.0790   18.5362 C   0  0  0  0  0  0
  -26.0448  -20.8599   15.1458 C   0  0  0  0  0  0
  -26.5335  -22.0637   17.2080 C   0  0  0  0  0  0
  -26.0903  -20.8936   16.4832 C   0  0  0  0  0  0
  -30.5252  -24.9445   22.0488 C   0  0  0  0  0  0
  -31.2534  -23.7192   21.4624 C   0  0  0  0  0  0
  -28.9855  -24.8367   22.1583 C   0  0  0  0  0  0
  -30.6808  -23.1903   20.1220 C   0  0  0  0  0  0
  -28.1731  -24.9461   20.8403 C   0  0  1  0  0  0
  -29.3299  -21.0784   19.7760 C   0  0  0  0  0  0
  -29.9891  -15.8962   20.6288 N   0  0  0  0  0  0
  -29.3506  -22.5400   20.3136 N   0  3  2  0  0  0
  -33.5248  -19.2389   22.5269 Cl  0  0  0  0  0  0
  -31.4734  -12.5423   19.1420 H   0  0  0  0  0  0
  -30.3551  -11.4744   19.9452 H   0  0  0  0  0  0
  -29.7762  -11.7287   17.5021 H   0  0  0  0  0  0
  -29.6316  -13.4564   17.7033 H   0  0  0  0  0  0
  -27.8880  -11.2884   18.8981 H   0  0  0  0  0  0
  -27.3751  -12.5338   17.7938 H   0  0  0  0  0  0
  -27.6285  -14.2568   19.4490 H   0  0  0  0  0  0
  -28.7414  -12.2136   21.4401 H   0  0  0  0  0  0
  -28.4574  -13.9184   21.7544 H   0  0  0  0  0  0
  -25.2781   -9.5675   22.4703 H   0  0  0  0  0  0
  -24.0020   -7.4644   22.7485 H   0  0  0  0  0  0
  -21.0885   -8.8658   19.8918 H   0  0  0  0  0  0
  -22.3690  -10.9585   19.6081 H   0  0  0  0  0  0
  -21.2010   -7.6128   23.9683 H   0  0  0  0  0  0
  -21.1500   -6.0525   25.9058 H   0  0  0  0  0  0
  -22.0611   -2.7593   23.2860 H   0  0  0  0  0  0
  -22.4227  -11.9732   22.4674 H   0  0  0  0  0  0
  -21.1149  -13.1008   22.2655 H   0  0  0  0  0  0
  -24.6303  -15.8305   20.5269 H   0  0  0  0  0  0
  -26.2469  -15.6535   20.0778 H   0  0  0  0  0  0
  -26.7197  -32.5308   23.1006 H   0  0  0  0  0  0
  -25.0193  -33.9677   25.0417 H   0  0  0  0  0  0
  -22.7329  -31.2861   21.3958 H   0  0  0  0  0  0
  -23.3712  -35.9646   23.3309 H   0  0  0  0  0  0
  -24.3596  -36.8993   22.2091 H   0  0  0  0  0  0
  -23.7242  -37.6479   23.6746 H   0  0  0  0  0  0
  -26.1262  -31.4940   20.6016 H   0  0  0  0  0  0
  -26.8496  -30.7970   22.0250 H   0  0  0  0  0  0
  -28.1101  -28.8898   21.2812 H   0  0  0  0  0  0
  -26.0073  -25.9273   18.9701 H   0  0  0  0  0  0
  -24.0001  -27.2968   18.9874 H   0  0  0  0  0  0
  -23.7642  -30.5446   19.4025 H   0  0  0  0  0  0
  -22.7669  -29.2010   19.8811 H   0  0  0  0  0  0
  -25.1300  -36.1866   25.0795 H   0  0  0  0  0  0
  -20.9842  -28.3122   24.1493 H   0  0  0  0  0  0
  -20.5680  -26.2222   23.3633 H   0  0  0  0  0  0
  -21.6576  -26.7439   22.1207 H   0  0  0  0  0  0
  -19.6901  -25.6263   21.1264 H   0  0  0  0  0  0
  -19.6616  -27.3151   20.6778 H   0  0  0  0  0  0
  -17.4170  -26.6743   21.3948 H   0  0  0  0  0  0
  -18.0148  -25.9968   22.8924 H   0  0  0  0  0  0
  -19.7910  -30.7295   24.2126 H   0  0  0  0  0  0
  -17.5000  -31.6268   24.5126 H   0  0  0  0  0  0
  -15.5333  -30.2929   23.7833 H   0  0  0  0  0  0
  -15.8616  -28.0810   22.7209 H   0  0  0  0  0  0
  -24.5995  -30.6876   25.7786 H   0  0  0  0  0  0
  -24.8650  -32.2837   26.4667 H   0  0  0  0  0  0
  -25.7991  -30.9113   27.0322 H   0  0  0  0  0  0
  -26.3167  -29.6685   24.1299 H   0  0  0  0  0  0
  -27.4201  -29.7439   25.4854 H   0  0  0  0  0  0
  -27.8940  -30.4433   23.9574 H   0  0  0  0  0  0
  -27.2672  -33.3878   26.1740 H   0  0  0  0  0  0
  -28.3935  -32.6683   25.0381 H   0  0  0  0  0  0
  -28.0438  -31.8715   26.5660 H   0  0  0  0  0  0
  -28.2544  -38.0097   24.7621 H   0  0  0  0  0  0
  -28.1074  -36.2655   24.6203 H   0  0  0  0  0  0
  -27.2304  -37.1315   25.8882 H   0  0  0  0  0  0
  -20.9457  -29.8801   21.7038 H   0  0  0  0  0  0
  -26.0116  -38.2850   24.1434 H   0  0  0  0  0  0
  -28.8265  -18.2792   19.6591 H   0  0  0  0  0  0
  -31.7340  -21.0068   21.3308 H   0  0  0  0  0  0
  -32.2601  -16.8093   21.8380 H   0  0  0  0  0  0
  -25.4676  -18.6984   12.5496 H   0  0  0  0  0  0
  -26.2412  -20.3770   12.5126 H   0  0  0  0  0  0
  -26.2998  -24.0077   19.2425 H   0  0  0  0  0  0
  -25.1682  -18.8670   14.9459 H   0  0  0  0  0  0
  -26.4500  -21.1792   19.0913 H   0  0  0  0  0  0
  -26.3339  -21.7451   14.5891 H   0  0  0  0  0  0
  -26.7383  -22.9629   16.6420 H   0  0  0  0  0  0
  -25.7899  -20.0139   17.0395 H   0  0  0  0  0  0
  -30.7963  -25.8458   21.5028 H   0  0  0  0  0  0
  -30.9206  -25.0945   23.0573 H   0  0  0  0  0  0
  -31.2911  -22.9193   22.2053 H   0  0  0  0  0  0
  -32.2996  -24.0048   21.3159 H   0  0  0  0  0  0
  -28.6390  -25.6238   22.8318 H   0  0  0  0  0  0
  -28.7148  -23.9159   22.6769 H   0  0  0  0  0  0
  -31.3858  -22.4901   19.6751 H   0  0  0  0  0  0
  -30.6188  -24.0017   19.3943 H   0  0  0  0  0  0
  -27.1478  -24.9595   21.2155 H   0  0  0  0  0  0
  -28.3153  -20.7062   19.8585 H   0  0  0  0  0  0
  -29.5695  -21.1215   18.7094 H   0  0  0  0  0  0
  -28.9896  -15.7723   20.6615 H   0  0  0  0  0  0
  -29.2952  -22.3799   21.3044 H   0  0  0  0  0  0
  1 25  1  0  0  0
  1 30  2  0  0  0
  1 91  1  0  0  0
  2  3  1  0  0  0
  2 25  1  0  0  0
  2 94  1  0  0  0
  2 95  1  0  0  0
  3  4  1  0  0  0
  3 96  1  0  0  0
  3 97  1  0  0  0
  4  5  1  0  0  0
  4 98  1  0  0  0
  4 99  1  0  0  0
  5  6  1  0  0  0
  5 26  1  0  0  0
  5100  1  0  0  0
  6 25  1  0  0  0
  6101  1  0  0  0
  6102  1  0  0  0
  7  8  2  0  0  0
  7 26  1  0  0  0
  7 29  1  0  0  0
  8  9  1  0  0  0
  8 22  1  0  0  0
  9 10  1  0  0  0
  9 27  2  0  0  0
 10 11  2  0  0  0
 10 15  1  0  0  0
 11 12  1  0  0  0
 11103  1  0  0  0
 12 13  2  0  0  0
 12104  1  0  0  0
 13 14  1  0  0  0
 13 31  1  0  0  0
 14 15  2  0  0  0
 14105  1  0  0  0
 15106  1  0  0  0
 16 17  2  0  0  0
 16 21  1  0  0  0
 16 31  1  0  0  0
 17 18  1  0  0  0
 17107  1  0  0  0
 18 19  2  0  0  0
 18108  1  0  0  0
 19 20  1  0  0  0
 19 24  1  0  0  0
 20 21  2  0  0  0
 20109  1  0  0  0
 21 23  1  0  0  0
 22 28  1  0  0  0
 22 32  2  0  0  0
 26 27  1  0  0  0
 28110  1  0  0  0
 28111  1  0  0  0
 29112  1  0  0  0
 29113  1  0  0  0
 33 34  1  0  0  0
 33 66  1  0  0  0
 33 70  2  0  0  0
 34 36  1  0  0  0
 34 59  1  0  0  0
 34114  1  0  0  0
 35 44  2  0  0  0
 35 45  1  0  0  0
 35 68  1  0  0  0
 36 56  1  0  0  0
 36115  1  0  0  0
 37 39  1  0  0  0
 37 47  1  0  0  0
 37 66  1  0  0  0
 37116  1  0  0  0
 38 43  2  0  0  0
 38 46  1  0  0  0
 38 47  1  0  0  0
 39 64  1  0  0  0
 39 67  2  0  0  0
 40 52  1  0  0  0
 40 53  2  0  0  0
 40 58  1  0  0  0
 41117  1  0  0  0
 41118  1  0  0  0
 41119  1  0  0  0
 41 48  1  0  0  0
 42 43  1  0  0  0
 42 66  1  0  0  0
 42120  1  0  0  0
 42121  1  0  0  0
 43 44  1  0  0  0
 44122  1  0  0  0
 45 46  2  0  0  0
 45123  1  0  0  0
 46124  1  0  0  0
 47125  1  0  0  0
 47126  1  0  0  0
 48 56  1  0  0  0
 48 65  1  0  0  0
 48127  1  0  0  0
 49 50  1  0  0  0
 49 53  1  0  0  0
 49 64  1  0  0  0
 49128  1  0  0  0
 50 51  1  0  0  0
 50129  1  0  0  0
 50130  1  0  0  0
 51 52  1  0  0  0
 51131  1  0  0  0
 51132  1  0  0  0
 52133  1  0  0  0
 52134  1  0  0  0
 53 54  1  0  0  0
 54 55  2  0  0  0
 54135  1  0  0  0
 55 57  1  0  0  0
 55136  1  0  0  0
 56 69  2  0  0  0
 57 58  2  0  0  0
 57137  1  0  0  0
 58138  1  0  0  0
 59 60  1  0  0  0
 59 61  1  0  0  0
 59 62  1  0  0  0
 60139  1  0  0  0
 60140  1  0  0  0
 60141  1  0  0  0
 61142  1  0  0  0
 61143  1  0  0  0
 61144  1  0  0  0
 62145  1  0  0  0
 62146  1  0  0  0
 62147  1  0  0  0
 63 65  1  0  0  0
 63148  1  0  0  0
 63149  1  0  0  0
 63150  1  0  0  0
 64151  1  0  0  0
 65152  1  0  0  0
 68 89  1  0  0  0
 71 74  2  0  0  0
 71 75  1  0  0  0
 71153  1  0  0  0
 72 74  1  0  0  0
 72 76  2  0  0  0
 72154  1  0  0  0
 73 75  2  0  0  0
 73 76  1  0  0  0
 73155  1  0  0  0
 74 90  1  0  0  0
 75 91  1  0  0  0
 76 93  1  0  0  0
 77 79  2  0  0  0
 77 89  1  0  0  0
 77 92  1  0  0  0
 78 80  2  0  0  0
 78156  1  0  0  0
 78157  1  0  0  0
 79 81  1  0  0  0
 79158  1  0  0  0
 80 82  1  0  0  0
 80159  1  0  0  0
 81 83  2  0  0  0
 81160  1  0  0  0
 82 84  2  0  0  0
 82161  1  0  0  0
 83 84  1  0  0  0
 83162  1  0  0  0
 84163  1  0  0  0
 85 86  1  0  0  0
 85 87  1  0  0  0
 85164  1  0  0  0
 85165  1  0  0  0
 86 88  1  0  0  0
 86166  1  0  0  0
 86167  1  0  0  0
 87 89  1  0  0  0
 87168  1  0  0  0
 87169  1  0  0  0
 88 92  1  0  0  0
 88170  1  0  0  0
 88171  1  0  0  0
 89172  1  0  0  0
 90173  1  0  0  0
 90174  1  0  0  0
 90 92  1  0  0  0
 91175  1  0  0  0
 92176  1  0  0  0
M  CHG  1  92   1
M  ISO  4   1 100  68 101  89 101  91 100
M  END
> <chiral flag>
0

> <version>
0

> <s_m_source_file>
/data/baiqing/PycharmProjects/Reinvent-master-3.2/result/LINK_invent/BTK/process_docking_weight1_custom_product_contain_oxygen_bond_distance_aromatic_linkinvent_7_9_3/rearranged_h_0041.sdf

> <i_m_source_file_index>
88

> <r_mmod_Potential_Energy-OPLS-2005>
204.276748657227

> <r_mmod_Stretch_Energy-OPLS-2005>
151.494018554688

> <r_mmod_Bend_Energy-OPLS-2005>
215.218063354492

> <r_mmod_Torsional_Energy-OPLS-2005>
286.188903808594

> <r_mmod_Improper_Torsional_Energy-OPLS-2005>
7.21533584594727

> <r_mmod_Van_der_Waal_Energy-OPLS-2005>
140.343475341797

> <r_mmod_Electrostatic_Energy-OPLS-2005>
-248.233459472656

> <r_mmod_Solvation_Energy-OPLS-2005>
-439.084320068359

> <b_mmod_Minimization_Converged-OPLS-2005>
0

> <r_mmod_RMS_Derivative-OPLS-2005>
7.74987316131592

$$$$
88
                    3D
 Structure written by MMmdl.
156164  0  0  1  0            999 V2000
  -30.6728  -14.5511   20.5491 C   0  0  0  0  0  0
  -30.4401  -12.3410   19.4610 C   0  0  0  0  0  0
  -29.5172  -12.5034   18.2338 C   0  0  0  0  0  0
  -28.0373  -12.3502   18.6381 C   0  0  0  0  0  0
  -27.6664  -13.2097   19.8760 C   0  0  2  0  0  0
  -28.7046  -13.0222   21.0072 C   0  0  0  0  0  0
  -25.2618  -13.8175   20.5688 C   0  0  0  0  0  0
  -24.1856  -13.0436   20.9156 C   0  0  0  0  0  0
  -24.6407  -11.6922   20.8690 C   0  0  0  0  0  0
  -23.9062  -10.4298   21.0368 C   0  0  0  0  0  0
  -24.3622   -9.4218   21.9143 C   0  0  0  0  0  0
  -23.6304   -8.2250   22.0750 C   0  0  0  0  0  0
  -22.4276   -8.0280   21.3554 C   0  0  0  0  0  0
  -21.9887   -9.0235   20.4643 C   0  0  0  0  0  0
  -22.7225  -10.2110   20.3037 C   0  0  0  0  0  0
  -21.6849   -6.0722   22.5293 C   0  0  0  0  0  0
  -21.4006   -6.5630   23.8222 C   0  0  0  0  0  0
  -21.3667   -5.6786   24.9179 C   0  0  0  0  0  0
  -21.6056   -4.3052   24.7233 C   0  0  0  0  0  0
  -21.8826   -3.8144   23.4351 C   0  0  0  0  0  0
  -21.9191   -4.6954   22.3400 C   0  0  0  0  0  0
  -22.7889  -13.5232   21.1826 C   0  0  0  0  0  0
  -22.1675   -4.2142   21.0979 F   0  0  0  0  0  0
  -21.5618   -3.4535   25.7736 F   0  0  0  0  0  0
  -30.0429  -13.3391   20.4731 N   0  0  0  0  0  0
  -26.3052  -12.9337   20.3346 N   0  0  0  0  0  0
  -25.9343  -11.6498   20.5735 N   0  0  0  0  0  0
  -22.0521  -12.8230   22.0391 N   0  0  0  0  0  0
  -25.4285  -15.1901   20.4165 N   0  0  0  0  0  0
  -31.7535  -14.7636   19.9955 O   0  0  0  0  0  0
  -21.6670   -6.8859   21.4250 O   0  0  0  0  0  0
  -22.3561  -14.5518   20.6675 O   0  0  0  0  0  0
  -24.6123  -31.8676   23.2060 C   0  0  0  0  0  0
  -25.9013  -32.4832   23.8359 C   0  0  1  0  0  0
  -27.2436  -27.4092   20.1030 C   0  0  0  0  0  0
  -25.5868  -33.8632   24.2295 N   0  0  0  0  0  0
  -23.4032  -30.4909   21.5488 C   0  0  2  0  0  0
  -24.8540  -28.9563   20.1123 C   0  0  0  0  0  0
  -22.7413  -29.4654   22.4974 C   0  0  0  0  0  0
  -18.0272  -28.1378   22.8504 C   0  0  0  0  0  0
  -24.1486  -36.7325   23.2637 C   0  0  0  0  0  0
  -25.9331  -30.8299   21.3619 C   0  0  0  0  0  0
  -26.0132  -29.4600   20.7128 C   0  0  0  0  0  0
  -27.2058  -28.6937   20.7059 C   0  0  0  0  0  0
  -26.0621  -26.9432   19.4739 C   0  0  0  0  0  0
  -24.8765  -27.7005   19.4870 C   0  0  0  0  0  0
  -23.6122  -29.8202   20.1650 C   0  0  0  0  0  0
  -25.4110  -36.3132   24.0337 C   0  0  1  0  0  0
  -20.5873  -28.3654   23.1322 C   0  0  2  0  0  0
  -20.6768  -26.9386   22.5433 C   0  0  0  0  0  0
  -19.5756  -26.6383   21.5225 C   0  0  0  0  0  0
  -18.1929  -26.7929   22.1631 C   0  0  0  0  0  0
  -19.1528  -28.8824   23.2918 C   0  0  0  0  0  0
  -18.9457  -30.1435   23.8921 C   0  0  0  0  0  0
  -17.6460  -30.6592   24.0555 C   0  0  0  0  0  0
  -25.9030  -34.9492   23.5120 C   0  0  0  0  0  0
  -16.5351  -29.9097   23.6322 C   0  0  0  0  0  0
  -16.7256  -28.6518   23.0343 C   0  0  0  0  0  0
  -26.4418  -31.6613   25.0691 C   0  0  0  0  0  0
  -25.3638  -31.3751   26.1408 C   0  0  0  0  0  0
  -27.0225  -30.3042   24.6070 C   0  0  0  0  0  0
  -27.6000  -32.4309   25.7459 C   0  0  0  0  0  0
  -27.5596  -37.1810   24.8457 C   0  0  0  0  0  0
  -21.4141  -29.3025   22.3706 N   0  0  0  0  0  0
  -26.4307  -37.3815   23.9405 N   0  0  0  0  0  0
  -24.6682  -31.0759   22.0978 N   0  0  0  0  0  0
  -23.4181  -28.8188   23.3007 O   0  0  0  0  0  0
  -28.4213  -26.6685   20.1551 O   0  0  0  0  0  0
  -26.5635  -34.8948   22.4706 O   0  0  0  0  0  0
  -23.5315  -32.1415   23.7466 O   0  0  0  0  0  0
  -29.7097  -19.3736   20.8911 C   0  0  0  0  0  0
  -31.6764  -18.1465   20.1519 C   0  0  0  0  0  0
  -31.7573  -20.5866   20.3785 C   0  0  0  0  0  0
  -30.3279  -18.1257   20.5654 C   0  0  0  0  0  0
  -30.4130  -20.6126   20.8091 C   0  0  0  0  0  0
  -32.3811  -19.3644   20.0511 C   0  0  0  0  0  0
  -29.5064  -16.8105   20.5270 C   0  0  0  0  0  0
  -29.8024  -21.9571   21.2744 C   0  0  0  0  0  0
  -29.3784  -24.3858   20.6630 C   0  0  0  0  0  0
  -28.4169  -25.2592   19.7995 C   0  0  0  0  0  0
  -29.9820  -15.5465   21.1532 N   0  0  0  0  0  0
  -29.4975  -22.9558   20.2024 N   0  3  0  0  0  0
  -34.0181  -19.3609   19.5028 Cl  0  0  0  0  0  0
  -31.4848  -12.4438   19.1648 H   0  0  0  0  0  0
  -30.3516  -11.3357   19.8785 H   0  0  0  0  0  0
  -29.7756  -11.7660   17.4731 H   0  0  0  0  0  0
  -29.6779  -13.4824   17.7785 H   0  0  0  0  0  0
  -27.8682  -11.2958   18.8556 H   0  0  0  0  0  0
  -27.3871  -12.5876   17.7968 H   0  0  0  0  0  0
  -27.7005  -14.2513   19.5556 H   0  0  0  0  0  0
  -28.6923  -11.9936   21.3671 H   0  0  0  0  0  0
  -28.4463  -13.6293   21.8740 H   0  0  0  0  0  0
  -25.2758   -9.5702   22.4699 H   0  0  0  0  0  0
  -24.0015   -7.4649   22.7475 H   0  0  0  0  0  0
  -21.0807   -8.8743   19.8954 H   0  0  0  0  0  0
  -22.3667  -10.9636   19.6144 H   0  0  0  0  0  0
  -21.2018   -7.6142   23.9714 H   0  0  0  0  0  0
  -21.1479   -6.0518   25.9071 H   0  0  0  0  0  0
  -22.0596   -2.7605   23.2864 H   0  0  0  0  0  0
  -22.4194  -11.9924   22.4806 H   0  0  0  0  0  0
  -21.1130  -13.1244   22.2588 H   0  0  0  0  0  0
  -24.6544  -15.8357   20.5369 H   0  0  0  0  0  0
  -26.2860  -15.6418   20.1240 H   0  0  0  0  0  0
  -26.7080  -32.5554   23.1131 H   0  0  0  0  0  0
  -24.9921  -33.9773   25.0375 H   0  0  0  0  0  0
  -22.6901  -31.3062   21.4073 H   0  0  0  0  0  0
  -23.3757  -35.9648   23.3310 H   0  0  0  0  0  0
  -24.3573  -36.8941   22.2051 H   0  0  0  0  0  0
  -23.7244  -37.6532   23.6641 H   0  0  0  0  0  0
  -26.0346  -31.5921   20.5887 H   0  0  0  0  0  0
  -26.8260  -30.8942   21.9732 H   0  0  0  0  0  0
  -28.0977  -29.0813   21.1776 H   0  0  0  0  0  0
  -26.0230  -25.9977   18.9579 H   0  0  0  0  0  0
  -23.9856  -27.3139   19.0099 H   0  0  0  0  0  0
  -23.7056  -30.5889   19.3983 H   0  0  0  0  0  0
  -22.7396  -29.2294   19.8783 H   0  0  0  0  0  0
  -25.1290  -36.1995   25.0834 H   0  0  0  0  0  0
  -20.9960  -28.3247   24.1445 H   0  0  0  0  0  0
  -20.5678  -26.2270   23.3623 H   0  0  0  0  0  0
  -21.6642  -26.7447   22.1223 H   0  0  0  0  0  0
  -19.6925  -25.6297   21.1244 H   0  0  0  0  0  0
  -19.6701  -27.3208   20.6759 H   0  0  0  0  0  0
  -17.4198  -26.6676   21.4015 H   0  0  0  0  0  0
  -18.0314  -26.0046   22.9000 H   0  0  0  0  0  0
  -19.7937  -30.7236   24.2306 H   0  0  0  0  0  0
  -17.5030  -31.6269   24.5164 H   0  0  0  0  0  0
  -15.5369  -30.3014   23.7624 H   0  0  0  0  0  0
  -15.8661  -28.0846   22.7040 H   0  0  0  0  0  0
  -24.5898  -30.6987   25.7761 H   0  0  0  0  0  0
  -24.8690  -32.2895   26.4666 H   0  0  0  0  0  0
  -25.7944  -30.9084   27.0278 H   0  0  0  0  0  0
  -26.2770  -29.6841   24.1073 H   0  0  0  0  0  0
  -27.3934  -29.7235   25.4529 H   0  0  0  0  0  0
  -27.8623  -30.4345   23.9248 H   0  0  0  0  0  0
  -27.2665  -33.3675   26.1939 H   0  0  0  0  0  0
  -28.3862  -32.6758   25.0302 H   0  0  0  0  0  0
  -28.0573  -31.8458   26.5446 H   0  0  0  0  0  0
  -28.2602  -38.0114   24.7544 H   0  0  0  0  0  0
  -28.1111  -36.2662   24.6239 H   0  0  0  0  0  0
  -27.2312  -37.1412   25.8856 H   0  0  0  0  0  0
  -20.9286  -29.8729   21.6923 H   0  0  0  0  0  0
  -26.0203  -38.2900   24.1408 H   0  0  0  0  0  0
  -28.6782  -19.3855   21.2145 H   0  0  0  0  0  0
  -32.1770  -17.2323   19.8738 H   0  0  0  0  0  0
  -32.3275  -21.5051   20.3133 H   0  0  0  0  0  0
  -29.2790  -16.6060   19.4798 H   0  0  0  0  0  0
  -28.5364  -17.0201   20.9818 H   0  0  0  0  0  0
  -30.5153  -22.4041   21.9706 H   0  0  0  0  0  0
  -28.8974  -21.7714   21.8572 H   0  0  0  0  0  0
  -29.0143  -24.4067   21.6897 H   0  0  0  0  0  0
  -30.3724  -24.8348   20.6906 H   0  0  0  0  0  0
  -27.4337  -24.8134   19.9250 H   0  0  0  0  0  0
  -28.6711  -25.1852   18.7406 H   0  0  0  0  0  0
  -29.3096  -15.1837   21.8110 H   0  0  0  0  0  0
  -30.2158  -22.9035   19.4965 H   0  0  0  0  0  0
  -28.6372  -22.6718   19.7625 H   0  0  0  0  0  0
  1 25  1  0  0  0
  1 30  2  0  0  0
  1 81  1  0  0  0
  2  3  1  0  0  0
  2 25  1  0  0  0
  2 84  1  0  0  0
  2 85  1  0  0  0
  3  4  1  0  0  0
  3 86  1  0  0  0
  3 87  1  0  0  0
  4  5  1  0  0  0
  4 88  1  0  0  0
  4 89  1  0  0  0
  5  6  1  0  0  0
  5 26  1  0  0  0
  5 90  1  0  0  0
  6 25  1  0  0  0
  6 91  1  0  0  0
  6 92  1  0  0  0
  7  8  2  0  0  0
  7 26  1  0  0  0
  7 29  1  0  0  0
  8  9  1  0  0  0
  8 22  1  0  0  0
  9 10  1  0  0  0
  9 27  2  0  0  0
 10 11  2  0  0  0
 10 15  1  0  0  0
 11 12  1  0  0  0
 11 93  1  0  0  0
 12 13  2  0  0  0
 12 94  1  0  0  0
 13 14  1  0  0  0
 13 31  1  0  0  0
 14 15  2  0  0  0
 14 95  1  0  0  0
 15 96  1  0  0  0
 16 17  2  0  0  0
 16 21  1  0  0  0
 16 31  1  0  0  0
 17 18  1  0  0  0
 17 97  1  0  0  0
 18 19  2  0  0  0
 18 98  1  0  0  0
 19 20  1  0  0  0
 19 24  1  0  0  0
 20 21  2  0  0  0
 20 99  1  0  0  0
 21 23  1  0  0  0
 22 28  1  0  0  0
 22 32  2  0  0  0
 26 27  1  0  0  0
 28100  1  0  0  0
 28101  1  0  0  0
 29102  1  0  0  0
 29103  1  0  0  0
 33 34  1  0  0  0
 33 66  1  0  0  0
 33 70  2  0  0  0
 34 36  1  0  0  0
 34 59  1  0  0  0
 34104  1  0  0  0
 35 44  2  0  0  0
 35 45  1  0  0  0
 35 68  1  0  0  0
 36 56  1  0  0  0
 36105  1  0  0  0
 37 39  1  0  0  0
 37 47  1  0  0  0
 37 66  1  0  0  0
 37106  1  0  0  0
 38 43  2  0  0  0
 38 46  1  0  0  0
 38 47  1  0  0  0
 39 64  1  0  0  0
 39 67  2  0  0  0
 40 52  1  0  0  0
 40 53  2  0  0  0
 40 58  1  0  0  0
 41107  1  0  0  0
 41108  1  0  0  0
 41109  1  0  0  0
 41 48  1  0  0  0
 42 43  1  0  0  0
 42 66  1  0  0  0
 42110  1  0  0  0
 42111  1  0  0  0
 43 44  1  0  0  0
 44112  1  0  0  0
 45 46  2  0  0  0
 45113  1  0  0  0
 46114  1  0  0  0
 47115  1  0  0  0
 47116  1  0  0  0
 48 56  1  0  0  0
 48 65  1  0  0  0
 48117  1  0  0  0
 49 50  1  0  0  0
 49 53  1  0  0  0
 49 64  1  0  0  0
 49118  1  0  0  0
 50 51  1  0  0  0
 50119  1  0  0  0
 50120  1  0  0  0
 51 52  1  0  0  0
 51121  1  0  0  0
 51122  1  0  0  0
 52123  1  0  0  0
 52124  1  0  0  0
 53 54  1  0  0  0
 54 55  2  0  0  0
 54125  1  0  0  0
 55 57  1  0  0  0
 55126  1  0  0  0
 56 69  2  0  0  0
 57 58  2  0  0  0
 57127  1  0  0  0
 58128  1  0  0  0
 59 60  1  0  0  0
 59 61  1  0  0  0
 59 62  1  0  0  0
 60129  1  0  0  0
 60130  1  0  0  0
 60131  1  0  0  0
 61132  1  0  0  0
 61133  1  0  0  0
 61134  1  0  0  0
 62135  1  0  0  0
 62136  1  0  0  0
 62137  1  0  0  0
 63 65  1  0  0  0
 63138  1  0  0  0
 63139  1  0  0  0
 63140  1  0  0  0
 64141  1  0  0  0
 65142  1  0  0  0
 68 80  1  0  0  0
 71 74  2  0  0  0
 71 75  1  0  0  0
 71143  1  0  0  0
 72 74  1  0  0  0
 72 76  2  0  0  0
 72144  1  0  0  0
 73 75  2  0  0  0
 73 76  1  0  0  0
 73145  1  0  0  0
 74 77  1  0  0  0
 75 78  1  0  0  0
 76 83  1  0  0  0
 77 81  1  0  0  0
 77146  1  0  0  0
 77147  1  0  0  0
 78 82  1  0  0  0
 78148  1  0  0  0
 78149  1  0  0  0
 79 80  1  0  0  0
 79 82  1  0  0  0
 79150  1  0  0  0
 79151  1  0  0  0
 80152  1  0  0  0
 80153  1  0  0  0
 81154  1  0  0  0
 82155  1  0  0  0
 82156  1  0  0  0
M  CHG  1  82   1
M  ISO  4   1 100  68 101  80 101  81 100
M  END
> <chiral flag>
0

> <version>
0

> <s_m_source_file>
/data/baiqing/PycharmProjects/Reinvent-master-3.2/result/LINK_invent/BTK/process_docking_weight1_custom_product_contain_oxygen_bond_distance_aromatic_linkinvent_7_9_3/rearranged_h_0041.sdf

> <i_m_source_file_index>
89

> <r_mmod_Potential_Energy-OPLS-2005>
-229.532089233398

> <r_mmod_Stretch_Energy-OPLS-2005>
51.0538711547852

> <r_mmod_Bend_Energy-OPLS-2005>
118.689880371094

> <r_mmod_Torsional_Energy-OPLS-2005>
225.658782958984

> <r_mmod_Improper_Torsional_Energy-OPLS-2005>
7.08122968673706

> <r_mmod_Van_der_Waal_Energy-OPLS-2005>
143.235687255859

> <r_mmod_Electrostatic_Energy-OPLS-2005>
-313.081665039062

> <r_mmod_Solvation_Energy-OPLS-2005>
-484.345397949219

> <b_mmod_Minimization_Converged-OPLS-2005>
0

> <r_mmod_RMS_Derivative-OPLS-2005>
4.09184217453003

$$$$
89
                    3D
 Structure written by MMmdl.
175184  0  0  1  0            999 V2000
  -30.5801  -14.6939   20.5078 C   0  0  0  0  0  0
  -30.4498  -12.4299   19.4566 C   0  0  0  0  0  0
  -29.5102  -12.5133   18.2308 C   0  0  0  0  0  0
  -28.0355  -12.3376   18.6470 C   0  0  0  0  0  0
  -27.6524  -13.2148   19.8679 C   0  0  2  0  0  0
  -28.6981  -13.0731   20.9974 C   0  0  0  0  0  0
  -25.2547  -13.8163   20.5671 C   0  0  0  0  0  0
  -24.1820  -13.0427   20.9194 C   0  0  0  0  0  0
  -24.6389  -11.6905   20.8748 C   0  0  0  0  0  0
  -23.9056  -10.4290   21.0409 C   0  0  0  0  0  0
  -24.3611   -9.4202   21.9186 C   0  0  0  0  0  0
  -23.6287   -8.2237   22.0752 C   0  0  0  0  0  0
  -22.4270   -8.0274   21.3542 C   0  0  0  0  0  0
  -21.9901   -9.0249   20.4645 C   0  0  0  0  0  0
  -22.7227  -10.2131   20.3057 C   0  0  0  0  0  0
  -21.6851   -6.0724   22.5273 C   0  0  0  0  0  0
  -21.4007   -6.5634   23.8205 C   0  0  0  0  0  0
  -21.3659   -5.6785   24.9168 C   0  0  0  0  0  0
  -21.6047   -4.3049   24.7217 C   0  0  0  0  0  0
  -21.8821   -3.8140   23.4341 C   0  0  0  0  0  0
  -21.9193   -4.6951   22.3398 C   0  0  0  0  0  0
  -22.7845  -13.5222   21.1859 C   0  0  0  0  0  0
  -22.1662   -4.2138   21.0974 F   0  0  0  0  0  0
  -21.5633   -3.4534   25.7732 F   0  0  0  0  0  0
  -30.0079  -13.4459   20.4368 N   0  0  0  0  0  0
  -26.2984  -12.9341   20.3343 N   0  0  0  0  0  0
  -25.9320  -11.6501   20.5787 N   0  0  0  0  0  0
  -22.0496  -12.8216   22.0422 N   0  0  0  0  0  0
  -25.4254  -15.1874   20.4035 N   0  0  0  0  0  0
  -31.7297  -14.8901   20.1000 O   0  0  0  0  0  0
  -21.6642   -6.8868   21.4234 O   0  0  0  0  0  0
  -22.3527  -14.5530   20.6709 O   0  0  0  0  0  0
  -24.6265  -31.8594   23.2041 C   0  0  0  0  0  0
  -25.9116  -32.4777   23.8358 C   0  0  1  0  0  0
  -27.2123  -27.2824   20.1437 C   0  0  0  0  0  0
  -25.5944  -33.8579   24.2280 N   0  0  0  0  0  0
  -23.4226  -30.4832   21.5468 C   0  0  2  0  0  0
  -24.8697  -28.9291   20.1225 C   0  0  0  0  0  0
  -22.7478  -29.4617   22.4942 C   0  0  0  0  0  0
  -18.0291  -28.1380   22.8505 C   0  0  0  0  0  0
  -24.1481  -36.7278   23.2639 C   0  0  0  0  0  0
  -25.9661  -30.7713   21.3894 C   0  0  0  0  0  0
  -26.0359  -29.3887   20.7499 C   0  0  0  0  0  0
  -27.2093  -28.5718   20.7675 C   0  0  0  0  0  0
  -26.0476  -26.9124   19.4436 C   0  0  0  0  0  0
  -24.8771  -27.6930   19.4611 C   0  0  0  0  0  0
  -23.6425  -29.8172   20.1635 C   0  0  0  0  0  0
  -25.4107  -36.3076   24.0334 C   0  0  1  0  0  0
  -20.5891  -28.3682   23.1286 C   0  0  2  0  0  0
  -20.6780  -26.9402   22.5417 C   0  0  0  0  0  0
  -19.5754  -26.6374   21.5223 C   0  0  0  0  0  0
  -18.1931  -26.7928   22.1630 C   0  0  0  0  0  0
  -19.1548  -28.8846   23.2895 C   0  0  0  0  0  0
  -18.9471  -30.1456   23.8894 C   0  0  0  0  0  0
  -17.6473  -30.6591   24.0564 C   0  0  0  0  0  0
  -25.9055  -34.9453   23.5101 C   0  0  0  0  0  0
  -16.5360  -29.9093   23.6336 C   0  0  0  0  0  0
  -16.7281  -28.6510   23.0358 C   0  0  0  0  0  0
  -26.4501  -31.6585   25.0724 C   0  0  0  0  0  0
  -25.3730  -31.3759   26.1453 C   0  0  0  0  0  0
  -27.0329  -30.3003   24.6178 C   0  0  0  0  0  0
  -27.6052  -32.4327   25.7501 C   0  0  0  0  0  0
  -27.5575  -37.1794   24.8470 C   0  0  0  0  0  0
  -21.4189  -29.3040   22.3682 N   0  0  0  0  0  0
  -26.4280  -37.3772   23.9423 N   0  0  0  0  0  0
  -24.6904  -31.0568   22.1025 N   0  0  0  0  0  0
  -23.4197  -28.8152   23.3024 O   0  0  0  0  0  0
  -28.3182  -26.4231   20.0412 O   0  0  0  0  0  0
  -26.5602  -34.8919   22.4658 O   0  0  0  0  0  0
  -23.5430  -32.1423   23.7356 O   0  0  0  0  0  0
  -30.3896  -19.4268   20.0573 C   0  0  0  0  0  0
  -30.5003  -17.9981   20.0481 C   0  0  0  0  0  0
  -29.5354  -20.1427   20.9485 C   0  0  0  0  0  0
  -28.7680  -19.3190   21.8345 C   0  0  0  0  0  0
  -28.8613  -17.8776   21.8097 C   0  0  0  0  0  0
  -29.7464  -17.1776   20.9292 C   0  0  0  0  0  0
  -25.3072  -22.0472   19.4607 C   0  0  0  0  0  0
  -26.4609  -21.6260   18.5259 C   0  0  0  0  0  0
  -25.6815  -22.4856   20.8932 C   0  0  0  0  0  0
  -27.4298  -22.7614   18.1220 C   0  0  0  0  0  0
  -26.3978  -23.8516   20.9776 C   0  0  0  0  0  0
  -28.7580  -22.7597   18.9019 C   0  0  0  0  0  0
  -27.9425  -23.8365   21.0723 C   0  0  2  0  0  0
  -27.8498  -19.9735   22.8656 C   0  0  0  0  0  0
  -27.9886  -17.0386   22.7495 C   0  0  0  0  0  0
  -29.5962  -21.7381   21.0462 C   0  0  0  0  0  0
  -28.5943  -25.3257   21.0081 C   0  0  0  0  0  0
  -29.7450  -15.7005   20.9382 N   0  0  0  0  0  0
  -28.5396  -22.6065   20.3586 N   0  3  2  0  0  0
  -31.4845  -12.5853   19.1474 H   0  0  0  0  0  0
  -30.4172  -11.4345   19.9032 H   0  0  0  0  0  0
  -29.7831  -11.7545   17.4959 H   0  0  0  0  0  0
  -29.6370  -13.4766   17.7354 H   0  0  0  0  0  0
  -27.8861  -11.2852   18.8911 H   0  0  0  0  0  0
  -27.3748  -12.5491   17.8053 H   0  0  0  0  0  0
  -27.6693  -14.2485   19.5226 H   0  0  0  0  0  0
  -28.7262  -12.0471   21.3683 H   0  0  0  0  0  0
  -28.4303  -13.6879   21.8577 H   0  0  0  0  0  0
  -25.2752   -9.5676   22.4757 H   0  0  0  0  0  0
  -23.9992   -7.4626   22.7467 H   0  0  0  0  0  0
  -21.0831   -8.8765   19.8956 H   0  0  0  0  0  0
  -22.3683  -10.9665   19.6165 H   0  0  0  0  0  0
  -21.1995   -7.6138   23.9700 H   0  0  0  0  0  0
  -21.1479   -6.0518   25.9070 H   0  0  0  0  0  0
  -22.0602   -2.7599   23.2843 H   0  0  0  0  0  0
  -22.4113  -11.9864   22.4789 H   0  0  0  0  0  0
  -21.1125  -13.1248   22.2661 H   0  0  0  0  0  0
  -24.6507  -15.8354   20.4927 H   0  0  0  0  0  0
  -26.2637  -15.6228   20.0421 H   0  0  0  0  0  0
  -26.7169  -32.5428   23.1085 H   0  0  0  0  0  0
  -25.0118  -33.9727   25.0448 H   0  0  0  0  0  0
  -22.7186  -31.3053   21.4011 H   0  0  0  0  0  0
  -23.3751  -35.9602   23.3301 H   0  0  0  0  0  0
  -24.3578  -36.8892   22.2054 H   0  0  0  0  0  0
  -23.7226  -37.6481   23.6654 H   0  0  0  0  0  0
  -26.0996  -31.5212   20.6090 H   0  0  0  0  0  0
  -26.8474  -30.8283   22.0158 H   0  0  0  0  0  0
  -28.1040  -28.9264   21.2602 H   0  0  0  0  0  0
  -26.0445  -26.0155   18.8442 H   0  0  0  0  0  0
  -23.9992  -27.3525   18.9289 H   0  0  0  0  0  0
  -23.7699  -30.5922   19.4072 H   0  0  0  0  0  0
  -22.7609  -29.2504   19.8574 H   0  0  0  0  0  0
  -25.1288  -36.1917   25.0826 H   0  0  0  0  0  0
  -20.9995  -28.3236   24.1404 H   0  0  0  0  0  0
  -20.5683  -26.2282   23.3615 H   0  0  0  0  0  0
  -21.6638  -26.7433   22.1193 H   0  0  0  0  0  0
  -19.6914  -25.6286   21.1246 H   0  0  0  0  0  0
  -19.6691  -27.3185   20.6755 H   0  0  0  0  0  0
  -17.4210  -26.6703   21.4017 H   0  0  0  0  0  0
  -18.0311  -26.0063   22.9012 H   0  0  0  0  0  0
  -19.7952  -30.7287   24.2232 H   0  0  0  0  0  0
  -17.5035  -31.6270   24.5164 H   0  0  0  0  0  0
  -15.5364  -30.2999   23.7671 H   0  0  0  0  0  0
  -15.8678  -28.0843   22.7056 H   0  0  0  0  0  0
  -24.5896  -30.7110   25.7798 H   0  0  0  0  0  0
  -24.8931  -32.2941   26.4837 H   0  0  0  0  0  0
  -25.8046  -30.8968   27.0245 H   0  0  0  0  0  0
  -26.2894  -29.6767   24.1195 H   0  0  0  0  0  0
  -27.4019  -29.7239   25.4667 H   0  0  0  0  0  0
  -27.8771  -30.4283   23.9404 H   0  0  0  0  0  0
  -27.2651  -33.3633   26.2049 H   0  0  0  0  0  0
  -28.3876  -32.6876   25.0345 H   0  0  0  0  0  0
  -28.0690  -31.8471   26.5441 H   0  0  0  0  0  0
  -28.2586  -38.0097   24.7514 H   0  0  0  0  0  0
  -28.1067  -36.2626   24.6276 H   0  0  0  0  0  0
  -27.2300  -37.1419   25.8875 H   0  0  0  0  0  0
  -20.9355  -29.8788   21.6917 H   0  0  0  0  0  0
  -26.0156  -38.2841   24.1433 H   0  0  0  0  0  0
  -31.0149  -19.9843   19.3728 H   0  0  0  0  0  0
  -31.1736  -17.5359   19.3397 H   0  0  0  0  0  0
  -24.6274  -21.1968   19.5429 H   0  0  0  0  0  0
  -24.7187  -22.8307   18.9810 H   0  0  0  0  0  0
  -25.9979  -21.2519   17.6110 H   0  0  0  0  0  0
  -26.9997  -20.7682   18.9332 H   0  0  0  0  0  0
  -26.2157  -21.6993   21.4193 H   0  0  0  0  0  0
  -24.7407  -22.5875   21.4379 H   0  0  0  0  0  0
  -26.9407  -23.7320   18.1826 H   0  0  0  0  0  0
  -27.6768  -22.6461   17.0658 H   0  0  0  0  0  0
  -26.0168  -24.3974   21.8432 H   0  0  0  0  0  0
  -26.0746  -24.4297   20.1269 H   0  0  0  0  0  0
  -29.3406  -23.6577   18.6913 H   0  0  0  0  0  0
  -29.3543  -21.9206   18.5404 H   0  0  0  0  0  0
  -28.1080  -23.5682   22.1162 H   0  0  0  0  0  0
  -27.8155  -21.0572   22.8168 H   0  0  0  0  0  0
  -28.1800  -19.7272   23.8753 H   0  0  0  0  0  0
  -26.8263  -19.6179   22.7413 H   0  0  0  0  0  0
  -27.6459  -17.5713   23.6328 H   0  0  0  0  0  0
  -28.5253  -16.1715   23.1336 H   0  0  0  0  0  0
  -27.1071  -16.6811   22.2175 H   0  0  0  0  0  0
  -30.5714  -22.0556   20.6721 H   0  0  0  0  0  0
  -29.6486  -21.9952   22.1037 H   0  0  0  0  0  0
  -29.6771  -25.1989   21.0033 H   0  0  0  0  0  0
  -28.3948  -25.7808   21.9793 H   0  0  0  0  0  0
  -28.8990  -15.3136   21.3261 H   0  0  0  0  0  0
  -27.7494  -21.9772   20.3807 H   0  0  0  0  0  0
  1 25  1  0  0  0
  1 30  2  0  0  0
  1 88  1  0  0  0
  2  3  1  0  0  0
  2 25  1  0  0  0
  2 90  1  0  0  0
  2 91  1  0  0  0
  3  4  1  0  0  0
  3 92  1  0  0  0
  3 93  1  0  0  0
  4  5  1  0  0  0
  4 94  1  0  0  0
  4 95  1  0  0  0
  5  6  1  0  0  0
  5 26  1  0  0  0
  5 96  1  0  0  0
  6 25  1  0  0  0
  6 97  1  0  0  0
  6 98  1  0  0  0
  7  8  2  0  0  0
  7 26  1  0  0  0
  7 29  1  0  0  0
  8  9  1  0  0  0
  8 22  1  0  0  0
  9 10  1  0  0  0
  9 27  2  0  0  0
 10 11  2  0  0  0
 10 15  1  0  0  0
 11 12  1  0  0  0
 11 99  1  0  0  0
 12 13  2  0  0  0
 12100  1  0  0  0
 13 14  1  0  0  0
 13 31  1  0  0  0
 14 15  2  0  0  0
 14101  1  0  0  0
 15102  1  0  0  0
 16 17  2  0  0  0
 16 21  1  0  0  0
 16 31  1  0  0  0
 17 18  1  0  0  0
 17103  1  0  0  0
 18 19  2  0  0  0
 18104  1  0  0  0
 19 20  1  0  0  0
 19 24  1  0  0  0
 20 21  2  0  0  0
 20105  1  0  0  0
 21 23  1  0  0  0
 22 28  1  0  0  0
 22 32  2  0  0  0
 26 27  1  0  0  0
 28106  1  0  0  0
 28107  1  0  0  0
 29108  1  0  0  0
 29109  1  0  0  0
 33 34  1  0  0  0
 33 66  1  0  0  0
 33 70  2  0  0  0
 34 36  1  0  0  0
 34 59  1  0  0  0
 34110  1  0  0  0
 35 44  2  0  0  0
 35 45  1  0  0  0
 35 68  1  0  0  0
 36 56  1  0  0  0
 36111  1  0  0  0
 37 39  1  0  0  0
 37 47  1  0  0  0
 37 66  1  0  0  0
 37112  1  0  0  0
 38 43  2  0  0  0
 38 46  1  0  0  0
 38 47  1  0  0  0
 39 64  1  0  0  0
 39 67  2  0  0  0
 40 52  1  0  0  0
 40 53  2  0  0  0
 40 58  1  0  0  0
 41113  1  0  0  0
 41114  1  0  0  0
 41115  1  0  0  0
 41 48  1  0  0  0
 42 43  1  0  0  0
 42 66  1  0  0  0
 42116  1  0  0  0
 42117  1  0  0  0
 43 44  1  0  0  0
 44118  1  0  0  0
 45 46  2  0  0  0
 45119  1  0  0  0
 46120  1  0  0  0
 47121  1  0  0  0
 47122  1  0  0  0
 48 56  1  0  0  0
 48 65  1  0  0  0
 48123  1  0  0  0
 49 50  1  0  0  0
 49 53  1  0  0  0
 49 64  1  0  0  0
 49124  1  0  0  0
 50 51  1  0  0  0
 50125  1  0  0  0
 50126  1  0  0  0
 51 52  1  0  0  0
 51127  1  0  0  0
 51128  1  0  0  0
 52129  1  0  0  0
 52130  1  0  0  0
 53 54  1  0  0  0
 54 55  2  0  0  0
 54131  1  0  0  0
 55 57  1  0  0  0
 55132  1  0  0  0
 56 69  2  0  0  0
 57 58  2  0  0  0
 57133  1  0  0  0
 58134  1  0  0  0
 59 60  1  0  0  0
 59 61  1  0  0  0
 59 62  1  0  0  0
 60135  1  0  0  0
 60136  1  0  0  0
 60137  1  0  0  0
 61138  1  0  0  0
 61139  1  0  0  0
 61140  1  0  0  0
 62141  1  0  0  0
 62142  1  0  0  0
 62143  1  0  0  0
 63 65  1  0  0  0
 63144  1  0  0  0
 63145  1  0  0  0
 63146  1  0  0  0
 64147  1  0  0  0
 65148  1  0  0  0
 68 87  1  0  0  0
 71 72  2  0  0  0
 71 73  1  0  0  0
 71149  1  0  0  0
 72 76  1  0  0  0
 72150  1  0  0  0
 73 74  2  0  0  0
 73 86  1  0  0  0
 74 75  1  0  0  0
 74 84  1  0  0  0
 75 76  2  0  0  0
 75 85  1  0  0  0
 76 88  1  0  0  0
 77 78  1  0  0  0
 77 79  1  0  0  0
 77151  1  0  0  0
 77152  1  0  0  0
 78 80  1  0  0  0
 78153  1  0  0  0
 78154  1  0  0  0
 79 81  1  0  0  0
 79155  1  0  0  0
 79156  1  0  0  0
 80 82  1  0  0  0
 80157  1  0  0  0
 80158  1  0  0  0
 81 83  1  0  0  0
 81159  1  0  0  0
 81160  1  0  0  0
 82 89  1  0  0  0
 82161  1  0  0  0
 82162  1  0  0  0
 83 87  1  0  0  0
 83 89  1  0  0  0
 83163  1  0  0  0
 84164  1  0  0  0
 84165  1  0  0  0
 84166  1  0  0  0
 85167  1  0  0  0
 85168  1  0  0  0
 85169  1  0  0  0
 86170  1  0  0  0
 86171  1  0  0  0
 86 89  1  0  0  0
 87172  1  0  0  0
 87173  1  0  0  0
 88174  1  0  0  0
 89175  1  0  0  0
M  CHG  1  89   1
M  ISO  4   1 100  68 101  87 101  88 100
M  END
> <chiral flag>
0

> <version>
0

> <s_m_source_file>
/data/baiqing/PycharmProjects/Reinvent-master-3.2/result/LINK_invent/BTK/process_docking_weight1_custom_product_contain_oxygen_bond_distance_aromatic_linkinvent_7_9_3/rearranged_h_0041.sdf

> <i_m_source_file_index>
90

> <r_mmod_Potential_Energy-OPLS-2005>
179.747222900391

> <r_mmod_Stretch_Energy-OPLS-2005>
108.753959655762

> <r_mmod_Bend_Energy-OPLS-2005>
231.613174438477

> <r_mmod_Torsional_Energy-OPLS-2005>
307.522918701172

> <r_mmod_Improper_Torsional_Energy-OPLS-2005>
4.6619758605957

> <r_mmod_Van_der_Waal_Energy-OPLS-2005>
138.267791748047

> <r_mmod_Electrostatic_Energy-OPLS-2005>
-276.246826171875

> <r_mmod_Solvation_Energy-OPLS-2005>
-399.734558105469

> <b_mmod_Minimization_Converged-OPLS-2005>
0

> <r_mmod_RMS_Derivative-OPLS-2005>
1.8198606967926

$$$$
90
                    3D
 Structure written by MMmdl.
158167  0  0  1  0            999 V2000
  -30.6042  -14.7803   20.4938 C   0  0  0  0  0  0
  -30.4414  -12.4795   19.5092 C   0  0  0  0  0  0
  -29.5246  -12.4544   18.2641 C   0  0  0  0  0  0
  -28.0532  -12.2640   18.6857 C   0  0  0  0  0  0
  -27.6289  -13.2231   19.8285 C   0  0  2  0  0  0
  -28.6634  -13.2093   20.9675 C   0  0  0  0  0  0
  -25.2442  -13.8210   20.5738 C   0  0  0  0  0  0
  -24.1717  -13.0401   20.9229 C   0  0  0  0  0  0
  -24.6292  -11.6936   20.8756 C   0  0  0  0  0  0
  -23.8942  -10.4332   21.0431 C   0  0  0  0  0  0
  -24.3563   -9.4237   21.9168 C   0  0  0  0  0  0
  -23.6288   -8.2249   22.0714 C   0  0  0  0  0  0
  -22.4251   -8.0287   21.3530 C   0  0  0  0  0  0
  -21.9882   -9.0220   20.4616 C   0  0  0  0  0  0
  -22.7143  -10.2133   20.3031 C   0  0  0  0  0  0
  -21.6836   -6.0731   22.5297 C   0  0  0  0  0  0
  -21.4026   -6.5651   23.8229 C   0  0  0  0  0  0
  -21.3651   -5.6793   24.9192 C   0  0  0  0  0  0
  -21.5998   -4.3045   24.7217 C   0  0  0  0  0  0
  -21.8821   -3.8135   23.4349 C   0  0  0  0  0  0
  -21.9222   -4.6981   22.3414 C   0  0  0  0  0  0
  -22.7767  -13.5219   21.1929 C   0  0  0  0  0  0
  -22.1664   -4.2152   21.0987 F   0  0  0  0  0  0
  -21.5644   -3.4546   25.7747 F   0  0  0  0  0  0
  -29.9563  -13.5717   20.3896 N   0  0  0  0  0  0
  -26.2828  -12.9357   20.3193 N   0  0  0  0  0  0
  -25.9218  -11.6490   20.5744 N   0  0  0  0  0  0
  -22.0384  -12.8185   22.0477 N   0  0  0  0  0  0
  -25.4096  -15.1892   20.4324 N   0  0  0  0  0  0
  -31.8191  -14.8168   20.2882 O   0  0  0  0  0  0
  -21.6598   -6.8875   21.4245 O   0  0  0  0  0  0
  -22.3450  -14.5471   20.6763 O   0  0  0  0  0  0
  -24.6360  -31.8522   23.1920 C   0  0  0  0  0  0
  -25.9164  -32.4721   23.8286 C   0  0  1  0  0  0
  -27.2223  -27.2153   20.1871 C   0  0  0  0  0  0
  -25.5951  -33.8527   24.2213 N   0  0  0  0  0  0
  -23.4391  -30.4736   21.5235 C   0  0  2  0  0  0
  -24.8873  -28.9130   20.1133 C   0  0  0  0  0  0
  -22.7520  -29.4764   22.4816 C   0  0  0  0  0  0
  -18.0410  -28.1258   22.8493 C   0  0  0  0  0  0
  -24.1481  -36.7280   23.2634 C   0  0  0  0  0  0
  -25.9826  -30.7589   21.3792 C   0  0  0  0  0  0
  -26.0544  -29.3723   20.7369 C   0  0  0  0  0  0
  -27.2200  -28.5346   20.7707 C   0  0  0  0  0  0
  -26.0357  -26.8466   19.5032 C   0  0  0  0  0  0
  -24.8877  -27.6609   19.4832 C   0  0  0  0  0  0
  -23.6577  -29.8005   20.1440 C   0  0  0  0  0  0
  -25.4104  -36.3037   24.0313 C   0  0  1  0  0  0
  -20.5970  -28.3906   23.1237 C   0  0  2  0  0  0
  -20.7001  -26.9850   22.4878 C   0  0  0  0  0  0
  -19.5969  -26.7497   21.4480 C   0  0  0  0  0  0
  -18.2326  -26.7998   22.1360 C   0  0  0  0  0  0
  -19.1526  -28.8941   23.2946 C   0  0  0  0  0  0
  -18.9103  -30.1464   23.9164 C   0  0  0  0  0  0
  -17.5921  -30.6269   24.0661 C   0  0  0  0  0  0
  -25.9067  -34.9423   23.5065 C   0  0  0  0  0  0
  -16.5060  -29.8679   23.5996 C   0  0  0  0  0  0
  -16.7334  -28.6202   23.0011 C   0  0  0  0  0  0
  -26.4518  -31.6568   25.0698 C   0  0  0  0  0  0
  -25.3761  -31.3750   26.1433 C   0  0  0  0  0  0
  -27.0416  -30.2998   24.6244 C   0  0  0  0  0  0
  -27.6079  -32.4326   25.7454 C   0  0  0  0  0  0
  -27.5585  -37.1788   24.8463 C   0  0  0  0  0  0
  -21.4211  -29.3277   22.3599 N   0  0  0  0  0  0
  -26.4291  -37.3742   23.9405 N   0  0  0  0  0  0
  -24.7040  -31.0516   22.0874 N   0  0  0  0  0  0
  -23.4213  -28.8428   23.3012 O   0  0  0  0  0  0
  -28.2914  -26.2803   20.3238 O   0  0  0  0  0  0
  -26.5642  -34.8939   22.4648 O   0  0  0  0  0  0
  -23.5492  -32.1372   23.7165 O   0  0  0  0  0  0
  -27.4443  -18.0659   22.1007 C   0  0  0  0  0  0
  -27.8987  -19.3844   21.8900 C   0  0  0  0  0  0
  -28.1604  -16.9432   21.6230 C   0  0  0  0  0  0
  -29.8060  -18.4751   20.7035 C   0  0  0  0  0  0
  -29.1074  -19.6495   21.2171 C   0  0  0  0  0  0
  -29.3520  -17.1026   20.8845 C   0  0  0  0  0  0
  -28.8763  -23.6949   20.9792 C   0  0  0  0  0  0
  -27.9029  -22.9844   18.3116 C   0  0  0  0  0  0
  -28.3169  -24.4285   18.6468 C   0  0  0  0  0  0
  -28.2010  -21.9011   19.3725 C   0  0  0  0  0  0
  -28.0565  -24.7855   20.1139 C   0  0  1  0  0  0
  -29.6497  -21.1592   21.1902 C   0  0  0  0  0  0
  -28.8676  -22.3397   20.5998 N   0  0  0  0  0  0
  -29.9021  -15.9339   20.1592 N   0  0  0  0  0  0
  -29.4911  -24.0808   21.9800 O   0  0  0  0  0  0
  -31.4807  -12.6170   19.2063 H   0  0  0  0  0  0
  -30.4136  -11.5260   20.0403 H   0  0  0  0  0  0
  -29.8320  -11.6466   17.5941 H   0  0  0  0  0  0
  -29.6348  -13.3774   17.6947 H   0  0  0  0  0  0
  -27.9524  -11.2304   19.0333 H   0  0  0  0  0  0
  -27.3923  -12.3517   17.8247 H   0  0  0  0  0  0
  -27.6073  -14.2219   19.3926 H   0  0  0  0  0  0
  -28.7104  -12.2205   21.4189 H   0  0  0  0  0  0
  -28.3918  -13.9103   21.7573 H   0  0  0  0  0  0
  -25.2696   -9.5781   22.4730 H   0  0  0  0  0  0
  -23.9995   -7.4657   22.7463 H   0  0  0  0  0  0
  -21.0782   -8.8665   19.8980 H   0  0  0  0  0  0
  -22.3497  -10.9640   19.6143 H   0  0  0  0  0  0
  -21.1963   -7.6150   23.9734 H   0  0  0  0  0  0
  -21.1477   -6.0514   25.9089 H   0  0  0  0  0  0
  -22.0592   -2.7601   23.2830 H   0  0  0  0  0  0
  -22.3948  -11.9848   22.4970 H   0  0  0  0  0  0
  -21.1014  -13.1329   22.2645 H   0  0  0  0  0  0
  -24.6419  -15.8339   20.5914 H   0  0  0  0  0  0
  -26.2640  -15.6586   20.1507 H   0  0  0  0  0  0
  -26.7268  -32.5376   23.1046 H   0  0  0  0  0  0
  -25.0013  -33.9640   25.0295 H   0  0  0  0  0  0
  -22.7481  -31.2995   21.3743 H   0  0  0  0  0  0
  -23.3739  -35.9627   23.3261 H   0  0  0  0  0  0
  -24.3572  -36.8940   22.2072 H   0  0  0  0  0  0
  -23.7292  -37.6493   23.6678 H   0  0  0  0  0  0
  -26.1411  -31.5154   20.6058 H   0  0  0  0  0  0
  -26.8514  -30.8001   22.0241 H   0  0  0  0  0  0
  -28.0951  -28.8748   21.3072 H   0  0  0  0  0  0
  -25.9523  -25.8957   19.0002 H   0  0  0  0  0  0
  -24.0007  -27.3085   18.9788 H   0  0  0  0  0  0
  -23.7903  -30.5741   19.3882 H   0  0  0  0  0  0
  -22.7742  -29.2358   19.8348 H   0  0  0  0  0  0
  -25.1294  -36.1850   25.0815 H   0  0  0  0  0  0
  -21.0063  -28.3368   24.1343 H   0  0  0  0  0  0
  -21.6850  -26.8440   22.0375 H   0  0  0  0  0  0
  -20.6323  -26.2107   23.2531 H   0  0  0  0  0  0
  -19.6399  -27.5501   20.7071 H   0  0  0  0  0  0
  -19.7483  -25.8095   20.9211 H   0  0  0  0  0  0
  -18.1271  -25.9765   22.8434 H   0  0  0  0  0  0
  -17.4468  -26.6950   21.3862 H   0  0  0  0  0  0
  -19.7277  -30.7427   24.2931 H   0  0  0  0  0  0
  -17.4068  -31.5844   24.5392 H   0  0  0  0  0  0
  -15.4909  -30.2403   23.6754 H   0  0  0  0  0  0
  -15.9085  -28.0405   22.6019 H   0  0  0  0  0  0
  -24.5895  -30.7117   25.7784 H   0  0  0  0  0  0
  -24.9003  -32.2943   26.4867 H   0  0  0  0  0  0
  -25.8098  -30.8952   27.0206 H   0  0  0  0  0  0
  -26.3049  -29.6689   24.1260 H   0  0  0  0  0  0
  -27.4083  -29.7311   25.4790 H   0  0  0  0  0  0
  -27.8893  -30.4262   23.9506 H   0  0  0  0  0  0
  -27.2656  -33.3595   26.2040 H   0  0  0  0  0  0
  -28.3843  -32.6930   25.0252 H   0  0  0  0  0  0
  -28.0765  -31.8464   26.5359 H   0  0  0  0  0  0
  -28.2563  -38.0111   24.7486 H   0  0  0  0  0  0
  -28.1101  -36.2651   24.6255 H   0  0  0  0  0  0
  -27.2291  -37.1374   25.8856 H   0  0  0  0  0  0
  -20.9553  -29.8419   21.6225 H   0  0  0  0  0  0
  -26.0140  -38.2797   24.1439 H   0  0  0  0  0  0
  -26.5195  -17.9101   22.6437 H   0  0  0  0  0  0
  -27.2969  -20.1901   22.2883 H   0  0  0  0  0  0
  -27.7354  -15.9679   21.7868 H   0  0  0  0  0  0
  -30.7229  -18.6415   20.1478 H   0  0  0  0  0  0
  -28.4067  -22.6941   17.3900 H   0  0  0  0  0  0
  -26.8301  -22.9645   18.0993 H   0  0  0  0  0  0
  -27.7867  -25.1094   17.9759 H   0  0  0  0  0  0
  -29.3797  -24.5689   18.4401 H   0  0  0  0  0  0
  -28.8372  -21.1451   18.9006 H   0  0  0  0  0  0
  -27.2905  -21.3674   19.6560 H   0  0  0  0  0  0
  -27.0207  -24.5579   20.3595 H   0  0  0  0  0  0
  -30.6165  -21.1385   20.6813 H   0  0  0  0  0  0
  -29.8649  -21.4056   22.2299 H   0  0  0  0  0  0
  -30.4290  -16.3072   19.3861 H   0  0  0  0  0  0
  1 25  1  0  0  0
  1 30  2  0  0  0
  1 84  1  0  0  0
  2  3  1  0  0  0
  2 25  1  0  0  0
  2 86  1  0  0  0
  2 87  1  0  0  0
  3  4  1  0  0  0
  3 88  1  0  0  0
  3 89  1  0  0  0
  4  5  1  0  0  0
  4 90  1  0  0  0
  4 91  1  0  0  0
  5  6  1  0  0  0
  5 26  1  0  0  0
  5 92  1  0  0  0
  6 25  1  0  0  0
  6 93  1  0  0  0
  6 94  1  0  0  0
  7  8  2  0  0  0
  7 26  1  0  0  0
  7 29  1  0  0  0
  8  9  1  0  0  0
  8 22  1  0  0  0
  9 10  1  0  0  0
  9 27  2  0  0  0
 10 11  2  0  0  0
 10 15  1  0  0  0
 11 12  1  0  0  0
 11 95  1  0  0  0
 12 13  2  0  0  0
 12 96  1  0  0  0
 13 14  1  0  0  0
 13 31  1  0  0  0
 14 15  2  0  0  0
 14 97  1  0  0  0
 15 98  1  0  0  0
 16 17  2  0  0  0
 16 21  1  0  0  0
 16 31  1  0  0  0
 17 18  1  0  0  0
 17 99  1  0  0  0
 18 19  2  0  0  0
 18100  1  0  0  0
 19 20  1  0  0  0
 19 24  1  0  0  0
 20 21  2  0  0  0
 20101  1  0  0  0
 21 23  1  0  0  0
 22 28  1  0  0  0
 22 32  2  0  0  0
 26 27  1  0  0  0
 28102  1  0  0  0
 28103  1  0  0  0
 29104  1  0  0  0
 29105  1  0  0  0
 33 34  1  0  0  0
 33 66  1  0  0  0
 33 70  2  0  0  0
 34 36  1  0  0  0
 34 59  1  0  0  0
 34106  1  0  0  0
 35 44  2  0  0  0
 35 45  1  0  0  0
 35 68  1  0  0  0
 36 56  1  0  0  0
 36107  1  0  0  0
 37 39  1  0  0  0
 37 47  1  0  0  0
 37 66  1  0  0  0
 37108  1  0  0  0
 38 43  2  0  0  0
 38 46  1  0  0  0
 38 47  1  0  0  0
 39 64  1  0  0  0
 39 67  2  0  0  0
 40 52  1  0  0  0
 40 53  2  0  0  0
 40 58  1  0  0  0
 41109  1  0  0  0
 41110  1  0  0  0
 41111  1  0  0  0
 41 48  1  0  0  0
 42 43  1  0  0  0
 42 66  1  0  0  0
 42112  1  0  0  0
 42113  1  0  0  0
 43 44  1  0  0  0
 44114  1  0  0  0
 45 46  2  0  0  0
 45115  1  0  0  0
 46116  1  0  0  0
 47117  1  0  0  0
 47118  1  0  0  0
 48 56  1  0  0  0
 48 65  1  0  0  0
 48119  1  0  0  0
 49 50  1  0  0  0
 49 53  1  0  0  0
 49 64  1  0  0  0
 49120  1  0  0  0
 50 51  1  0  0  0
 50121  1  0  0  0
 50122  1  0  0  0
 51 52  1  0  0  0
 51123  1  0  0  0
 51124  1  0  0  0
 52125  1  0  0  0
 52126  1  0  0  0
 53 54  1  0  0  0
 54 55  2  0  0  0
 54127  1  0  0  0
 55 57  1  0  0  0
 55128  1  0  0  0
 56 69  2  0  0  0
 57 58  2  0  0  0
 57129  1  0  0  0
 58130  1  0  0  0
 59 60  1  0  0  0
 59 61  1  0  0  0
 59 62  1  0  0  0
 60131  1  0  0  0
 60132  1  0  0  0
 60133  1  0  0  0
 61134  1  0  0  0
 61135  1  0  0  0
 61136  1  0  0  0
 62137  1  0  0  0
 62138  1  0  0  0
 62139  1  0  0  0
 63 65  1  0  0  0
 63140  1  0  0  0
 63141  1  0  0  0
 63142  1  0  0  0
 64143  1  0  0  0
 65144  1  0  0  0
 68 81  1  0  0  0
 71 72  2  0  0  0
 71 73  1  0  0  0
 71145  1  0  0  0
 72 75  1  0  0  0
 72146  1  0  0  0
 73 76  2  0  0  0
 73147  1  0  0  0
 74 75  2  0  0  0
 74 76  1  0  0  0
 74148  1  0  0  0
 75 82  1  0  0  0
 76 84  1  0  0  0
 77 81  1  0  0  0
 77 83  1  0  0  0
 77 85  2  0  0  0
 78 79  1  0  0  0
 78 80  1  0  0  0
 78149  1  0  0  0
 78150  1  0  0  0
 79 81  1  0  0  0
 79151  1  0  0  0
 79152  1  0  0  0
 80 83  1  0  0  0
 80153  1  0  0  0
 80154  1  0  0  0
 81155  1  0  0  0
 82 83  1  0  0  0
 82156  1  0  0  0
 82157  1  0  0  0
 84158  1  0  0  0
M  ISO  4   1 100  68 101  81 101  84 100
M  END
> <chiral flag>
0

> <version>
0

> <s_m_source_file>
/data/baiqing/PycharmProjects/Reinvent-master-3.2/result/LINK_invent/BTK/process_docking_weight1_custom_product_contain_oxygen_bond_distance_aromatic_linkinvent_7_9_3/rearranged_h_0041.sdf

> <i_m_source_file_index>
91

> <r_mmod_Potential_Energy-OPLS-2005>
390.760406494141

> <r_mmod_Stretch_Energy-OPLS-2005>
141.500473022461

> <r_mmod_Bend_Energy-OPLS-2005>
210.102935791016

> <r_mmod_Torsional_Energy-OPLS-2005>
308.340240478516

> <r_mmod_Improper_Torsional_Energy-OPLS-2005>
31.4140930175781

> <r_mmod_Van_der_Waal_Energy-OPLS-2005>
140.430740356445

> <r_mmod_Electrostatic_Energy-OPLS-2005>
-344.031311035156

> <r_mmod_Solvation_Energy-OPLS-2005>
-224.844024658203

> <b_mmod_Minimization_Converged-OPLS-2005>
0

> <r_mmod_RMS_Derivative-OPLS-2005>
11.9895992279053

$$$$
91
                    3D
 Structure written by MMmdl.
156164  0  0  1  0            999 V2000
  -30.6284  -14.6262   20.5053 C   0  0  0  0  0  0
  -30.4405  -12.3873   19.4444 C   0  0  0  0  0  0
  -29.5063  -12.5098   18.2199 C   0  0  0  0  0  0
  -28.0293  -12.3465   18.6320 C   0  0  0  0  0  0
  -27.6542  -13.2123   19.8636 C   0  0  2  0  0  0
  -28.7011  -13.0605   20.9907 C   0  0  0  0  0  0
  -25.2559  -13.8153   20.5683 C   0  0  0  0  0  0
  -24.1823  -13.0418   20.9175 C   0  0  0  0  0  0
  -24.6396  -11.6889   20.8725 C   0  0  0  0  0  0
  -23.9064  -10.4276   21.0402 C   0  0  0  0  0  0
  -24.3616   -9.4188   21.9183 C   0  0  0  0  0  0
  -23.6280   -8.2232   22.0756 C   0  0  0  0  0  0
  -22.4265   -8.0276   21.3548 C   0  0  0  0  0  0
  -21.9900   -9.0249   20.4650 C   0  0  0  0  0  0
  -22.7236  -10.2123   20.3055 C   0  0  0  0  0  0
  -21.6848   -6.0723   22.5279 C   0  0  0  0  0  0
  -21.4011   -6.5627   23.8214 C   0  0  0  0  0  0
  -21.3660   -5.6782   24.9176 C   0  0  0  0  0  0
  -21.6050   -4.3045   24.7227 C   0  0  0  0  0  0
  -21.8818   -3.8136   23.4350 C   0  0  0  0  0  0
  -21.9186   -4.6951   22.3403 C   0  0  0  0  0  0
  -22.7848  -13.5221   21.1839 C   0  0  0  0  0  0
  -22.1657   -4.2134   21.0980 F   0  0  0  0  0  0
  -21.5629   -3.4530   25.7743 F   0  0  0  0  0  0
  -30.0177  -13.4023   20.4281 N   0  0  0  0  0  0
  -26.2992  -12.9336   20.3321 N   0  0  0  0  0  0
  -25.9324  -11.6492   20.5744 N   0  0  0  0  0  0
  -22.0487  -12.8228   22.0403 N   0  0  0  0  0  0
  -25.4244  -15.1879   20.4138 N   0  0  0  0  0  0
  -31.7909  -14.7957   20.1267 O   0  0  0  0  0  0
  -21.6629   -6.8872   21.4245 O   0  0  0  0  0  0
  -22.3536  -14.5524   20.6678 O   0  0  0  0  0  0
  -24.6264  -31.8606   23.2027 C   0  0  0  0  0  0
  -25.9115  -32.4779   23.8355 C   0  0  1  0  0  0
  -27.2242  -27.3263   20.1105 C   0  0  0  0  0  0
  -25.5931  -33.8578   24.2282 N   0  0  0  0  0  0
  -23.4191  -30.4855   21.5458 C   0  0  2  0  0  0
  -24.8643  -28.9448   20.1094 C   0  0  0  0  0  0
  -22.7476  -29.4632   22.4935 C   0  0  0  0  0  0
  -18.0284  -28.1388   22.8481 C   0  0  0  0  0  0
  -24.1488  -36.7298   23.2639 C   0  0  0  0  0  0
  -25.9603  -30.7943   21.3721 C   0  0  0  0  0  0
  -26.0340  -29.4231   20.7127 C   0  0  0  0  0  0
  -27.2174  -28.6270   20.7013 C   0  0  0  0  0  0
  -26.0277  -26.9009   19.4846 C   0  0  0  0  0  0
  -24.8637  -27.6900   19.4847 C   0  0  0  0  0  0
  -23.6319  -29.8234   20.1600 C   0  0  0  0  0  0
  -25.4111  -36.3083   24.0329 C   0  0  1  0  0  0
  -20.5886  -28.3690   23.1283 C   0  0  2  0  0  0
  -20.6772  -26.9413   22.5408 C   0  0  0  0  0  0
  -19.5751  -26.6388   21.5206 C   0  0  0  0  0  0
  -18.1930  -26.7932   22.1619 C   0  0  0  0  0  0
  -19.1536  -28.8856   23.2878 C   0  0  0  0  0  0
  -18.9460  -30.1455   23.8898 C   0  0  0  0  0  0
  -17.6459  -30.6587   24.0565 C   0  0  0  0  0  0
  -25.9048  -34.9450   23.5105 C   0  0  0  0  0  0
  -16.5351  -29.9087   23.6326 C   0  0  0  0  0  0
  -16.7271  -28.6506   23.0345 C   0  0  0  0  0  0
  -26.4503  -31.6586   25.0722 C   0  0  0  0  0  0
  -25.3746  -31.3718   26.1456 C   0  0  0  0  0  0
  -27.0344  -30.3012   24.6169 C   0  0  0  0  0  0
  -27.6065  -32.4321   25.7492 C   0  0  0  0  0  0
  -27.5579  -37.1802   24.8463 C   0  0  0  0  0  0
  -21.4188  -29.3045   22.3679 N   0  0  0  0  0  0
  -26.4291  -37.3775   23.9408 N   0  0  0  0  0  0
  -24.6877  -31.0631   22.0969 N   0  0  0  0  0  0
  -23.4201  -28.8164   23.3007 O   0  0  0  0  0  0
  -28.3479  -26.4850   20.1544 O   0  0  0  0  0  0
  -26.5612  -34.8920   22.4668 O   0  0  0  0  0  0
  -23.5433  -32.1402   23.7359 O   0  0  0  0  0  0
  -29.3031  -19.2165   19.5140 C   0  0  0  0  0  0
  -30.6383  -17.9226   21.5997 C   0  0  0  0  0  0
  -29.2741  -17.7916   19.6160 C   0  0  0  0  0  0
  -29.9931  -20.0375   20.4441 C   0  0  0  0  0  0
  -29.9600  -17.1061   20.6595 C   0  0  0  0  0  0
  -30.6580  -19.3461   21.5011 C   0  0  0  0  0  0
  -28.4942  -17.0077   18.5754 C   0  0  0  0  0  0
  -30.1624  -21.5879   20.2020 C   0  0  0  0  0  0
  -29.3361  -24.0319   20.3161 C   0  0  0  0  0  0
  -28.1176  -25.0228   20.0979 C   0  0  0  0  0  0
  -29.8146  -15.6675   20.8563 N   0  0  0  0  0  0
  -29.0064  -22.5428   20.3976 N   0  3  0  0  0  0
  -31.5379  -20.2186   22.7067 Cl  0  0  0  0  0  0
  -31.4808  -12.5153   19.1400 H   0  0  0  0  0  0
  -30.3779  -11.3891   19.8797 H   0  0  0  0  0  0
  -29.7677  -11.7642   17.4677 H   0  0  0  0  0  0
  -29.6468  -13.4826   17.7460 H   0  0  0  0  0  0
  -27.8644  -11.2921   18.8568 H   0  0  0  0  0  0
  -27.3763  -12.5830   17.7912 H   0  0  0  0  0  0
  -27.6715  -14.2474   19.5252 H   0  0  0  0  0  0
  -28.7100  -12.0363   21.3667 H   0  0  0  0  0  0
  -28.4493  -13.6872   21.8473 H   0  0  0  0  0  0
  -25.2768   -9.5642   22.4745 H   0  0  0  0  0  0
  -23.9978   -7.4617   22.7476 H   0  0  0  0  0  0
  -21.0828   -8.8781   19.8955 H   0  0  0  0  0  0
  -22.3715  -10.9660   19.6153 H   0  0  0  0  0  0
  -21.2009   -7.6137   23.9716 H   0  0  0  0  0  0
  -21.1486   -6.0512   25.9080 H   0  0  0  0  0  0
  -22.0597   -2.7595   23.2861 H   0  0  0  0  0  0
  -22.4097  -11.9892   22.4804 H   0  0  0  0  0  0
  -21.1110  -13.1268   22.2610 H   0  0  0  0  0  0
  -24.6557  -15.8388   20.5335 H   0  0  0  0  0  0
  -26.2747  -15.6348   20.1000 H   0  0  0  0  0  0
  -26.7185  -32.5453   23.1108 H   0  0  0  0  0  0
  -25.0080  -33.9723   25.0428 H   0  0  0  0  0  0
  -22.7128  -31.3060   21.4049 H   0  0  0  0  0  0
  -23.3743  -35.9638   23.3303 H   0  0  0  0  0  0
  -24.3580  -36.8916   22.2053 H   0  0  0  0  0  0
  -23.7249  -37.6505   23.6658 H   0  0  0  0  0  0
  -26.0924  -31.5590   20.6052 H   0  0  0  0  0  0
  -26.8411  -30.8413   22.0012 H   0  0  0  0  0  0
  -28.1156  -28.9920   21.1791 H   0  0  0  0  0  0
  -25.9533  -25.9474   18.9858 H   0  0  0  0  0  0
  -23.9692  -27.3219   19.0005 H   0  0  0  0  0  0
  -23.7482  -30.6015   19.4047 H   0  0  0  0  0  0
  -22.7523  -29.2524   19.8577 H   0  0  0  0  0  0
  -25.1290  -36.1936   25.0821 H   0  0  0  0  0  0
  -20.9974  -28.3260   24.1406 H   0  0  0  0  0  0
  -20.5662  -26.2298   23.3604 H   0  0  0  0  0  0
  -21.6643  -26.7437   22.1210 H   0  0  0  0  0  0
  -19.6913  -25.6298   21.1235 H   0  0  0  0  0  0
  -19.6693  -27.3197   20.6735 H   0  0  0  0  0  0
  -17.4196  -26.6669   21.4025 H   0  0  0  0  0  0
  -18.0338  -26.0077   22.9020 H   0  0  0  0  0  0
  -19.7933  -30.7271   24.2272 H   0  0  0  0  0  0
  -17.5012  -31.6265   24.5169 H   0  0  0  0  0  0
  -15.5351  -30.2990   23.7653 H   0  0  0  0  0  0
  -15.8669  -28.0829   22.7059 H   0  0  0  0  0  0
  -24.5919  -30.7067   25.7790 H   0  0  0  0  0  0
  -24.8944  -32.2881   26.4897 H   0  0  0  0  0  0
  -25.8086  -30.8889   27.0220 H   0  0  0  0  0  0
  -26.2911  -29.6758   24.1210 H   0  0  0  0  0  0
  -27.4064  -29.7272   25.4667 H   0  0  0  0  0  0
  -27.8772  -30.4300   23.9375 H   0  0  0  0  0  0
  -27.2672  -33.3613   26.2081 H   0  0  0  0  0  0
  -28.3867  -32.6893   25.0316 H   0  0  0  0  0  0
  -28.0742  -31.8440   26.5399 H   0  0  0  0  0  0
  -28.2596  -38.0099   24.7501 H   0  0  0  0  0  0
  -28.1075  -36.2629   24.6294 H   0  0  0  0  0  0
  -27.2299  -37.1455   25.8868 H   0  0  0  0  0  0
  -20.9360  -29.8785   21.6910 H   0  0  0  0  0  0
  -26.0172  -38.2853   24.1403 H   0  0  0  0  0  0
  -28.8004  -19.6916   18.6831 H   0  0  0  0  0  0
  -31.1466  -17.4557   22.4310 H   0  0  0  0  0  0
  -28.2974  -17.6136   17.6905 H   0  0  0  0  0  0
  -27.5349  -16.6899   18.9816 H   0  0  0  0  0  0
  -29.0455  -16.1244   18.2521 H   0  0  0  0  0  0
  -30.5001  -21.7040   19.1716 H   0  0  0  0  0  0
  -30.9934  -21.9564   20.8007 H   0  0  0  0  0  0
  -29.8604  -24.3111   21.2306 H   0  0  0  0  0  0
  -30.0438  -24.1908   19.5019 H   0  0  0  0  0  0
  -27.3492  -24.7783   20.8330 H   0  0  0  0  0  0
  -27.7061  -24.7759   19.1195 H   0  0  0  0  0  0
  -28.8828  -15.3659   21.0946 H   0  0  0  0  0  0
  -28.5912  -22.3536   21.2963 H   0  0  0  0  0  0
  -28.3157  -22.3158   19.6999 H   0  0  0  0  0  0
  1 25  1  0  0  0
  1 30  2  0  0  0
  1 81  1  0  0  0
  2  3  1  0  0  0
  2 25  1  0  0  0
  2 84  1  0  0  0
  2 85  1  0  0  0
  3  4  1  0  0  0
  3 86  1  0  0  0
  3 87  1  0  0  0
  4  5  1  0  0  0
  4 88  1  0  0  0
  4 89  1  0  0  0
  5  6  1  0  0  0
  5 26  1  0  0  0
  5 90  1  0  0  0
  6 25  1  0  0  0
  6 91  1  0  0  0
  6 92  1  0  0  0
  7  8  2  0  0  0
  7 26  1  0  0  0
  7 29  1  0  0  0
  8  9  1  0  0  0
  8 22  1  0  0  0
  9 10  1  0  0  0
  9 27  2  0  0  0
 10 11  2  0  0  0
 10 15  1  0  0  0
 11 12  1  0  0  0
 11 93  1  0  0  0
 12 13  2  0  0  0
 12 94  1  0  0  0
 13 14  1  0  0  0
 13 31  1  0  0  0
 14 15  2  0  0  0
 14 95  1  0  0  0
 15 96  1  0  0  0
 16 17  2  0  0  0
 16 21  1  0  0  0
 16 31  1  0  0  0
 17 18  1  0  0  0
 17 97  1  0  0  0
 18 19  2  0  0  0
 18 98  1  0  0  0
 19 20  1  0  0  0
 19 24  1  0  0  0
 20 21  2  0  0  0
 20 99  1  0  0  0
 21 23  1  0  0  0
 22 28  1  0  0  0
 22 32  2  0  0  0
 26 27  1  0  0  0
 28100  1  0  0  0
 28101  1  0  0  0
 29102  1  0  0  0
 29103  1  0  0  0
 33 34  1  0  0  0
 33 66  1  0  0  0
 33 70  2  0  0  0
 34 36  1  0  0  0
 34 59  1  0  0  0
 34104  1  0  0  0
 35 44  2  0  0  0
 35 45  1  0  0  0
 35 68  1  0  0  0
 36 56  1  0  0  0
 36105  1  0  0  0
 37 39  1  0  0  0
 37 47  1  0  0  0
 37 66  1  0  0  0
 37106  1  0  0  0
 38 43  2  0  0  0
 38 46  1  0  0  0
 38 47  1  0  0  0
 39 64  1  0  0  0
 39 67  2  0  0  0
 40 52  1  0  0  0
 40 53  2  0  0  0
 40 58  1  0  0  0
 41107  1  0  0  0
 41108  1  0  0  0
 41109  1  0  0  0
 41 48  1  0  0  0
 42 43  1  0  0  0
 42 66  1  0  0  0
 42110  1  0  0  0
 42111  1  0  0  0
 43 44  1  0  0  0
 44112  1  0  0  0
 45 46  2  0  0  0
 45113  1  0  0  0
 46114  1  0  0  0
 47115  1  0  0  0
 47116  1  0  0  0
 48 56  1  0  0  0
 48 65  1  0  0  0
 48117  1  0  0  0
 49 50  1  0  0  0
 49 53  1  0  0  0
 49 64  1  0  0  0
 49118  1  0  0  0
 50 51  1  0  0  0
 50119  1  0  0  0
 50120  1  0  0  0
 51 52  1  0  0  0
 51121  1  0  0  0
 51122  1  0  0  0
 52123  1  0  0  0
 52124  1  0  0  0
 53 54  1  0  0  0
 54 55  2  0  0  0
 54125  1  0  0  0
 55 57  1  0  0  0
 55126  1  0  0  0
 56 69  2  0  0  0
 57 58  2  0  0  0
 57127  1  0  0  0
 58128  1  0  0  0
 59 60  1  0  0  0
 59 61  1  0  0  0
 59 62  1  0  0  0
 60129  1  0  0  0
 60130  1  0  0  0
 60131  1  0  0  0
 61132  1  0  0  0
 61133  1  0  0  0
 61134  1  0  0  0
 62135  1  0  0  0
 62136  1  0  0  0
 62137  1  0  0  0
 63 65  1  0  0  0
 63138  1  0  0  0
 63139  1  0  0  0
 63140  1  0  0  0
 64141  1  0  0  0
 65142  1  0  0  0
 68 80  1  0  0  0
 71 73  2  0  0  0
 71 74  1  0  0  0
 71143  1  0  0  0
 72 75  2  0  0  0
 72 76  1  0  0  0
 72144  1  0  0  0
 73 75  1  0  0  0
 73 77  1  0  0  0
 74 76  2  0  0  0
 74 78  1  0  0  0
 75 81  1  0  0  0
 76 83  1  0  0  0
 77145  1  0  0  0
 77146  1  0  0  0
 77147  1  0  0  0
 78 82  1  0  0  0
 78148  1  0  0  0
 78149  1  0  0  0
 79 80  1  0  0  0
 79 82  1  0  0  0
 79150  1  0  0  0
 79151  1  0  0  0
 80152  1  0  0  0
 80153  1  0  0  0
 81154  1  0  0  0
 82155  1  0  0  0
 82156  1  0  0  0
M  CHG  1  82   1
M  ISO  4   1 100  68 101  80 101  81 100
M  END
> <chiral flag>
0

> <version>
0

> <s_m_source_file>
/data/baiqing/PycharmProjects/Reinvent-master-3.2/result/LINK_invent/BTK/process_docking_weight1_custom_product_contain_oxygen_bond_distance_aromatic_linkinvent_7_9_3/rearranged_h_0041.sdf

> <i_m_source_file_index>
92

> <r_mmod_Potential_Energy-OPLS-2005>
-135.164184570312

> <r_mmod_Stretch_Energy-OPLS-2005>
75.1016235351562

> <r_mmod_Bend_Energy-OPLS-2005>
126.764350891113

> <r_mmod_Torsional_Energy-OPLS-2005>
233.653747558594

> <r_mmod_Improper_Torsional_Energy-OPLS-2005>
5.93656492233276

> <r_mmod_Van_der_Waal_Energy-OPLS-2005>
139.219604492188

> <r_mmod_Electrostatic_Energy-OPLS-2005>
-290.225952148438

> <r_mmod_Solvation_Energy-OPLS-2005>
-470.257629394531

> <b_mmod_Minimization_Converged-OPLS-2005>
0

> <r_mmod_RMS_Derivative-OPLS-2005>
1.03966426849365

$$$$
92
                    3D
 Structure written by MMmdl.
171180  0  0  1  0            999 V2000
  -30.5901  -14.6497   20.5224 C   0  0  0  0  0  0
  -30.4500  -12.4022   19.4529 C   0  0  0  0  0  0
  -29.5137  -12.5092   18.2252 C   0  0  0  0  0  0
  -28.0324  -12.3540   18.6314 C   0  0  0  0  0  0
  -27.6572  -13.2116   19.8676 C   0  0  2  0  0  0
  -28.7012  -13.0341   20.9938 C   0  0  0  0  0  0
  -25.2590  -13.8185   20.5661 C   0  0  0  0  0  0
  -24.1835  -13.0461   20.9173 C   0  0  0  0  0  0
  -24.6376  -11.6926   20.8739 C   0  0  0  0  0  0
  -23.9037  -10.4309   21.0418 C   0  0  0  0  0  0
  -24.3600   -9.4207   21.9187 C   0  0  0  0  0  0
  -23.6272   -8.2257   22.0756 C   0  0  0  0  0  0
  -22.4258   -8.0286   21.3546 C   0  0  0  0  0  0
  -21.9889   -9.0264   20.4658 C   0  0  0  0  0  0
  -22.7211  -10.2144   20.3063 C   0  0  0  0  0  0
  -21.6862   -6.0727   22.5270 C   0  0  0  0  0  0
  -21.4020   -6.5635   23.8208 C   0  0  0  0  0  0
  -21.3652   -5.6791   24.9167 C   0  0  0  0  0  0
  -21.6047   -4.3056   24.7210 C   0  0  0  0  0  0
  -21.8819   -3.8136   23.4342 C   0  0  0  0  0  0
  -21.9191   -4.6955   22.3395 C   0  0  0  0  0  0
  -22.7855  -13.5256   21.1841 C   0  0  0  0  0  0
  -22.1656   -4.2136   21.0971 F   0  0  0  0  0  0
  -21.5606   -3.4538   25.7725 F   0  0  0  0  0  0
  -30.0192  -13.4054   20.4465 N   0  0  0  0  0  0
  -26.2999  -12.9339   20.3324 N   0  0  0  0  0  0
  -25.9300  -11.6496   20.5774 N   0  0  0  0  0  0
  -22.0481  -12.8292   22.0408 N   0  0  0  0  0  0
  -25.4335  -15.1900   20.4045 N   0  0  0  0  0  0
  -31.7217  -14.8727   20.0735 O   0  0  0  0  0  0
  -21.6633   -6.8878   21.4242 O   0  0  0  0  0  0
  -22.3542  -14.5532   20.6627 O   0  0  0  0  0  0
  -24.6268  -31.8600   23.2001 C   0  0  0  0  0  0
  -25.9104  -32.4789   23.8342 C   0  0  1  0  0  0
  -27.2311  -27.3237   20.1310 C   0  0  0  0  0  0
  -25.5925  -33.8588   24.2281 N   0  0  0  0  0  0
  -23.4212  -30.4778   21.5461 C   0  0  2  0  0  0
  -24.8691  -28.9267   20.1198 C   0  0  0  0  0  0
  -22.7478  -29.4608   22.4986 C   0  0  0  0  0  0
  -18.0287  -28.1399   22.8492 C   0  0  0  0  0  0
  -24.1491  -36.7287   23.2639 C   0  0  0  0  0  0
  -25.9611  -30.7924   21.3679 C   0  0  0  0  0  0
  -26.0391  -29.4177   20.7159 C   0  0  0  0  0  0
  -27.2266  -28.6311   20.7045 C   0  0  0  0  0  0
  -26.0396  -26.8720   19.5260 C   0  0  0  0  0  0
  -24.8718  -27.6581   19.5161 C   0  0  0  0  0  0
  -23.6345  -29.8037   20.1654 C   0  0  0  0  0  0
  -25.4115  -36.3083   24.0338 C   0  0  1  0  0  0
  -20.5885  -28.3683   23.1307 C   0  0  2  0  0  0
  -20.6785  -26.9415   22.5420 C   0  0  0  0  0  0
  -19.5756  -26.6394   21.5225 C   0  0  0  0  0  0
  -18.1933  -26.7944   22.1635 C   0  0  0  0  0  0
  -19.1547  -28.8862   23.2888 C   0  0  0  0  0  0
  -18.9467  -30.1475   23.8893 C   0  0  0  0  0  0
  -17.6462  -30.6594   24.0573 C   0  0  0  0  0  0
  -25.9050  -34.9458   23.5110 C   0  0  0  0  0  0
  -16.5349  -29.9092   23.6346 C   0  0  0  0  0  0
  -16.7270  -28.6520   23.0345 C   0  0  0  0  0  0
  -26.4476  -31.6599   25.0714 C   0  0  0  0  0  0
  -25.3712  -31.3773   26.1455 C   0  0  0  0  0  0
  -27.0308  -30.3024   24.6164 C   0  0  0  0  0  0
  -27.6049  -32.4336   25.7451 C   0  0  0  0  0  0
  -27.5588  -37.1783   24.8454 C   0  0  0  0  0  0
  -21.4202  -29.3026   22.3710 N   0  0  0  0  0  0
  -26.4286  -37.3779   23.9422 N   0  0  0  0  0  0
  -24.6886  -31.0588   22.0953 N   0  0  0  0  0  0
  -23.4194  -28.8178   23.3090 O   0  0  0  0  0  0
  -28.3615  -26.4973   20.1191 O   0  0  0  0  0  0
  -26.5617  -34.8919   22.4674 O   0  0  0  0  0  0
  -23.5425  -32.1400   23.7328 O   0  0  0  0  0  0
  -30.0182  -19.3793   20.0640 C   0  0  0  0  0  0
  -30.3997  -17.9982   20.1875 C   0  0  0  0  0  0
  -28.3607  -17.5715   21.3692 C   0  0  0  0  0  0
  -28.7858  -19.8961   20.5770 C   0  0  0  0  0  0
  -27.9562  -18.9274   21.2234 C   0  0  0  0  0  0
  -29.5675  -17.0524   20.8524 C   0  0  0  0  0  0
  -28.5168  -23.9246   19.7037 C   0  0  0  0  0  0
  -27.5119  -22.9060   16.3228 C   0  0  0  0  0  0
  -28.1486  -23.9927   18.4071 C   0  0  0  0  0  0
  -28.2854  -22.9405   17.4167 C   0  0  0  0  0  0
  -29.2748  -23.7078   22.5305 C   0  0  0  0  0  0
  -29.1530  -25.1141   21.9409 C   0  0  0  0  0  0
  -29.9487  -22.7739   21.5199 C   0  0  0  0  0  0
  -28.2621  -25.1319   20.6883 C   0  0  1  0  0  0
  -26.5845  -19.6167   23.2449 C   0  0  0  0  0  0
  -26.5652  -19.2628   21.7555 C   0  0  0  0  0  0
  -28.2486  -21.3794   20.3483 C   0  0  0  0  0  0
  -29.7822  -15.6171   21.0549 N   0  0  0  0  0  0
  -29.1434  -22.6054   20.2855 N   0  3  1  0  0  0
  -31.4885  -12.5478   19.1486 H   0  0  0  0  0  0
  -30.4035  -11.4032   19.8895 H   0  0  0  0  0  0
  -29.7755  -11.7505   17.4853 H   0  0  0  0  0  0
  -29.6586  -13.4726   17.7364 H   0  0  0  0  0  0
  -27.8586  -11.3004   18.8465 H   0  0  0  0  0  0
  -27.3859  -12.5980   17.7866 H   0  0  0  0  0  0
  -27.6842  -14.2509   19.5421 H   0  0  0  0  0  0
  -28.7202  -11.9947   21.3243 H   0  0  0  0  0  0
  -28.4352  -13.6150   21.8779 H   0  0  0  0  0  0
  -25.2767   -9.5660   22.4726 H   0  0  0  0  0  0
  -23.9968   -7.4657   22.7483 H   0  0  0  0  0  0
  -21.0804   -8.8795   19.8980 H   0  0  0  0  0  0
  -22.3688  -10.9676   19.6152 H   0  0  0  0  0  0
  -21.2046   -7.6154   23.9715 H   0  0  0  0  0  0
  -21.1459   -6.0521   25.9074 H   0  0  0  0  0  0
  -22.0606   -2.7595   23.2859 H   0  0  0  0  0  0
  -22.4089  -11.9955   22.4830 H   0  0  0  0  0  0
  -21.1102  -13.1340   22.2593 H   0  0  0  0  0  0
  -24.6678  -15.8490   20.5027 H   0  0  0  0  0  0
  -26.2759  -15.6161   20.0386 H   0  0  0  0  0  0
  -26.7182  -32.5447   23.1097 H   0  0  0  0  0  0
  -25.0070  -33.9728   25.0426 H   0  0  0  0  0  0
  -22.7157  -31.2978   21.3994 H   0  0  0  0  0  0
  -23.3753  -35.9615   23.3287 H   0  0  0  0  0  0
  -24.3569  -36.8914   22.2051 H   0  0  0  0  0  0
  -23.7240  -37.6491   23.6655 H   0  0  0  0  0  0
  -26.0880  -31.5543   20.5981 H   0  0  0  0  0  0
  -26.8424  -30.8441   21.9946 H   0  0  0  0  0  0
  -28.1289  -29.0109   21.1641 H   0  0  0  0  0  0
  -25.9950  -25.8953   19.0664 H   0  0  0  0  0  0
  -23.9753  -27.2706   19.0506 H   0  0  0  0  0  0
  -23.7475  -30.5751   19.4039 H   0  0  0  0  0  0
  -22.7545  -29.2294   19.8684 H   0  0  0  0  0  0
  -25.1286  -36.1941   25.0831 H   0  0  0  0  0  0
  -20.9963  -28.3253   24.1433 H   0  0  0  0  0  0
  -20.5721  -26.2287   23.3612 H   0  0  0  0  0  0
  -21.6653  -26.7465   22.1195 H   0  0  0  0  0  0
  -19.6921  -25.6310   21.1245 H   0  0  0  0  0  0
  -19.6702  -27.3215   20.6764 H   0  0  0  0  0  0
  -17.4213  -26.6702   21.4026 H   0  0  0  0  0  0
  -18.0308  -26.0083   22.9025 H   0  0  0  0  0  0
  -19.7938  -30.7306   24.2247 H   0  0  0  0  0  0
  -17.5002  -31.6260   24.5197 H   0  0  0  0  0  0
  -15.5347  -30.2980   23.7672 H   0  0  0  0  0  0
  -15.8675  -28.0833   22.7045 H   0  0  0  0  0  0
  -24.5852  -30.7162   25.7788 H   0  0  0  0  0  0
  -24.8947  -32.2966   26.4874 H   0  0  0  0  0  0
  -25.8027  -30.8943   27.0230 H   0  0  0  0  0  0
  -26.2882  -29.6786   24.1188 H   0  0  0  0  0  0
  -27.4004  -29.7276   25.4659 H   0  0  0  0  0  0
  -27.8736  -30.4309   23.9378 H   0  0  0  0  0  0
  -27.2674  -33.3629   26.2049 H   0  0  0  0  0  0
  -28.3816  -32.6932   25.0246 H   0  0  0  0  0  0
  -28.0765  -31.8470   26.5342 H   0  0  0  0  0  0
  -28.2597  -38.0092   24.7522 H   0  0  0  0  0  0
  -28.1100  -36.2627   24.6242 H   0  0  0  0  0  0
  -27.2308  -37.1378   25.8856 H   0  0  0  0  0  0
  -20.9414  -29.8700   21.6860 H   0  0  0  0  0  0
  -26.0173  -38.2857   24.1433 H   0  0  0  0  0  0
  -30.6858  -20.0394   19.5284 H   0  0  0  0  0  0
  -31.3373  -17.6738   19.7530 H   0  0  0  0  0  0
  -27.6857  -16.8946   21.8792 H   0  0  0  0  0  0
  -27.6140  -22.1225   15.5857 H   0  0  0  0  0  0
  -26.7500  -23.6537   16.1486 H   0  0  0  0  0  0
  -27.7227  -24.9266   18.0680 H   0  0  0  0  0  0
  -29.0295  -22.1640   17.5379 H   0  0  0  0  0  0
  -28.2927  -23.3279   22.8151 H   0  0  0  0  0  0
  -29.8695  -23.7408   23.4433 H   0  0  0  0  0  0
  -30.1463  -25.4925   21.6965 H   0  0  0  0  0  0
  -28.7477  -25.7932   22.6927 H   0  0  0  0  0  0
  -30.1616  -21.8090   21.9833 H   0  0  0  0  0  0
  -30.9160  -23.1889   21.2364 H   0  0  0  0  0  0
  -27.2412  -24.9786   21.0391 H   0  0  0  0  0  0
  -25.5767  -19.8208   23.6097 H   0  0  0  0  0  0
  -27.1943  -20.4999   23.4407 H   0  0  0  0  0  0
  -26.9896  -18.7926   23.8342 H   0  0  0  0  0  0
  -25.9218  -18.3925   21.6034 H   0  0  0  0  0  0
  -26.0828  -20.0513   21.1799 H   0  0  0  0  0  0
  -27.5505  -21.6211   21.1470 H   0  0  0  0  0  0
  -27.6359  -21.3367   19.4484 H   0  0  0  0  0  0
  -29.0045  -15.1841   21.5271 H   0  0  0  0  0  0
  -29.8425  -22.3248   19.6145 H   0  0  0  0  0  0
  1 25  1  0  0  0
  1 30  2  0  0  0
  1 88  1  0  0  0
  2  3  1  0  0  0
  2 25  1  0  0  0
  2 90  1  0  0  0
  2 91  1  0  0  0
  3  4  1  0  0  0
  3 92  1  0  0  0
  3 93  1  0  0  0
  4  5  1  0  0  0
  4 94  1  0  0  0
  4 95  1  0  0  0
  5  6  1  0  0  0
  5 26  1  0  0  0
  5 96  1  0  0  0
  6 25  1  0  0  0
  6 97  1  0  0  0
  6 98  1  0  0  0
  7  8  2  0  0  0
  7 26  1  0  0  0
  7 29  1  0  0  0
  8  9  1  0  0  0
  8 22  1  0  0  0
  9 10  1  0  0  0
  9 27  2  0  0  0
 10 11  2  0  0  0
 10 15  1  0  0  0
 11 12  1  0  0  0
 11 99  1  0  0  0
 12 13  2  0  0  0
 12100  1  0  0  0
 13 14  1  0  0  0
 13 31  1  0  0  0
 14 15  2  0  0  0
 14101  1  0  0  0
 15102  1  0  0  0
 16 17  2  0  0  0
 16 21  1  0  0  0
 16 31  1  0  0  0
 17 18  1  0  0  0
 17103  1  0  0  0
 18 19  2  0  0  0
 18104  1  0  0  0
 19 20  1  0  0  0
 19 24  1  0  0  0
 20 21  2  0  0  0
 20105  1  0  0  0
 21 23  1  0  0  0
 22 28  1  0  0  0
 22 32  2  0  0  0
 26 27  1  0  0  0
 28106  1  0  0  0
 28107  1  0  0  0
 29108  1  0  0  0
 29109  1  0  0  0
 33 34  1  0  0  0
 33 66  1  0  0  0
 33 70  2  0  0  0
 34 36  1  0  0  0
 34 59  1  0  0  0
 34110  1  0  0  0
 35 44  2  0  0  0
 35 45  1  0  0  0
 35 68  1  0  0  0
 36 56  1  0  0  0
 36111  1  0  0  0
 37 39  1  0  0  0
 37 47  1  0  0  0
 37 66  1  0  0  0
 37112  1  0  0  0
 38 43  2  0  0  0
 38 46  1  0  0  0
 38 47  1  0  0  0
 39 64  1  0  0  0
 39 67  2  0  0  0
 40 52  1  0  0  0
 40 53  2  0  0  0
 40 58  1  0  0  0
 41113  1  0  0  0
 41114  1  0  0  0
 41115  1  0  0  0
 41 48  1  0  0  0
 42 43  1  0  0  0
 42 66  1  0  0  0
 42116  1  0  0  0
 42117  1  0  0  0
 43 44  1  0  0  0
 44118  1  0  0  0
 45 46  2  0  0  0
 45119  1  0  0  0
 46120  1  0  0  0
 47121  1  0  0  0
 47122  1  0  0  0
 48 56  1  0  0  0
 48 65  1  0  0  0
 48123  1  0  0  0
 49 50  1  0  0  0
 49 53  1  0  0  0
 49 64  1  0  0  0
 49124  1  0  0  0
 50 51  1  0  0  0
 50125  1  0  0  0
 50126  1  0  0  0
 51 52  1  0  0  0
 51127  1  0  0  0
 51128  1  0  0  0
 52129  1  0  0  0
 52130  1  0  0  0
 53 54  1  0  0  0
 54 55  2  0  0  0
 54131  1  0  0  0
 55 57  1  0  0  0
 55132  1  0  0  0
 56 69  2  0  0  0
 57 58  2  0  0  0
 57133  1  0  0  0
 58134  1  0  0  0
 59 60  1  0  0  0
 59 61  1  0  0  0
 59 62  1  0  0  0
 60135  1  0  0  0
 60136  1  0  0  0
 60137  1  0  0  0
 61138  1  0  0  0
 61139  1  0  0  0
 61140  1  0  0  0
 62141  1  0  0  0
 62142  1  0  0  0
 62143  1  0  0  0
 63 65  1  0  0  0
 63144  1  0  0  0
 63145  1  0  0  0
 63146  1  0  0  0
 64147  1  0  0  0
 65148  1  0  0  0
 68 84  1  0  0  0
 71 72  2  0  0  0
 71 74  1  0  0  0
 71149  1  0  0  0
 72 76  1  0  0  0
 72150  1  0  0  0
 73 75  1  0  0  0
 73 76  2  0  0  0
 73151  1  0  0  0
 74 75  2  0  0  0
 74 87  1  0  0  0
 75 86  1  0  0  0
 76 88  1  0  0  0
 77 79  2  0  0  0
 77 84  1  0  0  0
 77 89  1  0  0  0
 78 80  2  0  0  0
 78152  1  0  0  0
 78153  1  0  0  0
 79 80  1  0  0  0
 79154  1  0  0  0
 80155  1  0  0  0
 81 82  1  0  0  0
 81 83  1  0  0  0
 81156  1  0  0  0
 81157  1  0  0  0
 82 84  1  0  0  0
 82158  1  0  0  0
 82159  1  0  0  0
 83 89  1  0  0  0
 83160  1  0  0  0
 83161  1  0  0  0
 84162  1  0  0  0
 85 86  1  0  0  0
 85163  1  0  0  0
 85164  1  0  0  0
 85165  1  0  0  0
 86166  1  0  0  0
 86167  1  0  0  0
 87168  1  0  0  0
 87169  1  0  0  0
 87 89  1  0  0  0
 88170  1  0  0  0
 89171  1  0  0  0
M  CHG  1  89   1
M  ISO  4   1 100  68 101  84 101  88 100
M  END
> <chiral flag>
0

> <version>
0

> <s_m_source_file>
/data/baiqing/PycharmProjects/Reinvent-master-3.2/result/LINK_invent/BTK/process_docking_weight1_custom_product_contain_oxygen_bond_distance_aromatic_linkinvent_7_9_3/rearranged_h_0041.sdf

> <i_m_source_file_index>
93

> <r_mmod_Potential_Energy-OPLS-2005>
6.3052077293396

> <r_mmod_Stretch_Energy-OPLS-2005>
92.6852722167969

> <r_mmod_Bend_Energy-OPLS-2005>
181.608352661133

> <r_mmod_Torsional_Energy-OPLS-2005>
250.246917724609

> <r_mmod_Improper_Torsional_Energy-OPLS-2005>
4.12345027923584

> <r_mmod_Van_der_Waal_Energy-OPLS-2005>
134.989944458008

> <r_mmod_Electrostatic_Energy-OPLS-2005>
-282.221130371094

> <r_mmod_Solvation_Energy-OPLS-2005>
-423.453765869141

> <b_mmod_Minimization_Converged-OPLS-2005>
0

> <r_mmod_RMS_Derivative-OPLS-2005>
3.93717527389526

$$$$
93
                    3D
 Structure written by MMmdl.
160168  0  0  1  0            999 V2000
  -29.4833  -15.9837   20.3066 C   0  0  0  0  0  0
  -30.2600  -13.4087   19.5828 C   0  0  0  0  0  0
  -29.5145  -12.7472   18.3764 C   0  0  0  0  0  0
  -28.1166  -12.2632   18.7962 C   0  0  0  0  0  0
  -27.4953  -13.2673   19.7853 C   0  0  2  0  0  0
  -28.4016  -13.6512   20.9499 C   0  0  0  0  0  0
  -25.1902  -13.8117   20.5665 C   0  0  0  0  0  0
  -24.1393  -13.0334   20.9382 C   0  0  0  0  0  0
  -24.6061  -11.6826   20.8844 C   0  0  0  0  0  0
  -23.8872  -10.4216   21.0496 C   0  0  0  0  0  0
  -24.3520   -9.4161   21.9234 C   0  0  0  0  0  0
  -23.6245   -8.2168   22.0753 C   0  0  0  0  0  0
  -22.4232   -8.0204   21.3529 C   0  0  0  0  0  0
  -21.9827   -9.0163   20.4640 C   0  0  0  0  0  0
  -22.7097  -10.2063   20.3092 C   0  0  0  0  0  0
  -21.6832   -6.0698   22.5289 C   0  0  0  0  0  0
  -21.4005   -6.5624   23.8213 C   0  0  0  0  0  0
  -21.3645   -5.6780   24.9176 C   0  0  0  0  0  0
  -21.6039   -4.3042   24.7230 C   0  0  0  0  0  0
  -21.8823   -3.8132   23.4355 C   0  0  0  0  0  0
  -21.9194   -4.6938   22.3412 C   0  0  0  0  0  0
  -22.7484  -13.5137   21.2033 C   0  0  0  0  0  0
  -22.1668   -4.2124   21.0986 F   0  0  0  0  0  0
  -21.5622   -3.4535   25.7749 F   0  0  0  0  0  0
  -29.3849  -14.4947   20.2937 N   0  0  0  0  0  0
  -26.2037  -12.9240   20.2814 N   0  0  0  0  0  0
  -25.8882  -11.6405   20.5549 N   0  0  0  0  0  0
  -22.0170  -12.8129   22.0597 N   0  0  0  0  0  0
  -25.3681  -15.1841   20.3990 N   0  0  0  0  0  0
  -30.7384  -16.1019   20.1445 O   0  0  0  0  0  0
  -21.6608   -6.8816   21.4233 O   0  0  0  0  0  0
  -22.3243  -14.5466   20.6856 O   0  0  0  0  0  0
  -24.7507  -31.8473   22.8041 C   0  0  0  0  0  0
  -25.9662  -32.4751   23.6614 C   0  0  1  0  0  0
  -26.6337  -27.9288   21.3413 C   0  0  0  0  0  0
  -25.5730  -33.8304   24.0984 N   0  0  0  0  0  0
  -24.0803  -29.4932   21.2061 C   0  0  2  0  0  0
  -25.3096  -29.0484   19.4908 C   0  0  0  0  0  0
  -23.6270  -27.6886   22.1312 C   0  0  0  0  0  0
  -18.1198  -28.0260   22.8391 C   0  0  0  0  0  0
  -24.1431  -36.7289   23.2679 C   0  0  0  0  0  0
  -26.0920  -31.0200   20.9378 C   0  0  0  0  0  0
  -26.3648  -29.7278   20.1810 C   0  0  0  0  0  0
  -27.3557  -28.9269   20.7296 C   0  0  0  0  0  0
  -26.0496  -27.0289   20.3740 C   0  0  0  0  0  0
  -25.3166  -27.6510   19.3581 C   0  0  0  0  0  0
  -24.0002  -29.5952   19.6906 C   0  0  0  0  0  0
  -25.4117  -36.2964   24.0211 C   0  0  1  0  0  0
  -20.7735  -27.6240   23.3660 C   0  0  2  0  0  0
  -20.3005  -26.2894   22.8653 C   0  0  0  0  0  0
  -19.4304  -26.3181   21.6099 C   0  0  0  0  0  0
  -18.0644  -26.7236   22.0847 C   0  0  0  0  0  0
  -19.3811  -28.6256   23.2309 C   0  0  0  0  0  0
  -19.1235  -30.0025   23.6136 C   0  0  0  0  0  0
  -17.8475  -30.5775   23.8721 C   0  0  0  0  0  0
  -25.9144  -34.9523   23.4582 C   0  0  0  0  0  0
  -16.6806  -29.8535   23.6250 C   0  0  0  0  0  0
  -16.8341  -28.5922   23.0521 C   0  0  0  0  0  0
  -26.5038  -31.7185   24.9856 C   0  0  0  0  0  0
  -25.4219  -31.4967   26.0948 C   0  0  0  0  0  0
  -27.2583  -30.4008   24.6251 C   0  0  0  0  0  0
  -27.6025  -32.5596   25.6877 C   0  0  0  0  0  0
  -27.5548  -37.1739   24.8448 C   0  0  0  0  0  0
  -22.3555  -27.3270   22.9137 N   0  0  0  0  0  0
  -26.4198  -37.3778   23.9485 N   0  0  0  0  0  0
  -24.8913  -30.8670   21.7378 N   0  0  0  0  0  0
  -24.3338  -26.9459   22.7083 O   0  0  0  0  0  0
  -26.1092  -28.4889   22.6400 O   0  0  0  0  0  0
  -26.6032  -34.9377   22.4368 O   0  0  0  0  0  0
  -23.6553  -32.2131   23.2553 O   0  0  0  0  0  0
  -24.5707  -22.6213   21.3245 C   0  0  0  0  0  0
  -25.4705  -21.3041   21.2975 C   0  0  0  0  0  0
  -25.1983  -23.1273   19.3828 C   0  0  0  0  0  0
  -24.2438  -23.8112   20.3900 C   0  0  0  0  0  0
  -26.4170  -20.6155   20.2927 C   0  0  0  0  0  0
  -26.1130  -21.8105   19.3408 C   0  0  0  0  0  0
  -22.1411  -30.1675   24.2674 C   0  0  0  0  0  0
  -22.6386  -29.7020   23.0942 C   0  0  0  0  0  0
  -27.7748  -19.0660   20.2417 C   0  0  0  0  0  0
  -22.8821  -25.3425   20.5509 C   0  0  0  0  0  0
  -21.6795  -28.8605   21.2342 C   0  0  0  0  0  0
  -24.6095  -29.2715   23.6398 C   0  0  0  0  0  0
  -28.3183  -17.1957   20.3644 N   0  0  0  0  0  0
  -22.1111  -27.1211   20.2741 N   0  3  0  0  0  0
  -26.9988  -21.7017   17.8630 Cl  0  0  0  0  0  0
  -31.1791  -13.8615   19.2089 H   0  0  0  0  0  0
  -30.5984  -12.6454   20.2861 H   0  0  0  0  0  0
  -30.0962  -11.9269   17.9558 H   0  0  0  0  0  0
  -29.4079  -13.4867   17.5819 H   0  0  0  0  0  0
  -28.2170  -11.2938   19.2862 H   0  0  0  0  0  0
  -27.4740  -12.1091   17.9298 H   0  0  0  0  0  0
  -27.3266  -14.1527   19.1684 H   0  0  0  0  0  0
  -28.7983  -12.7857   21.4823 H   0  0  0  0  0  0
  -27.8675  -14.2486   21.6918 H   0  0  0  0  0  0
  -25.2662   -9.5668   22.4804 H   0  0  0  0  0  0
  -23.9977   -7.4550   22.7455 H   0  0  0  0  0  0
  -21.0765   -8.8657   19.8946 H   0  0  0  0  0  0
  -22.3549  -10.9612   19.6218 H   0  0  0  0  0  0
  -21.2001   -7.6136   23.9702 H   0  0  0  0  0  0
  -21.1461   -6.0520   25.9071 H   0  0  0  0  0  0
  -22.0623   -2.7598   23.2862 H   0  0  0  0  0  0
  -22.3804  -11.9778   22.4947 H   0  0  0  0  0  0
  -21.0796  -13.1143   22.2852 H   0  0  0  0  0  0
  -24.5321  -15.7575   20.4247 H   0  0  0  0  0  0
  -25.9979  -15.4776   19.6650 H   0  0  0  0  0  0
  -26.8351  -32.5958   23.0225 H   0  0  0  0  0  0
  -24.9461  -33.8968   24.8877 H   0  0  0  0  0  0
  -23.3603  -30.3032   21.1210 H   0  0  0  0  0  0
  -23.3743  -35.9556   23.3140 H   0  0  0  0  0  0
  -24.3437  -36.9253   22.2135 H   0  0  0  0  0  0
  -23.7131  -37.6333   23.6990 H   0  0  0  0  0  0
  -25.9360  -31.8320   20.2263 H   0  0  0  0  0  0
  -26.9834  -31.2812   21.4976 H   0  0  0  0  0  0
  -28.0500  -29.4493   21.3729 H   0  0  0  0  0  0
  -25.7585  -26.0297   20.6613 H   0  0  0  0  0  0
  -24.5633  -27.0957   18.8203 H   0  0  0  0  0  0
  -23.9616  -30.6094   19.2746 H   0  0  0  0  0  0
  -23.2607  -29.0075   19.1539 H   0  0  0  0  0  0
  -25.1367  -36.1486   25.0677 H   0  0  0  0  0  0
  -20.8679  -27.5554   24.4519 H   0  0  0  0  0  0
  -19.6795  -25.8908   23.6727 H   0  0  0  0  0  0
  -21.0335  -25.4909   22.8241 H   0  0  0  0  0  0
  -19.3701  -25.3248   21.1636 H   0  0  0  0  0  0
  -19.7393  -26.9965   20.8260 H   0  0  0  0  0  0
  -17.4085  -26.8396   21.2201 H   0  0  0  0  0  0
  -17.6091  -25.9531   22.7122 H   0  0  0  0  0  0
  -19.8502  -30.7810   23.5484 H   0  0  0  0  0  0
  -17.7695  -31.6121   24.1750 H   0  0  0  0  0  0
  -15.7009  -30.2820   23.7795 H   0  0  0  0  0  0
  -15.9499  -28.0432   22.7596 H   0  0  0  0  0  0
  -25.4646  -30.5041   26.5458 H   0  0  0  0  0  0
  -24.4167  -31.6573   25.7168 H   0  0  0  0  0  0
  -25.5141  -32.2094   26.9151 H   0  0  0  0  0  0
  -26.8236  -29.4959   25.0479 H   0  0  0  0  0  0
  -28.2854  -30.3862   24.9947 H   0  0  0  0  0  0
  -27.3702  -30.2821   23.5515 H   0  0  0  0  0  0
  -27.2231  -33.5071   26.0727 H   0  0  0  0  0  0
  -28.4213  -32.8018   25.0098 H   0  0  0  0  0  0
  -28.0289  -32.0320   26.5434 H   0  0  0  0  0  0
  -28.2473  -38.0130   24.7629 H   0  0  0  0  0  0
  -28.1124  -36.2665   24.6059 H   0  0  0  0  0  0
  -27.2313  -37.1156   25.8856 H   0  0  0  0  0  0
  -22.6550  -26.5351   23.4657 H   0  0  0  0  0  0
  -25.9994  -38.2769   24.1674 H   0  0  0  0  0  0
  -24.0287  -22.7045   22.2563 H   0  0  0  0  0  0
  -25.4166  -20.7652   22.2324 H   0  0  0  0  0  0
  -25.2679  -23.6895   18.4601 H   0  0  0  0  0  0
  -21.1868  -30.3414   24.6752 H   0  0  0  0  0  0
  -22.8640  -30.3774   25.0342 H   0  0  0  0  0  0
  -28.5020  -19.4839   20.9389 H   0  0  0  0  0  0
  -28.2038  -19.2804   19.2627 H   0  0  0  0  0  0
  -22.5894  -25.1179   21.5666 H   0  0  0  0  0  0
  -22.1280  -24.8273   19.9543 H   0  0  0  0  0  0
  -21.6293  -29.6228   20.4579 H   0  0  0  0  0  0
  -20.6075  -28.9233   21.2835 H   0  0  0  0  0  0
  -24.4709  -28.5313   24.4327 H   0  0  0  0  0  0
  -24.8989  -29.9810   24.3584 H   0  0  0  0  0  0
  -27.4577  -16.6906   20.5334 H   0  0  0  0  0  0
  -22.4781  -27.4017   19.3784 H   0  0  0  0  0  0
  -21.1712  -26.8426   20.0333 H   0  0  0  0  0  0
  1 25  1  0  0  0
  1 30  2  0  0  0
  1 83  1  0  0  0
  2  3  1  0  0  0
  2 25  1  0  0  0
  2 86  1  0  0  0
  2 87  1  0  0  0
  3  4  1  0  0  0
  3 88  1  0  0  0
  3 89  1  0  0  0
  4  5  1  0  0  0
  4 90  1  0  0  0
  4 91  1  0  0  0
  5  6  1  0  0  0
  5 26  1  0  0  0
  5 92  1  0  0  0
  6 25  1  0  0  0
  6 93  1  0  0  0
  6 94  1  0  0  0
  7  8  2  0  0  0
  7 26  1  0  0  0
  7 29  1  0  0  0
  8  9  1  0  0  0
  8 22  1  0  0  0
  9 10  1  0  0  0
  9 27  2  0  0  0
 10 11  2  0  0  0
 10 15  1  0  0  0
 11 12  1  0  0  0
 11 95  1  0  0  0
 12 13  2  0  0  0
 12 96  1  0  0  0
 13 14  1  0  0  0
 13 31  1  0  0  0
 14 15  2  0  0  0
 14 97  1  0  0  0
 15 98  1  0  0  0
 16 17  2  0  0  0
 16 21  1  0  0  0
 16 31  1  0  0  0
 17 18  1  0  0  0
 17 99  1  0  0  0
 18 19  2  0  0  0
 18100  1  0  0  0
 19 20  1  0  0  0
 19 24  1  0  0  0
 20 21  2  0  0  0
 20101  1  0  0  0
 21 23  1  0  0  0
 22 28  1  0  0  0
 22 32  2  0  0  0
 26 27  1  0  0  0
 28102  1  0  0  0
 28103  1  0  0  0
 29104  1  0  0  0
 29105  1  0  0  0
 33 34  1  0  0  0
 33 66  1  0  0  0
 33 70  2  0  0  0
 34 36  1  0  0  0
 34 59  1  0  0  0
 34106  1  0  0  0
 35 44  2  0  0  0
 35 45  1  0  0  0
 35 68  1  0  0  0
 36 56  1  0  0  0
 36107  1  0  0  0
 37 39  1  0  0  0
 37 47  1  0  0  0
 37 66  1  0  0  0
 37108  1  0  0  0
 38 43  2  0  0  0
 38 46  1  0  0  0
 38 47  1  0  0  0
 39 64  1  0  0  0
 39 67  2  0  0  0
 40 52  1  0  0  0
 40 53  2  0  0  0
 40 58  1  0  0  0
 41109  1  0  0  0
 41110  1  0  0  0
 41111  1  0  0  0
 41 48  1  0  0  0
 42 43  1  0  0  0
 42 66  1  0  0  0
 42112  1  0  0  0
 42113  1  0  0  0
 43 44  1  0  0  0
 44114  1  0  0  0
 45 46  2  0  0  0
 45115  1  0  0  0
 46116  1  0  0  0
 47117  1  0  0  0
 47118  1  0  0  0
 48 56  1  0  0  0
 48 65  1  0  0  0
 48119  1  0  0  0
 49 50  1  0  0  0
 49 53  1  0  0  0
 49 64  1  0  0  0
 49120  1  0  0  0
 50 51  1  0  0  0
 50121  1  0  0  0
 50122  1  0  0  0
 51 52  1  0  0  0
 51123  1  0  0  0
 51124  1  0  0  0
 52125  1  0  0  0
 52126  1  0  0  0
 53 54  1  0  0  0
 54 55  2  0  0  0
 54127  1  0  0  0
 55 57  1  0  0  0
 55128  1  0  0  0
 56 69  2  0  0  0
 57 58  2  0  0  0
 57129  1  0  0  0
 58130  1  0  0  0
 59 60  1  0  0  0
 59 61  1  0  0  0
 59 62  1  0  0  0
 60131  1  0  0  0
 60132  1  0  0  0
 60133  1  0  0  0
 61134  1  0  0  0
 61135  1  0  0  0
 61136  1  0  0  0
 62137  1  0  0  0
 62138  1  0  0  0
 62139  1  0  0  0
 63 65  1  0  0  0
 63140  1  0  0  0
 63141  1  0  0  0
 63142  1  0  0  0
 64143  1  0  0  0
 65144  1  0  0  0
 68 82  1  0  0  0
 71 72  2  0  0  0
 71 74  1  0  0  0
 71145  1  0  0  0
 72 75  1  0  0  0
 72146  1  0  0  0
 73 74  2  0  0  0
 73 76  1  0  0  0
 73147  1  0  0  0
 74 80  1  0  0  0
 75 76  2  0  0  0
 75 79  1  0  0  0
 76 85  1  0  0  0
 77 78  2  0  0  0
 77148  1  0  0  0
 77149  1  0  0  0
 78 81  1  0  0  0
 78 82  1  0  0  0
 79 83  1  0  0  0
 79150  1  0  0  0
 79151  1  0  0  0
 80 84  1  0  0  0
 80152  1  0  0  0
 80153  1  0  0  0
 81 84  1  0  0  0
 81154  1  0  0  0
 81155  1  0  0  0
 82156  1  0  0  0
 82157  1  0  0  0
 83158  1  0  0  0
 84159  1  0  0  0
 84160  1  0  0  0
M  CHG  1  84   1
M  ISO  4   1 100  68 101  82 101  83 100
M  END
> <chiral flag>
0

> <version>
0

> <s_m_source_file>
/data/baiqing/PycharmProjects/Reinvent-master-3.2/result/LINK_invent/BTK/process_docking_weight1_custom_product_contain_oxygen_bond_distance_aromatic_linkinvent_7_9_3/rearranged_h_0041.sdf

> <i_m_source_file_index>
94

> <r_mmod_Potential_Energy-OPLS-2005>
14225.8681640625

> <r_mmod_Stretch_Energy-OPLS-2005>
5089.82373046875

> <r_mmod_Bend_Energy-OPLS-2005>
2287.87475585938

> <r_mmod_Torsional_Energy-OPLS-2005>
677.393981933594

> <r_mmod_Improper_Torsional_Energy-OPLS-2005>
87.4889526367188

> <r_mmod_Van_der_Waal_Energy-OPLS-2005>
1789.20715332031

> <r_mmod_Electrostatic_Energy-OPLS-2005>
-282.715972900391

> <r_mmod_Solvation_Energy-OPLS-2005>
-451.547027587891

> <b_mmod_Minimization_Converged-OPLS-2005>
0

> <r_mmod_RMS_Derivative-OPLS-2005>
4.07802629470825

$$$$
94
                    3D
 Structure written by MMmdl.
163172  0  0  1  0            999 V2000
  -30.5079  -14.9240   20.4286 C   0  0  0  0  0  0
  -30.4547  -12.5683   19.4917 C   0  0  0  0  0  0
  -29.5281  -12.5352   18.2515 C   0  0  0  0  0  0
  -28.0589  -12.3198   18.6669 C   0  0  0  0  0  0
  -27.6381  -13.2383   19.8439 C   0  0  2  0  0  0
  -28.6823  -13.2219   20.9818 C   0  0  0  0  0  0
  -25.2497  -13.8183   20.5691 C   0  0  0  0  0  0
  -24.1802  -13.0423   20.9217 C   0  0  0  0  0  0
  -24.6404  -11.6909   20.8729 C   0  0  0  0  0  0
  -23.9080  -10.4286   21.0396 C   0  0  0  0  0  0
  -24.3626   -9.4204   21.9183 C   0  0  0  0  0  0
  -23.6298   -8.2239   22.0754 C   0  0  0  0  0  0
  -22.4281   -8.0276   21.3543 C   0  0  0  0  0  0
  -21.9918   -9.0250   20.4645 C   0  0  0  0  0  0
  -22.7247  -10.2130   20.3052 C   0  0  0  0  0  0
  -21.6853   -6.0736   22.5287 C   0  0  0  0  0  0
  -21.4013   -6.5638   23.8222 C   0  0  0  0  0  0
  -21.3661   -5.6788   24.9181 C   0  0  0  0  0  0
  -21.6046   -4.3053   24.7225 C   0  0  0  0  0  0
  -21.8819   -3.8149   23.4347 C   0  0  0  0  0  0
  -21.9192   -4.6964   22.3407 C   0  0  0  0  0  0
  -22.7826  -13.5210   21.1876 C   0  0  0  0  0  0
  -22.1663   -4.2148   21.0981 F   0  0  0  0  0  0
  -21.5628   -3.4540   25.7739 F   0  0  0  0  0  0
  -29.9660  -13.6412   20.4004 N   0  0  0  0  0  0
  -26.2923  -12.9407   20.3239 N   0  0  0  0  0  0
  -25.9335  -11.6545   20.5716 N   0  0  0  0  0  0
  -22.0474  -12.8198   22.0428 N   0  0  0  0  0  0
  -25.4158  -15.1916   20.4098 N   0  0  0  0  0  0
  -31.6937  -15.0614   20.1041 O   0  0  0  0  0  0
  -21.6644   -6.8878   21.4249 O   0  0  0  0  0  0
  -22.3517  -14.5519   20.6724 O   0  0  0  0  0  0
  -24.6401  -31.8473   23.1857 C   0  0  0  0  0  0
  -25.9172  -32.4740   23.8267 C   0  0  1  0  0  0
  -27.2290  -27.1556   20.1653 C   0  0  0  0  0  0
  -25.5917  -33.8534   24.2191 N   0  0  0  0  0  0
  -23.4462  -30.4638   21.5291 C   0  0  2  0  0  0
  -24.8988  -28.8807   20.1211 C   0  0  0  0  0  0
  -22.7575  -29.4571   22.4844 C   0  0  0  0  0  0
  -18.0312  -28.1431   22.8505 C   0  0  0  0  0  0
  -24.1472  -36.7259   23.2649 C   0  0  0  0  0  0
  -25.9976  -30.7272   21.3807 C   0  0  0  0  0  0
  -26.0731  -29.3343   20.7351 C   0  0  0  0  0  0
  -27.2434  -28.4893   20.7336 C   0  0  0  0  0  0
  -26.0274  -26.7865   19.5284 C   0  0  0  0  0  0
  -24.8852  -27.6185   19.5043 C   0  0  0  0  0  0
  -23.6772  -29.7866   20.1517 C   0  0  0  0  0  0
  -25.4115  -36.3062   24.0323 C   0  0  1  0  0  0
  -20.5930  -28.3741   23.1250 C   0  0  2  0  0  0
  -20.6797  -26.9448   22.5411 C   0  0  0  0  0  0
  -19.5747  -26.6403   21.5233 C   0  0  0  0  0  0
  -18.1930  -26.7975   22.1644 C   0  0  0  0  0  0
  -19.1573  -28.8899   23.2881 C   0  0  0  0  0  0
  -18.9500  -30.1507   23.8904 C   0  0  0  0  0  0
  -17.6496  -30.6633   24.0587 C   0  0  0  0  0  0
  -25.9063  -34.9436   23.5078 C   0  0  0  0  0  0
  -16.5384  -29.9141   23.6350 C   0  0  0  0  0  0
  -16.7302  -28.6554   23.0380 C   0  0  0  0  0  0
  -26.4496  -31.6604   25.0691 C   0  0  0  0  0  0
  -25.3692  -31.3801   26.1399 C   0  0  0  0  0  0
  -27.0356  -30.3013   24.6227 C   0  0  0  0  0  0
  -27.6018  -32.4371   25.7497 C   0  0  0  0  0  0
  -27.5581  -37.1796   24.8479 C   0  0  0  0  0  0
  -21.4259  -29.3087   22.3631 N   0  0  0  0  0  0
  -26.4282  -37.3776   23.9431 N   0  0  0  0  0  0
  -24.7139  -31.0347   22.0880 N   0  0  0  0  0  0
  -23.4229  -28.8133   23.2997 O   0  0  0  0  0  0
  -28.3274  -26.2303   20.1243 O   0  0  0  0  0  0
  -26.5656  -34.8931   22.4656 O   0  0  0  0  0  0
  -23.5521  -32.1315   23.7089 O   0  0  0  0  0  0
  -30.2027  -19.9728   20.0668 C   0  0  0  0  0  0
  -30.4521  -18.5251   20.0498 C   0  0  0  0  0  0
  -28.3865  -18.1883   21.1140 C   0  0  0  0  0  0
  -28.1379  -19.6161   21.1484 C   0  0  0  0  0  0
  -29.0524  -20.6196   20.6588 C   0  0  0  0  0  0
  -29.5549  -17.5410   20.6004 C   0  0  0  0  0  0
  -28.7292  -22.4699   22.2951 C   0  0  0  0  0  0
  -29.6372  -22.1950   23.2567 C   0  0  0  0  0  0
  -27.5035  -23.3381   22.6355 C   0  0  0  0  0  0
  -27.1777  -24.4919   21.6513 C   0  0  0  0  0  0
  -28.7322  -23.3095   20.0121 C   0  0  0  0  0  0
  -28.3516  -24.7913   20.7143 C   0  0  1  0  0  0
  -26.8162  -20.0436   21.7657 C   0  0  0  0  0  0
  -30.9641  -21.4761   23.0944 C   0  0  0  0  0  0
  -28.8698  -22.0808   20.9563 N   0  0  0  0  0  0
  -29.6321  -16.0093   20.6733 N   0  0  0  0  0  0
  -31.4863  -12.7420   19.1820 H   0  0  0  0  0  0
  -30.4552  -11.6031   20.0014 H   0  0  0  0  0  0
  -29.8428  -11.7501   17.5613 H   0  0  0  0  0  0
  -29.6193  -13.4755   17.7058 H   0  0  0  0  0  0
  -27.9497  -11.2751   18.9621 H   0  0  0  0  0  0
  -27.3970  -12.4644   17.8122 H   0  0  0  0  0  0
  -27.6129  -14.2486   19.4351 H   0  0  0  0  0  0
  -28.7601  -12.2278   21.4231 H   0  0  0  0  0  0
  -28.3847  -13.8896   21.7915 H   0  0  0  0  0  0
  -25.2773   -9.5684   22.4755 H   0  0  0  0  0  0
  -24.0012   -7.4632   22.7475 H   0  0  0  0  0  0
  -21.0851   -8.8763   19.8951 H   0  0  0  0  0  0
  -22.3705  -10.9662   19.6155 H   0  0  0  0  0  0
  -21.2005   -7.6148   23.9721 H   0  0  0  0  0  0
  -21.1483   -6.0521   25.9082 H   0  0  0  0  0  0
  -22.0595   -2.7610   23.2849 H   0  0  0  0  0  0
  -22.4086  -11.9848   22.4806 H   0  0  0  0  0  0
  -21.1094  -13.1230   22.2639 H   0  0  0  0  0  0
  -24.6333  -15.8306   20.4997 H   0  0  0  0  0  0
  -26.2388  -15.6295   20.0174 H   0  0  0  0  0  0
  -26.7244  -32.5372   23.1013 H   0  0  0  0  0  0
  -25.0046  -33.9661   25.0327 H   0  0  0  0  0  0
  -22.7488  -31.2895   21.3733 H   0  0  0  0  0  0
  -23.3750  -35.9578   23.3311 H   0  0  0  0  0  0
  -24.3549  -36.8885   22.2064 H   0  0  0  0  0  0
  -23.7184  -37.6437   23.6676 H   0  0  0  0  0  0
  -26.1454  -31.4738   20.5990 H   0  0  0  0  0  0
  -26.8709  -30.7902   22.0190 H   0  0  0  0  0  0
  -28.1488  -28.8418   21.2087 H   0  0  0  0  0  0
  -25.9671  -25.8186   19.0499 H   0  0  0  0  0  0
  -23.9860  -27.2696   19.0140 H   0  0  0  0  0  0
  -23.8256  -30.5568   19.3932 H   0  0  0  0  0  0
  -22.7930  -29.2343   19.8317 H   0  0  0  0  0  0
  -25.1295  -36.1897   25.0811 H   0  0  0  0  0  0
  -21.0041  -28.3324   24.1364 H   0  0  0  0  0  0
  -20.5688  -26.2361   23.3633 H   0  0  0  0  0  0
  -21.6660  -26.7462   22.1200 H   0  0  0  0  0  0
  -19.6875  -25.6294   21.1296 H   0  0  0  0  0  0
  -19.6670  -27.3204   20.6749 H   0  0  0  0  0  0
  -17.4204  -26.6774   21.4040 H   0  0  0  0  0  0
  -18.0310  -26.0119   22.9034 H   0  0  0  0  0  0
  -19.7973  -30.7346   24.2254 H   0  0  0  0  0  0
  -17.5051  -31.6305   24.5214 H   0  0  0  0  0  0
  -15.5387  -30.3065   23.7645 H   0  0  0  0  0  0
  -15.8704  -28.0878   22.7086 H   0  0  0  0  0  0
  -24.5860  -30.7153   25.7736 H   0  0  0  0  0  0
  -24.8887  -32.2993   26.4766 H   0  0  0  0  0  0
  -25.7972  -30.9019   27.0217 H   0  0  0  0  0  0
  -26.2940  -29.6771   24.1219 H   0  0  0  0  0  0
  -27.3991  -29.7277   25.4763 H   0  0  0  0  0  0
  -27.8848  -30.4290   23.9508 H   0  0  0  0  0  0
  -27.2595  -33.3690   26.2020 H   0  0  0  0  0  0
  -28.3870  -32.6912   25.0365 H   0  0  0  0  0  0
  -28.0637  -31.8527   26.5471 H   0  0  0  0  0  0
  -28.2603  -38.0095   24.7545 H   0  0  0  0  0  0
  -28.1060  -36.2618   24.6272 H   0  0  0  0  0  0
  -27.2300  -37.1423   25.8884 H   0  0  0  0  0  0
  -20.9450  -29.8862   21.6868 H   0  0  0  0  0  0
  -26.0143  -38.2837   24.1452 H   0  0  0  0  0  0
  -30.9812  -20.6079   19.6690 H   0  0  0  0  0  0
  -31.3759  -18.1794   19.6083 H   0  0  0  0  0  0
  -27.6213  -17.5524   21.5359 H   0  0  0  0  0  0
  -29.4394  -22.5335   24.2641 H   0  0  0  0  0  0
  -27.6747  -23.7919   23.6124 H   0  0  0  0  0  0
  -26.6274  -22.7058   22.7724 H   0  0  0  0  0  0
  -26.9052  -25.3785   22.2249 H   0  0  0  0  0  0
  -26.3033  -24.2301   21.0550 H   0  0  0  0  0  0
  -29.6664  -23.4137   19.4599 H   0  0  0  0  0  0
  -27.9733  -23.0718   19.2660 H   0  0  0  0  0  0
  -29.1968  -24.9447   21.3862 H   0  0  0  0  0  0
  -26.0604  -19.2623   21.6819 H   0  0  0  0  0  0
  -26.4187  -20.9278   21.2662 H   0  0  0  0  0  0
  -26.9536  -20.2675   22.8239 H   0  0  0  0  0  0
  -31.2770  -21.4138   22.0541 H   0  0  0  0  0  0
  -30.9052  -20.4689   23.5046 H   0  0  0  0  0  0
  -31.7417  -22.0193   23.6318 H   0  0  0  0  0  0
  -28.7518  -15.6194   20.9718 H   0  0  0  0  0  0
  1 25  1  0  0  0
  1 30  2  0  0  0
  1 86  1  0  0  0
  2  3  1  0  0  0
  2 25  1  0  0  0
  2 87  1  0  0  0
  2 88  1  0  0  0
  3  4  1  0  0  0
  3 89  1  0  0  0
  3 90  1  0  0  0
  4  5  1  0  0  0
  4 91  1  0  0  0
  4 92  1  0  0  0
  5  6  1  0  0  0
  5 26  1  0  0  0
  5 93  1  0  0  0
  6 25  1  0  0  0
  6 94  1  0  0  0
  6 95  1  0  0  0
  7  8  2  0  0  0
  7 26  1  0  0  0
  7 29  1  0  0  0
  8  9  1  0  0  0
  8 22  1  0  0  0
  9 10  1  0  0  0
  9 27  2  0  0  0
 10 11  2  0  0  0
 10 15  1  0  0  0
 11 12  1  0  0  0
 11 96  1  0  0  0
 12 13  2  0  0  0
 12 97  1  0  0  0
 13 14  1  0  0  0
 13 31  1  0  0  0
 14 15  2  0  0  0
 14 98  1  0  0  0
 15 99  1  0  0  0
 16 17  2  0  0  0
 16 21  1  0  0  0
 16 31  1  0  0  0
 17 18  1  0  0  0
 17100  1  0  0  0
 18 19  2  0  0  0
 18101  1  0  0  0
 19 20  1  0  0  0
 19 24  1  0  0  0
 20 21  2  0  0  0
 20102  1  0  0  0
 21 23  1  0  0  0
 22 28  1  0  0  0
 22 32  2  0  0  0
 26 27  1  0  0  0
 28103  1  0  0  0
 28104  1  0  0  0
 29105  1  0  0  0
 29106  1  0  0  0
 33 34  1  0  0  0
 33 66  1  0  0  0
 33 70  2  0  0  0
 34 36  1  0  0  0
 34 59  1  0  0  0
 34107  1  0  0  0
 35 44  2  0  0  0
 35 45  1  0  0  0
 35 68  1  0  0  0
 36 56  1  0  0  0
 36108  1  0  0  0
 37 39  1  0  0  0
 37 47  1  0  0  0
 37 66  1  0  0  0
 37109  1  0  0  0
 38 43  2  0  0  0
 38 46  1  0  0  0
 38 47  1  0  0  0
 39 64  1  0  0  0
 39 67  2  0  0  0
 40 52  1  0  0  0
 40 53  2  0  0  0
 40 58  1  0  0  0
 41110  1  0  0  0
 41111  1  0  0  0
 41112  1  0  0  0
 41 48  1  0  0  0
 42 43  1  0  0  0
 42 66  1  0  0  0
 42113  1  0  0  0
 42114  1  0  0  0
 43 44  1  0  0  0
 44115  1  0  0  0
 45 46  2  0  0  0
 45116  1  0  0  0
 46117  1  0  0  0
 47118  1  0  0  0
 47119  1  0  0  0
 48 56  1  0  0  0
 48 65  1  0  0  0
 48120  1  0  0  0
 49 50  1  0  0  0
 49 53  1  0  0  0
 49 64  1  0  0  0
 49121  1  0  0  0
 50 51  1  0  0  0
 50122  1  0  0  0
 50123  1  0  0  0
 51 52  1  0  0  0
 51124  1  0  0  0
 51125  1  0  0  0
 52126  1  0  0  0
 52127  1  0  0  0
 53 54  1  0  0  0
 54 55  2  0  0  0
 54128  1  0  0  0
 55 57  1  0  0  0
 55129  1  0  0  0
 56 69  2  0  0  0
 57 58  2  0  0  0
 57130  1  0  0  0
 58131  1  0  0  0
 59 60  1  0  0  0
 59 61  1  0  0  0
 59 62  1  0  0  0
 60132  1  0  0  0
 60133  1  0  0  0
 60134  1  0  0  0
 61135  1  0  0  0
 61136  1  0  0  0
 61137  1  0  0  0
 62138  1  0  0  0
 62139  1  0  0  0
 62140  1  0  0  0
 63 65  1  0  0  0
 63141  1  0  0  0
 63142  1  0  0  0
 63143  1  0  0  0
 64144  1  0  0  0
 65145  1  0  0  0
 68 82  1  0  0  0
 71 72  2  0  0  0
 71 75  1  0  0  0
 71146  1  0  0  0
 72 76  1  0  0  0
 72147  1  0  0  0
 73 74  1  0  0  0
 73 76  2  0  0  0
 73148  1  0  0  0
 74 75  2  0  0  0
 74 83  1  0  0  0
 75 85  1  0  0  0
 76 86  1  0  0  0
 77 78  2  0  0  0
 77 79  1  0  0  0
 77 85  1  0  0  0
 78 84  1  0  0  0
 78149  1  0  0  0
 79 80  1  0  0  0
 79150  1  0  0  0
 79151  1  0  0  0
 80 82  1  0  0  0
 80152  1  0  0  0
 80153  1  0  0  0
 81 82  1  0  0  0
 81 85  1  0  0  0
 81154  1  0  0  0
 81155  1  0  0  0
 82156  1  0  0  0
 83157  1  0  0  0
 83158  1  0  0  0
 83159  1  0  0  0
 84160  1  0  0  0
 84161  1  0  0  0
 84162  1  0  0  0
 86163  1  0  0  0
M  ISO  4   1 100  68 101  82 101  86 100
M  END
> <chiral flag>
0

> <version>
0

> <s_m_source_file>
/data/baiqing/PycharmProjects/Reinvent-master-3.2/result/LINK_invent/BTK/process_docking_weight1_custom_product_contain_oxygen_bond_distance_aromatic_linkinvent_7_9_3/rearranged_h_0041.sdf

> <i_m_source_file_index>
95

> <r_mmod_Potential_Energy-OPLS-2005>
528.89453125

> <r_mmod_Stretch_Energy-OPLS-2005>
225.665176391602

> <r_mmod_Bend_Energy-OPLS-2005>
308.134552001953

> <r_mmod_Torsional_Energy-OPLS-2005>
305.510284423828

> <r_mmod_Improper_Torsional_Energy-OPLS-2005>
5.18997240066528

> <r_mmod_Van_der_Waal_Energy-OPLS-2005>
138.152786254883

> <r_mmod_Electrostatic_Energy-OPLS-2005>
-421.663726806641

> <r_mmod_Solvation_Energy-OPLS-2005>
-201.239974975586

> <b_mmod_Minimization_Converged-OPLS-2005>
0

> <r_mmod_RMS_Derivative-OPLS-2005>
2.4278302192688

$$$$
95
                    3D
 Structure written by MMmdl.
156164  0  0  1  0            999 V2000
  -30.6664  -14.5441   20.5167 C   0  0  0  0  0  0
  -30.4238  -12.3367   19.4301 C   0  0  0  0  0  0
  -29.4956  -12.4943   18.2069 C   0  0  0  0  0  0
  -28.0176  -12.3474   18.6215 C   0  0  0  0  0  0
  -27.6525  -13.2098   19.8606 C   0  0  2  0  0  0
  -28.6980  -13.0397   20.9863 C   0  0  0  0  0  0
  -25.2522  -13.8116   20.5653 C   0  0  0  0  0  0
  -24.1805  -13.0408   20.9176 C   0  0  0  0  0  0
  -24.6382  -11.6879   20.8735 C   0  0  0  0  0  0
  -23.9052  -10.4277   21.0411 C   0  0  0  0  0  0
  -24.3613   -9.4196   21.9189 C   0  0  0  0  0  0
  -23.6283   -8.2237   22.0765 C   0  0  0  0  0  0
  -22.4266   -8.0276   21.3550 C   0  0  0  0  0  0
  -21.9899   -9.0248   20.4653 C   0  0  0  0  0  0
  -22.7228  -10.2124   20.3058 C   0  0  0  0  0  0
  -21.6853   -6.0724   22.5278 C   0  0  0  0  0  0
  -21.4009   -6.5632   23.8207 C   0  0  0  0  0  0
  -21.3657   -5.6790   24.9170 C   0  0  0  0  0  0
  -21.6046   -4.3050   24.7226 C   0  0  0  0  0  0
  -21.8816   -3.8141   23.4346 C   0  0  0  0  0  0
  -21.9192   -4.6952   22.3403 C   0  0  0  0  0  0
  -22.7827  -13.5214   21.1835 C   0  0  0  0  0  0
  -22.1662   -4.2141   21.0977 F   0  0  0  0  0  0
  -21.5635   -3.4537   25.7738 F   0  0  0  0  0  0
  -30.0188  -13.3482   20.4185 N   0  0  0  0  0  0
  -26.2978  -12.9322   20.3303 N   0  0  0  0  0  0
  -25.9313  -11.6478   20.5768 N   0  0  0  0  0  0
  -22.0461  -12.8247   22.0405 N   0  0  0  0  0  0
  -25.4125  -15.1831   20.4028 N   0  0  0  0  0  0
  -31.8355  -14.6875   20.1464 O   0  0  0  0  0  0
  -21.6635   -6.8868   21.4242 O   0  0  0  0  0  0
  -22.3522  -14.5523   20.6670 O   0  0  0  0  0  0
  -24.6178  -31.8609   23.2026 C   0  0  0  0  0  0
  -25.9045  -32.4775   23.8357 C   0  0  1  0  0  0
  -27.2569  -27.3882   20.1034 C   0  0  0  0  0  0
  -25.5900  -33.8580   24.2287 N   0  0  0  0  0  0
  -23.4138  -30.4758   21.5373 C   0  0  2  0  0  0
  -24.8698  -28.9285   20.1151 C   0  0  0  0  0  0
  -22.7449  -29.4597   22.4915 C   0  0  0  0  0  0
  -18.0285  -28.1355   22.8480 C   0  0  0  0  0  0
  -24.1502  -36.7293   23.2629 C   0  0  0  0  0  0
  -25.9433  -30.8102   21.3666 C   0  0  0  0  0  0
  -26.0255  -29.4389   20.7138 C   0  0  0  0  0  0
  -27.2196  -28.6764   20.6993 C   0  0  0  0  0  0
  -26.0761  -26.8946   19.5079 C   0  0  0  0  0  0
  -24.8908  -27.6588   19.5090 C   0  0  0  0  0  0
  -23.6314  -29.7946   20.1580 C   0  0  0  0  0  0
  -25.4123  -36.3071   24.0320 C   0  0  1  0  0  0
  -20.5880  -28.3663   23.1284 C   0  0  2  0  0  0
  -20.6755  -26.9393   22.5398 C   0  0  0  0  0  0
  -19.5737  -26.6369   21.5188 C   0  0  0  0  0  0
  -18.1917  -26.7901   22.1600 C   0  0  0  0  0  0
  -19.1532  -28.8826   23.2881 C   0  0  0  0  0  0
  -18.9451  -30.1424   23.8906 C   0  0  0  0  0  0
  -17.6454  -30.6568   24.0537 C   0  0  0  0  0  0
  -25.9032  -34.9435   23.5091 C   0  0  0  0  0  0
  -16.5349  -29.9063   23.6308 C   0  0  0  0  0  0
  -16.7267  -28.6463   23.0359 C   0  0  0  0  0  0
  -26.4497  -31.6580   25.0700 C   0  0  0  0  0  0
  -25.3780  -31.3706   26.1468 C   0  0  0  0  0  0
  -27.0292  -30.2987   24.6108 C   0  0  0  0  0  0
  -27.6062  -32.4329   25.7469 C   0  0  0  0  0  0
  -27.5581  -37.1804   24.8458 C   0  0  0  0  0  0
  -21.4167  -29.3012   22.3655 N   0  0  0  0  0  0
  -26.4293  -37.3762   23.9402 N   0  0  0  0  0  0
  -24.6744  -31.0676   22.0929 N   0  0  0  0  0  0
  -23.4180  -28.8164   23.3008 O   0  0  0  0  0  0
  -28.4478  -26.6759   20.1390 O   0  0  0  0  0  0
  -26.5568  -34.8887   22.4639 O   0  0  0  0  0  0
  -23.5358  -32.1345   23.7404 O   0  0  0  0  0  0
  -31.7180  -18.8355   21.5101 C   0  0  0  0  0  0
  -30.7434  -19.7955   21.1702 C   0  0  0  0  0  0
  -31.4560  -17.4583   21.3750 C   0  0  0  0  0  0
  -29.4846  -19.3964   20.6702 C   0  0  0  0  0  0
  -30.2072  -17.0106   20.8853 C   0  0  0  0  0  0
  -29.2299  -17.9919   20.5345 C   0  0  0  0  0  0
  -28.3892  -20.4553   20.3600 C   0  0  0  0  0  0
  -28.0737  -24.2042   20.6913 C   0  0  0  0  0  0
  -28.9625  -22.9132   20.8796 C   0  0  0  0  0  0
  -28.5691  -25.3011   19.6914 C   0  0  0  0  0  0
  -29.8804  -15.6056   20.8204 N   0  0  0  0  0  0
  -28.7939  -21.8167   19.8723 N   0  3  0  0  0  0
  -27.6961  -17.4437   19.9532 Cl  0  0  0  0  0  0
  -31.4685  -12.4367   19.1297 H   0  0  0  0  0  0
  -30.3283  -11.3366   19.8577 H   0  0  0  0  0  0
  -29.7440  -11.7500   17.4490 H   0  0  0  0  0  0
  -29.6527  -13.4704   17.7431 H   0  0  0  0  0  0
  -27.8432  -11.2934   18.8431 H   0  0  0  0  0  0
  -27.3625  -12.5924   17.7846 H   0  0  0  0  0  0
  -27.6773  -14.2496   19.5329 H   0  0  0  0  0  0
  -28.6886  -12.0174   21.3669 H   0  0  0  0  0  0
  -28.4628  -13.6773   21.8401 H   0  0  0  0  0  0
  -25.2764   -9.5674   22.4757 H   0  0  0  0  0  0
  -23.9986   -7.4638   22.7512 H   0  0  0  0  0  0
  -21.0811   -8.8766   19.8981 H   0  0  0  0  0  0
  -22.3683  -10.9658   19.6165 H   0  0  0  0  0  0
  -21.1992   -7.6142   23.9698 H   0  0  0  0  0  0
  -21.1487   -6.0525   25.9070 H   0  0  0  0  0  0
  -22.0597   -2.7605   23.2843 H   0  0  0  0  0  0
  -22.4064  -11.9927   22.4840 H   0  0  0  0  0  0
  -21.1087  -13.1301   22.2602 H   0  0  0  0  0  0
  -24.6317  -15.8204   20.5069 H   0  0  0  0  0  0
  -26.2502  -15.6431   20.0699 H   0  0  0  0  0  0
  -26.7108  -32.5491   23.1119 H   0  0  0  0  0  0
  -25.0159  -33.9756   25.0502 H   0  0  0  0  0  0
  -22.7004  -31.2869   21.3821 H   0  0  0  0  0  0
  -23.3737  -35.9644   23.3282 H   0  0  0  0  0  0
  -24.3591  -36.8911   22.2042 H   0  0  0  0  0  0
  -23.7281  -37.6507   23.6650 H   0  0  0  0  0  0
  -26.0611  -31.5785   20.6020 H   0  0  0  0  0  0
  -26.8269  -30.8686   21.9891 H   0  0  0  0  0  0
  -28.1170  -29.0616   21.1647 H   0  0  0  0  0  0
  -26.0516  -25.9177   19.0494 H   0  0  0  0  0  0
  -24.0005  -27.2562   19.0486 H   0  0  0  0  0  0
  -23.7391  -30.5517   19.3801 H   0  0  0  0  0  0
  -22.7614  -29.2021   19.8725 H   0  0  0  0  0  0
  -25.1314  -36.1904   25.0806 H   0  0  0  0  0  0
  -20.9988  -28.3228   24.1398 H   0  0  0  0  0  0
  -20.5608  -26.2303   23.3597 H   0  0  0  0  0  0
  -21.6637  -26.7380   22.1232 H   0  0  0  0  0  0
  -19.6899  -25.6279   21.1214 H   0  0  0  0  0  0
  -19.6668  -27.3172   20.6706 H   0  0  0  0  0  0
  -17.4198  -26.6655   21.3979 H   0  0  0  0  0  0
  -18.0307  -26.0030   22.8989 H   0  0  0  0  0  0
  -19.7935  -30.7223   24.2291 H   0  0  0  0  0  0
  -17.5012  -31.6248   24.5141 H   0  0  0  0  0  0
  -15.5342  -30.2967   23.7628 H   0  0  0  0  0  0
  -15.8661  -28.0762   22.7115 H   0  0  0  0  0  0
  -24.6009  -30.6956   25.7860 H   0  0  0  0  0  0
  -24.8912  -32.2864   26.4835 H   0  0  0  0  0  0
  -25.8203  -30.8992   27.0261 H   0  0  0  0  0  0
  -26.2812  -29.6773   24.1157 H   0  0  0  0  0  0
  -27.4001  -29.7219   25.4597 H   0  0  0  0  0  0
  -27.8699  -30.4225   23.9269 H   0  0  0  0  0  0
  -27.2631  -33.3627   26.2029 H   0  0  0  0  0  0
  -28.3890  -32.6907   25.0312 H   0  0  0  0  0  0
  -28.0697  -31.8457   26.5412 H   0  0  0  0  0  0
  -28.2607  -38.0096   24.7500 H   0  0  0  0  0  0
  -28.1086  -36.2637   24.6303 H   0  0  0  0  0  0
  -27.2295  -37.1449   25.8857 H   0  0  0  0  0  0
  -20.9327  -29.8763   21.6894 H   0  0  0  0  0  0
  -26.0172  -38.2833   24.1394 H   0  0  0  0  0  0
  -32.6720  -19.1606   21.9016 H   0  0  0  0  0  0
  -30.9734  -20.8409   21.3161 H   0  0  0  0  0  0
  -32.2185  -16.7553   21.6791 H   0  0  0  0  0  0
  -27.7117  -20.5349   21.2113 H   0  0  0  0  0  0
  -27.7872  -20.0591   19.5440 H   0  0  0  0  0  0
  -28.0263  -24.6796   21.6733 H   0  0  0  0  0  0
  -27.0404  -23.9353   20.4717 H   0  0  0  0  0  0
  -28.7371  -22.4998   21.8625 H   0  0  0  0  0  0
  -30.0172  -23.1865   20.9328 H   0  0  0  0  0  0
  -29.6412  -25.1560   19.5615 H   0  0  0  0  0  0
  -28.1480  -25.1685   18.6938 H   0  0  0  0  0  0
  -28.8983  -15.3909   20.9019 H   0  0  0  0  0  0
  -28.0606  -22.1010   19.2432 H   0  0  0  0  0  0
  -29.6284  -21.7276   19.3160 H   0  0  0  0  0  0
  1 25  1  0  0  0
  1 30  2  0  0  0
  1 81  1  0  0  0
  2  3  1  0  0  0
  2 25  1  0  0  0
  2 84  1  0  0  0
  2 85  1  0  0  0
  3  4  1  0  0  0
  3 86  1  0  0  0
  3 87  1  0  0  0
  4  5  1  0  0  0
  4 88  1  0  0  0
  4 89  1  0  0  0
  5  6  1  0  0  0
  5 26  1  0  0  0
  5 90  1  0  0  0
  6 25  1  0  0  0
  6 91  1  0  0  0
  6 92  1  0  0  0
  7  8  2  0  0  0
  7 26  1  0  0  0
  7 29  1  0  0  0
  8  9  1  0  0  0
  8 22  1  0  0  0
  9 10  1  0  0  0
  9 27  2  0  0  0
 10 11  2  0  0  0
 10 15  1  0  0  0
 11 12  1  0  0  0
 11 93  1  0  0  0
 12 13  2  0  0  0
 12 94  1  0  0  0
 13 14  1  0  0  0
 13 31  1  0  0  0
 14 15  2  0  0  0
 14 95  1  0  0  0
 15 96  1  0  0  0
 16 17  2  0  0  0
 16 21  1  0  0  0
 16 31  1  0  0  0
 17 18  1  0  0  0
 17 97  1  0  0  0
 18 19  2  0  0  0
 18 98  1  0  0  0
 19 20  1  0  0  0
 19 24  1  0  0  0
 20 21  2  0  0  0
 20 99  1  0  0  0
 21 23  1  0  0  0
 22 28  1  0  0  0
 22 32  2  0  0  0
 26 27  1  0  0  0
 28100  1  0  0  0
 28101  1  0  0  0
 29102  1  0  0  0
 29103  1  0  0  0
 33 34  1  0  0  0
 33 66  1  0  0  0
 33 70  2  0  0  0
 34 36  1  0  0  0
 34 59  1  0  0  0
 34104  1  0  0  0
 35 44  2  0  0  0
 35 45  1  0  0  0
 35 68  1  0  0  0
 36 56  1  0  0  0
 36105  1  0  0  0
 37 39  1  0  0  0
 37 47  1  0  0  0
 37 66  1  0  0  0
 37106  1  0  0  0
 38 43  2  0  0  0
 38 46  1  0  0  0
 38 47  1  0  0  0
 39 64  1  0  0  0
 39 67  2  0  0  0
 40 52  1  0  0  0
 40 53  2  0  0  0
 40 58  1  0  0  0
 41107  1  0  0  0
 41108  1  0  0  0
 41109  1  0  0  0
 41 48  1  0  0  0
 42 43  1  0  0  0
 42 66  1  0  0  0
 42110  1  0  0  0
 42111  1  0  0  0
 43 44  1  0  0  0
 44112  1  0  0  0
 45 46  2  0  0  0
 45113  1  0  0  0
 46114  1  0  0  0
 47115  1  0  0  0
 47116  1  0  0  0
 48 56  1  0  0  0
 48 65  1  0  0  0
 48117  1  0  0  0
 49 50  1  0  0  0
 49 53  1  0  0  0
 49 64  1  0  0  0
 49118  1  0  0  0
 50 51  1  0  0  0
 50119  1  0  0  0
 50120  1  0  0  0
 51 52  1  0  0  0
 51121  1  0  0  0
 51122  1  0  0  0
 52123  1  0  0  0
 52124  1  0  0  0
 53 54  1  0  0  0
 54 55  2  0  0  0
 54125  1  0  0  0
 55 57  1  0  0  0
 55126  1  0  0  0
 56 69  2  0  0  0
 57 58  2  0  0  0
 57127  1  0  0  0
 58128  1  0  0  0
 59 60  1  0  0  0
 59 61  1  0  0  0
 59 62  1  0  0  0
 60129  1  0  0  0
 60130  1  0  0  0
 60131  1  0  0  0
 61132  1  0  0  0
 61133  1  0  0  0
 61134  1  0  0  0
 62135  1  0  0  0
 62136  1  0  0  0
 62137  1  0  0  0
 63 65  1  0  0  0
 63138  1  0  0  0
 63139  1  0  0  0
 63140  1  0  0  0
 64141  1  0  0  0
 65142  1  0  0  0
 68 80  1  0  0  0
 71 72  2  0  0  0
 71 73  1  0  0  0
 71143  1  0  0  0
 72 74  1  0  0  0
 72144  1  0  0  0
 73 75  2  0  0  0
 73145  1  0  0  0
 74 76  2  0  0  0
 74 77  1  0  0  0
 75 76  1  0  0  0
 75 81  1  0  0  0
 76 83  1  0  0  0
 77 82  1  0  0  0
 77146  1  0  0  0
 77147  1  0  0  0
 78 79  1  0  0  0
 78 80  1  0  0  0
 78148  1  0  0  0
 78149  1  0  0  0
 79 82  1  0  0  0
 79150  1  0  0  0
 79151  1  0  0  0
 80152  1  0  0  0
 80153  1  0  0  0
 81154  1  0  0  0
 82155  1  0  0  0
 82156  1  0  0  0
M  CHG  1  82   1
M  ISO  4   1 100  68 101  80 101  81 100
M  END
> <chiral flag>
0

> <version>
0

> <s_m_source_file>
/data/baiqing/PycharmProjects/Reinvent-master-3.2/result/LINK_invent/BTK/process_docking_weight1_custom_product_contain_oxygen_bond_distance_aromatic_linkinvent_7_9_3/rearranged_h_0041.sdf

> <i_m_source_file_index>
96

> <r_mmod_Potential_Energy-OPLS-2005>
-220.676605224609

> <r_mmod_Stretch_Energy-OPLS-2005>
51.9091529846191

> <r_mmod_Bend_Energy-OPLS-2005>
130.022384643555

> <r_mmod_Torsional_Energy-OPLS-2005>
233.915176391602

> <r_mmod_Improper_Torsional_Energy-OPLS-2005>
5.6842360496521

> <r_mmod_Van_der_Waal_Energy-OPLS-2005>
144.702072143555

> <r_mmod_Electrostatic_Energy-OPLS-2005>
-326.687103271484

> <r_mmod_Solvation_Energy-OPLS-2005>
-484.600830078125

> <b_mmod_Minimization_Converged-OPLS-2005>
0

> <r_mmod_RMS_Derivative-OPLS-2005>
3.08761072158813

$$$$
96
                    3D
 Structure written by MMmdl.
162170  0  0  1  0            999 V2000
  -30.6944  -14.4757   20.4984 C   0  0  0  0  0  0
  -30.4247  -12.2866   19.4199 C   0  0  0  0  0  0
  -29.4959  -12.4733   18.2016 C   0  0  0  0  0  0
  -28.0155  -12.3503   18.6162 C   0  0  0  0  0  0
  -27.6623  -13.2037   19.8674 C   0  0  2  0  0  0
  -28.7114  -13.0109   20.9878 C   0  0  0  0  0  0
  -25.2668  -13.8184   20.5721 C   0  0  0  0  0  0
  -24.1890  -13.0455   20.9160 C   0  0  0  0  0  0
  -24.6421  -11.6922   20.8725 C   0  0  0  0  0  0
  -23.9078  -10.4309   21.0386 C   0  0  0  0  0  0
  -24.3625   -9.4237   21.9163 C   0  0  0  0  0  0
  -23.6300   -8.2272   22.0744 C   0  0  0  0  0  0
  -22.4288   -8.0292   21.3537 C   0  0  0  0  0  0
  -21.9921   -9.0275   20.4652 C   0  0  0  0  0  0
  -22.7250  -10.2152   20.3048 C   0  0  0  0  0  0
  -21.6873   -6.0748   22.5272 C   0  0  0  0  0  0
  -21.4035   -6.5656   23.8203 C   0  0  0  0  0  0
  -21.3647   -5.6799   24.9155 C   0  0  0  0  0  0
  -21.6036   -4.3064   24.7208 C   0  0  0  0  0  0
  -21.8831   -3.8161   23.4333 C   0  0  0  0  0  0
  -21.9210   -4.6979   22.3391 C   0  0  0  0  0  0
  -22.7915  -13.5259   21.1778 C   0  0  0  0  0  0
  -22.1690   -4.2164   21.0970 F   0  0  0  0  0  0
  -21.5596   -3.4546   25.7721 F   0  0  0  0  0  0
  -30.0317  -13.2939   20.4145 N   0  0  0  0  0  0
  -26.3065  -12.9322   20.3378 N   0  0  0  0  0  0
  -25.9348  -11.6487   20.5780 N   0  0  0  0  0  0
  -22.0557  -12.8271   22.0361 N   0  0  0  0  0  0
  -25.4424  -15.1873   20.4160 N   0  0  0  0  0  0
  -31.8741  -14.6148   20.1763 O   0  0  0  0  0  0
  -21.6660   -6.8891   21.4234 O   0  0  0  0  0  0
  -22.3601  -14.5542   20.6608 O   0  0  0  0  0  0
  -24.6079  -31.8735   23.2186 C   0  0  0  0  0  0
  -25.8997  -32.4831   23.8459 C   0  0  1  0  0  0
  -27.2271  -27.4402   20.0802 C   0  0  0  0  0  0
  -25.5912  -33.8633   24.2385 N   0  0  0  0  0  0
  -23.3943  -30.4934   21.5635 C   0  0  2  0  0  0
  -24.8368  -28.9628   20.1251 C   0  0  0  0  0  0
  -22.7381  -29.4619   22.5086 C   0  0  0  0  0  0
  -18.0268  -28.1397   22.8521 C   0  0  0  0  0  0
  -24.1470  -36.7312   23.2652 C   0  0  0  0  0  0
  -25.9201  -30.8346   21.3713 C   0  0  0  0  0  0
  -25.9980  -29.4657   20.7249 C   0  0  0  0  0  0
  -27.1952  -28.7111   20.7056 C   0  0  0  0  0  0
  -26.0503  -26.9609   19.4689 C   0  0  0  0  0  0
  -24.8593  -27.7081   19.4930 C   0  0  0  0  0  0
  -23.5981  -29.8315   20.1742 C   0  0  0  0  0  0
  -25.4095  -36.3138   24.0376 C   0  0  1  0  0  0
  -20.5845  -28.3589   23.1323 C   0  0  2  0  0  0
  -20.6729  -26.9307   22.5507 C   0  0  0  0  0  0
  -19.5704  -26.6210   21.5370 C   0  0  0  0  0  0
  -18.1880  -26.7910   22.1759 C   0  0  0  0  0  0
  -19.1539  -28.8826   23.2882 C   0  0  0  0  0  0
  -18.9543  -30.1470   23.8814 C   0  0  0  0  0  0
  -17.6558  -30.6640   24.0500 C   0  0  0  0  0  0
  -25.9023  -34.9486   23.5159 C   0  0  0  0  0  0
  -16.5408  -29.9158   23.6358 C   0  0  0  0  0  0
  -16.7276  -28.6557   23.0413 C   0  0  0  0  0  0
  -26.4456  -31.6590   25.0743 C   0  0  0  0  0  0
  -25.3725  -31.3691   26.1494 C   0  0  0  0  0  0
  -27.0286  -30.3045   24.6065 C   0  0  0  0  0  0
  -27.6041  -32.4294   25.7487 C   0  0  0  0  0  0
  -27.5584  -37.1821   24.8485 C   0  0  0  0  0  0
  -21.4131  -29.2931   22.3727 N   0  0  0  0  0  0
  -26.4293  -37.3818   23.9421 N   0  0  0  0  0  0
  -24.6590  -31.0818   22.1089 N   0  0  0  0  0  0
  -23.4123  -28.8227   23.3200 O   0  0  0  0  0  0
  -28.4097  -26.7356   19.9992 O   0  0  0  0  0  0
  -26.5576  -34.8927   22.4710 O   0  0  0  0  0  0
  -23.5279  -32.1536   23.7568 O   0  0  0  0  0  0
  -29.2130  -18.2335   19.6176 C   0  0  0  0  0  0
  -29.0833  -17.8654   20.9775 C   0  0  0  0  0  0
  -28.5366  -18.8198   21.8818 C   0  0  0  0  0  0
  -28.1068  -20.0996   21.4126 C   0  0  0  0  0  0
  -28.2466  -20.4474   20.0372 C   0  0  0  0  0  0
  -28.8097  -19.4963   19.1522 C   0  0  0  0  0  0
  -28.4128  -18.4829   23.3686 C   0  0  0  0  0  0
  -27.4563  -21.1016   22.3718 C   0  0  0  0  0  0
  -29.5246  -16.4619   21.4514 C   0  0  0  0  0  0
  -27.7314  -21.7978   19.4987 C   0  0  0  0  0  0
  -28.0530  -24.2854   19.4594 C   0  0  0  0  0  0
  -28.4226  -25.3855   20.4885 C   0  0  0  0  0  0
  -29.9008  -15.5492   20.3733 N   0  0  0  0  0  0
  -28.6061  -22.9495   19.8277 N   0  3  0  0  0  0
  -29.0092  -19.8316   17.4670 Cl  0  0  0  0  0  0
  -31.4692  -12.3790   19.1141 H   0  0  0  0  0  0
  -30.3238  -11.2823   19.8360 H   0  0  0  0  0  0
  -29.7292  -11.7335   17.4339 H   0  0  0  0  0  0
  -29.6712  -13.4494   17.7469 H   0  0  0  0  0  0
  -27.8132  -11.2984   18.8167 H   0  0  0  0  0  0
  -27.3707  -12.6283   17.7821 H   0  0  0  0  0  0
  -27.6951  -14.2436   19.5434 H   0  0  0  0  0  0
  -28.6849  -11.9900   21.3731 H   0  0  0  0  0  0
  -28.5001  -13.6579   21.8399 H   0  0  0  0  0  0
  -25.2755   -9.5753   22.4749 H   0  0  0  0  0  0
  -24.0007   -7.4696   22.7494 H   0  0  0  0  0  0
  -21.0836   -8.8831   19.8978 H   0  0  0  0  0  0
  -22.3696  -10.9707   19.6179 H   0  0  0  0  0  0
  -21.2066   -7.6168   23.9714 H   0  0  0  0  0  0
  -21.1432   -6.0522   25.9051 H   0  0  0  0  0  0
  -22.0617   -2.7627   23.2829 H   0  0  0  0  0  0
  -22.4145  -11.9915   22.4756 H   0  0  0  0  0  0
  -21.1182  -13.1332   22.2519 H   0  0  0  0  0  0
  -24.6806  -15.8472   20.5298 H   0  0  0  0  0  0
  -26.3027  -15.6252   20.1089 H   0  0  0  0  0  0
  -26.7017  -32.5544   23.1190 H   0  0  0  0  0  0
  -25.0035  -33.9794   25.0504 H   0  0  0  0  0  0
  -22.6810  -31.3082   21.4325 H   0  0  0  0  0  0
  -23.3739  -35.9636   23.3323 H   0  0  0  0  0  0
  -24.3570  -36.8891   22.2067 H   0  0  0  0  0  0
  -23.7213  -37.6526   23.6612 H   0  0  0  0  0  0
  -26.0238  -31.5935   20.5948 H   0  0  0  0  0  0
  -26.8085  -30.8997   21.9858 H   0  0  0  0  0  0
  -28.0906  -29.1012   21.1680 H   0  0  0  0  0  0
  -26.0350  -26.0333   18.9224 H   0  0  0  0  0  0
  -23.9824  -27.3216   18.9914 H   0  0  0  0  0  0
  -23.6955  -30.6087   19.4153 H   0  0  0  0  0  0
  -22.7200  -29.2529   19.8841 H   0  0  0  0  0  0
  -25.1256  -36.2044   25.0880 H   0  0  0  0  0  0
  -20.9933  -28.3175   24.1457 H   0  0  0  0  0  0
  -20.5698  -26.2200   23.3725 H   0  0  0  0  0  0
  -21.6546  -26.7309   22.1206 H   0  0  0  0  0  0
  -19.6747  -27.2875   20.6818 H   0  0  0  0  0  0
  -19.6862  -25.6048   21.1553 H   0  0  0  0  0  0
  -17.4124  -26.6559   21.4212 H   0  0  0  0  0  0
  -18.0219  -26.0182   22.9263 H   0  0  0  0  0  0
  -19.8072  -30.7304   24.1988 H   0  0  0  0  0  0
  -17.5211  -31.6330   24.5111 H   0  0  0  0  0  0
  -15.5430  -30.3089   23.7747 H   0  0  0  0  0  0
  -15.8650  -28.0838   22.7264 H   0  0  0  0  0  0
  -24.5902  -30.7025   25.7850 H   0  0  0  0  0  0
  -24.8882  -32.2826   26.4940 H   0  0  0  0  0  0
  -25.8084  -30.8884   27.0259 H   0  0  0  0  0  0
  -26.2831  -29.6824   24.1096 H   0  0  0  0  0  0
  -27.4085  -29.7260   25.4505 H   0  0  0  0  0  0
  -27.8647  -30.4390   23.9196 H   0  0  0  0  0  0
  -27.2683  -33.3596   26.2077 H   0  0  0  0  0  0
  -28.3839  -32.6854   25.0297 H   0  0  0  0  0  0
  -28.0703  -31.8402   26.5391 H   0  0  0  0  0  0
  -28.2640  -38.0090   24.7519 H   0  0  0  0  0  0
  -28.1046  -36.2626   24.6308 H   0  0  0  0  0  0
  -27.2296  -37.1489   25.8891 H   0  0  0  0  0  0
  -20.9313  -29.8589   21.6856 H   0  0  0  0  0  0
  -26.0202  -38.2908   24.1388 H   0  0  0  0  0  0
  -29.6212  -17.5534   18.8856 H   0  0  0  0  0  0
  -28.5837  -17.4369   23.6115 H   0  0  0  0  0  0
  -29.1488  -19.0543   23.9363 H   0  0  0  0  0  0
  -27.4181  -18.7213   23.7455 H   0  0  0  0  0  0
  -27.7051  -20.9382   23.4205 H   0  0  0  0  0  0
  -26.3718  -21.0711   22.2618 H   0  0  0  0  0  0
  -27.7711  -22.1227   22.1678 H   0  0  0  0  0  0
  -28.7022  -16.0013   21.9966 H   0  0  0  0  0  0
  -30.3569  -16.5747   22.1510 H   0  0  0  0  0  0
  -26.7468  -21.9670   19.9299 H   0  0  0  0  0  0
  -27.5644  -21.7772   18.4219 H   0  0  0  0  0  0
  -28.4043  -24.5555   18.4633 H   0  0  0  0  0  0
  -26.9699  -24.2123   19.3880 H   0  0  0  0  0  0
  -29.4452  -25.2180   20.8267 H   0  0  0  0  0  0
  -27.7952  -25.2915   21.3759 H   0  0  0  0  0  0
  -30.2044  -16.0916   19.5811 H   0  0  0  0  0  0
  -29.5010  -22.8201   19.3802 H   0  0  0  0  0  0
  -28.7651  -22.9241   20.8215 H   0  0  0  0  0  0
  1 25  1  0  0  0
  1 30  2  0  0  0
  1 83  1  0  0  0
  2  3  1  0  0  0
  2 25  1  0  0  0
  2 86  1  0  0  0
  2 87  1  0  0  0
  3  4  1  0  0  0
  3 88  1  0  0  0
  3 89  1  0  0  0
  4  5  1  0  0  0
  4 90  1  0  0  0
  4 91  1  0  0  0
  5  6  1  0  0  0
  5 26  1  0  0  0
  5 92  1  0  0  0
  6 25  1  0  0  0
  6 93  1  0  0  0
  6 94  1  0  0  0
  7  8  2  0  0  0
  7 26  1  0  0  0
  7 29  1  0  0  0
  8  9  1  0  0  0
  8 22  1  0  0  0
  9 10  1  0  0  0
  9 27  2  0  0  0
 10 11  2  0  0  0
 10 15  1  0  0  0
 11 12  1  0  0  0
 11 95  1  0  0  0
 12 13  2  0  0  0
 12 96  1  0  0  0
 13 14  1  0  0  0
 13 31  1  0  0  0
 14 15  2  0  0  0
 14 97  1  0  0  0
 15 98  1  0  0  0
 16 17  2  0  0  0
 16 21  1  0  0  0
 16 31  1  0  0  0
 17 18  1  0  0  0
 17 99  1  0  0  0
 18 19  2  0  0  0
 18100  1  0  0  0
 19 20  1  0  0  0
 19 24  1  0  0  0
 20 21  2  0  0  0
 20101  1  0  0  0
 21 23  1  0  0  0
 22 28  1  0  0  0
 22 32  2  0  0  0
 26 27  1  0  0  0
 28102  1  0  0  0
 28103  1  0  0  0
 29104  1  0  0  0
 29105  1  0  0  0
 33 34  1  0  0  0
 33 66  1  0  0  0
 33 70  2  0  0  0
 34 36  1  0  0  0
 34 59  1  0  0  0
 34106  1  0  0  0
 35 44  2  0  0  0
 35 45  1  0  0  0
 35 68  1  0  0  0
 36 56  1  0  0  0
 36107  1  0  0  0
 37 39  1  0  0  0
 37 47  1  0  0  0
 37 66  1  0  0  0
 37108  1  0  0  0
 38 43  2  0  0  0
 38 46  1  0  0  0
 38 47  1  0  0  0
 39 64  1  0  0  0
 39 67  2  0  0  0
 40 52  1  0  0  0
 40 53  2  0  0  0
 40 58  1  0  0  0
 41109  1  0  0  0
 41110  1  0  0  0
 41111  1  0  0  0
 41 48  1  0  0  0
 42 43  1  0  0  0
 42 66  1  0  0  0
 42112  1  0  0  0
 42113  1  0  0  0
 43 44  1  0  0  0
 44114  1  0  0  0
 45 46  2  0  0  0
 45115  1  0  0  0
 46116  1  0  0  0
 47117  1  0  0  0
 47118  1  0  0  0
 48 56  1  0  0  0
 48 65  1  0  0  0
 48119  1  0  0  0
 49 50  1  0  0  0
 49 53  1  0  0  0
 49 64  1  0  0  0
 49120  1  0  0  0
 50 51  1  0  0  0
 50121  1  0  0  0
 50122  1  0  0  0
 51 52  1  0  0  0
 51123  1  0  0  0
 51124  1  0  0  0
 52125  1  0  0  0
 52126  1  0  0  0
 53 54  1  0  0  0
 54 55  2  0  0  0
 54127  1  0  0  0
 55 57  1  0  0  0
 55128  1  0  0  0
 56 69  2  0  0  0
 57 58  2  0  0  0
 57129  1  0  0  0
 58130  1  0  0  0
 59 60  1  0  0  0
 59 61  1  0  0  0
 59 62  1  0  0  0
 60131  1  0  0  0
 60132  1  0  0  0
 60133  1  0  0  0
 61134  1  0  0  0
 61135  1  0  0  0
 61136  1  0  0  0
 62137  1  0  0  0
 62138  1  0  0  0
 62139  1  0  0  0
 63 65  1  0  0  0
 63140  1  0  0  0
 63141  1  0  0  0
 63142  1  0  0  0
 64143  1  0  0  0
 65144  1  0  0  0
 68 82  1  0  0  0
 71 72  2  0  0  0
 71 76  1  0  0  0
 71145  1  0  0  0
 72 73  1  0  0  0
 72 79  1  0  0  0
 73 74  2  0  0  0
 73 77  1  0  0  0
 74 75  1  0  0  0
 74 78  1  0  0  0
 75 76  2  0  0  0
 75 80  1  0  0  0
 76 85  1  0  0  0
 77146  1  0  0  0
 77147  1  0  0  0
 77148  1  0  0  0
 78149  1  0  0  0
 78150  1  0  0  0
 78151  1  0  0  0
 79 83  1  0  0  0
 79152  1  0  0  0
 79153  1  0  0  0
 80 84  1  0  0  0
 80154  1  0  0  0
 80155  1  0  0  0
 81 82  1  0  0  0
 81 84  1  0  0  0
 81156  1  0  0  0
 81157  1  0  0  0
 82158  1  0  0  0
 82159  1  0  0  0
 83160  1  0  0  0
 84161  1  0  0  0
 84162  1  0  0  0
M  CHG  1  84   1
M  ISO  4   1 100  68 101  82 101  83 100
M  END
> <chiral flag>
0

> <version>
0

> <s_m_source_file>
/data/baiqing/PycharmProjects/Reinvent-master-3.2/result/LINK_invent/BTK/process_docking_weight1_custom_product_contain_oxygen_bond_distance_aromatic_linkinvent_7_9_3/rearranged_h_0041.sdf

> <i_m_source_file_index>
97

> <r_mmod_Potential_Energy-OPLS-2005>
-168.397247314453

> <r_mmod_Stretch_Energy-OPLS-2005>
40.2410507202148

> <r_mmod_Bend_Energy-OPLS-2005>
107.783218383789

> <r_mmod_Torsional_Energy-OPLS-2005>
278.361968994141

> <r_mmod_Improper_Torsional_Energy-OPLS-2005>
24.126766204834

> <r_mmod_Van_der_Waal_Energy-OPLS-2005>
159.786239624023

> <r_mmod_Electrostatic_Energy-OPLS-2005>
-349.881927490234

> <r_mmod_Solvation_Energy-OPLS-2005>
-445.716613769531

> <b_mmod_Minimization_Converged-OPLS-2005>
0

> <r_mmod_RMS_Derivative-OPLS-2005>
5.00219058990479

$$$$
