0
                    3D
 Structure written by MMmdl.
164172  0  0  1  0            999 V2000
  -30.6534  -14.4989   20.5790 C   0  0  0  0  0  0
  -30.4364  -12.3215   19.4275 C   0  0  0  0  0  0
  -29.5007  -12.5090   18.2132 C   0  0  0  0  0  0
  -28.0206  -12.3609   18.6226 C   0  0  0  0  0  0
  -27.6645  -13.1988   19.8792 C   0  0  2  0  0  0
  -28.7015  -12.9599   20.9995 C   0  0  0  0  0  0
  -25.2606  -13.8151   20.5677 C   0  0  0  0  0  0
  -24.1846  -13.0440   20.9165 C   0  0  0  0  0  0
  -24.6382  -11.6903   20.8733 C   0  0  0  0  0  0
  -23.9051  -10.4295   21.0408 C   0  0  0  0  0  0
  -24.3612   -9.4208   21.9183 C   0  0  0  0  0  0
  -23.6293   -8.2237   22.0750 C   0  0  0  0  0  0
  -22.4269   -8.0281   21.3545 C   0  0  0  0  0  0
  -21.9907   -9.0249   20.4644 C   0  0  0  0  0  0
  -22.7233  -10.2130   20.3053 C   0  0  0  0  0  0
  -21.6853   -6.0733   22.5286 C   0  0  0  0  0  0
  -21.4004   -6.5639   23.8218 C   0  0  0  0  0  0
  -21.3654   -5.6791   24.9180 C   0  0  0  0  0  0
  -21.6045   -4.3049   24.7230 C   0  0  0  0  0  0
  -21.8821   -3.8141   23.4350 C   0  0  0  0  0  0
  -21.9190   -4.6962   22.3409 C   0  0  0  0  0  0
  -22.7876  -13.5243   21.1847 C   0  0  0  0  0  0
  -22.1666   -4.2153   21.0987 F   0  0  0  0  0  0
  -21.5629   -3.4529   25.7737 F   0  0  0  0  0  0
  -30.0356  -13.2900   20.4614 N   0  0  0  0  0  0
  -26.3027  -12.9299   20.3367 N   0  0  0  0  0  0
  -25.9306  -11.6469   20.5763 N   0  0  0  0  0  0
  -22.0512  -12.8229   22.0401 N   0  0  0  0  0  0
  -25.4368  -15.1872   20.4111 N   0  0  0  0  0  0
  -31.7623  -14.7324   20.0872 O   0  0  0  0  0  0
  -21.6642   -6.8876   21.4242 O   0  0  0  0  0  0
  -22.3564  -14.5556   20.6711 O   0  0  0  0  0  0
  -24.6139  -31.8657   23.2071 C   0  0  0  0  0  0
  -25.9025  -32.4813   23.8365 C   0  0  1  0  0  0
  -27.2406  -27.4203   20.0877 C   0  0  0  0  0  0
  -25.5896  -33.8614   24.2306 N   0  0  0  0  0  0
  -23.4031  -30.4880   21.5467 C   0  0  2  0  0  0
  -24.8489  -28.9479   20.1112 C   0  0  0  0  0  0
  -22.7412  -29.4643   22.4966 C   0  0  0  0  0  0
  -18.0276  -28.1383   22.8488 C   0  0  0  0  0  0
  -24.1486  -36.7280   23.2639 C   0  0  0  0  0  0
  -25.9321  -30.8234   21.3635 C   0  0  0  0  0  0
  -26.0068  -29.4562   20.7105 C   0  0  0  0  0  0
  -27.1983  -28.6956   20.7020 C   0  0  0  0  0  0
  -26.0602  -26.9237   19.4889 C   0  0  0  0  0  0
  -24.8703  -27.6804   19.5012 C   0  0  0  0  0  0
  -23.6111  -29.8153   20.1620 C   0  0  0  0  0  0
  -25.4112  -36.3105   24.0347 C   0  0  1  0  0  0
  -20.5867  -28.3658   23.1318 C   0  0  2  0  0  0
  -20.6767  -26.9390   22.5430 C   0  0  0  0  0  0
  -19.5757  -26.6384   21.5213 C   0  0  0  0  0  0
  -18.1923  -26.7939   22.1604 C   0  0  0  0  0  0
  -19.1529  -28.8836   23.2899 C   0  0  0  0  0  0
  -18.9455  -30.1440   23.8909 C   0  0  0  0  0  0
  -17.6464  -30.6587   24.0562 C   0  0  0  0  0  0
  -25.9040  -34.9475   23.5125 C   0  0  0  0  0  0
  -16.5354  -29.9091   23.6336 C   0  0  0  0  0  0
  -16.7266  -28.6509   23.0358 C   0  0  0  0  0  0
  -26.4469  -31.6612   25.0698 C   0  0  0  0  0  0
  -25.3748  -31.3712   26.1455 C   0  0  0  0  0  0
  -27.0299  -30.3063   24.6065 C   0  0  0  0  0  0
  -27.6049  -32.4343   25.7443 C   0  0  0  0  0  0
  -27.5590  -37.1784   24.8464 C   0  0  0  0  0  0
  -21.4141  -29.3017   22.3706 N   0  0  0  0  0  0
  -26.4290  -37.3803   23.9432 N   0  0  0  0  0  0
  -24.6677  -31.0750   22.0969 N   0  0  0  0  0  0
  -23.4178  -28.8192   23.3015 O   0  0  0  0  0  0
  -28.4298  -26.7136   20.1226 O   0  0  0  0  0  0
  -26.5598  -34.8934   22.4684 O   0  0  0  0  0  0
  -23.5328  -32.1411   23.7466 O   0  0  0  0  0  0
  -30.5786  -17.6180   20.1341 C   0  0  0  0  0  0
  -30.3424  -19.0067   19.9739 C   0  0  0  0  0  0
  -28.7368  -17.5059   21.7051 C   0  0  0  0  0  0
  -29.7775  -16.8452   21.0107 C   0  0  0  0  0  0
  -29.3000  -19.6624   20.6725 C   0  0  0  0  0  0
  -28.4815  -18.8880   21.5343 C   0  0  0  0  0  0
  -25.1571  -22.1871   20.9373 C   0  0  0  0  0  0
  -26.1687  -21.4728   21.8431 C   0  0  0  0  0  0
  -28.4341  -24.1813   19.8904 C   0  0  0  0  0  0
  -29.1866  -23.0597   19.1133 C   0  0  0  0  0  0
  -26.3917  -20.0043   21.4479 C   0  0  0  0  0  0
  -28.6657  -25.5870   19.2600 C   0  0  0  0  0  0
  -28.7562  -21.5821   19.3287 C   0  0  0  0  0  0
  -29.9189  -15.4314   21.2268 N   0  0  0  0  0  0
  -29.1317  -21.0379   20.5999 O   0  0  0  0  0  0
  -27.4361  -19.4392   22.2378 O   0  0  0  0  0  0
  -31.4776  -12.4467   19.1252 H   0  0  0  0  0  0
  -30.3619  -11.3046   19.8172 H   0  0  0  0  0  0
  -29.7449  -11.7847   17.4355 H   0  0  0  0  0  0
  -29.6601  -13.4945   17.7741 H   0  0  0  0  0  0
  -27.8347  -11.3046   18.8203 H   0  0  0  0  0  0
  -27.3685  -12.6306   17.7911 H   0  0  0  0  0  0
  -27.7143  -14.2486   19.5889 H   0  0  0  0  0  0
  -28.6830  -11.9150   21.3140 H   0  0  0  0  0  0
  -28.4447  -13.5267   21.8946 H   0  0  0  0  0  0
  -25.2759   -9.5685   22.4751 H   0  0  0  0  0  0
  -24.0007   -7.4627   22.7463 H   0  0  0  0  0  0
  -21.0839   -8.8762   19.8950 H   0  0  0  0  0  0
  -22.3690  -10.9664   19.6157 H   0  0  0  0  0  0
  -21.1988   -7.6145   23.9724 H   0  0  0  0  0  0
  -21.1477   -6.0515   25.9086 H   0  0  0  0  0  0
  -22.0599   -2.7603   23.2845 H   0  0  0  0  0  0
  -22.4113  -11.9863   22.4754 H   0  0  0  0  0  0
  -21.1141  -13.1267   22.2632 H   0  0  0  0  0  0
  -24.6731  -15.8454   20.5212 H   0  0  0  0  0  0
  -26.2946  -15.6220   20.0956 H   0  0  0  0  0  0
  -26.7087  -32.5514   23.1115 H   0  0  0  0  0  0
  -25.0105  -33.9772   25.0492 H   0  0  0  0  0  0
  -22.6921  -31.3048   21.4053 H   0  0  0  0  0  0
  -23.3791  -35.9569   23.3294 H   0  0  0  0  0  0
  -24.3575  -36.8894   22.2053 H   0  0  0  0  0  0
  -23.7182  -37.6458   23.6656 H   0  0  0  0  0  0
  -26.0523  -31.5896   20.5963 H   0  0  0  0  0  0
  -26.8175  -30.8723   21.9854 H   0  0  0  0  0  0
  -28.0926  -29.0864   21.1686 H   0  0  0  0  0  0
  -26.0375  -25.9496   19.0239 H   0  0  0  0  0  0
  -23.9774  -27.2799   19.0403 H   0  0  0  0  0  0
  -23.7150  -30.5870   19.3982 H   0  0  0  0  0  0
  -22.7361  -29.2310   19.8714 H   0  0  0  0  0  0
  -25.1292  -36.1962   25.0842 H   0  0  0  0  0  0
  -20.9965  -28.3236   24.1435 H   0  0  0  0  0  0
  -20.5657  -26.2268   23.3621 H   0  0  0  0  0  0
  -21.6640  -26.7430   22.1225 H   0  0  0  0  0  0
  -19.6916  -25.6298   21.1232 H   0  0  0  0  0  0
  -19.6726  -27.3205   20.6759 H   0  0  0  0  0  0
  -17.4216  -26.6713   21.3982 H   0  0  0  0  0  0
  -18.0294  -26.0069   22.8986 H   0  0  0  0  0  0
  -19.7937  -30.7247   24.2279 H   0  0  0  0  0  0
  -17.5029  -31.6267   24.5165 H   0  0  0  0  0  0
  -15.5351  -30.2995   23.7669 H   0  0  0  0  0  0
  -15.8668  -28.0830   22.7073 H   0  0  0  0  0  0
  -24.5936  -30.7039   25.7802 H   0  0  0  0  0  0
  -24.8925  -32.2862   26.4906 H   0  0  0  0  0  0
  -25.8117  -30.8892   27.0211 H   0  0  0  0  0  0
  -26.2825  -29.6803   24.1177 H   0  0  0  0  0  0
  -27.4150  -29.7311   25.4488 H   0  0  0  0  0  0
  -27.8631  -30.4390   23.9161 H   0  0  0  0  0  0
  -27.2678  -33.3652   26.2013 H   0  0  0  0  0  0
  -28.3854  -32.6881   25.0260 H   0  0  0  0  0  0
  -28.0731  -31.8478   26.5355 H   0  0  0  0  0  0
  -28.2598  -38.0097   24.7574 H   0  0  0  0  0  0
  -28.1100  -36.2634   24.6228 H   0  0  0  0  0  0
  -27.2312  -37.1351   25.8865 H   0  0  0  0  0  0
  -20.9298  -29.8719   21.6916 H   0  0  0  0  0  0
  -26.0180  -38.2871   24.1496 H   0  0  0  0  0  0
  -31.3895  -17.1671   19.5806 H   0  0  0  0  0  0
  -30.9903  -19.5753   19.3222 H   0  0  0  0  0  0
  -28.1009  -16.9455   22.3759 H   0  0  0  0  0  0
  -25.0625  -23.2381   21.2133 H   0  0  0  0  0  0
  -24.1684  -21.7332   21.0109 H   0  0  0  0  0  0
  -25.4635  -22.1488   19.8913 H   0  0  0  0  0  0
  -25.8316  -21.5224   22.8788 H   0  0  0  0  0  0
  -27.1152  -22.0115   21.8109 H   0  0  0  0  0  0
  -28.7761  -24.1814   20.9258 H   0  0  0  0  0  0
  -27.3644  -23.9753   19.9215 H   0  0  0  0  0  0
  -30.2592  -23.1486   19.2919 H   0  0  0  0  0  0
  -29.0569  -23.2630   18.0494 H   0  0  0  0  0  0
  -26.5878  -19.9144   20.3784 H   0  0  0  0  0  0
  -25.4794  -19.4335   21.6243 H   0  0  0  0  0  0
  -28.1404  -25.6832   18.3090 H   0  0  0  0  0  0
  -29.7215  -25.6604   18.9981 H   0  0  0  0  0  0
  -29.1867  -20.9833   18.5251 H   0  0  0  0  0  0
  -27.6766  -21.5031   19.2056 H   0  0  0  0  0  0
  -29.1606  -15.0175   21.7469 H   0  0  0  0  0  0
  1 25  1  0  0  0
  1 30  2  0  0  0
  1 84  1  0  0  0
  2  3  1  0  0  0
  2 25  1  0  0  0
  2 87  1  0  0  0
  2 88  1  0  0  0
  3  4  1  0  0  0
  3 89  1  0  0  0
  3 90  1  0  0  0
  4  5  1  0  0  0
  4 91  1  0  0  0
  4 92  1  0  0  0
  5  6  1  0  0  0
  5 26  1  0  0  0
  5 93  1  0  0  0
  6 25  1  0  0  0
  6 94  1  0  0  0
  6 95  1  0  0  0
  7  8  2  0  0  0
  7 26  1  0  0  0
  7 29  1  0  0  0
  8  9  1  0  0  0
  8 22  1  0  0  0
  9 10  1  0  0  0
  9 27  2  0  0  0
 10 11  2  0  0  0
 10 15  1  0  0  0
 11 12  1  0  0  0
 11 96  1  0  0  0
 12 13  2  0  0  0
 12 97  1  0  0  0
 13 14  1  0  0  0
 13 31  1  0  0  0
 14 15  2  0  0  0
 14 98  1  0  0  0
 15 99  1  0  0  0
 16 17  2  0  0  0
 16 21  1  0  0  0
 16 31  1  0  0  0
 17 18  1  0  0  0
 17100  1  0  0  0
 18 19  2  0  0  0
 18101  1  0  0  0
 19 20  1  0  0  0
 19 24  1  0  0  0
 20 21  2  0  0  0
 20102  1  0  0  0
 21 23  1  0  0  0
 22 28  1  0  0  0
 22 32  2  0  0  0
 26 27  1  0  0  0
 28103  1  0  0  0
 28104  1  0  0  0
 29105  1  0  0  0
 29106  1  0  0  0
 33 34  1  0  0  0
 33 66  1  0  0  0
 33 70  2  0  0  0
 34 36  1  0  0  0
 34 59  1  0  0  0
 34107  1  0  0  0
 35 44  2  0  0  0
 35 45  1  0  0  0
 35 68  1  0  0  0
 36 56  1  0  0  0
 36108  1  0  0  0
 37 39  1  0  0  0
 37 47  1  0  0  0
 37 66  1  0  0  0
 37109  1  0  0  0
 38 43  2  0  0  0
 38 46  1  0  0  0
 38 47  1  0  0  0
 39 64  1  0  0  0
 39 67  2  0  0  0
 40 52  1  0  0  0
 40 53  2  0  0  0
 40 58  1  0  0  0
 41110  1  0  0  0
 41111  1  0  0  0
 41112  1  0  0  0
 41 48  1  0  0  0
 42 43  1  0  0  0
 42 66  1  0  0  0
 42113  1  0  0  0
 42114  1  0  0  0
 43 44  1  0  0  0
 44115  1  0  0  0
 45 46  2  0  0  0
 45116  1  0  0  0
 46117  1  0  0  0
 47118  1  0  0  0
 47119  1  0  0  0
 48 56  1  0  0  0
 48 65  1  0  0  0
 48120  1  0  0  0
 49 50  1  0  0  0
 49 53  1  0  0  0
 49 64  1  0  0  0
 49121  1  0  0  0
 50 51  1  0  0  0
 50122  1  0  0  0
 50123  1  0  0  0
 51 52  1  0  0  0
 51124  1  0  0  0
 51125  1  0  0  0
 52126  1  0  0  0
 52127  1  0  0  0
 53 54  1  0  0  0
 54 55  2  0  0  0
 54128  1  0  0  0
 55 57  1  0  0  0
 55129  1  0  0  0
 56 69  2  0  0  0
 57 58  2  0  0  0
 57130  1  0  0  0
 58131  1  0  0  0
 59 60  1  0  0  0
 59 61  1  0  0  0
 59 62  1  0  0  0
 60132  1  0  0  0
 60133  1  0  0  0
 60134  1  0  0  0
 61135  1  0  0  0
 61136  1  0  0  0
 61137  1  0  0  0
 62138  1  0  0  0
 62139  1  0  0  0
 62140  1  0  0  0
 63 65  1  0  0  0
 63141  1  0  0  0
 63142  1  0  0  0
 63143  1  0  0  0
 64144  1  0  0  0
 65145  1  0  0  0
 68 82  1  0  0  0
 71 72  2  0  0  0
 71 74  1  0  0  0
 71146  1  0  0  0
 72 75  1  0  0  0
 72147  1  0  0  0
 73 74  2  0  0  0
 73 76  1  0  0  0
 73148  1  0  0  0
 74 84  1  0  0  0
 75 76  2  0  0  0
 75 85  1  0  0  0
 76 86  1  0  0  0
 77 78  1  0  0  0
 77149  1  0  0  0
 77150  1  0  0  0
 77151  1  0  0  0
 78 81  1  0  0  0
 78152  1  0  0  0
 78153  1  0  0  0
 79 80  1  0  0  0
 79 82  1  0  0  0
 79154  1  0  0  0
 79155  1  0  0  0
 80 83  1  0  0  0
 80156  1  0  0  0
 80157  1  0  0  0
 81 86  1  0  0  0
 81158  1  0  0  0
 81159  1  0  0  0
 82160  1  0  0  0
 82161  1  0  0  0
 83 85  1  0  0  0
 83162  1  0  0  0
 83163  1  0  0  0
 84164  1  0  0  0
M  ISO  4   1 100  68 101  82 101  84 100
M  END
> <chiral flag>
0

> <version>
0

> <s_m_source_file>
/data/baiqing/PycharmProjects/Reinvent-master-3.2/result/LINK_invent/BTK/process_docking_weight1_custom_product_contain_oxygen_bond_distance_aromatic_linkinvent_7_9_3/rearranged_h_0104.sdf

> <i_m_source_file_index>
1

> <r_mmod_Potential_Energy-OPLS-2005>
5.50018310546875

> <r_mmod_Stretch_Energy-OPLS-2005>
42.5437889099121

> <r_mmod_Bend_Energy-OPLS-2005>
123.480773925781

> <r_mmod_Torsional_Energy-OPLS-2005>
266.065612792969

> <r_mmod_Improper_Torsional_Energy-OPLS-2005>
3.62584519386292

> <r_mmod_Van_der_Waal_Energy-OPLS-2005>
141.156097412109

> <r_mmod_Electrostatic_Energy-OPLS-2005>
-374.748809814453

> <r_mmod_Solvation_Energy-OPLS-2005>
-212.046783447266

> <b_mmod_Minimization_Converged-OPLS-2005>
0

> <r_mmod_RMS_Derivative-OPLS-2005>
1.64451205730438

$$$$
1
                    3D
 Structure written by MMmdl.
161170  0  0  1  0            999 V2000
  -30.5754  -14.9343   20.4938 C   0  0  0  0  0  0
  -30.4443  -12.5892   19.5063 C   0  0  0  0  0  0
  -29.5245  -12.5508   18.2617 C   0  0  0  0  0  0
  -28.0564  -12.3205   18.6664 C   0  0  0  0  0  0
  -27.6324  -13.2294   19.8450 C   0  0  2  0  0  0
  -28.6741  -13.2219   20.9817 C   0  0  0  0  0  0
  -25.2422  -13.8039   20.5699 C   0  0  0  0  0  0
  -24.1731  -13.0314   20.9217 C   0  0  0  0  0  0
  -24.6351  -11.6814   20.8751 C   0  0  0  0  0  0
  -23.9038  -10.4214   21.0433 C   0  0  0  0  0  0
  -24.3590   -9.4135   21.9211 C   0  0  0  0  0  0
  -23.6256   -8.2173   22.0769 C   0  0  0  0  0  0
  -22.4236   -8.0227   21.3559 C   0  0  0  0  0  0
  -21.9878   -9.0199   20.4658 C   0  0  0  0  0  0
  -22.7220  -10.2066   20.3070 C   0  0  0  0  0  0
  -21.6819   -6.0691   22.5275 C   0  0  0  0  0  0
  -21.3996   -6.5596   23.8205 C   0  0  0  0  0  0
  -21.3681   -5.6756   24.9167 C   0  0  0  0  0  0
  -21.6055   -4.3021   24.7211 C   0  0  0  0  0  0
  -21.8814   -3.8113   23.4335 C   0  0  0  0  0  0
  -21.9182   -4.6935   22.3394 C   0  0  0  0  0  0
  -22.7779  -13.5149   21.1868 C   0  0  0  0  0  0
  -22.1654   -4.2119   21.0975 F   0  0  0  0  0  0
  -21.5650   -3.4512   25.7736 F   0  0  0  0  0  0
  -29.9626  -13.6723   20.4185 N   0  0  0  0  0  0
  -26.2873  -12.9297   20.3254 N   0  0  0  0  0  0
  -25.9280  -11.6435   20.5713 N   0  0  0  0  0  0
  -22.0405  -12.8194   22.0438 N   0  0  0  0  0  0
  -25.3978  -15.1727   20.4132 N   0  0  0  0  0  0
  -31.7240  -15.0207   20.0424 O   0  0  0  0  0  0
  -21.6591   -6.8838   21.4240 O   0  0  0  0  0  0
  -22.3484  -14.5470   20.6711 O   0  0  0  0  0  0
  -24.6411  -31.8442   23.1897 C   0  0  0  0  0  0
  -25.9189  -32.4702   23.8276 C   0  0  1  0  0  0
  -27.2381  -27.1677   20.1484 C   0  0  0  0  0  0
  -25.5944  -33.8509   24.2207 N   0  0  0  0  0  0
  -23.4455  -30.4616   21.5338 C   0  0  2  0  0  0
  -24.8986  -28.8883   20.1162 C   0  0  0  0  0  0
  -22.7550  -29.4546   22.4873 C   0  0  0  0  0  0
  -18.0297  -28.1391   22.8478 C   0  0  0  0  0  0
  -24.1494  -36.7253   23.2642 C   0  0  0  0  0  0
  -25.9985  -30.7281   21.3840 C   0  0  0  0  0  0
  -26.0735  -29.3409   20.7288 C   0  0  0  0  0  0
  -27.2438  -28.4973   20.7258 C   0  0  0  0  0  0
  -26.0318  -26.8031   19.5083 C   0  0  0  0  0  0
  -24.8881  -27.6315   19.4931 C   0  0  0  0  0  0
  -23.6732  -29.7874   20.1548 C   0  0  0  0  0  0
  -25.4120  -36.3037   24.0321 C   0  0  1  0  0  0
  -20.5905  -28.3721   23.1246 C   0  0  2  0  0  0
  -20.6787  -26.9428   22.5416 C   0  0  0  0  0  0
  -19.5766  -26.6379   21.5216 C   0  0  0  0  0  0
  -18.1937  -26.7927   22.1618 C   0  0  0  0  0  0
  -19.1552  -28.8872   23.2850 C   0  0  0  0  0  0
  -18.9469  -30.1463   23.8876 C   0  0  0  0  0  0
  -17.6471  -30.6591   24.0557 C   0  0  0  0  0  0
  -25.9062  -34.9413   23.5071 C   0  0  0  0  0  0
  -16.5361  -29.9087   23.6338 C   0  0  0  0  0  0
  -16.7282  -28.6506   23.0358 C   0  0  0  0  0  0
  -26.4521  -31.6561   25.0709 C   0  0  0  0  0  0
  -25.3716  -31.3753   26.1417 C   0  0  0  0  0  0
  -27.0371  -30.2957   24.6269 C   0  0  0  0  0  0
  -27.6052  -32.4322   25.7494 C   0  0  0  0  0  0
  -27.5577  -37.1776   24.8450 C   0  0  0  0  0  0
  -21.4243  -29.3041   22.3615 N   0  0  0  0  0  0
  -26.4274  -37.3756   23.9415 N   0  0  0  0  0  0
  -24.7144  -31.0319   22.0913 N   0  0  0  0  0  0
  -23.4201  -28.8090   23.3013 O   0  0  0  0  0  0
  -28.3212  -26.2242   20.2002 O   0  0  0  0  0  0
  -26.5646  -34.8902   22.4649 O   0  0  0  0  0  0
  -23.5534  -32.1308   23.7126 O   0  0  0  0  0  0
  -30.5230  -20.0106   21.0400 C   0  0  0  0  0  0
  -30.7653  -18.5753   21.0700 C   0  0  0  0  0  0
  -28.4515  -19.6378   19.9845 C   0  0  0  0  0  0
  -28.6977  -18.2056   19.9971 C   0  0  0  0  0  0
  -29.3205  -20.6284   20.5437 C   0  0  0  0  0  0
  -29.8516  -17.5719   20.5892 C   0  0  0  0  0  0
  -28.6089  -22.1843   22.2163 C   0  0  0  0  0  0
  -29.2109  -23.4544   22.8008 C   0  0  0  0  0  0
  -30.0293  -23.9945   21.6327 C   0  0  0  0  0  0
  -29.2420  -23.4984   20.4186 C   0  0  2  0  0  0
  -27.5920  -17.3533   19.4303 C   0  0  0  0  0  0
  -29.5266  -15.9681   22.4241 C   0  0  0  0  0  0
  -28.0841  -24.6934   20.1701 C   0  0  0  0  0  0
  -28.8546  -22.0475   20.8967 N   0  0  0  0  0  0
  -29.9041  -16.0896   21.0075 N   0  0  0  0  0  0
  -27.9990  -21.3761   22.9242 O   0  0  0  0  0  0
  -31.4786  -12.7434   19.1967 H   0  0  0  0  0  0
  -30.4375  -11.6265   20.0194 H   0  0  0  0  0  0
  -29.8485  -11.7707   17.5724 H   0  0  0  0  0  0
  -29.6078  -13.4929   17.7189 H   0  0  0  0  0  0
  -27.9487  -11.2739   18.9531 H   0  0  0  0  0  0
  -27.3985  -12.4708   17.8095 H   0  0  0  0  0  0
  -27.6018  -14.2348   19.4368 H   0  0  0  0  0  0
  -28.7707  -12.2241   21.4134 H   0  0  0  0  0  0
  -28.3205  -13.8525   21.7900 H   0  0  0  0  0  0
  -25.2725   -9.5587   22.4793 H   0  0  0  0  0  0
  -23.9953   -7.4543   22.7460 H   0  0  0  0  0  0
  -21.0821   -8.8701   19.8960 H   0  0  0  0  0  0
  -22.3687  -10.9592   19.6167 H   0  0  0  0  0  0
  -21.1974   -7.6096   23.9694 H   0  0  0  0  0  0
  -21.1535   -6.0488   25.9070 H   0  0  0  0  0  0
  -22.0590   -2.7577   23.2820 H   0  0  0  0  0  0
  -22.3994  -11.9846   22.4823 H   0  0  0  0  0  0
  -21.1057  -13.1290   22.2663 H   0  0  0  0  0  0
  -24.6179  -15.8151   20.5094 H   0  0  0  0  0  0
  -26.2489  -15.6166   20.1006 H   0  0  0  0  0  0
  -26.7255  -32.5327   23.1005 H   0  0  0  0  0  0
  -25.0088  -33.9626   25.0354 H   0  0  0  0  0  0
  -22.7483  -31.2866   21.3767 H   0  0  0  0  0  0
  -23.3773  -35.9563   23.3270 H   0  0  0  0  0  0
  -24.3598  -36.8921   22.2064 H   0  0  0  0  0  0
  -23.7229  -37.6432   23.6700 H   0  0  0  0  0  0
  -26.1473  -31.4833   20.6110 H   0  0  0  0  0  0
  -26.8705  -30.7819   22.0243 H   0  0  0  0  0  0
  -28.1410  -28.8398   21.2214 H   0  0  0  0  0  0
  -25.9444  -25.8416   19.0252 H   0  0  0  0  0  0
  -23.9903  -27.2796   19.0047 H   0  0  0  0  0  0
  -23.8107  -30.5582   19.3952 H   0  0  0  0  0  0
  -22.7910  -29.2244   19.8468 H   0  0  0  0  0  0
  -25.1305  -36.1865   25.0810 H   0  0  0  0  0  0
  -20.9986  -28.3310   24.1370 H   0  0  0  0  0  0
  -20.5690  -26.2322   23.3625 H   0  0  0  0  0  0
  -21.6656  -26.7439   22.1217 H   0  0  0  0  0  0
  -19.6936  -25.6285   21.1256 H   0  0  0  0  0  0
  -19.6709  -27.3173   20.6731 H   0  0  0  0  0  0
  -17.4218  -26.6676   21.4008 H   0  0  0  0  0  0
  -18.0325  -26.0064   22.9010 H   0  0  0  0  0  0
  -19.7951  -30.7269   24.2239 H   0  0  0  0  0  0
  -17.5038  -31.6270   24.5163 H   0  0  0  0  0  0
  -15.5364  -30.2989   23.7669 H   0  0  0  0  0  0
  -15.8678  -28.0813   22.7095 H   0  0  0  0  0  0
  -24.5883  -30.7111   25.7753 H   0  0  0  0  0  0
  -24.8918  -32.2936   26.4810 H   0  0  0  0  0  0
  -25.8009  -30.8952   27.0218 H   0  0  0  0  0  0
  -26.2971  -29.6694   24.1273 H   0  0  0  0  0  0
  -27.3984  -29.7247   25.4831 H   0  0  0  0  0  0
  -27.8885  -30.4196   23.9573 H   0  0  0  0  0  0
  -27.2641  -33.3629   26.2041 H   0  0  0  0  0  0
  -28.3880  -32.6873   25.0338 H   0  0  0  0  0  0
  -28.0701  -31.8469   26.5438 H   0  0  0  0  0  0
  -28.2560  -38.0110   24.7550 H   0  0  0  0  0  0
  -28.1104  -36.2639   24.6199 H   0  0  0  0  0  0
  -27.2302  -37.1344   25.8854 H   0  0  0  0  0  0
  -20.9448  -29.8746   21.6792 H   0  0  0  0  0  0
  -26.0137  -38.2812   24.1463 H   0  0  0  0  0  0
  -31.2549  -20.6463   21.5188 H   0  0  0  0  0  0
  -31.6627  -18.2385   21.5704 H   0  0  0  0  0  0
  -27.4951  -19.9788   19.6108 H   0  0  0  0  0  0
  -29.8312  -23.2394   23.6722 H   0  0  0  0  0  0
  -28.4140  -24.1386   23.0918 H   0  0  0  0  0  0
  -31.0300  -23.5596   21.6372 H   0  0  0  0  0  0
  -30.1464  -25.0783   21.6670 H   0  0  0  0  0  0
  -29.8985  -23.4401   19.5497 H   0  0  0  0  0  0
  -27.2066  -17.7799   18.5035 H   0  0  0  0  0  0
  -26.7814  -17.3152   20.1548 H   0  0  0  0  0  0
  -27.9438  -16.3508   19.2079 H   0  0  0  0  0  0
  -29.9310  -16.7924   23.0131 H   0  0  0  0  0  0
  -29.8803  -15.0525   22.9047 H   0  0  0  0  0  0
  -28.4414  -16.0094   22.5262 H   0  0  0  0  0  0
  -27.2934  -24.5257   20.9028 H   0  0  0  0  0  0
  -27.6242  -24.4591   19.2111 H   0  0  0  0  0  0
  1 25  1  0  0  0
  1 30  2  0  0  0
  1 85  1  0  0  0
  2  3  1  0  0  0
  2 25  1  0  0  0
  2 87  1  0  0  0
  2 88  1  0  0  0
  3  4  1  0  0  0
  3 89  1  0  0  0
  3 90  1  0  0  0
  4  5  1  0  0  0
  4 91  1  0  0  0
  4 92  1  0  0  0
  5  6  1  0  0  0
  5 26  1  0  0  0
  5 93  1  0  0  0
  6 25  1  0  0  0
  6 94  1  0  0  0
  6 95  1  0  0  0
  7  8  2  0  0  0
  7 26  1  0  0  0
  7 29  1  0  0  0
  8  9  1  0  0  0
  8 22  1  0  0  0
  9 10  1  0  0  0
  9 27  2  0  0  0
 10 11  2  0  0  0
 10 15  1  0  0  0
 11 12  1  0  0  0
 11 96  1  0  0  0
 12 13  2  0  0  0
 12 97  1  0  0  0
 13 14  1  0  0  0
 13 31  1  0  0  0
 14 15  2  0  0  0
 14 98  1  0  0  0
 15 99  1  0  0  0
 16 17  2  0  0  0
 16 21  1  0  0  0
 16 31  1  0  0  0
 17 18  1  0  0  0
 17100  1  0  0  0
 18 19  2  0  0  0
 18101  1  0  0  0
 19 20  1  0  0  0
 19 24  1  0  0  0
 20 21  2  0  0  0
 20102  1  0  0  0
 21 23  1  0  0  0
 22 28  1  0  0  0
 22 32  2  0  0  0
 26 27  1  0  0  0
 28103  1  0  0  0
 28104  1  0  0  0
 29105  1  0  0  0
 29106  1  0  0  0
 33 34  1  0  0  0
 33 66  1  0  0  0
 33 70  2  0  0  0
 34 36  1  0  0  0
 34 59  1  0  0  0
 34107  1  0  0  0
 35 44  2  0  0  0
 35 45  1  0  0  0
 35 68  1  0  0  0
 36 56  1  0  0  0
 36108  1  0  0  0
 37 39  1  0  0  0
 37 47  1  0  0  0
 37 66  1  0  0  0
 37109  1  0  0  0
 38 43  2  0  0  0
 38 46  1  0  0  0
 38 47  1  0  0  0
 39 64  1  0  0  0
 39 67  2  0  0  0
 40 52  1  0  0  0
 40 53  2  0  0  0
 40 58  1  0  0  0
 41110  1  0  0  0
 41111  1  0  0  0
 41112  1  0  0  0
 41 48  1  0  0  0
 42 43  1  0  0  0
 42 66  1  0  0  0
 42113  1  0  0  0
 42114  1  0  0  0
 43 44  1  0  0  0
 44115  1  0  0  0
 45 46  2  0  0  0
 45116  1  0  0  0
 46117  1  0  0  0
 47118  1  0  0  0
 47119  1  0  0  0
 48 56  1  0  0  0
 48 65  1  0  0  0
 48120  1  0  0  0
 49 50  1  0  0  0
 49 53  1  0  0  0
 49 64  1  0  0  0
 49121  1  0  0  0
 50 51  1  0  0  0
 50122  1  0  0  0
 50123  1  0  0  0
 51 52  1  0  0  0
 51124  1  0  0  0
 51125  1  0  0  0
 52126  1  0  0  0
 52127  1  0  0  0
 53 54  1  0  0  0
 54 55  2  0  0  0
 54128  1  0  0  0
 55 57  1  0  0  0
 55129  1  0  0  0
 56 69  2  0  0  0
 57 58  2  0  0  0
 57130  1  0  0  0
 58131  1  0  0  0
 59 60  1  0  0  0
 59 61  1  0  0  0
 59 62  1  0  0  0
 60132  1  0  0  0
 60133  1  0  0  0
 60134  1  0  0  0
 61135  1  0  0  0
 61136  1  0  0  0
 61137  1  0  0  0
 62138  1  0  0  0
 62139  1  0  0  0
 62140  1  0  0  0
 63 65  1  0  0  0
 63141  1  0  0  0
 63142  1  0  0  0
 63143  1  0  0  0
 64144  1  0  0  0
 65145  1  0  0  0
 68 83  1  0  0  0
 71 72  2  0  0  0
 71 75  1  0  0  0
 71146  1  0  0  0
 72 76  1  0  0  0
 72147  1  0  0  0
 73 74  1  0  0  0
 73 75  2  0  0  0
 73148  1  0  0  0
 74 76  2  0  0  0
 74 81  1  0  0  0
 75 84  1  0  0  0
 76 85  1  0  0  0
 77 78  1  0  0  0
 77 84  1  0  0  0
 77 86  2  0  0  0
 78 79  1  0  0  0
 78149  1  0  0  0
 78150  1  0  0  0
 79 80  1  0  0  0
 79151  1  0  0  0
 79152  1  0  0  0
 80 83  1  0  0  0
 80 84  1  0  0  0
 80153  1  0  0  0
 81154  1  0  0  0
 81155  1  0  0  0
 81156  1  0  0  0
 82 85  1  0  0  0
 82157  1  0  0  0
 82158  1  0  0  0
 82159  1  0  0  0
 83160  1  0  0  0
 83161  1  0  0  0
M  ISO  4   1 100  68 101  83 101  85 100
M  END
> <chiral flag>
0

> <version>
0

> <s_m_source_file>
/data/baiqing/PycharmProjects/Reinvent-master-3.2/result/LINK_invent/BTK/process_docking_weight1_custom_product_contain_oxygen_bond_distance_aromatic_linkinvent_7_9_3/rearranged_h_0104.sdf

> <i_m_source_file_index>
2

> <r_mmod_Potential_Energy-OPLS-2005>
779.841430664062

> <r_mmod_Stretch_Energy-OPLS-2005>
234.997924804688

> <r_mmod_Bend_Energy-OPLS-2005>
297.80859375

> <r_mmod_Torsional_Energy-OPLS-2005>
430.051574707031

> <r_mmod_Improper_Torsional_Energy-OPLS-2005>
11.7962160110474

> <r_mmod_Van_der_Waal_Energy-OPLS-2005>
136.781631469727

> <r_mmod_Electrostatic_Energy-OPLS-2005>
-290.699920654297

> <r_mmod_Solvation_Energy-OPLS-2005>
-206.929412841797

> <b_mmod_Minimization_Converged-OPLS-2005>
0

> <r_mmod_RMS_Derivative-OPLS-2005>
2.42579865455627

$$$$
2
                    3D
 Structure written by MMmdl.
158167  0  0  1  0            999 V2000
  -30.6807  -14.5666   20.5929 C   0  0  0  0  0  0
  -30.4390  -12.3725   19.4455 C   0  0  0  0  0  0
  -29.5058  -12.5283   18.2245 C   0  0  0  0  0  0
  -28.0297  -12.3616   18.6352 C   0  0  0  0  0  0
  -27.6608  -13.2154   19.8759 C   0  0  2  0  0  0
  -28.7039  -13.0302   21.0045 C   0  0  0  0  0  0
  -25.2465  -13.8108   20.5539 C   0  0  0  0  0  0
  -24.1797  -13.0381   20.9201 C   0  0  0  0  0  0
  -24.6409  -11.6876   20.8782 C   0  0  0  0  0  0
  -23.9074  -10.4271   21.0433 C   0  0  0  0  0  0
  -24.3621   -9.4186   21.9206 C   0  0  0  0  0  0
  -23.6296   -8.2223   22.0757 C   0  0  0  0  0  0
  -22.4278   -8.0265   21.3546 C   0  0  0  0  0  0
  -21.9915   -9.0243   20.4646 C   0  0  0  0  0  0
  -22.7247  -10.2124   20.3076 C   0  0  0  0  0  0
  -21.6846   -6.0735   22.5286 C   0  0  0  0  0  0
  -21.4010   -6.5638   23.8218 C   0  0  0  0  0  0
  -21.3661   -5.6790   24.9180 C   0  0  0  0  0  0
  -21.6049   -4.3057   24.7227 C   0  0  0  0  0  0
  -21.8820   -3.8148   23.4349 C   0  0  0  0  0  0
  -21.9190   -4.6965   22.3407 C   0  0  0  0  0  0
  -22.7818  -13.5176   21.1861 C   0  0  0  0  0  0
  -22.1660   -4.2152   21.0983 F   0  0  0  0  0  0
  -21.5633   -3.4538   25.7744 F   0  0  0  0  0  0
  -30.0390  -13.3614   20.4666 N   0  0  0  0  0  0
  -26.3000  -12.9347   20.3353 N   0  0  0  0  0  0
  -25.9347  -11.6502   20.5829 N   0  0  0  0  0  0
  -22.0463  -12.8191   22.0440 N   0  0  0  0  0  0
  -25.3895  -15.1784   20.3604 N   0  0  0  0  0  0
  -31.7585  -14.7987   20.0374 O   0  0  0  0  0  0
  -21.6632   -6.8870   21.4243 O   0  0  0  0  0  0
  -22.3501  -14.5476   20.6695 O   0  0  0  0  0  0
  -24.6200  -31.8635   23.2058 C   0  0  0  0  0  0
  -25.9064  -32.4808   23.8371 C   0  0  1  0  0  0
  -27.2397  -27.3734   20.1178 C   0  0  0  0  0  0
  -25.5893  -33.8609   24.2296 N   0  0  0  0  0  0
  -23.4127  -30.4843   21.5473 C   0  0  2  0  0  0
  -24.8631  -28.9438   20.1165 C   0  0  0  0  0  0
  -22.7446  -29.4630   22.4970 C   0  0  0  0  0  0
  -18.0274  -28.1384   22.8489 C   0  0  0  0  0  0
  -24.1487  -36.7310   23.2637 C   0  0  0  0  0  0
  -25.9479  -30.8118   21.3691 C   0  0  0  0  0  0
  -26.0270  -29.4422   20.7151 C   0  0  0  0  0  0
  -27.2190  -28.6682   20.7048 C   0  0  0  0  0  0
  -26.0559  -26.9124   19.4979 C   0  0  0  0  0  0
  -24.8762  -27.6818   19.5002 C   0  0  0  0  0  0
  -23.6258  -29.8150   20.1637 C   0  0  0  0  0  0
  -25.4112  -36.3105   24.0329 C   0  0  1  0  0  0
  -20.5870  -28.3672   23.1307 C   0  0  2  0  0  0
  -20.6764  -26.9401   22.5416 C   0  0  0  0  0  0
  -19.5745  -26.6385   21.5213 C   0  0  0  0  0  0
  -18.1922  -26.7929   22.1622 C   0  0  0  0  0  0
  -19.1524  -28.8846   23.2893 C   0  0  0  0  0  0
  -18.9451  -30.1452   23.8903 C   0  0  0  0  0  0
  -17.6452  -30.6587   24.0564 C   0  0  0  0  0  0
  -25.9041  -34.9472   23.5115 C   0  0  0  0  0  0
  -16.5344  -29.9088   23.6330 C   0  0  0  0  0  0
  -16.7261  -28.6508   23.0347 C   0  0  0  0  0  0
  -26.4463  -31.6611   25.0727 C   0  0  0  0  0  0
  -25.3712  -31.3740   26.1465 C   0  0  0  0  0  0
  -27.0294  -30.3038   24.6156 C   0  0  0  0  0  0
  -27.6032  -32.4337   25.7489 C   0  0  0  0  0  0
  -27.5584  -37.1805   24.8458 C   0  0  0  0  0  0
  -21.4166  -29.3030   22.3712 N   0  0  0  0  0  0
  -26.4293  -37.3793   23.9405 N   0  0  0  0  0  0
  -24.6783  -31.0685   22.0988 N   0  0  0  0  0  0
  -23.4189  -28.8168   23.3030 O   0  0  0  0  0  0
  -28.3880  -26.5841   20.1282 O   0  0  0  0  0  0
  -26.5617  -34.8930   22.4684 O   0  0  0  0  0  0
  -23.5372  -32.1404   23.7412 O   0  0  0  0  0  0
  -27.6386  -18.2267   20.6905 C   0  0  0  0  0  0
  -28.4306  -19.3844   20.6105 C   0  0  0  0  0  0
  -28.2318  -16.9736   20.9248 C   0  0  0  0  0  0
  -30.4265  -18.0087   20.9606 C   0  0  0  0  0  0
  -29.8288  -19.3050   20.7700 C   0  0  0  0  0  0
  -29.6262  -16.8218   21.0329 C   0  0  0  0  0  0
  -29.5306  -22.9067   21.0897 C   0  0  0  0  0  0
  -29.7128  -23.7844   18.8882 C   0  0  0  0  0  0
  -30.3770  -22.3953   19.0048 C   0  0  0  0  0  0
  -29.4876  -24.2605   20.3292 C   0  0  1  0  0  0
  -30.6607  -20.6151   20.8187 C   0  0  0  0  0  0
  -28.2349  -25.1885   20.5454 C   0  0  0  0  0  0
  -30.0634  -21.9066   20.3444 N   0  0  0  0  0  0
  -30.0714  -15.4887   21.3792 N   0  0  0  0  0  0
  -29.1856  -22.7992   22.2691 O   0  0  0  0  0  0
  -31.4806  -12.4917   19.1414 H   0  0  0  0  0  0
  -30.3674  -11.3648   19.8565 H   0  0  0  0  0  0
  -29.7650  -11.8000   17.4547 H   0  0  0  0  0  0
  -29.6523  -13.5122   17.7757 H   0  0  0  0  0  0
  -27.8625  -11.3052   18.8508 H   0  0  0  0  0  0
  -27.3743  -12.6081   17.7986 H   0  0  0  0  0  0
  -27.6928  -14.2580   19.5588 H   0  0  0  0  0  0
  -28.6980  -11.9975   21.3567 H   0  0  0  0  0  0
  -28.4347  -13.6307   21.8739 H   0  0  0  0  0  0
  -25.2762   -9.5659   22.4780 H   0  0  0  0  0  0
  -24.0011   -7.4602   22.7463 H   0  0  0  0  0  0
  -21.0854   -8.8753   19.8938 H   0  0  0  0  0  0
  -22.3706  -10.9661   19.6182 H   0  0  0  0  0  0
  -21.1996   -7.6147   23.9724 H   0  0  0  0  0  0
  -21.1485   -6.0521   25.9084 H   0  0  0  0  0  0
  -22.0598   -2.7612   23.2850 H   0  0  0  0  0  0
  -22.4082  -11.9865   22.4853 H   0  0  0  0  0  0
  -21.1077  -13.1216   22.2630 H   0  0  0  0  0  0
  -24.5837  -15.7934   20.3982 H   0  0  0  0  0  0
  -26.1802  -15.5933   19.8854 H   0  0  0  0  0  0
  -26.7139  -32.5500   23.1132 H   0  0  0  0  0  0
  -25.0013  -33.9768   25.0418 H   0  0  0  0  0  0
  -22.7035  -31.3022   21.4036 H   0  0  0  0  0  0
  -23.3755  -35.9636   23.3300 H   0  0  0  0  0  0
  -24.3574  -36.8934   22.2051 H   0  0  0  0  0  0
  -23.7241  -37.6512   23.6659 H   0  0  0  0  0  0
  -26.0705  -31.5776   20.6020 H   0  0  0  0  0  0
  -26.8307  -30.8619   21.9947 H   0  0  0  0  0  0
  -28.1171  -29.0505   21.1698 H   0  0  0  0  0  0
  -26.0306  -25.9556   18.9978 H   0  0  0  0  0  0
  -23.9849  -27.2965   19.0245 H   0  0  0  0  0  0
  -23.7363  -30.5890   19.4033 H   0  0  0  0  0  0
  -22.7495  -29.2355   19.8672 H   0  0  0  0  0  0
  -25.1295  -36.1960   25.0822 H   0  0  0  0  0  0
  -20.9952  -28.3238   24.1432 H   0  0  0  0  0  0
  -20.5665  -26.2275   23.3607 H   0  0  0  0  0  0
  -21.6636  -26.7435   22.1208 H   0  0  0  0  0  0
  -19.6905  -25.6296   21.1243 H   0  0  0  0  0  0
  -19.6698  -27.3199   20.6749 H   0  0  0  0  0  0
  -17.4191  -26.6675   21.4026 H   0  0  0  0  0  0
  -18.0321  -26.0073   22.9021 H   0  0  0  0  0  0
  -19.7923  -30.7268   24.2276 H   0  0  0  0  0  0
  -17.5004  -31.6270   24.5161 H   0  0  0  0  0  0
  -15.5345  -30.2992   23.7654 H   0  0  0  0  0  0
  -15.8661  -28.0836   22.7052 H   0  0  0  0  0  0
  -24.5859  -30.7124   25.7789 H   0  0  0  0  0  0
  -24.8930  -32.2906   26.4928 H   0  0  0  0  0  0
  -25.8037  -30.8877   27.0219 H   0  0  0  0  0  0
  -26.2859  -29.6816   24.1159 H   0  0  0  0  0  0
  -27.3974  -29.7269   25.4653 H   0  0  0  0  0  0
  -27.8736  -30.4329   23.9378 H   0  0  0  0  0  0
  -27.2639  -33.3612   26.2110 H   0  0  0  0  0  0
  -28.3811  -32.6947   25.0305 H   0  0  0  0  0  0
  -28.0737  -31.8445   26.5370 H   0  0  0  0  0  0
  -28.2596  -38.0108   24.7517 H   0  0  0  0  0  0
  -28.1087  -36.2642   24.6267 H   0  0  0  0  0  0
  -27.2301  -37.1437   25.8859 H   0  0  0  0  0  0
  -20.9338  -29.8754   21.6934 H   0  0  0  0  0  0
  -26.0185  -38.2867   24.1423 H   0  0  0  0  0  0
  -26.5634  -18.3044   20.6109 H   0  0  0  0  0  0
  -27.9448  -20.3397   20.4700 H   0  0  0  0  0  0
  -27.5983  -16.1138   21.0556 H   0  0  0  0  0  0
  -31.4959  -17.9353   21.1041 H   0  0  0  0  0  0
  -28.7571  -23.6929   18.3698 H   0  0  0  0  0  0
  -30.3257  -24.4830   18.3171 H   0  0  0  0  0  0
  -31.4596  -22.4834   18.8998 H   0  0  0  0  0  0
  -30.0215  -21.7100   18.2349 H   0  0  0  0  0  0
  -30.3697  -24.8058   20.6671 H   0  0  0  0  0  0
  -31.5822  -20.4426   20.2616 H   0  0  0  0  0  0
  -30.9787  -20.7519   21.8537 H   0  0  0  0  0  0
  -27.9937  -25.2072   21.6093 H   0  0  0  0  0  0
  -27.3843  -24.7089   20.0648 H   0  0  0  0  0  0
  -29.3860  -15.0093   21.9428 H   0  0  0  0  0  0
  1 25  1  0  0  0
  1 30  2  0  0  0
  1 84  1  0  0  0
  2  3  1  0  0  0
  2 25  1  0  0  0
  2 86  1  0  0  0
  2 87  1  0  0  0
  3  4  1  0  0  0
  3 88  1  0  0  0
  3 89  1  0  0  0
  4  5  1  0  0  0
  4 90  1  0  0  0
  4 91  1  0  0  0
  5  6  1  0  0  0
  5 26  1  0  0  0
  5 92  1  0  0  0
  6 25  1  0  0  0
  6 93  1  0  0  0
  6 94  1  0  0  0
  7  8  2  0  0  0
  7 26  1  0  0  0
  7 29  1  0  0  0
  8  9  1  0  0  0
  8 22  1  0  0  0
  9 10  1  0  0  0
  9 27  2  0  0  0
 10 11  2  0  0  0
 10 15  1  0  0  0
 11 12  1  0  0  0
 11 95  1  0  0  0
 12 13  2  0  0  0
 12 96  1  0  0  0
 13 14  1  0  0  0
 13 31  1  0  0  0
 14 15  2  0  0  0
 14 97  1  0  0  0
 15 98  1  0  0  0
 16 17  2  0  0  0
 16 21  1  0  0  0
 16 31  1  0  0  0
 17 18  1  0  0  0
 17 99  1  0  0  0
 18 19  2  0  0  0
 18100  1  0  0  0
 19 20  1  0  0  0
 19 24  1  0  0  0
 20 21  2  0  0  0
 20101  1  0  0  0
 21 23  1  0  0  0
 22 28  1  0  0  0
 22 32  2  0  0  0
 26 27  1  0  0  0
 28102  1  0  0  0
 28103  1  0  0  0
 29104  1  0  0  0
 29105  1  0  0  0
 33 34  1  0  0  0
 33 66  1  0  0  0
 33 70  2  0  0  0
 34 36  1  0  0  0
 34 59  1  0  0  0
 34106  1  0  0  0
 35 44  2  0  0  0
 35 45  1  0  0  0
 35 68  1  0  0  0
 36 56  1  0  0  0
 36107  1  0  0  0
 37 39  1  0  0  0
 37 47  1  0  0  0
 37 66  1  0  0  0
 37108  1  0  0  0
 38 43  2  0  0  0
 38 46  1  0  0  0
 38 47  1  0  0  0
 39 64  1  0  0  0
 39 67  2  0  0  0
 40 52  1  0  0  0
 40 53  2  0  0  0
 40 58  1  0  0  0
 41109  1  0  0  0
 41110  1  0  0  0
 41111  1  0  0  0
 41 48  1  0  0  0
 42 43  1  0  0  0
 42 66  1  0  0  0
 42112  1  0  0  0
 42113  1  0  0  0
 43 44  1  0  0  0
 44114  1  0  0  0
 45 46  2  0  0  0
 45115  1  0  0  0
 46116  1  0  0  0
 47117  1  0  0  0
 47118  1  0  0  0
 48 56  1  0  0  0
 48 65  1  0  0  0
 48119  1  0  0  0
 49 50  1  0  0  0
 49 53  1  0  0  0
 49 64  1  0  0  0
 49120  1  0  0  0
 50 51  1  0  0  0
 50121  1  0  0  0
 50122  1  0  0  0
 51 52  1  0  0  0
 51123  1  0  0  0
 51124  1  0  0  0
 52125  1  0  0  0
 52126  1  0  0  0
 53 54  1  0  0  0
 54 55  2  0  0  0
 54127  1  0  0  0
 55 57  1  0  0  0
 55128  1  0  0  0
 56 69  2  0  0  0
 57 58  2  0  0  0
 57129  1  0  0  0
 58130  1  0  0  0
 59 60  1  0  0  0
 59 61  1  0  0  0
 59 62  1  0  0  0
 60131  1  0  0  0
 60132  1  0  0  0
 60133  1  0  0  0
 61134  1  0  0  0
 61135  1  0  0  0
 61136  1  0  0  0
 62137  1  0  0  0
 62138  1  0  0  0
 62139  1  0  0  0
 63 65  1  0  0  0
 63140  1  0  0  0
 63141  1  0  0  0
 63142  1  0  0  0
 64143  1  0  0  0
 65144  1  0  0  0
 68 82  1  0  0  0
 71 72  2  0  0  0
 71 73  1  0  0  0
 71145  1  0  0  0
 72 75  1  0  0  0
 72146  1  0  0  0
 73 76  2  0  0  0
 73147  1  0  0  0
 74 75  2  0  0  0
 74 76  1  0  0  0
 74148  1  0  0  0
 75 81  1  0  0  0
 76 84  1  0  0  0
 77 80  1  0  0  0
 77 83  1  0  0  0
 77 85  2  0  0  0
 78 79  1  0  0  0
 78 80  1  0  0  0
 78149  1  0  0  0
 78150  1  0  0  0
 79 83  1  0  0  0
 79151  1  0  0  0
 79152  1  0  0  0
 80 82  1  0  0  0
 80153  1  0  0  0
 81 83  1  0  0  0
 81154  1  0  0  0
 81155  1  0  0  0
 82156  1  0  0  0
 82157  1  0  0  0
 84158  1  0  0  0
M  ISO  4   1 100  68 101  82 101  84 100
M  END
> <chiral flag>
0

> <version>
0

> <s_m_source_file>
/data/baiqing/PycharmProjects/Reinvent-master-3.2/result/LINK_invent/BTK/process_docking_weight1_custom_product_contain_oxygen_bond_distance_aromatic_linkinvent_7_9_3/rearranged_h_0104.sdf

> <i_m_source_file_index>
3

> <r_mmod_Potential_Energy-OPLS-2005>
60.4173164367676

> <r_mmod_Stretch_Energy-OPLS-2005>
59.2612533569336

> <r_mmod_Bend_Energy-OPLS-2005>
148.051193237305

> <r_mmod_Torsional_Energy-OPLS-2005>
279.355560302734

> <r_mmod_Improper_Torsional_Energy-OPLS-2005>
9.04409408569336

> <r_mmod_Van_der_Waal_Energy-OPLS-2005>
134.731964111328

> <r_mmod_Electrostatic_Energy-OPLS-2005>
-370.266754150391

> <r_mmod_Solvation_Energy-OPLS-2005>
-226.57649230957

> <b_mmod_Minimization_Converged-OPLS-2005>
0

> <r_mmod_RMS_Derivative-OPLS-2005>
1.14451444149017

$$$$
3
                    3D
 Structure written by MMmdl.
155163  0  0  1  0            999 V2000
  -30.7320  -14.4288   20.6276 C   0  0  0  0  0  0
  -30.4219  -12.2982   19.4217 C   0  0  0  0  0  0
  -29.4962  -12.5127   18.2066 C   0  0  0  0  0  0
  -28.0163  -12.3686   18.6115 C   0  0  0  0  0  0
  -27.6642  -13.1980   19.8740 C   0  0  2  0  0  0
  -28.6956  -12.9416   20.9922 C   0  0  0  0  0  0
  -25.2611  -13.8149   20.5661 C   0  0  0  0  0  0
  -24.1855  -13.0440   20.9162 C   0  0  0  0  0  0
  -24.6396  -11.6899   20.8734 C   0  0  0  0  0  0
  -23.9061  -10.4290   21.0415 C   0  0  0  0  0  0
  -24.3612   -9.4207   21.9194 C   0  0  0  0  0  0
  -23.6288   -8.2242   22.0757 C   0  0  0  0  0  0
  -22.4271   -8.0282   21.3549 C   0  0  0  0  0  0
  -21.9915   -9.0252   20.4644 C   0  0  0  0  0  0
  -22.7240  -10.2135   20.3058 C   0  0  0  0  0  0
  -21.6850   -6.0731   22.5288 C   0  0  0  0  0  0
  -21.4018   -6.5636   23.8223 C   0  0  0  0  0  0
  -21.3657   -5.6789   24.9183 C   0  0  0  0  0  0
  -21.6041   -4.3049   24.7235 C   0  0  0  0  0  0
  -21.8822   -3.8141   23.4360 C   0  0  0  0  0  0
  -21.9190   -4.6956   22.3413 C   0  0  0  0  0  0
  -22.7880  -13.5241   21.1833 C   0  0  0  0  0  0
  -22.1653   -4.2137   21.0991 F   0  0  0  0  0  0
  -21.5634   -3.4535   25.7753 F   0  0  0  0  0  0
  -30.0379  -13.2619   20.4681 N   0  0  0  0  0  0
  -26.3029  -12.9298   20.3322 N   0  0  0  0  0  0
  -25.9311  -11.6467   20.5724 N   0  0  0  0  0  0
  -22.0531  -12.8240   22.0401 N   0  0  0  0  0  0
  -25.4360  -15.1872   20.4085 N   0  0  0  0  0  0
  -31.7920  -14.6665   20.0361 O   0  0  0  0  0  0
  -21.6639   -6.8874   21.4248 O   0  0  0  0  0  0
  -22.3558  -14.5538   20.6662 O   0  0  0  0  0  0
  -24.6126  -31.8693   23.2131 C   0  0  0  0  0  0
  -25.9034  -32.4825   23.8418 C   0  0  1  0  0  0
  -27.2424  -27.4586   20.0724 C   0  0  0  0  0  0
  -25.5891  -33.8626   24.2330 N   0  0  0  0  0  0
  -23.3985  -30.4936   21.5551 C   0  0  2  0  0  0
  -24.8416  -28.9573   20.1224 C   0  0  0  0  0  0
  -22.7383  -29.4677   22.5035 C   0  0  0  0  0  0
  -18.0258  -28.1377   22.8511 C   0  0  0  0  0  0
  -24.1475  -36.7318   23.2649 C   0  0  0  0  0  0
  -25.9266  -30.8372   21.3674 C   0  0  0  0  0  0
  -26.0008  -29.4737   20.7122 C   0  0  0  0  0  0
  -27.1991  -28.7284   20.6889 C   0  0  0  0  0  0
  -26.0529  -26.9374   19.5107 C   0  0  0  0  0  0
  -24.8587  -27.6835   19.5283 C   0  0  0  0  0  0
  -23.6029  -29.8215   20.1718 C   0  0  0  0  0  0
  -25.4111  -36.3121   24.0340 C   0  0  1  0  0  0
  -20.5844  -28.3673   23.1335 C   0  0  2  0  0  0
  -20.6750  -26.9418   22.5423 C   0  0  0  0  0  0
  -19.5725  -26.6393   21.5228 C   0  0  0  0  0  0
  -18.1901  -26.7930   22.1634 C   0  0  0  0  0  0
  -19.1507  -28.8845   23.2912 C   0  0  0  0  0  0
  -18.9434  -30.1452   23.8920 C   0  0  0  0  0  0
  -17.6441  -30.6596   24.0578 C   0  0  0  0  0  0
  -25.9030  -34.9479   23.5132 C   0  0  0  0  0  0
  -16.5333  -29.9099   23.6338 C   0  0  0  0  0  0
  -16.7248  -28.6505   23.0374 C   0  0  0  0  0  0
  -26.4479  -31.6619   25.0755 C   0  0  0  0  0  0
  -25.3745  -31.3687   26.1492 C   0  0  0  0  0  0
  -27.0384  -30.3083   24.6156 C   0  0  0  0  0  0
  -27.6014  -32.4390   25.7518 C   0  0  0  0  0  0
  -27.5580  -37.1819   24.8476 C   0  0  0  0  0  0
  -21.4116  -29.3037   22.3749 N   0  0  0  0  0  0
  -26.4308  -37.3794   23.9398 N   0  0  0  0  0  0
  -24.6640  -31.0806   22.1031 N   0  0  0  0  0  0
  -23.4154  -28.8236   23.3093 O   0  0  0  0  0  0
  -28.4544  -26.7997   20.0467 O   0  0  0  0  0  0
  -26.5596  -34.8927   22.4695 O   0  0  0  0  0  0
  -23.5327  -32.1444   23.7537 O   0  0  0  0  0  0
  -29.5791  -17.0348   19.5806 C   0  0  0  0  0  0
  -29.9464  -18.0062   21.7676 C   0  0  0  0  0  0
  -29.3294  -18.3218   19.0567 C   0  0  0  0  0  0
  -29.6882  -19.2916   21.2478 C   0  0  0  0  0  0
  -29.9014  -16.8498   20.9490 C   0  0  0  0  0  0
  -29.3756  -19.4656   19.8786 C   0  0  0  0  0  0
  -30.1395  -15.4939   21.5541 C   0  0  0  0  0  0
  -28.7811  -23.0831   19.2447 C   0  0  0  0  0  0
  -28.5219  -24.3636   20.0626 C   0  0  0  0  0  0
  -28.9830  -21.8365   20.1206 C   0  0  0  0  0  0
  -28.6366  -25.6474   19.2237 C   0  0  0  0  0  0
  -29.9150  -15.2775   22.7860 N   0  0  0  0  0  0
  -29.1154  -20.6863   19.2866 O   0  0  0  0  0  0
  -31.4669  -12.3962   19.1223 H   0  0  0  0  0  0
  -30.3242  -11.2797   19.8002 H   0  0  0  0  0  0
  -29.7372  -11.7963   17.4203 H   0  0  0  0  0  0
  -29.6676  -13.5038   17.7821 H   0  0  0  0  0  0
  -27.8239  -11.3110   18.7996 H   0  0  0  0  0  0
  -27.3677  -12.6507   17.7811 H   0  0  0  0  0  0
  -27.7228  -14.2509   19.5964 H   0  0  0  0  0  0
  -28.6715  -11.8935   21.2938 H   0  0  0  0  0  0
  -28.4125  -13.4883   21.8886 H   0  0  0  0  0  0
  -25.2751   -9.5681   22.4779 H   0  0  0  0  0  0
  -23.9990   -7.4634   22.7479 H   0  0  0  0  0  0
  -21.0852   -8.8772   19.8940 H   0  0  0  0  0  0
  -22.3697  -10.9679   19.6172 H   0  0  0  0  0  0
  -21.2015   -7.6144   23.9726 H   0  0  0  0  0  0
  -21.1478   -6.0515   25.9085 H   0  0  0  0  0  0
  -22.0606   -2.7603   23.2866 H   0  0  0  0  0  0
  -22.4134  -11.9886   22.4774 H   0  0  0  0  0  0
  -21.1151  -13.1268   22.2607 H   0  0  0  0  0  0
  -24.6764  -15.8480   20.5303 H   0  0  0  0  0  0
  -26.2982  -15.6282   20.1146 H   0  0  0  0  0  0
  -26.7107  -32.5530   23.1189 H   0  0  0  0  0  0
  -25.0059  -33.9788   25.0488 H   0  0  0  0  0  0
  -22.6867  -31.3099   21.4156 H   0  0  0  0  0  0
  -23.3746  -35.9636   23.3312 H   0  0  0  0  0  0
  -24.3552  -36.8954   22.2059 H   0  0  0  0  0  0
  -23.7217  -37.6514   23.6680 H   0  0  0  0  0  0
  -26.0448  -31.6071   20.6042 H   0  0  0  0  0  0
  -26.8121  -30.8817   21.9906 H   0  0  0  0  0  0
  -28.0989  -29.1327   21.1324 H   0  0  0  0  0  0
  -26.0189  -25.9576   19.0596 H   0  0  0  0  0  0
  -23.9617  -27.2693   19.0881 H   0  0  0  0  0  0
  -23.7053  -30.5927   19.4077 H   0  0  0  0  0  0
  -22.7277  -29.2364   19.8847 H   0  0  0  0  0  0
  -25.1289  -36.1999   25.0833 H   0  0  0  0  0  0
  -20.9927  -28.3243   24.1461 H   0  0  0  0  0  0
  -20.5691  -26.2280   23.3603 H   0  0  0  0  0  0
  -21.6615  -26.7487   22.1199 H   0  0  0  0  0  0
  -19.6892  -25.6314   21.1239 H   0  0  0  0  0  0
  -19.6656  -27.3207   20.6761 H   0  0  0  0  0  0
  -17.4184  -26.6716   21.4017 H   0  0  0  0  0  0
  -18.0269  -26.0051   22.9001 H   0  0  0  0  0  0
  -19.7917  -30.7262   24.2285 H   0  0  0  0  0  0
  -17.5009  -31.6270   24.5196 H   0  0  0  0  0  0
  -15.5340  -30.3021   23.7650 H   0  0  0  0  0  0
  -15.8639  -28.0832   22.7103 H   0  0  0  0  0  0
  -24.5886  -30.7095   25.7793 H   0  0  0  0  0  0
  -24.8979  -32.2836   26.5018 H   0  0  0  0  0  0
  -25.8093  -30.8770   27.0202 H   0  0  0  0  0  0
  -26.2961  -29.6773   24.1256 H   0  0  0  0  0  0
  -27.4231  -29.7396   25.4636 H   0  0  0  0  0  0
  -27.8743  -30.4451   23.9290 H   0  0  0  0  0  0
  -27.2586  -33.3673   26.2106 H   0  0  0  0  0  0
  -28.3801  -32.7001   25.0338 H   0  0  0  0  0  0
  -28.0723  -31.8544   26.5436 H   0  0  0  0  0  0
  -28.2616  -38.0100   24.7530 H   0  0  0  0  0  0
  -28.1063  -36.2637   24.6325 H   0  0  0  0  0  0
  -27.2273  -37.1495   25.8871 H   0  0  0  0  0  0
  -20.9281  -29.8755   21.6964 H   0  0  0  0  0  0
  -26.0208  -38.2880   24.1387 H   0  0  0  0  0  0
  -29.5127  -16.1898   18.9094 H   0  0  0  0  0  0
  -30.1845  -17.9213   22.8181 H   0  0  0  0  0  0
  -29.0887  -18.4287   18.0079 H   0  0  0  0  0  0
  -29.7403  -20.1288   21.9278 H   0  0  0  0  0  0
  -29.6677  -23.2187   18.6236 H   0  0  0  0  0  0
  -27.9479  -22.9210   18.5598 H   0  0  0  0  0  0
  -29.2455  -24.4231   20.8761 H   0  0  0  0  0  0
  -27.5386  -24.3073   20.5317 H   0  0  0  0  0  0
  -28.1336  -21.7108   20.7937 H   0  0  0  0  0  0
  -29.8785  -21.9798   20.7263 H   0  0  0  0  0  0
  -27.9888  -25.6282   18.3468 H   0  0  0  0  0  0
  -29.6473  -25.7119   18.8204 H   0  0  0  0  0  0
  -29.5403  -16.1059   23.2320 H   0  0  0  0  0  0
  1 25  1  0  0  0
  1 30  2  0  0  0
  1 77  1  0  0  0
  2  3  1  0  0  0
  2 25  1  0  0  0
  2 84  1  0  0  0
  2 85  1  0  0  0
  3  4  1  0  0  0
  3 86  1  0  0  0
  3 87  1  0  0  0
  4  5  1  0  0  0
  4 88  1  0  0  0
  4 89  1  0  0  0
  5  6  1  0  0  0
  5 26  1  0  0  0
  5 90  1  0  0  0
  6 25  1  0  0  0
  6 91  1  0  0  0
  6 92  1  0  0  0
  7  8  2  0  0  0
  7 26  1  0  0  0
  7 29  1  0  0  0
  8  9  1  0  0  0
  8 22  1  0  0  0
  9 10  1  0  0  0
  9 27  2  0  0  0
 10 11  2  0  0  0
 10 15  1  0  0  0
 11 12  1  0  0  0
 11 93  1  0  0  0
 12 13  2  0  0  0
 12 94  1  0  0  0
 13 14  1  0  0  0
 13 31  1  0  0  0
 14 15  2  0  0  0
 14 95  1  0  0  0
 15 96  1  0  0  0
 16 17  2  0  0  0
 16 21  1  0  0  0
 16 31  1  0  0  0
 17 18  1  0  0  0
 17 97  1  0  0  0
 18 19  2  0  0  0
 18 98  1  0  0  0
 19 20  1  0  0  0
 19 24  1  0  0  0
 20 21  2  0  0  0
 20 99  1  0  0  0
 21 23  1  0  0  0
 22 28  1  0  0  0
 22 32  2  0  0  0
 26 27  1  0  0  0
 28100  1  0  0  0
 28101  1  0  0  0
 29102  1  0  0  0
 29103  1  0  0  0
 33 34  1  0  0  0
 33 66  1  0  0  0
 33 70  2  0  0  0
 34 36  1  0  0  0
 34 59  1  0  0  0
 34104  1  0  0  0
 35 44  2  0  0  0
 35 45  1  0  0  0
 35 68  1  0  0  0
 36 56  1  0  0  0
 36105  1  0  0  0
 37 39  1  0  0  0
 37 47  1  0  0  0
 37 66  1  0  0  0
 37106  1  0  0  0
 38 43  2  0  0  0
 38 46  1  0  0  0
 38 47  1  0  0  0
 39 64  1  0  0  0
 39 67  2  0  0  0
 40 52  1  0  0  0
 40 53  2  0  0  0
 40 58  1  0  0  0
 41107  1  0  0  0
 41108  1  0  0  0
 41109  1  0  0  0
 41 48  1  0  0  0
 42 43  1  0  0  0
 42 66  1  0  0  0
 42110  1  0  0  0
 42111  1  0  0  0
 43 44  1  0  0  0
 44112  1  0  0  0
 45 46  2  0  0  0
 45113  1  0  0  0
 46114  1  0  0  0
 47115  1  0  0  0
 47116  1  0  0  0
 48 56  1  0  0  0
 48 65  1  0  0  0
 48117  1  0  0  0
 49 50  1  0  0  0
 49 53  1  0  0  0
 49 64  1  0  0  0
 49118  1  0  0  0
 50 51  1  0  0  0
 50119  1  0  0  0
 50120  1  0  0  0
 51 52  1  0  0  0
 51121  1  0  0  0
 51122  1  0  0  0
 52123  1  0  0  0
 52124  1  0  0  0
 53 54  1  0  0  0
 54 55  2  0  0  0
 54125  1  0  0  0
 55 57  1  0  0  0
 55126  1  0  0  0
 56 69  2  0  0  0
 57 58  2  0  0  0
 57127  1  0  0  0
 58128  1  0  0  0
 59 60  1  0  0  0
 59 61  1  0  0  0
 59 62  1  0  0  0
 60129  1  0  0  0
 60130  1  0  0  0
 60131  1  0  0  0
 61132  1  0  0  0
 61133  1  0  0  0
 61134  1  0  0  0
 62135  1  0  0  0
 62136  1  0  0  0
 62137  1  0  0  0
 63 65  1  0  0  0
 63138  1  0  0  0
 63139  1  0  0  0
 63140  1  0  0  0
 64141  1  0  0  0
 65142  1  0  0  0
 68 81  1  0  0  0
 71 73  2  0  0  0
 71 75  1  0  0  0
 71143  1  0  0  0
 72 74  1  0  0  0
 72 75  2  0  0  0
 72144  1  0  0  0
 73 76  1  0  0  0
 73145  1  0  0  0
 74 76  2  0  0  0
 74146  1  0  0  0
 75 77  1  0  0  0
 76 83  1  0  0  0
 77 82  2  0  0  0
 78 79  1  0  0  0
 78 80  1  0  0  0
 78147  1  0  0  0
 78148  1  0  0  0
 79 81  1  0  0  0
 79149  1  0  0  0
 79150  1  0  0  0
 80 83  1  0  0  0
 80151  1  0  0  0
 80152  1  0  0  0
 81153  1  0  0  0
 81154  1  0  0  0
 82155  1  0  0  0
M  ISO  4   1 100  68 101  77 100  81 101
M  END
> <chiral flag>
0

> <version>
0

> <s_m_source_file>
/data/baiqing/PycharmProjects/Reinvent-master-3.2/result/LINK_invent/BTK/process_docking_weight1_custom_product_contain_oxygen_bond_distance_aromatic_linkinvent_7_9_3/rearranged_h_0104.sdf

> <i_m_source_file_index>
4

> <r_mmod_Potential_Energy-OPLS-2005>
92.06396484375

> <r_mmod_Stretch_Energy-OPLS-2005>
38.6314430236816

> <r_mmod_Bend_Energy-OPLS-2005>
109.671897888184

> <r_mmod_Torsional_Energy-OPLS-2005>
194.603500366211

> <r_mmod_Improper_Torsional_Energy-OPLS-2005>
2.20180082321167

> <r_mmod_Van_der_Waal_Energy-OPLS-2005>
163.561172485352

> <r_mmod_Electrostatic_Energy-OPLS-2005>
-225.4013671875

> <r_mmod_Solvation_Energy-OPLS-2005>
-200.296371459961

> <b_mmod_Minimization_Converged-OPLS-2005>
0

> <r_mmod_RMS_Derivative-OPLS-2005>
1.70732009410858

$$$$
4
                    3D
 Structure written by MMmdl.
165174  0  0  1  0            999 V2000
  -30.7186  -14.4596   20.6270 C   0  0  0  0  0  0
  -30.4257  -12.3262   19.4060 C   0  0  0  0  0  0
  -29.4909  -12.5187   18.1963 C   0  0  0  0  0  0
  -28.0141  -12.3697   18.6138 C   0  0  0  0  0  0
  -27.6600  -13.2079   19.8714 C   0  0  2  0  0  0
  -28.7028  -12.9817   20.9872 C   0  0  0  0  0  0
  -25.2575  -13.8164   20.5684 C   0  0  0  0  0  0
  -24.1837  -13.0442   20.9201 C   0  0  0  0  0  0
  -24.6393  -11.6915   20.8745 C   0  0  0  0  0  0
  -23.9065  -10.4301   21.0418 C   0  0  0  0  0  0
  -24.3616   -9.4212   21.9194 C   0  0  0  0  0  0
  -23.6303   -8.2237   22.0754 C   0  0  0  0  0  0
  -22.4283   -8.0282   21.3549 C   0  0  0  0  0  0
  -21.9923   -9.0255   20.4648 C   0  0  0  0  0  0
  -22.7244  -10.2141   20.3065 C   0  0  0  0  0  0
  -21.6847   -6.0744   22.5289 C   0  0  0  0  0  0
  -21.3999   -6.5642   23.8226 C   0  0  0  0  0  0
  -21.3663   -5.6786   24.9184 C   0  0  0  0  0  0
  -21.6054   -4.3051   24.7227 C   0  0  0  0  0  0
  -21.8820   -3.8151   23.4343 C   0  0  0  0  0  0
  -21.9191   -4.6972   22.3403 C   0  0  0  0  0  0
  -22.7857  -13.5241   21.1872 C   0  0  0  0  0  0
  -22.1662   -4.2160   21.0978 F   0  0  0  0  0  0
  -21.5639   -3.4532   25.7736 F   0  0  0  0  0  0
  -30.0316  -13.3002   20.4359 N   0  0  0  0  0  0
  -26.3014  -12.9340   20.3353 N   0  0  0  0  0  0
  -25.9318  -11.6501   20.5762 N   0  0  0  0  0  0
  -22.0476  -12.8244   22.0422 N   0  0  0  0  0  0
  -25.4272  -15.1882   20.4081 N   0  0  0  0  0  0
  -31.8251  -14.6750   20.1252 O   0  0  0  0  0  0
  -21.6633   -6.8890   21.4253 O   0  0  0  0  0  0
  -22.3552  -14.5552   20.6723 O   0  0  0  0  0  0
  -24.6162  -31.8681   23.2115 C   0  0  0  0  0  0
  -25.9057  -32.4817   23.8411 C   0  0  1  0  0  0
  -27.2287  -27.4260   20.0955 C   0  0  0  0  0  0
  -25.5922  -33.8615   24.2344 N   0  0  0  0  0  0
  -23.4039  -30.4921   21.5529 C   0  0  2  0  0  0
  -24.8491  -28.9589   20.1155 C   0  0  0  0  0  0
  -22.7413  -29.4660   22.4999 C   0  0  0  0  0  0
  -18.0265  -28.1370   22.8486 C   0  0  0  0  0  0
  -24.1495  -36.7314   23.2634 C   0  0  0  0  0  0
  -25.9345  -30.8298   21.3658 C   0  0  0  0  0  0
  -26.0115  -29.4649   20.7113 C   0  0  0  0  0  0
  -27.2067  -28.7066   20.6969 C   0  0  0  0  0  0
  -26.0532  -26.9477   19.4757 C   0  0  0  0  0  0
  -24.8642  -27.6988   19.4949 C   0  0  0  0  0  0
  -23.6124  -29.8264   20.1673 C   0  0  0  0  0  0
  -25.4109  -36.3104   24.0341 C   0  0  1  0  0  0
  -20.5858  -28.3659   23.1314 C   0  0  2  0  0  0
  -20.6759  -26.9399   22.5408 C   0  0  0  0  0  0
  -19.5741  -26.6375   21.5203 C   0  0  0  0  0  0
  -18.1920  -26.7916   22.1618 C   0  0  0  0  0  0
  -19.1514  -28.8832   23.2893 C   0  0  0  0  0  0
  -18.9442  -30.1437   23.8903 C   0  0  0  0  0  0
  -17.6445  -30.6577   24.0554 C   0  0  0  0  0  0
  -25.9039  -34.9469   23.5131 C   0  0  0  0  0  0
  -16.5334  -29.9074   23.6333 C   0  0  0  0  0  0
  -16.7252  -28.6492   23.0353 C   0  0  0  0  0  0
  -26.4468  -31.6588   25.0739 C   0  0  0  0  0  0
  -25.3739  -31.3701   26.1497 C   0  0  0  0  0  0
  -27.0283  -30.3025   24.6119 C   0  0  0  0  0  0
  -27.6066  -32.4282   25.7492 C   0  0  0  0  0  0
  -27.5584  -37.1810   24.8459 C   0  0  0  0  0  0
  -21.4141  -29.3031   22.3738 N   0  0  0  0  0  0
  -26.4290  -37.3791   23.9413 N   0  0  0  0  0  0
  -24.6703  -31.0773   22.1018 N   0  0  0  0  0  0
  -23.4184  -28.8197   23.3040 O   0  0  0  0  0  0
  -28.3775  -26.6582   20.1014 O   0  0  0  0  0  0
  -26.5590  -34.8918   22.4684 O   0  0  0  0  0  0
  -23.5353  -32.1439   23.7497 O   0  0  0  0  0  0
  -31.6482  -18.6924   21.0479 C   0  0  0  0  0  0
  -31.5485  -20.0294   20.6109 C   0  0  0  0  0  0
  -29.1371  -19.8954   20.7690 C   0  0  0  0  0  0
  -30.5009  -17.9376   21.3733 C   0  0  0  0  0  0
  -29.2286  -18.5480   21.2086 C   0  0  0  0  0  0
  -30.2920  -20.6661   20.4925 C   0  0  0  0  0  0
  -29.0886  -24.2008   19.9847 C   0  0  0  0  0  0
  -29.4079  -23.0467   20.6484 C   0  0  0  0  0  0
  -29.5329  -24.3633   18.5704 C   0  0  0  0  0  0
  -30.2068  -23.1678   17.8966 C   0  0  0  0  0  0
  -31.0056  -22.3274   18.8991 C   0  0  0  0  0  0
  -27.9500  -17.7968   21.5349 C   0  0  0  0  0  0
  -28.9645  -22.8261   22.0938 C   0  0  0  0  0  0
  -30.7052  -16.5532   22.0171 C   0  0  0  0  0  0
  -28.2120  -25.3119   20.6075 C   0  0  0  0  0  0
  -30.2046  -22.0256   20.0877 N   0  0  0  0  0  0
  -30.0919  -15.3828   21.3783 N   0  0  0  0  0  0
  -29.3640  -25.3807   17.8920 O   0  0  0  0  0  0
  -31.4680  -12.4397   19.1003 H   0  0  0  0  0  0
  -30.3404  -11.3117   19.7977 H   0  0  0  0  0  0
  -29.7348  -11.7989   17.4137 H   0  0  0  0  0  0
  -29.6506  -13.5067   17.7623 H   0  0  0  0  0  0
  -27.8327  -11.3123   18.8119 H   0  0  0  0  0  0
  -27.3593  -12.6401   17.7848 H   0  0  0  0  0  0
  -27.7063  -14.2576   19.5786 H   0  0  0  0  0  0
  -28.6874  -11.9418   21.3155 H   0  0  0  0  0  0
  -28.4524  -13.5619   21.8761 H   0  0  0  0  0  0
  -25.2768   -9.5686   22.4764 H   0  0  0  0  0  0
  -24.0028   -7.4618   22.7458 H   0  0  0  0  0  0
  -21.0858   -8.8772   19.8946 H   0  0  0  0  0  0
  -22.3717  -10.9674   19.6163 H   0  0  0  0  0  0
  -21.1972   -7.6147   23.9740 H   0  0  0  0  0  0
  -21.1487   -6.0506   25.9094 H   0  0  0  0  0  0
  -22.0593   -2.7613   23.2826 H   0  0  0  0  0  0
  -22.4058  -11.9902   22.4832 H   0  0  0  0  0  0
  -21.1092  -13.1287   22.2596 H   0  0  0  0  0  0
  -24.6552  -15.8384   20.5113 H   0  0  0  0  0  0
  -26.2747  -15.6269   20.0719 H   0  0  0  0  0  0
  -26.7128  -32.5521   23.1177 H   0  0  0  0  0  0
  -25.0108  -33.9779   25.0517 H   0  0  0  0  0  0
  -22.6921  -31.3091   21.4148 H   0  0  0  0  0  0
  -23.3751  -35.9649   23.3274 H   0  0  0  0  0  0
  -24.3602  -36.8949   22.2054 H   0  0  0  0  0  0
  -23.7242  -37.6515   23.6651 H   0  0  0  0  0  0
  -26.0475  -31.5956   20.5974 H   0  0  0  0  0  0
  -26.8231  -30.8828   21.9838 H   0  0  0  0  0  0
  -28.1038  -29.0911   21.1625 H   0  0  0  0  0  0
  -26.0494  -25.9923   18.9697 H   0  0  0  0  0  0
  -23.9723  -27.3066   19.0249 H   0  0  0  0  0  0
  -23.7225  -30.6027   19.4088 H   0  0  0  0  0  0
  -22.7361  -29.2476   19.8701 H   0  0  0  0  0  0
  -25.1279  -36.1969   25.0834 H   0  0  0  0  0  0
  -20.9935  -28.3211   24.1438 H   0  0  0  0  0  0
  -20.5656  -26.2268   23.3590 H   0  0  0  0  0  0
  -21.6632  -26.7446   22.1201 H   0  0  0  0  0  0
  -19.6902  -25.6285   21.1239 H   0  0  0  0  0  0
  -19.6687  -27.3179   20.6727 H   0  0  0  0  0  0
  -17.4194  -26.6648   21.4019 H   0  0  0  0  0  0
  -18.0330  -26.0052   22.9012 H   0  0  0  0  0  0
  -19.7914  -30.7242   24.2285 H   0  0  0  0  0  0
  -17.4999  -31.6263   24.5143 H   0  0  0  0  0  0
  -15.5336  -30.2974   23.7658 H   0  0  0  0  0  0
  -15.8649  -28.0809   22.7075 H   0  0  0  0  0  0
  -24.5891  -30.7074   25.7824 H   0  0  0  0  0  0
  -24.8962  -32.2866   26.4974 H   0  0  0  0  0  0
  -25.8102  -30.8835   27.0235 H   0  0  0  0  0  0
  -26.2827  -29.6802   24.1156 H   0  0  0  0  0  0
  -27.4018  -29.7243   25.4579 H   0  0  0  0  0  0
  -27.8680  -30.4323   23.9290 H   0  0  0  0  0  0
  -27.2722  -33.3583   26.2096 H   0  0  0  0  0  0
  -28.3873  -32.6832   25.0310 H   0  0  0  0  0  0
  -28.0736  -31.8377   26.5388 H   0  0  0  0  0  0
  -28.2586  -38.0121   24.7526 H   0  0  0  0  0  0
  -28.1095  -36.2656   24.6252 H   0  0  0  0  0  0
  -27.2312  -37.1421   25.8864 H   0  0  0  0  0  0
  -20.9298  -29.8780   21.6985 H   0  0  0  0  0  0
  -26.0177  -38.2869   24.1409 H   0  0  0  0  0  0
  -32.6305  -18.2588   21.1705 H   0  0  0  0  0  0
  -32.4586  -20.5764   20.4077 H   0  0  0  0  0  0
  -28.1654  -20.3565   20.6610 H   0  0  0  0  0  0
  -30.8541  -23.5110   17.0893 H   0  0  0  0  0  0
  -29.4269  -22.5564   17.4440 H   0  0  0  0  0  0
  -31.9033  -22.8668   19.2046 H   0  0  0  0  0  0
  -31.3444  -21.4205   18.3956 H   0  0  0  0  0  0
  -27.0714  -18.4346   21.4315 H   0  0  0  0  0  0
  -27.9667  -17.4250   22.5595 H   0  0  0  0  0  0
  -27.8241  -16.9503   20.8606 H   0  0  0  0  0  0
  -29.3412  -23.6287   22.7280 H   0  0  0  0  0  0
  -29.3283  -21.9023   22.5394 H   0  0  0  0  0  0
  -27.8765  -22.8206   22.1619 H   0  0  0  0  0  0
  -30.3032  -16.6086   23.0294 H   0  0  0  0  0  0
  -31.7715  -16.3689   22.1582 H   0  0  0  0  0  0
  -28.4151  -25.3794   21.6755 H   0  0  0  0  0  0
  -27.1871  -24.9491   20.5414 H   0  0  0  0  0  0
  -29.1692  -15.1321   21.6966 H   0  0  0  0  0  0
  1 25  1  0  0  0
  1 30  2  0  0  0
  1 87  1  0  0  0
  2  3  1  0  0  0
  2 25  1  0  0  0
  2 89  1  0  0  0
  2 90  1  0  0  0
  3  4  1  0  0  0
  3 91  1  0  0  0
  3 92  1  0  0  0
  4  5  1  0  0  0
  4 93  1  0  0  0
  4 94  1  0  0  0
  5  6  1  0  0  0
  5 26  1  0  0  0
  5 95  1  0  0  0
  6 25  1  0  0  0
  6 96  1  0  0  0
  6 97  1  0  0  0
  7  8  2  0  0  0
  7 26  1  0  0  0
  7 29  1  0  0  0
  8  9  1  0  0  0
  8 22  1  0  0  0
  9 10  1  0  0  0
  9 27  2  0  0  0
 10 11  2  0  0  0
 10 15  1  0  0  0
 11 12  1  0  0  0
 11 98  1  0  0  0
 12 13  2  0  0  0
 12 99  1  0  0  0
 13 14  1  0  0  0
 13 31  1  0  0  0
 14 15  2  0  0  0
 14100  1  0  0  0
 15101  1  0  0  0
 16 17  2  0  0  0
 16 21  1  0  0  0
 16 31  1  0  0  0
 17 18  1  0  0  0
 17102  1  0  0  0
 18 19  2  0  0  0
 18103  1  0  0  0
 19 20  1  0  0  0
 19 24  1  0  0  0
 20 21  2  0  0  0
 20104  1  0  0  0
 21 23  1  0  0  0
 22 28  1  0  0  0
 22 32  2  0  0  0
 26 27  1  0  0  0
 28105  1  0  0  0
 28106  1  0  0  0
 29107  1  0  0  0
 29108  1  0  0  0
 33 34  1  0  0  0
 33 66  1  0  0  0
 33 70  2  0  0  0
 34 36  1  0  0  0
 34 59  1  0  0  0
 34109  1  0  0  0
 35 44  2  0  0  0
 35 45  1  0  0  0
 35 68  1  0  0  0
 36 56  1  0  0  0
 36110  1  0  0  0
 37 39  1  0  0  0
 37 47  1  0  0  0
 37 66  1  0  0  0
 37111  1  0  0  0
 38 43  2  0  0  0
 38 46  1  0  0  0
 38 47  1  0  0  0
 39 64  1  0  0  0
 39 67  2  0  0  0
 40 52  1  0  0  0
 40 53  2  0  0  0
 40 58  1  0  0  0
 41112  1  0  0  0
 41113  1  0  0  0
 41114  1  0  0  0
 41 48  1  0  0  0
 42 43  1  0  0  0
 42 66  1  0  0  0
 42115  1  0  0  0
 42116  1  0  0  0
 43 44  1  0  0  0
 44117  1  0  0  0
 45 46  2  0  0  0
 45118  1  0  0  0
 46119  1  0  0  0
 47120  1  0  0  0
 47121  1  0  0  0
 48 56  1  0  0  0
 48 65  1  0  0  0
 48122  1  0  0  0
 49 50  1  0  0  0
 49 53  1  0  0  0
 49 64  1  0  0  0
 49123  1  0  0  0
 50 51  1  0  0  0
 50124  1  0  0  0
 50125  1  0  0  0
 51 52  1  0  0  0
 51126  1  0  0  0
 51127  1  0  0  0
 52128  1  0  0  0
 52129  1  0  0  0
 53 54  1  0  0  0
 54 55  2  0  0  0
 54130  1  0  0  0
 55 57  1  0  0  0
 55131  1  0  0  0
 56 69  2  0  0  0
 57 58  2  0  0  0
 57132  1  0  0  0
 58133  1  0  0  0
 59 60  1  0  0  0
 59 61  1  0  0  0
 59 62  1  0  0  0
 60134  1  0  0  0
 60135  1  0  0  0
 60136  1  0  0  0
 61137  1  0  0  0
 61138  1  0  0  0
 61139  1  0  0  0
 62140  1  0  0  0
 62141  1  0  0  0
 62142  1  0  0  0
 63 65  1  0  0  0
 63143  1  0  0  0
 63144  1  0  0  0
 63145  1  0  0  0
 64146  1  0  0  0
 65147  1  0  0  0
 68 85  1  0  0  0
 71 72  2  0  0  0
 71 74  1  0  0  0
 71148  1  0  0  0
 72 76  1  0  0  0
 72149  1  0  0  0
 73 75  1  0  0  0
 73 76  2  0  0  0
 73150  1  0  0  0
 74 75  2  0  0  0
 74 84  1  0  0  0
 75 82  1  0  0  0
 76 86  1  0  0  0
 77 78  2  0  0  0
 77 79  1  0  0  0
 77 85  1  0  0  0
 78 83  1  0  0  0
 78 86  1  0  0  0
 79 80  1  0  0  0
 79 88  2  0  0  0
 80 81  1  0  0  0
 80151  1  0  0  0
 80152  1  0  0  0
 81 86  1  0  0  0
 81153  1  0  0  0
 81154  1  0  0  0
 82155  1  0  0  0
 82156  1  0  0  0
 82157  1  0  0  0
 83158  1  0  0  0
 83159  1  0  0  0
 83160  1  0  0  0
 84 87  1  0  0  0
 84161  1  0  0  0
 84162  1  0  0  0
 85163  1  0  0  0
 85164  1  0  0  0
 87165  1  0  0  0
M  ISO  4   1 100  68 101  85 101  87 100
M  END
> <chiral flag>
0

> <version>
0

> <s_m_source_file>
/data/baiqing/PycharmProjects/Reinvent-master-3.2/result/LINK_invent/BTK/process_docking_weight1_custom_product_contain_oxygen_bond_distance_aromatic_linkinvent_7_9_3/rearranged_h_0104.sdf

> <i_m_source_file_index>
5

> <r_mmod_Potential_Energy-OPLS-2005>
-60.4753036499023

> <r_mmod_Stretch_Energy-OPLS-2005>
46.177303314209

> <r_mmod_Bend_Energy-OPLS-2005>
105.815635681152

> <r_mmod_Torsional_Energy-OPLS-2005>
209.592803955078

> <r_mmod_Improper_Torsional_Energy-OPLS-2005>
2.98563432693481

> <r_mmod_Van_der_Waal_Energy-OPLS-2005>
175.120742797852

> <r_mmod_Electrostatic_Energy-OPLS-2005>
-388.318450927734

> <r_mmod_Solvation_Energy-OPLS-2005>
-224.614486694336

> <b_mmod_Minimization_Converged-OPLS-2005>
0

> <r_mmod_RMS_Derivative-OPLS-2005>
1.5125937461853

$$$$
5
                    3D
 Structure written by MMmdl.
164172  0  0  1  0            999 V2000
  -30.6584  -14.5457   20.4917 C   0  0  0  0  0  0
  -30.4169  -12.3253   19.4491 C   0  0  0  0  0  0
  -29.4957  -12.4756   18.2191 C   0  0  0  0  0  0
  -28.0190  -12.3320   18.6354 C   0  0  0  0  0  0
  -27.6518  -13.2069   19.8639 C   0  0  2  0  0  0
  -28.6918  -13.0465   20.9976 C   0  0  0  0  0  0
  -25.2561  -13.8156   20.5666 C   0  0  0  0  0  0
  -24.1806  -13.0440   20.9208 C   0  0  0  0  0  0
  -24.6344  -11.6906   20.8756 C   0  0  0  0  0  0
  -23.9004  -10.4301   21.0410 C   0  0  0  0  0  0
  -24.3574   -9.4226   21.9182 C   0  0  0  0  0  0
  -23.6280   -8.2246   22.0740 C   0  0  0  0  0  0
  -22.4266   -8.0262   21.3527 C   0  0  0  0  0  0
  -21.9891   -9.0228   20.4626 C   0  0  0  0  0  0
  -22.7182  -10.2130   20.3053 C   0  0  0  0  0  0
  -21.6855   -6.0728   22.5278 C   0  0  0  0  0  0
  -21.3992   -6.5636   23.8202 C   0  0  0  0  0  0
  -21.3665   -5.6796   24.9177 C   0  0  0  0  0  0
  -21.6059   -4.3058   24.7231 C   0  0  0  0  0  0
  -21.8819   -3.8142   23.4351 C   0  0  0  0  0  0
  -21.9190   -4.6959   22.3400 C   0  0  0  0  0  0
  -22.7843  -13.5258   21.1892 C   0  0  0  0  0  0
  -22.1666   -4.2143   21.0979 F   0  0  0  0  0  0
  -21.5650   -3.4540   25.7747 F   0  0  0  0  0  0
  -30.0157  -13.3456   20.4353 N   0  0  0  0  0  0
  -26.2959  -12.9310   20.3311 N   0  0  0  0  0  0
  -25.9262  -11.6475   20.5755 N   0  0  0  0  0  0
  -22.0456  -12.8240   22.0432 N   0  0  0  0  0  0
  -25.4341  -15.1844   20.4004 N   0  0  0  0  0  0
  -31.8246  -14.6757   20.1079 O   0  0  0  0  0  0
  -21.6641   -6.8856   21.4226 O   0  0  0  0  0  0
  -22.3550  -14.5591   20.6784 O   0  0  0  0  0  0
  -24.6217  -31.8649   23.2102 C   0  0  0  0  0  0
  -25.9113  -32.4771   23.8416 C   0  0  1  0  0  0
  -27.2339  -27.3888   20.0962 C   0  0  0  0  0  0
  -25.5935  -33.8580   24.2331 N   0  0  0  0  0  0
  -23.4091  -30.4859   21.5512 C   0  0  2  0  0  0
  -24.8543  -28.9479   20.1138 C   0  0  0  0  0  0
  -22.7440  -29.4642   22.5038 C   0  0  0  0  0  0
  -18.0267  -28.1285   22.8443 C   0  0  0  0  0  0
  -24.1508  -36.7293   23.2653 C   0  0  0  0  0  0
  -25.9426  -30.8181   21.3742 C   0  0  0  0  0  0
  -26.0196  -29.4527   20.7041 C   0  0  0  0  0  0
  -27.2132  -28.6836   20.6827 C   0  0  0  0  0  0
  -26.0476  -26.9217   19.4826 C   0  0  0  0  0  0
  -24.8654  -27.6874   19.4950 C   0  0  0  0  0  0
  -23.6178  -29.8163   20.1679 C   0  0  0  0  0  0
  -25.4130  -36.3075   24.0336 C   0  0  1  0  0  0
  -20.5849  -28.3615   23.1285 C   0  0  2  0  0  0
  -20.6738  -26.9374   22.5376 C   0  0  0  0  0  0
  -19.5733  -26.6329   21.5154 C   0  0  0  0  0  0
  -18.1906  -26.7818   22.1560 C   0  0  0  0  0  0
  -19.1514  -28.8764   23.2818 C   0  0  0  0  0  0
  -18.9466  -30.1358   23.8841 C   0  0  0  0  0  0
  -17.6478  -30.6513   24.0513 C   0  0  0  0  0  0
  -25.9059  -34.9438   23.5121 C   0  0  0  0  0  0
  -16.5363  -29.9005   23.6311 C   0  0  0  0  0  0
  -16.7255  -28.6402   23.0353 C   0  0  0  0  0  0
  -26.4536  -31.6581   25.0753 C   0  0  0  0  0  0
  -25.3810  -31.3706   26.1498 C   0  0  0  0  0  0
  -27.0441  -30.3011   24.6228 C   0  0  0  0  0  0
  -27.6060  -32.4373   25.7499 C   0  0  0  0  0  0
  -27.5598  -37.1785   24.8456 C   0  0  0  0  0  0
  -21.4167  -29.3005   22.3731 N   0  0  0  0  0  0
  -26.4312  -37.3756   23.9391 N   0  0  0  0  0  0
  -24.6734  -31.0746   22.1008 N   0  0  0  0  0  0
  -23.4190  -28.8269   23.3155 O   0  0  0  0  0  0
  -28.3912  -26.6150   20.1522 O   0  0  0  0  0  0
  -26.5615  -34.8876   22.4679 O   0  0  0  0  0  0
  -23.5393  -32.1445   23.7490 O   0  0  0  0  0  0
  -30.7035  -19.5207   23.0305 C   0  0  0  0  0  0
  -29.4154  -19.4752   20.5639 C   0  0  0  0  0  0
  -30.6527  -18.3087   22.3050 C   0  0  0  0  0  0
  -30.0206  -18.2608   21.0343 C   0  0  0  0  0  0
  -30.1458  -20.7227   22.5286 C   0  0  0  0  0  0
  -29.4779  -20.7038   21.2842 C   0  0  0  0  0  0
  -31.3255  -17.0903   22.9224 C   0  0  0  0  0  0
  -29.2727  -17.0863   18.8425 C   0  0  0  0  0  0
  -30.9884  -21.9945   24.3919 C   0  0  0  0  0  0
  -29.4289  -24.3545   20.6064 C   0  0  0  0  0  0
  -28.2903  -25.1804   19.9257 C   0  0  0  0  0  0
  -29.6304  -22.8612   20.1590 C   0  0  0  0  0  0
  -30.1093  -16.9847   20.1292 C   0  0  2  0  0  0
  -29.8770  -15.6356   20.7214 N   0  0  0  0  0  0
  -30.2057  -21.9275   23.2022 O   0  0  0  0  0  0
  -28.8333  -21.8553   20.8278 O   0  0  0  0  0  0
  -31.4629  -12.4179   19.1512 H   0  0  0  0  0  0
  -30.3169  -11.3277   19.8769 H   0  0  0  0  0  0
  -29.7422  -11.7206   17.4712 H   0  0  0  0  0  0
  -29.6622  -13.4412   17.7397 H   0  0  0  0  0  0
  -27.8586  -11.2809   18.8807 H   0  0  0  0  0  0
  -27.3580  -12.5502   17.7956 H   0  0  0  0  0  0
  -27.6775  -14.2409   19.5209 H   0  0  0  0  0  0
  -28.6766  -12.0283   21.3906 H   0  0  0  0  0  0
  -28.4570  -13.6974   21.8406 H   0  0  0  0  0  0
  -25.2698   -9.5753   22.4768 H   0  0  0  0  0  0
  -24.0016   -7.4652   22.7458 H   0  0  0  0  0  0
  -21.0831   -8.8704   19.8929 H   0  0  0  0  0  0
  -22.3589  -10.9664   19.6185 H   0  0  0  0  0  0
  -21.1949   -7.6136   23.9701 H   0  0  0  0  0  0
  -21.1501   -6.0528   25.9082 H   0  0  0  0  0  0
  -22.0590   -2.7601   23.2847 H   0  0  0  0  0  0
  -22.4051  -11.9913   22.4856 H   0  0  0  0  0  0
  -21.1051  -13.1256   22.2567 H   0  0  0  0  0  0
  -24.6736  -15.8484   20.4922 H   0  0  0  0  0  0
  -26.2852  -15.6044   20.0490 H   0  0  0  0  0  0
  -26.7234  -32.5435   23.1220 H   0  0  0  0  0  0
  -24.9985  -33.9727   25.0407 H   0  0  0  0  0  0
  -22.6958  -31.3000   21.4104 H   0  0  0  0  0  0
  -23.3737  -35.9650   23.3300 H   0  0  0  0  0  0
  -24.3596  -36.8940   22.2070 H   0  0  0  0  0  0
  -23.7305  -37.6507   23.6685 H   0  0  0  0  0  0
  -26.0894  -31.6131   20.6416 H   0  0  0  0  0  0
  -26.8130  -30.8419   22.0176 H   0  0  0  0  0  0
  -28.1137  -29.0714   21.1386 H   0  0  0  0  0  0
  -26.0089  -25.9600   18.9902 H   0  0  0  0  0  0
  -23.9699  -27.2991   19.0303 H   0  0  0  0  0  0
  -23.7278  -30.5920   19.4095 H   0  0  0  0  0  0
  -22.7391  -29.2390   19.8707 H   0  0  0  0  0  0
  -25.1308  -36.1947   25.0824 H   0  0  0  0  0  0
  -20.9849  -28.3166   24.1440 H   0  0  0  0  0  0
  -20.5589  -26.2291   23.3592 H   0  0  0  0  0  0
  -21.6633  -26.7393   22.1246 H   0  0  0  0  0  0
  -19.6969  -25.6242   21.1211 H   0  0  0  0  0  0
  -19.6635  -27.3101   20.6652 H   0  0  0  0  0  0
  -17.4195  -26.6551   21.3938 H   0  0  0  0  0  0
  -18.0294  -25.9923   22.8917 H   0  0  0  0  0  0
  -19.7996  -30.7091   24.2223 H   0  0  0  0  0  0
  -17.5100  -31.6210   24.5085 H   0  0  0  0  0  0
  -15.5365  -30.2888   23.7675 H   0  0  0  0  0  0
  -15.8656  -28.0681   22.7139 H   0  0  0  0  0  0
  -24.5934  -30.7100   25.7852 H   0  0  0  0  0  0
  -24.9072  -32.2894   26.4964 H   0  0  0  0  0  0
  -25.8197  -30.8862   27.0235 H   0  0  0  0  0  0
  -26.3047  -29.6654   24.1352 H   0  0  0  0  0  0
  -27.4246  -29.7375   25.4763 H   0  0  0  0  0  0
  -27.8857  -30.4257   23.9405 H   0  0  0  0  0  0
  -27.2597  -33.3636   26.2077 H   0  0  0  0  0  0
  -28.3836  -32.7015   25.0317 H   0  0  0  0  0  0
  -28.0754  -31.8532   26.5418 H   0  0  0  0  0  0
  -28.2585  -38.0113   24.7481 H   0  0  0  0  0  0
  -28.1123  -36.2630   24.6292 H   0  0  0  0  0  0
  -27.2282  -37.1424   25.8851 H   0  0  0  0  0  0
  -20.9361  -29.8761   21.6961 H   0  0  0  0  0  0
  -26.0198  -38.2822   24.1383 H   0  0  0  0  0  0
  -31.2008  -19.5107   23.9883 H   0  0  0  0  0  0
  -28.8962  -19.5004   19.6195 H   0  0  0  0  0  0
  -31.7835  -17.3373   23.8795 H   0  0  0  0  0  0
  -32.1069  -16.6982   22.2710 H   0  0  0  0  0  0
  -30.6043  -16.2973   23.1234 H   0  0  0  0  0  0
  -29.6388  -17.9000   18.2177 H   0  0  0  0  0  0
  -28.2200  -17.2654   19.0618 H   0  0  0  0  0  0
  -29.3372  -16.1802   18.2376 H   0  0  0  0  0  0
  -31.0636  -23.0297   24.7300 H   0  0  0  0  0  0
  -32.0020  -21.6201   24.2308 H   0  0  0  0  0  0
  -30.5329  -21.4196   25.1987 H   0  0  0  0  0  0
  -29.3351  -24.3966   21.6919 H   0  0  0  0  0  0
  -30.3596  -24.8796   20.3813 H   0  0  0  0  0  0
  -27.3447  -24.7937   20.3050 H   0  0  0  0  0  0
  -28.3021  -25.0140   18.8466 H   0  0  0  0  0  0
  -30.6902  -22.6267   20.2787 H   0  0  0  0  0  0
  -29.4390  -22.7820   19.0873 H   0  0  0  0  0  0
  -31.1456  -17.0096   19.7906 H   0  0  0  0  0  0
  -28.9464  -15.4599   21.0694 H   0  0  0  0  0  0
  1 25  1  0  0  0
  1 30  2  0  0  0
  1 84  1  0  0  0
  2  3  1  0  0  0
  2 25  1  0  0  0
  2 87  1  0  0  0
  2 88  1  0  0  0
  3  4  1  0  0  0
  3 89  1  0  0  0
  3 90  1  0  0  0
  4  5  1  0  0  0
  4 91  1  0  0  0
  4 92  1  0  0  0
  5  6  1  0  0  0
  5 26  1  0  0  0
  5 93  1  0  0  0
  6 25  1  0  0  0
  6 94  1  0  0  0
  6 95  1  0  0  0
  7  8  2  0  0  0
  7 26  1  0  0  0
  7 29  1  0  0  0
  8  9  1  0  0  0
  8 22  1  0  0  0
  9 10  1  0  0  0
  9 27  2  0  0  0
 10 11  2  0  0  0
 10 15  1  0  0  0
 11 12  1  0  0  0
 11 96  1  0  0  0
 12 13  2  0  0  0
 12 97  1  0  0  0
 13 14  1  0  0  0
 13 31  1  0  0  0
 14 15  2  0  0  0
 14 98  1  0  0  0
 15 99  1  0  0  0
 16 17  2  0  0  0
 16 21  1  0  0  0
 16 31  1  0  0  0
 17 18  1  0  0  0
 17100  1  0  0  0
 18 19  2  0  0  0
 18101  1  0  0  0
 19 20  1  0  0  0
 19 24  1  0  0  0
 20 21  2  0  0  0
 20102  1  0  0  0
 21 23  1  0  0  0
 22 28  1  0  0  0
 22 32  2  0  0  0
 26 27  1  0  0  0
 28103  1  0  0  0
 28104  1  0  0  0
 29105  1  0  0  0
 29106  1  0  0  0
 33 34  1  0  0  0
 33 66  1  0  0  0
 33 70  2  0  0  0
 34 36  1  0  0  0
 34 59  1  0  0  0
 34107  1  0  0  0
 35 44  2  0  0  0
 35 45  1  0  0  0
 35 68  1  0  0  0
 36 56  1  0  0  0
 36108  1  0  0  0
 37 39  1  0  0  0
 37 47  1  0  0  0
 37 66  1  0  0  0
 37109  1  0  0  0
 38 43  2  0  0  0
 38 46  1  0  0  0
 38 47  1  0  0  0
 39 64  1  0  0  0
 39 67  2  0  0  0
 40 52  1  0  0  0
 40 53  2  0  0  0
 40 58  1  0  0  0
 41110  1  0  0  0
 41111  1  0  0  0
 41112  1  0  0  0
 41 48  1  0  0  0
 42 43  1  0  0  0
 42 66  1  0  0  0
 42113  1  0  0  0
 42114  1  0  0  0
 43 44  1  0  0  0
 44115  1  0  0  0
 45 46  2  0  0  0
 45116  1  0  0  0
 46117  1  0  0  0
 47118  1  0  0  0
 47119  1  0  0  0
 48 56  1  0  0  0
 48 65  1  0  0  0
 48120  1  0  0  0
 49 50  1  0  0  0
 49 53  1  0  0  0
 49 64  1  0  0  0
 49121  1  0  0  0
 50 51  1  0  0  0
 50122  1  0  0  0
 50123  1  0  0  0
 51 52  1  0  0  0
 51124  1  0  0  0
 51125  1  0  0  0
 52126  1  0  0  0
 52127  1  0  0  0
 53 54  1  0  0  0
 54 55  2  0  0  0
 54128  1  0  0  0
 55 57  1  0  0  0
 55129  1  0  0  0
 56 69  2  0  0  0
 57 58  2  0  0  0
 57130  1  0  0  0
 58131  1  0  0  0
 59 60  1  0  0  0
 59 61  1  0  0  0
 59 62  1  0  0  0
 60132  1  0  0  0
 60133  1  0  0  0
 60134  1  0  0  0
 61135  1  0  0  0
 61136  1  0  0  0
 61137  1  0  0  0
 62138  1  0  0  0
 62139  1  0  0  0
 62140  1  0  0  0
 63 65  1  0  0  0
 63141  1  0  0  0
 63142  1  0  0  0
 63143  1  0  0  0
 64144  1  0  0  0
 65145  1  0  0  0
 68 81  1  0  0  0
 71 73  2  0  0  0
 71 75  1  0  0  0
 71146  1  0  0  0
 72 74  2  0  0  0
 72 76  1  0  0  0
 72147  1  0  0  0
 73 74  1  0  0  0
 73 77  1  0  0  0
 74 83  1  0  0  0
 75 76  2  0  0  0
 75 85  1  0  0  0
 76 86  1  0  0  0
 77148  1  0  0  0
 77149  1  0  0  0
 77150  1  0  0  0
 78151  1  0  0  0
 78152  1  0  0  0
 78153  1  0  0  0
 78 83  1  0  0  0
 79 85  1  0  0  0
 79154  1  0  0  0
 79155  1  0  0  0
 79156  1  0  0  0
 80 81  1  0  0  0
 80 82  1  0  0  0
 80157  1  0  0  0
 80158  1  0  0  0
 81159  1  0  0  0
 81160  1  0  0  0
 82 86  1  0  0  0
 82161  1  0  0  0
 82162  1  0  0  0
 83 84  1  0  0  0
 83163  1  0  0  0
 84164  1  0  0  0
M  ISO  4   1 100  68 101  81 101  84 100
M  END
> <chiral flag>
0

> <version>
0

> <s_m_source_file>
/data/baiqing/PycharmProjects/Reinvent-master-3.2/result/LINK_invent/BTK/process_docking_weight1_custom_product_contain_oxygen_bond_distance_aromatic_linkinvent_7_9_3/rearranged_h_0104.sdf

> <i_m_source_file_index>
6

> <r_mmod_Potential_Energy-OPLS-2005>
-7.70432996749878

> <r_mmod_Stretch_Energy-OPLS-2005>
57.5285415649414

> <r_mmod_Bend_Energy-OPLS-2005>
125.831924438477

> <r_mmod_Torsional_Energy-OPLS-2005>
246.31640625

> <r_mmod_Improper_Torsional_Energy-OPLS-2005>
8.35643005371094

> <r_mmod_Van_der_Waal_Energy-OPLS-2005>
159.740219116211

> <r_mmod_Electrostatic_Energy-OPLS-2005>
-417.782562255859

> <r_mmod_Solvation_Energy-OPLS-2005>
-213.743667602539

> <b_mmod_Minimization_Converged-OPLS-2005>
0

> <r_mmod_RMS_Derivative-OPLS-2005>
4.53916454315186

$$$$
6
                    3D
 Structure written by MMmdl.
161170  0  0  1  0            999 V2000
  -30.7170  -14.4651   20.5956 C   0  0  0  0  0  0
  -30.4138  -12.3150   19.4168 C   0  0  0  0  0  0
  -29.4832  -12.5108   18.2022 C   0  0  0  0  0  0
  -28.0059  -12.3697   18.6147 C   0  0  0  0  0  0
  -27.6555  -13.2103   19.8722 C   0  0  2  0  0  0
  -28.6965  -12.9975   20.9929 C   0  0  0  0  0  0
  -25.2544  -13.8174   20.5680 C   0  0  0  0  0  0
  -24.1801  -13.0449   20.9143 C   0  0  0  0  0  0
  -24.6362  -11.6915   20.8735 C   0  0  0  0  0  0
  -23.9052  -10.4293   21.0396 C   0  0  0  0  0  0
  -24.3615   -9.4213   21.9176 C   0  0  0  0  0  0
  -23.6280   -8.2259   22.0764 C   0  0  0  0  0  0
  -22.4266   -8.0289   21.3558 C   0  0  0  0  0  0
  -21.9897   -9.0265   20.4660 C   0  0  0  0  0  0
  -22.7225  -10.2133   20.3051 C   0  0  0  0  0  0
  -21.6850   -6.0730   22.5280 C   0  0  0  0  0  0
  -21.4006   -6.5640   23.8211 C   0  0  0  0  0  0
  -21.3664   -5.6798   24.9181 C   0  0  0  0  0  0
  -21.6049   -4.3064   24.7220 C   0  0  0  0  0  0
  -21.8822   -3.8145   23.4349 C   0  0  0  0  0  0
  -21.9185   -4.6958   22.3398 C   0  0  0  0  0  0
  -22.7828  -13.5245   21.1808 C   0  0  0  0  0  0
  -22.1666   -4.2149   21.0972 F   0  0  0  0  0  0
  -21.5634   -3.4540   25.7730 F   0  0  0  0  0  0
  -30.0254  -13.3043   20.4349 N   0  0  0  0  0  0
  -26.2967  -12.9355   20.3342 N   0  0  0  0  0  0
  -25.9290  -11.6518   20.5773 N   0  0  0  0  0  0
  -22.0484  -12.8224   22.0363 N   0  0  0  0  0  0
  -25.4307  -15.1889   20.4161 N   0  0  0  0  0  0
  -31.8387  -14.6411   20.1087 O   0  0  0  0  0  0
  -21.6652   -6.8870   21.4240 O   0  0  0  0  0  0
  -22.3522  -14.5565   20.6671 O   0  0  0  0  0  0
  -24.6160  -31.8666   23.2040 C   0  0  0  0  0  0
  -25.9038  -32.4827   23.8374 C   0  0  1  0  0  0
  -27.2452  -27.4142   20.0856 C   0  0  0  0  0  0
  -25.5878  -33.8613   24.2312 N   0  0  0  0  0  0
  -23.4076  -30.4852   21.5457 C   0  0  2  0  0  0
  -24.8546  -28.9443   20.1090 C   0  0  0  0  0  0
  -22.7436  -29.4640   22.4977 C   0  0  0  0  0  0
  -18.0301  -28.1368   22.8453 C   0  0  0  0  0  0
  -24.1481  -36.7334   23.2641 C   0  0  0  0  0  0
  -25.9358  -30.8195   21.3612 C   0  0  0  0  0  0
  -26.0111  -29.4488   20.7159 C   0  0  0  0  0  0
  -27.2009  -28.6832   20.7123 C   0  0  0  0  0  0
  -26.0723  -26.9358   19.4578 C   0  0  0  0  0  0
  -24.8819  -27.6879   19.4780 C   0  0  0  0  0  0
  -23.6166  -29.8110   20.1618 C   0  0  0  0  0  0
  -25.4101  -36.3128   24.0342 C   0  0  1  0  0  0
  -20.5878  -28.3664   23.1295 C   0  0  2  0  0  0
  -20.6774  -26.9377   22.5446 C   0  0  0  0  0  0
  -19.5797  -26.6358   21.5205 C   0  0  0  0  0  0
  -18.1973  -26.7905   22.1597 C   0  0  0  0  0  0
  -19.1538  -28.8831   23.2878 C   0  0  0  0  0  0
  -18.9448  -30.1426   23.8907 C   0  0  0  0  0  0
  -17.6444  -30.6558   24.0557 C   0  0  0  0  0  0
  -25.9026  -34.9489   23.5145 C   0  0  0  0  0  0
  -16.5346  -29.9071   23.6279 C   0  0  0  0  0  0
  -16.7281  -28.6490   23.0297 C   0  0  0  0  0  0
  -26.4444  -31.6612   25.0711 C   0  0  0  0  0  0
  -25.3692  -31.3734   26.1456 C   0  0  0  0  0  0
  -27.0280  -30.3061   24.6088 C   0  0  0  0  0  0
  -27.6033  -32.4310   25.7474 C   0  0  0  0  0  0
  -27.5584  -37.1823   24.8461 C   0  0  0  0  0  0
  -21.4164  -29.3026   22.3710 N   0  0  0  0  0  0
  -26.4303  -37.3802   23.9405 N   0  0  0  0  0  0
  -24.6718  -31.0748   22.0950 N   0  0  0  0  0  0
  -23.4203  -28.8221   23.3057 O   0  0  0  0  0  0
  -28.4256  -26.6921   20.1446 O   0  0  0  0  0  0
  -26.5603  -34.8940   22.4713 O   0  0  0  0  0  0
  -23.5343  -32.1426   23.7410 O   0  0  0  0  0  0
  -29.8876  -18.5791   20.2407 C   0  0  0  0  0  0
  -29.3914  -19.8975   20.0815 C   0  0  0  0  0  0
  -29.5982  -18.7865   22.6279 C   0  0  0  0  0  0
  -30.0176  -18.0146   21.5262 C   0  0  0  0  0  0
  -29.1140  -20.1101   22.4816 C   0  0  0  0  0  0
  -29.0079  -20.7147   21.1854 C   0  0  0  0  0  0
  -28.8795  -22.9118   19.9301 C   0  0  0  0  0  0
  -27.3233  -24.1684   21.2053 C   0  0  0  0  0  0
  -27.4512  -22.7241   21.7146 C   0  0  0  0  0  0
  -27.9719  -24.1585   19.8309 C   0  0  1  0  0  0
  -28.7959  -20.8349   23.7791 C   0  0  0  0  0  0
  -30.7310  -16.6737   21.7679 C   0  0  0  0  0  0
  -28.6363  -25.5004   19.3569 C   0  0  0  0  0  0
  -28.5263  -22.0801   20.9475 N   0  0  0  0  0  0
  -30.0868  -15.4488   21.2659 N   0  0  0  0  0  0
  -29.8121  -22.7304   19.1413 O   0  0  0  0  0  0
  -31.4581  -12.4071   19.1119 H   0  0  0  0  0  0
  -30.3118  -11.3082   19.8257 H   0  0  0  0  0  0
  -29.7257  -11.7929   17.4162 H   0  0  0  0  0  0
  -29.6437  -13.5000   17.7712 H   0  0  0  0  0  0
  -27.8070  -11.3133   18.7977 H   0  0  0  0  0  0
  -27.3604  -12.6582   17.7833 H   0  0  0  0  0  0
  -27.7020  -14.2584   19.5764 H   0  0  0  0  0  0
  -28.6735  -11.9647   21.3419 H   0  0  0  0  0  0
  -28.4524  -13.6002   21.8691 H   0  0  0  0  0  0
  -25.2772   -9.5688   22.4742 H   0  0  0  0  0  0
  -24.0004   -7.4651   22.7477 H   0  0  0  0  0  0
  -21.0842   -8.8775   19.8957 H   0  0  0  0  0  0
  -22.3699  -10.9676   19.6160 H   0  0  0  0  0  0
  -21.2015   -7.6154   23.9709 H   0  0  0  0  0  0
  -21.1481   -6.0531   25.9076 H   0  0  0  0  0  0
  -22.0592   -2.7601   23.2845 H   0  0  0  0  0  0
  -22.4136  -11.9897   22.4754 H   0  0  0  0  0  0
  -21.1113  -13.1250   22.2615 H   0  0  0  0  0  0
  -24.6691  -15.8474   20.5355 H   0  0  0  0  0  0
  -26.2954  -15.6310   20.1288 H   0  0  0  0  0  0
  -26.7120  -32.5523   23.1153 H   0  0  0  0  0  0
  -25.0004  -33.9760   25.0448 H   0  0  0  0  0  0
  -22.6968  -31.3012   21.3980 H   0  0  0  0  0  0
  -23.3736  -35.9673   23.3318 H   0  0  0  0  0  0
  -24.3581  -36.8923   22.2047 H   0  0  0  0  0  0
  -23.7216  -37.6541   23.6643 H   0  0  0  0  0  0
  -26.0379  -31.5695   20.5754 H   0  0  0  0  0  0
  -26.8303  -30.8920   21.9693 H   0  0  0  0  0  0
  -28.0922  -29.0602   21.1961 H   0  0  0  0  0  0
  -26.0592  -25.9812   18.9553 H   0  0  0  0  0  0
  -23.9955  -27.2981   18.9933 H   0  0  0  0  0  0
  -23.7246  -30.5781   19.3948 H   0  0  0  0  0  0
  -22.7426  -29.2254   19.8678 H   0  0  0  0  0  0
  -25.1266  -36.2029   25.0832 H   0  0  0  0  0  0
  -20.9962  -28.3243   24.1416 H   0  0  0  0  0  0
  -20.5596  -26.2282   23.3655 H   0  0  0  0  0  0
  -21.6654  -26.7335   22.1314 H   0  0  0  0  0  0
  -19.6984  -25.6276   21.1230 H   0  0  0  0  0  0
  -19.6782  -27.3165   20.6730 H   0  0  0  0  0  0
  -17.4294  -26.6656   21.3949 H   0  0  0  0  0  0
  -18.0354  -26.0040   22.8988 H   0  0  0  0  0  0
  -19.7947  -30.7180   24.2330 H   0  0  0  0  0  0
  -17.4978  -31.6207   24.5203 H   0  0  0  0  0  0
  -15.5323  -30.2953   23.7570 H   0  0  0  0  0  0
  -15.8687  -28.0803   22.6997 H   0  0  0  0  0  0
  -24.5870  -30.7076   25.7795 H   0  0  0  0  0  0
  -24.8872  -32.2893   26.4889 H   0  0  0  0  0  0
  -25.8020  -30.8915   27.0236 H   0  0  0  0  0  0
  -26.2841  -29.6839   24.1099 H   0  0  0  0  0  0
  -27.4019  -29.7275   25.4547 H   0  0  0  0  0  0
  -27.8682  -30.4404   23.9266 H   0  0  0  0  0  0
  -27.2690  -33.3612   26.2090 H   0  0  0  0  0  0
  -28.3838  -32.6862   25.0289 H   0  0  0  0  0  0
  -28.0728  -31.8402   26.5358 H   0  0  0  0  0  0
  -28.2623  -38.0104   24.7503 H   0  0  0  0  0  0
  -28.1068  -36.2637   24.6308 H   0  0  0  0  0  0
  -27.2317  -37.1488   25.8872 H   0  0  0  0  0  0
  -20.9360  -29.8684   21.6855 H   0  0  0  0  0  0
  -26.0214  -38.2907   24.1351 H   0  0  0  0  0  0
  -30.2038  -18.0187   19.3704 H   0  0  0  0  0  0
  -29.3220  -20.2761   19.0708 H   0  0  0  0  0  0
  -29.6969  -18.3655   23.6209 H   0  0  0  0  0  0
  -27.8576  -24.8527   21.8661 H   0  0  0  0  0  0
  -26.2835  -24.4935   21.1705 H   0  0  0  0  0  0
  -26.5254  -22.1653   21.5667 H   0  0  0  0  0  0
  -27.6329  -22.7964   22.7781 H   0  0  0  0  0  0
  -27.2022  -23.8958   19.1046 H   0  0  0  0  0  0
  -29.1402  -20.2743   24.6491 H   0  0  0  0  0  0
  -27.7197  -20.9608   23.9013 H   0  0  0  0  0  0
  -29.2993  -21.8010   23.8150 H   0  0  0  0  0  0
  -31.7408  -16.7822   21.3705 H   0  0  0  0  0  0
  -30.8712  -16.5338   22.8397 H   0  0  0  0  0  0
  -29.7189  -25.3686   19.3280 H   0  0  0  0  0  0
  -28.3696  -25.7137   18.3204 H   0  0  0  0  0  0
  -29.1533  -15.2533   21.5926 H   0  0  0  0  0  0
  1 25  1  0  0  0
  1 30  2  0  0  0
  1 85  1  0  0  0
  2  3  1  0  0  0
  2 25  1  0  0  0
  2 87  1  0  0  0
  2 88  1  0  0  0
  3  4  1  0  0  0
  3 89  1  0  0  0
  3 90  1  0  0  0
  4  5  1  0  0  0
  4 91  1  0  0  0
  4 92  1  0  0  0
  5  6  1  0  0  0
  5 26  1  0  0  0
  5 93  1  0  0  0
  6 25  1  0  0  0
  6 94  1  0  0  0
  6 95  1  0  0  0
  7  8  2  0  0  0
  7 26  1  0  0  0
  7 29  1  0  0  0
  8  9  1  0  0  0
  8 22  1  0  0  0
  9 10  1  0  0  0
  9 27  2  0  0  0
 10 11  2  0  0  0
 10 15  1  0  0  0
 11 12  1  0  0  0
 11 96  1  0  0  0
 12 13  2  0  0  0
 12 97  1  0  0  0
 13 14  1  0  0  0
 13 31  1  0  0  0
 14 15  2  0  0  0
 14 98  1  0  0  0
 15 99  1  0  0  0
 16 17  2  0  0  0
 16 21  1  0  0  0
 16 31  1  0  0  0
 17 18  1  0  0  0
 17100  1  0  0  0
 18 19  2  0  0  0
 18101  1  0  0  0
 19 20  1  0  0  0
 19 24  1  0  0  0
 20 21  2  0  0  0
 20102  1  0  0  0
 21 23  1  0  0  0
 22 28  1  0  0  0
 22 32  2  0  0  0
 26 27  1  0  0  0
 28103  1  0  0  0
 28104  1  0  0  0
 29105  1  0  0  0
 29106  1  0  0  0
 33 34  1  0  0  0
 33 66  1  0  0  0
 33 70  2  0  0  0
 34 36  1  0  0  0
 34 59  1  0  0  0
 34107  1  0  0  0
 35 44  2  0  0  0
 35 45  1  0  0  0
 35 68  1  0  0  0
 36 56  1  0  0  0
 36108  1  0  0  0
 37 39  1  0  0  0
 37 47  1  0  0  0
 37 66  1  0  0  0
 37109  1  0  0  0
 38 43  2  0  0  0
 38 46  1  0  0  0
 38 47  1  0  0  0
 39 64  1  0  0  0
 39 67  2  0  0  0
 40 52  1  0  0  0
 40 53  2  0  0  0
 40 58  1  0  0  0
 41110  1  0  0  0
 41111  1  0  0  0
 41112  1  0  0  0
 41 48  1  0  0  0
 42 43  1  0  0  0
 42 66  1  0  0  0
 42113  1  0  0  0
 42114  1  0  0  0
 43 44  1  0  0  0
 44115  1  0  0  0
 45 46  2  0  0  0
 45116  1  0  0  0
 46117  1  0  0  0
 47118  1  0  0  0
 47119  1  0  0  0
 48 56  1  0  0  0
 48 65  1  0  0  0
 48120  1  0  0  0
 49 50  1  0  0  0
 49 53  1  0  0  0
 49 64  1  0  0  0
 49121  1  0  0  0
 50 51  1  0  0  0
 50122  1  0  0  0
 50123  1  0  0  0
 51 52  1  0  0  0
 51124  1  0  0  0
 51125  1  0  0  0
 52126  1  0  0  0
 52127  1  0  0  0
 53 54  1  0  0  0
 54 55  2  0  0  0
 54128  1  0  0  0
 55 57  1  0  0  0
 55129  1  0  0  0
 56 69  2  0  0  0
 57 58  2  0  0  0
 57130  1  0  0  0
 58131  1  0  0  0
 59 60  1  0  0  0
 59 61  1  0  0  0
 59 62  1  0  0  0
 60132  1  0  0  0
 60133  1  0  0  0
 60134  1  0  0  0
 61135  1  0  0  0
 61136  1  0  0  0
 61137  1  0  0  0
 62138  1  0  0  0
 62139  1  0  0  0
 62140  1  0  0  0
 63 65  1  0  0  0
 63141  1  0  0  0
 63142  1  0  0  0
 63143  1  0  0  0
 64144  1  0  0  0
 65145  1  0  0  0
 68 83  1  0  0  0
 71 72  2  0  0  0
 71 74  1  0  0  0
 71146  1  0  0  0
 72 76  1  0  0  0
 72147  1  0  0  0
 73 74  2  0  0  0
 73 75  1  0  0  0
 73148  1  0  0  0
 74 82  1  0  0  0
 75 76  2  0  0  0
 75 81  1  0  0  0
 76 84  1  0  0  0
 77 80  1  0  0  0
 77 84  1  0  0  0
 77 86  2  0  0  0
 78 79  1  0  0  0
 78 80  1  0  0  0
 78149  1  0  0  0
 78150  1  0  0  0
 79 84  1  0  0  0
 79151  1  0  0  0
 79152  1  0  0  0
 80 83  1  0  0  0
 80153  1  0  0  0
 81154  1  0  0  0
 81155  1  0  0  0
 81156  1  0  0  0
 82 85  1  0  0  0
 82157  1  0  0  0
 82158  1  0  0  0
 83159  1  0  0  0
 83160  1  0  0  0
 85161  1  0  0  0
M  ISO  4   1 100  68 101  83 101  85 100
M  END
> <chiral flag>
0

> <version>
0

> <s_m_source_file>
/data/baiqing/PycharmProjects/Reinvent-master-3.2/result/LINK_invent/BTK/process_docking_weight1_custom_product_contain_oxygen_bond_distance_aromatic_linkinvent_7_9_3/rearranged_h_0104.sdf

> <i_m_source_file_index>
7

> <r_mmod_Potential_Energy-OPLS-2005>
23.949125289917

> <r_mmod_Stretch_Energy-OPLS-2005>
50.4520072937012

> <r_mmod_Bend_Energy-OPLS-2005>
153.449752807617

> <r_mmod_Torsional_Energy-OPLS-2005>
258.457702636719

> <r_mmod_Improper_Torsional_Energy-OPLS-2005>
2.8979914188385

> <r_mmod_Van_der_Waal_Energy-OPLS-2005>
157.757781982422

> <r_mmod_Electrostatic_Energy-OPLS-2005>
-396.008178710938

> <r_mmod_Solvation_Energy-OPLS-2005>
-218.022979736328

> <b_mmod_Minimization_Converged-OPLS-2005>
0

> <r_mmod_RMS_Derivative-OPLS-2005>
3.06052112579346

$$$$
7
                    3D
 Structure written by MMmdl.
169177  0  0  1  0            999 V2000
  -30.7069  -14.4810   20.6172 C   0  0  0  0  0  0
  -30.4207  -12.3394   19.4068 C   0  0  0  0  0  0
  -29.4842  -12.5327   18.1935 C   0  0  0  0  0  0
  -28.0049  -12.3773   18.6006 C   0  0  0  0  0  0
  -27.6587  -13.1877   19.8764 C   0  0  2  0  0  0
  -28.7028  -12.8912   20.9739 C   0  0  0  0  0  0
  -25.2603  -13.8133   20.5677 C   0  0  0  0  0  0
  -24.1837  -13.0446   20.9161 C   0  0  0  0  0  0
  -24.6343  -11.6900   20.8701 C   0  0  0  0  0  0
  -23.9019  -10.4290   21.0376 C   0  0  0  0  0  0
  -24.3604   -9.4221   21.9160 C   0  0  0  0  0  0
  -23.6296   -8.2244   22.0750 C   0  0  0  0  0  0
  -22.4277   -8.0263   21.3535 C   0  0  0  0  0  0
  -21.9894   -9.0229   20.4638 C   0  0  0  0  0  0
  -22.7196  -10.2122   20.3031 C   0  0  0  0  0  0
  -21.6845   -6.0725   22.5275 C   0  0  0  0  0  0
  -21.3992   -6.5638   23.8200 C   0  0  0  0  0  0
  -21.3665   -5.6805   24.9178 C   0  0  0  0  0  0
  -21.6045   -4.3059   24.7231 C   0  0  0  0  0  0
  -21.8809   -3.8146   23.4350 C   0  0  0  0  0  0
  -21.9202   -4.6962   22.3407 C   0  0  0  0  0  0
  -22.7869  -13.5261   21.1846 C   0  0  0  0  0  0
  -22.1712   -4.2153   21.0993 F   0  0  0  0  0  0
  -21.5654   -3.4543   25.7747 F   0  0  0  0  0  0
  -30.0140  -13.3056   20.4526 N   0  0  0  0  0  0
  -26.2997  -12.9252   20.3348 N   0  0  0  0  0  0
  -25.9249  -11.6433   20.5721 N   0  0  0  0  0  0
  -22.0542  -12.8207   22.0386 N   0  0  0  0  0  0
  -25.4362  -15.1851   20.4113 N   0  0  0  0  0  0
  -31.8354  -14.5809   20.1224 O   0  0  0  0  0  0
  -21.6645   -6.8859   21.4224 O   0  0  0  0  0  0
  -22.3544  -14.5578   20.6715 O   0  0  0  0  0  0
  -24.6123  -31.8688   23.2124 C   0  0  0  0  0  0
  -25.9027  -32.4828   23.8409 C   0  0  1  0  0  0
  -27.2408  -27.4562   20.0915 C   0  0  0  0  0  0
  -25.5892  -33.8629   24.2335 N   0  0  0  0  0  0
  -23.4012  -30.4905   21.5518 C   0  0  2  0  0  0
  -24.8507  -28.9548   20.1191 C   0  0  0  0  0  0
  -22.7399  -29.4654   22.5004 C   0  0  0  0  0  0
  -18.0267  -28.1377   22.8494 C   0  0  0  0  0  0
  -24.1484  -36.7315   23.2650 C   0  0  0  0  0  0
  -25.9274  -30.8374   21.3655 C   0  0  0  0  0  0
  -26.0075  -29.4711   20.7178 C   0  0  0  0  0  0
  -27.2073  -28.7261   20.7074 C   0  0  0  0  0  0
  -26.0726  -26.9448   19.4934 C   0  0  0  0  0  0
  -24.8753  -27.6875   19.5082 C   0  0  0  0  0  0
  -23.6106  -29.8195   20.1676 C   0  0  0  0  0  0
  -25.4111  -36.3112   24.0341 C   0  0  1  0  0  0
  -20.5850  -28.3667   23.1332 C   0  0  2  0  0  0
  -20.6746  -26.9401   22.5439 C   0  0  0  0  0  0
  -19.5735  -26.6381   21.5222 C   0  0  0  0  0  0
  -18.1907  -26.7929   22.1612 C   0  0  0  0  0  0
  -19.1513  -28.8838   23.2908 C   0  0  0  0  0  0
  -18.9445  -30.1443   23.8920 C   0  0  0  0  0  0
  -17.6450  -30.6584   24.0580 C   0  0  0  0  0  0
  -25.9033  -34.9480   23.5133 C   0  0  0  0  0  0
  -16.5341  -29.9091   23.6331 C   0  0  0  0  0  0
  -16.7258  -28.6507   23.0351 C   0  0  0  0  0  0
  -26.4470  -31.6608   25.0729 C   0  0  0  0  0  0
  -25.3744  -31.3670   26.1470 C   0  0  0  0  0  0
  -27.0335  -30.3063   24.6103 C   0  0  0  0  0  0
  -27.6036  -32.4342   25.7495 C   0  0  0  0  0  0
  -27.5578  -37.1814   24.8467 C   0  0  0  0  0  0
  -21.4129  -29.3023   22.3732 N   0  0  0  0  0  0
  -26.4294  -37.3793   23.9408 N   0  0  0  0  0  0
  -24.6649  -31.0801   22.1020 N   0  0  0  0  0  0
  -23.4169  -28.8205   23.3056 O   0  0  0  0  0  0
  -28.3981  -26.7203   20.0348 O   0  0  0  0  0  0
  -26.5597  -34.8927   22.4696 O   0  0  0  0  0  0
  -23.5321  -32.1434   23.7529 O   0  0  0  0  0  0
  -32.1379  -18.6159   23.7775 C   0  0  0  0  0  0
  -31.4752  -19.8543   23.7774 C   0  0  0  0  0  0
  -30.3027  -19.2289   21.7430 C   0  0  0  0  0  0
  -31.8946  -17.6727   22.7593 C   0  0  0  0  0  0
  -30.9388  -17.9603   21.7492 C   0  0  0  0  0  0
  -30.5765  -20.1887   22.7495 C   0  0  0  0  0  0
  -32.6948  -16.3821   22.7758 C   0  0  0  0  0  0
  -27.8920  -15.1203   24.2243 C   0  0  0  0  0  0
  -30.5901  -16.9539   20.6414 C   0  0  0  0  0  0
  -29.1926  -15.2746   23.4258 C   0  0  0  0  0  0
  -28.9187  -24.4436   20.7569 C   0  0  0  0  0  0
  -29.2998  -23.5490   21.9550 C   0  0  0  0  0  0
  -28.9259  -15.7620   21.9873 C   0  0  0  0  0  0
  -28.6428  -25.9027   21.1784 C   0  0  0  0  0  0
  -29.5441  -22.0614   21.6216 C   0  0  0  0  0  0
  -30.0832  -15.6209   21.0755 N   0  0  0  0  0  0
  -30.0094  -21.4432   22.8178 O   0  0  0  0  0  0
  -31.4598  -12.4509   19.0894 H   0  0  0  0  0  0
  -30.3526  -11.3167   19.7814 H   0  0  0  0  0  0
  -29.7318  -11.8210   17.4057 H   0  0  0  0  0  0
  -29.6376  -13.5249   17.7637 H   0  0  0  0  0  0
  -27.8119  -11.3182   18.7733 H   0  0  0  0  0  0
  -27.3561  -12.6738   17.7760 H   0  0  0  0  0  0
  -27.7179  -14.2405   19.6036 H   0  0  0  0  0  0
  -28.7133  -11.8175   21.1727 H   0  0  0  0  0  0
  -28.4379  -13.2955   21.9410 H   0  0  0  0  0  0
  -25.2770   -9.5715   22.4696 H   0  0  0  0  0  0
  -24.0005   -7.4657   22.7495 H   0  0  0  0  0  0
  -21.0803   -8.8716   19.8972 H   0  0  0  0  0  0
  -22.3643  -10.9640   19.6121 H   0  0  0  0  0  0
  -21.1950   -7.6147   23.9689 H   0  0  0  0  0  0
  -21.1519   -6.0554   25.9078 H   0  0  0  0  0  0
  -22.0572   -2.7602   23.2855 H   0  0  0  0  0  0
  -22.4202  -11.9861   22.4715 H   0  0  0  0  0  0
  -21.1149  -13.1181   22.2617 H   0  0  0  0  0  0
  -24.6781  -15.8463   20.5420 H   0  0  0  0  0  0
  -26.2958  -15.6219   20.1022 H   0  0  0  0  0  0
  -26.7107  -32.5557   23.1184 H   0  0  0  0  0  0
  -25.0035  -33.9800   25.0474 H   0  0  0  0  0  0
  -22.6884  -31.3065   21.4117 H   0  0  0  0  0  0
  -23.3749  -35.9643   23.3313 H   0  0  0  0  0  0
  -24.3566  -36.8940   22.2062 H   0  0  0  0  0  0
  -23.7233  -37.6517   23.6673 H   0  0  0  0  0  0
  -26.0361  -31.6016   20.5947 H   0  0  0  0  0  0
  -26.8160  -30.8942   21.9824 H   0  0  0  0  0  0
  -28.1041  -29.1243   21.1612 H   0  0  0  0  0  0
  -26.0937  -25.9757   19.0156 H   0  0  0  0  0  0
  -23.9859  -27.2830   19.0449 H   0  0  0  0  0  0
  -23.7180  -30.5938   19.4068 H   0  0  0  0  0  0
  -22.7350  -29.2378   19.8728 H   0  0  0  0  0  0
  -25.1287  -36.1984   25.0834 H   0  0  0  0  0  0
  -20.9946  -28.3236   24.1449 H   0  0  0  0  0  0
  -20.5632  -26.2278   23.3627 H   0  0  0  0  0  0
  -21.6623  -26.7418   22.1256 H   0  0  0  0  0  0
  -19.6898  -25.6297   21.1232 H   0  0  0  0  0  0
  -19.6684  -27.3200   20.6761 H   0  0  0  0  0  0
  -17.4193  -26.6724   21.3991 H   0  0  0  0  0  0
  -18.0270  -26.0048   22.8977 H   0  0  0  0  0  0
  -19.7919  -30.7253   24.2302 H   0  0  0  0  0  0
  -17.5002  -31.6260   24.5192 H   0  0  0  0  0  0
  -15.5341  -30.3006   23.7632 H   0  0  0  0  0  0
  -15.8657  -28.0834   22.7053 H   0  0  0  0  0  0
  -24.5972  -30.6951   25.7800 H   0  0  0  0  0  0
  -24.8860  -32.2799   26.4890 H   0  0  0  0  0  0
  -25.8119  -30.8881   27.0239 H   0  0  0  0  0  0
  -26.2882  -29.6793   24.1193 H   0  0  0  0  0  0
  -27.4156  -29.7329   25.4560 H   0  0  0  0  0  0
  -27.8685  -30.4403   23.9221 H   0  0  0  0  0  0
  -27.2636  -33.3619   26.2114 H   0  0  0  0  0  0
  -28.3816  -32.6952   25.0306 H   0  0  0  0  0  0
  -28.0745  -31.8454   26.5377 H   0  0  0  0  0  0
  -28.2614  -38.0096   24.7507 H   0  0  0  0  0  0
  -28.1059  -36.2627   24.6308 H   0  0  0  0  0  0
  -27.2295  -37.1498   25.8873 H   0  0  0  0  0  0
  -20.9296  -29.8757   21.6961 H   0  0  0  0  0  0
  -26.0187  -38.2872   24.1415 H   0  0  0  0  0  0
  -32.8501  -18.4018   24.5630 H   0  0  0  0  0  0
  -31.6817  -20.5702   24.5609 H   0  0  0  0  0  0
  -29.5914  -19.4535   20.9612 H   0  0  0  0  0  0
  -33.5588  -16.4599   23.4364 H   0  0  0  0  0  0
  -33.0754  -16.1529   21.7816 H   0  0  0  0  0  0
  -32.0899  -15.5465   23.1245 H   0  0  0  0  0  0
  -28.0937  -14.7503   25.2303 H   0  0  0  0  0  0
  -27.2145  -14.4111   23.7479 H   0  0  0  0  0  0
  -27.3628  -16.0701   24.3131 H   0  0  0  0  0  0
  -31.4591  -16.9032   19.9835 H   0  0  0  0  0  0
  -29.8111  -17.3820   20.0085 H   0  0  0  0  0  0
  -29.7280  -14.3252   23.4320 H   0  0  0  0  0  0
  -29.8451  -15.9842   23.9361 H   0  0  0  0  0  0
  -28.0408  -24.0366   20.2539 H   0  0  0  0  0  0
  -29.7285  -24.4271   20.0263 H   0  0  0  0  0  0
  -28.5183  -23.6122   22.7129 H   0  0  0  0  0  0
  -30.2002  -23.9572   22.4161 H   0  0  0  0  0  0
  -28.6150  -16.8051   22.0573 H   0  0  0  0  0  0
  -28.0419  -15.3080   21.5557 H   0  0  0  0  0  0
  -29.5106  -26.3074   21.6997 H   0  0  0  0  0  0
  -27.8126  -25.9310   21.8882 H   0  0  0  0  0  0
  -30.2887  -21.9646   20.8293 H   0  0  0  0  0  0
  -28.6220  -21.5875   21.2842 H   0  0  0  0  0  0
  1 25  1  0  0  0
  1 30  2  0  0  0
  1 86  1  0  0  0
  2  3  1  0  0  0
  2 25  1  0  0  0
  2 88  1  0  0  0
  2 89  1  0  0  0
  3  4  1  0  0  0
  3 90  1  0  0  0
  3 91  1  0  0  0
  4  5  1  0  0  0
  4 92  1  0  0  0
  4 93  1  0  0  0
  5  6  1  0  0  0
  5 26  1  0  0  0
  5 94  1  0  0  0
  6 25  1  0  0  0
  6 95  1  0  0  0
  6 96  1  0  0  0
  7  8  2  0  0  0
  7 26  1  0  0  0
  7 29  1  0  0  0
  8  9  1  0  0  0
  8 22  1  0  0  0
  9 10  1  0  0  0
  9 27  2  0  0  0
 10 11  2  0  0  0
 10 15  1  0  0  0
 11 12  1  0  0  0
 11 97  1  0  0  0
 12 13  2  0  0  0
 12 98  1  0  0  0
 13 14  1  0  0  0
 13 31  1  0  0  0
 14 15  2  0  0  0
 14 99  1  0  0  0
 15100  1  0  0  0
 16 17  2  0  0  0
 16 21  1  0  0  0
 16 31  1  0  0  0
 17 18  1  0  0  0
 17101  1  0  0  0
 18 19  2  0  0  0
 18102  1  0  0  0
 19 20  1  0  0  0
 19 24  1  0  0  0
 20 21  2  0  0  0
 20103  1  0  0  0
 21 23  1  0  0  0
 22 28  1  0  0  0
 22 32  2  0  0  0
 26 27  1  0  0  0
 28104  1  0  0  0
 28105  1  0  0  0
 29106  1  0  0  0
 29107  1  0  0  0
 33 34  1  0  0  0
 33 66  1  0  0  0
 33 70  2  0  0  0
 34 36  1  0  0  0
 34 59  1  0  0  0
 34108  1  0  0  0
 35 44  2  0  0  0
 35 45  1  0  0  0
 35 68  1  0  0  0
 36 56  1  0  0  0
 36109  1  0  0  0
 37 39  1  0  0  0
 37 47  1  0  0  0
 37 66  1  0  0  0
 37110  1  0  0  0
 38 43  2  0  0  0
 38 46  1  0  0  0
 38 47  1  0  0  0
 39 64  1  0  0  0
 39 67  2  0  0  0
 40 52  1  0  0  0
 40 53  2  0  0  0
 40 58  1  0  0  0
 41111  1  0  0  0
 41112  1  0  0  0
 41113  1  0  0  0
 41 48  1  0  0  0
 42 43  1  0  0  0
 42 66  1  0  0  0
 42114  1  0  0  0
 42115  1  0  0  0
 43 44  1  0  0  0
 44116  1  0  0  0
 45 46  2  0  0  0
 45117  1  0  0  0
 46118  1  0  0  0
 47119  1  0  0  0
 47120  1  0  0  0
 48 56  1  0  0  0
 48 65  1  0  0  0
 48121  1  0  0  0
 49 50  1  0  0  0
 49 53  1  0  0  0
 49 64  1  0  0  0
 49122  1  0  0  0
 50 51  1  0  0  0
 50123  1  0  0  0
 50124  1  0  0  0
 51 52  1  0  0  0
 51125  1  0  0  0
 51126  1  0  0  0
 52127  1  0  0  0
 52128  1  0  0  0
 53 54  1  0  0  0
 54 55  2  0  0  0
 54129  1  0  0  0
 55 57  1  0  0  0
 55130  1  0  0  0
 56 69  2  0  0  0
 57 58  2  0  0  0
 57131  1  0  0  0
 58132  1  0  0  0
 59 60  1  0  0  0
 59 61  1  0  0  0
 59 62  1  0  0  0
 60133  1  0  0  0
 60134  1  0  0  0
 60135  1  0  0  0
 61136  1  0  0  0
 61137  1  0  0  0
 61138  1  0  0  0
 62139  1  0  0  0
 62140  1  0  0  0
 62141  1  0  0  0
 63 65  1  0  0  0
 63142  1  0  0  0
 63143  1  0  0  0
 63144  1  0  0  0
 64145  1  0  0  0
 65146  1  0  0  0
 68 84  1  0  0  0
 71 72  2  0  0  0
 71 74  1  0  0  0
 71147  1  0  0  0
 72 76  1  0  0  0
 72148  1  0  0  0
 73 75  1  0  0  0
 73 76  2  0  0  0
 73149  1  0  0  0
 74 75  2  0  0  0
 74 77  1  0  0  0
 75 79  1  0  0  0
 76 87  1  0  0  0
 77150  1  0  0  0
 77151  1  0  0  0
 77152  1  0  0  0
 78 80  1  0  0  0
 78153  1  0  0  0
 78154  1  0  0  0
 78155  1  0  0  0
 79 86  1  0  0  0
 79156  1  0  0  0
 79157  1  0  0  0
 80 83  1  0  0  0
 80158  1  0  0  0
 80159  1  0  0  0
 81 82  1  0  0  0
 81 84  1  0  0  0
 81160  1  0  0  0
 81161  1  0  0  0
 82 85  1  0  0  0
 82162  1  0  0  0
 82163  1  0  0  0
 83 86  1  0  0  0
 83164  1  0  0  0
 83165  1  0  0  0
 84166  1  0  0  0
 84167  1  0  0  0
 85 87  1  0  0  0
 85168  1  0  0  0
 85169  1  0  0  0
M  ISO  4   1 100  68 101  84 101  86 100
M  END
> <chiral flag>
0

> <version>
0

> <s_m_source_file>
/data/baiqing/PycharmProjects/Reinvent-master-3.2/result/LINK_invent/BTK/process_docking_weight1_custom_product_contain_oxygen_bond_distance_aromatic_linkinvent_7_9_3/rearranged_h_0104.sdf

> <i_m_source_file_index>
8

> <r_mmod_Potential_Energy-OPLS-2005>
126.535400390625

> <r_mmod_Stretch_Energy-OPLS-2005>
44.1802825927734

> <r_mmod_Bend_Energy-OPLS-2005>
132.057601928711

> <r_mmod_Torsional_Energy-OPLS-2005>
279.956085205078

> <r_mmod_Improper_Torsional_Energy-OPLS-2005>
6.1809983253479

> <r_mmod_Van_der_Waal_Energy-OPLS-2005>
160.649642944336

> <r_mmod_Electrostatic_Energy-OPLS-2005>
-321.438140869141

> <r_mmod_Solvation_Energy-OPLS-2005>
-187.496246337891

> <b_mmod_Minimization_Converged-OPLS-2005>
0

> <r_mmod_RMS_Derivative-OPLS-2005>
1.95943999290466

$$$$
9
                    3D
 Structure written by MMmdl.
162170  0  0  1  0            999 V2000
  -30.6351  -14.7836   20.5002 C   0  0  0  0  0  0
  -30.4303  -12.4920   19.4814 C   0  0  0  0  0  0
  -29.5142  -12.5382   18.2371 C   0  0  0  0  0  0
  -28.0404  -12.3434   18.6408 C   0  0  0  0  0  0
  -27.6406  -13.2333   19.8457 C   0  0  2  0  0  0
  -28.6790  -13.1509   20.9797 C   0  0  0  0  0  0
  -25.2525  -13.8191   20.5682 C   0  0  0  0  0  0
  -24.1817  -13.0435   20.9180 C   0  0  0  0  0  0
  -24.6405  -11.6911   20.8714 C   0  0  0  0  0  0
  -23.9076  -10.4289   21.0378 C   0  0  0  0  0  0
  -24.3626   -9.4209   21.9166 C   0  0  0  0  0  0
  -23.6301   -8.2243   22.0744 C   0  0  0  0  0  0
  -22.4285   -8.0272   21.3534 C   0  0  0  0  0  0
  -21.9916   -9.0240   20.4636 C   0  0  0  0  0  0
  -22.7241  -10.2122   20.3033 C   0  0  0  0  0  0
  -21.6856   -6.0727   22.5266 C   0  0  0  0  0  0
  -21.4020   -6.5636   23.8200 C   0  0  0  0  0  0
  -21.3664   -5.6793   24.9163 C   0  0  0  0  0  0
  -21.6046   -4.3055   24.7219 C   0  0  0  0  0  0
  -21.8817   -3.8142   23.4341 C   0  0  0  0  0  0
  -21.9196   -4.6953   22.3398 C   0  0  0  0  0  0
  -22.7848  -13.5220   21.1844 C   0  0  0  0  0  0
  -22.1663   -4.2138   21.0975 F   0  0  0  0  0  0
  -21.5629   -3.4544   25.7732 F   0  0  0  0  0  0
  -29.9798  -13.5579   20.4199 N   0  0  0  0  0  0
  -26.2931  -12.9392   20.3223 N   0  0  0  0  0  0
  -25.9328  -11.6532   20.5687 N   0  0  0  0  0  0
  -22.0506  -12.8207   22.0406 N   0  0  0  0  0  0
  -25.4271  -15.1917   20.4140 N   0  0  0  0  0  0
  -31.8076  -14.8161   20.1098 O   0  0  0  0  0  0
  -21.6646   -6.8867   21.4227 O   0  0  0  0  0  0
  -22.3524  -14.5517   20.6681 O   0  0  0  0  0  0
  -24.6337  -31.8526   23.1972 C   0  0  0  0  0  0
  -25.9158  -32.4739   23.8326 C   0  0  1  0  0  0
  -27.2222  -27.2525   20.1342 C   0  0  0  0  0  0
  -25.5954  -33.8540   24.2255 N   0  0  0  0  0  0
  -23.4326  -30.4748   21.5389 C   0  0  2  0  0  0
  -24.8839  -28.9198   20.1090 C   0  0  0  0  0  0
  -22.7517  -29.4590   22.4887 C   0  0  0  0  0  0
  -18.0300  -28.1381   22.8478 C   0  0  0  0  0  0
  -24.1495  -36.7273   23.2640 C   0  0  0  0  0  0
  -25.9798  -30.7621   21.3808 C   0  0  0  0  0  0
  -26.0558  -29.3835   20.7231 C   0  0  0  0  0  0
  -27.2318  -28.5613   20.7269 C   0  0  0  0  0  0
  -26.0315  -26.8581   19.4908 C   0  0  0  0  0  0
  -24.8769  -27.6647   19.4807 C   0  0  0  0  0  0
  -23.6541  -29.8073   20.1557 C   0  0  0  0  0  0
  -25.4119  -36.3054   24.0328 C   0  0  1  0  0  0
  -20.5905  -28.3696   23.1250 C   0  0  2  0  0  0
  -20.6784  -26.9407   22.5399 C   0  0  0  0  0  0
  -19.5762  -26.6373   21.5202 C   0  0  0  0  0  0
  -18.1942  -26.7926   22.1613 C   0  0  0  0  0  0
  -19.1554  -28.8859   23.2858 C   0  0  0  0  0  0
  -18.9475  -30.1459   23.8873 C   0  0  0  0  0  0
  -17.6473  -30.6581   24.0556 C   0  0  0  0  0  0
  -25.9061  -34.9426   23.5086 C   0  0  0  0  0  0
  -16.5365  -29.9072   23.6338 C   0  0  0  0  0  0
  -16.7285  -28.6494   23.0355 C   0  0  0  0  0  0
  -26.4521  -31.6565   25.0718 C   0  0  0  0  0  0
  -25.3750  -31.3716   26.1440 C   0  0  0  0  0  0
  -27.0381  -30.2981   24.6226 C   0  0  0  0  0  0
  -27.6067  -32.4309   25.7499 C   0  0  0  0  0  0
  -27.5578  -37.1792   24.8463 C   0  0  0  0  0  0
  -21.4226  -29.3039   22.3634 N   0  0  0  0  0  0
  -26.4287  -37.3757   23.9410 N   0  0  0  0  0  0
  -24.7005  -31.0485   22.0949 N   0  0  0  0  0  0
  -23.4207  -28.8129   23.2996 O   0  0  0  0  0  0
  -28.2619  -26.2930   20.1772 O   0  0  0  0  0  0
  -26.5620  -34.8905   22.4651 O   0  0  0  0  0  0
  -23.5478  -32.1347   23.7255 O   0  0  0  0  0  0
  -28.3212  -23.7602   20.8985 C   0  0  0  0  0  0
  -27.9963  -25.1219   20.9433 C   0  0  0  0  0  0
  -30.0998  -17.2181   20.1444 C   0  0  0  0  0  0
  -27.8075  -22.8363   21.9930 C   0  0  0  0  0  0
  -29.1188  -22.7815   19.9612 C   0  0  0  0  0  0
  -28.5756  -21.4992   21.8841 C   0  0  0  0  0  0
  -31.2524  -20.3861   20.6166 C   0  0  0  0  0  0
  -29.9268  -20.1703   18.5150 C   0  0  0  0  0  0
  -29.3552  -16.0595   22.1605 C   0  0  0  0  0  0
  -29.3633  -18.6199   20.5641 C   0  0  0  0  0  0
  -29.8300  -20.1338   20.0609 C   0  0  0  0  0  0
  -29.9462  -15.9800   20.8141 N   0  0  0  0  0  0
  -28.8969  -21.3305   20.4520 N   0  3  2  0  0  0
  -30.7769  -17.2698   19.1144 O   0  0  0  0  0  0
  -31.4725  -12.6038   19.1789 H   0  0  0  0  0  0
  -30.3759  -11.5113   19.9575 H   0  0  0  0  0  0
  -29.8112  -11.7750   17.5163 H   0  0  0  0  0  0
  -29.6333  -13.4979   17.7309 H   0  0  0  0  0  0
  -27.9057  -11.2928   18.8996 H   0  0  0  0  0  0
  -27.3841  -12.5330   17.7910 H   0  0  0  0  0  0
  -27.6397  -14.2605   19.4807 H   0  0  0  0  0  0
  -28.7348  -12.1346   21.3733 H   0  0  0  0  0  0
  -28.3521  -13.7580   21.8165 H   0  0  0  0  0  0
  -25.2763   -9.5689   22.4748 H   0  0  0  0  0  0
  -24.0007   -7.4634   22.7468 H   0  0  0  0  0  0
  -21.0844   -8.8746   19.8953 H   0  0  0  0  0  0
  -22.3683  -10.9650   19.6144 H   0  0  0  0  0  0
  -21.2013   -7.6145   23.9694 H   0  0  0  0  0  0
  -21.1497   -6.0529   25.9066 H   0  0  0  0  0  0
  -22.0599   -2.7602   23.2843 H   0  0  0  0  0  0
  -22.4138  -11.9881   22.4800 H   0  0  0  0  0  0
  -21.1107  -13.1198   22.2580 H   0  0  0  0  0  0
  -24.6672  -15.8536   20.5236 H   0  0  0  0  0  0
  -26.2862  -15.6228   20.0991 H   0  0  0  0  0  0
  -26.7224  -32.5385   23.1063 H   0  0  0  0  0  0
  -25.0127  -33.9673   25.0422 H   0  0  0  0  0  0
  -22.7306  -31.2978   21.3901 H   0  0  0  0  0  0
  -23.3757  -35.9604   23.3286 H   0  0  0  0  0  0
  -24.3592  -36.8910   22.2057 H   0  0  0  0  0  0
  -23.7247  -37.6470   23.6674 H   0  0  0  0  0  0
  -26.1236  -31.5223   20.6118 H   0  0  0  0  0  0
  -26.8546  -30.8094   22.0174 H   0  0  0  0  0  0
  -28.1264  -28.9042   21.2278 H   0  0  0  0  0  0
  -25.9852  -25.8856   19.0210 H   0  0  0  0  0  0
  -23.9800  -27.3029   18.9970 H   0  0  0  0  0  0
  -23.7809  -30.5822   19.3992 H   0  0  0  0  0  0
  -22.7731  -29.2416   19.8482 H   0  0  0  0  0  0
  -25.1302  -36.1893   25.0819 H   0  0  0  0  0  0
  -21.0003  -28.3275   24.1369 H   0  0  0  0  0  0
  -20.5672  -26.2308   23.3608 H   0  0  0  0  0  0
  -21.6651  -26.7419   22.1201 H   0  0  0  0  0  0
  -19.6922  -25.6280   21.1240 H   0  0  0  0  0  0
  -19.6702  -27.3173   20.6724 H   0  0  0  0  0  0
  -17.4214  -26.6673   21.4012 H   0  0  0  0  0  0
  -18.0341  -26.0064   22.9004 H   0  0  0  0  0  0
  -19.7954  -30.7279   24.2222 H   0  0  0  0  0  0
  -17.5030  -31.6259   24.5157 H   0  0  0  0  0  0
  -15.5361  -30.2963   23.7680 H   0  0  0  0  0  0
  -15.8687  -28.0802   22.7077 H   0  0  0  0  0  0
  -24.5939  -30.7045   25.7779 H   0  0  0  0  0  0
  -24.8924  -32.2878   26.4847 H   0  0  0  0  0  0
  -25.8073  -30.8917   27.0229 H   0  0  0  0  0  0
  -26.2973  -29.6707   24.1255 H   0  0  0  0  0  0
  -27.4062  -29.7266   25.4756 H   0  0  0  0  0  0
  -27.8850  -30.4247   23.9480 H   0  0  0  0  0  0
  -27.2675  -33.3617   26.2055 H   0  0  0  0  0  0
  -28.3897  -32.6852   25.0346 H   0  0  0  0  0  0
  -28.0717  -31.8449   26.5436 H   0  0  0  0  0  0
  -28.2579  -38.0104   24.7516 H   0  0  0  0  0  0
  -28.1090  -36.2632   24.6279 H   0  0  0  0  0  0
  -27.2297  -37.1424   25.8867 H   0  0  0  0  0  0
  -20.9416  -29.8768   21.6840 H   0  0  0  0  0  0
  -26.0160  -38.2828   24.1411 H   0  0  0  0  0  0
  -27.3876  -25.4219   21.7863 H   0  0  0  0  0  0
  -26.7443  -22.6617   21.8198 H   0  0  0  0  0  0
  -27.9082  -23.2820   22.9836 H   0  0  0  0  0  0
  -30.1737  -23.0468   20.0177 H   0  0  0  0  0  0
  -28.7999  -22.9043   18.9263 H   0  0  0  0  0  0
  -27.9954  -20.6630   22.2747 H   0  0  0  0  0  0
  -29.4940  -21.5657   22.4679 H   0  0  0  0  0  0
  -31.9482  -19.6172   20.2794 H   0  0  0  0  0  0
  -31.2774  -20.3726   21.7060 H   0  0  0  0  0  0
  -31.6627  -21.3408   20.2878 H   0  0  0  0  0  0
  -30.6578  -19.4691   18.1192 H   0  0  0  0  0  0
  -30.2501  -21.1448   18.1491 H   0  0  0  0  0  0
  -28.9678  -19.9463   18.0476 H   0  0  0  0  0  0
  -28.2700  -16.1629   22.1083 H   0  0  0  0  0  0
  -29.7561  -16.8946   22.7348 H   0  0  0  0  0  0
  -29.5895  -15.1933   22.7809 H   0  0  0  0  0  0
  -29.3200  -18.6659   21.6491 H   0  0  0  0  0  0
  -28.3270  -18.4854   20.2548 H   0  0  0  0  0  0
  -28.0060  -21.0897   20.0418 H   0  0  0  0  0  0
  1 25  1  0  0  0
  1 30  2  0  0  0
  1 82  1  0  0  0
  2  3  1  0  0  0
  2 25  1  0  0  0
  2 85  1  0  0  0
  2 86  1  0  0  0
  3  4  1  0  0  0
  3 87  1  0  0  0
  3 88  1  0  0  0
  4  5  1  0  0  0
  4 89  1  0  0  0
  4 90  1  0  0  0
  5  6  1  0  0  0
  5 26  1  0  0  0
  5 91  1  0  0  0
  6 25  1  0  0  0
  6 92  1  0  0  0
  6 93  1  0  0  0
  7  8  2  0  0  0
  7 26  1  0  0  0
  7 29  1  0  0  0
  8  9  1  0  0  0
  8 22  1  0  0  0
  9 10  1  0  0  0
  9 27  2  0  0  0
 10 11  2  0  0  0
 10 15  1  0  0  0
 11 12  1  0  0  0
 11 94  1  0  0  0
 12 13  2  0  0  0
 12 95  1  0  0  0
 13 14  1  0  0  0
 13 31  1  0  0  0
 14 15  2  0  0  0
 14 96  1  0  0  0
 15 97  1  0  0  0
 16 17  2  0  0  0
 16 21  1  0  0  0
 16 31  1  0  0  0
 17 18  1  0  0  0
 17 98  1  0  0  0
 18 19  2  0  0  0
 18 99  1  0  0  0
 19 20  1  0  0  0
 19 24  1  0  0  0
 20 21  2  0  0  0
 20100  1  0  0  0
 21 23  1  0  0  0
 22 28  1  0  0  0
 22 32  2  0  0  0
 26 27  1  0  0  0
 28101  1  0  0  0
 28102  1  0  0  0
 29103  1  0  0  0
 29104  1  0  0  0
 33 34  1  0  0  0
 33 66  1  0  0  0
 33 70  2  0  0  0
 34 36  1  0  0  0
 34 59  1  0  0  0
 34105  1  0  0  0
 35 44  2  0  0  0
 35 45  1  0  0  0
 35 68  1  0  0  0
 36 56  1  0  0  0
 36106  1  0  0  0
 37 39  1  0  0  0
 37 47  1  0  0  0
 37 66  1  0  0  0
 37107  1  0  0  0
 38 43  2  0  0  0
 38 46  1  0  0  0
 38 47  1  0  0  0
 39 64  1  0  0  0
 39 67  2  0  0  0
 40 52  1  0  0  0
 40 53  2  0  0  0
 40 58  1  0  0  0
 41108  1  0  0  0
 41109  1  0  0  0
 41110  1  0  0  0
 41 48  1  0  0  0
 42 43  1  0  0  0
 42 66  1  0  0  0
 42111  1  0  0  0
 42112  1  0  0  0
 43 44  1  0  0  0
 44113  1  0  0  0
 45 46  2  0  0  0
 45114  1  0  0  0
 46115  1  0  0  0
 47116  1  0  0  0
 47117  1  0  0  0
 48 56  1  0  0  0
 48 65  1  0  0  0
 48118  1  0  0  0
 49 50  1  0  0  0
 49 53  1  0  0  0
 49 64  1  0  0  0
 49119  1  0  0  0
 50 51  1  0  0  0
 50120  1  0  0  0
 50121  1  0  0  0
 51 52  1  0  0  0
 51122  1  0  0  0
 51123  1  0  0  0
 52124  1  0  0  0
 52125  1  0  0  0
 53 54  1  0  0  0
 54 55  2  0  0  0
 54126  1  0  0  0
 55 57  1  0  0  0
 55127  1  0  0  0
 56 69  2  0  0  0
 57 58  2  0  0  0
 57128  1  0  0  0
 58129  1  0  0  0
 59 60  1  0  0  0
 59 61  1  0  0  0
 59 62  1  0  0  0
 60130  1  0  0  0
 60131  1  0  0  0
 60132  1  0  0  0
 61133  1  0  0  0
 61134  1  0  0  0
 61135  1  0  0  0
 62136  1  0  0  0
 62137  1  0  0  0
 62138  1  0  0  0
 63 65  1  0  0  0
 63139  1  0  0  0
 63140  1  0  0  0
 63141  1  0  0  0
 64142  1  0  0  0
 65143  1  0  0  0
 68 72  1  0  0  0
 71 72  2  0  0  0
 71 74  1  0  0  0
 71 75  1  0  0  0
 72144  1  0  0  0
 73 80  1  0  0  0
 73 82  1  0  0  0
 73 84  2  0  0  0
 74 76  1  0  0  0
 74145  1  0  0  0
 74146  1  0  0  0
 75147  1  0  0  0
 75148  1  0  0  0
 75 83  1  0  0  0
 76 83  1  0  0  0
 76149  1  0  0  0
 76150  1  0  0  0
 77151  1  0  0  0
 77152  1  0  0  0
 77153  1  0  0  0
 77 81  1  0  0  0
 78 81  1  0  0  0
 78154  1  0  0  0
 78155  1  0  0  0
 78156  1  0  0  0
 79 82  1  0  0  0
 79157  1  0  0  0
 79158  1  0  0  0
 79159  1  0  0  0
 80 81  1  0  0  0
 80160  1  0  0  0
 80161  1  0  0  0
 81 83  1  0  0  0
 83162  1  0  0  0
M  CHG  1  83   1
M  ISO  4   1 100  68 101  72 101  82 100
M  END
> <chiral flag>
0

> <version>
0

> <s_m_source_file>
/data/baiqing/PycharmProjects/Reinvent-master-3.2/result/LINK_invent/BTK/process_docking_weight1_custom_product_contain_oxygen_bond_distance_aromatic_linkinvent_7_9_3/rearranged_h_0104.sdf

> <i_m_source_file_index>
9

> <r_mmod_Potential_Energy-OPLS-2005>
362.530120849609

> <r_mmod_Stretch_Energy-OPLS-2005>
158.931335449219

> <r_mmod_Bend_Energy-OPLS-2005>
259.263549804688

> <r_mmod_Torsional_Energy-OPLS-2005>
314.675750732422

> <r_mmod_Improper_Torsional_Energy-OPLS-2005>
5.68572425842285

> <r_mmod_Van_der_Waal_Energy-OPLS-2005>
134.349868774414

> <r_mmod_Electrostatic_Energy-OPLS-2005>
-178.127197265625

> <r_mmod_Solvation_Energy-OPLS-2005>
-429.889404296875

> <b_mmod_Minimization_Converged-OPLS-2005>
0

> <r_mmod_RMS_Derivative-OPLS-2005>
1.47691929340363

$$$$
10
                    3D
 Structure written by MMmdl.
155163  0  0  1  0            999 V2000
  -30.6500  -14.5955   20.4985 C   0  0  0  0  0  0
  -30.4244  -12.3581   19.4523 C   0  0  0  0  0  0
  -29.5035  -12.4975   18.2212 C   0  0  0  0  0  0
  -28.0245  -12.3464   18.6282 C   0  0  0  0  0  0
  -27.6511  -13.2164   19.8572 C   0  0  2  0  0  0
  -28.6945  -13.0830   20.9886 C   0  0  0  0  0  0
  -25.2569  -13.8169   20.5686 C   0  0  0  0  0  0
  -24.1832  -13.0434   20.9182 C   0  0  0  0  0  0
  -24.6399  -11.6903   20.8732 C   0  0  0  0  0  0
  -23.9068  -10.4286   21.0402 C   0  0  0  0  0  0
  -24.3614   -9.4199   21.9186 C   0  0  0  0  0  0
  -23.6282   -8.2238   22.0763 C   0  0  0  0  0  0
  -22.4265   -8.0278   21.3549 C   0  0  0  0  0  0
  -21.9904   -9.0251   20.4646 C   0  0  0  0  0  0
  -22.7240  -10.2128   20.3053 C   0  0  0  0  0  0
  -21.6854   -6.0730   22.5275 C   0  0  0  0  0  0
  -21.4016   -6.5643   23.8205 C   0  0  0  0  0  0
  -21.3657   -5.6797   24.9170 C   0  0  0  0  0  0
  -21.6037   -4.3058   24.7221 C   0  0  0  0  0  0
  -21.8825   -3.8148   23.4346 C   0  0  0  0  0  0
  -21.9194   -4.6960   22.3398 C   0  0  0  0  0  0
  -22.7856  -13.5227   21.1839 C   0  0  0  0  0  0
  -22.1664   -4.2147   21.0975 F   0  0  0  0  0  0
  -21.5621   -3.4538   25.7730 F   0  0  0  0  0  0
  -30.0157  -13.3864   20.4282 N   0  0  0  0  0  0
  -26.2987  -12.9348   20.3299 N   0  0  0  0  0  0
  -25.9326  -11.6502   20.5744 N   0  0  0  0  0  0
  -22.0506  -12.8210   22.0394 N   0  0  0  0  0  0
  -25.4287  -15.1887   20.4117 N   0  0  0  0  0  0
  -31.8155  -14.7086   20.1079 O   0  0  0  0  0  0
  -21.6632   -6.8872   21.4235 O   0  0  0  0  0  0
  -22.3532  -14.5534   20.6693 O   0  0  0  0  0  0
  -24.6231  -31.8625   23.2054 C   0  0  0  0  0  0
  -25.9095  -32.4793   23.8380 C   0  0  1  0  0  0
  -27.2241  -27.3600   20.1162 C   0  0  0  0  0  0
  -25.5919  -33.8593   24.2302 N   0  0  0  0  0  0
  -23.4151  -30.4850   21.5481 C   0  0  2  0  0  0
  -24.8620  -28.9417   20.1142 C   0  0  0  0  0  0
  -22.7460  -29.4638   22.4975 C   0  0  0  0  0  0
  -18.0271  -28.1397   22.8498 C   0  0  0  0  0  0
  -24.1480  -36.7298   23.2647 C   0  0  0  0  0  0
  -25.9517  -30.8067   21.3687 C   0  0  0  0  0  0
  -26.0293  -29.4363   20.7126 C   0  0  0  0  0  0
  -27.2184  -28.6563   20.7034 C   0  0  0  0  0  0
  -26.0421  -26.9023   19.5001 C   0  0  0  0  0  0
  -24.8677  -27.6781   19.4997 C   0  0  0  0  0  0
  -23.6264  -29.8156   20.1640 C   0  0  0  0  0  0
  -25.4108  -36.3093   24.0338 C   0  0  1  0  0  0
  -20.5872  -28.3694   23.1306 C   0  0  2  0  0  0
  -20.6765  -26.9421   22.5419 C   0  0  0  0  0  0
  -19.5734  -26.6392   21.5228 C   0  0  0  0  0  0
  -18.1914  -26.7944   22.1629 C   0  0  0  0  0  0
  -19.1526  -28.8862   23.2892 C   0  0  0  0  0  0
  -18.9448  -30.1469   23.8900 C   0  0  0  0  0  0
  -17.6449  -30.6603   24.0568 C   0  0  0  0  0  0
  -25.9045  -34.9460   23.5117 C   0  0  0  0  0  0
  -16.5340  -29.9101   23.6340 C   0  0  0  0  0  0
  -16.7261  -28.6514   23.0370 C   0  0  0  0  0  0
  -26.4499  -31.6598   25.0740 C   0  0  0  0  0  0
  -25.3734  -31.3688   26.1458 C   0  0  0  0  0  0
  -27.0383  -30.3049   24.6172 C   0  0  0  0  0  0
  -27.6048  -32.4352   25.7514 C   0  0  0  0  0  0
  -27.5578  -37.1800   24.8469 C   0  0  0  0  0  0
  -21.4177  -29.3047   22.3708 N   0  0  0  0  0  0
  -26.4290  -37.3786   23.9415 N   0  0  0  0  0  0
  -24.6824  -31.0669   22.0984 N   0  0  0  0  0  0
  -23.4199  -28.8179   23.3045 O   0  0  0  0  0  0
  -28.3318  -26.5199   20.1338 O   0  0  0  0  0  0
  -26.5609  -34.8928   22.4682 O   0  0  0  0  0  0
  -23.5400  -32.1392   23.7405 O   0  0  0  0  0  0
  -29.4506  -19.4411   19.3812 C   0  0  0  0  0  0
  -29.0739  -20.8089   19.5110 C   0  0  0  0  0  0
  -29.4608  -20.6574   21.8829 C   0  0  0  0  0  0
  -29.8708  -18.6529   20.4882 C   0  0  0  0  0  0
  -29.8593  -19.2952   21.7569 C   0  0  0  0  0  0
  -29.0913  -21.4577   20.7713 C   0  0  0  0  0  0
  -28.6164  -23.9448   20.2099 C   0  0  0  0  0  0
  -30.3083  -18.5596   23.0068 C   0  0  0  0  0  0
  -30.4853  -17.2315   20.2434 C   0  0  0  0  0  0
  -29.8881  -15.9177   20.8977 C   0  0  0  0  0  0
  -28.1561  -25.2791   20.9012 C   0  0  0  0  0  0
  -28.7287  -22.8461   21.0148 N   0  0  0  0  0  0
  -28.8516  -23.9212   18.9982 O   0  0  0  0  0  0
  -31.4694  -12.4543   19.1541 H   0  0  0  0  0  0
  -30.3308  -11.3643   19.8925 H   0  0  0  0  0  0
  -29.7608  -11.7490   17.4703 H   0  0  0  0  0  0
  -29.6598  -13.4694   17.7514 H   0  0  0  0  0  0
  -27.8487  -11.2938   18.8513 H   0  0  0  0  0  0
  -27.3759  -12.5905   17.7861 H   0  0  0  0  0  0
  -27.6650  -14.2477   19.5087 H   0  0  0  0  0  0
  -28.6893  -12.0735   21.4018 H   0  0  0  0  0  0
  -28.4551  -13.7490   21.8184 H   0  0  0  0  0  0
  -25.2759   -9.5670   22.4762 H   0  0  0  0  0  0
  -23.9983   -7.4632   22.7495 H   0  0  0  0  0  0
  -21.0836   -8.8773   19.8946 H   0  0  0  0  0  0
  -22.3703  -10.9668   19.6159 H   0  0  0  0  0  0
  -21.2023   -7.6153   23.9706 H   0  0  0  0  0  0
  -21.1469   -6.0527   25.9070 H   0  0  0  0  0  0
  -22.0610   -2.7609   23.2843 H   0  0  0  0  0  0
  -22.4135  -11.9859   22.4751 H   0  0  0  0  0  0
  -21.1130  -13.1237   22.2625 H   0  0  0  0  0  0
  -24.6686  -15.8492   20.5344 H   0  0  0  0  0  0
  -26.2882  -15.6278   20.1051 H   0  0  0  0  0  0
  -26.7169  -32.5481   23.1142 H   0  0  0  0  0  0
  -25.0087  -33.9740   25.0458 H   0  0  0  0  0  0
  -22.7067  -31.3041   21.4068 H   0  0  0  0  0  0
  -23.3759  -35.9614   23.3303 H   0  0  0  0  0  0
  -24.3557  -36.8928   22.2062 H   0  0  0  0  0  0
  -23.7213  -37.6488   23.6679 H   0  0  0  0  0  0
  -26.0740  -31.5711   20.6003 H   0  0  0  0  0  0
  -26.8348  -30.8582   21.9936 H   0  0  0  0  0  0
  -28.1180  -29.0282   21.1747 H   0  0  0  0  0  0
  -26.0250  -25.9270   19.0336 H   0  0  0  0  0  0
  -23.9712  -27.2920   19.0338 H   0  0  0  0  0  0
  -23.7372  -30.5895   19.4036 H   0  0  0  0  0  0
  -22.7481  -29.2385   19.8687 H   0  0  0  0  0  0
  -25.1281  -36.1956   25.0827 H   0  0  0  0  0  0
  -20.9953  -28.3274   24.1433 H   0  0  0  0  0  0
  -20.5701  -26.2298   23.3616 H   0  0  0  0  0  0
  -21.6634  -26.7485   22.1191 H   0  0  0  0  0  0
  -19.6895  -25.6302   21.1259 H   0  0  0  0  0  0
  -19.6669  -27.3203   20.6757 H   0  0  0  0  0  0
  -17.4190  -26.6721   21.4020 H   0  0  0  0  0  0
  -18.0281  -26.0080   22.9011 H   0  0  0  0  0  0
  -19.7926  -30.7285   24.2270 H   0  0  0  0  0  0
  -17.5008  -31.6278   24.5180 H   0  0  0  0  0  0
  -15.5340  -30.3003   23.7668 H   0  0  0  0  0  0
  -15.8658  -28.0829   22.7096 H   0  0  0  0  0  0
  -24.5942  -30.7004   25.7775 H   0  0  0  0  0  0
  -24.8876  -32.2827   26.4896 H   0  0  0  0  0  0
  -25.8065  -30.8868   27.0234 H   0  0  0  0  0  0
  -26.2965  -29.6754   24.1248 H   0  0  0  0  0  0
  -27.4179  -29.7347   25.4663 H   0  0  0  0  0  0
  -27.8778  -30.4393   23.9345 H   0  0  0  0  0  0
  -27.2664  -33.3678   26.2044 H   0  0  0  0  0  0
  -28.3873  -32.6865   25.0344 H   0  0  0  0  0  0
  -28.0701  -31.8510   26.5460 H   0  0  0  0  0  0
  -28.2585  -38.0113   24.7553 H   0  0  0  0  0  0
  -28.1083  -36.2640   24.6261 H   0  0  0  0  0  0
  -27.2290  -37.1413   25.8870 H   0  0  0  0  0  0
  -20.9367  -29.8752   21.6893 H   0  0  0  0  0  0
  -26.0177  -38.2862   24.1428 H   0  0  0  0  0  0
  -29.4540  -19.0072   18.3909 H   0  0  0  0  0  0
  -28.7813  -21.3529   18.6249 H   0  0  0  0  0  0
  -29.4707  -21.1092   22.8651 H   0  0  0  0  0  0
  -30.5422  -19.2536   23.8148 H   0  0  0  0  0  0
  -31.2045  -17.9675   22.8224 H   0  0  0  0  0  0
  -29.5183  -17.8961   23.3577 H   0  0  0  0  0  0
  -31.5355  -17.3059   20.5271 H   0  0  0  0  0  0
  -30.5077  -17.0711   19.1641 H   0  0  0  0  0  0
  -28.8419  -15.8379   20.6110 H   0  0  0  0  0  0
  -29.9028  -15.9890   21.9832 H   0  0  0  0  0  0
  -28.7219  -25.3905   21.8264 H   0  0  0  0  0  0
  -27.1182  -25.1411   21.2098 H   0  0  0  0  0  0
  -28.5595  -23.0624   21.9881 H   0  0  0  0  0  0
  1 25  1  0  0  0
  1 30  2  0  0  0
  1 80  1  0  0  0
  2  3  1  0  0  0
  2 25  1  0  0  0
  2 84  1  0  0  0
  2 85  1  0  0  0
  3  4  1  0  0  0
  3 86  1  0  0  0
  3 87  1  0  0  0
  4  5  1  0  0  0
  4 88  1  0  0  0
  4 89  1  0  0  0
  5  6  1  0  0  0
  5 26  1  0  0  0
  5 90  1  0  0  0
  6 25  1  0  0  0
  6 91  1  0  0  0
  6 92  1  0  0  0
  7  8  2  0  0  0
  7 26  1  0  0  0
  7 29  1  0  0  0
  8  9  1  0  0  0
  8 22  1  0  0  0
  9 10  1  0  0  0
  9 27  2  0  0  0
 10 11  2  0  0  0
 10 15  1  0  0  0
 11 12  1  0  0  0
 11 93  1  0  0  0
 12 13  2  0  0  0
 12 94  1  0  0  0
 13 14  1  0  0  0
 13 31  1  0  0  0
 14 15  2  0  0  0
 14 95  1  0  0  0
 15 96  1  0  0  0
 16 17  2  0  0  0
 16 21  1  0  0  0
 16 31  1  0  0  0
 17 18  1  0  0  0
 17 97  1  0  0  0
 18 19  2  0  0  0
 18 98  1  0  0  0
 19 20  1  0  0  0
 19 24  1  0  0  0
 20 21  2  0  0  0
 20 99  1  0  0  0
 21 23  1  0  0  0
 22 28  1  0  0  0
 22 32  2  0  0  0
 26 27  1  0  0  0
 28100  1  0  0  0
 28101  1  0  0  0
 29102  1  0  0  0
 29103  1  0  0  0
 33 34  1  0  0  0
 33 66  1  0  0  0
 33 70  2  0  0  0
 34 36  1  0  0  0
 34 59  1  0  0  0
 34104  1  0  0  0
 35 44  2  0  0  0
 35 45  1  0  0  0
 35 68  1  0  0  0
 36 56  1  0  0  0
 36105  1  0  0  0
 37 39  1  0  0  0
 37 47  1  0  0  0
 37 66  1  0  0  0
 37106  1  0  0  0
 38 43  2  0  0  0
 38 46  1  0  0  0
 38 47  1  0  0  0
 39 64  1  0  0  0
 39 67  2  0  0  0
 40 52  1  0  0  0
 40 53  2  0  0  0
 40 58  1  0  0  0
 41107  1  0  0  0
 41108  1  0  0  0
 41109  1  0  0  0
 41 48  1  0  0  0
 42 43  1  0  0  0
 42 66  1  0  0  0
 42110  1  0  0  0
 42111  1  0  0  0
 43 44  1  0  0  0
 44112  1  0  0  0
 45 46  2  0  0  0
 45113  1  0  0  0
 46114  1  0  0  0
 47115  1  0  0  0
 47116  1  0  0  0
 48 56  1  0  0  0
 48 65  1  0  0  0
 48117  1  0  0  0
 49 50  1  0  0  0
 49 53  1  0  0  0
 49 64  1  0  0  0
 49118  1  0  0  0
 50 51  1  0  0  0
 50119  1  0  0  0
 50120  1  0  0  0
 51 52  1  0  0  0
 51121  1  0  0  0
 51122  1  0  0  0
 52123  1  0  0  0
 52124  1  0  0  0
 53 54  1  0  0  0
 54 55  2  0  0  0
 54125  1  0  0  0
 55 57  1  0  0  0
 55126  1  0  0  0
 56 69  2  0  0  0
 57 58  2  0  0  0
 57127  1  0  0  0
 58128  1  0  0  0
 59 60  1  0  0  0
 59 61  1  0  0  0
 59 62  1  0  0  0
 60129  1  0  0  0
 60130  1  0  0  0
 60131  1  0  0  0
 61132  1  0  0  0
 61133  1  0  0  0
 61134  1  0  0  0
 62135  1  0  0  0
 62136  1  0  0  0
 62137  1  0  0  0
 63 65  1  0  0  0
 63138  1  0  0  0
 63139  1  0  0  0
 63140  1  0  0  0
 64141  1  0  0  0
 65142  1  0  0  0
 68 81  1  0  0  0
 71 72  2  0  0  0
 71 74  1  0  0  0
 71143  1  0  0  0
 72 76  1  0  0  0
 72144  1  0  0  0
 73 75  1  0  0  0
 73 76  2  0  0  0
 73145  1  0  0  0
 74 75  2  0  0  0
 74 79  1  0  0  0
 75 78  1  0  0  0
 76 82  1  0  0  0
 77 81  1  0  0  0
 77 82  1  0  0  0
 77 83  2  0  0  0
 78146  1  0  0  0
 78147  1  0  0  0
 78148  1  0  0  0
 79 80  1  0  0  0
 79149  1  0  0  0
 79150  1  0  0  0
 80151  1  0  0  0
 80152  1  0  0  0
 81153  1  0  0  0
 81154  1  0  0  0
 82155  1  0  0  0
M  ISO  4   1 100  68 101  80 100  81 101
M  END
> <chiral flag>
0

> <version>
0

> <s_m_source_file>
/data/baiqing/PycharmProjects/Reinvent-master-3.2/result/LINK_invent/BTK/process_docking_weight1_custom_product_contain_oxygen_bond_distance_aromatic_linkinvent_7_9_3/rearranged_h_0104.sdf

> <i_m_source_file_index>
10

> <r_mmod_Potential_Energy-OPLS-2005>
3.93248224258423

> <r_mmod_Stretch_Energy-OPLS-2005>
65.0263519287109

> <r_mmod_Bend_Energy-OPLS-2005>
127.913970947266

> <r_mmod_Torsional_Energy-OPLS-2005>
208.075805664062

> <r_mmod_Improper_Torsional_Energy-OPLS-2005>
4.34468030929565

> <r_mmod_Van_der_Waal_Energy-OPLS-2005>
140.629241943359

> <r_mmod_Electrostatic_Energy-OPLS-2005>
-352.706329345703

> <r_mmod_Solvation_Energy-OPLS-2005>
-224.871002197266

> <b_mmod_Minimization_Converged-OPLS-2005>
0

> <r_mmod_RMS_Derivative-OPLS-2005>
1.31683850288391

$$$$
11
                    3D
 Structure written by MMmdl.
171180  0  0  1  0            999 V2000
  -30.8511  -14.5610   20.4833 C   0  0  0  0  0  0
  -30.3827  -12.3645   19.4529 C   0  0  0  0  0  0
  -29.4689  -12.4792   18.2216 C   0  0  0  0  0  0
  -27.9999  -12.3454   18.6532 C   0  0  0  0  0  0
  -27.6419  -13.2468   19.8637 C   0  0  2  0  0  0
  -28.7113  -13.2155   20.9872 C   0  0  0  0  0  0
  -25.2482  -13.8228   20.5810 C   0  0  0  0  0  0
  -24.1768  -13.0449   20.9277 C   0  0  0  0  0  0
  -24.6382  -11.6929   20.8797 C   0  0  0  0  0  0
  -23.9062  -10.4294   21.0409 C   0  0  0  0  0  0
  -24.3603   -9.4195   21.9168 C   0  0  0  0  0  0
  -23.6266   -8.2235   22.0730 C   0  0  0  0  0  0
  -22.4254   -8.0271   21.3525 C   0  0  0  0  0  0
  -21.9904   -9.0228   20.4624 C   0  0  0  0  0  0
  -22.7246  -10.2115   20.3045 C   0  0  0  0  0  0
  -21.6815   -6.0726   22.5263 C   0  0  0  0  0  0
  -21.4002   -6.5622   23.8203 C   0  0  0  0  0  0
  -21.3674   -5.6798   24.9147 C   0  0  0  0  0  0
  -21.6050   -4.3059   24.7230 C   0  0  0  0  0  0
  -21.8811   -3.8150   23.4338 C   0  0  0  0  0  0
  -21.9188   -4.6955   22.3391 C   0  0  0  0  0  0
  -22.7791  -13.5169   21.1937 C   0  0  0  0  0  0
  -22.1653   -4.2136   21.0966 F   0  0  0  0  0  0
  -21.5644   -3.4548   25.7739 F   0  0  0  0  0  0
  -30.0226  -13.4674   20.3692 N   0  0  0  0  0  0
  -26.2962  -12.9495   20.3526 N   0  0  0  0  0  0
  -25.9350  -11.6604   20.5913 N   0  0  0  0  0  0
  -22.0470  -12.8117   22.0491 N   0  0  0  0  0  0
  -25.4209  -15.1950   20.4228 N   0  0  0  0  0  0
  -32.0060  -14.4688   20.0750 O   0  0  0  0  0  0
  -21.6625   -6.8843   21.4222 O   0  0  0  0  0  0
  -22.3457  -14.5488   20.6825 O   0  0  0  0  0  0
  -24.6191  -31.8653   23.2136 C   0  0  0  0  0  0
  -25.9076  -32.4793   23.8427 C   0  0  1  0  0  0
  -27.2202  -27.3966   20.0346 C   0  0  0  0  0  0
  -25.5940  -33.8624   24.2329 N   0  0  0  0  0  0
  -23.4014  -30.4980   21.5603 C   0  0  2  0  0  0
  -24.8430  -28.9726   20.1139 C   0  0  0  0  0  0
  -22.7361  -29.4646   22.5030 C   0  0  0  0  0  0
  -18.0229  -28.1391   22.8569 C   0  0  0  0  0  0
  -24.1430  -36.7246   23.2629 C   0  0  0  0  0  0
  -25.9404  -30.8142   21.3703 C   0  0  0  0  0  0
  -26.0194  -29.4465   20.7164 C   0  0  0  0  0  0
  -27.2065  -28.6559   20.6916 C   0  0  0  0  0  0
  -26.0120  -26.9644   19.4319 C   0  0  0  0  0  0
  -24.8392  -27.7246   19.4865 C   0  0  0  0  0  0
  -23.6069  -29.8453   20.1718 C   0  0  0  0  0  0
  -25.4067  -36.3036   24.0271 C   0  0  1  0  0  0
  -20.5837  -28.3609   23.1414 C   0  0  2  0  0  0
  -20.6712  -26.9345   22.5480 C   0  0  0  0  0  0
  -19.5640  -26.6389   21.5305 C   0  0  0  0  0  0
  -18.1815  -26.7971   22.1710 C   0  0  0  0  0  0
  -19.1508  -28.8827   23.2978 C   0  0  0  0  0  0
  -18.9433  -30.1451   23.8928 C   0  0  0  0  0  0
  -17.6436  -30.6585   24.0610 C   0  0  0  0  0  0
  -25.8961  -34.9423   23.5013 C   0  0  0  0  0  0
  -16.5306  -29.9084   23.6377 C   0  0  0  0  0  0
  -16.7252  -28.6536   23.0375 C   0  0  0  0  0  0
  -26.4513  -31.6573   25.0755 C   0  0  0  0  0  0
  -25.3818  -31.3707   26.1513 C   0  0  0  0  0  0
  -27.0442  -30.3031   24.6208 C   0  0  0  0  0  0
  -27.5995  -32.4379   25.7618 C   0  0  0  0  0  0
  -27.5505  -37.1707   24.8464 C   0  0  0  0  0  0
  -21.4077  -29.2986   22.3814 N   0  0  0  0  0  0
  -26.4228  -37.3744   23.9428 N   0  0  0  0  0  0
  -24.6751  -31.0673   22.1111 N   0  0  0  0  0  0
  -23.4128  -28.8169   23.3062 O   0  0  0  0  0  0
  -28.3827  -26.6270   19.9737 O   0  0  0  0  0  0
  -26.5442  -34.8855   22.4542 O   0  0  0  0  0  0
  -23.5342  -32.1547   23.7397 O   0  0  0  0  0  0
  -30.2159  -18.6480   19.6050 C   0  0  0  0  0  0
  -30.0446  -19.9901   19.1560 C   0  0  0  0  0  0
  -31.6029  -20.7419   20.8241 C   0  0  0  0  0  0
  -31.0473  -18.3072   20.7124 C   0  0  0  0  0  0
  -31.7909  -19.4081   21.2761 C   0  0  0  0  0  0
  -30.7090  -21.0666   19.7884 C   0  0  0  0  0  0
  -31.1526  -24.1710   16.5974 C   0  0  0  0  0  0
  -29.6280  -23.2923   19.4014 C   0  0  0  0  0  0
  -31.2484  -16.8276   21.1496 C   0  0  0  0  0  0
  -31.7676  -22.8719   17.0929 C   0  0  0  0  0  0
  -29.7973  -24.5867   17.1553 C   0  0  0  0  0  0
  -31.9223  -22.8477   18.6211 C   0  0  0  0  0  0
  -29.6823  -24.7185   18.7079 C   0  0  1  0  0  0
  -31.1340  -19.9400   24.1641 C   0  0  0  0  0  0
  -32.8455  -19.2765   22.3833 C   0  0  0  0  0  0
  -28.4080  -25.6149   18.9294 C   0  0  0  0  0  0
  -32.2237  -18.9487   23.7485 C   0  0  0  0  0  0
  -30.6816  -22.4202   19.2764 N   0  0  0  0  0  0
  -30.3903  -15.8084   20.8165 N   0  0  0  0  0  0
  -31.6948  -24.8363   15.7110 O   0  0  0  0  0  0
  -28.6283  -22.9906   20.0658 O   0  0  0  0  0  0
  -32.2414  -16.5618   21.8435 O   0  0  0  0  0  0
  -31.4266  -12.3776   19.1331 H   0  0  0  0  0  0
  -30.2436  -11.4032   19.9527 H   0  0  0  0  0  0
  -29.7105  -11.6989   17.4987 H   0  0  0  0  0  0
  -29.6217  -13.4375   17.7175 H   0  0  0  0  0  0
  -27.8329  -11.2971   18.9019 H   0  0  0  0  0  0
  -27.3396  -12.5629   17.8107 H   0  0  0  0  0  0
  -27.6288  -14.2668   19.4813 H   0  0  0  0  0  0
  -28.7084  -12.2478   21.4948 H   0  0  0  0  0  0
  -28.4902  -13.9643   21.7503 H   0  0  0  0  0  0
  -25.2700   -9.5669   22.4769 H   0  0  0  0  0  0
  -23.9964   -7.4606   22.7435 H   0  0  0  0  0  0
  -21.0857   -8.8742   19.8894 H   0  0  0  0  0  0
  -22.3681  -10.9648   19.6181 H   0  0  0  0  0  0
  -21.1974   -7.6118   23.9688 H   0  0  0  0  0  0
  -21.1516   -6.0530   25.9062 H   0  0  0  0  0  0
  -22.0590   -2.7604   23.2855 H   0  0  0  0  0  0
  -22.4158  -11.9750   22.4769 H   0  0  0  0  0  0
  -21.1084  -13.1114   22.2778 H   0  0  0  0  0  0
  -24.6624  -15.8602   20.5345 H   0  0  0  0  0  0
  -26.2850  -15.6297   20.1339 H   0  0  0  0  0  0
  -26.7109  -32.5513   23.1174 H   0  0  0  0  0  0
  -25.0333  -33.9925   25.0625 H   0  0  0  0  0  0
  -22.6984  -31.3232   21.4267 H   0  0  0  0  0  0
  -23.3665  -35.9576   23.3342 H   0  0  0  0  0  0
  -24.3511  -36.8882   22.2024 H   0  0  0  0  0  0
  -23.7183  -37.6446   23.6710 H   0  0  0  0  0  0
  -26.0197  -31.5771   20.5923 H   0  0  0  0  0  0
  -26.8428  -30.8973   21.9637 H   0  0  0  0  0  0
  -28.1275  -28.9905   21.1536 H   0  0  0  0  0  0
  -25.9134  -26.0393   18.8877 H   0  0  0  0  0  0
  -23.9307  -27.3509   19.0298 H   0  0  0  0  0  0
  -23.7055  -30.6273   19.4189 H   0  0  0  0  0  0
  -22.7308  -29.2712   19.8669 H   0  0  0  0  0  0
  -25.1210  -36.1857   25.0727 H   0  0  0  0  0  0
  -20.9910  -28.3233   24.1550 H   0  0  0  0  0  0
  -20.5682  -26.2192   23.3674 H   0  0  0  0  0  0
  -21.6574  -26.7453   22.1193 H   0  0  0  0  0  0
  -19.6689  -25.6330   21.1226 H   0  0  0  0  0  0
  -19.6535  -27.3353   20.6973 H   0  0  0  0  0  0
  -17.4086  -26.6844   21.4062 H   0  0  0  0  0  0
  -18.0075  -26.0106   22.9094 H   0  0  0  0  0  0
  -19.7923  -30.7289   24.2242 H   0  0  0  0  0  0
  -17.5018  -31.6323   24.5148 H   0  0  0  0  0  0
  -15.5334  -30.2976   23.7725 H   0  0  0  0  0  0
  -15.8683  -28.0899   22.6985 H   0  0  0  0  0  0
  -24.5967  -30.7055   25.7903 H   0  0  0  0  0  0
  -24.9043  -32.2905   26.4907 H   0  0  0  0  0  0
  -25.8147  -30.8928   27.0323 H   0  0  0  0  0  0
  -26.2988  -29.6681   24.1399 H   0  0  0  0  0  0
  -27.4389  -29.7348   25.4664 H   0  0  0  0  0  0
  -27.8738  -30.4323   23.9246 H   0  0  0  0  0  0
  -27.2466  -33.3692   26.2077 H   0  0  0  0  0  0
  -28.3932  -32.6938   25.0596 H   0  0  0  0  0  0
  -28.0505  -31.8604   26.5728 H   0  0  0  0  0  0
  -28.2431  -38.0080   24.7606 H   0  0  0  0  0  0
  -28.1039  -36.2597   24.6177 H   0  0  0  0  0  0
  -27.2217  -37.1207   25.8859 H   0  0  0  0  0  0
  -20.9126  -29.8805   21.7187 H   0  0  0  0  0  0
  -26.0042  -38.2690   24.1795 H   0  0  0  0  0  0
  -29.7309  -17.8622   19.0412 H   0  0  0  0  0  0
  -29.4452  -20.1859   18.2792 H   0  0  0  0  0  0
  -32.1866  -21.5448   21.2608 H   0  0  0  0  0  0
  -32.7402  -22.7441   16.6113 H   0  0  0  0  0  0
  -31.1402  -22.0482   16.7577 H   0  0  0  0  0  0
  -29.0294  -23.9130   16.7782 H   0  0  0  0  0  0
  -29.6117  -25.5513   16.6823 H   0  0  0  0  0  0
  -32.2606  -23.8059   19.0181 H   0  0  0  0  0  0
  -32.7343  -22.1611   18.8637 H   0  0  0  0  0  0
  -30.5404  -25.2570   19.1054 H   0  0  0  0  0  0
  -30.8229  -19.7283   25.1865 H   0  0  0  0  0  0
  -30.2507  -19.8519   23.5242 H   0  0  0  0  0  0
  -31.4862  -20.9752   24.1133 H   0  0  0  0  0  0
  -33.3924  -20.2201   22.4822 H   0  0  0  0  0  0
  -33.6187  -18.5634   22.0985 H   0  0  0  0  0  0
  -27.5757  -24.9286   19.0471 H   0  0  0  0  0  0
  -28.1848  -26.1704   18.0115 H   0  0  0  0  0  0
  -31.7781  -17.9593   23.7395 H   0  0  0  0  0  0
  -33.0155  -18.9129   24.4987 H   0  0  0  0  0  0
  -29.4097  -16.0119   20.7314 H   0  0  0  0  0  0
  1 25  1  0  0  0
  1 30  2  0  0  0
  1 89  1  0  0  0
  2  3  1  0  0  0
  2 25  1  0  0  0
  2 93  1  0  0  0
  2 94  1  0  0  0
  3  4  1  0  0  0
  3 95  1  0  0  0
  3 96  1  0  0  0
  4  5  1  0  0  0
  4 97  1  0  0  0
  4 98  1  0  0  0
  5  6  1  0  0  0
  5 26  1  0  0  0
  5 99  1  0  0  0
  6 25  1  0  0  0
  6100  1  0  0  0
  6101  1  0  0  0
  7  8  2  0  0  0
  7 26  1  0  0  0
  7 29  1  0  0  0
  8  9  1  0  0  0
  8 22  1  0  0  0
  9 10  1  0  0  0
  9 27  2  0  0  0
 10 11  2  0  0  0
 10 15  1  0  0  0
 11 12  1  0  0  0
 11102  1  0  0  0
 12 13  2  0  0  0
 12103  1  0  0  0
 13 14  1  0  0  0
 13 31  1  0  0  0
 14 15  2  0  0  0
 14104  1  0  0  0
 15105  1  0  0  0
 16 17  2  0  0  0
 16 21  1  0  0  0
 16 31  1  0  0  0
 17 18  1  0  0  0
 17106  1  0  0  0
 18 19  2  0  0  0
 18107  1  0  0  0
 19 20  1  0  0  0
 19 24  1  0  0  0
 20 21  2  0  0  0
 20108  1  0  0  0
 21 23  1  0  0  0
 22 28  1  0  0  0
 22 32  2  0  0  0
 26 27  1  0  0  0
 28109  1  0  0  0
 28110  1  0  0  0
 29111  1  0  0  0
 29112  1  0  0  0
 33 34  1  0  0  0
 33 66  1  0  0  0
 33 70  2  0  0  0
 34 36  1  0  0  0
 34 59  1  0  0  0
 34113  1  0  0  0
 35 44  2  0  0  0
 35 45  1  0  0  0
 35 68  1  0  0  0
 36 56  1  0  0  0
 36114  1  0  0  0
 37 39  1  0  0  0
 37 47  1  0  0  0
 37 66  1  0  0  0
 37115  1  0  0  0
 38 43  2  0  0  0
 38 46  1  0  0  0
 38 47  1  0  0  0
 39 64  1  0  0  0
 39 67  2  0  0  0
 40 52  1  0  0  0
 40 53  2  0  0  0
 40 58  1  0  0  0
 41116  1  0  0  0
 41117  1  0  0  0
 41118  1  0  0  0
 41 48  1  0  0  0
 42 43  1  0  0  0
 42 66  1  0  0  0
 42119  1  0  0  0
 42120  1  0  0  0
 43 44  1  0  0  0
 44121  1  0  0  0
 45 46  2  0  0  0
 45122  1  0  0  0
 46123  1  0  0  0
 47124  1  0  0  0
 47125  1  0  0  0
 48 56  1  0  0  0
 48 65  1  0  0  0
 48126  1  0  0  0
 49 50  1  0  0  0
 49 53  1  0  0  0
 49 64  1  0  0  0
 49127  1  0  0  0
 50 51  1  0  0  0
 50128  1  0  0  0
 50129  1  0  0  0
 51 52  1  0  0  0
 51130  1  0  0  0
 51131  1  0  0  0
 52132  1  0  0  0
 52133  1  0  0  0
 53 54  1  0  0  0
 54 55  2  0  0  0
 54134  1  0  0  0
 55 57  1  0  0  0
 55135  1  0  0  0
 56 69  2  0  0  0
 57 58  2  0  0  0
 57136  1  0  0  0
 58137  1  0  0  0
 59 60  1  0  0  0
 59 61  1  0  0  0
 59 62  1  0  0  0
 60138  1  0  0  0
 60139  1  0  0  0
 60140  1  0  0  0
 61141  1  0  0  0
 61142  1  0  0  0
 61143  1  0  0  0
 62144  1  0  0  0
 62145  1  0  0  0
 62146  1  0  0  0
 63 65  1  0  0  0
 63147  1  0  0  0
 63148  1  0  0  0
 63149  1  0  0  0
 64150  1  0  0  0
 65151  1  0  0  0
 68 86  1  0  0  0
 71 72  2  0  0  0
 71 74  1  0  0  0
 71152  1  0  0  0
 72 76  1  0  0  0
 72153  1  0  0  0
 73 75  1  0  0  0
 73 76  2  0  0  0
 73154  1  0  0  0
 74 75  2  0  0  0
 74 79  1  0  0  0
 75 85  1  0  0  0
 76 88  1  0  0  0
 77 80  1  0  0  0
 77 81  1  0  0  0
 77 90  2  0  0  0
 78 83  1  0  0  0
 78 88  1  0  0  0
 78 91  2  0  0  0
 79 89  1  0  0  0
 79 92  2  0  0  0
 80 82  1  0  0  0
 80155  1  0  0  0
 80156  1  0  0  0
 81 83  1  0  0  0
 81157  1  0  0  0
 81158  1  0  0  0
 82 88  1  0  0  0
 82159  1  0  0  0
 82160  1  0  0  0
 83 86  1  0  0  0
 83161  1  0  0  0
 84 87  1  0  0  0
 84162  1  0  0  0
 84163  1  0  0  0
 84164  1  0  0  0
 85 87  1  0  0  0
 85165  1  0  0  0
 85166  1  0  0  0
 86167  1  0  0  0
 86168  1  0  0  0
 87169  1  0  0  0
 87170  1  0  0  0
 89171  1  0  0  0
M  ISO  4   1 100  68 101  86 101  89 100
M  END
> <chiral flag>
0

> <version>
0

> <s_m_source_file>
/data/baiqing/PycharmProjects/Reinvent-master-3.2/result/LINK_invent/BTK/process_docking_weight1_custom_product_contain_oxygen_bond_distance_aromatic_linkinvent_7_9_3/rearranged_h_0104.sdf

> <i_m_source_file_index>
11

> <r_mmod_Potential_Energy-OPLS-2005>
115.176399230957

> <r_mmod_Stretch_Energy-OPLS-2005>
76.0449295043945

> <r_mmod_Bend_Energy-OPLS-2005>
163.415161132812

> <r_mmod_Torsional_Energy-OPLS-2005>
321.118988037109

> <r_mmod_Improper_Torsional_Energy-OPLS-2005>
7.08460712432861

> <r_mmod_Van_der_Waal_Energy-OPLS-2005>
205.547882080078

> <r_mmod_Electrostatic_Energy-OPLS-2005>
-455.545104980469

> <r_mmod_Solvation_Energy-OPLS-2005>
-251.121536254883

> <b_mmod_Minimization_Converged-OPLS-2005>
0

> <r_mmod_RMS_Derivative-OPLS-2005>
9.68587112426758

$$$$
12
                    3D
 Structure written by MMmdl.
163172  0  0  1  0            999 V2000
  -30.6872  -14.4798   20.4772 C   0  0  0  0  0  0
  -30.4182  -12.2789   19.4445 C   0  0  0  0  0  0
  -29.5012  -12.4744   18.2181 C   0  0  0  0  0  0
  -28.0202  -12.3432   18.6257 C   0  0  0  0  0  0
  -27.6585  -13.2026   19.8674 C   0  0  2  0  0  0
  -28.6999  -13.0232   20.9991 C   0  0  0  0  0  0
  -25.2575  -13.8148   20.5649 C   0  0  0  0  0  0
  -24.1830  -13.0432   20.9161 C   0  0  0  0  0  0
  -24.6382  -11.6903   20.8730 C   0  0  0  0  0  0
  -23.9050  -10.4294   21.0407 C   0  0  0  0  0  0
  -24.3606   -9.4212   21.9181 C   0  0  0  0  0  0
  -23.6279   -8.2251   22.0754 C   0  0  0  0  0  0
  -22.4259   -8.0291   21.3550 C   0  0  0  0  0  0
  -21.9894   -9.0262   20.4653 C   0  0  0  0  0  0
  -22.7223  -10.2137   20.3055 C   0  0  0  0  0  0
  -21.6853   -6.0738   22.5274 C   0  0  0  0  0  0
  -21.4026   -6.5640   23.8208 C   0  0  0  0  0  0
  -21.3650   -5.6790   24.9168 C   0  0  0  0  0  0
  -21.6037   -4.3055   24.7215 C   0  0  0  0  0  0
  -21.8823   -3.8147   23.4339 C   0  0  0  0  0  0
  -21.9192   -4.6966   22.3398 C   0  0  0  0  0  0
  -22.7857  -13.5241   21.1829 C   0  0  0  0  0  0
  -22.1663   -4.2161   21.0972 F   0  0  0  0  0  0
  -21.5614   -3.4533   25.7725 F   0  0  0  0  0  0
  -30.0345  -13.2898   20.4413 N   0  0  0  0  0  0
  -26.3006  -12.9313   20.3321 N   0  0  0  0  0  0
  -25.9308  -11.6480   20.5764 N   0  0  0  0  0  0
  -22.0496  -12.8238   22.0391 N   0  0  0  0  0  0
  -25.4290  -15.1867   20.4047 N   0  0  0  0  0  0
  -31.8627  -14.6109   20.1283 O   0  0  0  0  0  0
  -21.6635   -6.8882   21.4239 O   0  0  0  0  0  0
  -22.3548  -14.5548   20.6675 O   0  0  0  0  0  0
  -24.6135  -31.8692   23.2106 C   0  0  0  0  0  0
  -25.9030  -32.4835   23.8403 C   0  0  1  0  0  0
  -27.2334  -27.4485   20.1056 C   0  0  0  0  0  0
  -25.5882  -33.8637   24.2331 N   0  0  0  0  0  0
  -23.4009  -30.4931   21.5492 C   0  0  2  0  0  0
  -24.8501  -28.9596   20.1134 C   0  0  0  0  0  0
  -22.7398  -29.4681   22.4987 C   0  0  0  0  0  0
  -18.0269  -28.1388   22.8498 C   0  0  0  0  0  0
  -24.1485  -36.7328   23.2636 C   0  0  0  0  0  0
  -25.9282  -30.8403   21.3618 C   0  0  0  0  0  0
  -26.0077  -29.4749   20.7117 C   0  0  0  0  0  0
  -27.2056  -28.7260   20.7060 C   0  0  0  0  0  0
  -26.0657  -26.9430   19.4991 C   0  0  0  0  0  0
  -24.8729  -27.6923   19.5024 C   0  0  0  0  0  0
  -23.6090  -29.8226   20.1639 C   0  0  0  0  0  0
  -25.4105  -36.3126   24.0334 C   0  0  1  0  0  0
  -20.5860  -28.3684   23.1310 C   0  0  2  0  0  0
  -20.6764  -26.9422   22.5412 C   0  0  0  0  0  0
  -19.5742  -26.6401   21.5211 C   0  0  0  0  0  0
  -18.1919  -26.7937   22.1623 C   0  0  0  0  0  0
  -19.1520  -28.8848   23.2905 C   0  0  0  0  0  0
  -18.9452  -30.1451   23.8931 C   0  0  0  0  0  0
  -17.6457  -30.6591   24.0575 C   0  0  0  0  0  0
  -25.9035  -34.9486   23.5132 C   0  0  0  0  0  0
  -16.5346  -29.9101   23.6326 C   0  0  0  0  0  0
  -16.7259  -28.6509   23.0358 C   0  0  0  0  0  0
  -26.4469  -31.6610   25.0726 C   0  0  0  0  0  0
  -25.3749  -31.3696   26.1480 C   0  0  0  0  0  0
  -27.0290  -30.3050   24.6099 C   0  0  0  0  0  0
  -27.6052  -32.4327   25.7477 C   0  0  0  0  0  0
  -27.5584  -37.1810   24.8460 C   0  0  0  0  0  0
  -21.4129  -29.3048   22.3710 N   0  0  0  0  0  0
  -26.4293  -37.3807   23.9412 N   0  0  0  0  0  0
  -24.6653  -31.0813   22.0994 N   0  0  0  0  0  0
  -23.4167  -28.8240   23.3038 O   0  0  0  0  0  0
  -28.3721  -26.6800   20.1141 O   0  0  0  0  0  0
  -26.5608  -34.8937   22.4703 O   0  0  0  0  0  0
  -23.5328  -32.1432   23.7515 O   0  0  0  0  0  0
  -29.2306  -19.0628   19.3725 C   0  0  0  0  0  0
  -29.2573  -20.4342   19.6870 C   0  0  0  0  0  0
  -30.5998  -19.9365   21.6440 C   0  0  0  0  0  0
  -29.9183  -18.1152   20.1613 C   0  0  0  0  0  0
  -29.9630  -20.9014   20.8194 C   0  0  0  0  0  0
  -30.6038  -18.5502   21.3213 C   0  0  0  0  0  0
  -29.4997  -24.6729   21.0181 C   0  0  0  0  0  0
  -30.8227  -25.0805   21.0631 C   0  0  0  0  0  0
  -29.1289  -23.2425   20.8999 C   0  0  0  0  0  0
  -31.9179  -24.0378   20.9894 C   0  0  0  0  0  0
  -31.4340  -22.7327   21.6140 C   0  0  0  0  0  0
  -32.0059  -18.0229   23.2070 C   0  0  0  0  0  0
  -30.0140  -16.6838   19.6224 C   0  0  0  0  0  0
  -28.3732  -25.7063   21.1651 C   0  0  0  0  0  0
  -30.1285  -22.3170   21.0759 N   0  0  0  0  0  0
  -29.8747  -15.5489   20.5510 N   0  0  0  0  0  0
  -31.3385  -26.2140   21.1987 O   0  5  0  0  0  0
  -27.9651  -22.9019   20.6737 O   0  0  0  0  0  0
  -31.2881  -17.6036   22.0545 O   0  0  0  0  0  0
  -31.4676  -12.3519   19.1532 H   0  0  0  0  0  0
  -30.2957  -11.2785   19.8627 H   0  0  0  0  0  0
  -29.7412  -11.7398   17.4481 H   0  0  0  0  0  0
  -29.6777  -13.4529   17.7693 H   0  0  0  0  0  0
  -27.8331  -11.2902   18.8392 H   0  0  0  0  0  0
  -27.3732  -12.6016   17.7867 H   0  0  0  0  0  0
  -27.6877  -14.2406   19.5372 H   0  0  0  0  0  0
  -28.6646  -12.0081   21.3957 H   0  0  0  0  0  0
  -28.4788  -13.6833   21.8398 H   0  0  0  0  0  0
  -25.2763   -9.5681   22.4742 H   0  0  0  0  0  0
  -23.9997   -7.4633   22.7454 H   0  0  0  0  0  0
  -21.0832   -8.8774   19.8951 H   0  0  0  0  0  0
  -22.3689  -10.9670   19.6156 H   0  0  0  0  0  0
  -21.2047   -7.6152   23.9715 H   0  0  0  0  0  0
  -21.1457   -6.0521   25.9065 H   0  0  0  0  0  0
  -22.0615   -2.7612   23.2827 H   0  0  0  0  0  0
  -22.4117  -11.9918   22.4814 H   0  0  0  0  0  0
  -21.1122  -13.1277   22.2604 H   0  0  0  0  0  0
  -24.6592  -15.8381   20.5106 H   0  0  0  0  0  0
  -26.2757  -15.6289   20.0709 H   0  0  0  0  0  0
  -26.7111  -32.5562   23.1182 H   0  0  0  0  0  0
  -25.0014  -33.9806   25.0458 H   0  0  0  0  0  0
  -22.6897  -31.3097   21.4099 H   0  0  0  0  0  0
  -23.3744  -35.9664   23.3318 H   0  0  0  0  0  0
  -24.3573  -36.8927   22.2046 H   0  0  0  0  0  0
  -23.7243  -37.6540   23.6643 H   0  0  0  0  0  0
  -26.0388  -31.6055   20.5920 H   0  0  0  0  0  0
  -26.8161  -30.8959   21.9792 H   0  0  0  0  0  0
  -28.1005  -29.1155   21.1724 H   0  0  0  0  0  0
  -26.0808  -25.9654   19.0372 H   0  0  0  0  0  0
  -23.9844  -27.2897   19.0364 H   0  0  0  0  0  0
  -23.7107  -30.5959   19.4013 H   0  0  0  0  0  0
  -22.7347  -29.2372   19.8726 H   0  0  0  0  0  0
  -25.1274  -36.1998   25.0825 H   0  0  0  0  0  0
  -20.9960  -28.3268   24.1427 H   0  0  0  0  0  0
  -20.5678  -26.2300   23.3604 H   0  0  0  0  0  0
  -21.6637  -26.7474   22.1204 H   0  0  0  0  0  0
  -19.6910  -25.6315   21.1233 H   0  0  0  0  0  0
  -19.6676  -27.3220   20.6749 H   0  0  0  0  0  0
  -17.4186  -26.6689   21.4028 H   0  0  0  0  0  0
  -18.0328  -26.0069   22.9008 H   0  0  0  0  0  0
  -19.7929  -30.7256   24.2325 H   0  0  0  0  0  0
  -17.5012  -31.6276   24.5170 H   0  0  0  0  0  0
  -15.5352  -30.3021   23.7629 H   0  0  0  0  0  0
  -15.8652  -28.0835   22.7079 H   0  0  0  0  0  0
  -24.5917  -30.7053   25.7807 H   0  0  0  0  0  0
  -24.8954  -32.2844   26.4972 H   0  0  0  0  0  0
  -25.8115  -30.8830   27.0211 H   0  0  0  0  0  0
  -26.2815  -29.6812   24.1185 H   0  0  0  0  0  0
  -27.4081  -29.7293   25.4554 H   0  0  0  0  0  0
  -27.8649  -30.4356   23.9223 H   0  0  0  0  0  0
  -27.2675  -33.3608   26.2101 H   0  0  0  0  0  0
  -28.3831  -32.6920   25.0282 H   0  0  0  0  0  0
  -28.0763  -31.8432   26.5353 H   0  0  0  0  0  0
  -28.2602  -38.0109   24.7529 H   0  0  0  0  0  0
  -28.1081  -36.2647   24.6255 H   0  0  0  0  0  0
  -27.2310  -37.1422   25.8865 H   0  0  0  0  0  0
  -20.9296  -29.8748   21.6911 H   0  0  0  0  0  0
  -26.0190  -38.2887   24.1423 H   0  0  0  0  0  0
  -28.7173  -18.7496   18.4740 H   0  0  0  0  0  0
  -28.7682  -21.1271   19.0148 H   0  0  0  0  0  0
  -31.1293  -20.2853   22.5173 H   0  0  0  0  0  0
  -32.8337  -24.3571   21.4936 H   0  0  0  0  0  0
  -32.1872  -23.8594   19.9464 H   0  0  0  0  0  0
  -31.3358  -22.8552   22.6935 H   0  0  0  0  0  0
  -32.2053  -21.9810   21.4466 H   0  0  0  0  0  0
  -32.5087  -17.1646   23.6523 H   0  0  0  0  0  0
  -31.3361  -18.4390   23.9603 H   0  0  0  0  0  0
  -32.7750  -18.7553   22.9590 H   0  0  0  0  0  0
  -30.9541  -16.6372   19.0697 H   0  0  0  0  0  0
  -29.2428  -16.5450   18.8632 H   0  0  0  0  0  0
  -28.5168  -26.2252   22.1139 H   0  0  0  0  0  0
  -27.3975  -25.2232   21.2427 H   0  0  0  0  0  0
  -28.9420  -15.3690   20.8872 H   0  0  0  0  0  0
  1 25  1  0  0  0
  1 30  2  0  0  0
  1 86  1  0  0  0
  2  3  1  0  0  0
  2 25  1  0  0  0
  2 90  1  0  0  0
  2 91  1  0  0  0
  3  4  1  0  0  0
  3 92  1  0  0  0
  3 93  1  0  0  0
  4  5  1  0  0  0
  4 94  1  0  0  0
  4 95  1  0  0  0
  5  6  1  0  0  0
  5 26  1  0  0  0
  5 96  1  0  0  0
  6 25  1  0  0  0
  6 97  1  0  0  0
  6 98  1  0  0  0
  7  8  2  0  0  0
  7 26  1  0  0  0
  7 29  1  0  0  0
  8  9  1  0  0  0
  8 22  1  0  0  0
  9 10  1  0  0  0
  9 27  2  0  0  0
 10 11  2  0  0  0
 10 15  1  0  0  0
 11 12  1  0  0  0
 11 99  1  0  0  0
 12 13  2  0  0  0
 12100  1  0  0  0
 13 14  1  0  0  0
 13 31  1  0  0  0
 14 15  2  0  0  0
 14101  1  0  0  0
 15102  1  0  0  0
 16 17  2  0  0  0
 16 21  1  0  0  0
 16 31  1  0  0  0
 17 18  1  0  0  0
 17103  1  0  0  0
 18 19  2  0  0  0
 18104  1  0  0  0
 19 20  1  0  0  0
 19 24  1  0  0  0
 20 21  2  0  0  0
 20105  1  0  0  0
 21 23  1  0  0  0
 22 28  1  0  0  0
 22 32  2  0  0  0
 26 27  1  0  0  0
 28106  1  0  0  0
 28107  1  0  0  0
 29108  1  0  0  0
 29109  1  0  0  0
 33 34  1  0  0  0
 33 66  1  0  0  0
 33 70  2  0  0  0
 34 36  1  0  0  0
 34 59  1  0  0  0
 34110  1  0  0  0
 35 44  2  0  0  0
 35 45  1  0  0  0
 35 68  1  0  0  0
 36 56  1  0  0  0
 36111  1  0  0  0
 37 39  1  0  0  0
 37 47  1  0  0  0
 37 66  1  0  0  0
 37112  1  0  0  0
 38 43  2  0  0  0
 38 46  1  0  0  0
 38 47  1  0  0  0
 39 64  1  0  0  0
 39 67  2  0  0  0
 40 52  1  0  0  0
 40 53  2  0  0  0
 40 58  1  0  0  0
 41113  1  0  0  0
 41114  1  0  0  0
 41115  1  0  0  0
 41 48  1  0  0  0
 42 43  1  0  0  0
 42 66  1  0  0  0
 42116  1  0  0  0
 42117  1  0  0  0
 43 44  1  0  0  0
 44118  1  0  0  0
 45 46  2  0  0  0
 45119  1  0  0  0
 46120  1  0  0  0
 47121  1  0  0  0
 47122  1  0  0  0
 48 56  1  0  0  0
 48 65  1  0  0  0
 48123  1  0  0  0
 49 50  1  0  0  0
 49 53  1  0  0  0
 49 64  1  0  0  0
 49124  1  0  0  0
 50 51  1  0  0  0
 50125  1  0  0  0
 50126  1  0  0  0
 51 52  1  0  0  0
 51127  1  0  0  0
 51128  1  0  0  0
 52129  1  0  0  0
 52130  1  0  0  0
 53 54  1  0  0  0
 54 55  2  0  0  0
 54131  1  0  0  0
 55 57  1  0  0  0
 55132  1  0  0  0
 56 69  2  0  0  0
 57 58  2  0  0  0
 57133  1  0  0  0
 58134  1  0  0  0
 59 60  1  0  0  0
 59 61  1  0  0  0
 59 62  1  0  0  0
 60135  1  0  0  0
 60136  1  0  0  0
 60137  1  0  0  0
 61138  1  0  0  0
 61139  1  0  0  0
 61140  1  0  0  0
 62141  1  0  0  0
 62142  1  0  0  0
 62143  1  0  0  0
 63 65  1  0  0  0
 63144  1  0  0  0
 63145  1  0  0  0
 63146  1  0  0  0
 64147  1  0  0  0
 65148  1  0  0  0
 68 84  1  0  0  0
 71 72  2  0  0  0
 71 74  1  0  0  0
 71149  1  0  0  0
 72 75  1  0  0  0
 72150  1  0  0  0
 73 75  2  0  0  0
 73 76  1  0  0  0
 73151  1  0  0  0
 74 76  2  0  0  0
 74 83  1  0  0  0
 75 85  1  0  0  0
 76 89  1  0  0  0
 77 78  2  0  0  0
 77 79  1  0  0  0
 77 84  1  0  0  0
 78 80  1  0  0  0
 78 87  1  0  0  0
 79 85  1  0  0  0
 79 88  2  0  0  0
 80 81  1  0  0  0
 80152  1  0  0  0
 80153  1  0  0  0
 81 85  1  0  0  0
 81154  1  0  0  0
 81155  1  0  0  0
 82 89  1  0  0  0
 82156  1  0  0  0
 82157  1  0  0  0
 82158  1  0  0  0
 83 86  1  0  0  0
 83159  1  0  0  0
 83160  1  0  0  0
 84161  1  0  0  0
 84162  1  0  0  0
 86163  1  0  0  0
M  CHG  1  87  -1
M  ISO  4   1 100  68 101  84 101  86 100
M  END
> <chiral flag>
0

> <version>
0

> <s_m_source_file>
/data/baiqing/PycharmProjects/Reinvent-master-3.2/result/LINK_invent/BTK/process_docking_weight1_custom_product_contain_oxygen_bond_distance_aromatic_linkinvent_7_9_3/rearranged_h_0104.sdf

> <i_m_source_file_index>
12

> <r_mmod_Potential_Energy-OPLS-2005>
-257.864074707031

> <r_mmod_Stretch_Energy-OPLS-2005>
45.1191864013672

> <r_mmod_Bend_Energy-OPLS-2005>
112.258110046387

> <r_mmod_Torsional_Energy-OPLS-2005>
294.732391357422

> <r_mmod_Improper_Torsional_Energy-OPLS-2005>
13.4056301116943

> <r_mmod_Van_der_Waal_Energy-OPLS-2005>
185.255126953125

> <r_mmod_Electrostatic_Energy-OPLS-2005>
-418.114105224609

> <r_mmod_Solvation_Energy-OPLS-2005>
-507.703674316406

> <b_mmod_Minimization_Converged-OPLS-2005>
0

> <r_mmod_RMS_Derivative-OPLS-2005>
1.52660691738129

$$$$
13
                    3D
 Structure written by MMmdl.
157165  0  0  1  0            999 V2000
  -30.6808  -14.5817   21.0613 C   0  0  0  0  0  0
  -31.3158  -13.7878   19.0788 C   0  0  0  0  0  0
  -28.6922  -14.0741   17.2357 C   0  0  0  0  0  0
  -27.3249  -13.3738   18.2536 C   0  0  0  0  0  0
  -27.5077  -13.1373   20.0259 C   0  0  2  0  0  0
  -29.0048  -12.7498   21.0325 C   0  0  0  0  0  0
  -25.1791  -13.7670   20.6404 C   0  0  0  0  0  0
  -24.1123  -12.9984   20.9583 C   0  0  0  0  0  0
  -24.5795  -11.6481   20.9150 C   0  0  0  0  0  0
  -23.8621  -10.3975   21.0589 C   0  0  0  0  0  0
  -24.3322   -9.3943   21.9304 C   0  0  0  0  0  0
  -23.6094   -8.1963   22.0767 C   0  0  0  0  0  0
  -22.4098   -8.0053   21.3514 C   0  0  0  0  0  0
  -21.9674   -8.9995   20.4618 C   0  0  0  0  0  0
  -22.6911  -10.1897   20.3103 C   0  0  0  0  0  0
  -21.6747   -6.0617   22.5287 C   0  0  0  0  0  0
  -21.3933   -6.5569   23.8207 C   0  0  0  0  0  0
  -21.3636   -5.6752   24.9188 C   0  0  0  0  0  0
  -21.6049   -4.3017   24.7259 C   0  0  0  0  0  0
  -21.8831   -3.8082   23.4392 C   0  0  0  0  0  0
  -21.9163   -4.6869   22.3429 C   0  0  0  0  0  0
  -22.7230  -13.4938   21.1960 C   0  0  0  0  0  0
  -22.1653   -4.2064   21.1008 F   0  0  0  0  0  0
  -21.5650   -3.4519   25.7784 F   0  0  0  0  0  0
  -30.6146  -13.3402   20.6561 N   0  0  0  0  0  0
  -26.2226  -12.8560   20.5023 N   0  0  0  0  0  0
  -25.8724  -11.5802   20.6555 N   0  0  0  0  0  0
  -21.9807  -12.8062   22.0524 N   0  0  0  0  0  0
  -25.3268  -15.1460   20.4417 N   0  0  0  0  0  0
  -31.7408  -15.2123   21.0478 O   0  0  0  0  0  0
  -21.6476   -6.8683   21.4218 O   0  0  0  0  0  0
  -22.3137  -14.5302   20.6731 O   0  0  0  0  0  0
  -24.6789  -31.8080   23.1576 C   0  0  0  0  0  0
  -25.9406  -32.4500   23.8085 C   0  0  1  0  0  0
  -27.2237  -26.8322   20.0462 C   0  0  0  0  0  0
  -25.6011  -33.8322   24.1981 N   0  0  0  0  0  0
  -23.4946  -30.4193   21.5162 C   0  0  2  0  0  0
  -24.9357  -28.7842   20.1068 C   0  0  0  0  0  0
  -22.7721  -29.4372   22.4765 C   0  0  0  0  0  0
  -18.0330  -28.1412   22.8461 C   0  0  0  0  0  0
  -24.1498  -36.7168   23.2649 C   0  0  0  0  0  0
  -26.0755  -30.5701   21.4004 C   0  0  0  0  0  0
  -26.1378  -29.1542   20.7222 C   0  0  0  0  0  0
  -27.2734  -28.2006   20.6658 C   0  0  0  0  0  0
  -25.9687  -26.6338   19.4335 C   0  0  0  0  0  0
  -24.8784  -27.5427   19.4564 C   0  0  0  0  0  0
  -23.7323  -29.7297   20.1469 C   0  0  0  0  0  0
  -25.4145  -36.2913   24.0285 C   0  0  1  0  0  0
  -20.5959  -28.3764   23.1167 C   0  0  2  0  0  0
  -20.6802  -26.9437   22.5399 C   0  0  0  0  0  0
  -19.5778  -26.6373   21.5211 C   0  0  0  0  0  0
  -18.1960  -26.7943   22.1619 C   0  0  0  0  0  0
  -19.1594  -28.8911   23.2796 C   0  0  0  0  0  0
  -18.9503  -30.1496   23.8837 C   0  0  0  0  0  0
  -17.6495  -30.6599   24.0550 C   0  0  0  0  0  0
  -25.9126  -34.9302   23.4963 C   0  0  0  0  0  0
  -16.5384  -29.9083   23.6346 C   0  0  0  0  0  0
  -16.7311  -28.6504   23.0365 C   0  0  0  0  0  0
  -26.4597  -31.6504   25.0681 C   0  0  0  0  0  0
  -25.3681  -31.3805   26.1311 C   0  0  0  0  0  0
  -27.0512  -30.2849   24.6523 C   0  0  0  0  0  0
  -27.6053  -32.4348   25.7501 C   0  0  0  0  0  0
  -27.5567  -37.1741   24.8464 C   0  0  0  0  0  0
  -21.4378  -29.3037   22.3512 N   0  0  0  0  0  0
  -26.4273  -37.3670   23.9408 N   0  0  0  0  0  0
  -24.7740  -30.9612   22.0777 N   0  0  0  0  0  0
  -23.4218  -28.7947   23.3049 O   0  0  0  0  0  0
  -28.2260  -25.6873   19.9516 O   0  0  0  0  0  0
  -26.5751  -34.8871   22.4571 O   0  0  0  0  0  0
  -23.5833  -32.1115   23.6601 O   0  0  0  0  0  0
  -30.4819  -12.5430   17.2502 C   0  0  0  0  0  0
  -29.5492  -12.6076   18.6099 C   0  0  0  0  0  0
  -30.7476  -15.4513   17.2341 C   0  0  0  0  0  0
  -31.0447  -13.9560   16.6634 C   0  0  0  0  0  0
  -29.2943  -14.6492   19.2854 C   0  0  0  0  0  0
  -29.8620  -15.9265   18.4717 C   0  0  0  0  0  0
  -31.9265  -13.8616   15.4369 C   0  0  0  0  0  0
  -28.9761  -22.4606   19.2854 C   0  0  0  0  0  0
  -28.7483  -20.5953   19.2980 C   0  0  0  0  0  0
  -28.0024  -24.0059   19.7260 C   0  0  0  0  0  0
  -29.6004  -19.0351   18.6827 C   0  0  0  0  0  0
  -29.5464  -15.1275   20.6249 N   0  0  0  0  0  0
  -29.4377  -17.3719   18.9614 O   0  0  0  0  0  0
  -32.0869  -14.5629   18.9807 H   0  0  0  0  0  0
  -32.0038  -12.9401   18.9418 H   0  0  0  0  0  0
  -28.6360  -13.5882   16.2508 H   0  0  0  0  0  0
  -28.3186  -15.0627   16.9407 H   0  0  0  0  0  0
  -27.0550  -12.4062   17.8250 H   0  0  0  0  0  0
  -26.4419  -13.9859   18.0699 H   0  0  0  0  0  0
  -27.4317  -14.1348   20.4189 H   0  0  0  0  0  0
  -29.0822  -11.6658   21.1272 H   0  0  0  0  0  0
  -28.7802  -13.0386   22.0618 H   0  0  0  0  0  0
  -25.2432   -9.5474   22.4923 H   0  0  0  0  0  0
  -23.9813   -7.4331   22.7457 H   0  0  0  0  0  0
  -21.0622   -8.8470   19.8911 H   0  0  0  0  0  0
  -22.3374  -10.9475   19.6253 H   0  0  0  0  0  0
  -21.1886   -7.6074   23.9678 H   0  0  0  0  0  0
  -21.1465   -6.0497   25.9087 H   0  0  0  0  0  0
  -22.0647   -2.7548   23.2916 H   0  0  0  0  0  0
  -22.3347  -11.9731   22.4986 H   0  0  0  0  0  0
  -21.0437  -13.1169   22.2667 H   0  0  0  0  0  0
  -24.5361  -15.7796   20.4863 H   0  0  0  0  0  0
  -26.1762  -15.5958   20.1231 H   0  0  0  0  0  0
  -26.7479  -32.4975   23.0790 H   0  0  0  0  0  0
  -25.0085  -33.9363   25.0085 H   0  0  0  0  0  0
  -22.8161  -31.2567   21.3397 H   0  0  0  0  0  0
  -23.3777  -35.9479   23.3261 H   0  0  0  0  0  0
  -24.3570  -36.8878   22.2074 H   0  0  0  0  0  0
  -23.7240  -37.6329   23.6754 H   0  0  0  0  0  0
  -26.2763  -31.3143   20.6286 H   0  0  0  0  0  0
  -26.9274  -30.6172   22.0670 H   0  0  0  0  0  0
  -28.1941  -28.4907   21.1518 H   0  0  0  0  0  0
  -25.7993  -25.7014   18.9164 H   0  0  0  0  0  0
  -23.9619  -27.2514   18.9617 H   0  0  0  0  0  0
  -23.8969  -30.4959   19.3886 H   0  0  0  0  0  0
  -22.8350  -29.1964   19.8278 H   0  0  0  0  0  0
  -25.1351  -36.1681   25.0775 H   0  0  0  0  0  0
  -21.0040  -28.3378   24.1292 H   0  0  0  0  0  0
  -20.5672  -26.2385   23.3649 H   0  0  0  0  0  0
  -21.6666  -26.7395   22.1213 H   0  0  0  0  0  0
  -19.6937  -25.6269   21.1278 H   0  0  0  0  0  0
  -19.6719  -27.3151   20.6716 H   0  0  0  0  0  0
  -17.4227  -26.6678   21.4026 H   0  0  0  0  0  0
  -18.0359  -26.0097   22.9029 H   0  0  0  0  0  0
  -19.7978  -30.7325   24.2183 H   0  0  0  0  0  0
  -17.5047  -31.6274   24.5162 H   0  0  0  0  0  0
  -15.5382  -30.2969   23.7703 H   0  0  0  0  0  0
  -15.8710  -28.0801   22.7118 H   0  0  0  0  0  0
  -24.5882  -30.7134   25.7621 H   0  0  0  0  0  0
  -24.8853  -32.3023   26.4565 H   0  0  0  0  0  0
  -25.7878  -30.9084   27.0202 H   0  0  0  0  0  0
  -26.3208  -29.6484   24.1518 H   0  0  0  0  0  0
  -27.3971  -29.7270   25.5236 H   0  0  0  0  0  0
  -27.9177  -30.3991   24.0009 H   0  0  0  0  0  0
  -27.2594  -33.3708   26.1899 H   0  0  0  0  0  0
  -28.3960  -32.6814   25.0403 H   0  0  0  0  0  0
  -28.0613  -31.8595   26.5568 H   0  0  0  0  0  0
  -28.2549  -38.0069   24.7520 H   0  0  0  0  0  0
  -28.1099  -36.2593   24.6282 H   0  0  0  0  0  0
  -27.2284  -37.1366   25.8866 H   0  0  0  0  0  0
  -20.9660  -29.8722   21.6617 H   0  0  0  0  0  0
  -26.0104  -38.2719   24.1426 H   0  0  0  0  0  0
  -30.7418  -11.5968   16.7970 H   0  0  0  0  0  0
  -29.2923  -11.6458   19.0344 H   0  0  0  0  0  0
  -31.1851  -16.2582   16.6641 H   0  0  0  0  0  0
  -31.5541  -13.0970   14.7550 H   0  0  0  0  0  0
  -32.9454  -13.5997   15.7222 H   0  0  0  0  0  0
  -31.9531  -14.8079   14.8963 H   0  0  0  0  0  0
  -29.2856  -22.6606   18.2594 H   0  0  0  0  0  0
  -29.8978  -22.5893   19.8530 H   0  0  0  0  0  0
  -27.7365  -20.4745   18.9114 H   0  0  0  0  0  0
  -28.6346  -20.3893   20.3621 H   0  0  0  0  0  0
  -27.5421  -23.7339   20.6761 H   0  0  0  0  0  0
  -27.1717  -23.9666   19.0234 H   0  0  0  0  0  0
  -30.6520  -19.2028   18.9155 H   0  0  0  0  0  0
  -29.5636  -19.1107   17.5959 H   0  0  0  0  0  0
  -28.7798  -15.0153   21.2688 H   0  0  0  0  0  0
  1 25  1  0  0  0
  1 30  2  0  0  0
  1 82  1  0  0  0
  2  3  1  0  0  0
  2 25  1  0  0  0
  2 84  1  0  0  0
  2 85  1  0  0  0
  3  4  1  0  0  0
  3 86  1  0  0  0
  3 87  1  0  0  0
  4  5  1  0  0  0
  4 88  1  0  0  0
  4 89  1  0  0  0
  5  6  1  0  0  0
  5 26  1  0  0  0
  5 90  1  0  0  0
  6 25  1  0  0  0
  6 91  1  0  0  0
  6 92  1  0  0  0
  7  8  2  0  0  0
  7 26  1  0  0  0
  7 29  1  0  0  0
  8  9  1  0  0  0
  8 22  1  0  0  0
  9 10  1  0  0  0
  9 27  2  0  0  0
 10 11  2  0  0  0
 10 15  1  0  0  0
 11 12  1  0  0  0
 11 93  1  0  0  0
 12 13  2  0  0  0
 12 94  1  0  0  0
 13 14  1  0  0  0
 13 31  1  0  0  0
 14 15  2  0  0  0
 14 95  1  0  0  0
 15 96  1  0  0  0
 16 17  2  0  0  0
 16 21  1  0  0  0
 16 31  1  0  0  0
 17 18  1  0  0  0
 17 97  1  0  0  0
 18 19  2  0  0  0
 18 98  1  0  0  0
 19 20  1  0  0  0
 19 24  1  0  0  0
 20 21  2  0  0  0
 20 99  1  0  0  0
 21 23  1  0  0  0
 22 28  1  0  0  0
 22 32  2  0  0  0
 26 27  1  0  0  0
 28100  1  0  0  0
 28101  1  0  0  0
 29102  1  0  0  0
 29103  1  0  0  0
 33 34  1  0  0  0
 33 66  1  0  0  0
 33 70  2  0  0  0
 34 36  1  0  0  0
 34 59  1  0  0  0
 34104  1  0  0  0
 35 44  2  0  0  0
 35 45  1  0  0  0
 35 68  1  0  0  0
 36 56  1  0  0  0
 36105  1  0  0  0
 37 39  1  0  0  0
 37 47  1  0  0  0
 37 66  1  0  0  0
 37106  1  0  0  0
 38 43  2  0  0  0
 38 46  1  0  0  0
 38 47  1  0  0  0
 39 64  1  0  0  0
 39 67  2  0  0  0
 40 52  1  0  0  0
 40 53  2  0  0  0
 40 58  1  0  0  0
 41107  1  0  0  0
 41108  1  0  0  0
 41109  1  0  0  0
 41 48  1  0  0  0
 42 43  1  0  0  0
 42 66  1  0  0  0
 42110  1  0  0  0
 42111  1  0  0  0
 43 44  1  0  0  0
 44112  1  0  0  0
 45 46  2  0  0  0
 45113  1  0  0  0
 46114  1  0  0  0
 47115  1  0  0  0
 47116  1  0  0  0
 48 56  1  0  0  0
 48 65  1  0  0  0
 48117  1  0  0  0
 49 50  1  0  0  0
 49 53  1  0  0  0
 49 64  1  0  0  0
 49118  1  0  0  0
 50 51  1  0  0  0
 50119  1  0  0  0
 50120  1  0  0  0
 51 52  1  0  0  0
 51121  1  0  0  0
 51122  1  0  0  0
 52123  1  0  0  0
 52124  1  0  0  0
 53 54  1  0  0  0
 54 55  2  0  0  0
 54125  1  0  0  0
 55 57  1  0  0  0
 55126  1  0  0  0
 56 69  2  0  0  0
 57 58  2  0  0  0
 57127  1  0  0  0
 58128  1  0  0  0
 59 60  1  0  0  0
 59 61  1  0  0  0
 59 62  1  0  0  0
 60129  1  0  0  0
 60130  1  0  0  0
 60131  1  0  0  0
 61132  1  0  0  0
 61133  1  0  0  0
 61134  1  0  0  0
 62135  1  0  0  0
 62136  1  0  0  0
 62137  1  0  0  0
 63 65  1  0  0  0
 63138  1  0  0  0
 63139  1  0  0  0
 63140  1  0  0  0
 64141  1  0  0  0
 65142  1  0  0  0
 68 80  1  0  0  0
 71 72  2  0  0  0
 71 74  1  0  0  0
 71143  1  0  0  0
 72 75  1  0  0  0
 72144  1  0  0  0
 73 74  2  0  0  0
 73 76  1  0  0  0
 73145  1  0  0  0
 74 77  1  0  0  0
 75 76  2  0  0  0
 75 82  1  0  0  0
 76 83  1  0  0  0
 77146  1  0  0  0
 77147  1  0  0  0
 77148  1  0  0  0
 78 79  1  0  0  0
 78 80  1  0  0  0
 78149  1  0  0  0
 78150  1  0  0  0
 79 81  1  0  0  0
 79151  1  0  0  0
 79152  1  0  0  0
 80153  1  0  0  0
 80154  1  0  0  0
 81 83  1  0  0  0
 81155  1  0  0  0
 81156  1  0  0  0
 82157  1  0  0  0
M  ISO  4   1 100  68 101  80 101  82 100
M  END
> <chiral flag>
0

> <version>
0

> <s_m_source_file>
/data/baiqing/PycharmProjects/Reinvent-master-3.2/result/LINK_invent/BTK/process_docking_weight1_custom_product_contain_oxygen_bond_distance_aromatic_linkinvent_7_9_3/rearranged_h_0104.sdf

> <i_m_source_file_index>
13

> <r_mmod_Potential_Energy-OPLS-2005>
11108.98828125

> <r_mmod_Stretch_Energy-OPLS-2005>
6305.103515625

> <r_mmod_Bend_Energy-OPLS-2005>
882.337707519531

> <r_mmod_Torsional_Energy-OPLS-2005>
399.056030273438

> <r_mmod_Improper_Torsional_Energy-OPLS-2005>
58.7287368774414

> <r_mmod_Van_der_Waal_Energy-OPLS-2005>
2749.15454101562

> <r_mmod_Electrostatic_Energy-OPLS-2005>
-406.390075683594

> <r_mmod_Solvation_Energy-OPLS-2005>
-221.77473449707

> <b_mmod_Minimization_Converged-OPLS-2005>
0

> <r_mmod_RMS_Derivative-OPLS-2005>
0.678669273853302

$$$$
14
                    3D
 Structure written by MMmdl.
160169  0  0  1  0            999 V2000
  -30.6412  -14.5759   20.5428 C   0  0  0  0  0  0
  -30.4384  -12.3618   19.4381 C   0  0  0  0  0  0
  -29.5049  -12.5090   18.2162 C   0  0  0  0  0  0
  -28.0272  -12.3534   18.6283 C   0  0  0  0  0  0
  -27.6589  -13.2082   19.8703 C   0  0  2  0  0  0
  -28.7026  -13.0186   20.9946 C   0  0  0  0  0  0
  -25.2576  -13.8153   20.5681 C   0  0  0  0  0  0
  -24.1831  -13.0428   20.9175 C   0  0  0  0  0  0
  -24.6388  -11.6893   20.8720 C   0  0  0  0  0  0
  -23.9059  -10.4284   21.0388 C   0  0  0  0  0  0
  -24.3610   -9.4207   21.9172 C   0  0  0  0  0  0
  -23.6281   -8.2246   22.0753 C   0  0  0  0  0  0
  -22.4258   -8.0281   21.3551 C   0  0  0  0  0  0
  -21.9884   -9.0253   20.4653 C   0  0  0  0  0  0
  -22.7223  -10.2127   20.3052 C   0  0  0  0  0  0
  -21.6858   -6.0720   22.5274 C   0  0  0  0  0  0
  -21.4018   -6.5630   23.8203 C   0  0  0  0  0  0
  -21.3657   -5.6783   24.9165 C   0  0  0  0  0  0
  -21.6036   -4.3044   24.7221 C   0  0  0  0  0  0
  -21.8825   -3.8136   23.4345 C   0  0  0  0  0  0
  -21.9197   -4.6950   22.3402 C   0  0  0  0  0  0
  -22.7858  -13.5233   21.1841 C   0  0  0  0  0  0
  -22.1666   -4.2139   21.0976 F   0  0  0  0  0  0
  -21.5624   -3.4528   25.7734 F   0  0  0  0  0  0
  -30.0265  -13.3581   20.4429 N   0  0  0  0  0  0
  -26.3004  -12.9320   20.3335 N   0  0  0  0  0  0
  -25.9312  -11.6478   20.5738 N   0  0  0  0  0  0
  -22.0502  -12.8237   22.0402 N   0  0  0  0  0  0
  -25.4299  -15.1872   20.4109 N   0  0  0  0  0  0
  -31.7772  -14.7754   20.0999 O   0  0  0  0  0  0
  -21.6640   -6.8864   21.4237 O   0  0  0  0  0  0
  -22.3538  -14.5534   20.6688 O   0  0  0  0  0  0
  -24.6215  -31.8628   23.2062 C   0  0  0  0  0  0
  -25.9077  -32.4795   23.8375 C   0  0  1  0  0  0
  -27.2279  -27.3660   20.0993 C   0  0  0  0  0  0
  -25.5903  -33.8596   24.2298 N   0  0  0  0  0  0
  -23.4121  -30.4875   21.5490 C   0  0  2  0  0  0
  -24.8582  -28.9514   20.1105 C   0  0  0  0  0  0
  -22.7456  -29.4625   22.4967 C   0  0  0  0  0  0
  -18.0279  -28.1379   22.8484 C   0  0  0  0  0  0
  -24.1486  -36.7309   23.2639 C   0  0  0  0  0  0
  -25.9500  -30.8079   21.3710 C   0  0  0  0  0  0
  -26.0251  -29.4404   20.7110 C   0  0  0  0  0  0
  -27.2118  -28.6566   20.7009 C   0  0  0  0  0  0
  -26.0287  -26.9079   19.5028 C   0  0  0  0  0  0
  -24.8582  -27.6876   19.5018 C   0  0  0  0  0  0
  -23.6235  -29.8249   20.1628 C   0  0  0  0  0  0
  -25.4099  -36.3090   24.0335 C   0  0  1  0  0  0
  -20.5872  -28.3661   23.1306 C   0  0  2  0  0  0
  -20.6763  -26.9389   22.5422 C   0  0  0  0  0  0
  -19.5742  -26.6378   21.5214 C   0  0  0  0  0  0
  -18.1920  -26.7923   22.1621 C   0  0  0  0  0  0
  -19.1528  -28.8838   23.2894 C   0  0  0  0  0  0
  -18.9454  -30.1445   23.8908 C   0  0  0  0  0  0
  -17.6454  -30.6575   24.0562 C   0  0  0  0  0  0
  -25.9034  -34.9460   23.5111 C   0  0  0  0  0  0
  -16.5345  -29.9072   23.6332 C   0  0  0  0  0  0
  -16.7267  -28.6494   23.0342 C   0  0  0  0  0  0
  -26.4474  -31.6593   25.0732 C   0  0  0  0  0  0
  -25.3723  -31.3750   26.1480 C   0  0  0  0  0  0
  -27.0283  -30.3006   24.6166 C   0  0  0  0  0  0
  -27.6052  -32.4319   25.7485 C   0  0  0  0  0  0
  -27.5577  -37.1801   24.8455 C   0  0  0  0  0  0
  -21.4168  -29.3023   22.3713 N   0  0  0  0  0  0
  -26.4282  -37.3775   23.9407 N   0  0  0  0  0  0
  -24.6799  -31.0679   22.0995 N   0  0  0  0  0  0
  -23.4200  -28.8160   23.3019 O   0  0  0  0  0  0
  -28.3581  -26.5462   20.1568 O   0  0  0  0  0  0
  -26.5616  -34.8929   22.4688 O   0  0  0  0  0  0
  -23.5394  -32.1415   23.7422 O   0  0  0  0  0  0
  -28.6403  -18.8979   19.7791 C   0  0  0  0  0  0
  -28.7997  -17.5057   19.9940 C   0  0  0  0  0  0
  -30.5764  -19.3287   21.1448 C   0  0  0  0  0  0
  -30.7547  -17.9265   21.3553 C   0  0  0  0  0  0
  -29.5204  -19.8527   20.3523 C   0  0  0  0  0  0
  -29.8606  -16.9856   20.7714 C   0  0  0  0  0  0
  -28.9199  -24.1821   19.6021 C   0  0  0  0  0  0
  -28.4390  -25.4322   19.3243 C   0  0  0  0  0  0
  -29.0101  -23.1272   18.5004 C   0  0  0  0  0  0
  -29.5087  -23.6872   20.9287 C   0  0  0  0  0  0
  -28.6196  -21.6979   18.9477 C   0  0  0  0  0  0
  -29.2385  -22.1759   21.2685 C   0  0  0  0  0  0
  -31.9007  -17.4566   22.2337 C   0  0  0  0  0  0
  -29.3794  -21.2611   20.1213 N   0  0  0  0  0  0
  -29.8709  -15.5675   21.0623 N   0  0  0  0  0  0
  -31.4792  -12.4862   19.1343 H   0  0  0  0  0  0
  -30.3690  -11.3571   19.8576 H   0  0  0  0  0  0
  -29.7592  -11.7672   17.4581 H   0  0  0  0  0  0
  -29.6557  -13.4856   17.7529 H   0  0  0  0  0  0
  -27.8544  -11.2981   18.8446 H   0  0  0  0  0  0
  -27.3745  -12.6035   17.7908 H   0  0  0  0  0  0
  -27.6913  -14.2503   19.5533 H   0  0  0  0  0  0
  -28.7005  -11.9845   21.3415 H   0  0  0  0  0  0
  -28.4478  -13.6176   21.8698 H   0  0  0  0  0  0
  -25.2757   -9.5674   22.4744 H   0  0  0  0  0  0
  -23.9997   -7.4628   22.7460 H   0  0  0  0  0  0
  -21.0814   -8.8765   19.8952 H   0  0  0  0  0  0
  -22.3684  -10.9659   19.6155 H   0  0  0  0  0  0
  -21.2018   -7.6138   23.9700 H   0  0  0  0  0  0
  -21.1469   -6.0514   25.9062 H   0  0  0  0  0  0
  -22.0611   -2.7596   23.2853 H   0  0  0  0  0  0
  -22.4119  -11.9903   22.4794 H   0  0  0  0  0  0
  -21.1123  -13.1271   22.2612 H   0  0  0  0  0  0
  -24.6650  -15.8444   20.5204 H   0  0  0  0  0  0
  -26.2829  -15.6238   20.0899 H   0  0  0  0  0  0
  -26.7150  -32.5483   23.1137 H   0  0  0  0  0  0
  -25.0012  -33.9741   25.0415 H   0  0  0  0  0  0
  -22.7029  -31.3060   21.4101 H   0  0  0  0  0  0
  -23.3740  -35.9652   23.3301 H   0  0  0  0  0  0
  -24.3585  -36.8925   22.2054 H   0  0  0  0  0  0
  -23.7264  -37.6520   23.6665 H   0  0  0  0  0  0
  -26.0762  -31.5753   20.6061 H   0  0  0  0  0  0
  -26.8329  -30.8543   21.9973 H   0  0  0  0  0  0
  -28.1088  -29.0255   21.1796 H   0  0  0  0  0  0
  -25.9665  -25.9276   19.0535 H   0  0  0  0  0  0
  -23.9591  -27.2986   19.0446 H   0  0  0  0  0  0
  -23.7369  -30.6021   19.4064 H   0  0  0  0  0  0
  -22.7451  -29.2503   19.8635 H   0  0  0  0  0  0
  -25.1277  -36.1938   25.0828 H   0  0  0  0  0  0
  -20.9961  -28.3230   24.1425 H   0  0  0  0  0  0
  -20.5636  -26.2270   23.3611 H   0  0  0  0  0  0
  -21.6637  -26.7413   22.1226 H   0  0  0  0  0  0
  -19.6898  -25.6292   21.1231 H   0  0  0  0  0  0
  -19.6676  -27.3194   20.6747 H   0  0  0  0  0  0
  -17.4188  -26.6674   21.4025 H   0  0  0  0  0  0
  -18.0311  -26.0060   22.9010 H   0  0  0  0  0  0
  -19.7928  -30.7261   24.2274 H   0  0  0  0  0  0
  -17.5003  -31.6251   24.5162 H   0  0  0  0  0  0
  -15.5341  -30.2964   23.7658 H   0  0  0  0  0  0
  -15.8668  -28.0814   22.7046 H   0  0  0  0  0  0
  -24.5870  -30.7124   25.7835 H   0  0  0  0  0  0
  -24.8957  -32.2929   26.4931 H   0  0  0  0  0  0
  -25.8052  -30.8913   27.0240 H   0  0  0  0  0  0
  -26.2829  -29.6794   24.1190 H   0  0  0  0  0  0
  -27.3964  -29.7236   25.4660 H   0  0  0  0  0  0
  -27.8715  -30.4282   23.9375 H   0  0  0  0  0  0
  -27.2666  -33.3611   26.2088 H   0  0  0  0  0  0
  -28.3837  -32.6894   25.0287 H   0  0  0  0  0  0
  -28.0748  -31.8433   26.5379 H   0  0  0  0  0  0
  -28.2597  -38.0095   24.7488 H   0  0  0  0  0  0
  -28.1072  -36.2630   24.6269 H   0  0  0  0  0  0
  -27.2313  -37.1448   25.8865 H   0  0  0  0  0  0
  -20.9343  -29.8756   21.6938 H   0  0  0  0  0  0
  -26.0169  -38.2855   24.1394 H   0  0  0  0  0  0
  -27.8033  -19.2146   19.1745 H   0  0  0  0  0  0
  -28.0778  -16.8334   19.5532 H   0  0  0  0  0  0
  -31.2774  -20.0170   21.5949 H   0  0  0  0  0  0
  -28.1018  -25.6768   18.3261 H   0  0  0  0  0  0
  -30.0394  -23.1159   18.1400 H   0  0  0  0  0  0
  -28.3952  -23.4217   17.6487 H   0  0  0  0  0  0
  -29.1735  -24.3282   21.7459 H   0  0  0  0  0  0
  -30.5879  -23.8277   20.8571 H   0  0  0  0  0  0
  -28.7821  -21.0135   18.1138 H   0  0  0  0  0  0
  -27.5538  -21.6652   19.1811 H   0  0  0  0  0  0
  -28.2186  -22.0797   21.6440 H   0  0  0  0  0  0
  -29.8879  -21.8671   22.0884 H   0  0  0  0  0  0
  -32.3148  -18.2745   22.8248 H   0  0  0  0  0  0
  -32.7012  -17.0473   21.6171 H   0  0  0  0  0  0
  -31.5706  -16.6810   22.9251 H   0  0  0  0  0  0
  -28.9863  -15.2086   21.3892 H   0  0  0  0  0  0
  1 25  1  0  0  0
  1 30  2  0  0  0
  1 85  1  0  0  0
  2  3  1  0  0  0
  2 25  1  0  0  0
  2 86  1  0  0  0
  2 87  1  0  0  0
  3  4  1  0  0  0
  3 88  1  0  0  0
  3 89  1  0  0  0
  4  5  1  0  0  0
  4 90  1  0  0  0
  4 91  1  0  0  0
  5  6  1  0  0  0
  5 26  1  0  0  0
  5 92  1  0  0  0
  6 25  1  0  0  0
  6 93  1  0  0  0
  6 94  1  0  0  0
  7  8  2  0  0  0
  7 26  1  0  0  0
  7 29  1  0  0  0
  8  9  1  0  0  0
  8 22  1  0  0  0
  9 10  1  0  0  0
  9 27  2  0  0  0
 10 11  2  0  0  0
 10 15  1  0  0  0
 11 12  1  0  0  0
 11 95  1  0  0  0
 12 13  2  0  0  0
 12 96  1  0  0  0
 13 14  1  0  0  0
 13 31  1  0  0  0
 14 15  2  0  0  0
 14 97  1  0  0  0
 15 98  1  0  0  0
 16 17  2  0  0  0
 16 21  1  0  0  0
 16 31  1  0  0  0
 17 18  1  0  0  0
 17 99  1  0  0  0
 18 19  2  0  0  0
 18100  1  0  0  0
 19 20  1  0  0  0
 19 24  1  0  0  0
 20 21  2  0  0  0
 20101  1  0  0  0
 21 23  1  0  0  0
 22 28  1  0  0  0
 22 32  2  0  0  0
 26 27  1  0  0  0
 28102  1  0  0  0
 28103  1  0  0  0
 29104  1  0  0  0
 29105  1  0  0  0
 33 34  1  0  0  0
 33 66  1  0  0  0
 33 70  2  0  0  0
 34 36  1  0  0  0
 34 59  1  0  0  0
 34106  1  0  0  0
 35 44  2  0  0  0
 35 45  1  0  0  0
 35 68  1  0  0  0
 36 56  1  0  0  0
 36107  1  0  0  0
 37 39  1  0  0  0
 37 47  1  0  0  0
 37 66  1  0  0  0
 37108  1  0  0  0
 38 43  2  0  0  0
 38 46  1  0  0  0
 38 47  1  0  0  0
 39 64  1  0  0  0
 39 67  2  0  0  0
 40 52  1  0  0  0
 40 53  2  0  0  0
 40 58  1  0  0  0
 41109  1  0  0  0
 41110  1  0  0  0
 41111  1  0  0  0
 41 48  1  0  0  0
 42 43  1  0  0  0
 42 66  1  0  0  0
 42112  1  0  0  0
 42113  1  0  0  0
 43 44  1  0  0  0
 44114  1  0  0  0
 45 46  2  0  0  0
 45115  1  0  0  0
 46116  1  0  0  0
 47117  1  0  0  0
 47118  1  0  0  0
 48 56  1  0  0  0
 48 65  1  0  0  0
 48119  1  0  0  0
 49 50  1  0  0  0
 49 53  1  0  0  0
 49 64  1  0  0  0
 49120  1  0  0  0
 50 51  1  0  0  0
 50121  1  0  0  0
 50122  1  0  0  0
 51 52  1  0  0  0
 51123  1  0  0  0
 51124  1  0  0  0
 52125  1  0  0  0
 52126  1  0  0  0
 53 54  1  0  0  0
 54 55  2  0  0  0
 54127  1  0  0  0
 55 57  1  0  0  0
 55128  1  0  0  0
 56 69  2  0  0  0
 57 58  2  0  0  0
 57129  1  0  0  0
 58130  1  0  0  0
 59 60  1  0  0  0
 59 61  1  0  0  0
 59 62  1  0  0  0
 60131  1  0  0  0
 60132  1  0  0  0
 60133  1  0  0  0
 61134  1  0  0  0
 61135  1  0  0  0
 61136  1  0  0  0
 62137  1  0  0  0
 62138  1  0  0  0
 62139  1  0  0  0
 63 65  1  0  0  0
 63140  1  0  0  0
 63141  1  0  0  0
 63142  1  0  0  0
 64143  1  0  0  0
 65144  1  0  0  0
 68 78  1  0  0  0
 71 72  2  0  0  0
 71 75  1  0  0  0
 71145  1  0  0  0
 72 76  1  0  0  0
 72146  1  0  0  0
 73 74  1  0  0  0
 73 75  2  0  0  0
 73147  1  0  0  0
 74 76  2  0  0  0
 74 83  1  0  0  0
 75 84  1  0  0  0
 76 85  1  0  0  0
 77 78  2  0  0  0
 77 79  1  0  0  0
 77 80  1  0  0  0
 78148  1  0  0  0
 79 81  1  0  0  0
 79149  1  0  0  0
 79150  1  0  0  0
 80 82  1  0  0  0
 80151  1  0  0  0
 80152  1  0  0  0
 81 84  1  0  0  0
 81153  1  0  0  0
 81154  1  0  0  0
 82 84  1  0  0  0
 82155  1  0  0  0
 82156  1  0  0  0
 83157  1  0  0  0
 83158  1  0  0  0
 83159  1  0  0  0
 85160  1  0  0  0
M  ISO  4   1 100  68 101  78 101  85 100
M  END
> <chiral flag>
0

> <version>
0

> <s_m_source_file>
/data/baiqing/PycharmProjects/Reinvent-master-3.2/result/LINK_invent/BTK/process_docking_weight1_custom_product_contain_oxygen_bond_distance_aromatic_linkinvent_7_9_3/rearranged_h_0104.sdf

> <i_m_source_file_index>
14

> <r_mmod_Potential_Energy-OPLS-2005>
5.84470272064209

> <r_mmod_Stretch_Energy-OPLS-2005>
56.3475151062012

> <r_mmod_Bend_Energy-OPLS-2005>
125.319381713867

> <r_mmod_Torsional_Energy-OPLS-2005>
256.705413818359

> <r_mmod_Improper_Torsional_Energy-OPLS-2005>
8.25722408294678

> <r_mmod_Van_der_Waal_Energy-OPLS-2005>
153.822021484375

> <r_mmod_Electrostatic_Energy-OPLS-2005>
-404.745361328125

> <r_mmod_Solvation_Energy-OPLS-2005>
-220.828369140625

> <b_mmod_Minimization_Converged-OPLS-2005>
0

> <r_mmod_RMS_Derivative-OPLS-2005>
1.68514049053192

$$$$
15
                    3D
 Structure written by MMmdl.
158167  0  0  1  0            999 V2000
  -30.5972  -14.7289   20.4715 C   0  0  0  0  0  0
  -30.4300  -12.4329   19.5020 C   0  0  0  0  0  0
  -29.5178  -12.4969   18.2553 C   0  0  0  0  0  0
  -28.0408  -12.3258   18.6552 C   0  0  0  0  0  0
  -27.6445  -13.2260   19.8557 C   0  0  2  0  0  0
  -28.6762  -13.1509   21.0047 C   0  0  0  0  0  0
  -25.2546  -13.8201   20.5676 C   0  0  0  0  0  0
  -24.1818  -13.0462   20.9165 C   0  0  0  0  0  0
  -24.6369  -11.6931   20.8699 C   0  0  0  0  0  0
  -23.9046  -10.4305   21.0387 C   0  0  0  0  0  0
  -24.3619   -9.4220   21.9162 C   0  0  0  0  0  0
  -23.6296   -8.2248   22.0737 C   0  0  0  0  0  0
  -22.4284   -8.0272   21.3514 C   0  0  0  0  0  0
  -21.9905   -9.0243   20.4633 C   0  0  0  0  0  0
  -22.7213  -10.2125   20.3038 C   0  0  0  0  0  0
  -21.6851   -6.0725   22.5272 C   0  0  0  0  0  0
  -21.4011   -6.5634   23.8204 C   0  0  0  0  0  0
  -21.3658   -5.6787   24.9170 C   0  0  0  0  0  0
  -21.6045   -4.3045   24.7225 C   0  0  0  0  0  0
  -21.8825   -3.8129   23.4349 C   0  0  0  0  0  0
  -21.9198   -4.6948   22.3398 C   0  0  0  0  0  0
  -22.7840  -13.5249   21.1854 C   0  0  0  0  0  0
  -22.1669   -4.2143   21.0974 F   0  0  0  0  0  0
  -21.5644   -3.4525   25.7731 F   0  0  0  0  0  0
  -29.9922  -13.4898   20.4478 N   0  0  0  0  0  0
  -26.2940  -12.9375   20.3248 N   0  0  0  0  0  0
  -25.9291  -11.6525   20.5707 N   0  0  0  0  0  0
  -22.0511  -12.8201   22.0402 N   0  0  0  0  0  0
  -25.4360  -15.1919   20.4172 N   0  0  0  0  0  0
  -31.7486  -14.8573   20.0443 O   0  0  0  0  0  0
  -21.6646   -6.8872   21.4228 O   0  0  0  0  0  0
  -22.3499  -14.5541   20.6710 O   0  0  0  0  0  0
  -24.6320  -31.8533   23.1961 C   0  0  0  0  0  0
  -25.9137  -32.4752   23.8306 C   0  0  1  0  0  0
  -27.2135  -27.2356   20.1321 C   0  0  0  0  0  0
  -25.5942  -33.8558   24.2235 N   0  0  0  0  0  0
  -23.4307  -30.4744   21.5395 C   0  0  2  0  0  0
  -24.8780  -28.9179   20.1092 C   0  0  0  0  0  0
  -22.7508  -29.4583   22.4902 C   0  0  0  0  0  0
  -18.0297  -28.1365   22.8490 C   0  0  0  0  0  0
  -24.1497  -36.7273   23.2636 C   0  0  0  0  0  0
  -25.9769  -30.7572   21.3810 C   0  0  0  0  0  0
  -26.0496  -29.3777   20.7224 C   0  0  0  0  0  0
  -27.2191  -28.5482   20.7231 C   0  0  0  0  0  0
  -26.0189  -26.8514   19.4817 C   0  0  0  0  0  0
  -24.8684  -27.6651   19.4774 C   0  0  0  0  0  0
  -23.6510  -29.8073   20.1556 C   0  0  0  0  0  0
  -25.4126  -36.3068   24.0328 C   0  0  1  0  0  0
  -20.5896  -28.3681   23.1275 C   0  0  2  0  0  0
  -20.6773  -26.9397   22.5408 C   0  0  0  0  0  0
  -19.5757  -26.6369   21.5201 C   0  0  0  0  0  0
  -18.1943  -26.7911   22.1611 C   0  0  0  0  0  0
  -19.1549  -28.8836   23.2878 C   0  0  0  0  0  0
  -18.9467  -30.1438   23.8893 C   0  0  0  0  0  0
  -17.6463  -30.6571   24.0550 C   0  0  0  0  0  0
  -25.9059  -34.9443   23.5078 C   0  0  0  0  0  0
  -16.5355  -29.9064   23.6334 C   0  0  0  0  0  0
  -16.7277  -28.6479   23.0364 C   0  0  0  0  0  0
  -26.4504  -31.6583   25.0704 C   0  0  0  0  0  0
  -25.3732  -31.3741   26.1438 C   0  0  0  0  0  0
  -27.0338  -30.2990   24.6194 C   0  0  0  0  0  0
  -27.6058  -32.4334   25.7470 C   0  0  0  0  0  0
  -27.5596  -37.1786   24.8460 C   0  0  0  0  0  0
  -21.4207  -29.3039   22.3658 N   0  0  0  0  0  0
  -26.4291  -37.3779   23.9430 N   0  0  0  0  0  0
  -24.6990  -31.0465   22.0956 N   0  0  0  0  0  0
  -23.4206  -28.8134   23.3015 O   0  0  0  0  0  0
  -28.3014  -26.3275   20.2105 O   0  0  0  0  0  0
  -26.5611  -34.8915   22.4633 O   0  0  0  0  0  0
  -23.5468  -32.1374   23.7249 O   0  0  0  0  0  0
  -29.4599  -18.4496   20.7633 C   0  0  0  0  0  0
  -29.0415  -19.4804   18.6085 C   0  0  0  0  0  0
  -29.6242  -17.1004   18.7418 C   0  0  0  0  0  0
  -29.1886  -19.6715   20.0017 C   0  0  0  0  0  0
  -29.6910  -17.1402   20.1517 C   0  0  0  0  0  0
  -29.2812  -18.2384   17.9907 C   0  0  0  0  0  0
  -28.9318  -21.0983   20.6162 C   0  0  0  0  0  0
  -30.8582  -23.6835   18.7963 C   0  0  0  0  0  0
  -30.5861  -24.2653   20.1686 C   0  0  0  0  0  0
  -30.1889  -22.3113   18.8359 C   0  0  0  0  0  0
  -29.1854  -23.7472   20.5069 C   0  0  1  0  0  0
  -28.1000  -24.8430   19.9782 C   0  0  0  0  0  0
  -29.2230  -22.3025   19.9516 N   0  0  0  0  0  0
  -29.8569  -15.8389   20.8555 N   0  0  0  0  0  0
  -28.4684  -21.1300   21.7601 O   0  0  0  0  0  0
  -29.1554  -18.1338   16.6473 F   0  0  0  0  0  0
  -31.4749  -12.5468   19.2066 H   0  0  0  0  0  0
  -30.3600  -11.4502   19.9730 H   0  0  0  0  0  0
  -29.8020  -11.7212   17.5434 H   0  0  0  0  0  0
  -29.6571  -13.4479   17.7413 H   0  0  0  0  0  0
  -27.8916  -11.2772   18.9145 H   0  0  0  0  0  0
  -27.3884  -12.5195   17.8025 H   0  0  0  0  0  0
  -27.6444  -14.2501   19.4777 H   0  0  0  0  0  0
  -28.6926  -12.1571   21.4524 H   0  0  0  0  0  0
  -28.3959  -13.8351   21.8075 H   0  0  0  0  0  0
  -25.2776   -9.5700   22.4714 H   0  0  0  0  0  0
  -24.0017   -7.4639   22.7453 H   0  0  0  0  0  0
  -21.0839   -8.8750   19.8942 H   0  0  0  0  0  0
  -22.3668  -10.9663   19.6141 H   0  0  0  0  0  0
  -21.1989   -7.6145   23.9704 H   0  0  0  0  0  0
  -21.1480   -6.0518   25.9080 H   0  0  0  0  0  0
  -22.0608   -2.7596   23.2842 H   0  0  0  0  0  0
  -22.4170  -11.9878   22.4761 H   0  0  0  0  0  0
  -21.1137  -13.1208   22.2694 H   0  0  0  0  0  0
  -24.6864  -15.8626   20.5482 H   0  0  0  0  0  0
  -26.3049  -15.6174   20.1204 H   0  0  0  0  0  0
  -26.7198  -32.5395   23.1034 H   0  0  0  0  0  0
  -25.0101  -33.9688   25.0392 H   0  0  0  0  0  0
  -22.7290  -31.2978   21.3907 H   0  0  0  0  0  0
  -23.3786  -35.9575   23.3263 H   0  0  0  0  0  0
  -24.3601  -36.8928   22.2060 H   0  0  0  0  0  0
  -23.7206  -37.6447   23.6678 H   0  0  0  0  0  0
  -26.1172  -31.5223   20.6165 H   0  0  0  0  0  0
  -26.8529  -30.8058   22.0152 H   0  0  0  0  0  0
  -28.1125  -28.8868   21.2282 H   0  0  0  0  0  0
  -25.9432  -25.8953   18.9846 H   0  0  0  0  0  0
  -23.9710  -27.3136   18.9860 H   0  0  0  0  0  0
  -23.7770  -30.5814   19.3967 H   0  0  0  0  0  0
  -22.7695  -29.2399   19.8517 H   0  0  0  0  0  0
  -25.1310  -36.1896   25.0817 H   0  0  0  0  0  0
  -20.9996  -28.3241   24.1392 H   0  0  0  0  0  0
  -20.5646  -26.2289   23.3611 H   0  0  0  0  0  0
  -21.6645  -26.7405   22.1220 H   0  0  0  0  0  0
  -19.6916  -25.6280   21.1238 H   0  0  0  0  0  0
  -19.6689  -27.3168   20.6731 H   0  0  0  0  0  0
  -17.4213  -26.6676   21.4008 H   0  0  0  0  0  0
  -18.0329  -26.0029   22.8981 H   0  0  0  0  0  0
  -19.7943  -30.7254   24.2265 H   0  0  0  0  0  0
  -17.5020  -31.6259   24.5136 H   0  0  0  0  0  0
  -15.5358  -30.2957   23.7655 H   0  0  0  0  0  0
  -15.8682  -28.0780   22.7096 H   0  0  0  0  0  0
  -24.5882  -30.7116   25.7769 H   0  0  0  0  0  0
  -24.8953  -32.2919   26.4882 H   0  0  0  0  0  0
  -25.8056  -30.8896   27.0204 H   0  0  0  0  0  0
  -26.2902  -29.6745   24.1225 H   0  0  0  0  0  0
  -27.4019  -29.7247   25.4708 H   0  0  0  0  0  0
  -27.8796  -30.4250   23.9428 H   0  0  0  0  0  0
  -27.2641  -33.3607   26.2083 H   0  0  0  0  0  0
  -28.3836  -32.6957   25.0284 H   0  0  0  0  0  0
  -28.0772  -31.8454   26.5354 H   0  0  0  0  0  0
  -28.2588  -38.0111   24.7569 H   0  0  0  0  0  0
  -28.1117  -36.2651   24.6204 H   0  0  0  0  0  0
  -27.2330  -37.1336   25.8862 H   0  0  0  0  0  0
  -20.9385  -29.8766   21.6869 H   0  0  0  0  0  0
  -26.0167  -38.2845   24.1470 H   0  0  0  0  0  0
  -29.4768  -18.5231   21.8448 H   0  0  0  0  0  0
  -28.7198  -20.2898   17.9746 H   0  0  0  0  0  0
  -29.7725  -16.1706   18.2107 H   0  0  0  0  0  0
  -31.9207  -23.6208   18.5604 H   0  0  0  0  0  0
  -30.3927  -24.3109   18.0345 H   0  0  0  0  0  0
  -30.6711  -25.3518   20.1855 H   0  0  0  0  0  0
  -31.3099  -23.8697   20.8829 H   0  0  0  0  0  0
  -30.9568  -21.5534   19.0013 H   0  0  0  0  0  0
  -29.7168  -22.1162   17.8752 H   0  0  0  0  0  0
  -29.0965  -23.7009   21.5934 H   0  0  0  0  0  0
  -27.1455  -24.5515   20.4161 H   0  0  0  0  0  0
  -27.9827  -24.7096   18.9034 H   0  0  0  0  0  0
  -29.1212  -15.6247   21.5133 H   0  0  0  0  0  0
  1 25  1  0  0  0
  1 30  2  0  0  0
  1 84  1  0  0  0
  2  3  1  0  0  0
  2 25  1  0  0  0
  2 87  1  0  0  0
  2 88  1  0  0  0
  3  4  1  0  0  0
  3 89  1  0  0  0
  3 90  1  0  0  0
  4  5  1  0  0  0
  4 91  1  0  0  0
  4 92  1  0  0  0
  5  6  1  0  0  0
  5 26  1  0  0  0
  5 93  1  0  0  0
  6 25  1  0  0  0
  6 94  1  0  0  0
  6 95  1  0  0  0
  7  8  2  0  0  0
  7 26  1  0  0  0
  7 29  1  0  0  0
  8  9  1  0  0  0
  8 22  1  0  0  0
  9 10  1  0  0  0
  9 27  2  0  0  0
 10 11  2  0  0  0
 10 15  1  0  0  0
 11 12  1  0  0  0
 11 96  1  0  0  0
 12 13  2  0  0  0
 12 97  1  0  0  0
 13 14  1  0  0  0
 13 31  1  0  0  0
 14 15  2  0  0  0
 14 98  1  0  0  0
 15 99  1  0  0  0
 16 17  2  0  0  0
 16 21  1  0  0  0
 16 31  1  0  0  0
 17 18  1  0  0  0
 17100  1  0  0  0
 18 19  2  0  0  0
 18101  1  0  0  0
 19 20  1  0  0  0
 19 24  1  0  0  0
 20 21  2  0  0  0
 20102  1  0  0  0
 21 23  1  0  0  0
 22 28  1  0  0  0
 22 32  2  0  0  0
 26 27  1  0  0  0
 28103  1  0  0  0
 28104  1  0  0  0
 29105  1  0  0  0
 29106  1  0  0  0
 33 34  1  0  0  0
 33 66  1  0  0  0
 33 70  2  0  0  0
 34 36  1  0  0  0
 34 59  1  0  0  0
 34107  1  0  0  0
 35 44  2  0  0  0
 35 45  1  0  0  0
 35 68  1  0  0  0
 36 56  1  0  0  0
 36108  1  0  0  0
 37 39  1  0  0  0
 37 47  1  0  0  0
 37 66  1  0  0  0
 37109  1  0  0  0
 38 43  2  0  0  0
 38 46  1  0  0  0
 38 47  1  0  0  0
 39 64  1  0  0  0
 39 67  2  0  0  0
 40 52  1  0  0  0
 40 53  2  0  0  0
 40 58  1  0  0  0
 41110  1  0  0  0
 41111  1  0  0  0
 41112  1  0  0  0
 41 48  1  0  0  0
 42 43  1  0  0  0
 42 66  1  0  0  0
 42113  1  0  0  0
 42114  1  0  0  0
 43 44  1  0  0  0
 44115  1  0  0  0
 45 46  2  0  0  0
 45116  1  0  0  0
 46117  1  0  0  0
 47118  1  0  0  0
 47119  1  0  0  0
 48 56  1  0  0  0
 48 65  1  0  0  0
 48120  1  0  0  0
 49 50  1  0  0  0
 49 53  1  0  0  0
 49 64  1  0  0  0
 49121  1  0  0  0
 50 51  1  0  0  0
 50122  1  0  0  0
 50123  1  0  0  0
 51 52  1  0  0  0
 51124  1  0  0  0
 51125  1  0  0  0
 52126  1  0  0  0
 52127  1  0  0  0
 53 54  1  0  0  0
 54 55  2  0  0  0
 54128  1  0  0  0
 55 57  1  0  0  0
 55129  1  0  0  0
 56 69  2  0  0  0
 57 58  2  0  0  0
 57130  1  0  0  0
 58131  1  0  0  0
 59 60  1  0  0  0
 59 61  1  0  0  0
 59 62  1  0  0  0
 60132  1  0  0  0
 60133  1  0  0  0
 60134  1  0  0  0
 61135  1  0  0  0
 61136  1  0  0  0
 61137  1  0  0  0
 62138  1  0  0  0
 62139  1  0  0  0
 62140  1  0  0  0
 63 65  1  0  0  0
 63141  1  0  0  0
 63142  1  0  0  0
 63143  1  0  0  0
 64144  1  0  0  0
 65145  1  0  0  0
 68 82  1  0  0  0
 71 74  2  0  0  0
 71 75  1  0  0  0
 71146  1  0  0  0
 72 74  1  0  0  0
 72 76  2  0  0  0
 72147  1  0  0  0
 73 75  2  0  0  0
 73 76  1  0  0  0
 73148  1  0  0  0
 74 77  1  0  0  0
 75 84  1  0  0  0
 76 86  1  0  0  0
 77 83  1  0  0  0
 77 85  2  0  0  0
 78 79  1  0  0  0
 78 80  1  0  0  0
 78149  1  0  0  0
 78150  1  0  0  0
 79 81  1  0  0  0
 79151  1  0  0  0
 79152  1  0  0  0
 80 83  1  0  0  0
 80153  1  0  0  0
 80154  1  0  0  0
 81 82  1  0  0  0
 81 83  1  0  0  0
 81155  1  0  0  0
 82156  1  0  0  0
 82157  1  0  0  0
 84158  1  0  0  0
M  ISO  4   1 100  68 101  82 101  84 100
M  END
> <chiral flag>
0

> <version>
0

> <s_m_source_file>
/data/baiqing/PycharmProjects/Reinvent-master-3.2/result/LINK_invent/BTK/process_docking_weight1_custom_product_contain_oxygen_bond_distance_aromatic_linkinvent_7_9_3/rearranged_h_0104.sdf

> <i_m_source_file_index>
15

> <r_mmod_Potential_Energy-OPLS-2005>
324.382171630859

> <r_mmod_Stretch_Energy-OPLS-2005>
143.44255065918

> <r_mmod_Bend_Energy-OPLS-2005>
189.307052612305

> <r_mmod_Torsional_Energy-OPLS-2005>
345.326629638672

> <r_mmod_Improper_Torsional_Energy-OPLS-2005>
6.97205972671509

> <r_mmod_Van_der_Waal_Energy-OPLS-2005>
140.720397949219

> <r_mmod_Electrostatic_Energy-OPLS-2005>
-364.482727050781

> <r_mmod_Solvation_Energy-OPLS-2005>
-226.643249511719

> <b_mmod_Minimization_Converged-OPLS-2005>
0

> <r_mmod_RMS_Derivative-OPLS-2005>
2.97412037849426

$$$$
16
                    3D
 Structure written by MMmdl.
165174  0  0  1  0            999 V2000
  -30.7157  -14.4557   20.6557 C   0  0  0  0  0  0
  -30.4255  -12.3271   19.4142 C   0  0  0  0  0  0
  -29.4872  -12.4985   18.2023 C   0  0  0  0  0  0
  -28.0147  -12.3369   18.6252 C   0  0  0  0  0  0
  -27.6581  -13.1963   19.8662 C   0  0  2  0  0  0
  -28.6938  -12.9801   20.9892 C   0  0  0  0  0  0
  -25.2592  -13.8139   20.5656 C   0  0  0  0  0  0
  -24.1832  -13.0438   20.9162 C   0  0  0  0  0  0
  -24.6360  -11.6888   20.8726 C   0  0  0  0  0  0
  -23.9029  -10.4276   21.0413 C   0  0  0  0  0  0
  -24.3589   -9.4205   21.9190 C   0  0  0  0  0  0
  -23.6274   -8.2239   22.0763 C   0  0  0  0  0  0
  -22.4269   -8.0269   21.3543 C   0  0  0  0  0  0
  -21.9904   -9.0233   20.4639 C   0  0  0  0  0  0
  -22.7215  -10.2115   20.3051 C   0  0  0  0  0  0
  -21.6853   -6.0725   22.5270 C   0  0  0  0  0  0
  -21.4013   -6.5622   23.8202 C   0  0  0  0  0  0
  -21.3660   -5.6789   24.9168 C   0  0  0  0  0  0
  -21.6048   -4.3051   24.7230 C   0  0  0  0  0  0
  -21.8816   -3.8137   23.4352 C   0  0  0  0  0  0
  -21.9186   -4.6953   22.3401 C   0  0  0  0  0  0
  -22.7862  -13.5255   21.1840 C   0  0  0  0  0  0
  -22.1656   -4.2131   21.0983 F   0  0  0  0  0  0
  -21.5637   -3.4544   25.7744 F   0  0  0  0  0  0
  -30.0273  -13.2999   20.4453 N   0  0  0  0  0  0
  -26.2992  -12.9268   20.3313 N   0  0  0  0  0  0
  -25.9274  -11.6448   20.5751 N   0  0  0  0  0  0
  -22.0495  -12.8223   22.0374 N   0  0  0  0  0  0
  -25.4375  -15.1841   20.4059 N   0  0  0  0  0  0
  -31.8112  -14.6869   20.1357 O   0  0  0  0  0  0
  -21.6636   -6.8869   21.4229 O   0  0  0  0  0  0
  -22.3556  -14.5581   20.6710 O   0  0  0  0  0  0
  -24.6169  -31.8659   23.2079 C   0  0  0  0  0  0
  -25.9065  -32.4813   23.8372 C   0  0  1  0  0  0
  -27.2273  -27.4198   20.0954 C   0  0  0  0  0  0
  -25.5917  -33.8609   24.2289 N   0  0  0  0  0  0
  -23.4038  -30.4927   21.5503 C   0  0  2  0  0  0
  -24.8469  -28.9551   20.1174 C   0  0  0  0  0  0
  -22.7413  -29.4665   22.4983 C   0  0  0  0  0  0
  -18.0299  -28.1352   22.8498 C   0  0  0  0  0  0
  -24.1487  -36.7283   23.2639 C   0  0  0  0  0  0
  -25.9365  -30.8240   21.3681 C   0  0  0  0  0  0
  -26.0108  -29.4608   20.7102 C   0  0  0  0  0  0
  -27.2069  -28.7037   20.6895 C   0  0  0  0  0  0
  -26.0446  -26.9356   19.4926 C   0  0  0  0  0  0
  -24.8588  -27.6913   19.5066 C   0  0  0  0  0  0
  -23.6117  -29.8255   20.1661 C   0  0  0  0  0  0
  -25.4117  -36.3094   24.0331 C   0  0  1  0  0  0
  -20.5884  -28.3655   23.1290 C   0  0  2  0  0  0
  -20.6791  -26.9387   22.5400 C   0  0  0  0  0  0
  -19.5770  -26.6374   21.5196 C   0  0  0  0  0  0
  -18.1936  -26.7915   22.1586 C   0  0  0  0  0  0
  -19.1546  -28.8824   23.2895 C   0  0  0  0  0  0
  -18.9486  -30.1440   23.8890 C   0  0  0  0  0  0
  -17.6486  -30.6571   24.0574 C   0  0  0  0  0  0
  -25.9047  -34.9463   23.5092 C   0  0  0  0  0  0
  -16.5378  -29.9065   23.6362 C   0  0  0  0  0  0
  -16.7287  -28.6488   23.0365 C   0  0  0  0  0  0
  -26.4497  -31.6626   25.0723 C   0  0  0  0  0  0
  -25.3765  -31.3727   26.1481 C   0  0  0  0  0  0
  -27.0396  -30.3090   24.6132 C   0  0  0  0  0  0
  -27.6028  -32.4413   25.7482 C   0  0  0  0  0  0
  -27.5590  -37.1785   24.8469 C   0  0  0  0  0  0
  -21.4146  -29.3025   22.3694 N   0  0  0  0  0  0
  -26.4288  -37.3793   23.9436 N   0  0  0  0  0  0
  -24.6705  -31.0746   22.0996 N   0  0  0  0  0  0
  -23.4185  -28.8210   23.3028 O   0  0  0  0  0  0
  -28.3843  -26.6621   20.0809 O   0  0  0  0  0  0
  -26.5597  -34.8934   22.4652 O   0  0  0  0  0  0
  -23.5359  -32.1422   23.7459 O   0  0  0  0  0  0
  -31.6072  -18.7174   21.3689 C   0  0  0  0  0  0
  -31.5035  -20.0614   20.9602 C   0  0  0  0  0  0
  -29.0958  -19.8587   20.9330 C   0  0  0  0  0  0
  -30.4668  -17.9142   21.5812 C   0  0  0  0  0  0
  -29.1883  -18.5086   21.3722 C   0  0  0  0  0  0
  -30.2462  -20.6628   20.7169 C   0  0  0  0  0  0
  -29.1931  -24.2529   19.9360 C   0  0  0  0  0  0
  -29.8945  -24.4700   18.7552 C   0  0  0  0  0  0
  -29.2556  -22.9492   20.6447 C   0  0  0  0  0  0
  -30.8222  -23.3896   18.2286 C   0  0  0  0  0  0
  -31.2806  -22.4618   19.3488 C   0  0  0  0  0  0
  -27.4193  -17.9014   23.0967 C   0  0  0  0  0  0
  -27.8870  -17.7625   21.6427 C   0  0  0  0  0  0
  -30.7037  -16.4994   22.1499 C   0  0  0  0  0  0
  -28.2591  -25.3093   20.5715 C   0  0  0  0  0  0
  -30.1764  -22.0264   20.2167 N   0  0  0  0  0  0
  -30.1093  -15.3400   21.4696 N   0  0  0  0  0  0
  -29.9523  -25.4471   17.9750 O   0  5  0  0  0  0
  -28.4998  -22.7132   21.5910 O   0  0  0  0  0  0
  -31.4662  -12.4461   19.1060 H   0  0  0  0  0  0
  -30.3509  -11.3144   19.8146 H   0  0  0  0  0  0
  -29.7311  -11.7642   17.4330 H   0  0  0  0  0  0
  -29.6339  -13.4803   17.7509 H   0  0  0  0  0  0
  -27.8543  -11.2812   18.8549 H   0  0  0  0  0  0
  -27.3489  -12.5701   17.7934 H   0  0  0  0  0  0
  -27.7041  -14.2409   19.5554 H   0  0  0  0  0  0
  -28.6773  -11.9410   21.3240 H   0  0  0  0  0  0
  -28.4274  -13.5650   21.8693 H   0  0  0  0  0  0
  -25.2732   -9.5688   22.4772 H   0  0  0  0  0  0
  -23.9976   -7.4645   22.7497 H   0  0  0  0  0  0
  -21.0842   -8.8736   19.8944 H   0  0  0  0  0  0
  -22.3675  -10.9649   19.6157 H   0  0  0  0  0  0
  -21.2001   -7.6129   23.9699 H   0  0  0  0  0  0
  -21.1494   -6.0523   25.9072 H   0  0  0  0  0  0
  -22.0597   -2.7595   23.2859 H   0  0  0  0  0  0
  -22.4098  -11.9847   22.4698 H   0  0  0  0  0  0
  -21.1130  -13.1267   22.2615 H   0  0  0  0  0  0
  -24.6803  -15.8493   20.5238 H   0  0  0  0  0  0
  -26.2888  -15.6111   20.0642 H   0  0  0  0  0  0
  -26.7128  -32.5519   23.1117 H   0  0  0  0  0  0
  -25.0191  -33.9776   25.0528 H   0  0  0  0  0  0
  -22.6952  -31.3114   21.4111 H   0  0  0  0  0  0
  -23.3775  -35.9579   23.3263 H   0  0  0  0  0  0
  -24.3598  -36.8944   22.2063 H   0  0  0  0  0  0
  -23.7213  -37.6457   23.6700 H   0  0  0  0  0  0
  -26.0663  -31.5918   20.6047 H   0  0  0  0  0  0
  -26.8160  -30.8614   21.9988 H   0  0  0  0  0  0
  -28.1078  -29.0907   21.1432 H   0  0  0  0  0  0
  -26.0334  -25.9710   19.0047 H   0  0  0  0  0  0
  -23.9634  -27.2954   19.0475 H   0  0  0  0  0  0
  -23.7235  -30.6000   19.4072 H   0  0  0  0  0  0
  -22.7322  -29.2511   19.8692 H   0  0  0  0  0  0
  -25.1288  -36.1916   25.0816 H   0  0  0  0  0  0
  -21.0004  -28.3225   24.1399 H   0  0  0  0  0  0
  -20.5701  -26.2255   23.3590 H   0  0  0  0  0  0
  -21.6666  -26.7417   22.1177 H   0  0  0  0  0  0
  -19.6929  -25.6283   21.1219 H   0  0  0  0  0  0
  -19.6717  -27.3205   20.6736 H   0  0  0  0  0  0
  -17.4224  -26.6735   21.3955 H   0  0  0  0  0  0
  -18.0289  -26.0005   22.8929 H   0  0  0  0  0  0
  -19.7964  -30.7274   24.2204 H   0  0  0  0  0  0
  -17.5049  -31.6256   24.5159 H   0  0  0  0  0  0
  -15.5381  -30.2971   23.7673 H   0  0  0  0  0  0
  -15.8695  -28.0816   22.7052 H   0  0  0  0  0  0
  -24.5926  -30.7078   25.7840 H   0  0  0  0  0  0
  -24.8991  -32.2891   26.4950 H   0  0  0  0  0  0
  -25.8132  -30.8898   27.0233 H   0  0  0  0  0  0
  -26.2978  -29.6783   24.1227 H   0  0  0  0  0  0
  -27.4259  -29.7381   25.4586 H   0  0  0  0  0  0
  -27.8731  -30.4455   23.9242 H   0  0  0  0  0  0
  -27.2613  -33.3746   26.1968 H   0  0  0  0  0  0
  -28.3861  -32.6944   25.0325 H   0  0  0  0  0  0
  -28.0672  -31.8631   26.5480 H   0  0  0  0  0  0
  -28.2548  -38.0135   24.7607 H   0  0  0  0  0  0
  -28.1145  -36.2682   24.6181 H   0  0  0  0  0  0
  -27.2328  -37.1288   25.8869 H   0  0  0  0  0  0
  -20.9308  -29.8753   21.6922 H   0  0  0  0  0  0
  -26.0149  -38.2838   24.1518 H   0  0  0  0  0  0
  -32.5929  -18.3142   21.5508 H   0  0  0  0  0  0
  -32.4182  -20.6261   20.8463 H   0  0  0  0  0  0
  -28.1156  -20.2835   20.7643 H   0  0  0  0  0  0
  -31.7102  -23.8146   17.7526 H   0  0  0  0  0  0
  -30.3166  -22.8039   17.4585 H   0  0  0  0  0  0
  -32.0076  -22.9803   19.9759 H   0  0  0  0  0  0
  -31.7971  -21.6180   18.8905 H   0  0  0  0  0  0
  -26.4782  -17.3725   23.2533 H   0  0  0  0  0  0
  -27.2537  -18.9473   23.3571 H   0  0  0  0  0  0
  -28.1474  -17.4927   23.7982 H   0  0  0  0  0  0
  -27.9738  -16.7127   21.3771 H   0  0  0  0  0  0
  -27.1098  -18.1557   20.9854 H   0  0  0  0  0  0
  -30.3272  -16.4983   23.1731 H   0  0  0  0  0  0
  -31.7761  -16.3253   22.2561 H   0  0  0  0  0  0
  -28.4862  -25.3646   21.6369 H   0  0  0  0  0  0
  -27.2430  -24.9183   20.5099 H   0  0  0  0  0  0
  -29.2054  -15.0499   21.8106 H   0  0  0  0  0  0
  1 25  1  0  0  0
  1 30  2  0  0  0
  1 87  1  0  0  0
  2  3  1  0  0  0
  2 25  1  0  0  0
  2 90  1  0  0  0
  2 91  1  0  0  0
  3  4  1  0  0  0
  3 92  1  0  0  0
  3 93  1  0  0  0
  4  5  1  0  0  0
  4 94  1  0  0  0
  4 95  1  0  0  0
  5  6  1  0  0  0
  5 26  1  0  0  0
  5 96  1  0  0  0
  6 25  1  0  0  0
  6 97  1  0  0  0
  6 98  1  0  0  0
  7  8  2  0  0  0
  7 26  1  0  0  0
  7 29  1  0  0  0
  8  9  1  0  0  0
  8 22  1  0  0  0
  9 10  1  0  0  0
  9 27  2  0  0  0
 10 11  2  0  0  0
 10 15  1  0  0  0
 11 12  1  0  0  0
 11 99  1  0  0  0
 12 13  2  0  0  0
 12100  1  0  0  0
 13 14  1  0  0  0
 13 31  1  0  0  0
 14 15  2  0  0  0
 14101  1  0  0  0
 15102  1  0  0  0
 16 17  2  0  0  0
 16 21  1  0  0  0
 16 31  1  0  0  0
 17 18  1  0  0  0
 17103  1  0  0  0
 18 19  2  0  0  0
 18104  1  0  0  0
 19 20  1  0  0  0
 19 24  1  0  0  0
 20 21  2  0  0  0
 20105  1  0  0  0
 21 23  1  0  0  0
 22 28  1  0  0  0
 22 32  2  0  0  0
 26 27  1  0  0  0
 28106  1  0  0  0
 28107  1  0  0  0
 29108  1  0  0  0
 29109  1  0  0  0
 33 34  1  0  0  0
 33 66  1  0  0  0
 33 70  2  0  0  0
 34 36  1  0  0  0
 34 59  1  0  0  0
 34110  1  0  0  0
 35 44  2  0  0  0
 35 45  1  0  0  0
 35 68  1  0  0  0
 36 56  1  0  0  0
 36111  1  0  0  0
 37 39  1  0  0  0
 37 47  1  0  0  0
 37 66  1  0  0  0
 37112  1  0  0  0
 38 43  2  0  0  0
 38 46  1  0  0  0
 38 47  1  0  0  0
 39 64  1  0  0  0
 39 67  2  0  0  0
 40 52  1  0  0  0
 40 53  2  0  0  0
 40 58  1  0  0  0
 41113  1  0  0  0
 41114  1  0  0  0
 41115  1  0  0  0
 41 48  1  0  0  0
 42 43  1  0  0  0
 42 66  1  0  0  0
 42116  1  0  0  0
 42117  1  0  0  0
 43 44  1  0  0  0
 44118  1  0  0  0
 45 46  2  0  0  0
 45119  1  0  0  0
 46120  1  0  0  0
 47121  1  0  0  0
 47122  1  0  0  0
 48 56  1  0  0  0
 48 65  1  0  0  0
 48123  1  0  0  0
 49 50  1  0  0  0
 49 53  1  0  0  0
 49 64  1  0  0  0
 49124  1  0  0  0
 50 51  1  0  0  0
 50125  1  0  0  0
 50126  1  0  0  0
 51 52  1  0  0  0
 51127  1  0  0  0
 51128  1  0  0  0
 52129  1  0  0  0
 52130  1  0  0  0
 53 54  1  0  0  0
 54 55  2  0  0  0
 54131  1  0  0  0
 55 57  1  0  0  0
 55132  1  0  0  0
 56 69  2  0  0  0
 57 58  2  0  0  0
 57133  1  0  0  0
 58134  1  0  0  0
 59 60  1  0  0  0
 59 61  1  0  0  0
 59 62  1  0  0  0
 60135  1  0  0  0
 60136  1  0  0  0
 60137  1  0  0  0
 61138  1  0  0  0
 61139  1  0  0  0
 61140  1  0  0  0
 62141  1  0  0  0
 62142  1  0  0  0
 62143  1  0  0  0
 63 65  1  0  0  0
 63144  1  0  0  0
 63145  1  0  0  0
 63146  1  0  0  0
 64147  1  0  0  0
 65148  1  0  0  0
 68 85  1  0  0  0
 71 72  2  0  0  0
 71 74  1  0  0  0
 71149  1  0  0  0
 72 76  1  0  0  0
 72150  1  0  0  0
 73 75  1  0  0  0
 73 76  2  0  0  0
 73151  1  0  0  0
 74 75  2  0  0  0
 74 84  1  0  0  0
 75 83  1  0  0  0
 76 86  1  0  0  0
 77 78  2  0  0  0
 77 79  1  0  0  0
 77 85  1  0  0  0
 78 80  1  0  0  0
 78 88  1  0  0  0
 79 86  1  0  0  0
 79 89  2  0  0  0
 80 81  1  0  0  0
 80152  1  0  0  0
 80153  1  0  0  0
 81 86  1  0  0  0
 81154  1  0  0  0
 81155  1  0  0  0
 82 83  1  0  0  0
 82156  1  0  0  0
 82157  1  0  0  0
 82158  1  0  0  0
 83159  1  0  0  0
 83160  1  0  0  0
 84 87  1  0  0  0
 84161  1  0  0  0
 84162  1  0  0  0
 85163  1  0  0  0
 85164  1  0  0  0
 87165  1  0  0  0
M  CHG  1  88  -1
M  ISO  4   1 100  68 101  85 101  87 100
M  END
> <chiral flag>
0

> <version>
0

> <s_m_source_file>
/data/baiqing/PycharmProjects/Reinvent-master-3.2/result/LINK_invent/BTK/process_docking_weight1_custom_product_contain_oxygen_bond_distance_aromatic_linkinvent_7_9_3/rearranged_h_0104.sdf

> <i_m_source_file_index>
16

> <r_mmod_Potential_Energy-OPLS-2005>
-309.790405273438

> <r_mmod_Stretch_Energy-OPLS-2005>
50.4384880065918

> <r_mmod_Bend_Energy-OPLS-2005>
120.433395385742

> <r_mmod_Torsional_Energy-OPLS-2005>
251.320190429688

> <r_mmod_Improper_Torsional_Energy-OPLS-2005>
2.86510753631592

> <r_mmod_Van_der_Waal_Energy-OPLS-2005>
176.459915161133

> <r_mmod_Electrostatic_Energy-OPLS-2005>
-418.266723632812

> <r_mmod_Solvation_Energy-OPLS-2005>
-506.276641845703

> <b_mmod_Minimization_Converged-OPLS-2005>
0

> <r_mmod_RMS_Derivative-OPLS-2005>
2.81188797950745

$$$$
17
                    3D
 Structure written by MMmdl.
157165  0  0  1  0            999 V2000
  -30.7439  -14.4430   20.6338 C   0  0  0  0  0  0
  -30.4193  -12.3190   19.4079 C   0  0  0  0  0  0
  -29.4867  -12.5176   18.1977 C   0  0  0  0  0  0
  -28.0111  -12.3721   18.6150 C   0  0  0  0  0  0
  -27.6603  -13.2102   19.8730 C   0  0  2  0  0  0
  -28.7038  -12.9897   20.9907 C   0  0  0  0  0  0
  -25.2578  -13.8169   20.5673 C   0  0  0  0  0  0
  -24.1837  -13.0443   20.9177 C   0  0  0  0  0  0
  -24.6397  -11.6911   20.8735 C   0  0  0  0  0  0
  -23.9065  -10.4294   21.0403 C   0  0  0  0  0  0
  -24.3616   -9.4208   21.9181 C   0  0  0  0  0  0
  -23.6293   -8.2242   22.0755 C   0  0  0  0  0  0
  -22.4272   -8.0277   21.3548 C   0  0  0  0  0  0
  -21.9908   -9.0250   20.4649 C   0  0  0  0  0  0
  -22.7239  -10.2130   20.3052 C   0  0  0  0  0  0
  -21.6853   -6.0730   22.5284 C   0  0  0  0  0  0
  -21.4013   -6.5635   23.8213 C   0  0  0  0  0  0
  -21.3659   -5.6787   24.9174 C   0  0  0  0  0  0
  -21.6046   -4.3051   24.7223 C   0  0  0  0  0  0
  -21.8821   -3.8140   23.4342 C   0  0  0  0  0  0
  -21.9193   -4.6957   22.3403 C   0  0  0  0  0  0
  -22.7859  -13.5234   21.1839 C   0  0  0  0  0  0
  -22.1659   -4.2142   21.0981 F   0  0  0  0  0  0
  -21.5627   -3.4532   25.7735 F   0  0  0  0  0  0
  -30.0363  -13.2960   20.4394 N   0  0  0  0  0  0
  -26.3020  -12.9345   20.3360 N   0  0  0  0  0  0
  -25.9324  -11.6499   20.5770 N   0  0  0  0  0  0
  -22.0492  -12.8220   22.0385 N   0  0  0  0  0  0
  -25.4291  -15.1885   20.4060 N   0  0  0  0  0  0
  -31.8289  -14.6588   20.0880 O   0  0  0  0  0  0
  -21.6641   -6.8871   21.4244 O   0  0  0  0  0  0
  -22.3543  -14.5542   20.6695 O   0  0  0  0  0  0
  -24.6180  -31.8676   23.2108 C   0  0  0  0  0  0
  -25.9075  -32.4816   23.8401 C   0  0  1  0  0  0
  -27.2254  -27.4149   20.0921 C   0  0  0  0  0  0
  -25.5940  -33.8614   24.2346 N   0  0  0  0  0  0
  -23.4048  -30.4951   21.5516 C   0  0  2  0  0  0
  -24.8483  -28.9656   20.1117 C   0  0  0  0  0  0
  -22.7423  -29.4672   22.4977 C   0  0  0  0  0  0
  -18.0277  -28.1370   22.8490 C   0  0  0  0  0  0
  -24.1492  -36.7294   23.2631 C   0  0  0  0  0  0
  -25.9380  -30.8290   21.3661 C   0  0  0  0  0  0
  -26.0130  -29.4648   20.7080 C   0  0  0  0  0  0
  -27.2057  -28.6996   20.6915 C   0  0  0  0  0  0
  -26.0355  -26.9448   19.4826 C   0  0  0  0  0  0
  -24.8561  -27.7069   19.4941 C   0  0  0  0  0  0
  -23.6119  -29.8328   20.1646 C   0  0  0  0  0  0
  -25.4111  -36.3103   24.0344 C   0  0  1  0  0  0
  -20.5867  -28.3666   23.1300 C   0  0  2  0  0  0
  -20.6760  -26.9398   22.5416 C   0  0  0  0  0  0
  -19.5750  -26.6382   21.5203 C   0  0  0  0  0  0
  -18.1925  -26.7924   22.1601 C   0  0  0  0  0  0
  -19.1524  -28.8832   23.2896 C   0  0  0  0  0  0
  -18.9452  -30.1436   23.8909 C   0  0  0  0  0  0
  -17.6454  -30.6573   24.0563 C   0  0  0  0  0  0
  -25.9044  -34.9469   23.5132 C   0  0  0  0  0  0
  -16.5344  -29.9075   23.6326 C   0  0  0  0  0  0
  -16.7266  -28.6490   23.0353 C   0  0  0  0  0  0
  -26.4491  -31.6591   25.0727 C   0  0  0  0  0  0
  -25.3763  -31.3701   26.1483 C   0  0  0  0  0  0
  -27.0303  -30.3029   24.6102 C   0  0  0  0  0  0
  -27.6083  -32.4296   25.7474 C   0  0  0  0  0  0
  -27.5588  -37.1799   24.8451 C   0  0  0  0  0  0
  -21.4150  -29.3035   22.3707 N   0  0  0  0  0  0
  -26.4288  -37.3797   23.9422 N   0  0  0  0  0  0
  -24.6721  -31.0779   22.1005 N   0  0  0  0  0  0
  -23.4196  -28.8209   23.3014 O   0  0  0  0  0  0
  -28.3760  -26.6415   20.1226 O   0  0  0  0  0  0
  -26.5583  -34.8922   22.4678 O   0  0  0  0  0  0
  -23.5370  -32.1422   23.7508 O   0  0  0  0  0  0
  -31.7504  -18.6272   21.0466 C   0  0  0  0  0  0
  -31.6254  -19.9783   20.6634 C   0  0  0  0  0  0
  -29.2464  -19.8837   21.1120 C   0  0  0  0  0  0
  -30.6350  -17.8861   21.4954 C   0  0  0  0  0  0
  -29.3644  -18.5229   21.5032 C   0  0  0  0  0  0
  -30.3793  -20.6343   20.7138 C   0  0  0  0  0  0
  -29.3865  -24.3519   20.3465 C   0  0  0  0  0  0
  -28.1210  -17.7823   21.9674 C   0  0  0  0  0  0
  -30.8814  -16.4820   22.0767 C   0  0  0  0  0  0
  -29.1362  -22.8366   20.5518 C   0  0  0  0  0  0
  -28.1553  -25.2159   20.0089 C   0  0  0  0  0  0
  -30.3327  -22.0024   20.3750 N   0  0  0  0  0  0
  -30.1883  -15.3431   21.4603 N   0  0  0  0  0  0
  -30.5250  -24.8290   20.4317 O   0  0  0  0  0  0
  -31.4627  -12.4185   19.1023 H   0  0  0  0  0  0
  -30.3233  -11.3056   19.8015 H   0  0  0  0  0  0
  -29.7265  -11.7974   17.4144 H   0  0  0  0  0  0
  -29.6492  -13.5058   17.7649 H   0  0  0  0  0  0
  -27.8249  -11.3152   18.8089 H   0  0  0  0  0  0
  -27.3567  -12.6454   17.7866 H   0  0  0  0  0  0
  -27.7047  -14.2595   19.5803 H   0  0  0  0  0  0
  -28.6832  -11.9525   21.3276 H   0  0  0  0  0  0
  -28.4541  -13.5819   21.8711 H   0  0  0  0  0  0
  -25.2763   -9.5681   22.4749 H   0  0  0  0  0  0
  -24.0006   -7.4628   22.7470 H   0  0  0  0  0  0
  -21.0840   -8.8763   19.8951 H   0  0  0  0  0  0
  -22.3702  -10.9658   19.6149 H   0  0  0  0  0  0
  -21.2003   -7.6142   23.9718 H   0  0  0  0  0  0
  -21.1477   -6.0512   25.9078 H   0  0  0  0  0  0
  -22.0595   -2.7601   23.2844 H   0  0  0  0  0  0
  -22.4094  -11.9864   22.4748 H   0  0  0  0  0  0
  -21.1105  -13.1243   22.2573 H   0  0  0  0  0  0
  -24.6610  -15.8433   20.5049 H   0  0  0  0  0  0
  -26.2786  -15.6221   20.0676 H   0  0  0  0  0  0
  -26.7149  -32.5520   23.1166 H   0  0  0  0  0  0
  -25.0181  -33.9778   25.0552 H   0  0  0  0  0  0
  -22.6948  -31.3133   21.4153 H   0  0  0  0  0  0
  -23.3763  -35.9612   23.3272 H   0  0  0  0  0  0
  -24.3602  -36.8918   22.2049 H   0  0  0  0  0  0
  -23.7223  -37.6488   23.6645 H   0  0  0  0  0  0
  -26.0570  -31.5978   20.6008 H   0  0  0  0  0  0
  -26.8234  -30.8758   21.9881 H   0  0  0  0  0  0
  -28.1027  -29.0818   21.1588 H   0  0  0  0  0  0
  -25.9859  -25.9868   18.9875 H   0  0  0  0  0  0
  -23.9631  -27.3188   19.0237 H   0  0  0  0  0  0
  -23.7168  -30.6088   19.4053 H   0  0  0  0  0  0
  -22.7362  -29.2515   19.8703 H   0  0  0  0  0  0
  -25.1282  -36.1964   25.0836 H   0  0  0  0  0  0
  -20.9966  -28.3226   24.1416 H   0  0  0  0  0  0
  -20.5634  -26.2284   23.3609 H   0  0  0  0  0  0
  -21.6633  -26.7422   22.1227 H   0  0  0  0  0  0
  -19.6911  -25.6297   21.1219 H   0  0  0  0  0  0
  -19.6704  -27.3195   20.6739 H   0  0  0  0  0  0
  -17.4214  -26.6712   21.3979 H   0  0  0  0  0  0
  -18.0301  -26.0044   22.8966 H   0  0  0  0  0  0
  -19.7930  -30.7251   24.2284 H   0  0  0  0  0  0
  -17.5011  -31.6253   24.5163 H   0  0  0  0  0  0
  -15.5343  -30.2982   23.7647 H   0  0  0  0  0  0
  -15.8667  -28.0807   22.7066 H   0  0  0  0  0  0
  -24.6009  -30.6939   25.7864 H   0  0  0  0  0  0
  -24.8857  -32.2837   26.4850 H   0  0  0  0  0  0
  -25.8149  -30.8990   27.0291 H   0  0  0  0  0  0
  -26.2839  -29.6807   24.1151 H   0  0  0  0  0  0
  -27.4055  -29.7257   25.4564 H   0  0  0  0  0  0
  -27.8694  -30.4319   23.9260 H   0  0  0  0  0  0
  -27.2728  -33.3614   26.2034 H   0  0  0  0  0  0
  -28.3902  -32.6809   25.0295 H   0  0  0  0  0  0
  -28.0737  -31.8419   26.5396 H   0  0  0  0  0  0
  -28.2579  -38.0122   24.7540 H   0  0  0  0  0  0
  -28.1105  -36.2660   24.6202 H   0  0  0  0  0  0
  -27.2329  -37.1366   25.8856 H   0  0  0  0  0  0
  -20.9313  -29.8782   21.6949 H   0  0  0  0  0  0
  -26.0164  -38.2864   24.1448 H   0  0  0  0  0  0
  -32.7311  -18.1720   21.0301 H   0  0  0  0  0  0
  -32.5112  -20.5137   20.3516 H   0  0  0  0  0  0
  -28.2738  -20.3535   21.1464 H   0  0  0  0  0  0
  -27.2587  -18.4468   22.0312 H   0  0  0  0  0  0
  -28.2710  -17.3453   22.9545 H   0  0  0  0  0  0
  -27.8712  -16.9832   21.2697 H   0  0  0  0  0  0
  -30.5851  -16.5074   23.1258 H   0  0  0  0  0  0
  -31.9553  -16.2852   22.1051 H   0  0  0  0  0  0
  -28.3662  -22.5162   19.8488 H   0  0  0  0  0  0
  -28.7317  -22.6934   21.5554 H   0  0  0  0  0  0
  -27.3457  -24.9140   20.6753 H   0  0  0  0  0  0
  -27.8585  -24.9666   18.9902 H   0  0  0  0  0  0
  -31.2024  -22.5147   20.2358 H   0  0  0  0  0  0
  -29.2848  -15.1034   21.8378 H   0  0  0  0  0  0
  1 25  1  0  0  0
  1 30  2  0  0  0
  1 83  1  0  0  0
  2  3  1  0  0  0
  2 25  1  0  0  0
  2 85  1  0  0  0
  2 86  1  0  0  0
  3  4  1  0  0  0
  3 87  1  0  0  0
  3 88  1  0  0  0
  4  5  1  0  0  0
  4 89  1  0  0  0
  4 90  1  0  0  0
  5  6  1  0  0  0
  5 26  1  0  0  0
  5 91  1  0  0  0
  6 25  1  0  0  0
  6 92  1  0  0  0
  6 93  1  0  0  0
  7  8  2  0  0  0
  7 26  1  0  0  0
  7 29  1  0  0  0
  8  9  1  0  0  0
  8 22  1  0  0  0
  9 10  1  0  0  0
  9 27  2  0  0  0
 10 11  2  0  0  0
 10 15  1  0  0  0
 11 12  1  0  0  0
 11 94  1  0  0  0
 12 13  2  0  0  0
 12 95  1  0  0  0
 13 14  1  0  0  0
 13 31  1  0  0  0
 14 15  2  0  0  0
 14 96  1  0  0  0
 15 97  1  0  0  0
 16 17  2  0  0  0
 16 21  1  0  0  0
 16 31  1  0  0  0
 17 18  1  0  0  0
 17 98  1  0  0  0
 18 19  2  0  0  0
 18 99  1  0  0  0
 19 20  1  0  0  0
 19 24  1  0  0  0
 20 21  2  0  0  0
 20100  1  0  0  0
 21 23  1  0  0  0
 22 28  1  0  0  0
 22 32  2  0  0  0
 26 27  1  0  0  0
 28101  1  0  0  0
 28102  1  0  0  0
 29103  1  0  0  0
 29104  1  0  0  0
 33 34  1  0  0  0
 33 66  1  0  0  0
 33 70  2  0  0  0
 34 36  1  0  0  0
 34 59  1  0  0  0
 34105  1  0  0  0
 35 44  2  0  0  0
 35 45  1  0  0  0
 35 68  1  0  0  0
 36 56  1  0  0  0
 36106  1  0  0  0
 37 39  1  0  0  0
 37 47  1  0  0  0
 37 66  1  0  0  0
 37107  1  0  0  0
 38 43  2  0  0  0
 38 46  1  0  0  0
 38 47  1  0  0  0
 39 64  1  0  0  0
 39 67  2  0  0  0
 40 52  1  0  0  0
 40 53  2  0  0  0
 40 58  1  0  0  0
 41108  1  0  0  0
 41109  1  0  0  0
 41110  1  0  0  0
 41 48  1  0  0  0
 42 43  1  0  0  0
 42 66  1  0  0  0
 42111  1  0  0  0
 42112  1  0  0  0
 43 44  1  0  0  0
 44113  1  0  0  0
 45 46  2  0  0  0
 45114  1  0  0  0
 46115  1  0  0  0
 47116  1  0  0  0
 47117  1  0  0  0
 48 56  1  0  0  0
 48 65  1  0  0  0
 48118  1  0  0  0
 49 50  1  0  0  0
 49 53  1  0  0  0
 49 64  1  0  0  0
 49119  1  0  0  0
 50 51  1  0  0  0
 50120  1  0  0  0
 50121  1  0  0  0
 51 52  1  0  0  0
 51122  1  0  0  0
 51123  1  0  0  0
 52124  1  0  0  0
 52125  1  0  0  0
 53 54  1  0  0  0
 54 55  2  0  0  0
 54126  1  0  0  0
 55 57  1  0  0  0
 55127  1  0  0  0
 56 69  2  0  0  0
 57 58  2  0  0  0
 57128  1  0  0  0
 58129  1  0  0  0
 59 60  1  0  0  0
 59 61  1  0  0  0
 59 62  1  0  0  0
 60130  1  0  0  0
 60131  1  0  0  0
 60132  1  0  0  0
 61133  1  0  0  0
 61134  1  0  0  0
 61135  1  0  0  0
 62136  1  0  0  0
 62137  1  0  0  0
 62138  1  0  0  0
 63 65  1  0  0  0
 63139  1  0  0  0
 63140  1  0  0  0
 63141  1  0  0  0
 64142  1  0  0  0
 65143  1  0  0  0
 68 81  1  0  0  0
 71 72  2  0  0  0
 71 74  1  0  0  0
 71144  1  0  0  0
 72 76  1  0  0  0
 72145  1  0  0  0
 73 75  1  0  0  0
 73 76  2  0  0  0
 73146  1  0  0  0
 74 75  2  0  0  0
 74 79  1  0  0  0
 75 78  1  0  0  0
 76 82  1  0  0  0
 77 80  1  0  0  0
 77 81  1  0  0  0
 77 84  2  0  0  0
 78147  1  0  0  0
 78148  1  0  0  0
 78149  1  0  0  0
 79 83  1  0  0  0
 79150  1  0  0  0
 79151  1  0  0  0
 80 82  1  0  0  0
 80152  1  0  0  0
 80153  1  0  0  0
 81154  1  0  0  0
 81155  1  0  0  0
 82156  1  0  0  0
 83157  1  0  0  0
M  ISO  4   1 100  68 101  81 101  83 100
M  END
> <chiral flag>
0

> <version>
0

> <s_m_source_file>
/data/baiqing/PycharmProjects/Reinvent-master-3.2/result/LINK_invent/BTK/process_docking_weight1_custom_product_contain_oxygen_bond_distance_aromatic_linkinvent_7_9_3/rearranged_h_0104.sdf

> <i_m_source_file_index>
17

> <r_mmod_Potential_Energy-OPLS-2005>
-100.639595031738

> <r_mmod_Stretch_Energy-OPLS-2005>
40.7022476196289

> <r_mmod_Bend_Energy-OPLS-2005>
108.19327545166

> <r_mmod_Torsional_Energy-OPLS-2005>
188.737884521484

> <r_mmod_Improper_Torsional_Energy-OPLS-2005>
3.32528948783875

> <r_mmod_Van_der_Waal_Energy-OPLS-2005>
154.795913696289

> <r_mmod_Electrostatic_Energy-OPLS-2005>
-363.767852783203

> <r_mmod_Solvation_Energy-OPLS-2005>
-245.764892578125

> <b_mmod_Minimization_Converged-OPLS-2005>
0

> <r_mmod_RMS_Derivative-OPLS-2005>
1.29323089122772

$$$$
18
                    3D
 Structure written by MMmdl.
173182  0  0  1  0            999 V2000
  -30.7190  -14.4489   20.4777 C   0  0  0  0  0  0
  -30.3936  -12.2656   19.4250 C   0  0  0  0  0  0
  -29.4726  -12.4694   18.2067 C   0  0  0  0  0  0
  -27.9953  -12.3618   18.6306 C   0  0  0  0  0  0
  -27.6501  -13.2220   19.8726 C   0  0  2  0  0  0
  -28.6978  -13.0419   20.9956 C   0  0  0  0  0  0
  -25.2513  -13.8225   20.5678 C   0  0  0  0  0  0
  -24.1809  -13.0473   20.9183 C   0  0  0  0  0  0
  -24.6379  -11.6926   20.8788 C   0  0  0  0  0  0
  -23.9070  -10.4298   21.0436 C   0  0  0  0  0  0
  -24.3612   -9.4201   21.9199 C   0  0  0  0  0  0
  -23.6275   -8.2244   22.0743 C   0  0  0  0  0  0
  -22.4269   -8.0274   21.3533 C   0  0  0  0  0  0
  -21.9919   -9.0271   20.4651 C   0  0  0  0  0  0
  -22.7255  -10.2138   20.3071 C   0  0  0  0  0  0
  -21.6865   -6.0721   22.5250 C   0  0  0  0  0  0
  -21.4024   -6.5630   23.8185 C   0  0  0  0  0  0
  -21.3652   -5.6774   24.9144 C   0  0  0  0  0  0
  -21.6056   -4.3039   24.7201 C   0  0  0  0  0  0
  -21.8835   -3.8139   23.4324 C   0  0  0  0  0  0
  -21.9203   -4.6950   22.3379 C   0  0  0  0  0  0
  -22.7816  -13.5208   21.1883 C   0  0  0  0  0  0
  -22.1660   -4.2155   21.0951 F   0  0  0  0  0  0
  -21.5657   -3.4504   25.7701 F   0  0  0  0  0  0
  -30.0247  -13.2859   20.4152 N   0  0  0  0  0  0
  -26.2963  -12.9408   20.3416 N   0  0  0  0  0  0
  -25.9316  -11.6569   20.5898 N   0  0  0  0  0  0
  -22.0525  -12.8163   22.0434 N   0  0  0  0  0  0
  -25.4313  -15.1929   20.3979 N   0  0  0  0  0  0
  -31.9091  -14.5377   20.1719 O   0  0  0  0  0  0
  -21.6665   -6.8849   21.4196 O   0  0  0  0  0  0
  -22.3443  -14.5523   20.6751 O   0  0  0  0  0  0
  -24.6115  -31.8671   23.2070 C   0  0  0  0  0  0
  -25.9040  -32.4812   23.8344 C   0  0  1  0  0  0
  -27.2274  -27.4318   20.0891 C   0  0  0  0  0  0
  -25.5906  -33.8620   24.2239 N   0  0  0  0  0  0
  -23.3959  -30.4966   21.5430 C   0  0  2  0  0  0
  -24.8461  -28.9675   20.0995 C   0  0  0  0  0  0
  -22.7340  -29.4705   22.4900 C   0  0  0  0  0  0
  -18.0288  -28.1381   22.8448 C   0  0  0  0  0  0
  -24.1497  -36.7342   23.2611 C   0  0  0  0  0  0
  -25.9250  -30.8332   21.3594 C   0  0  0  0  0  0
  -26.0037  -29.4666   20.7130 C   0  0  0  0  0  0
  -27.1930  -28.7038   20.7102 C   0  0  0  0  0  0
  -26.0663  -26.9916   19.4126 C   0  0  0  0  0  0
  -24.8750  -27.7322   19.4419 C   0  0  0  0  0  0
  -23.6039  -29.8242   20.1587 C   0  0  0  0  0  0
  -25.4127  -36.3079   24.0258 C   0  0  1  0  0  0
  -20.5859  -28.3677   23.1274 C   0  0  2  0  0  0
  -20.6759  -26.9400   22.5404 C   0  0  0  0  0  0
  -19.5751  -26.6377   21.5176 C   0  0  0  0  0  0
  -18.1938  -26.7927   22.1595 C   0  0  0  0  0  0
  -19.1533  -28.8836   23.2872 C   0  0  0  0  0  0
  -18.9465  -30.1458   23.8849 C   0  0  0  0  0  0
  -17.6468  -30.6561   24.0591 C   0  0  0  0  0  0
  -25.9057  -34.9463   23.5037 C   0  0  0  0  0  0
  -16.5354  -29.9060   23.6360 C   0  0  0  0  0  0
  -16.7297  -28.6528   23.0280 C   0  0  0  0  0  0
  -26.4468  -31.6578   25.0690 C   0  0  0  0  0  0
  -25.3719  -31.3714   26.1430 C   0  0  0  0  0  0
  -27.0206  -30.2968   24.6071 C   0  0  0  0  0  0
  -27.5995  -32.4301   25.7480 C   0  0  0  0  0  0
  -27.5535  -37.1843   24.8426 C   0  0  0  0  0  0
  -21.4074  -29.3061   22.3642 N   0  0  0  0  0  0
  -26.4272  -37.3791   23.9362 N   0  0  0  0  0  0
  -24.6625  -31.0793   22.0976 N   0  0  0  0  0  0
  -23.4119  -28.8209   23.2900 O   0  0  0  0  0  0
  -28.3934  -26.6718   20.1646 O   0  0  0  0  0  0
  -26.5624  -34.8912   22.4609 O   0  0  0  0  0  0
  -23.5329  -32.1433   23.7508 O   0  0  0  0  0  0
  -28.3319  -18.2919   20.2320 C   0  0  0  0  0  0
  -27.6180  -19.4553   20.5753 C   0  0  0  0  0  0
  -30.0952  -18.9236   21.7818 C   0  0  0  0  0  0
  -29.5952  -18.0405   20.7998 C   0  0  0  0  0  0
  -28.1647  -20.3997   21.4782 C   0  0  0  0  0  0
  -29.3958  -20.1096   22.1211 C   0  0  0  0  0  0
  -25.0977  -23.9124   21.2248 C   0  0  0  0  0  0
  -25.3522  -23.3271   19.8165 C   0  0  0  0  0  0
  -26.3097  -24.6105   21.8773 C   0  0  0  0  0  0
  -26.7328  -22.6579   19.6018 C   0  0  0  0  0  0
  -27.7096  -24.1716   21.3470 C   0  0  2  0  0  0
  -30.7152  -17.0699   18.7604 C   0  0  0  0  0  0
  -30.6351  -20.5143   24.1415 C   0  0  0  0  0  0
  -27.4098  -21.6971   21.7854 C   0  0  0  0  0  0
  -28.3702  -25.2199   20.3621 C   0  0  0  0  0  0
  -30.4748  -16.9054   20.2790 C   0  0  2  0  0  0
  -29.9727  -15.5633   20.5961 N   0  0  0  0  0  0
  -27.6515  -22.7742   20.7752 N   0  3  1  0  0  0
  -29.8840  -21.0165   23.0357 O   0  0  0  0  0  0
  -31.4422  -12.3213   19.1257 H   0  0  0  0  0  0
  -30.2598  -11.2670   19.8460 H   0  0  0  0  0  0
  -29.6851  -11.7245   17.4383 H   0  0  0  0  0  0
  -29.6634  -13.4429   17.7538 H   0  0  0  0  0  0
  -27.7985  -11.3133   18.8499 H   0  0  0  0  0  0
  -27.3413  -12.6253   17.7982 H   0  0  0  0  0  0
  -27.6843  -14.2645   19.5482 H   0  0  0  0  0  0
  -28.6576  -12.0336   21.4139 H   0  0  0  0  0  0
  -28.5014  -13.7230   21.8261 H   0  0  0  0  0  0
  -25.2779   -9.5685   22.4739 H   0  0  0  0  0  0
  -24.0030   -7.4619   22.7424 H   0  0  0  0  0  0
  -21.0885   -8.8774   19.8914 H   0  0  0  0  0  0
  -22.3749  -10.9654   19.6164 H   0  0  0  0  0  0
  -21.2005   -7.6132   23.9681 H   0  0  0  0  0  0
  -21.1461   -6.0508   25.9047 H   0  0  0  0  0  0
  -22.0629   -2.7604   23.2816 H   0  0  0  0  0  0
  -22.4161  -11.9805   22.4795 H   0  0  0  0  0  0
  -21.1147  -13.1139   22.2672 H   0  0  0  0  0  0
  -24.6930  -15.8769   20.5141 H   0  0  0  0  0  0
  -26.2884  -15.6010   20.0517 H   0  0  0  0  0  0
  -26.7080  -32.5550   23.1069 H   0  0  0  0  0  0
  -25.0083  -33.9786   25.0386 H   0  0  0  0  0  0
  -22.6956  -31.3218   21.3975 H   0  0  0  0  0  0
  -23.3696  -35.9737   23.3292 H   0  0  0  0  0  0
  -24.3603  -36.9015   22.2029 H   0  0  0  0  0  0
  -23.7337  -37.6570   23.6689 H   0  0  0  0  0  0
  -26.0312  -31.5842   20.5739 H   0  0  0  0  0  0
  -26.8183  -30.9007   21.9673 H   0  0  0  0  0  0
  -28.0787  -29.0823   21.1986 H   0  0  0  0  0  0
  -26.0561  -26.0923   18.8220 H   0  0  0  0  0  0
  -24.0047  -27.3643   18.9214 H   0  0  0  0  0  0
  -23.7054  -30.5934   19.3936 H   0  0  0  0  0  0
  -22.7318  -29.2336   19.8674 H   0  0  0  0  0  0
  -25.1336  -36.1890   25.0739 H   0  0  0  0  0  0
  -21.0024  -28.3253   24.1368 H   0  0  0  0  0  0
  -20.5607  -26.2278   23.3608 H   0  0  0  0  0  0
  -21.6637  -26.7421   22.1209 H   0  0  0  0  0  0
  -19.6902  -25.6287   21.1204 H   0  0  0  0  0  0
  -19.6658  -27.3180   20.6684 H   0  0  0  0  0  0
  -17.4189  -26.6653   21.4023 H   0  0  0  0  0  0
  -18.0367  -26.0092   22.9014 H   0  0  0  0  0  0
  -19.7952  -30.7326   24.2091 H   0  0  0  0  0  0
  -17.5033  -31.6227   24.5222 H   0  0  0  0  0  0
  -15.5364  -30.2935   23.7720 H   0  0  0  0  0  0
  -15.8709  -28.0910   22.6847 H   0  0  0  0  0  0
  -24.5974  -30.6950   25.7779 H   0  0  0  0  0  0
  -24.8842  -32.2881   26.4737 H   0  0  0  0  0  0
  -25.8108  -30.9023   27.0244 H   0  0  0  0  0  0
  -26.2702  -29.6814   24.1090 H   0  0  0  0  0  0
  -27.3822  -29.7153   25.4563 H   0  0  0  0  0  0
  -27.8617  -30.4160   23.9245 H   0  0  0  0  0  0
  -27.2555  -33.3598   26.1998 H   0  0  0  0  0  0
  -28.3840  -32.6858   25.0353 H   0  0  0  0  0  0
  -28.0582  -31.8477   26.5480 H   0  0  0  0  0  0
  -28.2553  -38.0134   24.7485 H   0  0  0  0  0  0
  -28.1025  -36.2681   24.6227 H   0  0  0  0  0  0
  -27.2278  -37.1461   25.8834 H   0  0  0  0  0  0
  -20.9129  -29.8861   21.6994 H   0  0  0  0  0  0
  -26.0106  -38.2828   24.1437 H   0  0  0  0  0  0
  -27.9269  -17.6196   19.4883 H   0  0  0  0  0  0
  -26.6571  -19.6169   20.1037 H   0  0  0  0  0  0
  -31.0552  -18.7042   22.2241 H   0  0  0  0  0  0
  -24.7777  -23.1062   21.8836 H   0  0  0  0  0  0
  -24.2473  -24.5991   21.1941 H   0  0  0  0  0  0
  -25.2205  -24.0990   19.0596 H   0  0  0  0  0  0
  -24.5708  -22.5969   19.6022 H   0  0  0  0  0  0
  -26.2736  -24.4081   22.9487 H   0  0  0  0  0  0
  -26.1821  -25.6921   21.8203 H   0  0  0  0  0  0
  -27.1968  -23.1095   18.7276 H   0  0  0  0  0  0
  -26.5969  -21.6184   19.3100 H   0  0  0  0  0  0
  -28.3792  -24.0761   22.2095 H   0  0  0  0  0  0
  -29.8011  -16.9333   18.1849 H   0  0  0  0  0  0
  -31.4431  -16.3534   18.3783 H   0  0  0  0  0  0
  -31.1080  -18.0611   18.5232 H   0  0  0  0  0  0
  -30.9448  -21.3618   24.7532 H   0  0  0  0  0  0
  -31.5490  -19.9827   23.8673 H   0  0  0  0  0  0
  -30.0156  -19.8737   24.7738 H   0  0  0  0  0  0
  -27.6838  -22.0413   22.7813 H   0  0  0  0  0  0
  -26.3466  -21.4692   21.8588 H   0  0  0  0  0  0
  -28.3400  -25.7673   21.3072 H   0  0  0  0  0  0
  -27.6006  -25.0822   19.6264 H   0  0  0  0  0  0
  -31.4436  -17.0095   20.7716 H   0  0  0  0  0  0
  -28.9877  -15.4563   20.7712 H   0  0  0  0  0  0
  -28.5829  -22.5696   20.4336 H   0  0  0  0  0  0
  1 25  1  0  0  0
  1 30  2  0  0  0
  1 87  1  0  0  0
  2  3  1  0  0  0
  2 25  1  0  0  0
  2 90  1  0  0  0
  2 91  1  0  0  0
  3  4  1  0  0  0
  3 92  1  0  0  0
  3 93  1  0  0  0
  4  5  1  0  0  0
  4 94  1  0  0  0
  4 95  1  0  0  0
  5  6  1  0  0  0
  5 26  1  0  0  0
  5 96  1  0  0  0
  6 25  1  0  0  0
  6 97  1  0  0  0
  6 98  1  0  0  0
  7  8  2  0  0  0
  7 26  1  0  0  0
  7 29  1  0  0  0
  8  9  1  0  0  0
  8 22  1  0  0  0
  9 10  1  0  0  0
  9 27  2  0  0  0
 10 11  2  0  0  0
 10 15  1  0  0  0
 11 12  1  0  0  0
 11 99  1  0  0  0
 12 13  2  0  0  0
 12100  1  0  0  0
 13 14  1  0  0  0
 13 31  1  0  0  0
 14 15  2  0  0  0
 14101  1  0  0  0
 15102  1  0  0  0
 16 17  2  0  0  0
 16 21  1  0  0  0
 16 31  1  0  0  0
 17 18  1  0  0  0
 17103  1  0  0  0
 18 19  2  0  0  0
 18104  1  0  0  0
 19 20  1  0  0  0
 19 24  1  0  0  0
 20 21  2  0  0  0
 20105  1  0  0  0
 21 23  1  0  0  0
 22 28  1  0  0  0
 22 32  2  0  0  0
 26 27  1  0  0  0
 28106  1  0  0  0
 28107  1  0  0  0
 29108  1  0  0  0
 29109  1  0  0  0
 33 34  1  0  0  0
 33 66  1  0  0  0
 33 70  2  0  0  0
 34 36  1  0  0  0
 34 59  1  0  0  0
 34110  1  0  0  0
 35 44  2  0  0  0
 35 45  1  0  0  0
 35 68  1  0  0  0
 36 56  1  0  0  0
 36111  1  0  0  0
 37 39  1  0  0  0
 37 47  1  0  0  0
 37 66  1  0  0  0
 37112  1  0  0  0
 38 43  2  0  0  0
 38 46  1  0  0  0
 38 47  1  0  0  0
 39 64  1  0  0  0
 39 67  2  0  0  0
 40 52  1  0  0  0
 40 53  2  0  0  0
 40 58  1  0  0  0
 41113  1  0  0  0
 41114  1  0  0  0
 41115  1  0  0  0
 41 48  1  0  0  0
 42 43  1  0  0  0
 42 66  1  0  0  0
 42116  1  0  0  0
 42117  1  0  0  0
 43 44  1  0  0  0
 44118  1  0  0  0
 45 46  2  0  0  0
 45119  1  0  0  0
 46120  1  0  0  0
 47121  1  0  0  0
 47122  1  0  0  0
 48 56  1  0  0  0
 48 65  1  0  0  0
 48123  1  0  0  0
 49 50  1  0  0  0
 49 53  1  0  0  0
 49 64  1  0  0  0
 49124  1  0  0  0
 50 51  1  0  0  0
 50125  1  0  0  0
 50126  1  0  0  0
 51 52  1  0  0  0
 51127  1  0  0  0
 51128  1  0  0  0
 52129  1  0  0  0
 52130  1  0  0  0
 53 54  1  0  0  0
 54 55  2  0  0  0
 54131  1  0  0  0
 55 57  1  0  0  0
 55132  1  0  0  0
 56 69  2  0  0  0
 57 58  2  0  0  0
 57133  1  0  0  0
 58134  1  0  0  0
 59 60  1  0  0  0
 59 61  1  0  0  0
 59 62  1  0  0  0
 60135  1  0  0  0
 60136  1  0  0  0
 60137  1  0  0  0
 61138  1  0  0  0
 61139  1  0  0  0
 61140  1  0  0  0
 62141  1  0  0  0
 62142  1  0  0  0
 62143  1  0  0  0
 63 65  1  0  0  0
 63144  1  0  0  0
 63145  1  0  0  0
 63146  1  0  0  0
 64147  1  0  0  0
 65148  1  0  0  0
 68 85  1  0  0  0
 71 72  2  0  0  0
 71 74  1  0  0  0
 71149  1  0  0  0
 72 75  1  0  0  0
 72150  1  0  0  0
 73 74  2  0  0  0
 73 76  1  0  0  0
 73151  1  0  0  0
 74 86  1  0  0  0
 75 76  2  0  0  0
 75 84  1  0  0  0
 76 89  1  0  0  0
 77 78  1  0  0  0
 77 79  1  0  0  0
 77152  1  0  0  0
 77153  1  0  0  0
 78 80  1  0  0  0
 78154  1  0  0  0
 78155  1  0  0  0
 79 81  1  0  0  0
 79156  1  0  0  0
 79157  1  0  0  0
 80 88  1  0  0  0
 80158  1  0  0  0
 80159  1  0  0  0
 81 85  1  0  0  0
 81 88  1  0  0  0
 81160  1  0  0  0
 82161  1  0  0  0
 82162  1  0  0  0
 82163  1  0  0  0
 82 86  1  0  0  0
 83 89  1  0  0  0
 83164  1  0  0  0
 83165  1  0  0  0
 83166  1  0  0  0
 84167  1  0  0  0
 84168  1  0  0  0
 84 88  1  0  0  0
 85169  1  0  0  0
 85170  1  0  0  0
 86 87  1  0  0  0
 86171  1  0  0  0
 87172  1  0  0  0
 88173  1  0  0  0
M  CHG  1  88   1
M  ISO  4   1 100  68 101  85 101  87 100
M  END
> <chiral flag>
0

> <version>
0

> <s_m_source_file>
/data/baiqing/PycharmProjects/Reinvent-master-3.2/result/LINK_invent/BTK/process_docking_weight1_custom_product_contain_oxygen_bond_distance_aromatic_linkinvent_7_9_3/rearranged_h_0104.sdf

> <i_m_source_file_index>
18

> <r_mmod_Potential_Energy-OPLS-2005>
210.845581054688

> <r_mmod_Stretch_Energy-OPLS-2005>
49.335319519043

> <r_mmod_Bend_Energy-OPLS-2005>
347.707916259766

> <r_mmod_Torsional_Energy-OPLS-2005>
309.483123779297

> <r_mmod_Improper_Torsional_Energy-OPLS-2005>
7.98164844512939

> <r_mmod_Van_der_Waal_Energy-OPLS-2005>
186.363327026367

> <r_mmod_Electrostatic_Energy-OPLS-2005>
-309.309417724609

> <r_mmod_Solvation_Energy-OPLS-2005>
-404.03271484375

> <b_mmod_Minimization_Converged-OPLS-2005>
0

> <r_mmod_RMS_Derivative-OPLS-2005>
6.10930585861206

$$$$
19
                    3D
 Structure written by MMmdl.
171180  0  0  1  0            999 V2000
  -30.6342  -14.6720   20.5725 C   0  0  0  0  0  0
  -30.4432  -12.4371   19.4623 C   0  0  0  0  0  0
  -29.5136  -12.5456   18.2300 C   0  0  0  0  0  0
  -28.0348  -12.3655   18.6283 C   0  0  0  0  0  0
  -27.6552  -13.2162   19.8673 C   0  0  2  0  0  0
  -28.6927  -13.0273   20.9913 C   0  0  0  0  0  0
  -25.2559  -13.8166   20.5664 C   0  0  0  0  0  0
  -24.1828  -13.0430   20.9165 C   0  0  0  0  0  0
  -24.6393  -11.6900   20.8711 C   0  0  0  0  0  0
  -23.9064  -10.4287   21.0395 C   0  0  0  0  0  0
  -24.3618   -9.4208   21.9175 C   0  0  0  0  0  0
  -23.6293   -8.2245   22.0752 C   0  0  0  0  0  0
  -22.4271   -8.0282   21.3549 C   0  0  0  0  0  0
  -21.9906   -9.0252   20.4647 C   0  0  0  0  0  0
  -22.7234  -10.2129   20.3050 C   0  0  0  0  0  0
  -21.6852   -6.0735   22.5279 C   0  0  0  0  0  0
  -21.4013   -6.5639   23.8213 C   0  0  0  0  0  0
  -21.3662   -5.6793   24.9174 C   0  0  0  0  0  0
  -21.6044   -4.3055   24.7224 C   0  0  0  0  0  0
  -21.8820   -3.8147   23.4345 C   0  0  0  0  0  0
  -21.9193   -4.6963   22.3402 C   0  0  0  0  0  0
  -22.7852  -13.5231   21.1845 C   0  0  0  0  0  0
  -22.1662   -4.2151   21.0980 F   0  0  0  0  0  0
  -21.5630   -3.4539   25.7737 F   0  0  0  0  0  0
  -30.0102  -13.4392   20.4670 N   0  0  0  0  0  0
  -26.2989  -12.9342   20.3297 N   0  0  0  0  0  0
  -25.9319  -11.6491   20.5708 N   0  0  0  0  0  0
  -22.0501  -12.8221   22.0406 N   0  0  0  0  0  0
  -25.4275  -15.1885   20.4106 N   0  0  0  0  0  0
  -31.7226  -14.8678   20.0190 O   0  0  0  0  0  0
  -21.6640   -6.8874   21.4242 O   0  0  0  0  0  0
  -22.3540  -14.5542   20.6702 O   0  0  0  0  0  0
  -24.6267  -31.8589   23.2021 C   0  0  0  0  0  0
  -25.9108  -32.4771   23.8357 C   0  0  1  0  0  0
  -27.2170  -27.2923   20.1347 C   0  0  0  0  0  0
  -25.5917  -33.8576   24.2275 N   0  0  0  0  0  0
  -23.4222  -30.4800   21.5451 C   0  0  2  0  0  0
  -24.8711  -28.9329   20.1116 C   0  0  0  0  0  0
  -22.7475  -29.4600   22.4929 C   0  0  0  0  0  0
  -18.0286  -28.1382   22.8487 C   0  0  0  0  0  0
  -24.1492  -36.7290   23.2635 C   0  0  0  0  0  0
  -25.9644  -30.7777   21.3822 C   0  0  0  0  0  0
  -26.0358  -29.4006   20.7334 C   0  0  0  0  0  0
  -27.2105  -28.5874   20.7444 C   0  0  0  0  0  0
  -26.0556  -26.9154   19.4330 C   0  0  0  0  0  0
  -24.8829  -27.6932   19.4542 C   0  0  0  0  0  0
  -23.6391  -29.8138   20.1608 C   0  0  0  0  0  0
  -25.4118  -36.3081   24.0322 C   0  0  1  0  0  0
  -20.5888  -28.3678   23.1288 C   0  0  2  0  0  0
  -20.6774  -26.9402   22.5412 C   0  0  0  0  0  0
  -19.5751  -26.6381   21.5210 C   0  0  0  0  0  0
  -18.1931  -26.7927   22.1625 C   0  0  0  0  0  0
  -19.1537  -28.8851   23.2883 C   0  0  0  0  0  0
  -18.9459  -30.1457   23.8894 C   0  0  0  0  0  0
  -17.6459  -30.6582   24.0566 C   0  0  0  0  0  0
  -25.9054  -34.9449   23.5099 C   0  0  0  0  0  0
  -16.5353  -29.9079   23.6330 C   0  0  0  0  0  0
  -16.7276  -28.6500   23.0346 C   0  0  0  0  0  0
  -26.4497  -31.6586   25.0727 C   0  0  0  0  0  0
  -25.3728  -31.3731   26.1455 C   0  0  0  0  0  0
  -27.0332  -30.3002   24.6187 C   0  0  0  0  0  0
  -27.6069  -32.4324   25.7478 C   0  0  0  0  0  0
  -27.5579  -37.1804   24.8459 C   0  0  0  0  0  0
  -21.4185  -29.3029   22.3672 N   0  0  0  0  0  0
  -26.4295  -37.3777   23.9397 N   0  0  0  0  0  0
  -24.6896  -31.0565   22.0999 N   0  0  0  0  0  0
  -23.4188  -28.8137   23.3014 O   0  0  0  0  0  0
  -28.3397  -26.4491   20.1106 O   0  0  0  0  0  0
  -26.5628  -34.8916   22.4668 O   0  0  0  0  0  0
  -23.5423  -32.1421   23.7316 O   0  0  0  0  0  0
  -29.9226  -18.3469   22.0160 C   0  0  0  0  0  0
  -29.7319  -19.7324   21.7468 C   0  0  0  0  0  0
  -29.8084  -17.8451   19.6850 C   0  0  0  0  0  0
  -29.9463  -17.3348   21.0085 C   0  0  0  0  0  0
  -29.5543  -20.2320   20.4348 C   0  0  0  0  0  0
  -29.6225  -19.2508   19.3937 C   0  0  0  0  0  0
  -29.9724  -15.8341   21.4332 C   0  0  0  0  0  0
  -25.1104  -23.1349   19.7522 C   0  0  0  0  0  0
  -26.0876  -23.9106   20.6369 C   0  0  0  0  0  0
  -27.0170  -21.5016   19.4027 C   0  0  0  0  0  0
  -25.5178  -21.6586   19.7327 C   0  0  2  0  0  0
  -27.5336  -23.8315   20.0735 C   0  0  1  0  0  0
  -24.6445  -20.8555   18.7545 C   0  0  0  0  0  0
  -29.4940  -18.8187   17.0266 C   0  0  0  0  0  0
  -29.3380  -21.7936   20.1713 C   0  0  0  0  0  0
  -28.3663  -25.0608   20.6887 C   0  0  0  0  0  0
  -29.4948  -15.5695   22.5789 N   0  0  0  0  0  0
  -27.9179  -22.3348   20.2647 N   0  3  2  0  0  0
  -29.4735  -19.7373   18.1116 O   0  0  0  0  0  0
  -31.4819  -12.5758   19.1588 H   0  0  0  0  0  0
  -30.4001  -11.4320   19.8848 H   0  0  0  0  0  0
  -29.7919  -11.8040   17.4801 H   0  0  0  0  0  0
  -29.6480  -13.5204   17.7583 H   0  0  0  0  0  0
  -27.8741  -11.3084   18.8433 H   0  0  0  0  0  0
  -27.3830  -12.6074   17.7881 H   0  0  0  0  0  0
  -27.6858  -14.2611   19.5583 H   0  0  0  0  0  0
  -28.7260  -11.9796   21.2946 H   0  0  0  0  0  0
  -28.3725  -13.5499   21.8862 H   0  0  0  0  0  0
  -25.2763   -9.5684   22.4746 H   0  0  0  0  0  0
  -24.0002   -7.4636   22.7472 H   0  0  0  0  0  0
  -21.0836   -8.8769   19.8955 H   0  0  0  0  0  0
  -22.3692  -10.9666   19.6160 H   0  0  0  0  0  0
  -21.2004   -7.6146   23.9715 H   0  0  0  0  0  0
  -21.1485   -6.0522   25.9077 H   0  0  0  0  0  0
  -22.0597   -2.7609   23.2845 H   0  0  0  0  0  0
  -22.4116  -11.9877   22.4781 H   0  0  0  0  0  0
  -21.1123  -13.1251   22.2622 H   0  0  0  0  0  0
  -24.6652  -15.8456   20.5317 H   0  0  0  0  0  0
  -26.2911  -15.6312   20.1238 H   0  0  0  0  0  0
  -26.7165  -32.5450   23.1101 H   0  0  0  0  0  0
  -25.0053  -33.9741   25.0411 H   0  0  0  0  0  0
  -22.7169  -31.3011   21.4009 H   0  0  0  0  0  0
  -23.3747  -35.9628   23.3300 H   0  0  0  0  0  0
  -24.3580  -36.8915   22.2049 H   0  0  0  0  0  0
  -23.7259  -37.6497   23.6656 H   0  0  0  0  0  0
  -26.0977  -31.5352   20.6088 H   0  0  0  0  0  0
  -26.8462  -30.8335   22.0088 H   0  0  0  0  0  0
  -28.1041  -28.9400   21.2401 H   0  0  0  0  0  0
  -26.0444  -25.9951   18.8677 H   0  0  0  0  0  0
  -24.0001  -27.3406   18.9395 H   0  0  0  0  0  0
  -23.7577  -30.5922   19.4061 H   0  0  0  0  0  0
  -22.7598  -29.2408   19.8586 H   0  0  0  0  0  0
  -25.1297  -36.1933   25.0813 H   0  0  0  0  0  0
  -20.9992  -28.3254   24.1403 H   0  0  0  0  0  0
  -20.5671  -26.2282   23.3608 H   0  0  0  0  0  0
  -21.6643  -26.7424   22.1207 H   0  0  0  0  0  0
  -19.6908  -25.6290   21.1238 H   0  0  0  0  0  0
  -19.6695  -27.3193   20.6743 H   0  0  0  0  0  0
  -17.4201  -26.6683   21.4028 H   0  0  0  0  0  0
  -18.0326  -26.0072   22.9026 H   0  0  0  0  0  0
  -19.7934  -30.7279   24.2257 H   0  0  0  0  0  0
  -17.5008  -31.6262   24.5165 H   0  0  0  0  0  0
  -15.5351  -30.2977   23.7649 H   0  0  0  0  0  0
  -15.8681  -28.0820   22.7049 H   0  0  0  0  0  0
  -24.5926  -30.7048   25.7783 H   0  0  0  0  0  0
  -24.8888  -32.2897   26.4838 H   0  0  0  0  0  0
  -25.8061  -30.8943   27.0249 H   0  0  0  0  0  0
  -26.2902  -29.6760   24.1205 H   0  0  0  0  0  0
  -27.3999  -29.7247   25.4695 H   0  0  0  0  0  0
  -27.8789  -30.4259   23.9422 H   0  0  0  0  0  0
  -27.2681  -33.3629   26.2042 H   0  0  0  0  0  0
  -28.3869  -32.6886   25.0292 H   0  0  0  0  0  0
  -28.0741  -31.8463   26.5405 H   0  0  0  0  0  0
  -28.2596  -38.0104   24.7504 H   0  0  0  0  0  0
  -28.1081  -36.2637   24.6282 H   0  0  0  0  0  0
  -27.2292  -37.1444   25.8863 H   0  0  0  0  0  0
  -20.9353  -29.8755   21.6898 H   0  0  0  0  0  0
  -26.0169  -38.2844   24.1414 H   0  0  0  0  0  0
  -30.0344  -18.0634   23.0534 H   0  0  0  0  0  0
  -29.7184  -20.4213   22.5798 H   0  0  0  0  0  0
  -29.8151  -17.1184   18.8875 H   0  0  0  0  0  0
  -25.1094  -23.5471   18.7415 H   0  0  0  0  0  0
  -24.0925  -23.2395   20.1304 H   0  0  0  0  0  0
  -26.0667  -23.4984   21.6473 H   0  0  0  0  0  0
  -25.7236  -24.9179   20.7831 H   0  0  0  0  0  0
  -27.2039  -21.7466   18.3562 H   0  0  0  0  0  0
  -27.2304  -20.4402   19.5036 H   0  0  0  0  0  0
  -25.3511  -21.2502   20.7310 H   0  0  0  0  0  0
  -27.5276  -24.0146   18.9981 H   0  0  0  0  0  0
  -24.7655  -21.2105   17.7304 H   0  0  0  0  0  0
  -23.5866  -20.9358   19.0092 H   0  0  0  0  0  0
  -24.9049  -19.7973   18.7662 H   0  0  0  0  0  0
  -29.3644  -19.3644   16.0913 H   0  0  0  0  0  0
  -28.6794  -18.0967   17.0995 H   0  0  0  0  0  0
  -30.4455  -18.2884   16.9666 H   0  0  0  0  0  0
  -29.7389  -22.0423   19.1888 H   0  0  0  0  0  0
  -29.9560  -22.3393   20.8841 H   0  0  0  0  0  0
  -28.1534  -25.1405   21.7557 H   0  0  0  0  0  0
  -29.4187  -24.7819   20.6412 H   0  0  0  0  0  0
  -29.1304  -16.4063   23.0171 H   0  0  0  0  0  0
  -27.6606  -22.1184   21.2159 H   0  0  0  0  0  0
  1 25  1  0  0  0
  1 30  2  0  0  0
  1 77  1  0  0  0
  2  3  1  0  0  0
  2 25  1  0  0  0
  2 90  1  0  0  0
  2 91  1  0  0  0
  3  4  1  0  0  0
  3 92  1  0  0  0
  3 93  1  0  0  0
  4  5  1  0  0  0
  4 94  1  0  0  0
  4 95  1  0  0  0
  5  6  1  0  0  0
  5 26  1  0  0  0
  5 96  1  0  0  0
  6 25  1  0  0  0
  6 97  1  0  0  0
  6 98  1  0  0  0
  7  8  2  0  0  0
  7 26  1  0  0  0
  7 29  1  0  0  0
  8  9  1  0  0  0
  8 22  1  0  0  0
  9 10  1  0  0  0
  9 27  2  0  0  0
 10 11  2  0  0  0
 10 15  1  0  0  0
 11 12  1  0  0  0
 11 99  1  0  0  0
 12 13  2  0  0  0
 12100  1  0  0  0
 13 14  1  0  0  0
 13 31  1  0  0  0
 14 15  2  0  0  0
 14101  1  0  0  0
 15102  1  0  0  0
 16 17  2  0  0  0
 16 21  1  0  0  0
 16 31  1  0  0  0
 17 18  1  0  0  0
 17103  1  0  0  0
 18 19  2  0  0  0
 18104  1  0  0  0
 19 20  1  0  0  0
 19 24  1  0  0  0
 20 21  2  0  0  0
 20105  1  0  0  0
 21 23  1  0  0  0
 22 28  1  0  0  0
 22 32  2  0  0  0
 26 27  1  0  0  0
 28106  1  0  0  0
 28107  1  0  0  0
 29108  1  0  0  0
 29109  1  0  0  0
 33 34  1  0  0  0
 33 66  1  0  0  0
 33 70  2  0  0  0
 34 36  1  0  0  0
 34 59  1  0  0  0
 34110  1  0  0  0
 35 44  2  0  0  0
 35 45  1  0  0  0
 35 68  1  0  0  0
 36 56  1  0  0  0
 36111  1  0  0  0
 37 39  1  0  0  0
 37 47  1  0  0  0
 37 66  1  0  0  0
 37112  1  0  0  0
 38 43  2  0  0  0
 38 46  1  0  0  0
 38 47  1  0  0  0
 39 64  1  0  0  0
 39 67  2  0  0  0
 40 52  1  0  0  0
 40 53  2  0  0  0
 40 58  1  0  0  0
 41113  1  0  0  0
 41114  1  0  0  0
 41115  1  0  0  0
 41 48  1  0  0  0
 42 43  1  0  0  0
 42 66  1  0  0  0
 42116  1  0  0  0
 42117  1  0  0  0
 43 44  1  0  0  0
 44118  1  0  0  0
 45 46  2  0  0  0
 45119  1  0  0  0
 46120  1  0  0  0
 47121  1  0  0  0
 47122  1  0  0  0
 48 56  1  0  0  0
 48 65  1  0  0  0
 48123  1  0  0  0
 49 50  1  0  0  0
 49 53  1  0  0  0
 49 64  1  0  0  0
 49124  1  0  0  0
 50 51  1  0  0  0
 50125  1  0  0  0
 50126  1  0  0  0
 51 52  1  0  0  0
 51127  1  0  0  0
 51128  1  0  0  0
 52129  1  0  0  0
 52130  1  0  0  0
 53 54  1  0  0  0
 54 55  2  0  0  0
 54131  1  0  0  0
 55 57  1  0  0  0
 55132  1  0  0  0
 56 69  2  0  0  0
 57 58  2  0  0  0
 57133  1  0  0  0
 58134  1  0  0  0
 59 60  1  0  0  0
 59 61  1  0  0  0
 59 62  1  0  0  0
 60135  1  0  0  0
 60136  1  0  0  0
 60137  1  0  0  0
 61138  1  0  0  0
 61139  1  0  0  0
 61140  1  0  0  0
 62141  1  0  0  0
 62142  1  0  0  0
 62143  1  0  0  0
 63 65  1  0  0  0
 63144  1  0  0  0
 63145  1  0  0  0
 63146  1  0  0  0
 64147  1  0  0  0
 65148  1  0  0  0
 68 86  1  0  0  0
 71 72  2  0  0  0
 71 74  1  0  0  0
 71149  1  0  0  0
 72 75  1  0  0  0
 72150  1  0  0  0
 73 74  2  0  0  0
 73 76  1  0  0  0
 73151  1  0  0  0
 74 77  1  0  0  0
 75 76  2  0  0  0
 75 85  1  0  0  0
 76 89  1  0  0  0
 77 87  2  0  0  0
 78 79  1  0  0  0
 78 81  1  0  0  0
 78152  1  0  0  0
 78153  1  0  0  0
 79 82  1  0  0  0
 79154  1  0  0  0
 79155  1  0  0  0
 80 81  1  0  0  0
 80 88  1  0  0  0
 80156  1  0  0  0
 80157  1  0  0  0
 81 83  1  0  0  0
 81158  1  0  0  0
 82 86  1  0  0  0
 82 88  1  0  0  0
 82159  1  0  0  0
 83160  1  0  0  0
 83161  1  0  0  0
 83162  1  0  0  0
 84 89  1  0  0  0
 84163  1  0  0  0
 84164  1  0  0  0
 84165  1  0  0  0
 85166  1  0  0  0
 85167  1  0  0  0
 85 88  1  0  0  0
 86168  1  0  0  0
 86169  1  0  0  0
 87170  1  0  0  0
 88171  1  0  0  0
M  CHG  1  88   1
M  ISO  4   1 100  68 101  77 100  86 101
M  END
> <chiral flag>
0

> <version>
0

> <s_m_source_file>
/data/baiqing/PycharmProjects/Reinvent-master-3.2/result/LINK_invent/BTK/process_docking_weight1_custom_product_contain_oxygen_bond_distance_aromatic_linkinvent_7_9_3/rearranged_h_0104.sdf

> <i_m_source_file_index>
19

> <r_mmod_Potential_Energy-OPLS-2005>
283.386840820312

> <r_mmod_Stretch_Energy-OPLS-2005>
123.442314147949

> <r_mmod_Bend_Energy-OPLS-2005>
223.525741577148

> <r_mmod_Torsional_Energy-OPLS-2005>
240.78791809082

> <r_mmod_Improper_Torsional_Energy-OPLS-2005>
3.2054762840271

> <r_mmod_Van_der_Waal_Energy-OPLS-2005>
159.503677368164

> <r_mmod_Electrostatic_Energy-OPLS-2005>
-117.904357910156

> <r_mmod_Solvation_Energy-OPLS-2005>
-404.642364501953

> <b_mmod_Minimization_Converged-OPLS-2005>
0

> <r_mmod_RMS_Derivative-OPLS-2005>
1.38945555686951

$$$$
20
                    3D
 Structure written by MMmdl.
158166  0  0  1  0            999 V2000
  -30.7354  -14.4796   20.5743 C   0  0  0  0  0  0
  -30.4086  -12.3195   19.4245 C   0  0  0  0  0  0
  -29.4903  -12.5053   18.2027 C   0  0  0  0  0  0
  -28.0111  -12.3724   18.6157 C   0  0  0  0  0  0
  -27.6530  -13.2200   19.8667 C   0  0  2  0  0  0
  -28.6978  -13.0405   20.9908 C   0  0  0  0  0  0
  -25.2551  -13.8190   20.5703 C   0  0  0  0  0  0
  -24.1829  -13.0444   20.9215 C   0  0  0  0  0  0
  -24.6400  -11.6914   20.8749 C   0  0  0  0  0  0
  -23.9071  -10.4293   21.0415 C   0  0  0  0  0  0
  -24.3624   -9.4194   21.9179 C   0  0  0  0  0  0
  -23.6294   -8.2233   22.0736 C   0  0  0  0  0  0
  -22.4270   -8.0284   21.3537 C   0  0  0  0  0  0
  -21.9907   -9.0267   20.4647 C   0  0  0  0  0  0
  -22.7241  -10.2141   20.3063 C   0  0  0  0  0  0
  -21.6848   -6.0745   22.5277 C   0  0  0  0  0  0
  -21.4026   -6.5646   23.8214 C   0  0  0  0  0  0
  -21.3668   -5.6792   24.9174 C   0  0  0  0  0  0
  -21.6045   -4.3056   24.7214 C   0  0  0  0  0  0
  -21.8827   -3.8151   23.4334 C   0  0  0  0  0  0
  -21.9192   -4.6974   22.3395 C   0  0  0  0  0  0
  -22.7844  -13.5224   21.1860 C   0  0  0  0  0  0
  -22.1658   -4.2170   21.0968 F   0  0  0  0  0  0
  -21.5614   -3.4528   25.7718 F   0  0  0  0  0  0
  -30.0192  -13.3321   20.4180 N   0  0  0  0  0  0
  -26.2983  -12.9382   20.3337 N   0  0  0  0  0  0
  -25.9325  -11.6525   20.5758 N   0  0  0  0  0  0
  -22.0468  -12.8204   22.0383 N   0  0  0  0  0  0
  -25.4246  -15.1908   20.4127 N   0  0  0  0  0  0
  -31.8897  -14.5751   20.1453 O   0  0  0  0  0  0
  -21.6625   -6.8888   21.4242 O   0  0  0  0  0  0
  -22.3539  -14.5539   20.6714 O   0  0  0  0  0  0
  -24.6136  -31.8680   23.2093 C   0  0  0  0  0  0
  -25.9037  -32.4819   23.8382 C   0  0  1  0  0  0
  -27.2319  -27.4382   20.1036 C   0  0  0  0  0  0
  -25.5902  -33.8618   24.2330 N   0  0  0  0  0  0
  -23.3999  -30.4906   21.5488 C   0  0  2  0  0  0
  -24.8465  -28.9511   20.1201 C   0  0  0  0  0  0
  -22.7384  -29.4667   22.4987 C   0  0  0  0  0  0
  -18.0268  -28.1368   22.8496 C   0  0  0  0  0  0
  -24.1482  -36.7316   23.2638 C   0  0  0  0  0  0
  -25.9268  -30.8368   21.3575 C   0  0  0  0  0  0
  -26.0061  -29.4682   20.7133 C   0  0  0  0  0  0
  -27.2048  -28.7182   20.7030 C   0  0  0  0  0  0
  -26.0607  -26.9341   19.5036 C   0  0  0  0  0  0
  -24.8673  -27.6818   19.5150 C   0  0  0  0  0  0
  -23.6085  -29.8184   20.1655 C   0  0  0  0  0  0
  -25.4102  -36.3116   24.0339 C   0  0  1  0  0  0
  -20.5856  -28.3654   23.1320 C   0  0  2  0  0  0
  -20.6763  -26.9392   22.5417 C   0  0  0  0  0  0
  -19.5745  -26.6385   21.5208 C   0  0  0  0  0  0
  -18.1921  -26.7917   22.1621 C   0  0  0  0  0  0
  -19.1517  -28.8824   23.2910 C   0  0  0  0  0  0
  -18.9454  -30.1435   23.8910 C   0  0  0  0  0  0
  -17.6459  -30.6579   24.0566 C   0  0  0  0  0  0
  -25.9026  -34.9480   23.5129 C   0  0  0  0  0  0
  -16.5348  -29.9085   23.6326 C   0  0  0  0  0  0
  -16.7259  -28.6500   23.0346 C   0  0  0  0  0  0
  -26.4480  -31.6583   25.0692 C   0  0  0  0  0  0
  -25.3751  -31.3678   26.1437 C   0  0  0  0  0  0
  -27.0309  -30.3028   24.6045 C   0  0  0  0  0  0
  -27.6061  -32.4282   25.7466 C   0  0  0  0  0  0
  -27.5574  -37.1813   24.8467 C   0  0  0  0  0  0
  -21.4114  -29.3027   22.3721 N   0  0  0  0  0  0
  -26.4288  -37.3800   23.9408 N   0  0  0  0  0  0
  -24.6649  -31.0795   22.0980 N   0  0  0  0  0  0
  -23.4159  -28.8212   23.3028 O   0  0  0  0  0  0
  -28.3937  -26.7021   20.0602 O   0  0  0  0  0  0
  -26.5590  -34.8935   22.4689 O   0  0  0  0  0  0
  -23.5331  -32.1424   23.7498 O   0  0  0  0  0  0
  -29.9212  -18.9649   22.3699 C   0  0  0  0  0  0
  -29.0358  -18.2918   20.2191 C   0  0  0  0  0  0
  -29.8004  -17.9839   21.3612 C   0  0  0  0  0  0
  -29.3165  -20.2417   22.2570 C   0  0  0  0  0  0
  -28.4563  -19.5718   20.0775 C   0  0  0  0  0  0
  -28.5999  -20.5790   21.0668 C   0  0  0  0  0  0
  -30.6218  -16.7185   21.4374 C   0  0  0  0  0  0
  -29.4583  -21.1697   23.4551 C   0  0  0  0  0  0
  -28.1141  -24.2208   20.3635 C   0  0  0  0  0  0
  -28.4736  -25.5993   20.9764 C   0  0  0  0  0  0
  -28.5032  -23.0311   21.2760 C   0  0  0  0  0  0
  -27.7418  -19.8624   18.9183 N   0  0  0  0  0  0
  -30.0586  -15.5578   21.0329 N   0  0  0  0  0  0
  -31.7679  -16.8030   21.8944 O   0  0  0  0  0  0
  -27.9861  -21.7949   20.7734 O   0  0  0  0  0  0
  -31.4540  -12.3995   19.1239 H   0  0  0  0  0  0
  -30.2972  -11.3182   19.8428 H   0  0  0  0  0  0
  -29.7340  -11.7678   17.4364 H   0  0  0  0  0  0
  -29.6648  -13.4840   17.7529 H   0  0  0  0  0  0
  -27.8213  -11.3185   18.8185 H   0  0  0  0  0  0
  -27.3627  -12.6442   17.7818 H   0  0  0  0  0  0
  -27.6840  -14.2643   19.5536 H   0  0  0  0  0  0
  -28.6781  -12.0200   21.3755 H   0  0  0  0  0  0
  -28.4672  -13.6826   21.8424 H   0  0  0  0  0  0
  -25.2782   -9.5659   22.4739 H   0  0  0  0  0  0
  -24.0008   -7.4618   22.7444 H   0  0  0  0  0  0
  -21.0830   -8.8796   19.8962 H   0  0  0  0  0  0
  -22.3695  -10.9684   19.6172 H   0  0  0  0  0  0
  -21.2023   -7.6155   23.9727 H   0  0  0  0  0  0
  -21.1482   -6.0514   25.9079 H   0  0  0  0  0  0
  -22.0597   -2.7614   23.2812 H   0  0  0  0  0  0
  -22.4038  -11.9851   22.4784 H   0  0  0  0  0  0
  -21.1091  -13.1255   22.2567 H   0  0  0  0  0  0
  -24.6621  -15.8464   20.5451 H   0  0  0  0  0  0
  -26.2662  -15.6287   20.0628 H   0  0  0  0  0  0
  -26.7098  -32.5537   23.1139 H   0  0  0  0  0  0
  -25.0071  -33.9784   25.0486 H   0  0  0  0  0  0
  -22.6884  -31.3061   21.4064 H   0  0  0  0  0  0
  -23.3745  -35.9648   23.3312 H   0  0  0  0  0  0
  -24.3576  -36.8914   22.2051 H   0  0  0  0  0  0
  -23.7235  -37.6526   23.6637 H   0  0  0  0  0  0
  -26.0281  -31.5993   20.5840 H   0  0  0  0  0  0
  -26.8184  -30.8988   21.9694 H   0  0  0  0  0  0
  -28.1012  -29.1192   21.1557 H   0  0  0  0  0  0
  -26.0724  -25.9684   19.0190 H   0  0  0  0  0  0
  -23.9762  -27.2765   19.0557 H   0  0  0  0  0  0
  -23.7193  -30.5893   19.4021 H   0  0  0  0  0  0
  -22.7331  -29.2360   19.8711 H   0  0  0  0  0  0
  -25.1282  -36.1985   25.0833 H   0  0  0  0  0  0
  -20.9953  -28.3226   24.1438 H   0  0  0  0  0  0
  -20.5662  -26.2264   23.3605 H   0  0  0  0  0  0
  -21.6640  -26.7441   22.1214 H   0  0  0  0  0  0
  -19.6912  -25.6305   21.1215 H   0  0  0  0  0  0
  -19.6688  -27.3215   20.6751 H   0  0  0  0  0  0
  -17.4199  -26.6668   21.4018 H   0  0  0  0  0  0
  -18.0328  -26.0047   22.9004 H   0  0  0  0  0  0
  -19.7933  -30.7247   24.2280 H   0  0  0  0  0  0
  -17.5019  -31.6261   24.5165 H   0  0  0  0  0  0
  -15.5350  -30.2998   23.7635 H   0  0  0  0  0  0
  -15.8661  -28.0828   22.7050 H   0  0  0  0  0  0
  -24.5935  -30.7013   25.7770 H   0  0  0  0  0  0
  -24.8938  -32.2833   26.4879 H   0  0  0  0  0  0
  -25.8115  -30.8851   27.0186 H   0  0  0  0  0  0
  -26.2852  -29.6792   24.1097 H   0  0  0  0  0  0
  -27.4088  -29.7254   25.4495 H   0  0  0  0  0  0
  -27.8677  -30.4358   23.9183 H   0  0  0  0  0  0
  -27.2691  -33.3571   26.2072 H   0  0  0  0  0  0
  -28.3877  -32.6836   25.0300 H   0  0  0  0  0  0
  -28.0713  -31.8369   26.5365 H   0  0  0  0  0  0
  -28.2611  -38.0095   24.7516 H   0  0  0  0  0  0
  -28.1058  -36.2631   24.6299 H   0  0  0  0  0  0
  -27.2292  -37.1465   25.8873 H   0  0  0  0  0  0
  -20.9255  -29.8750   21.6959 H   0  0  0  0  0  0
  -26.0183  -38.2877   24.1418 H   0  0  0  0  0  0
  -30.5101  -18.7291   23.2466 H   0  0  0  0  0  0
  -28.9450  -17.5637   19.4249 H   0  0  0  0  0  0
  -29.8799  -20.6415   24.3125 H   0  0  0  0  0  0
  -28.4888  -21.5561   23.7683 H   0  0  0  0  0  0
  -30.1297  -22.0003   23.2431 H   0  0  0  0  0  0
  -28.6184  -24.1070   19.4032 H   0  0  0  0  0  0
  -27.0448  -24.1805   20.1587 H   0  0  0  0  0  0
  -29.5063  -25.5677   21.3265 H   0  0  0  0  0  0
  -27.8651  -25.7864   21.8635 H   0  0  0  0  0  0
  -28.0955  -23.2101   22.2706 H   0  0  0  0  0  0
  -29.5900  -22.9928   21.3482 H   0  0  0  0  0  0
  -27.2947  -19.0885   18.4398 H   0  0  0  0  0  0
  -27.1454  -20.6825   18.9827 H   0  0  0  0  0  0
  -29.0549  -15.5209   21.0093 H   0  0  0  0  0  0
  1 25  1  0  0  0
  1 30  2  0  0  0
  1 83  1  0  0  0
  2  3  1  0  0  0
  2 25  1  0  0  0
  2 86  1  0  0  0
  2 87  1  0  0  0
  3  4  1  0  0  0
  3 88  1  0  0  0
  3 89  1  0  0  0
  4  5  1  0  0  0
  4 90  1  0  0  0
  4 91  1  0  0  0
  5  6  1  0  0  0
  5 26  1  0  0  0
  5 92  1  0  0  0
  6 25  1  0  0  0
  6 93  1  0  0  0
  6 94  1  0  0  0
  7  8  2  0  0  0
  7 26  1  0  0  0
  7 29  1  0  0  0
  8  9  1  0  0  0
  8 22  1  0  0  0
  9 10  1  0  0  0
  9 27  2  0  0  0
 10 11  2  0  0  0
 10 15  1  0  0  0
 11 12  1  0  0  0
 11 95  1  0  0  0
 12 13  2  0  0  0
 12 96  1  0  0  0
 13 14  1  0  0  0
 13 31  1  0  0  0
 14 15  2  0  0  0
 14 97  1  0  0  0
 15 98  1  0  0  0
 16 17  2  0  0  0
 16 21  1  0  0  0
 16 31  1  0  0  0
 17 18  1  0  0  0
 17 99  1  0  0  0
 18 19  2  0  0  0
 18100  1  0  0  0
 19 20  1  0  0  0
 19 24  1  0  0  0
 20 21  2  0  0  0
 20101  1  0  0  0
 21 23  1  0  0  0
 22 28  1  0  0  0
 22 32  2  0  0  0
 26 27  1  0  0  0
 28102  1  0  0  0
 28103  1  0  0  0
 29104  1  0  0  0
 29105  1  0  0  0
 33 34  1  0  0  0
 33 66  1  0  0  0
 33 70  2  0  0  0
 34 36  1  0  0  0
 34 59  1  0  0  0
 34106  1  0  0  0
 35 44  2  0  0  0
 35 45  1  0  0  0
 35 68  1  0  0  0
 36 56  1  0  0  0
 36107  1  0  0  0
 37 39  1  0  0  0
 37 47  1  0  0  0
 37 66  1  0  0  0
 37108  1  0  0  0
 38 43  2  0  0  0
 38 46  1  0  0  0
 38 47  1  0  0  0
 39 64  1  0  0  0
 39 67  2  0  0  0
 40 52  1  0  0  0
 40 53  2  0  0  0
 40 58  1  0  0  0
 41109  1  0  0  0
 41110  1  0  0  0
 41111  1  0  0  0
 41 48  1  0  0  0
 42 43  1  0  0  0
 42 66  1  0  0  0
 42112  1  0  0  0
 42113  1  0  0  0
 43 44  1  0  0  0
 44114  1  0  0  0
 45 46  2  0  0  0
 45115  1  0  0  0
 46116  1  0  0  0
 47117  1  0  0  0
 47118  1  0  0  0
 48 56  1  0  0  0
 48 65  1  0  0  0
 48119  1  0  0  0
 49 50  1  0  0  0
 49 53  1  0  0  0
 49 64  1  0  0  0
 49120  1  0  0  0
 50 51  1  0  0  0
 50121  1  0  0  0
 50122  1  0  0  0
 51 52  1  0  0  0
 51123  1  0  0  0
 51124  1  0  0  0
 52125  1  0  0  0
 52126  1  0  0  0
 53 54  1  0  0  0
 54 55  2  0  0  0
 54127  1  0  0  0
 55 57  1  0  0  0
 55128  1  0  0  0
 56 69  2  0  0  0
 57 58  2  0  0  0
 57129  1  0  0  0
 58130  1  0  0  0
 59 60  1  0  0  0
 59 61  1  0  0  0
 59 62  1  0  0  0
 60131  1  0  0  0
 60132  1  0  0  0
 60133  1  0  0  0
 61134  1  0  0  0
 61135  1  0  0  0
 61136  1  0  0  0
 62137  1  0  0  0
 62138  1  0  0  0
 62139  1  0  0  0
 63 65  1  0  0  0
 63140  1  0  0  0
 63141  1  0  0  0
 63142  1  0  0  0
 64143  1  0  0  0
 65144  1  0  0  0
 68 80  1  0  0  0
 71 73  2  0  0  0
 71 74  1  0  0  0
 71145  1  0  0  0
 72 73  1  0  0  0
 72 75  2  0  0  0
 72146  1  0  0  0
 73 77  1  0  0  0
 74 76  2  0  0  0
 74 78  1  0  0  0
 75 76  1  0  0  0
 75 82  1  0  0  0
 76 85  1  0  0  0
 77 83  1  0  0  0
 77 84  2  0  0  0
 78147  1  0  0  0
 78148  1  0  0  0
 78149  1  0  0  0
 79 80  1  0  0  0
 79 81  1  0  0  0
 79150  1  0  0  0
 79151  1  0  0  0
 80152  1  0  0  0
 80153  1  0  0  0
 81 85  1  0  0  0
 81154  1  0  0  0
 81155  1  0  0  0
 82156  1  0  0  0
 82157  1  0  0  0
 83158  1  0  0  0
M  ISO  4   1 100  68 101  80 101  83 100
M  END
> <chiral flag>
0

> <version>
0

> <s_m_source_file>
/data/baiqing/PycharmProjects/Reinvent-master-3.2/result/LINK_invent/BTK/process_docking_weight1_custom_product_contain_oxygen_bond_distance_aromatic_linkinvent_7_9_3/rearranged_h_0104.sdf

> <i_m_source_file_index>
20

> <r_mmod_Potential_Energy-OPLS-2005>
-143.097625732422

> <r_mmod_Stretch_Energy-OPLS-2005>
39.5223960876465

> <r_mmod_Bend_Energy-OPLS-2005>
111.964820861816

> <r_mmod_Torsional_Energy-OPLS-2005>
269.300262451172

> <r_mmod_Improper_Torsional_Energy-OPLS-2005>
9.07757663726807

> <r_mmod_Van_der_Waal_Energy-OPLS-2005>
161.143295288086

> <r_mmod_Electrostatic_Energy-OPLS-2005>
-515.892944335938

> <r_mmod_Solvation_Energy-OPLS-2005>
-233.664154052734

> <b_mmod_Minimization_Converged-OPLS-2005>
0

> <r_mmod_RMS_Derivative-OPLS-2005>
1.82651948928833

$$$$
21
                    3D
 Structure written by MMmdl.
169178  0  0  1  0            999 V2000
  -30.6015  -14.6409   20.6345 C   0  0  0  0  0  0
  -30.4608  -12.4362   19.4473 C   0  0  0  0  0  0
  -29.5295  -12.5469   18.2180 C   0  0  0  0  0  0
  -28.0427  -12.3789   18.6066 C   0  0  0  0  0  0
  -27.6626  -13.1972   19.8694 C   0  0  2  0  0  0
  -28.6949  -12.9348   20.9748 C   0  0  0  0  0  0
  -25.2619  -13.8042   20.5567 C   0  0  0  0  0  0
  -24.1866  -13.0354   20.9107 C   0  0  0  0  0  0
  -24.6371  -11.6824   20.8650 C   0  0  0  0  0  0
  -23.8994  -10.4245   21.0373 C   0  0  0  0  0  0
  -24.3532   -9.4198   21.9203 C   0  0  0  0  0  0
  -23.6234   -8.2220   22.0776 C   0  0  0  0  0  0
  -22.4242   -8.0237   21.3537 C   0  0  0  0  0  0
  -21.9865   -9.0215   20.4623 C   0  0  0  0  0  0
  -22.7173  -10.2096   20.3049 C   0  0  0  0  0  0
  -21.6840   -6.0678   22.5247 C   0  0  0  0  0  0
  -21.3985   -6.5569   23.8174 C   0  0  0  0  0  0
  -21.3686   -5.6720   24.9142 C   0  0  0  0  0  0
  -21.6069   -4.2989   24.7184 C   0  0  0  0  0  0
  -21.8829   -3.8085   23.4289 C   0  0  0  0  0  0
  -21.9191   -4.6913   22.3346 C   0  0  0  0  0  0
  -22.7917  -13.5248   21.1777 C   0  0  0  0  0  0
  -22.1657   -4.2113   21.0915 F   0  0  0  0  0  0
  -21.5700   -3.4475   25.7695 F   0  0  0  0  0  0
  -29.9993  -13.4045   20.4740 N   0  0  0  0  0  0
  -26.3030  -12.9205   20.3221 N   0  0  0  0  0  0
  -25.9303  -11.6358   20.5610 N   0  0  0  0  0  0
  -22.0449  -12.8369   22.0311 N   0  0  0  0  0  0
  -25.4283  -15.1740   20.3945 N   0  0  0  0  0  0
  -31.7152  -14.8263   20.1210 O   0  0  0  0  0  0
  -21.6603   -6.8852   21.4221 O   0  0  0  0  0  0
  -22.3684  -14.5550   20.6539 O   0  0  0  0  0  0
  -24.6271  -31.8647   23.2101 C   0  0  0  0  0  0
  -25.9139  -32.4812   23.8402 C   0  0  1  0  0  0
  -27.1750  -27.3412   20.0892 C   0  0  0  0  0  0
  -25.5980  -33.8595   24.2380 N   0  0  0  0  0  0
  -23.4102  -30.5056   21.5542 C   0  0  2  0  0  0
  -24.8399  -28.9760   20.1107 C   0  0  0  0  0  0
  -22.7459  -29.4693   22.4934 C   0  0  0  0  0  0
  -18.0277  -28.1366   22.8502 C   0  0  0  0  0  0
  -24.1439  -36.7228   23.2633 C   0  0  0  0  0  0
  -25.9504  -30.8206   21.3560 C   0  0  0  0  0  0
  -26.0181  -29.4451   20.7044 C   0  0  0  0  0  0
  -27.1956  -28.6427   20.6768 C   0  0  0  0  0  0
  -25.9675  -26.9270   19.4793 C   0  0  0  0  0  0
  -24.8161  -27.7255   19.4862 C   0  0  0  0  0  0
  -23.6150  -29.8589   20.1634 C   0  0  0  0  0  0
  -25.4062  -36.3089   24.0370 C   0  0  1  0  0  0
  -20.5886  -28.3683   23.1275 C   0  0  2  0  0  0
  -20.6776  -26.9424   22.5367 C   0  0  0  0  0  0
  -19.5744  -26.6389   21.5190 C   0  0  0  0  0  0
  -18.1933  -26.7919   22.1621 C   0  0  0  0  0  0
  -19.1535  -28.8825   23.2912 C   0  0  0  0  0  0
  -18.9445  -30.1420   23.8961 C   0  0  0  0  0  0
  -17.6457  -30.6588   24.0546 C   0  0  0  0  0  0
  -25.9038  -34.9469   23.5155 C   0  0  0  0  0  0
  -16.5351  -29.9096   23.6313 C   0  0  0  0  0  0
  -16.7266  -28.6484   23.0388 C   0  0  0  0  0  0
  -26.4518  -31.6523   25.0696 C   0  0  0  0  0  0
  -25.3729  -31.3469   26.1349 C   0  0  0  0  0  0
  -27.0343  -30.3023   24.5941 C   0  0  0  0  0  0
  -27.6130  -32.4123   25.7517 C   0  0  0  0  0  0
  -27.5533  -37.1790   24.8495 C   0  0  0  0  0  0
  -21.4175  -29.3055   22.3662 N   0  0  0  0  0  0
  -26.4223  -37.3807   23.9470 N   0  0  0  0  0  0
  -24.6853  -31.0761   22.1005 N   0  0  0  0  0  0
  -23.4204  -28.8226   23.2980 O   0  0  0  0  0  0
  -28.2749  -26.4729   20.1068 O   0  0  0  0  0  0
  -26.5587  -34.8930   22.4714 O   0  0  0  0  0  0
  -23.5469  -32.1339   23.7544 O   0  0  0  0  0  0
  -31.0062  -19.2584   20.3937 C   0  0  0  0  0  0
  -28.6122  -19.2461   20.4665 C   0  0  0  0  0  0
  -31.0493  -17.8499   20.5866 C   0  0  0  0  0  0
  -28.6518  -17.8291   20.6860 C   0  0  0  0  0  0
  -29.7973  -20.0242   20.3005 C   0  0  0  0  0  0
  -29.8718  -17.0879   20.7600 C   0  0  0  0  0  0
  -31.9579  -22.8476   20.3761 C   0  0  0  0  0  0
  -28.8561  -22.4492   20.2909 C   0  0  0  0  0  0
  -31.3005  -23.4887   21.6033 C   0  0  0  0  0  0
  -31.0853  -22.0190   19.4124 C   0  0  0  0  0  0
  -30.1618  -24.4730   21.2524 C   0  0  0  0  0  0
  -29.1812  -24.0100   20.1486 C   0  0  2  0  0  0
  -28.7120  -16.5028   24.8714 C   0  0  0  0  0  0
  -27.9775  -25.0211   20.0500 C   0  0  0  0  0  0
  -29.6111  -16.6064   23.6279 C   0  0  0  0  0  0
  -29.2820  -15.5179   22.5727 C   0  0  0  0  0  0
  -29.8406  -21.4950   20.0321 N   0  0  0  0  0  0
  -29.9008  -15.6930   21.2333 N   0  0  0  0  0  0
  -33.1569  -23.0124   20.1554 O   0  0  0  0  0  0
  -27.7230  -22.1386   20.6657 O   0  0  0  0  0  0
  -31.4993  -12.6059   19.1482 H   0  0  0  0  0  0
  -30.4542  -11.4182   19.8419 H   0  0  0  0  0  0
  -29.8146  -11.8047   17.4721 H   0  0  0  0  0  0
  -29.6756  -13.5204   17.7472 H   0  0  0  0  0  0
  -27.8617  -11.3165   18.7883 H   0  0  0  0  0  0
  -27.4059  -12.6580   17.7673 H   0  0  0  0  0  0
  -27.7153  -14.2562   19.6103 H   0  0  0  0  0  0
  -28.7480  -11.8604   21.1728 H   0  0  0  0  0  0
  -28.3668  -13.3379   21.9215 H   0  0  0  0  0  0
  -25.2650   -9.5725   22.4799 H   0  0  0  0  0  0
  -23.9939   -7.4612   22.7516 H   0  0  0  0  0  0
  -21.0830   -8.8698   19.8909 H   0  0  0  0  0  0
  -22.3615  -10.9628   19.6144 H   0  0  0  0  0  0
  -21.1906   -7.6064   23.9674 H   0  0  0  0  0  0
  -21.1550   -6.0428   25.9058 H   0  0  0  0  0  0
  -22.0588   -2.7557   23.2737 H   0  0  0  0  0  0
  -22.3921  -12.0069   22.4850 H   0  0  0  0  0  0
  -21.1063  -13.1585   22.2311 H   0  0  0  0  0  0
  -24.6386  -15.8084   20.4659 H   0  0  0  0  0  0
  -26.2615  -15.6096   20.0220 H   0  0  0  0  0  0
  -26.7211  -32.5520   23.1171 H   0  0  0  0  0  0
  -25.0161  -33.9706   25.0547 H   0  0  0  0  0  0
  -22.7040  -31.3299   21.4324 H   0  0  0  0  0  0
  -23.3782  -35.9479   23.3250 H   0  0  0  0  0  0
  -24.3540  -36.8864   22.2051 H   0  0  0  0  0  0
  -23.7055  -37.6375   23.6637 H   0  0  0  0  0  0
  -26.0425  -31.5754   20.5725 H   0  0  0  0  0  0
  -26.8511  -30.8943   21.9551 H   0  0  0  0  0  0
  -28.1100  -29.0071   21.1253 H   0  0  0  0  0  0
  -25.8483  -25.9783   18.9868 H   0  0  0  0  0  0
  -23.9117  -27.3694   19.0139 H   0  0  0  0  0  0
  -23.7419  -30.6423   19.4145 H   0  0  0  0  0  0
  -22.7273  -29.3004   19.8605 H   0  0  0  0  0  0
  -25.1212  -36.1937   25.0861 H   0  0  0  0  0  0
  -21.0044  -28.3251   24.1370 H   0  0  0  0  0  0
  -20.5717  -26.2310   23.3560 H   0  0  0  0  0  0
  -21.6642  -26.7458   22.1148 H   0  0  0  0  0  0
  -19.6916  -25.6294   21.1241 H   0  0  0  0  0  0
  -19.6693  -27.3188   20.6706 H   0  0  0  0  0  0
  -17.4204  -26.6686   21.4014 H   0  0  0  0  0  0
  -18.0361  -26.0036   22.9002 H   0  0  0  0  0  0
  -19.7904  -30.7188   24.2457 H   0  0  0  0  0  0
  -17.4997  -31.6295   24.5107 H   0  0  0  0  0  0
  -15.5344  -30.3023   23.7567 H   0  0  0  0  0  0
  -15.8672  -28.0794   22.7140 H   0  0  0  0  0  0
  -24.6130  -30.6619   25.7561 H   0  0  0  0  0  0
  -24.8626  -32.2504   26.4688 H   0  0  0  0  0  0
  -25.8038  -30.8700   27.0161 H   0  0  0  0  0  0
  -26.2829  -29.6791   24.1086 H   0  0  0  0  0  0
  -27.4303  -29.7217   25.4275 H   0  0  0  0  0  0
  -27.8587  -30.4421   23.8948 H   0  0  0  0  0  0
  -27.2906  -33.3503   26.2036 H   0  0  0  0  0  0
  -28.4052  -32.6459   25.0396 H   0  0  0  0  0  0
  -28.0667  -31.8191   26.5469 H   0  0  0  0  0  0
  -28.2533  -38.0113   24.7618 H   0  0  0  0  0  0
  -28.1039  -36.2646   24.6222 H   0  0  0  0  0  0
  -27.2274  -37.1315   25.8905 H   0  0  0  0  0  0
  -20.9353  -29.8728   21.6836 H   0  0  0  0  0  0
  -26.0100  -38.2868   24.1554 H   0  0  0  0  0  0
  -31.9732  -19.7344   20.3512 H   0  0  0  0  0  0
  -27.6385  -19.7099   20.4357 H   0  0  0  0  0  0
  -32.0167  -17.3723   20.6791 H   0  0  0  0  0  0
  -27.7091  -17.3234   20.8366 H   0  0  0  0  0  0
  -32.0633  -23.9826   22.2093 H   0  0  0  0  0  0
  -30.9086  -22.6854   22.2275 H   0  0  0  0  0  0
  -31.7007  -21.2338   18.9824 H   0  0  0  0  0  0
  -30.8593  -22.6147   18.5299 H   0  0  0  0  0  0
  -30.6054  -25.4221   20.9454 H   0  0  0  0  0  0
  -29.5966  -24.6926   22.1607 H   0  0  0  0  0  0
  -29.6616  -24.1667   19.1868 H   0  0  0  0  0  0
  -29.1155  -17.0833   25.7036 H   0  0  0  0  0  0
  -28.5873  -15.4757   25.2174 H   0  0  0  0  0  0
  -27.7177  -16.8983   24.6546 H   0  0  0  0  0  0
  -27.2399  -24.7901   20.8206 H   0  0  0  0  0  0
  -27.5000  -24.7860   19.0996 H   0  0  0  0  0  0
  -30.6606  -16.5136   23.9104 H   0  0  0  0  0  0
  -29.4957  -17.6166   23.2414 H   0  0  0  0  0  0
  -28.2006  -15.4616   22.4385 H   0  0  0  0  0  0
  -29.6106  -14.5812   23.0271 H   0  0  0  0  0  0
  1 25  1  0  0  0
  1 30  2  0  0  0
  1 88  1  0  0  0
  2  3  1  0  0  0
  2 25  1  0  0  0
  2 91  1  0  0  0
  2 92  1  0  0  0
  3  4  1  0  0  0
  3 93  1  0  0  0
  3 94  1  0  0  0
  4  5  1  0  0  0
  4 95  1  0  0  0
  4 96  1  0  0  0
  5  6  1  0  0  0
  5 26  1  0  0  0
  5 97  1  0  0  0
  6 25  1  0  0  0
  6 98  1  0  0  0
  6 99  1  0  0  0
  7  8  2  0  0  0
  7 26  1  0  0  0
  7 29  1  0  0  0
  8  9  1  0  0  0
  8 22  1  0  0  0
  9 10  1  0  0  0
  9 27  2  0  0  0
 10 11  2  0  0  0
 10 15  1  0  0  0
 11 12  1  0  0  0
 11100  1  0  0  0
 12 13  2  0  0  0
 12101  1  0  0  0
 13 14  1  0  0  0
 13 31  1  0  0  0
 14 15  2  0  0  0
 14102  1  0  0  0
 15103  1  0  0  0
 16 17  2  0  0  0
 16 21  1  0  0  0
 16 31  1  0  0  0
 17 18  1  0  0  0
 17104  1  0  0  0
 18 19  2  0  0  0
 18105  1  0  0  0
 19 20  1  0  0  0
 19 24  1  0  0  0
 20 21  2  0  0  0
 20106  1  0  0  0
 21 23  1  0  0  0
 22 28  1  0  0  0
 22 32  2  0  0  0
 26 27  1  0  0  0
 28107  1  0  0  0
 28108  1  0  0  0
 29109  1  0  0  0
 29110  1  0  0  0
 33 34  1  0  0  0
 33 66  1  0  0  0
 33 70  2  0  0  0
 34 36  1  0  0  0
 34 59  1  0  0  0
 34111  1  0  0  0
 35 44  2  0  0  0
 35 45  1  0  0  0
 35 68  1  0  0  0
 36 56  1  0  0  0
 36112  1  0  0  0
 37 39  1  0  0  0
 37 47  1  0  0  0
 37 66  1  0  0  0
 37113  1  0  0  0
 38 43  2  0  0  0
 38 46  1  0  0  0
 38 47  1  0  0  0
 39 64  1  0  0  0
 39 67  2  0  0  0
 40 52  1  0  0  0
 40 53  2  0  0  0
 40 58  1  0  0  0
 41114  1  0  0  0
 41115  1  0  0  0
 41116  1  0  0  0
 41 48  1  0  0  0
 42 43  1  0  0  0
 42 66  1  0  0  0
 42117  1  0  0  0
 42118  1  0  0  0
 43 44  1  0  0  0
 44119  1  0  0  0
 45 46  2  0  0  0
 45120  1  0  0  0
 46121  1  0  0  0
 47122  1  0  0  0
 47123  1  0  0  0
 48 56  1  0  0  0
 48 65  1  0  0  0
 48124  1  0  0  0
 49 50  1  0  0  0
 49 53  1  0  0  0
 49 64  1  0  0  0
 49125  1  0  0  0
 50 51  1  0  0  0
 50126  1  0  0  0
 50127  1  0  0  0
 51 52  1  0  0  0
 51128  1  0  0  0
 51129  1  0  0  0
 52130  1  0  0  0
 52131  1  0  0  0
 53 54  1  0  0  0
 54 55  2  0  0  0
 54132  1  0  0  0
 55 57  1  0  0  0
 55133  1  0  0  0
 56 69  2  0  0  0
 57 58  2  0  0  0
 57134  1  0  0  0
 58135  1  0  0  0
 59 60  1  0  0  0
 59 61  1  0  0  0
 59 62  1  0  0  0
 60136  1  0  0  0
 60137  1  0  0  0
 60138  1  0  0  0
 61139  1  0  0  0
 61140  1  0  0  0
 61141  1  0  0  0
 62142  1  0  0  0
 62143  1  0  0  0
 62144  1  0  0  0
 63 65  1  0  0  0
 63145  1  0  0  0
 63146  1  0  0  0
 63147  1  0  0  0
 64148  1  0  0  0
 65149  1  0  0  0
 68 84  1  0  0  0
 71 73  2  0  0  0
 71 75  1  0  0  0
 71150  1  0  0  0
 72 74  1  0  0  0
 72 75  2  0  0  0
 72151  1  0  0  0
 73 76  1  0  0  0
 73152  1  0  0  0
 74 76  2  0  0  0
 74153  1  0  0  0
 75 87  1  0  0  0
 76 88  1  0  0  0
 77 79  1  0  0  0
 77 80  1  0  0  0
 77 89  2  0  0  0
 78 82  1  0  0  0
 78 87  1  0  0  0
 78 90  2  0  0  0
 79 81  1  0  0  0
 79154  1  0  0  0
 79155  1  0  0  0
 80 87  1  0  0  0
 80156  1  0  0  0
 80157  1  0  0  0
 81 82  1  0  0  0
 81158  1  0  0  0
 81159  1  0  0  0
 82 84  1  0  0  0
 82160  1  0  0  0
 83 85  1  0  0  0
 83161  1  0  0  0
 83162  1  0  0  0
 83163  1  0  0  0
 84164  1  0  0  0
 84165  1  0  0  0
 85 86  1  0  0  0
 85166  1  0  0  0
 85167  1  0  0  0
 86 88  1  0  0  0
 86168  1  0  0  0
 86169  1  0  0  0
M  ISO  4   1 100  68 101  84 101  88 100
M  END
> <chiral flag>
0

> <version>
0

> <s_m_source_file>
/data/baiqing/PycharmProjects/Reinvent-master-3.2/result/LINK_invent/BTK/process_docking_weight1_custom_product_contain_oxygen_bond_distance_aromatic_linkinvent_7_9_3/rearranged_h_0104.sdf

> <i_m_source_file_index>
21

> <r_mmod_Potential_Energy-OPLS-2005>
347.079620361328

> <r_mmod_Stretch_Energy-OPLS-2005>
108.586235046387

> <r_mmod_Bend_Energy-OPLS-2005>
165.12841796875

> <r_mmod_Torsional_Energy-OPLS-2005>
345.017730712891

> <r_mmod_Improper_Torsional_Energy-OPLS-2005>
5.31916189193726

> <r_mmod_Van_der_Waal_Energy-OPLS-2005>
195.28840637207

> <r_mmod_Electrostatic_Energy-OPLS-2005>
-308.507904052734

> <r_mmod_Solvation_Energy-OPLS-2005>
-210.981094360352

> <b_mmod_Minimization_Converged-OPLS-2005>
0

> <r_mmod_RMS_Derivative-OPLS-2005>
6.64162015914917

$$$$
22
                    3D
 Structure written by MMmdl.
171179  0  0  1  0            999 V2000
  -30.5061  -15.0489   20.4058 C   0  0  0  0  0  0
  -30.4317  -12.6556   19.5189 C   0  0  0  0  0  0
  -29.5231  -12.5420   18.2699 C   0  0  0  0  0  0
  -28.0573  -12.3196   18.6857 C   0  0  0  0  0  0
  -27.6203  -13.2620   19.8363 C   0  0  2  0  0  0
  -28.6568  -13.3420   20.9796 C   0  0  0  0  0  0
  -25.2411  -13.8251   20.5744 C   0  0  0  0  0  0
  -24.1753  -13.0457   20.9277 C   0  0  0  0  0  0
  -24.6393  -11.6947   20.8782 C   0  0  0  0  0  0
  -23.9098  -10.4304   21.0424 C   0  0  0  0  0  0
  -24.3643   -9.4211   21.9197 C   0  0  0  0  0  0
  -23.6309   -8.2249   22.0757 C   0  0  0  0  0  0
  -22.4289   -8.0297   21.3548 C   0  0  0  0  0  0
  -21.9930   -9.0280   20.4656 C   0  0  0  0  0  0
  -22.7272  -10.2155   20.3072 C   0  0  0  0  0  0
  -21.6859   -6.0748   22.5281 C   0  0  0  0  0  0
  -21.4017   -6.5646   23.8218 C   0  0  0  0  0  0
  -21.3656   -5.6794   24.9179 C   0  0  0  0  0  0
  -21.6043   -4.3055   24.7226 C   0  0  0  0  0  0
  -21.8819   -3.8152   23.4347 C   0  0  0  0  0  0
  -21.9195   -4.6974   22.3408 C   0  0  0  0  0  0
  -22.7773  -13.5211   21.1926 C   0  0  0  0  0  0
  -22.1664   -4.2161   21.0984 F   0  0  0  0  0  0
  -21.5624   -3.4540   25.7740 F   0  0  0  0  0  0
  -29.9213  -13.7757   20.3742 N   0  0  0  0  0  0
  -26.2837  -12.9498   20.3244 N   0  0  0  0  0  0
  -25.9324  -11.6614   20.5765 N   0  0  0  0  0  0
  -22.0434  -12.8186   22.0473 N   0  0  0  0  0  0
  -25.3999  -15.1996   20.4166 N   0  0  0  0  0  0
  -31.7033  -15.0679   20.0990 O   0  0  0  0  0  0
  -21.6652   -6.8899   21.4240 O   0  0  0  0  0  0
  -22.3463  -14.5521   20.6784 O   0  0  0  0  0  0
  -24.6486  -31.8357   23.1810 C   0  0  0  0  0  0
  -25.9218  -32.4658   23.8241 C   0  0  1  0  0  0
  -27.2161  -27.0572   20.1608 C   0  0  0  0  0  0
  -25.5937  -33.8478   24.2160 N   0  0  0  0  0  0
  -23.4603  -30.4539   21.5230 C   0  0  2  0  0  0
  -24.9117  -28.8654   20.1084 C   0  0  0  0  0  0
  -22.7634  -29.4488   22.4778 C   0  0  0  0  0  0
  -18.0325  -28.1401   22.8481 C   0  0  0  0  0  0
  -24.1492  -36.7252   23.2649 C   0  0  0  0  0  0
  -26.0229  -30.6845   21.3941 C   0  0  0  0  0  0
  -26.0904  -29.2880   20.7344 C   0  0  0  0  0  0
  -27.2388  -28.3980   20.7484 C   0  0  0  0  0  0
  -26.0123  -26.7593   19.4861 C   0  0  0  0  0  0
  -24.8857  -27.6143   19.4721 C   0  0  0  0  0  0
  -23.6969  -29.7854   20.1432 C   0  0  0  0  0  0
  -25.4107  -36.3020   24.0333 C   0  0  1  0  0  0
  -20.5937  -28.3754   23.1197 C   0  0  2  0  0  0
  -20.6828  -26.9439   22.5408 C   0  0  0  0  0  0
  -19.5790  -26.6379   21.5233 C   0  0  0  0  0  0
  -18.1957  -26.7934   22.1623 C   0  0  0  0  0  0
  -19.1574  -28.8889   23.2855 C   0  0  0  0  0  0
  -18.9501  -30.1482   23.8895 C   0  0  0  0  0  0
  -17.6494  -30.6604   24.0553 C   0  0  0  0  0  0
  -25.9073  -34.9392   23.5059 C   0  0  0  0  0  0
  -16.5391  -29.9086   23.6328 C   0  0  0  0  0  0
  -16.7308  -28.6500   23.0355 C   0  0  0  0  0  0
  -26.4498  -31.6563   25.0733 C   0  0  0  0  0  0
  -25.3648  -31.3809   26.1427 C   0  0  0  0  0  0
  -27.0348  -30.2915   24.6389 C   0  0  0  0  0  0
  -27.6041  -32.4345   25.7468 C   0  0  0  0  0  0
  -27.5568  -37.1771   24.8448 C   0  0  0  0  0  0
  -21.4306  -29.3054   22.3564 N   0  0  0  0  0  0
  -26.4274  -37.3732   23.9414 N   0  0  0  0  0  0
  -24.7310  -31.0141   22.0871 N   0  0  0  0  0  0
  -23.4238  -28.8055   23.2983 O   0  0  0  0  0  0
  -28.2509  -26.0316   20.2693 O   0  0  0  0  0  0
  -26.5682  -34.8874   22.4647 O   0  0  0  0  0  0
  -23.5571  -32.1246   23.6960 O   0  0  0  0  0  0
  -27.9126  -18.1663   21.9310 C   0  0  0  0  0  0
  -26.3685  -19.9293   22.4106 C   0  0  0  0  0  0
  -28.6716  -18.9209   20.9973 C   0  0  0  0  0  0
  -28.2585  -20.4112   20.8465 C   0  0  0  0  0  0
  -26.8171  -18.6297   22.6539 C   0  0  0  0  0  0
  -27.0404  -20.7853   21.5139 C   0  0  0  0  0  0
  -28.7224  -23.3955   20.4675 C   0  0  0  0  0  0
  -28.1509  -24.5894   19.8993 C   0  0  0  0  0  0
  -25.1027  -18.1950   24.2905 C   0  0  0  0  0  0
  -25.2992  -22.4690   21.8667 C   0  0  0  0  0  0
  -28.8146  -21.7582   20.0264 C   0  0  0  0  0  0
  -32.3982  -17.6267   21.3958 C   0  0  0  0  0  0
  -31.1162  -18.4548   21.2435 C   0  0  0  0  0  0
  -33.5095  -18.4028   22.1286 C   0  0  0  0  0  0
  -29.8795  -17.8850   20.4875 C   0  0  1  0  0  0
  -29.7357  -16.2596   20.5962 N   0  0  0  0  0  0
  -34.6351  -17.5404   22.5278 N   0  3  0  0  0  0
  -26.2433  -17.7585   23.5579 O   0  0  0  0  0  0
  -26.5083  -22.0361   21.2472 O   0  0  0  0  0  0
  -31.4621  -12.8185   19.2014 H   0  0  0  0  0  0
  -30.4405  -11.7183   20.0783 H   0  0  0  0  0  0
  -29.8576  -11.7221   17.6311 H   0  0  0  0  0  0
  -29.6026  -13.4509   17.6720 H   0  0  0  0  0  0
  -27.9614  -11.2802   19.0059 H   0  0  0  0  0  0
  -27.3954  -12.4407   17.8250 H   0  0  0  0  0  0
  -27.5670  -14.2561   19.3881 H   0  0  0  0  0  0
  -28.7657  -12.3896   21.4978 H   0  0  0  0  0  0
  -28.3371  -14.0685   21.7280 H   0  0  0  0  0  0
  -25.2783   -9.5696   22.4780 H   0  0  0  0  0  0
  -24.0023   -7.4646   22.7470 H   0  0  0  0  0  0
  -21.0858   -8.8821   19.8959 H   0  0  0  0  0  0
  -22.3733  -10.9712   19.6198 H   0  0  0  0  0  0
  -21.2008   -7.6154   23.9731 H   0  0  0  0  0  0
  -21.1467   -6.0521   25.9086 H   0  0  0  0  0  0
  -22.0593   -2.7616   23.2850 H   0  0  0  0  0  0
  -22.4042  -11.9851   22.4857 H   0  0  0  0  0  0
  -21.1066  -13.1204   22.2693 H   0  0  0  0  0  0
  -24.6219  -15.8372   20.5473 H   0  0  0  0  0  0
  -26.2258  -15.6555   20.0535 H   0  0  0  0  0  0
  -26.7329  -32.5236   23.1009 H   0  0  0  0  0  0
  -25.0080  -33.9615   25.0299 H   0  0  0  0  0  0
  -22.7663  -31.2832   21.3645 H   0  0  0  0  0  0
  -23.3780  -35.9565   23.3254 H   0  0  0  0  0  0
  -24.3615  -36.8922   22.2080 H   0  0  0  0  0  0
  -23.7216  -37.6413   23.6724 H   0  0  0  0  0  0
  -26.1936  -31.4380   20.6237 H   0  0  0  0  0  0
  -26.8882  -30.7340   22.0443 H   0  0  0  0  0  0
  -28.1371  -28.7096   21.2630 H   0  0  0  0  0  0
  -25.8993  -25.8054   18.9966 H   0  0  0  0  0  0
  -23.9822  -27.2813   18.9787 H   0  0  0  0  0  0
  -23.8578  -30.5659   19.3950 H   0  0  0  0  0  0
  -22.8083  -29.2448   19.8193 H   0  0  0  0  0  0
  -25.1293  -36.1848   25.0838 H   0  0  0  0  0  0
  -21.0075  -28.3368   24.1295 H   0  0  0  0  0  0
  -20.5721  -26.2376   23.3643 H   0  0  0  0  0  0
  -21.6678  -26.7413   22.1183 H   0  0  0  0  0  0
  -19.6927  -25.6281   21.1283 H   0  0  0  0  0  0
  -19.6701  -27.3192   20.6757 H   0  0  0  0  0  0
  -17.4224  -26.6728   21.4025 H   0  0  0  0  0  0
  -18.0301  -26.0076   22.9016 H   0  0  0  0  0  0
  -19.7989  -30.7312   24.2249 H   0  0  0  0  0  0
  -17.5036  -31.6266   24.5201 H   0  0  0  0  0  0
  -15.5384  -30.2988   23.7627 H   0  0  0  0  0  0
  -15.8717  -28.0821   22.7046 H   0  0  0  0  0  0
  -24.5889  -30.7063   25.7760 H   0  0  0  0  0  0
  -24.8776  -32.3021   26.4671 H   0  0  0  0  0  0
  -25.7930  -30.9130   27.0309 H   0  0  0  0  0  0
  -26.2964  -29.6639   24.1395 H   0  0  0  0  0  0
  -27.3867  -29.7229   25.5011 H   0  0  0  0  0  0
  -27.8918  -30.4073   23.9751 H   0  0  0  0  0  0
  -27.2674  -33.3716   26.1908 H   0  0  0  0  0  0
  -28.3886  -32.6794   25.0298 H   0  0  0  0  0  0
  -28.0670  -31.8566   26.5477 H   0  0  0  0  0  0
  -28.2548  -38.0095   24.7541 H   0  0  0  0  0  0
  -28.1116  -36.2651   24.6226 H   0  0  0  0  0  0
  -27.2345  -37.1331   25.8861 H   0  0  0  0  0  0
  -20.9516  -29.8774   21.6755 H   0  0  0  0  0  0
  -26.0146  -38.2789   24.1456 H   0  0  0  0  0  0
  -28.1891  -17.1546   22.1746 H   0  0  0  0  0  0
  -25.4903  -20.2714   22.9278 H   0  0  0  0  0  0
  -29.2805  -23.5651   21.3760 H   0  0  0  0  0  0
  -27.5776  -24.4877   18.9897 H   0  0  0  0  0  0
  -24.8010  -17.4205   24.9957 H   0  0  0  0  0  0
  -24.2571  -18.3794   23.6264 H   0  0  0  0  0  0
  -25.3046  -19.0952   24.8764 H   0  0  0  0  0  0
  -25.0290  -23.4489   21.4722 H   0  0  0  0  0  0
  -25.4204  -22.5781   22.9450 H   0  0  0  0  0  0
  -24.4644  -21.7970   21.6591 H   0  0  0  0  0  0
  -28.3231  -21.7048   19.0529 H   0  0  0  0  0  0
  -29.8662  -21.5591   19.8148 H   0  0  0  0  0  0
  -32.7621  -17.3173   20.4165 H   0  0  0  0  0  0
  -32.1643  -16.7356   21.9759 H   0  0  0  0  0  0
  -31.3640  -19.4177   20.7959 H   0  0  0  0  0  0
  -30.8004  -18.6902   22.2598 H   0  0  0  0  0  0
  -33.1128  -18.8739   23.0278 H   0  0  0  0  0  0
  -33.8831  -19.2088   21.4973 H   0  0  0  0  0  0
  -30.0222  -18.0782   19.4231 H   0  0  0  0  0  0
  -28.7735  -16.0098   20.7657 H   0  0  0  0  0  0
  -34.3169  -16.7739   23.0916 H   0  0  0  0  0  0
  -35.2945  -18.0681   23.0722 H   0  0  0  0  0  0
  -35.1174  -17.1721   21.7293 H   0  0  0  0  0  0
  1 25  1  0  0  0
  1 30  2  0  0  0
  1 86  1  0  0  0
  2  3  1  0  0  0
  2 25  1  0  0  0
  2 90  1  0  0  0
  2 91  1  0  0  0
  3  4  1  0  0  0
  3 92  1  0  0  0
  3 93  1  0  0  0
  4  5  1  0  0  0
  4 94  1  0  0  0
  4 95  1  0  0  0
  5  6  1  0  0  0
  5 26  1  0  0  0
  5 96  1  0  0  0
  6 25  1  0  0  0
  6 97  1  0  0  0
  6 98  1  0  0  0
  7  8  2  0  0  0
  7 26  1  0  0  0
  7 29  1  0  0  0
  8  9  1  0  0  0
  8 22  1  0  0  0
  9 10  1  0  0  0
  9 27  2  0  0  0
 10 11  2  0  0  0
 10 15  1  0  0  0
 11 12  1  0  0  0
 11 99  1  0  0  0
 12 13  2  0  0  0
 12100  1  0  0  0
 13 14  1  0  0  0
 13 31  1  0  0  0
 14 15  2  0  0  0
 14101  1  0  0  0
 15102  1  0  0  0
 16 17  2  0  0  0
 16 21  1  0  0  0
 16 31  1  0  0  0
 17 18  1  0  0  0
 17103  1  0  0  0
 18 19  2  0  0  0
 18104  1  0  0  0
 19 20  1  0  0  0
 19 24  1  0  0  0
 20 21  2  0  0  0
 20105  1  0  0  0
 21 23  1  0  0  0
 22 28  1  0  0  0
 22 32  2  0  0  0
 26 27  1  0  0  0
 28106  1  0  0  0
 28107  1  0  0  0
 29108  1  0  0  0
 29109  1  0  0  0
 33 34  1  0  0  0
 33 66  1  0  0  0
 33 70  2  0  0  0
 34 36  1  0  0  0
 34 59  1  0  0  0
 34110  1  0  0  0
 35 44  2  0  0  0
 35 45  1  0  0  0
 35 68  1  0  0  0
 36 56  1  0  0  0
 36111  1  0  0  0
 37 39  1  0  0  0
 37 47  1  0  0  0
 37 66  1  0  0  0
 37112  1  0  0  0
 38 43  2  0  0  0
 38 46  1  0  0  0
 38 47  1  0  0  0
 39 64  1  0  0  0
 39 67  2  0  0  0
 40 52  1  0  0  0
 40 53  2  0  0  0
 40 58  1  0  0  0
 41113  1  0  0  0
 41114  1  0  0  0
 41115  1  0  0  0
 41 48  1  0  0  0
 42 43  1  0  0  0
 42 66  1  0  0  0
 42116  1  0  0  0
 42117  1  0  0  0
 43 44  1  0  0  0
 44118  1  0  0  0
 45 46  2  0  0  0
 45119  1  0  0  0
 46120  1  0  0  0
 47121  1  0  0  0
 47122  1  0  0  0
 48 56  1  0  0  0
 48 65  1  0  0  0
 48123  1  0  0  0
 49 50  1  0  0  0
 49 53  1  0  0  0
 49 64  1  0  0  0
 49124  1  0  0  0
 50 51  1  0  0  0
 50125  1  0  0  0
 50126  1  0  0  0
 51 52  1  0  0  0
 51127  1  0  0  0
 51128  1  0  0  0
 52129  1  0  0  0
 52130  1  0  0  0
 53 54  1  0  0  0
 54 55  2  0  0  0
 54131  1  0  0  0
 55 57  1  0  0  0
 55132  1  0  0  0
 56 69  2  0  0  0
 57 58  2  0  0  0
 57133  1  0  0  0
 58134  1  0  0  0
 59 60  1  0  0  0
 59 61  1  0  0  0
 59 62  1  0  0  0
 60135  1  0  0  0
 60136  1  0  0  0
 60137  1  0  0  0
 61138  1  0  0  0
 61139  1  0  0  0
 61140  1  0  0  0
 62141  1  0  0  0
 62142  1  0  0  0
 62143  1  0  0  0
 63 65  1  0  0  0
 63144  1  0  0  0
 63145  1  0  0  0
 63146  1  0  0  0
 64147  1  0  0  0
 65148  1  0  0  0
 68 78  1  0  0  0
 71 73  2  0  0  0
 71 75  1  0  0  0
 71149  1  0  0  0
 72 75  2  0  0  0
 72 76  1  0  0  0
 72150  1  0  0  0
 73 74  1  0  0  0
 73 85  1  0  0  0
 74 76  2  0  0  0
 74 81  1  0  0  0
 75 88  1  0  0  0
 76 89  1  0  0  0
 77 78  2  0  0  0
 77 81  1  0  0  0
 77151  1  0  0  0
 78152  1  0  0  0
 79 88  1  0  0  0
 79153  1  0  0  0
 79154  1  0  0  0
 79155  1  0  0  0
 80 89  1  0  0  0
 80156  1  0  0  0
 80157  1  0  0  0
 80158  1  0  0  0
 81159  1  0  0  0
 81160  1  0  0  0
 82 83  1  0  0  0
 82 84  1  0  0  0
 82161  1  0  0  0
 82162  1  0  0  0
 83163  1  0  0  0
 83164  1  0  0  0
 83 85  1  0  0  0
 84 87  1  0  0  0
 84165  1  0  0  0
 84166  1  0  0  0
 85 86  1  0  0  0
 85167  1  0  0  0
 86168  1  0  0  0
 87169  1  0  0  0
 87170  1  0  0  0
 87171  1  0  0  0
M  CHG  1  87   1
M  ISO  4   1 100  68 101  78 101  86 100
M  END
> <chiral flag>
0

> <version>
0

> <s_m_source_file>
/data/baiqing/PycharmProjects/Reinvent-master-3.2/result/LINK_invent/BTK/process_docking_weight1_custom_product_contain_oxygen_bond_distance_aromatic_linkinvent_7_9_3/rearranged_h_0104.sdf

> <i_m_source_file_index>
22

> <r_mmod_Potential_Energy-OPLS-2005>
528.929443359375

> <r_mmod_Stretch_Energy-OPLS-2005>
377.255249023438

> <r_mmod_Bend_Energy-OPLS-2005>
381.318572998047

> <r_mmod_Torsional_Energy-OPLS-2005>
217.806655883789

> <r_mmod_Improper_Torsional_Energy-OPLS-2005>
5.46756029129028

> <r_mmod_Van_der_Waal_Energy-OPLS-2005>
158.873809814453

> <r_mmod_Electrostatic_Energy-OPLS-2005>
-406.221130371094

> <r_mmod_Solvation_Energy-OPLS-2005>
-475.800323486328

> <b_mmod_Minimization_Converged-OPLS-2005>
0

> <r_mmod_RMS_Derivative-OPLS-2005>
4.32747650146484

$$$$
23
                    3D
 Structure written by MMmdl.
176184  0  0  1  0            999 V2000
  -30.7280  -14.4986   20.5716 C   0  0  0  0  0  0
  -30.4116  -12.3298   19.4237 C   0  0  0  0  0  0
  -29.4884  -12.5042   18.2026 C   0  0  0  0  0  0
  -28.0126  -12.3464   18.6188 C   0  0  0  0  0  0
  -27.6485  -13.2020   19.8602 C   0  0  2  0  0  0
  -28.6951  -13.0369   20.9874 C   0  0  0  0  0  0
  -25.2545  -13.8129   20.5685 C   0  0  0  0  0  0
  -24.1801  -13.0421   20.9213 C   0  0  0  0  0  0
  -24.6358  -11.6882   20.8754 C   0  0  0  0  0  0
  -23.9014  -10.4285   21.0417 C   0  0  0  0  0  0
  -24.3580   -9.4204   21.9185 C   0  0  0  0  0  0
  -23.6288   -8.2221   22.0740 C   0  0  0  0  0  0
  -22.4271   -8.0255   21.3531 C   0  0  0  0  0  0
  -21.9892   -9.0220   20.4632 C   0  0  0  0  0  0
  -22.7196  -10.2117   20.3052 C   0  0  0  0  0  0
  -21.6838   -6.0719   22.5283 C   0  0  0  0  0  0
  -21.3999   -6.5624   23.8220 C   0  0  0  0  0  0
  -21.3663   -5.6782   24.9178 C   0  0  0  0  0  0
  -21.6054   -4.3044   24.7223 C   0  0  0  0  0  0
  -21.8821   -3.8130   23.4342 C   0  0  0  0  0  0
  -21.9187   -4.6950   22.3398 C   0  0  0  0  0  0
  -22.7828  -13.5229   21.1865 C   0  0  0  0  0  0
  -22.1665   -4.2138   21.0973 F   0  0  0  0  0  0
  -21.5635   -3.4533   25.7738 F   0  0  0  0  0  0
  -30.0231  -13.3381   20.4263 N   0  0  0  0  0  0
  -26.2950  -12.9274   20.3287 N   0  0  0  0  0  0
  -25.9266  -11.6447   20.5739 N   0  0  0  0  0  0
  -22.0450  -12.8234   22.0419 N   0  0  0  0  0  0
  -25.4251  -15.1852   20.4070 N   0  0  0  0  0  0
  -31.8628  -14.6361   20.1035 O   0  0  0  0  0  0
  -21.6616   -6.8866   21.4244 O   0  0  0  0  0  0
  -22.3527  -14.5530   20.6702 O   0  0  0  0  0  0
  -24.6160  -31.8670   23.2103 C   0  0  0  0  0  0
  -25.9052  -32.4813   23.8399 C   0  0  1  0  0  0
  -27.2372  -27.4215   20.0858 C   0  0  0  0  0  0
  -25.5906  -33.8613   24.2322 N   0  0  0  0  0  0
  -23.4039  -30.4911   21.5517 C   0  0  2  0  0  0
  -24.8497  -28.9556   20.1152 C   0  0  0  0  0  0
  -22.7415  -29.4651   22.4995 C   0  0  0  0  0  0
  -18.0268  -28.1377   22.8482 C   0  0  0  0  0  0
  -24.1486  -36.7308   23.2641 C   0  0  0  0  0  0
  -25.9356  -30.8272   21.3662 C   0  0  0  0  0  0
  -26.0123  -29.4615   20.7093 C   0  0  0  0  0  0
  -27.2084  -28.7039   20.6881 C   0  0  0  0  0  0
  -26.0509  -26.9359   19.4851 C   0  0  0  0  0  0
  -24.8654  -27.6927   19.4996 C   0  0  0  0  0  0
  -23.6125  -29.8241   20.1662 C   0  0  0  0  0  0
  -25.4110  -36.3112   24.0337 C   0  0  1  0  0  0
  -20.5859  -28.3665   23.1322 C   0  0  2  0  0  0
  -20.6765  -26.9402   22.5425 C   0  0  0  0  0  0
  -19.5752  -26.6383   21.5215 C   0  0  0  0  0  0
  -18.1923  -26.7926   22.1614 C   0  0  0  0  0  0
  -19.1515  -28.8836   23.2900 C   0  0  0  0  0  0
  -18.9447  -30.1442   23.8910 C   0  0  0  0  0  0
  -17.6451  -30.6585   24.0562 C   0  0  0  0  0  0
  -25.9038  -34.9473   23.5126 C   0  0  0  0  0  0
  -16.5339  -29.9087   23.6323 C   0  0  0  0  0  0
  -16.7258  -28.6501   23.0346 C   0  0  0  0  0  0
  -26.4477  -31.6591   25.0723 C   0  0  0  0  0  0
  -25.3748  -31.3700   26.1481 C   0  0  0  0  0  0
  -27.0294  -30.3025   24.6108 C   0  0  0  0  0  0
  -27.6064  -32.4308   25.7478 C   0  0  0  0  0  0
  -27.5585  -37.1811   24.8463 C   0  0  0  0  0  0
  -21.4145  -29.3026   22.3732 N   0  0  0  0  0  0
  -26.4294  -37.3799   23.9413 N   0  0  0  0  0  0
  -24.6702  -31.0752   22.1011 N   0  0  0  0  0  0
  -23.4182  -28.8198   23.3047 O   0  0  0  0  0  0
  -28.4090  -26.6823   20.0967 O   0  0  0  0  0  0
  -26.5599  -34.8929   22.4690 O   0  0  0  0  0  0
  -23.5354  -32.1431   23.7489 O   0  0  0  0  0  0
  -29.6912  -18.4828   19.3494 C   0  0  0  0  0  0
  -28.8915  -18.7181   21.6188 C   0  0  0  0  0  0
  -29.2735  -17.8763   20.5511 C   0  0  0  0  0  0
  -29.6817  -19.8896   19.1994 C   0  0  0  0  0  0
  -28.8774  -20.1336   21.4883 C   0  0  0  0  0  0
  -29.2821  -20.7426   20.2613 C   0  0  0  0  0  0
  -29.1815  -21.2133   15.5602 C   0  0  0  0  0  0
  -26.4406  -23.0150   23.6252 C   0  0  0  0  0  0
  -30.9316  -16.1749   22.3139 C   0  0  0  0  0  0
  -30.0592  -20.4766   17.8467 C   0  0  0  0  0  0
  -29.0953  -16.3453   20.6332 C   0  0  0  0  0  0
  -28.8390  -20.5918   16.9187 C   0  0  0  0  0  0
  -26.2076  -21.8149   22.6957 C   0  0  0  0  0  0
  -29.5693  -24.5261   20.5061 C   0  0  0  0  0  0
  -27.1171  -20.6175   23.0084 C   0  0  0  0  0  0
  -28.2966  -25.2477   19.9936 C   0  0  0  0  0  0
  -29.3555  -23.0784   21.0278 C   0  0  0  0  0  0
  -30.1502  -15.5144   21.2653 N   0  0  0  0  0  0
  -28.4411  -20.8937   22.5476 O   0  0  0  0  0  0
  -29.2531  -22.1089   19.9812 O   0  0  0  0  0  0
  -31.4568  -12.4183   19.1228 H   0  0  0  0  0  0
  -30.3073  -11.3267   19.8413 H   0  0  0  0  0  0
  -29.7422  -11.7731   17.4332 H   0  0  0  0  0  0
  -29.6451  -13.4872   17.7547 H   0  0  0  0  0  0
  -27.8417  -11.2901   18.8328 H   0  0  0  0  0  0
  -27.3551  -12.5947   17.7844 H   0  0  0  0  0  0
  -27.6644  -14.2344   19.5242 H   0  0  0  0  0  0
  -28.6806  -12.0154   21.3712 H   0  0  0  0  0  0
  -28.4489  -13.6717   21.8392 H   0  0  0  0  0  0
  -25.2725   -9.5686   22.4763 H   0  0  0  0  0  0
  -24.0006   -7.4599   22.7443 H   0  0  0  0  0  0
  -21.0824   -8.8703   19.8954 H   0  0  0  0  0  0
  -22.3629  -10.9634   19.6155 H   0  0  0  0  0  0
  -21.1981   -7.6135   23.9722 H   0  0  0  0  0  0
  -21.1496   -6.0504   25.9090 H   0  0  0  0  0  0
  -22.0606   -2.7593   23.2829 H   0  0  0  0  0  0
  -22.4056  -11.9913   22.4839 H   0  0  0  0  0  0
  -21.1060  -13.1263   22.2601 H   0  0  0  0  0  0
  -24.6557  -15.8368   20.5196 H   0  0  0  0  0  0
  -26.2622  -15.6219   20.0463 H   0  0  0  0  0  0
  -26.7112  -32.5516   23.1154 H   0  0  0  0  0  0
  -25.0074  -33.9782   25.0481 H   0  0  0  0  0  0
  -22.6929  -31.3087   21.4136 H   0  0  0  0  0  0
  -23.3754  -35.9635   23.3305 H   0  0  0  0  0  0
  -24.3581  -36.8923   22.2053 H   0  0  0  0  0  0
  -23.7227  -37.6511   23.6650 H   0  0  0  0  0  0
  -26.0528  -31.5959   20.6013 H   0  0  0  0  0  0
  -26.8217  -30.8751   21.9878 H   0  0  0  0  0  0
  -28.1073  -29.0924   21.1472 H   0  0  0  0  0  0
  -26.0243  -25.9747   18.9919 H   0  0  0  0  0  0
  -23.9730  -27.3008   19.0315 H   0  0  0  0  0  0
  -23.7228  -30.5996   19.4077 H   0  0  0  0  0  0
  -22.7354  -29.2460   19.8698 H   0  0  0  0  0  0
  -25.1290  -36.1976   25.0831 H   0  0  0  0  0  0
  -20.9947  -28.3230   24.1447 H   0  0  0  0  0  0
  -20.5667  -26.2274   23.3610 H   0  0  0  0  0  0
  -21.6635  -26.7454   22.1219 H   0  0  0  0  0  0
  -19.6919  -25.6297   21.1238 H   0  0  0  0  0  0
  -19.6702  -27.3195   20.6748 H   0  0  0  0  0  0
  -17.4206  -26.6678   21.4004 H   0  0  0  0  0  0
  -18.0320  -26.0055   22.8997 H   0  0  0  0  0  0
  -19.7926  -30.7244   24.2293 H   0  0  0  0  0  0
  -17.5012  -31.6267   24.5164 H   0  0  0  0  0  0
  -15.5342  -30.2997   23.7649 H   0  0  0  0  0  0
  -15.8653  -28.0831   22.7058 H   0  0  0  0  0  0
  -24.5906  -30.7063   25.7817 H   0  0  0  0  0  0
  -24.8951  -32.2850   26.4955 H   0  0  0  0  0  0
  -25.8106  -30.8846   27.0219 H   0  0  0  0  0  0
  -26.2820  -29.6793   24.1174 H   0  0  0  0  0  0
  -27.4063  -29.7264   25.4567 H   0  0  0  0  0  0
  -27.8665  -30.4326   23.9246 H   0  0  0  0  0  0
  -27.2695  -33.3613   26.2063 H   0  0  0  0  0  0
  -28.3862  -32.6863   25.0288 H   0  0  0  0  0  0
  -28.0737  -31.8417   26.5381 H   0  0  0  0  0  0
  -28.2613  -38.0102   24.7514 H   0  0  0  0  0  0
  -28.1073  -36.2634   24.6280 H   0  0  0  0  0  0
  -27.2308  -37.1451   25.8869 H   0  0  0  0  0  0
  -20.9317  -29.8736   21.6938 H   0  0  0  0  0  0
  -26.0185  -38.2880   24.1418 H   0  0  0  0  0  0
  -29.9710  -17.8638   18.5072 H   0  0  0  0  0  0
  -28.5603  -18.2674   22.5434 H   0  0  0  0  0  0
  -28.2937  -21.2865   14.9307 H   0  0  0  0  0  0
  -29.9189  -20.6138   15.0248 H   0  0  0  0  0  0
  -29.5864  -22.2183   15.6798 H   0  0  0  0  0  0
  -25.8739  -23.8840   23.2904 H   0  0  0  0  0  0
  -27.4918  -23.2983   23.6707 H   0  0  0  0  0  0
  -26.1233  -22.7855   24.6419 H   0  0  0  0  0  0
  -30.2787  -16.6294   23.0588 H   0  0  0  0  0  0
  -31.5696  -16.9532   21.8936 H   0  0  0  0  0  0
  -31.5755  -15.4656   22.8395 H   0  0  0  0  0  0
  -30.8208  -19.8502   17.3795 H   0  0  0  0  0  0
  -30.5247  -21.4546   17.9806 H   0  0  0  0  0  0
  -28.9323  -16.0076   19.6090 H   0  0  0  0  0  0
  -28.1625  -16.1441   21.1607 H   0  0  0  0  0  0
  -28.4032  -19.6039   16.7644 H   0  0  0  0  0  0
  -28.0688  -21.1956   17.4010 H   0  0  0  0  0  0
  -26.3395  -22.1114   21.6547 H   0  0  0  0  0  0
  -25.1663  -21.5049   22.7862 H   0  0  0  0  0  0
  -29.9619  -25.1112   21.3382 H   0  0  0  0  0  0
  -30.3494  -24.5409   19.7443 H   0  0  0  0  0  0
  -26.6869  -19.7283   22.5446 H   0  0  0  0  0  0
  -27.1362  -20.4259   24.0816 H   0  0  0  0  0  0
  -27.4424  -24.9050   20.5805 H   0  0  0  0  0  0
  -28.1088  -24.9621   18.9573 H   0  0  0  0  0  0
  -28.4572  -23.0819   21.6345 H   0  0  0  0  0  0
  -30.1883  -22.8061   21.6790 H   0  0  0  0  0  0
  1 25  1  0  0  0
  1 30  2  0  0  0
  1 88  1  0  0  0
  2  3  1  0  0  0
  2 25  1  0  0  0
  2 91  1  0  0  0
  2 92  1  0  0  0
  3  4  1  0  0  0
  3 93  1  0  0  0
  3 94  1  0  0  0
  4  5  1  0  0  0
  4 95  1  0  0  0
  4 96  1  0  0  0
  5  6  1  0  0  0
  5 26  1  0  0  0
  5 97  1  0  0  0
  6 25  1  0  0  0
  6 98  1  0  0  0
  6 99  1  0  0  0
  7  8  2  0  0  0
  7 26  1  0  0  0
  7 29  1  0  0  0
  8  9  1  0  0  0
  8 22  1  0  0  0
  9 10  1  0  0  0
  9 27  2  0  0  0
 10 11  2  0  0  0
 10 15  1  0  0  0
 11 12  1  0  0  0
 11100  1  0  0  0
 12 13  2  0  0  0
 12101  1  0  0  0
 13 14  1  0  0  0
 13 31  1  0  0  0
 14 15  2  0  0  0
 14102  1  0  0  0
 15103  1  0  0  0
 16 17  2  0  0  0
 16 21  1  0  0  0
 16 31  1  0  0  0
 17 18  1  0  0  0
 17104  1  0  0  0
 18 19  2  0  0  0
 18105  1  0  0  0
 19 20  1  0  0  0
 19 24  1  0  0  0
 20 21  2  0  0  0
 20106  1  0  0  0
 21 23  1  0  0  0
 22 28  1  0  0  0
 22 32  2  0  0  0
 26 27  1  0  0  0
 28107  1  0  0  0
 28108  1  0  0  0
 29109  1  0  0  0
 29110  1  0  0  0
 33 34  1  0  0  0
 33 66  1  0  0  0
 33 70  2  0  0  0
 34 36  1  0  0  0
 34 59  1  0  0  0
 34111  1  0  0  0
 35 44  2  0  0  0
 35 45  1  0  0  0
 35 68  1  0  0  0
 36 56  1  0  0  0
 36112  1  0  0  0
 37 39  1  0  0  0
 37 47  1  0  0  0
 37 66  1  0  0  0
 37113  1  0  0  0
 38 43  2  0  0  0
 38 46  1  0  0  0
 38 47  1  0  0  0
 39 64  1  0  0  0
 39 67  2  0  0  0
 40 52  1  0  0  0
 40 53  2  0  0  0
 40 58  1  0  0  0
 41114  1  0  0  0
 41115  1  0  0  0
 41116  1  0  0  0
 41 48  1  0  0  0
 42 43  1  0  0  0
 42 66  1  0  0  0
 42117  1  0  0  0
 42118  1  0  0  0
 43 44  1  0  0  0
 44119  1  0  0  0
 45 46  2  0  0  0
 45120  1  0  0  0
 46121  1  0  0  0
 47122  1  0  0  0
 47123  1  0  0  0
 48 56  1  0  0  0
 48 65  1  0  0  0
 48124  1  0  0  0
 49 50  1  0  0  0
 49 53  1  0  0  0
 49 64  1  0  0  0
 49125  1  0  0  0
 50 51  1  0  0  0
 50126  1  0  0  0
 50127  1  0  0  0
 51 52  1  0  0  0
 51128  1  0  0  0
 51129  1  0  0  0
 52130  1  0  0  0
 52131  1  0  0  0
 53 54  1  0  0  0
 54 55  2  0  0  0
 54132  1  0  0  0
 55 57  1  0  0  0
 55133  1  0  0  0
 56 69  2  0  0  0
 57 58  2  0  0  0
 57134  1  0  0  0
 58135  1  0  0  0
 59 60  1  0  0  0
 59 61  1  0  0  0
 59 62  1  0  0  0
 60136  1  0  0  0
 60137  1  0  0  0
 60138  1  0  0  0
 61139  1  0  0  0
 61140  1  0  0  0
 61141  1  0  0  0
 62142  1  0  0  0
 62143  1  0  0  0
 62144  1  0  0  0
 63 65  1  0  0  0
 63145  1  0  0  0
 63146  1  0  0  0
 63147  1  0  0  0
 64148  1  0  0  0
 65149  1  0  0  0
 68 86  1  0  0  0
 71 73  2  0  0  0
 71 74  1  0  0  0
 71150  1  0  0  0
 72 73  1  0  0  0
 72 75  2  0  0  0
 72151  1  0  0  0
 73 81  1  0  0  0
 74 76  2  0  0  0
 74 80  1  0  0  0
 75 76  1  0  0  0
 75 89  1  0  0  0
 76 90  1  0  0  0
 77 82  1  0  0  0
 77152  1  0  0  0
 77153  1  0  0  0
 77154  1  0  0  0
 78 83  1  0  0  0
 78155  1  0  0  0
 78156  1  0  0  0
 78157  1  0  0  0
 79 88  1  0  0  0
 79158  1  0  0  0
 79159  1  0  0  0
 79160  1  0  0  0
 80 82  1  0  0  0
 80161  1  0  0  0
 80162  1  0  0  0
 81 88  1  0  0  0
 81163  1  0  0  0
 81164  1  0  0  0
 82165  1  0  0  0
 82166  1  0  0  0
 83 85  1  0  0  0
 83167  1  0  0  0
 83168  1  0  0  0
 84 86  1  0  0  0
 84 87  1  0  0  0
 84169  1  0  0  0
 84170  1  0  0  0
 85 89  1  0  0  0
 85171  1  0  0  0
 85172  1  0  0  0
 86173  1  0  0  0
 86174  1  0  0  0
 87 90  1  0  0  0
 87175  1  0  0  0
 87176  1  0  0  0
M  ISO  4   1 100  68 101  86 101  88 100
M  END
> <chiral flag>
0

> <version>
0

> <s_m_source_file>
/data/baiqing/PycharmProjects/Reinvent-master-3.2/result/LINK_invent/BTK/process_docking_weight1_custom_product_contain_oxygen_bond_distance_aromatic_linkinvent_7_9_3/rearranged_h_0104.sdf

> <i_m_source_file_index>
23

> <r_mmod_Potential_Energy-OPLS-2005>
128.163543701172

> <r_mmod_Stretch_Energy-OPLS-2005>
46.2154197692871

> <r_mmod_Bend_Energy-OPLS-2005>
118.551681518555

> <r_mmod_Torsional_Energy-OPLS-2005>
311.220611572266

> <r_mmod_Improper_Torsional_Energy-OPLS-2005>
4.34896659851074

> <r_mmod_Van_der_Waal_Energy-OPLS-2005>
150.846664428711

> <r_mmod_Electrostatic_Energy-OPLS-2005>
-323.498474121094

> <r_mmod_Solvation_Energy-OPLS-2005>
-196.197601318359

> <b_mmod_Minimization_Converged-OPLS-2005>
0

> <r_mmod_RMS_Derivative-OPLS-2005>
2.34917497634888

$$$$
24
                    3D
 Structure written by MMmdl.
158167  0  0  1  0            999 V2000
  -30.6822  -14.5289   20.5186 C   0  0  0  0  0  0
  -30.4221  -12.3268   19.4313 C   0  0  0  0  0  0
  -29.4946  -12.4906   18.2078 C   0  0  0  0  0  0
  -28.0166  -12.3491   18.6232 C   0  0  0  0  0  0
  -27.6549  -13.2086   19.8652 C   0  0  2  0  0  0
  -28.7013  -13.0230   20.9880 C   0  0  0  0  0  0
  -25.2582  -13.8170   20.5696 C   0  0  0  0  0  0
  -24.1825  -13.0452   20.9177 C   0  0  0  0  0  0
  -24.6376  -11.6916   20.8734 C   0  0  0  0  0  0
  -23.9047  -10.4300   21.0403 C   0  0  0  0  0  0
  -24.3604   -9.4214   21.9179 C   0  0  0  0  0  0
  -23.6285   -8.2245   22.0756 C   0  0  0  0  0  0
  -22.4268   -8.0277   21.3548 C   0  0  0  0  0  0
  -21.9896   -9.0247   20.4653 C   0  0  0  0  0  0
  -22.7221  -10.2132   20.3057 C   0  0  0  0  0  0
  -21.6849   -6.0727   22.5275 C   0  0  0  0  0  0
  -21.4016   -6.5634   23.8206 C   0  0  0  0  0  0
  -21.3661   -5.6794   24.9169 C   0  0  0  0  0  0
  -21.6045   -4.3051   24.7225 C   0  0  0  0  0  0
  -21.8819   -3.8136   23.4350 C   0  0  0  0  0  0
  -21.9193   -4.6955   22.3403 C   0  0  0  0  0  0
  -22.7846  -13.5253   21.1838 C   0  0  0  0  0  0
  -22.1661   -4.2141   21.0983 F   0  0  0  0  0  0
  -21.5631   -3.4537   25.7739 F   0  0  0  0  0  0
  -30.0201  -13.3397   20.4222 N   0  0  0  0  0  0
  -26.2993  -12.9334   20.3331 N   0  0  0  0  0  0
  -25.9305  -11.6505   20.5761 N   0  0  0  0  0  0
  -22.0488  -12.8249   22.0402 N   0  0  0  0  0  0
  -25.4348  -15.1891   20.4157 N   0  0  0  0  0  0
  -31.8534  -14.6442   20.1394 O   0  0  0  0  0  0
  -21.6648   -6.8868   21.4238 O   0  0  0  0  0  0
  -22.3530  -14.5561   20.6695 O   0  0  0  0  0  0
  -24.6158  -31.8677   23.2074 C   0  0  0  0  0  0
  -25.9052  -32.4818   23.8379 C   0  0  1  0  0  0
  -27.2396  -27.4276   20.1015 C   0  0  0  0  0  0
  -25.5901  -33.8613   24.2318 N   0  0  0  0  0  0
  -23.4045  -30.4884   21.5468 C   0  0  2  0  0  0
  -24.8541  -28.9490   20.1136 C   0  0  0  0  0  0
  -22.7429  -29.4648   22.4978 C   0  0  0  0  0  0
  -18.0292  -28.1362   22.8492 C   0  0  0  0  0  0
  -24.1482  -36.7318   23.2631 C   0  0  0  0  0  0
  -25.9319  -30.8304   21.3604 C   0  0  0  0  0  0
  -26.0126  -29.4627   20.7101 C   0  0  0  0  0  0
  -27.2100  -28.7110   20.6969 C   0  0  0  0  0  0
  -26.0684  -26.9266   19.4971 C   0  0  0  0  0  0
  -24.8772  -27.6811   19.5025 C   0  0  0  0  0  0
  -23.6155  -29.8166   20.1624 C   0  0  0  0  0  0
  -25.4105  -36.3108   24.0328 C   0  0  1  0  0  0
  -20.5881  -28.3647   23.1320 C   0  0  2  0  0  0
  -20.6791  -26.9397   22.5387 C   0  0  0  0  0  0
  -19.5767  -26.6396   21.5189 C   0  0  0  0  0  0
  -18.1950  -26.7926   22.1595 C   0  0  0  0  0  0
  -19.1542  -28.8820   23.2907 C   0  0  0  0  0  0
  -18.9465  -30.1421   23.8921 C   0  0  0  0  0  0
  -17.6462  -30.6557   24.0580 C   0  0  0  0  0  0
  -25.9038  -34.9472   23.5126 C   0  0  0  0  0  0
  -16.5357  -29.9067   23.6309 C   0  0  0  0  0  0
  -16.7281  -28.6484   23.0332 C   0  0  0  0  0  0
  -26.4477  -31.6596   25.0705 C   0  0  0  0  0  0
  -25.3732  -31.3711   26.1451 C   0  0  0  0  0  0
  -27.0300  -30.3037   24.6061 C   0  0  0  0  0  0
  -27.6055  -32.4305   25.7460 C   0  0  0  0  0  0
  -27.5577  -37.1812   24.8459 C   0  0  0  0  0  0
  -21.4151  -29.3030   22.3737 N   0  0  0  0  0  0
  -26.4291  -37.3795   23.9405 N   0  0  0  0  0  0
  -24.6690  -31.0769   22.0976 N   0  0  0  0  0  0
  -23.4205  -28.8197   23.3021 O   0  0  0  0  0  0
  -28.4030  -26.6834   20.1024 O   0  0  0  0  0  0
  -26.5590  -34.8930   22.4680 O   0  0  0  0  0  0
  -23.5348  -32.1430   23.7471 O   0  0  0  0  0  0
  -28.7678  -18.6802   22.5109 C   0  0  0  0  0  0
  -28.6337  -20.0071   22.0332 C   0  0  0  0  0  0
  -29.4180  -19.3180   19.8195 C   0  0  0  0  0  0
  -29.2326  -17.6896   21.6276 C   0  0  0  0  0  0
  -29.5523  -17.9999   20.3223 C   0  0  0  0  0  0
  -28.9567  -20.3480   20.6886 C   0  0  0  0  0  0
  -28.8686  -22.8595   20.8266 C   0  0  0  0  0  0
  -29.4332  -16.2117   21.8886 C   0  0  0  0  0  0
  -30.0212  -16.7470   19.6165 C   0  0  0  0  0  0
  -27.5222  -25.5223   22.1425 C   0  0  0  0  0  0
  -28.4056  -24.1528   20.0929 C   0  0  0  0  0  0
  -28.4736  -25.4835   20.9195 C   0  0  1  0  0  0
  -29.8929  -15.6364   20.6012 N   0  0  0  0  0  0
  -28.7539  -21.6774   20.1737 N   0  0  0  0  0  0
  -29.3684  -22.9369   21.9518 O   0  0  0  0  0  0
  -31.4673  -12.4225   19.1307 H   0  0  0  0  0  0
  -30.3260  -11.3254   19.8548 H   0  0  0  0  0  0
  -29.7397  -11.7491   17.4473 H   0  0  0  0  0  0
  -29.6570  -13.4654   17.7447 H   0  0  0  0  0  0
  -27.8354  -11.2940   18.8382 H   0  0  0  0  0  0
  -27.3641  -12.6035   17.7883 H   0  0  0  0  0  0
  -27.6859  -14.2492   19.5425 H   0  0  0  0  0  0
  -28.6905  -11.9953   21.3524 H   0  0  0  0  0  0
  -28.4680  -13.6387   21.8538 H   0  0  0  0  0  0
  -25.2753   -9.5692   22.4753 H   0  0  0  0  0  0
  -23.9997   -7.4638   22.7485 H   0  0  0  0  0  0
  -21.0822   -8.8757   19.8966 H   0  0  0  0  0  0
  -22.3667  -10.9663   19.6165 H   0  0  0  0  0  0
  -21.2010   -7.6142   23.9704 H   0  0  0  0  0  0
  -21.1486   -6.0528   25.9076 H   0  0  0  0  0  0
  -22.0598   -2.7602   23.2855 H   0  0  0  0  0  0
  -22.4112  -11.9908   22.4776 H   0  0  0  0  0  0
  -21.1109  -13.1278   22.2630 H   0  0  0  0  0  0
  -24.6789  -15.8541   20.5394 H   0  0  0  0  0  0
  -26.3034  -15.6254   20.1309 H   0  0  0  0  0  0
  -26.7114  -32.5540   23.1138 H   0  0  0  0  0  0
  -25.0080  -33.9768   25.0481 H   0  0  0  0  0  0
  -22.6921  -31.3040   21.4043 H   0  0  0  0  0  0
  -23.3737  -35.9660   23.3307 H   0  0  0  0  0  0
  -24.3572  -36.8928   22.2043 H   0  0  0  0  0  0
  -23.7254  -37.6530   23.6641 H   0  0  0  0  0  0
  -26.0395  -31.5949   20.5899 H   0  0  0  0  0  0
  -26.8208  -30.8915   21.9762 H   0  0  0  0  0  0
  -28.1066  -29.1013   21.1579 H   0  0  0  0  0  0
  -26.0796  -25.9550   19.0237 H   0  0  0  0  0  0
  -23.9871  -27.2823   19.0352 H   0  0  0  0  0  0
  -23.7269  -30.5902   19.4016 H   0  0  0  0  0  0
  -22.7400  -29.2375   19.8646 H   0  0  0  0  0  0
  -25.1277  -36.1964   25.0818 H   0  0  0  0  0  0
  -20.9980  -28.3202   24.1438 H   0  0  0  0  0  0
  -20.5733  -26.2238   23.3551 H   0  0  0  0  0  0
  -21.6654  -26.7484   22.1137 H   0  0  0  0  0  0
  -19.6930  -25.6321   21.1193 H   0  0  0  0  0  0
  -19.6715  -27.3229   20.6742 H   0  0  0  0  0  0
  -17.4236  -26.6731   21.3972 H   0  0  0  0  0  0
  -18.0325  -26.0036   22.8952 H   0  0  0  0  0  0
  -19.7943  -30.7232   24.2308 H   0  0  0  0  0  0
  -17.5014  -31.6229   24.5190 H   0  0  0  0  0  0
  -15.5356  -30.2971   23.7600 H   0  0  0  0  0  0
  -15.8690  -28.0815   22.7010 H   0  0  0  0  0  0
  -24.5881  -30.7089   25.7784 H   0  0  0  0  0  0
  -24.8946  -32.2875   26.4911 H   0  0  0  0  0  0
  -25.8079  -30.8861   27.0203 H   0  0  0  0  0  0
  -26.2839  -29.6805   24.1113 H   0  0  0  0  0  0
  -27.4086  -29.7257   25.4504 H   0  0  0  0  0  0
  -27.8667  -30.4358   23.9196 H   0  0  0  0  0  0
  -27.2675  -33.3581   26.2088 H   0  0  0  0  0  0
  -28.3839  -32.6911   25.0276 H   0  0  0  0  0  0
  -28.0751  -31.8397   26.5334 H   0  0  0  0  0  0
  -28.2602  -38.0099   24.7491 H   0  0  0  0  0  0
  -28.1069  -36.2635   24.6299 H   0  0  0  0  0  0
  -27.2297  -37.1479   25.8862 H   0  0  0  0  0  0
  -20.9310  -29.8784   21.6993 H   0  0  0  0  0  0
  -26.0184  -38.2874   24.1407 H   0  0  0  0  0  0
  -28.5059  -18.4347   23.5314 H   0  0  0  0  0  0
  -28.2547  -20.7575   22.7116 H   0  0  0  0  0  0
  -29.6660  -19.5333   18.7889 H   0  0  0  0  0  0
  -28.4853  -15.7797   22.2068 H   0  0  0  0  0  0
  -30.1681  -16.0629   22.6816 H   0  0  0  0  0  0
  -31.0504  -16.8888   19.2799 H   0  0  0  0  0  0
  -29.4028  -16.5471   18.7406 H   0  0  0  0  0  0
  -27.7215  -24.7098   22.8387 H   0  0  0  0  0  0
  -26.4766  -25.4373   21.8493 H   0  0  0  0  0  0
  -27.6421  -26.4505   22.7020 H   0  0  0  0  0  0
  -29.0384  -24.2585   19.2109 H   0  0  0  0  0  0
  -27.3921  -24.0037   19.7225 H   0  0  0  0  0  0
  -29.4825  -25.5319   21.3312 H   0  0  0  0  0  0
  -28.5002  -21.7419   19.1969 H   0  0  0  0  0  0
  1 25  1  0  0  0
  1 30  2  0  0  0
  1 83  1  0  0  0
  2  3  1  0  0  0
  2 25  1  0  0  0
  2 86  1  0  0  0
  2 87  1  0  0  0
  3  4  1  0  0  0
  3 88  1  0  0  0
  3 89  1  0  0  0
  4  5  1  0  0  0
  4 90  1  0  0  0
  4 91  1  0  0  0
  5  6  1  0  0  0
  5 26  1  0  0  0
  5 92  1  0  0  0
  6 25  1  0  0  0
  6 93  1  0  0  0
  6 94  1  0  0  0
  7  8  2  0  0  0
  7 26  1  0  0  0
  7 29  1  0  0  0
  8  9  1  0  0  0
  8 22  1  0  0  0
  9 10  1  0  0  0
  9 27  2  0  0  0
 10 11  2  0  0  0
 10 15  1  0  0  0
 11 12  1  0  0  0
 11 95  1  0  0  0
 12 13  2  0  0  0
 12 96  1  0  0  0
 13 14  1  0  0  0
 13 31  1  0  0  0
 14 15  2  0  0  0
 14 97  1  0  0  0
 15 98  1  0  0  0
 16 17  2  0  0  0
 16 21  1  0  0  0
 16 31  1  0  0  0
 17 18  1  0  0  0
 17 99  1  0  0  0
 18 19  2  0  0  0
 18100  1  0  0  0
 19 20  1  0  0  0
 19 24  1  0  0  0
 20 21  2  0  0  0
 20101  1  0  0  0
 21 23  1  0  0  0
 22 28  1  0  0  0
 22 32  2  0  0  0
 26 27  1  0  0  0
 28102  1  0  0  0
 28103  1  0  0  0
 29104  1  0  0  0
 29105  1  0  0  0
 33 34  1  0  0  0
 33 66  1  0  0  0
 33 70  2  0  0  0
 34 36  1  0  0  0
 34 59  1  0  0  0
 34106  1  0  0  0
 35 44  2  0  0  0
 35 45  1  0  0  0
 35 68  1  0  0  0
 36 56  1  0  0  0
 36107  1  0  0  0
 37 39  1  0  0  0
 37 47  1  0  0  0
 37 66  1  0  0  0
 37108  1  0  0  0
 38 43  2  0  0  0
 38 46  1  0  0  0
 38 47  1  0  0  0
 39 64  1  0  0  0
 39 67  2  0  0  0
 40 52  1  0  0  0
 40 53  2  0  0  0
 40 58  1  0  0  0
 41109  1  0  0  0
 41110  1  0  0  0
 41111  1  0  0  0
 41 48  1  0  0  0
 42 43  1  0  0  0
 42 66  1  0  0  0
 42112  1  0  0  0
 42113  1  0  0  0
 43 44  1  0  0  0
 44114  1  0  0  0
 45 46  2  0  0  0
 45115  1  0  0  0
 46116  1  0  0  0
 47117  1  0  0  0
 47118  1  0  0  0
 48 56  1  0  0  0
 48 65  1  0  0  0
 48119  1  0  0  0
 49 50  1  0  0  0
 49 53  1  0  0  0
 49 64  1  0  0  0
 49120  1  0  0  0
 50 51  1  0  0  0
 50121  1  0  0  0
 50122  1  0  0  0
 51 52  1  0  0  0
 51123  1  0  0  0
 51124  1  0  0  0
 52125  1  0  0  0
 52126  1  0  0  0
 53 54  1  0  0  0
 54 55  2  0  0  0
 54127  1  0  0  0
 55 57  1  0  0  0
 55128  1  0  0  0
 56 69  2  0  0  0
 57 58  2  0  0  0
 57129  1  0  0  0
 58130  1  0  0  0
 59 60  1  0  0  0
 59 61  1  0  0  0
 59 62  1  0  0  0
 60131  1  0  0  0
 60132  1  0  0  0
 60133  1  0  0  0
 61134  1  0  0  0
 61135  1  0  0  0
 61136  1  0  0  0
 62137  1  0  0  0
 62138  1  0  0  0
 62139  1  0  0  0
 63 65  1  0  0  0
 63140  1  0  0  0
 63141  1  0  0  0
 63142  1  0  0  0
 64143  1  0  0  0
 65144  1  0  0  0
 68 82  1  0  0  0
 71 72  2  0  0  0
 71 74  1  0  0  0
 71145  1  0  0  0
 72 76  1  0  0  0
 72146  1  0  0  0
 73 75  1  0  0  0
 73 76  2  0  0  0
 73147  1  0  0  0
 74 75  2  0  0  0
 74 78  1  0  0  0
 75 79  1  0  0  0
 76 84  1  0  0  0
 77 81  1  0  0  0
 77 84  1  0  0  0
 77 85  2  0  0  0
 78 83  1  0  0  0
 78148  1  0  0  0
 78149  1  0  0  0
 79 83  1  0  0  0
 79150  1  0  0  0
 79151  1  0  0  0
 80152  1  0  0  0
 80153  1  0  0  0
 80154  1  0  0  0
 80 82  1  0  0  0
 81 82  1  0  0  0
 81155  1  0  0  0
 81156  1  0  0  0
 82157  1  0  0  0
 84158  1  0  0  0
M  ISO  4   1 100  68 101  82 101  83 100
M  END
> <chiral flag>
0

> <version>
0

> <s_m_source_file>
/data/baiqing/PycharmProjects/Reinvent-master-3.2/result/LINK_invent/BTK/process_docking_weight1_custom_product_contain_oxygen_bond_distance_aromatic_linkinvent_7_9_3/rearranged_h_0104.sdf

> <i_m_source_file_index>
24

> <r_mmod_Potential_Energy-OPLS-2005>
89.3065490722656

> <r_mmod_Stretch_Energy-OPLS-2005>
49.6414527893066

> <r_mmod_Bend_Energy-OPLS-2005>
147.875381469727

> <r_mmod_Torsional_Energy-OPLS-2005>
288.226226806641

> <r_mmod_Improper_Torsional_Energy-OPLS-2005>
16.3857688903809

> <r_mmod_Van_der_Waal_Energy-OPLS-2005>
144.151062011719

> <r_mmod_Electrostatic_Energy-OPLS-2005>
-356.950561523438

> <r_mmod_Solvation_Energy-OPLS-2005>
-219.172760009766

> <b_mmod_Minimization_Converged-OPLS-2005>
0

> <r_mmod_RMS_Derivative-OPLS-2005>
1.80342066287994

$$$$
25
                    3D
 Structure written by MMmdl.
168177  0  0  1  0            999 V2000
  -30.6787  -14.5308   20.5806 C   0  0  0  0  0  0
  -30.4186  -12.3451   19.4265 C   0  0  0  0  0  0
  -29.4893  -12.5119   18.2046 C   0  0  0  0  0  0
  -28.0084  -12.3393   18.6103 C   0  0  0  0  0  0
  -27.6484  -13.1593   19.8723 C   0  0  2  0  0  0
  -28.7040  -12.9241   20.9854 C   0  0  0  0  0  0
  -25.2517  -13.8013   20.5694 C   0  0  0  0  0  0
  -24.1788  -13.0357   20.9217 C   0  0  0  0  0  0
  -24.6317  -11.6816   20.8791 C   0  0  0  0  0  0
  -23.9007  -10.4237   21.0449 C   0  0  0  0  0  0
  -24.3586   -9.4148   21.9194 C   0  0  0  0  0  0
  -23.6283   -8.2180   22.0755 C   0  0  0  0  0  0
  -22.4243   -8.0250   21.3564 C   0  0  0  0  0  0
  -21.9889   -9.0200   20.4620 C   0  0  0  0  0  0
  -22.7221  -10.2083   20.3048 C   0  0  0  0  0  0
  -21.6822   -6.0737   22.5301 C   0  0  0  0  0  0
  -21.3994   -6.5642   23.8247 C   0  0  0  0  0  0
  -21.3643   -5.6790   24.9198 C   0  0  0  0  0  0
  -21.6040   -4.3062   24.7230 C   0  0  0  0  0  0
  -21.8831   -3.8151   23.4347 C   0  0  0  0  0  0
  -21.9188   -4.6972   22.3409 C   0  0  0  0  0  0
  -22.7800  -13.5144   21.1911 C   0  0  0  0  0  0
  -22.1663   -4.2168   21.0975 F   0  0  0  0  0  0
  -21.5620   -3.4532   25.7735 F   0  0  0  0  0  0
  -30.0044  -13.3406   20.4385 N   0  0  0  0  0  0
  -26.2934  -12.9113   20.3370 N   0  0  0  0  0  0
  -25.9210  -11.6322   20.5773 N   0  0  0  0  0  0
  -22.0482  -12.8112   22.0454 N   0  0  0  0  0  0
  -25.4086  -15.1751   20.4111 N   0  0  0  0  0  0
  -31.8488  -14.6117   20.1873 O   0  0  0  0  0  0
  -21.6608   -6.8849   21.4249 O   0  0  0  0  0  0
  -22.3438  -14.5437   20.6742 O   0  0  0  0  0  0
  -24.6112  -31.8694   23.2142 C   0  0  0  0  0  0
  -25.9055  -32.4780   23.8425 C   0  0  1  0  0  0
  -27.2284  -27.4343   20.0715 C   0  0  0  0  0  0
  -25.5973  -33.8604   24.2324 N   0  0  0  0  0  0
  -23.4006  -30.4940   21.5489 C   0  0  2  0  0  0
  -24.8464  -28.9616   20.1086 C   0  0  0  0  0  0
  -22.7368  -29.4718   22.4981 C   0  0  0  0  0  0
  -18.0289  -28.1398   22.8470 C   0  0  0  0  0  0
  -24.1491  -36.7268   23.2633 C   0  0  0  0  0  0
  -25.9340  -30.8092   21.3982 C   0  0  0  0  0  0
  -26.0037  -29.4546   20.7247 C   0  0  0  0  0  0
  -27.1949  -28.6921   20.7177 C   0  0  0  0  0  0
  -26.0630  -26.9789   19.4160 C   0  0  0  0  0  0
  -24.8705  -27.7208   19.4513 C   0  0  0  0  0  0
  -23.6089  -29.8261   20.1625 C   0  0  0  0  0  0
  -25.4125  -36.3063   24.0309 C   0  0  1  0  0  0
  -20.5854  -28.3722   23.1274 C   0  0  2  0  0  0
  -20.6786  -26.9485   22.5346 C   0  0  0  0  0  0
  -19.5773  -26.6424   21.5148 C   0  0  0  0  0  0
  -18.1963  -26.7944   22.1586 C   0  0  0  0  0  0
  -19.1523  -28.8865   23.2868 C   0  0  0  0  0  0
  -18.9468  -30.1468   23.8887 C   0  0  0  0  0  0
  -17.6478  -30.6606   24.0575 C   0  0  0  0  0  0
  -25.9069  -34.9447   23.5087 C   0  0  0  0  0  0
  -16.5372  -29.9107   23.6354 C   0  0  0  0  0  0
  -16.7276  -28.6521   23.0363 C   0  0  0  0  0  0
  -26.4485  -31.6585   25.0784 C   0  0  0  0  0  0
  -25.3742  -31.3682   26.1499 C   0  0  0  0  0  0
  -27.0415  -30.3030   24.6304 C   0  0  0  0  0  0
  -27.5980  -32.4372   25.7608 C   0  0  0  0  0  0
  -27.5564  -37.1816   24.8461 C   0  0  0  0  0  0
  -21.4106  -29.3086   22.3674 N   0  0  0  0  0  0
  -26.4281  -37.3768   23.9396 N   0  0  0  0  0  0
  -24.6633  -31.0747   22.1078 N   0  0  0  0  0  0
  -23.4104  -28.8299   23.3088 O   0  0  0  0  0  0
  -28.3727  -26.6617   20.0724 O   0  0  0  0  0  0
  -26.5588  -34.8881   22.4629 O   0  0  0  0  0  0
  -23.5301  -32.1547   23.7481 O   0  0  0  0  0  0
  -31.0212  -19.1766   20.1935 C   0  0  0  0  0  0
  -30.8473  -17.4916   22.4281 C   0  0  0  0  0  0
  -30.8348  -17.7890   20.0072 C   0  0  0  0  0  0
  -30.9996  -19.7583   21.4788 C   0  0  0  0  0  0
  -30.7011  -16.9365   21.1365 C   0  0  0  0  0  0
  -30.9701  -18.8928   22.6059 C   0  0  0  0  0  0
  -29.7813  -23.4057   21.3699 C   0  0  0  0  0  0
  -29.2841  -23.4390   19.0457 C   0  0  0  0  0  0
  -30.1482  -22.2202   19.4241 C   0  0  0  0  0  0
  -29.3937  -24.3801   20.2524 C   0  0  1  0  0  0
  -30.6869  -17.2640   18.5876 C   0  0  0  0  0  0
  -28.5896  -15.9370   21.1120 C   0  0  0  0  0  0
  -30.2011  -18.9558   24.8809 C   0  0  0  0  0  0
  -31.0693  -21.2909   21.6831 C   0  0  0  0  0  0
  -28.1832  -25.3117   20.5493 C   0  0  0  0  0  0
  -30.2224  -22.2221   20.8855 N   0  0  0  0  0  0
  -30.0367  -15.6712   21.0279 N   0  0  0  0  0  0
  -29.7666  -23.7338   22.5597 O   0  0  0  0  0  0
  -31.0666  -19.4502   23.8610 O   0  0  0  0  0  0
  -31.4614  -12.4458   19.1270 H   0  0  0  0  0  0
  -30.3308  -11.3327   19.8229 H   0  0  0  0  0  0
  -29.7513  -11.7965   17.4234 H   0  0  0  0  0  0
  -29.6339  -13.5041   17.7760 H   0  0  0  0  0  0
  -27.8286  -11.2810   18.7988 H   0  0  0  0  0  0
  -27.3544  -12.6117   17.7794 H   0  0  0  0  0  0
  -27.6691  -14.1801   19.5244 H   0  0  0  0  0  0
  -28.7239  -11.8604   21.2280 H   0  0  0  0  0  0
  -28.4740  -13.3655   21.9503 H   0  0  0  0  0  0
  -25.2750   -9.5617   22.4750 H   0  0  0  0  0  0
  -24.0024   -7.4550   22.7445 H   0  0  0  0  0  0
  -21.0873   -8.8696   19.8852 H   0  0  0  0  0  0
  -22.3728  -10.9617   19.6124 H   0  0  0  0  0  0
  -21.1978   -7.6139   23.9725 H   0  0  0  0  0  0
  -21.1441   -6.0526   25.9097 H   0  0  0  0  0  0
  -22.0613   -2.7620   23.2858 H   0  0  0  0  0  0
  -22.4253  -11.9822   22.4835 H   0  0  0  0  0  0
  -21.1025  -13.0936   22.2606 H   0  0  0  0  0  0
  -24.6304  -15.8098   20.5534 H   0  0  0  0  0  0
  -26.2528  -15.6425   20.1147 H   0  0  0  0  0  0
  -26.7126  -32.5430   23.1169 H   0  0  0  0  0  0
  -25.0228  -33.9808   25.0532 H   0  0  0  0  0  0
  -22.6907  -31.3117   21.4075 H   0  0  0  0  0  0
  -23.3756  -35.9592   23.3288 H   0  0  0  0  0  0
  -24.3567  -36.8909   22.2044 H   0  0  0  0  0  0
  -23.7236  -37.6462   23.6679 H   0  0  0  0  0  0
  -26.0928  -31.5912   20.6579 H   0  0  0  0  0  0
  -26.7990  -30.8196   22.0491 H   0  0  0  0  0  0
  -28.0750  -29.0493   21.2324 H   0  0  0  0  0  0
  -26.0678  -26.0585   18.8494 H   0  0  0  0  0  0
  -23.9948  -27.3409   18.9445 H   0  0  0  0  0  0
  -23.7159  -30.6011   19.4038 H   0  0  0  0  0  0
  -22.7352  -29.2435   19.8626 H   0  0  0  0  0  0
  -25.1299  -36.1899   25.0795 H   0  0  0  0  0  0
  -20.9924  -28.3294   24.1401 H   0  0  0  0  0  0
  -20.5732  -26.2349   23.3531 H   0  0  0  0  0  0
  -21.6675  -26.7587   22.1138 H   0  0  0  0  0  0
  -19.6982  -25.6328   21.1206 H   0  0  0  0  0  0
  -19.6676  -27.3194   20.6650 H   0  0  0  0  0  0
  -17.4207  -26.6637   21.4017 H   0  0  0  0  0  0
  -18.0457  -26.0078   22.8997 H   0  0  0  0  0  0
  -19.7958  -30.7289   24.2233 H   0  0  0  0  0  0
  -17.5061  -31.6282   24.5196 H   0  0  0  0  0  0
  -15.5386  -30.3025   23.7691 H   0  0  0  0  0  0
  -15.8661  -28.0840   22.7103 H   0  0  0  0  0  0
  -24.5864  -30.7111   25.7795 H   0  0  0  0  0  0
  -24.9003  -32.2840   26.5051 H   0  0  0  0  0  0
  -25.8074  -30.8735   27.0204 H   0  0  0  0  0  0
  -26.3078  -29.6748   24.1248 H   0  0  0  0  0  0
  -27.4024  -29.7303   25.4860 H   0  0  0  0  0  0
  -27.8958  -30.4338   23.9662 H   0  0  0  0  0  0
  -27.2525  -33.3662   26.2173 H   0  0  0  0  0  0
  -28.3837  -32.6973   25.0502 H   0  0  0  0  0  0
  -28.0614  -31.8536   26.5578 H   0  0  0  0  0  0
  -28.2524  -38.0166   24.7545 H   0  0  0  0  0  0
  -28.1116  -36.2686   24.6252 H   0  0  0  0  0  0
  -27.2280  -37.1410   25.8864 H   0  0  0  0  0  0
  -20.9289  -29.8754   21.6833 H   0  0  0  0  0  0
  -26.0132  -38.2827   24.1407 H   0  0  0  0  0  0
  -31.1396  -19.7970   19.3182 H   0  0  0  0  0  0
  -30.7598  -16.8436   23.2926 H   0  0  0  0  0  0
  -28.2530  -23.1136   18.8935 H   0  0  0  0  0  0
  -29.6184  -23.9032   18.1166 H   0  0  0  0  0  0
  -31.1532  -22.3242   19.0123 H   0  0  0  0  0  0
  -29.7051  -21.3129   19.0169 H   0  0  0  0  0  0
  -30.2761  -25.0060   20.1331 H   0  0  0  0  0  0
  -29.6496  -16.9999   18.3792 H   0  0  0  0  0  0
  -31.3115  -16.3858   18.4297 H   0  0  0  0  0  0
  -30.9935  -18.0102   17.8559 H   0  0  0  0  0  0
  -28.3837  -16.9046   21.5699 H   0  0  0  0  0  0
  -27.9911  -15.2724   21.7210 H   0  0  0  0  0  0
  -28.1820  -16.0465   20.1111 H   0  0  0  0  0  0
  -30.7844  -18.5348   25.7021 H   0  0  0  0  0  0
  -29.4710  -18.2166   24.5476 H   0  0  0  0  0  0
  -29.6304  -19.7918   25.2864 H   0  0  0  0  0  0
  -32.1086  -21.5983   21.5749 H   0  0  0  0  0  0
  -30.8237  -21.4743   22.7279 H   0  0  0  0  0  0
  -28.0395  -25.4026   21.6251 H   0  0  0  0  0  0
  -27.2668  -24.8489   20.1814 H   0  0  0  0  0  0
  1 25  1  0  0  0
  1 30  2  0  0  0
  1 87  1  0  0  0
  2  3  1  0  0  0
  2 25  1  0  0  0
  2 90  1  0  0  0
  2 91  1  0  0  0
  3  4  1  0  0  0
  3 92  1  0  0  0
  3 93  1  0  0  0
  4  5  1  0  0  0
  4 94  1  0  0  0
  4 95  1  0  0  0
  5  6  1  0  0  0
  5 26  1  0  0  0
  5 96  1  0  0  0
  6 25  1  0  0  0
  6 97  1  0  0  0
  6 98  1  0  0  0
  7  8  2  0  0  0
  7 26  1  0  0  0
  7 29  1  0  0  0
  8  9  1  0  0  0
  8 22  1  0  0  0
  9 10  1  0  0  0
  9 27  2  0  0  0
 10 11  2  0  0  0
 10 15  1  0  0  0
 11 12  1  0  0  0
 11 99  1  0  0  0
 12 13  2  0  0  0
 12100  1  0  0  0
 13 14  1  0  0  0
 13 31  1  0  0  0
 14 15  2  0  0  0
 14101  1  0  0  0
 15102  1  0  0  0
 16 17  2  0  0  0
 16 21  1  0  0  0
 16 31  1  0  0  0
 17 18  1  0  0  0
 17103  1  0  0  0
 18 19  2  0  0  0
 18104  1  0  0  0
 19 20  1  0  0  0
 19 24  1  0  0  0
 20 21  2  0  0  0
 20105  1  0  0  0
 21 23  1  0  0  0
 22 28  1  0  0  0
 22 32  2  0  0  0
 26 27  1  0  0  0
 28106  1  0  0  0
 28107  1  0  0  0
 29108  1  0  0  0
 29109  1  0  0  0
 33 34  1  0  0  0
 33 66  1  0  0  0
 33 70  2  0  0  0
 34 36  1  0  0  0
 34 59  1  0  0  0
 34110  1  0  0  0
 35 44  2  0  0  0
 35 45  1  0  0  0
 35 68  1  0  0  0
 36 56  1  0  0  0
 36111  1  0  0  0
 37 39  1  0  0  0
 37 47  1  0  0  0
 37 66  1  0  0  0
 37112  1  0  0  0
 38 43  2  0  0  0
 38 46  1  0  0  0
 38 47  1  0  0  0
 39 64  1  0  0  0
 39 67  2  0  0  0
 40 52  1  0  0  0
 40 53  2  0  0  0
 40 58  1  0  0  0
 41113  1  0  0  0
 41114  1  0  0  0
 41115  1  0  0  0
 41 48  1  0  0  0
 42 43  1  0  0  0
 42 66  1  0  0  0
 42116  1  0  0  0
 42117  1  0  0  0
 43 44  1  0  0  0
 44118  1  0  0  0
 45 46  2  0  0  0
 45119  1  0  0  0
 46120  1  0  0  0
 47121  1  0  0  0
 47122  1  0  0  0
 48 56  1  0  0  0
 48 65  1  0  0  0
 48123  1  0  0  0
 49 50  1  0  0  0
 49 53  1  0  0  0
 49 64  1  0  0  0
 49124  1  0  0  0
 50 51  1  0  0  0
 50125  1  0  0  0
 50126  1  0  0  0
 51 52  1  0  0  0
 51127  1  0  0  0
 51128  1  0  0  0
 52129  1  0  0  0
 52130  1  0  0  0
 53 54  1  0  0  0
 54 55  2  0  0  0
 54131  1  0  0  0
 55 57  1  0  0  0
 55132  1  0  0  0
 56 69  2  0  0  0
 57 58  2  0  0  0
 57133  1  0  0  0
 58134  1  0  0  0
 59 60  1  0  0  0
 59 61  1  0  0  0
 59 62  1  0  0  0
 60135  1  0  0  0
 60136  1  0  0  0
 60137  1  0  0  0
 61138  1  0  0  0
 61139  1  0  0  0
 61140  1  0  0  0
 62141  1  0  0  0
 62142  1  0  0  0
 62143  1  0  0  0
 63 65  1  0  0  0
 63144  1  0  0  0
 63145  1  0  0  0
 63146  1  0  0  0
 64147  1  0  0  0
 65148  1  0  0  0
 68 85  1  0  0  0
 71 73  2  0  0  0
 71 74  1  0  0  0
 71149  1  0  0  0
 72 75  2  0  0  0
 72 76  1  0  0  0
 72150  1  0  0  0
 73 75  1  0  0  0
 73 81  1  0  0  0
 74 76  2  0  0  0
 74 84  1  0  0  0
 75 87  1  0  0  0
 76 89  1  0  0  0
 77 80  1  0  0  0
 77 86  1  0  0  0
 77 88  2  0  0  0
 78 79  1  0  0  0
 78 80  1  0  0  0
 78151  1  0  0  0
 78152  1  0  0  0
 79 86  1  0  0  0
 79153  1  0  0  0
 79154  1  0  0  0
 80 85  1  0  0  0
 80155  1  0  0  0
 81156  1  0  0  0
 81157  1  0  0  0
 81158  1  0  0  0
 82 87  1  0  0  0
 82159  1  0  0  0
 82160  1  0  0  0
 82161  1  0  0  0
 83 89  1  0  0  0
 83162  1  0  0  0
 83163  1  0  0  0
 83164  1  0  0  0
 84 86  1  0  0  0
 84165  1  0  0  0
 84166  1  0  0  0
 85167  1  0  0  0
 85168  1  0  0  0
M  ISO  4   1 100  68 101  85 101  87 100
M  END
> <chiral flag>
0

> <version>
0

> <s_m_source_file>
/data/baiqing/PycharmProjects/Reinvent-master-3.2/result/LINK_invent/BTK/process_docking_weight1_custom_product_contain_oxygen_bond_distance_aromatic_linkinvent_7_9_3/rearranged_h_0104.sdf

> <i_m_source_file_index>
25

> <r_mmod_Potential_Energy-OPLS-2005>
293.066436767578

> <r_mmod_Stretch_Energy-OPLS-2005>
50.644702911377

> <r_mmod_Bend_Energy-OPLS-2005>
185.189376831055

> <r_mmod_Torsional_Energy-OPLS-2005>
380.908386230469

> <r_mmod_Improper_Torsional_Energy-OPLS-2005>
8.977370262146

> <r_mmod_Van_der_Waal_Energy-OPLS-2005>
185.0078125

> <r_mmod_Electrostatic_Energy-OPLS-2005>
-315.488891601562

> <r_mmod_Solvation_Energy-OPLS-2005>
-224.029159545898

> <b_mmod_Minimization_Converged-OPLS-2005>
0

> <r_mmod_RMS_Derivative-OPLS-2005>
5.48402643203735

$$$$
26
                    3D
 Structure written by MMmdl.
162170  0  0  1  0            999 V2000
  -30.7330  -14.4763   20.5912 C   0  0  0  0  0  0
  -30.4164  -12.3202   19.4283 C   0  0  0  0  0  0
  -29.4929  -12.5037   18.2094 C   0  0  0  0  0  0
  -28.0155  -12.3619   18.6231 C   0  0  0  0  0  0
  -27.6590  -13.2129   19.8723 C   0  0  2  0  0  0
  -28.7020  -13.0241   20.9964 C   0  0  0  0  0  0
  -25.2584  -13.8169   20.5719 C   0  0  0  0  0  0
  -24.1845  -13.0446   20.9221 C   0  0  0  0  0  0
  -24.6398  -11.6917   20.8745 C   0  0  0  0  0  0
  -23.9059  -10.4303   21.0398 C   0  0  0  0  0  0
  -24.3628   -9.4212   21.9160 C   0  0  0  0  0  0
  -23.6317   -8.2241   22.0727 C   0  0  0  0  0  0
  -22.4289   -8.0281   21.3532 C   0  0  0  0  0  0
  -21.9930   -9.0240   20.4621 C   0  0  0  0  0  0
  -22.7243  -10.2130   20.3031 C   0  0  0  0  0  0
  -21.6857   -6.0740   22.5274 C   0  0  0  0  0  0
  -21.3996   -6.5629   23.8205 C   0  0  0  0  0  0
  -21.3675   -5.6778   24.9168 C   0  0  0  0  0  0
  -21.6068   -4.3044   24.7204 C   0  0  0  0  0  0
  -21.8822   -3.8143   23.4318 C   0  0  0  0  0  0
  -21.9192   -4.6972   22.3383 C   0  0  0  0  0  0
  -22.7867  -13.5237   21.1870 C   0  0  0  0  0  0
  -22.1666   -4.2172   21.0954 F   0  0  0  0  0  0
  -21.5654   -3.4515   25.7708 F   0  0  0  0  0  0
  -30.0320  -13.3178   20.4406 N   0  0  0  0  0  0
  -26.3022  -12.9367   20.3371 N   0  0  0  0  0  0
  -25.9319  -11.6521   20.5772 N   0  0  0  0  0  0
  -22.0494  -12.8229   22.0433 N   0  0  0  0  0  0
  -25.4308  -15.1892   20.4153 N   0  0  0  0  0  0
  -31.8392  -14.6477   20.0738 O   0  0  0  0  0  0
  -21.6637   -6.8892   21.4245 O   0  0  0  0  0  0
  -22.3548  -14.5523   20.6703 O   0  0  0  0  0  0
  -24.6131  -31.8694   23.2112 C   0  0  0  0  0  0
  -25.9026  -32.4838   23.8404 C   0  0  1  0  0  0
  -27.2288  -27.4499   20.0910 C   0  0  0  0  0  0
  -25.5903  -33.8653   24.2335 N   0  0  0  0  0  0
  -23.4002  -30.4923   21.5529 C   0  0  2  0  0  0
  -24.8434  -28.9591   20.1205 C   0  0  0  0  0  0
  -22.7419  -29.4650   22.5005 C   0  0  0  0  0  0
  -18.0303  -28.1362   22.8522 C   0  0  0  0  0  0
  -24.1491  -36.7298   23.2634 C   0  0  0  0  0  0
  -25.9260  -30.8413   21.3572 C   0  0  0  0  0  0
  -26.0055  -29.4751   20.7071 C   0  0  0  0  0  0
  -27.2053  -28.7304   20.6850 C   0  0  0  0  0  0
  -26.0502  -26.9396   19.5068 C   0  0  0  0  0  0
  -24.8594  -27.6881   19.5188 C   0  0  0  0  0  0
  -23.6047  -29.8228   20.1669 C   0  0  0  0  0  0
  -25.4119  -36.3131   24.0326 C   0  0  1  0  0  0
  -20.5886  -28.3627   23.1351 C   0  0  2  0  0  0
  -20.6788  -26.9382   22.5417 C   0  0  0  0  0  0
  -19.5753  -26.6388   21.5218 C   0  0  0  0  0  0
  -18.1946  -26.7919   22.1639 C   0  0  0  0  0  0
  -19.1553  -28.8813   23.2951 C   0  0  0  0  0  0
  -18.9475  -30.1430   23.8943 C   0  0  0  0  0  0
  -17.6483  -30.6585   24.0584 C   0  0  0  0  0  0
  -25.9042  -34.9500   23.5128 C   0  0  0  0  0  0
  -16.5372  -29.9093   23.6337 C   0  0  0  0  0  0
  -16.7296  -28.6508   23.0348 C   0  0  0  0  0  0
  -26.4461  -31.6599   25.0713 C   0  0  0  0  0  0
  -25.3740  -31.3665   26.1466 C   0  0  0  0  0  0
  -27.0264  -30.3066   24.6011 C   0  0  0  0  0  0
  -27.6056  -32.4299   25.7454 C   0  0  0  0  0  0
  -27.5590  -37.1818   24.8474 C   0  0  0  0  0  0
  -21.4153  -29.3010   22.3767 N   0  0  0  0  0  0
  -26.4306  -37.3804   23.9401 N   0  0  0  0  0  0
  -24.6650  -31.0824   22.0984 N   0  0  0  0  0  0
  -23.4223  -28.8195   23.3023 O   0  0  0  0  0  0
  -28.3850  -26.7068   20.0851 O   0  0  0  0  0  0
  -26.5596  -34.8936   22.4686 O   0  0  0  0  0  0
  -23.5335  -32.1415   23.7528 O   0  0  0  0  0  0
  -29.1600  -20.2750   21.5952 C   0  0  0  0  0  0
  -29.9452  -18.2768   19.8387 C   0  0  0  0  0  0
  -29.6147  -19.0413   22.1287 C   0  0  0  0  0  0
  -30.0595  -18.0342   21.2254 C   0  0  0  0  0  0
  -29.1110  -20.5508   20.2055 C   0  0  0  0  0  0
  -29.4736  -19.5008   19.3097 C   0  0  0  0  0  0
  -29.2297  -19.7424   24.5385 C   0  0  0  0  0  0
  -29.6170  -18.8541   23.6035 C   0  0  0  0  0  0
  -28.8551  -20.6597   17.2526 C   0  0  0  0  0  0
  -30.7651  -16.7373   21.6746 C   0  0  0  0  0  0
  -28.4390  -24.2268   19.8395 C   0  0  0  0  0  0
  -28.3001  -25.4505   20.7753 C   0  0  0  0  0  0
  -28.5306  -22.8936   20.6144 C   0  0  0  0  0  0
  -30.1310  -15.4651   21.2806 N   0  0  0  0  0  0
  -29.4479  -19.5559   17.9271 O   0  0  0  0  0  0
  -28.7432  -21.7980   19.7160 O   0  0  0  0  0  0
  -31.4591  -12.4169   19.1225 H   0  0  0  0  0  0
  -30.3149  -11.3137   19.8369 H   0  0  0  0  0  0
  -29.7414  -11.7786   17.4321 H   0  0  0  0  0  0
  -29.6571  -13.4886   17.7726 H   0  0  0  0  0  0
  -27.8340  -11.3069   18.8259 H   0  0  0  0  0  0
  -27.3633  -12.6300   17.7907 H   0  0  0  0  0  0
  -27.6944  -14.2568   19.5625 H   0  0  0  0  0  0
  -28.6831  -11.9990   21.3669 H   0  0  0  0  0  0
  -28.4586  -13.6503   21.8555 H   0  0  0  0  0  0
  -25.2779   -9.5696   22.4723 H   0  0  0  0  0  0
  -24.0042   -7.4627   22.7421 H   0  0  0  0  0  0
  -21.0876   -8.8750   19.8910 H   0  0  0  0  0  0
  -22.3700  -10.9667   19.6139 H   0  0  0  0  0  0
  -21.1953   -7.6128   23.9735 H   0  0  0  0  0  0
  -21.1521   -6.0478   25.9085 H   0  0  0  0  0  0
  -22.0593   -2.7610   23.2780 H   0  0  0  0  0  0
  -22.4113  -11.9906   22.4838 H   0  0  0  0  0  0
  -21.1088  -13.1217   22.2572 H   0  0  0  0  0  0
  -24.6686  -15.8467   20.5280 H   0  0  0  0  0  0
  -26.2901  -15.6302   20.1103 H   0  0  0  0  0  0
  -26.7094  -32.5542   23.1181 H   0  0  0  0  0  0
  -25.0116  -33.9829   25.0528 H   0  0  0  0  0  0
  -22.6857  -31.3072   21.4198 H   0  0  0  0  0  0
  -23.3776  -35.9615   23.3325 H   0  0  0  0  0  0
  -24.3588  -36.8877   22.2044 H   0  0  0  0  0  0
  -23.7218  -37.6506   23.6624 H   0  0  0  0  0  0
  -26.0371  -31.6068   20.5884 H   0  0  0  0  0  0
  -26.8145  -30.8960   21.9730 H   0  0  0  0  0  0
  -28.1065  -29.1292   21.1306 H   0  0  0  0  0  0
  -26.0473  -25.9656   19.0408 H   0  0  0  0  0  0
  -23.9647  -27.2846   19.0653 H   0  0  0  0  0  0
  -23.7170  -30.5969   19.4062 H   0  0  0  0  0  0
  -22.7280  -29.2424   19.8756 H   0  0  0  0  0  0
  -25.1314  -36.2001   25.0818 H   0  0  0  0  0  0
  -21.0016  -28.3153   24.1459 H   0  0  0  0  0  0
  -20.5702  -26.2231   23.3573 H   0  0  0  0  0  0
  -21.6667  -26.7405   22.1224 H   0  0  0  0  0  0
  -19.6908  -25.6314   21.1191 H   0  0  0  0  0  0
  -19.6698  -27.3243   20.6786 H   0  0  0  0  0  0
  -17.4235  -26.6692   21.4031 H   0  0  0  0  0  0
  -18.0333  -26.0028   22.9003 H   0  0  0  0  0  0
  -19.7951  -30.7249   24.2317 H   0  0  0  0  0  0
  -17.5047  -31.6252   24.5216 H   0  0  0  0  0  0
  -15.5379  -30.3015   23.7641 H   0  0  0  0  0  0
  -15.8707  -28.0833   22.7004 H   0  0  0  0  0  0
  -24.5952  -30.6965   25.7797 H   0  0  0  0  0  0
  -24.8888  -32.2799   26.4918 H   0  0  0  0  0  0
  -25.8114  -30.8847   27.0215 H   0  0  0  0  0  0
  -26.2766  -29.6864   24.1081 H   0  0  0  0  0  0
  -27.4109  -29.7261   25.4400 H   0  0  0  0  0  0
  -27.8568  -30.4450   23.9084 H   0  0  0  0  0  0
  -27.2719  -33.3615   26.2045 H   0  0  0  0  0  0
  -28.3849  -32.6816   25.0249 H   0  0  0  0  0  0
  -28.0737  -31.8401   26.5357 H   0  0  0  0  0  0
  -28.2640  -38.0092   24.7548 H   0  0  0  0  0  0
  -28.1068  -36.2640   24.6301 H   0  0  0  0  0  0
  -27.2311  -37.1450   25.8878 H   0  0  0  0  0  0
  -20.9294  -29.8777   21.7036 H   0  0  0  0  0  0
  -26.0203  -38.2886   24.1413 H   0  0  0  0  0  0
  -28.8472  -21.0415   22.2812 H   0  0  0  0  0  0
  -30.2695  -17.5085   19.1519 H   0  0  0  0  0  0
  -29.2720  -19.4738   25.5849 H   0  0  0  0  0  0
  -28.8635  -20.7342   24.3203 H   0  0  0  0  0  0
  -29.9508  -17.9110   24.0014 H   0  0  0  0  0  0
  -29.4645  -21.5580   17.3552 H   0  0  0  0  0  0
  -27.8429  -20.8628   17.6044 H   0  0  0  0  0  0
  -28.7847  -20.4387   16.1867 H   0  0  0  0  0  0
  -30.9398  -16.6929   22.7444 H   0  0  0  0  0  0
  -31.7757  -16.8025   21.2647 H   0  0  0  0  0  0
  -29.3341  -24.3412   19.2309 H   0  0  0  0  0  0
  -27.6006  -24.1901   19.1429 H   0  0  0  0  0  0
  -29.1110  -25.4390   21.5048 H   0  0  0  0  0  0
  -27.3848  -25.3695   21.3650 H   0  0  0  0  0  0
  -27.6083  -22.7309   21.1758 H   0  0  0  0  0  0
  -29.3494  -22.9673   21.3322 H   0  0  0  0  0  0
  -29.2158  -15.2701   21.6582 H   0  0  0  0  0  0
  1 25  1  0  0  0
  1 30  2  0  0  0
  1 84  1  0  0  0
  2  3  1  0  0  0
  2 25  1  0  0  0
  2 87  1  0  0  0
  2 88  1  0  0  0
  3  4  1  0  0  0
  3 89  1  0  0  0
  3 90  1  0  0  0
  4  5  1  0  0  0
  4 91  1  0  0  0
  4 92  1  0  0  0
  5  6  1  0  0  0
  5 26  1  0  0  0
  5 93  1  0  0  0
  6 25  1  0  0  0
  6 94  1  0  0  0
  6 95  1  0  0  0
  7  8  2  0  0  0
  7 26  1  0  0  0
  7 29  1  0  0  0
  8  9  1  0  0  0
  8 22  1  0  0  0
  9 10  1  0  0  0
  9 27  2  0  0  0
 10 11  2  0  0  0
 10 15  1  0  0  0
 11 12  1  0  0  0
 11 96  1  0  0  0
 12 13  2  0  0  0
 12 97  1  0  0  0
 13 14  1  0  0  0
 13 31  1  0  0  0
 14 15  2  0  0  0
 14 98  1  0  0  0
 15 99  1  0  0  0
 16 17  2  0  0  0
 16 21  1  0  0  0
 16 31  1  0  0  0
 17 18  1  0  0  0
 17100  1  0  0  0
 18 19  2  0  0  0
 18101  1  0  0  0
 19 20  1  0  0  0
 19 24  1  0  0  0
 20 21  2  0  0  0
 20102  1  0  0  0
 21 23  1  0  0  0
 22 28  1  0  0  0
 22 32  2  0  0  0
 26 27  1  0  0  0
 28103  1  0  0  0
 28104  1  0  0  0
 29105  1  0  0  0
 29106  1  0  0  0
 33 34  1  0  0  0
 33 66  1  0  0  0
 33 70  2  0  0  0
 34 36  1  0  0  0
 34 59  1  0  0  0
 34107  1  0  0  0
 35 44  2  0  0  0
 35 45  1  0  0  0
 35 68  1  0  0  0
 36 56  1  0  0  0
 36108  1  0  0  0
 37 39  1  0  0  0
 37 47  1  0  0  0
 37 66  1  0  0  0
 37109  1  0  0  0
 38 43  2  0  0  0
 38 46  1  0  0  0
 38 47  1  0  0  0
 39 64  1  0  0  0
 39 67  2  0  0  0
 40 52  1  0  0  0
 40 53  2  0  0  0
 40 58  1  0  0  0
 41110  1  0  0  0
 41111  1  0  0  0
 41112  1  0  0  0
 41 48  1  0  0  0
 42 43  1  0  0  0
 42 66  1  0  0  0
 42113  1  0  0  0
 42114  1  0  0  0
 43 44  1  0  0  0
 44115  1  0  0  0
 45 46  2  0  0  0
 45116  1  0  0  0
 46117  1  0  0  0
 47118  1  0  0  0
 47119  1  0  0  0
 48 56  1  0  0  0
 48 65  1  0  0  0
 48120  1  0  0  0
 49 50  1  0  0  0
 49 53  1  0  0  0
 49 64  1  0  0  0
 49121  1  0  0  0
 50 51  1  0  0  0
 50122  1  0  0  0
 50123  1  0  0  0
 51 52  1  0  0  0
 51124  1  0  0  0
 51125  1  0  0  0
 52126  1  0  0  0
 52127  1  0  0  0
 53 54  1  0  0  0
 54 55  2  0  0  0
 54128  1  0  0  0
 55 57  1  0  0  0
 55129  1  0  0  0
 56 69  2  0  0  0
 57 58  2  0  0  0
 57130  1  0  0  0
 58131  1  0  0  0
 59 60  1  0  0  0
 59 61  1  0  0  0
 59 62  1  0  0  0
 60132  1  0  0  0
 60133  1  0  0  0
 60134  1  0  0  0
 61135  1  0  0  0
 61136  1  0  0  0
 61137  1  0  0  0
 62138  1  0  0  0
 62139  1  0  0  0
 62140  1  0  0  0
 63 65  1  0  0  0
 63141  1  0  0  0
 63142  1  0  0  0
 63143  1  0  0  0
 64144  1  0  0  0
 65145  1  0  0  0
 68 82  1  0  0  0
 71 73  2  0  0  0
 71 75  1  0  0  0
 71146  1  0  0  0
 72 74  2  0  0  0
 72 76  1  0  0  0
 72147  1  0  0  0
 73 74  1  0  0  0
 73 78  1  0  0  0
 74 80  1  0  0  0
 75 76  2  0  0  0
 75 86  1  0  0  0
 76 85  1  0  0  0
 77 78  2  0  0  0
 77148  1  0  0  0
 77149  1  0  0  0
 78150  1  0  0  0
 79 85  1  0  0  0
 79151  1  0  0  0
 79152  1  0  0  0
 79153  1  0  0  0
 80 84  1  0  0  0
 80154  1  0  0  0
 80155  1  0  0  0
 81 82  1  0  0  0
 81 83  1  0  0  0
 81156  1  0  0  0
 81157  1  0  0  0
 82158  1  0  0  0
 82159  1  0  0  0
 83 86  1  0  0  0
 83160  1  0  0  0
 83161  1  0  0  0
 84162  1  0  0  0
M  ISO  4   1 100  68 101  82 101  84 100
M  END
> <chiral flag>
0

> <version>
0

> <s_m_source_file>
/data/baiqing/PycharmProjects/Reinvent-master-3.2/result/LINK_invent/BTK/process_docking_weight1_custom_product_contain_oxygen_bond_distance_aromatic_linkinvent_7_9_3/rearranged_h_0104.sdf

> <i_m_source_file_index>
26

> <r_mmod_Potential_Energy-OPLS-2005>
-69.8282165527344

> <r_mmod_Stretch_Energy-OPLS-2005>
41.6988754272461

> <r_mmod_Bend_Energy-OPLS-2005>
121.528663635254

> <r_mmod_Torsional_Energy-OPLS-2005>
219.335433959961

> <r_mmod_Improper_Torsional_Energy-OPLS-2005>
2.46210026741028

> <r_mmod_Van_der_Waal_Energy-OPLS-2005>
173.350646972656

> <r_mmod_Electrostatic_Energy-OPLS-2005>
-426.270263671875

> <r_mmod_Solvation_Energy-OPLS-2005>
-214.255615234375

> <b_mmod_Minimization_Converged-OPLS-2005>
0

> <r_mmod_RMS_Derivative-OPLS-2005>
3.93466663360596

$$$$
27
                    3D
 Structure written by MMmdl.
160168  0  0  1  0            999 V2000
  -30.7496  -14.4864   20.6357 C   0  0  0  0  0  0
  -30.4181  -12.3458   19.4186 C   0  0  0  0  0  0
  -29.4905  -12.5154   18.1996 C   0  0  0  0  0  0
  -28.0160  -12.3512   18.6110 C   0  0  0  0  0  0
  -27.6528  -13.1961   19.8581 C   0  0  2  0  0  0
  -28.6925  -13.0241   20.9822 C   0  0  0  0  0  0
  -25.2583  -13.8133   20.5665 C   0  0  0  0  0  0
  -24.1826  -13.0416   20.9150 C   0  0  0  0  0  0
  -24.6373  -11.6884   20.8697 C   0  0  0  0  0  0
  -23.9041  -10.4280   21.0383 C   0  0  0  0  0  0
  -24.3599   -9.4206   21.9171 C   0  0  0  0  0  0
  -23.6273   -8.2242   22.0751 C   0  0  0  0  0  0
  -22.4254   -8.0273   21.3543 C   0  0  0  0  0  0
  -21.9884   -9.0242   20.4640 C   0  0  0  0  0  0
  -22.7213  -10.2119   20.3043 C   0  0  0  0  0  0
  -21.6849   -6.0720   22.5271 C   0  0  0  0  0  0
  -21.4007   -6.5626   23.8200 C   0  0  0  0  0  0
  -21.3665   -5.6785   24.9168 C   0  0  0  0  0  0
  -21.6039   -4.3046   24.7219 C   0  0  0  0  0  0
  -21.8827   -3.8138   23.4344 C   0  0  0  0  0  0
  -21.9199   -4.6951   22.3397 C   0  0  0  0  0  0
  -22.7862  -13.5235   21.1836 C   0  0  0  0  0  0
  -22.1663   -4.2139   21.0976 F   0  0  0  0  0  0
  -21.5639   -3.4535   25.7738 F   0  0  0  0  0  0
  -30.0311  -13.3355   20.4425 N   0  0  0  0  0  0
  -26.2977  -12.9262   20.3285 N   0  0  0  0  0  0
  -25.9290  -11.6433   20.5704 N   0  0  0  0  0  0
  -22.0500  -12.8234   22.0401 N   0  0  0  0  0  0
  -25.4335  -15.1851   20.4154 N   0  0  0  0  0  0
  -31.8068  -14.7009   20.0357 O   0  0  0  0  0  0
  -21.6636   -6.8861   21.4230 O   0  0  0  0  0  0
  -22.3568  -14.5559   20.6711 O   0  0  0  0  0  0
  -24.6173  -31.8675   23.2092 C   0  0  0  0  0  0
  -25.9065  -32.4816   23.8398 C   0  0  1  0  0  0
  -27.2307  -27.4094   20.1095 C   0  0  0  0  0  0
  -25.5923  -33.8620   24.2332 N   0  0  0  0  0  0
  -23.4075  -30.4907   21.5493 C   0  0  2  0  0  0
  -24.8529  -28.9543   20.1160 C   0  0  0  0  0  0
  -22.7422  -29.4659   22.4970 C   0  0  0  0  0  0
  -18.0279  -28.1368   22.8494 C   0  0  0  0  0  0
  -24.1480  -36.7305   23.2639 C   0  0  0  0  0  0
  -25.9375  -30.8269   21.3638 C   0  0  0  0  0  0
  -26.0158  -29.4596   20.7112 C   0  0  0  0  0  0
  -27.2099  -28.6966   20.7007 C   0  0  0  0  0  0
  -26.0500  -26.9329   19.4953 C   0  0  0  0  0  0
  -24.8657  -27.6903   19.5047 C   0  0  0  0  0  0
  -23.6178  -29.8252   20.1630 C   0  0  0  0  0  0
  -25.4107  -36.3112   24.0332 C   0  0  1  0  0  0
  -20.5864  -28.3673   23.1306 C   0  0  2  0  0  0
  -20.6767  -26.9407   22.5421 C   0  0  0  0  0  0
  -19.5738  -26.6387   21.5212 C   0  0  0  0  0  0
  -18.1914  -26.7926   22.1620 C   0  0  0  0  0  0
  -19.1527  -28.8836   23.2903 C   0  0  0  0  0  0
  -18.9457  -30.1438   23.8917 C   0  0  0  0  0  0
  -17.6463  -30.6586   24.0549 C   0  0  0  0  0  0
  -25.9040  -34.9478   23.5133 C   0  0  0  0  0  0
  -16.5353  -29.9086   23.6322 C   0  0  0  0  0  0
  -16.7268  -28.6494   23.0362 C   0  0  0  0  0  0
  -26.4497  -31.6585   25.0723 C   0  0  0  0  0  0
  -25.3765  -31.3680   26.1473 C   0  0  0  0  0  0
  -27.0350  -30.3039   24.6087 C   0  0  0  0  0  0
  -27.6066  -32.4315   25.7495 C   0  0  0  0  0  0
  -27.5572  -37.1816   24.8470 C   0  0  0  0  0  0
  -21.4145  -29.3039   22.3709 N   0  0  0  0  0  0
  -26.4285  -37.3804   23.9412 N   0  0  0  0  0  0
  -24.6726  -31.0753   22.0998 N   0  0  0  0  0  0
  -23.4170  -28.8211   23.3039 O   0  0  0  0  0  0
  -28.3830  -26.6418   20.1212 O   0  0  0  0  0  0
  -26.5588  -34.8937   22.4684 O   0  0  0  0  0  0
  -23.5366  -32.1431   23.7477 O   0  0  0  0  0  0
  -29.4982  -18.8524   19.9494 C   0  0  0  0  0  0
  -30.7309  -17.7552   22.1921 C   0  0  0  0  0  0
  -29.5794  -17.4387   20.0882 C   0  0  0  0  0  0
  -30.1972  -16.8450   21.2374 C   0  0  0  0  0  0
  -30.0236  -19.7403   20.9188 C   0  0  0  0  0  0
  -30.6569  -19.1568   22.0347 C   0  0  0  0  0  0
  -28.9270  -16.6324   18.9786 C   0  0  0  0  0  0
  -30.3876  -14.9997   22.9268 C   0  0  0  0  0  0
  -29.5140  -24.4195   20.4357 C   0  0  0  0  0  0
  -29.4149  -23.1653   19.5176 C   0  0  0  0  0  0
  -28.2204  -25.2715   20.5591 C   0  0  0  0  0  0
  -28.9432  -21.8227   20.1505 C   0  0  0  0  0  0
  -30.2595  -15.4075   21.5150 N   0  0  0  0  0  0
  -30.0072  -21.1320   20.8312 O   0  0  0  0  0  0
  -31.1927  -19.9583   22.9879 F   0  0  0  0  0  0
  -31.4609  -12.4424   19.1114 H   0  0  0  0  0  0
  -30.3271  -11.3374   19.8245 H   0  0  0  0  0  0
  -29.7442  -11.7863   17.4290 H   0  0  0  0  0  0
  -29.6430  -13.4971   17.7488 H   0  0  0  0  0  0
  -27.8436  -11.2934   18.8143 H   0  0  0  0  0  0
  -27.3635  -12.6116   17.7766 H   0  0  0  0  0  0
  -27.6798  -14.2312   19.5390 H   0  0  0  0  0  0
  -28.6803  -12.0016   21.3612 H   0  0  0  0  0  0
  -28.4028  -13.6571   21.8190 H   0  0  0  0  0  0
  -25.2742   -9.5687   22.4750 H   0  0  0  0  0  0
  -23.9974   -7.4634   22.7475 H   0  0  0  0  0  0
  -21.0812   -8.8738   19.8956 H   0  0  0  0  0  0
  -22.3648  -10.9640   19.6149 H   0  0  0  0  0  0
  -21.1989   -7.6133   23.9690 H   0  0  0  0  0  0
  -21.1486   -6.0525   25.9066 H   0  0  0  0  0  0
  -22.0607   -2.7601   23.2849 H   0  0  0  0  0  0
  -22.4098  -11.9885   22.4768 H   0  0  0  0  0  0
  -21.1137  -13.1293   22.2634 H   0  0  0  0  0  0
  -24.6765  -15.8471   20.5436 H   0  0  0  0  0  0
  -26.3086  -15.6256   20.1655 H   0  0  0  0  0  0
  -26.7142  -32.5536   23.1164 H   0  0  0  0  0  0
  -25.0110  -33.9790   25.0499 H   0  0  0  0  0  0
  -22.6988  -31.3089   21.4084 H   0  0  0  0  0  0
  -23.3748  -35.9631   23.3315 H   0  0  0  0  0  0
  -24.3573  -36.8909   22.2052 H   0  0  0  0  0  0
  -23.7220  -37.6502   23.6663 H   0  0  0  0  0  0
  -26.0502  -31.5936   20.5958 H   0  0  0  0  0  0
  -26.8242  -30.8822   21.9836 H   0  0  0  0  0  0
  -28.1076  -29.0837   21.1612 H   0  0  0  0  0  0
  -26.0280  -25.9763   18.9943 H   0  0  0  0  0  0
  -23.9746  -27.2952   19.0367 H   0  0  0  0  0  0
  -23.7312  -30.6022   19.4058 H   0  0  0  0  0  0
  -22.7401  -29.2503   19.8605 H   0  0  0  0  0  0
  -25.1276  -36.1993   25.0822 H   0  0  0  0  0  0
  -20.9948  -28.3246   24.1424 H   0  0  0  0  0  0
  -20.5675  -26.2276   23.3608 H   0  0  0  0  0  0
  -21.6641  -26.7458   22.1200 H   0  0  0  0  0  0
  -19.6901  -25.6300   21.1234 H   0  0  0  0  0  0
  -19.6674  -27.3205   20.6742 H   0  0  0  0  0  0
  -17.4187  -26.6690   21.4014 H   0  0  0  0  0  0
  -18.0304  -26.0061   22.9008 H   0  0  0  0  0  0
  -19.7946  -30.7243   24.2285 H   0  0  0  0  0  0
  -17.5030  -31.6275   24.5151 H   0  0  0  0  0  0
  -15.5355  -30.2994   23.7637 H   0  0  0  0  0  0
  -15.8669  -28.0813   22.7069 H   0  0  0  0  0  0
  -24.5947  -30.7007   25.7819 H   0  0  0  0  0  0
  -24.8930  -32.2818   26.4946 H   0  0  0  0  0  0
  -25.8116  -30.8854   27.0229 H   0  0  0  0  0  0
  -26.2891  -29.6780   24.1169 H   0  0  0  0  0  0
  -27.4167  -29.7301   25.4539 H   0  0  0  0  0  0
  -27.8707  -30.4354   23.9204 H   0  0  0  0  0  0
  -27.2672  -33.3614   26.2077 H   0  0  0  0  0  0
  -28.3888  -32.6873   25.0328 H   0  0  0  0  0  0
  -28.0723  -31.8431   26.5412 H   0  0  0  0  0  0
  -28.2603  -38.0105   24.7531 H   0  0  0  0  0  0
  -28.1060  -36.2642   24.6293 H   0  0  0  0  0  0
  -27.2292  -37.1453   25.8874 H   0  0  0  0  0  0
  -20.9306  -29.8769   21.6935 H   0  0  0  0  0  0
  -26.0179  -38.2874   24.1449 H   0  0  0  0  0  0
  -29.0290  -19.2449   19.0614 H   0  0  0  0  0  0
  -31.2214  -17.4066   23.0875 H   0  0  0  0  0  0
  -28.8295  -17.2266   18.0695 H   0  0  0  0  0  0
  -27.9172  -16.3586   19.2761 H   0  0  0  0  0  0
  -29.4861  -15.7453   18.6942 H   0  0  0  0  0  0
  -29.6430  -15.5062   23.5425 H   0  0  0  0  0  0
  -31.3812  -15.2325   23.3130 H   0  0  0  0  0  0
  -30.2547  -13.9286   23.0864 H   0  0  0  0  0  0
  -30.2995  -25.0661   20.0435 H   0  0  0  0  0  0
  -29.8595  -24.1189   21.4261 H   0  0  0  0  0  0
  -30.3854  -22.9898   19.0531 H   0  0  0  0  0  0
  -28.7526  -23.4109   18.6852 H   0  0  0  0  0  0
  -27.9183  -25.2960   21.6086 H   0  0  0  0  0  0
  -27.4151  -24.7601   20.0361 H   0  0  0  0  0  0
  -28.5167  -21.2274   19.3470 H   0  0  0  0  0  0
  -28.1270  -22.0026   20.8508 H   0  0  0  0  0  0
  1 25  1  0  0  0
  1 30  2  0  0  0
  1 83  1  0  0  0
  2  3  1  0  0  0
  2 25  1  0  0  0
  2 86  1  0  0  0
  2 87  1  0  0  0
  3  4  1  0  0  0
  3 88  1  0  0  0
  3 89  1  0  0  0
  4  5  1  0  0  0
  4 90  1  0  0  0
  4 91  1  0  0  0
  5  6  1  0  0  0
  5 26  1  0  0  0
  5 92  1  0  0  0
  6 25  1  0  0  0
  6 93  1  0  0  0
  6 94  1  0  0  0
  7  8  2  0  0  0
  7 26  1  0  0  0
  7 29  1  0  0  0
  8  9  1  0  0  0
  8 22  1  0  0  0
  9 10  1  0  0  0
  9 27  2  0  0  0
 10 11  2  0  0  0
 10 15  1  0  0  0
 11 12  1  0  0  0
 11 95  1  0  0  0
 12 13  2  0  0  0
 12 96  1  0  0  0
 13 14  1  0  0  0
 13 31  1  0  0  0
 14 15  2  0  0  0
 14 97  1  0  0  0
 15 98  1  0  0  0
 16 17  2  0  0  0
 16 21  1  0  0  0
 16 31  1  0  0  0
 17 18  1  0  0  0
 17 99  1  0  0  0
 18 19  2  0  0  0
 18100  1  0  0  0
 19 20  1  0  0  0
 19 24  1  0  0  0
 20 21  2  0  0  0
 20101  1  0  0  0
 21 23  1  0  0  0
 22 28  1  0  0  0
 22 32  2  0  0  0
 26 27  1  0  0  0
 28102  1  0  0  0
 28103  1  0  0  0
 29104  1  0  0  0
 29105  1  0  0  0
 33 34  1  0  0  0
 33 66  1  0  0  0
 33 70  2  0  0  0
 34 36  1  0  0  0
 34 59  1  0  0  0
 34106  1  0  0  0
 35 44  2  0  0  0
 35 45  1  0  0  0
 35 68  1  0  0  0
 36 56  1  0  0  0
 36107  1  0  0  0
 37 39  1  0  0  0
 37 47  1  0  0  0
 37 66  1  0  0  0
 37108  1  0  0  0
 38 43  2  0  0  0
 38 46  1  0  0  0
 38 47  1  0  0  0
 39 64  1  0  0  0
 39 67  2  0  0  0
 40 52  1  0  0  0
 40 53  2  0  0  0
 40 58  1  0  0  0
 41109  1  0  0  0
 41110  1  0  0  0
 41111  1  0  0  0
 41 48  1  0  0  0
 42 43  1  0  0  0
 42 66  1  0  0  0
 42112  1  0  0  0
 42113  1  0  0  0
 43 44  1  0  0  0
 44114  1  0  0  0
 45 46  2  0  0  0
 45115  1  0  0  0
 46116  1  0  0  0
 47117  1  0  0  0
 47118  1  0  0  0
 48 56  1  0  0  0
 48 65  1  0  0  0
 48119  1  0  0  0
 49 50  1  0  0  0
 49 53  1  0  0  0
 49 64  1  0  0  0
 49120  1  0  0  0
 50 51  1  0  0  0
 50121  1  0  0  0
 50122  1  0  0  0
 51 52  1  0  0  0
 51123  1  0  0  0
 51124  1  0  0  0
 52125  1  0  0  0
 52126  1  0  0  0
 53 54  1  0  0  0
 54 55  2  0  0  0
 54127  1  0  0  0
 55 57  1  0  0  0
 55128  1  0  0  0
 56 69  2  0  0  0
 57 58  2  0  0  0
 57129  1  0  0  0
 58130  1  0  0  0
 59 60  1  0  0  0
 59 61  1  0  0  0
 59 62  1  0  0  0
 60131  1  0  0  0
 60132  1  0  0  0
 60133  1  0  0  0
 61134  1  0  0  0
 61135  1  0  0  0
 61136  1  0  0  0
 62137  1  0  0  0
 62138  1  0  0  0
 62139  1  0  0  0
 63 65  1  0  0  0
 63140  1  0  0  0
 63141  1  0  0  0
 63142  1  0  0  0
 64143  1  0  0  0
 65144  1  0  0  0
 68 81  1  0  0  0
 71 73  2  0  0  0
 71 75  1  0  0  0
 71145  1  0  0  0
 72 74  2  0  0  0
 72 76  1  0  0  0
 72146  1  0  0  0
 73 74  1  0  0  0
 73 77  1  0  0  0
 74 83  1  0  0  0
 75 76  2  0  0  0
 75 84  1  0  0  0
 76 85  1  0  0  0
 77147  1  0  0  0
 77148  1  0  0  0
 77149  1  0  0  0
 78 83  1  0  0  0
 78150  1  0  0  0
 78151  1  0  0  0
 78152  1  0  0  0
 79 80  1  0  0  0
 79 81  1  0  0  0
 79153  1  0  0  0
 79154  1  0  0  0
 80 82  1  0  0  0
 80155  1  0  0  0
 80156  1  0  0  0
 81157  1  0  0  0
 81158  1  0  0  0
 82 84  1  0  0  0
 82159  1  0  0  0
 82160  1  0  0  0
M  ISO  4   1 100  68 101  81 101  83 100
M  END
> <chiral flag>
0

> <version>
0

> <s_m_source_file>
/data/baiqing/PycharmProjects/Reinvent-master-3.2/result/LINK_invent/BTK/process_docking_weight1_custom_product_contain_oxygen_bond_distance_aromatic_linkinvent_7_9_3/rearranged_h_0104.sdf

> <i_m_source_file_index>
27

> <r_mmod_Potential_Energy-OPLS-2005>
199.090942382812

> <r_mmod_Stretch_Energy-OPLS-2005>
53.0196151733398

> <r_mmod_Bend_Energy-OPLS-2005>
125.762107849121

> <r_mmod_Torsional_Energy-OPLS-2005>
322.353881835938

> <r_mmod_Improper_Torsional_Energy-OPLS-2005>
3.43582534790039

> <r_mmod_Van_der_Waal_Energy-OPLS-2005>
162.446990966797

> <r_mmod_Electrostatic_Energy-OPLS-2005>
-290.958435058594

> <r_mmod_Solvation_Energy-OPLS-2005>
-192.64924621582

> <b_mmod_Minimization_Converged-OPLS-2005>
0

> <r_mmod_RMS_Derivative-OPLS-2005>
1.96186554431915

$$$$
28
                    3D
 Structure written by MMmdl.
173182  0  0  1  0            999 V2000
  -30.6901  -14.4770   20.5015 C   0  0  0  0  0  0
  -30.4386  -12.2985   19.4294 C   0  0  0  0  0  0
  -29.5054  -12.4916   18.2155 C   0  0  0  0  0  0
  -28.0262  -12.3580   18.6277 C   0  0  0  0  0  0
  -27.6605  -13.2131   19.8691 C   0  0  2  0  0  0
  -28.7081  -13.0230   20.9956 C   0  0  0  0  0  0
  -25.2537  -13.8120   20.5610 C   0  0  0  0  0  0
  -24.1835  -13.0434   20.9183 C   0  0  0  0  0  0
  -24.6417  -11.6909   20.8787 C   0  0  0  0  0  0
  -23.9086  -10.4303   21.0430 C   0  0  0  0  0  0
  -24.3635   -9.4218   21.9205 C   0  0  0  0  0  0
  -23.6327   -8.2247   22.0746 C   0  0  0  0  0  0
  -22.4310   -8.0293   21.3549 C   0  0  0  0  0  0
  -21.9940   -9.0261   20.4645 C   0  0  0  0  0  0
  -22.7259  -10.2155   20.3066 C   0  0  0  0  0  0
  -21.6836   -6.0751   22.5303 C   0  0  0  0  0  0
  -21.3981   -6.5646   23.8237 C   0  0  0  0  0  0
  -21.3683   -5.6801   24.9188 C   0  0  0  0  0  0
  -21.6059   -4.3063   24.7236 C   0  0  0  0  0  0
  -21.8815   -3.8170   23.4351 C   0  0  0  0  0  0
  -21.9182   -4.6980   22.3419 C   0  0  0  0  0  0
  -22.7855  -13.5235   21.1895 C   0  0  0  0  0  0
  -22.1667   -4.2166   21.1002 F   0  0  0  0  0  0
  -21.5668   -3.4554   25.7758 F   0  0  0  0  0  0
  -30.0505  -13.2867   20.4471 N   0  0  0  0  0  0
  -26.3017  -12.9351   20.3321 N   0  0  0  0  0  0
  -25.9351  -11.6498   20.5802 N   0  0  0  0  0  0
  -22.0447  -12.8282   22.0412 N   0  0  0  0  0  0
  -25.4174  -15.1856   20.3990 N   0  0  0  0  0  0
  -31.8465  -14.6561   20.1020 O   0  0  0  0  0  0
  -21.6648   -6.8931   21.4272 O   0  0  0  0  0  0
  -22.3614  -14.5579   20.6749 O   0  0  0  0  0  0
  -24.6088  -31.8591   23.2059 C   0  0  0  0  0  0
  -25.8984  -32.4843   23.8343 C   0  0  1  0  0  0
  -27.2755  -27.4461   20.0579 C   0  0  0  0  0  0
  -25.5881  -33.8633   24.2234 N   0  0  0  0  0  0
  -23.4041  -30.4717   21.5519 C   0  0  2  0  0  0
  -24.8511  -28.9293   20.1331 C   0  0  0  0  0  0
  -22.7394  -29.4593   22.5128 C   0  0  0  0  0  0
  -18.0276  -28.1358   22.8507 C   0  0  0  0  0  0
  -24.1495  -36.7258   23.2642 C   0  0  0  0  0  0
  -25.9376  -30.8224   21.3665 C   0  0  0  0  0  0
  -26.0134  -29.4549   20.7132 C   0  0  0  0  0  0
  -27.2170  -28.7147   20.6825 C   0  0  0  0  0  0
  -26.0841  -26.9241   19.4967 C   0  0  0  0  0  0
  -24.8865  -27.6606   19.5344 C   0  0  0  0  0  0
  -23.6023  -29.7802   20.1755 C   0  0  0  0  0  0
  -25.4159  -36.3130   24.0293 C   0  0  1  0  0  0
  -20.5853  -28.3623   23.1387 C   0  0  2  0  0  0
  -20.6777  -26.9391   22.5415 C   0  0  0  0  0  0
  -19.5782  -26.6400   21.5188 C   0  0  0  0  0  0
  -18.1946  -26.7916   22.1583 C   0  0  0  0  0  0
  -19.1509  -28.8807   23.2927 C   0  0  0  0  0  0
  -18.9423  -30.1434   23.8952 C   0  0  0  0  0  0
  -17.6433  -30.6578   24.0515 C   0  0  0  0  0  0
  -25.9042  -34.9485   23.5016 C   0  0  0  0  0  0
  -16.5303  -29.9051   23.6313 C   0  0  0  0  0  0
  -16.7240  -28.6434   23.0397 C   0  0  0  0  0  0
  -26.4396  -31.6673   25.0678 C   0  0  0  0  0  0
  -25.3715  -31.3794   26.1478 C   0  0  0  0  0  0
  -27.0189  -30.3134   24.5955 C   0  0  0  0  0  0
  -27.5973  -32.4415   25.7478 C   0  0  0  0  0  0
  -27.5629  -37.1785   24.8445 C   0  0  0  0  0  0
  -21.4130  -29.2997   22.3826 N   0  0  0  0  0  0
  -26.4374  -37.3765   23.9327 N   0  0  0  0  0  0
  -24.6679  -31.0637   22.0977 N   0  0  0  0  0  0
  -23.4056  -28.8287   23.3344 O   0  0  0  0  0  0
  -28.5017  -26.7997   20.0250 O   0  0  0  0  0  0
  -26.5572  -34.8894   22.4573 O   0  0  0  0  0  0
  -23.5267  -32.1409   23.7367 O   0  0  0  0  0  0
  -29.2607  -18.8747   20.8565 C   0  0  0  0  0  0
  -31.6270  -18.3444   20.5273 C   0  0  0  0  0  0
  -29.6010  -20.1019   21.4439 C   0  0  0  0  0  0
  -31.9723  -19.5803   21.1012 C   0  0  0  0  0  0
  -30.2684  -17.9888   20.4027 C   0  0  0  0  0  0
  -30.9651  -20.4445   21.5973 C   0  0  0  0  0  0
  -31.4884  -23.0358   21.8653 C   0  0  0  0  0  0
  -30.0681  -23.7051   18.4184 C   0  0  0  0  0  0
  -30.6604  -22.6900   19.4266 C   0  0  0  0  0  0
  -30.0794  -25.0753   19.1017 C   0  0  1  0  0  0
  -31.0478  -24.8810   20.2972 C   0  0  2  0  0  0
  -32.6872  -26.8758   20.2936 C   0  0  0  0  0  0
  -30.5390  -21.6408   23.8049 C   0  0  0  0  0  0
  -29.8931  -16.6682   19.7662 C   0  0  0  0  0  0
  -28.6139  -25.4996   19.4367 C   0  0  0  0  0  0
  -32.5010  -25.3690   20.0060 C   0  0  0  0  0  0
  -31.3603  -21.6165   22.4824 C   0  0  1  0  0  0
  -31.0658  -23.4438   20.6231 N   0  0  0  0  0  0
  -29.8715  -15.5216   20.6762 N   0  0  0  0  0  0
  -31.9893  -23.8608   22.6376 O   0  0  0  0  0  0
  -31.4812  -12.4113   19.1271 H   0  0  0  0  0  0
  -30.3632  -11.2892   19.8365 H   0  0  0  0  0  0
  -29.7397  -11.7760   17.4305 H   0  0  0  0  0  0
  -29.6777  -13.4696   17.7659 H   0  0  0  0  0  0
  -27.8270  -11.3040   18.8341 H   0  0  0  0  0  0
  -27.3819  -12.6245   17.7882 H   0  0  0  0  0  0
  -27.6854  -14.2544   19.5413 H   0  0  0  0  0  0
  -28.6664  -12.0057   21.3826 H   0  0  0  0  0  0
  -28.4888  -13.6748   21.8420 H   0  0  0  0  0  0
  -25.2757   -9.5708   22.4798 H   0  0  0  0  0  0
  -24.0014   -7.4643   22.7463 H   0  0  0  0  0  0
  -21.0861   -8.8803   19.8957 H   0  0  0  0  0  0
  -22.3703  -10.9709   19.6207 H   0  0  0  0  0  0
  -21.1914   -7.6143   23.9745 H   0  0  0  0  0  0
  -21.1518   -6.0521   25.9110 H   0  0  0  0  0  0
  -22.0555   -2.7616   23.2847 H   0  0  0  0  0  0
  -22.4044  -11.9994   22.4919 H   0  0  0  0  0  0
  -21.1044  -13.1338   22.2503 H   0  0  0  0  0  0
  -24.6313  -15.8182   20.4865 H   0  0  0  0  0  0
  -26.2516  -15.6327   20.0447 H   0  0  0  0  0  0
  -26.7145  -32.5496   23.1219 H   0  0  0  0  0  0
  -25.0226  -33.9823   25.0508 H   0  0  0  0  0  0
  -22.6935  -31.2882   21.4039 H   0  0  0  0  0  0
  -23.3799  -35.9554   23.3298 H   0  0  0  0  0  0
  -24.3654  -36.8788   22.2069 H   0  0  0  0  0  0
  -23.7171  -37.6429   23.6648 H   0  0  0  0  0  0
  -26.0287  -31.5786   20.5864 H   0  0  0  0  0  0
  -26.8394  -30.9048   21.9670 H   0  0  0  0  0  0
  -28.1162  -29.1157   21.1207 H   0  0  0  0  0  0
  -26.0561  -25.9635   19.0065 H   0  0  0  0  0  0
  -23.9878  -27.2404   19.1007 H   0  0  0  0  0  0
  -23.6981  -30.5325   19.3886 H   0  0  0  0  0  0
  -22.7272  -29.1781   19.9132 H   0  0  0  0  0  0
  -25.1389  -36.2029   25.0803 H   0  0  0  0  0  0
  -20.9948  -28.3175   24.1496 H   0  0  0  0  0  0
  -20.5673  -26.2229   23.3554 H   0  0  0  0  0  0
  -21.6675  -26.7464   22.1233 H   0  0  0  0  0  0
  -19.6941  -25.6307   21.1251 H   0  0  0  0  0  0
  -19.6776  -27.3160   20.6676 H   0  0  0  0  0  0
  -17.4237  -26.6654   21.3961 H   0  0  0  0  0  0
  -18.0325  -26.0083   22.8997 H   0  0  0  0  0  0
  -19.7911  -30.7216   24.2406 H   0  0  0  0  0  0
  -17.4952  -31.6289   24.5036 H   0  0  0  0  0  0
  -15.5300  -30.2885   23.7672 H   0  0  0  0  0  0
  -15.8655  -28.0670   22.7175 H   0  0  0  0  0  0
  -24.5821  -30.7171   25.7892 H   0  0  0  0  0  0
  -24.8992  -32.2991   26.4928 H   0  0  0  0  0  0
  -25.8146  -30.8998   27.0226 H   0  0  0  0  0  0
  -26.2662  -29.6898   24.1065 H   0  0  0  0  0  0
  -27.4235  -29.7298   25.4213 H   0  0  0  0  0  0
  -27.8465  -30.4547   23.9014 H   0  0  0  0  0  0
  -27.2531  -33.3661   26.2151 H   0  0  0  0  0  0
  -28.3831  -32.7076   25.0386 H   0  0  0  0  0  0
  -28.0686  -31.8498   26.5355 H   0  0  0  0  0  0
  -28.2699  -38.0034   24.7509 H   0  0  0  0  0  0
  -28.1164  -36.2603   24.6407 H   0  0  0  0  0  0
  -27.2302  -37.1436   25.8827 H   0  0  0  0  0  0
  -20.9331  -29.8638   21.6998 H   0  0  0  0  0  0
  -26.0281  -38.2868   24.1278 H   0  0  0  0  0  0
  -28.2122  -18.6168   20.7901 H   0  0  0  0  0  0
  -32.3999  -17.6526   20.2040 H   0  0  0  0  0  0
  -28.8120  -20.7505   21.8142 H   0  0  0  0  0  0
  -33.0189  -19.8176   21.2360 H   0  0  0  0  0  0
  -29.0550  -23.4172   18.1132 H   0  0  0  0  0  0
  -30.6393  -23.7312   17.4881 H   0  0  0  0  0  0
  -31.5584  -22.2244   19.0056 H   0  0  0  0  0  0
  -29.9228  -21.9141   19.6140 H   0  0  0  0  0  0
  -30.4883  -25.8276   18.4234 H   0  0  0  0  0  0
  -30.6559  -25.4448   21.1458 H   0  0  0  0  0  0
  -33.7011  -27.1952   20.0550 H   0  0  0  0  0  0
  -32.5250  -27.0893   21.3548 H   0  0  0  0  0  0
  -32.0012  -27.5119   19.7272 H   0  0  0  0  0  0
  -30.5744  -20.6749   24.3104 H   0  0  0  0  0  0
  -29.4875  -21.8893   23.6328 H   0  0  0  0  0  0
  -30.9187  -22.3748   24.5142 H   0  0  0  0  0  0
  -28.8951  -16.7684   19.3457 H   0  0  0  0  0  0
  -30.5541  -16.4841   18.9136 H   0  0  0  0  0  0
  -28.0763  -25.4832   18.4835 H   0  0  0  0  0  0
  -28.1437  -24.7696   20.0995 H   0  0  0  0  0  0
  -32.7959  -25.1226   18.9799 H   0  0  0  0  0  0
  -33.2253  -24.8267   20.6195 H   0  0  0  0  0  0
  -32.3851  -21.3972   22.7993 H   0  0  0  0  0  0
  -28.9688  -15.3003   21.0730 H   0  0  0  0  0  0
  1 25  1  0  0  0
  1 30  2  0  0  0
  1 89  1  0  0  0
  2  3  1  0  0  0
  2 25  1  0  0  0
  2 91  1  0  0  0
  2 92  1  0  0  0
  3  4  1  0  0  0
  3 93  1  0  0  0
  3 94  1  0  0  0
  4  5  1  0  0  0
  4 95  1  0  0  0
  4 96  1  0  0  0
  5  6  1  0  0  0
  5 26  1  0  0  0
  5 97  1  0  0  0
  6 25  1  0  0  0
  6 98  1  0  0  0
  6 99  1  0  0  0
  7  8  2  0  0  0
  7 26  1  0  0  0
  7 29  1  0  0  0
  8  9  1  0  0  0
  8 22  1  0  0  0
  9 10  1  0  0  0
  9 27  2  0  0  0
 10 11  2  0  0  0
 10 15  1  0  0  0
 11 12  1  0  0  0
 11100  1  0  0  0
 12 13  2  0  0  0
 12101  1  0  0  0
 13 14  1  0  0  0
 13 31  1  0  0  0
 14 15  2  0  0  0
 14102  1  0  0  0
 15103  1  0  0  0
 16 17  2  0  0  0
 16 21  1  0  0  0
 16 31  1  0  0  0
 17 18  1  0  0  0
 17104  1  0  0  0
 18 19  2  0  0  0
 18105  1  0  0  0
 19 20  1  0  0  0
 19 24  1  0  0  0
 20 21  2  0  0  0
 20106  1  0  0  0
 21 23  1  0  0  0
 22 28  1  0  0  0
 22 32  2  0  0  0
 26 27  1  0  0  0
 28107  1  0  0  0
 28108  1  0  0  0
 29109  1  0  0  0
 29110  1  0  0  0
 33 34  1  0  0  0
 33 66  1  0  0  0
 33 70  2  0  0  0
 34 36  1  0  0  0
 34 59  1  0  0  0
 34111  1  0  0  0
 35 44  2  0  0  0
 35 45  1  0  0  0
 35 68  1  0  0  0
 36 56  1  0  0  0
 36112  1  0  0  0
 37 39  1  0  0  0
 37 47  1  0  0  0
 37 66  1  0  0  0
 37113  1  0  0  0
 38 43  2  0  0  0
 38 46  1  0  0  0
 38 47  1  0  0  0
 39 64  1  0  0  0
 39 67  2  0  0  0
 40 52  1  0  0  0
 40 53  2  0  0  0
 40 58  1  0  0  0
 41114  1  0  0  0
 41115  1  0  0  0
 41116  1  0  0  0
 41 48  1  0  0  0
 42 43  1  0  0  0
 42 66  1  0  0  0
 42117  1  0  0  0
 42118  1  0  0  0
 43 44  1  0  0  0
 44119  1  0  0  0
 45 46  2  0  0  0
 45120  1  0  0  0
 46121  1  0  0  0
 47122  1  0  0  0
 47123  1  0  0  0
 48 56  1  0  0  0
 48 65  1  0  0  0
 48124  1  0  0  0
 49 50  1  0  0  0
 49 53  1  0  0  0
 49 64  1  0  0  0
 49125  1  0  0  0
 50 51  1  0  0  0
 50126  1  0  0  0
 50127  1  0  0  0
 51 52  1  0  0  0
 51128  1  0  0  0
 51129  1  0  0  0
 52130  1  0  0  0
 52131  1  0  0  0
 53 54  1  0  0  0
 54 55  2  0  0  0
 54132  1  0  0  0
 55 57  1  0  0  0
 55133  1  0  0  0
 56 69  2  0  0  0
 57 58  2  0  0  0
 57134  1  0  0  0
 58135  1  0  0  0
 59 60  1  0  0  0
 59 61  1  0  0  0
 59 62  1  0  0  0
 60136  1  0  0  0
 60137  1  0  0  0
 60138  1  0  0  0
 61139  1  0  0  0
 61140  1  0  0  0
 61141  1  0  0  0
 62142  1  0  0  0
 62143  1  0  0  0
 62144  1  0  0  0
 63 65  1  0  0  0
 63145  1  0  0  0
 63146  1  0  0  0
 63147  1  0  0  0
 64148  1  0  0  0
 65149  1  0  0  0
 68 85  1  0  0  0
 71 73  2  0  0  0
 71 75  1  0  0  0
 71150  1  0  0  0
 72 74  1  0  0  0
 72 75  2  0  0  0
 72151  1  0  0  0
 73 76  1  0  0  0
 73152  1  0  0  0
 74 76  2  0  0  0
 74153  1  0  0  0
 75 84  1  0  0  0
 76 87  1  0  0  0
 77 87  1  0  0  0
 77 88  1  0  0  0
 77 90  2  0  0  0
 78 79  1  0  0  0
 78 80  1  0  0  0
 78154  1  0  0  0
 78155  1  0  0  0
 79 88  1  0  0  0
 79156  1  0  0  0
 79157  1  0  0  0
 80 81  1  0  0  0
 80 85  1  0  0  0
 80158  1  0  0  0
 81 86  1  0  0  0
 81 88  1  0  0  0
 81159  1  0  0  0
 82 86  1  0  0  0
 82160  1  0  0  0
 82161  1  0  0  0
 82162  1  0  0  0
 83163  1  0  0  0
 83164  1  0  0  0
 83165  1  0  0  0
 83 87  1  0  0  0
 84 89  1  0  0  0
 84166  1  0  0  0
 84167  1  0  0  0
 85168  1  0  0  0
 85169  1  0  0  0
 86170  1  0  0  0
 86171  1  0  0  0
 87172  1  0  0  0
 89173  1  0  0  0
M  ISO  4   1 100  68 101  85 101  89 100
M  END
> <chiral flag>
0

> <version>
0

> <s_m_source_file>
/data/baiqing/PycharmProjects/Reinvent-master-3.2/result/LINK_invent/BTK/process_docking_weight1_custom_product_contain_oxygen_bond_distance_aromatic_linkinvent_7_9_3/rearranged_h_0104.sdf

> <i_m_source_file_index>
28

> <r_mmod_Potential_Energy-OPLS-2005>
152.926376342773

> <r_mmod_Stretch_Energy-OPLS-2005>
44.5781402587891

> <r_mmod_Bend_Energy-OPLS-2005>
153.069519042969

> <r_mmod_Torsional_Energy-OPLS-2005>
346.465423583984

> <r_mmod_Improper_Torsional_Energy-OPLS-2005>
13.4929180145264

> <r_mmod_Van_der_Waal_Energy-OPLS-2005>
159.74104309082

> <r_mmod_Electrostatic_Energy-OPLS-2005>
-360.368591308594

> <r_mmod_Solvation_Energy-OPLS-2005>
-220.817260742188

> <b_mmod_Minimization_Converged-OPLS-2005>
0

> <r_mmod_RMS_Derivative-OPLS-2005>
11.4231157302856

$$$$
29
                    3D
 Structure written by MMmdl.
162170  0  0  1  0            999 V2000
  -30.7805  -14.3130   20.7471 C   0  0  0  0  0  0
  -30.4144  -12.2979   19.3650 C   0  0  0  0  0  0
  -29.4713  -12.5411   18.1743 C   0  0  0  0  0  0
  -27.9989  -12.3863   18.5978 C   0  0  0  0  0  0
  -27.6627  -13.1982   19.8751 C   0  0  2  0  0  0
  -28.6976  -12.9155   20.9816 C   0  0  0  0  0  0
  -25.2593  -13.8152   20.5659 C   0  0  0  0  0  0
  -24.1841  -13.0447   20.9166 C   0  0  0  0  0  0
  -24.6377  -11.6908   20.8720 C   0  0  0  0  0  0
  -23.9042  -10.4299   21.0408 C   0  0  0  0  0  0
  -24.3600   -9.4216   21.9185 C   0  0  0  0  0  0
  -23.6286   -8.2246   22.0751 C   0  0  0  0  0  0
  -22.4269   -8.0276   21.3537 C   0  0  0  0  0  0
  -21.9904   -9.0248   20.4640 C   0  0  0  0  0  0
  -22.7220  -10.2134   20.3054 C   0  0  0  0  0  0
  -21.6852   -6.0730   22.5277 C   0  0  0  0  0  0
  -21.4013   -6.5635   23.8213 C   0  0  0  0  0  0
  -21.3661   -5.6790   24.9175 C   0  0  0  0  0  0
  -21.6047   -4.3052   24.7226 C   0  0  0  0  0  0
  -21.8820   -3.8145   23.4350 C   0  0  0  0  0  0
  -21.9191   -4.6960   22.3405 C   0  0  0  0  0  0
  -22.7871  -13.5244   21.1848 C   0  0  0  0  0  0
  -22.1658   -4.2149   21.0981 F   0  0  0  0  0  0
  -21.5635   -3.4538   25.7743 F   0  0  0  0  0  0
  -30.0440  -13.2140   20.4521 N   0  0  0  0  0  0
  -26.3018  -12.9312   20.3341 N   0  0  0  0  0  0
  -25.9287  -11.6475   20.5717 N   0  0  0  0  0  0
  -22.0506  -12.8220   22.0391 N   0  0  0  0  0  0
  -25.4338  -15.1867   20.4067 N   0  0  0  0  0  0
  -31.7635  -14.6797   20.0943 O   0  0  0  0  0  0
  -21.6633   -6.8877   21.4239 O   0  0  0  0  0  0
  -22.3556  -14.5561   20.6715 O   0  0  0  0  0  0
  -24.6116  -31.8696   23.2119 C   0  0  0  0  0  0
  -25.9021  -32.4834   23.8406 C   0  0  1  0  0  0
  -27.2326  -27.4634   20.0924 C   0  0  0  0  0  0
  -25.5879  -33.8636   24.2338 N   0  0  0  0  0  0
  -23.3980  -30.4919   21.5524 C   0  0  2  0  0  0
  -24.8446  -28.9559   20.1219 C   0  0  0  0  0  0
  -22.7391  -29.4674   22.5026 C   0  0  0  0  0  0
  -18.0262  -28.1385   22.8506 C   0  0  0  0  0  0
  -24.1478  -36.7320   23.2638 C   0  0  0  0  0  0
  -25.9226  -30.8411   21.3621 C   0  0  0  0  0  0
  -26.0011  -29.4735   20.7206 C   0  0  0  0  0  0
  -27.2001  -28.7300   20.7122 C   0  0  0  0  0  0
  -26.0683  -26.9493   19.4915 C   0  0  0  0  0  0
  -24.8700  -27.6887   19.5097 C   0  0  0  0  0  0
  -23.6051  -29.8206   20.1687 C   0  0  0  0  0  0
  -25.4100  -36.3118   24.0336 C   0  0  1  0  0  0
  -20.5850  -28.3666   23.1331 C   0  0  2  0  0  0
  -20.6757  -26.9404   22.5422 C   0  0  0  0  0  0
  -19.5737  -26.6394   21.5213 C   0  0  0  0  0  0
  -18.1903  -26.7937   22.1612 C   0  0  0  0  0  0
  -19.1508  -28.8840   23.2909 C   0  0  0  0  0  0
  -18.9445  -30.1446   23.8920 C   0  0  0  0  0  0
  -17.6451  -30.6585   24.0579 C   0  0  0  0  0  0
  -25.9031  -34.9486   23.5138 C   0  0  0  0  0  0
  -16.5341  -29.9091   23.6339 C   0  0  0  0  0  0
  -16.7255  -28.6514   23.0349 C   0  0  0  0  0  0
  -26.4455  -31.6606   25.0727 C   0  0  0  0  0  0
  -25.3727  -31.3692   26.1479 C   0  0  0  0  0  0
  -27.0297  -30.3060   24.6080 C   0  0  0  0  0  0
  -27.6039  -32.4327   25.7478 C   0  0  0  0  0  0
  -27.5586  -37.1803   24.8457 C   0  0  0  0  0  0
  -21.4127  -29.3033   22.3752 N   0  0  0  0  0  0
  -26.4284  -37.3805   23.9417 N   0  0  0  0  0  0
  -24.6622  -31.0825   22.1006 N   0  0  0  0  0  0
  -23.4168  -28.8219   23.3061 O   0  0  0  0  0  0
  -28.3978  -26.7514   19.9950 O   0  0  0  0  0  0
  -26.5606  -34.8931   22.4704 O   0  0  0  0  0  0
  -23.5314  -32.1448   23.7520 O   0  0  0  0  0  0
  -31.9461  -18.1803   22.0685 C   0  0  0  0  0  0
  -29.3455  -19.2457   22.1322 C   0  0  0  0  0  0
  -30.8584  -17.3273   22.3411 C   0  0  0  0  0  0
  -29.5417  -17.8637   22.3688 C   0  0  0  0  0  0
  -31.7437  -19.5521   21.8508 C   0  0  0  0  0  0
  -30.4469  -20.1032   21.8940 C   0  0  0  0  0  0
  -28.3286  -16.9981   22.6798 C   0  0  0  0  0  0
  -31.1784  -15.8705   22.6627 C   0  0  0  0  0  0
  -28.3660  -24.5448   21.0358 C   0  0  0  0  0  0
  -29.4298  -23.6160   21.6444 C   0  0  0  0  0  0
  -28.7785  -26.0265   21.1570 C   0  0  0  0  0  0
  -29.1011  -22.1133   21.6339 C   0  0  0  0  0  0
  -32.8359  -20.3824   21.6071 N   0  0  0  0  0  0
  -30.4286  -14.8848   21.9012 N   0  0  0  0  0  0
  -30.3643  -21.4690   21.7266 O   0  0  0  0  0  0
  -31.4528  -12.4216   19.0524 H   0  0  0  0  0  0
  -30.3310  -11.2669   19.7122 H   0  0  0  0  0  0
  -29.7013  -11.8491   17.3636 H   0  0  0  0  0  0
  -29.6335  -13.5435   17.7752 H   0  0  0  0  0  0
  -27.8063  -11.3257   18.7677 H   0  0  0  0  0  0
  -27.3407  -12.6862   17.7809 H   0  0  0  0  0  0
  -27.7280  -14.2558   19.6183 H   0  0  0  0  0  0
  -28.6580  -11.8652   21.2741 H   0  0  0  0  0  0
  -28.4293  -13.4712   21.8801 H   0  0  0  0  0  0
  -25.2753   -9.5697   22.4750 H   0  0  0  0  0  0
  -24.0004   -7.4644   22.7477 H   0  0  0  0  0  0
  -21.0835   -8.8767   19.8942 H   0  0  0  0  0  0
  -22.3686  -10.9671   19.6159 H   0  0  0  0  0  0
  -21.2006   -7.6139   23.9712 H   0  0  0  0  0  0
  -21.1480   -6.0519   25.9074 H   0  0  0  0  0  0
  -22.0598   -2.7611   23.2850 H   0  0  0  0  0  0
  -22.4118  -11.9862   22.4742 H   0  0  0  0  0  0
  -21.1136  -13.1250   22.2630 H   0  0  0  0  0  0
  -24.6706  -15.8456   20.5171 H   0  0  0  0  0  0
  -26.2907  -15.6210   20.0877 H   0  0  0  0  0  0
  -26.7093  -32.5569   23.1181 H   0  0  0  0  0  0
  -25.0034  -33.9803   25.0487 H   0  0  0  0  0  0
  -22.6850  -31.3066   21.4116 H   0  0  0  0  0  0
  -23.3742  -35.9652   23.3296 H   0  0  0  0  0  0
  -24.3582  -36.8942   22.2061 H   0  0  0  0  0  0
  -23.7229  -37.6517   23.6664 H   0  0  0  0  0  0
  -26.0258  -31.6022   20.5868 H   0  0  0  0  0  0
  -26.8147  -30.9020   21.9732 H   0  0  0  0  0  0
  -28.0991  -29.1332   21.1577 H   0  0  0  0  0  0
  -26.0956  -25.9847   19.0030 H   0  0  0  0  0  0
  -23.9829  -27.2837   19.0419 H   0  0  0  0  0  0
  -23.7089  -30.5913   19.4041 H   0  0  0  0  0  0
  -22.7299  -29.2373   19.8787 H   0  0  0  0  0  0
  -25.1274  -36.1990   25.0829 H   0  0  0  0  0  0
  -20.9935  -28.3224   24.1451 H   0  0  0  0  0  0
  -20.5656  -26.2273   23.3607 H   0  0  0  0  0  0
  -21.6630  -26.7440   22.1230 H   0  0  0  0  0  0
  -19.6898  -25.6306   21.1242 H   0  0  0  0  0  0
  -19.6671  -27.3219   20.6754 H   0  0  0  0  0  0
  -17.4181  -26.6711   21.3993 H   0  0  0  0  0  0
  -18.0263  -26.0062   22.8977 H   0  0  0  0  0  0
  -19.7916  -30.7274   24.2282 H   0  0  0  0  0  0
  -17.4996  -31.6266   24.5173 H   0  0  0  0  0  0
  -15.5341  -30.3003   23.7643 H   0  0  0  0  0  0
  -15.8655  -28.0853   22.7040 H   0  0  0  0  0  0
  -24.5908  -30.7022   25.7824 H   0  0  0  0  0  0
  -24.8895  -32.2830   26.4943 H   0  0  0  0  0  0
  -25.8090  -30.8866   27.0233 H   0  0  0  0  0  0
  -26.2834  -29.6812   24.1152 H   0  0  0  0  0  0
  -27.4104  -29.7303   25.4529 H   0  0  0  0  0  0
  -27.8642  -30.4408   23.9194 H   0  0  0  0  0  0
  -27.2676  -33.3636   26.2055 H   0  0  0  0  0  0
  -28.3829  -32.6875   25.0282 H   0  0  0  0  0  0
  -28.0714  -31.8448   26.5384 H   0  0  0  0  0  0
  -28.2583  -38.0123   24.7547 H   0  0  0  0  0  0
  -28.1101  -36.2654   24.6224 H   0  0  0  0  0  0
  -27.2316  -37.1409   25.8862 H   0  0  0  0  0  0
  -20.9285  -29.8774   21.6995 H   0  0  0  0  0  0
  -26.0174  -38.2880   24.1429 H   0  0  0  0  0  0
  -32.9489  -17.7762   22.0458 H   0  0  0  0  0  0
  -28.3402  -19.6389   22.1670 H   0  0  0  0  0  0
  -27.4441  -17.6037   22.8827 H   0  0  0  0  0  0
  -28.5037  -16.3768   23.5592 H   0  0  0  0  0  0
  -28.0940  -16.3463   21.8374 H   0  0  0  0  0  0
  -30.9682  -15.7071   23.7196 H   0  0  0  0  0  0
  -32.2469  -15.6790   22.5482 H   0  0  0  0  0  0
  -27.3908  -24.3908   21.5001 H   0  0  0  0  0  0
  -28.2473  -24.2837   19.9832 H   0  0  0  0  0  0
  -29.6493  -23.9235   22.6672 H   0  0  0  0  0  0
  -30.3524  -23.7679   21.0820 H   0  0  0  0  0  0
  -29.8642  -26.1083   21.2235 H   0  0  0  0  0  0
  -28.3858  -26.4645   22.0772 H   0  0  0  0  0  0
  -28.5995  -21.8171   20.7115 H   0  0  0  0  0  0
  -28.4512  -21.8683   22.4754 H   0  0  0  0  0  0
  -33.7265  -20.1201   22.0171 H   0  0  0  0  0  0
  -32.6454  -21.3767   21.6903 H   0  0  0  0  0  0
  -29.6329  -14.4729   22.3628 H   0  0  0  0  0  0
  1 25  1  0  0  0
  1 30  2  0  0  0
  1 84  1  0  0  0
  2  3  1  0  0  0
  2 25  1  0  0  0
  2 86  1  0  0  0
  2 87  1  0  0  0
  3  4  1  0  0  0
  3 88  1  0  0  0
  3 89  1  0  0  0
  4  5  1  0  0  0
  4 90  1  0  0  0
  4 91  1  0  0  0
  5  6  1  0  0  0
  5 26  1  0  0  0
  5 92  1  0  0  0
  6 25  1  0  0  0
  6 93  1  0  0  0
  6 94  1  0  0  0
  7  8  2  0  0  0
  7 26  1  0  0  0
  7 29  1  0  0  0
  8  9  1  0  0  0
  8 22  1  0  0  0
  9 10  1  0  0  0
  9 27  2  0  0  0
 10 11  2  0  0  0
 10 15  1  0  0  0
 11 12  1  0  0  0
 11 95  1  0  0  0
 12 13  2  0  0  0
 12 96  1  0  0  0
 13 14  1  0  0  0
 13 31  1  0  0  0
 14 15  2  0  0  0
 14 97  1  0  0  0
 15 98  1  0  0  0
 16 17  2  0  0  0
 16 21  1  0  0  0
 16 31  1  0  0  0
 17 18  1  0  0  0
 17 99  1  0  0  0
 18 19  2  0  0  0
 18100  1  0  0  0
 19 20  1  0  0  0
 19 24  1  0  0  0
 20 21  2  0  0  0
 20101  1  0  0  0
 21 23  1  0  0  0
 22 28  1  0  0  0
 22 32  2  0  0  0
 26 27  1  0  0  0
 28102  1  0  0  0
 28103  1  0  0  0
 29104  1  0  0  0
 29105  1  0  0  0
 33 34  1  0  0  0
 33 66  1  0  0  0
 33 70  2  0  0  0
 34 36  1  0  0  0
 34 59  1  0  0  0
 34106  1  0  0  0
 35 44  2  0  0  0
 35 45  1  0  0  0
 35 68  1  0  0  0
 36 56  1  0  0  0
 36107  1  0  0  0
 37 39  1  0  0  0
 37 47  1  0  0  0
 37 66  1  0  0  0
 37108  1  0  0  0
 38 43  2  0  0  0
 38 46  1  0  0  0
 38 47  1  0  0  0
 39 64  1  0  0  0
 39 67  2  0  0  0
 40 52  1  0  0  0
 40 53  2  0  0  0
 40 58  1  0  0  0
 41109  1  0  0  0
 41110  1  0  0  0
 41111  1  0  0  0
 41 48  1  0  0  0
 42 43  1  0  0  0
 42 66  1  0  0  0
 42112  1  0  0  0
 42113  1  0  0  0
 43 44  1  0  0  0
 44114  1  0  0  0
 45 46  2  0  0  0
 45115  1  0  0  0
 46116  1  0  0  0
 47117  1  0  0  0
 47118  1  0  0  0
 48 56  1  0  0  0
 48 65  1  0  0  0
 48119  1  0  0  0
 49 50  1  0  0  0
 49 53  1  0  0  0
 49 64  1  0  0  0
 49120  1  0  0  0
 50 51  1  0  0  0
 50121  1  0  0  0
 50122  1  0  0  0
 51 52  1  0  0  0
 51123  1  0  0  0
 51124  1  0  0  0
 52125  1  0  0  0
 52126  1  0  0  0
 53 54  1  0  0  0
 54 55  2  0  0  0
 54127  1  0  0  0
 55 57  1  0  0  0
 55128  1  0  0  0
 56 69  2  0  0  0
 57 58  2  0  0  0
 57129  1  0  0  0
 58130  1  0  0  0
 59 60  1  0  0  0
 59 61  1  0  0  0
 59 62  1  0  0  0
 60131  1  0  0  0
 60132  1  0  0  0
 60133  1  0  0  0
 61134  1  0  0  0
 61135  1  0  0  0
 61136  1  0  0  0
 62137  1  0  0  0
 62138  1  0  0  0
 62139  1  0  0  0
 63 65  1  0  0  0
 63140  1  0  0  0
 63141  1  0  0  0
 63142  1  0  0  0
 64143  1  0  0  0
 65144  1  0  0  0
 68 81  1  0  0  0
 71 73  2  0  0  0
 71 75  1  0  0  0
 71145  1  0  0  0
 72 74  2  0  0  0
 72 76  1  0  0  0
 72146  1  0  0  0
 73 74  1  0  0  0
 73 78  1  0  0  0
 74 77  1  0  0  0
 75 76  2  0  0  0
 75 83  1  0  0  0
 76 85  1  0  0  0
 77147  1  0  0  0
 77148  1  0  0  0
 77149  1  0  0  0
 78 84  1  0  0  0
 78150  1  0  0  0
 78151  1  0  0  0
 79 80  1  0  0  0
 79 81  1  0  0  0
 79152  1  0  0  0
 79153  1  0  0  0
 80 82  1  0  0  0
 80154  1  0  0  0
 80155  1  0  0  0
 81156  1  0  0  0
 81157  1  0  0  0
 82 85  1  0  0  0
 82158  1  0  0  0
 82159  1  0  0  0
 83160  1  0  0  0
 83161  1  0  0  0
 84162  1  0  0  0
M  ISO  4   1 100  68 101  81 101  84 100
M  END
> <chiral flag>
0

> <version>
0

> <s_m_source_file>
/data/baiqing/PycharmProjects/Reinvent-master-3.2/result/LINK_invent/BTK/process_docking_weight1_custom_product_contain_oxygen_bond_distance_aromatic_linkinvent_7_9_3/rearranged_h_0104.sdf

> <i_m_source_file_index>
29

> <r_mmod_Potential_Energy-OPLS-2005>
-150.508636474609

> <r_mmod_Stretch_Energy-OPLS-2005>
31.7533378601074

> <r_mmod_Bend_Energy-OPLS-2005>
103.795372009277

> <r_mmod_Torsional_Energy-OPLS-2005>
231.329040527344

> <r_mmod_Improper_Torsional_Energy-OPLS-2005>
7.3507604598999

> <r_mmod_Van_der_Waal_Energy-OPLS-2005>
152.547515869141

> <r_mmod_Electrostatic_Energy-OPLS-2005>
-458.935729980469

> <r_mmod_Solvation_Energy-OPLS-2005>
-225.965560913086

> <b_mmod_Minimization_Converged-OPLS-2005>
0

> <r_mmod_RMS_Derivative-OPLS-2005>
1.86766088008881

$$$$
30
                    3D
 Structure written by MMmdl.
159167  0  0  1  0            999 V2000
  -30.7519  -14.3845   20.5521 C   0  0  0  0  0  0
  -30.4006  -12.2499   19.4116 C   0  0  0  0  0  0
  -29.4888  -12.5081   18.1946 C   0  0  0  0  0  0
  -28.0119  -12.3731   18.6074 C   0  0  0  0  0  0
  -27.6670  -13.2008   19.8816 C   0  0  2  0  0  0
  -28.7035  -12.9753   21.0046 C   0  0  0  0  0  0
  -25.2626  -13.8176   20.5738 C   0  0  0  0  0  0
  -24.1865  -13.0461   20.9198 C   0  0  0  0  0  0
  -24.6409  -11.6919   20.8754 C   0  0  0  0  0  0
  -23.9080  -10.4284   21.0414 C   0  0  0  0  0  0
  -24.3617   -9.4197   21.9210 C   0  0  0  0  0  0
  -23.6277   -8.2244   22.0771 C   0  0  0  0  0  0
  -22.4281   -8.0287   21.3560 C   0  0  0  0  0  0
  -21.9916   -9.0268   20.4680 C   0  0  0  0  0  0
  -22.7234  -10.2143   20.3081 C   0  0  0  0  0  0
  -21.6840   -6.0737   22.5289 C   0  0  0  0  0  0
  -21.4002   -6.5628   23.8229 C   0  0  0  0  0  0
  -21.3670   -5.6772   24.9194 C   0  0  0  0  0  0
  -21.6048   -4.3040   24.7222 C   0  0  0  0  0  0
  -21.8817   -3.8137   23.4343 C   0  0  0  0  0  0
  -21.9196   -4.6964   22.3405 C   0  0  0  0  0  0
  -22.7876  -13.5251   21.1821 C   0  0  0  0  0  0
  -22.1668   -4.2133   21.0990 F   0  0  0  0  0  0
  -21.5640   -3.4551   25.7748 F   0  0  0  0  0  0
  -30.0430  -13.2363   20.4402 N   0  0  0  0  0  0
  -26.3062  -12.9316   20.3459 N   0  0  0  0  0  0
  -25.9325  -11.6484   20.5767 N   0  0  0  0  0  0
  -22.0535  -12.8269   22.0394 N   0  0  0  0  0  0
  -25.4387  -15.1899   20.4108 N   0  0  0  0  0  0
  -31.8481  -14.5644   20.0141 O   0  0  0  0  0  0
  -21.6647   -6.8894   21.4257 O   0  0  0  0  0  0
  -22.3572  -14.5538   20.6628 O   0  0  0  0  0  0
  -24.6092  -31.8782   23.2284 C   0  0  0  0  0  0
  -25.9019  -32.4869   23.8530 C   0  0  1  0  0  0
  -27.2127  -27.4679   20.0758 C   0  0  0  0  0  0
  -25.5939  -33.8690   24.2452 N   0  0  0  0  0  0
  -23.3922  -30.5152   21.5666 C   0  0  2  0  0  0
  -24.8382  -29.0109   20.1174 C   0  0  0  0  0  0
  -22.7353  -29.4730   22.5019 C   0  0  0  0  0  0
  -18.0241  -28.1350   22.8446 C   0  0  0  0  0  0
  -24.1487  -36.7335   23.2631 C   0  0  0  0  0  0
  -25.9285  -30.8541   21.3850 C   0  0  0  0  0  0
  -26.0047  -29.4983   20.7176 C   0  0  0  0  0  0
  -27.1972  -28.7393   20.6960 C   0  0  0  0  0  0
  -26.0200  -27.0217   19.4450 C   0  0  0  0  0  0
  -24.8393  -27.7661   19.4832 C   0  0  0  0  0  0
  -23.6032  -29.8801   20.1725 C   0  0  0  0  0  0
  -25.4104  -36.3175   24.0351 C   0  0  1  0  0  0
  -20.5808  -28.3689   23.1355 C   0  0  2  0  0  0
  -20.6749  -26.9444   22.5401 C   0  0  0  0  0  0
  -19.5733  -26.6475   21.5122 C   0  0  0  0  0  0
  -18.1927  -26.7930   22.1506 C   0  0  0  0  0  0
  -19.1444  -28.8863   23.2896 C   0  0  0  0  0  0
  -18.9335  -30.1426   23.8957 C   0  0  0  0  0  0
  -17.6310  -30.6503   24.0618 C   0  0  0  0  0  0
  -25.9041  -34.9520   23.5178 C   0  0  0  0  0  0
  -16.5267  -29.9006   23.6287 C   0  0  0  0  0  0
  -16.7229  -28.6446   23.0262 C   0  0  0  0  0  0
  -26.4467  -31.6637   25.0822 C   0  0  0  0  0  0
  -25.3739  -31.3737   26.1568 C   0  0  0  0  0  0
  -27.0299  -30.3070   24.6230 C   0  0  0  0  0  0
  -27.6076  -32.4341   25.7529 C   0  0  0  0  0  0
  -27.5595  -37.1824   24.8455 C   0  0  0  0  0  0
  -21.4060  -29.3130   22.3804 N   0  0  0  0  0  0
  -26.4315  -37.3823   23.9395 N   0  0  0  0  0  0
  -24.6604  -31.0952   22.1140 N   0  0  0  0  0  0
  -23.4159  -28.8115   23.2888 O   0  0  0  0  0  0
  -28.3568  -26.6820   20.1095 O   0  0  0  0  0  0
  -26.5562  -34.8934   22.4697 O   0  0  0  0  0  0
  -23.5306  -32.1514   23.7702 O   0  0  0  0  0  0
  -29.3644  -18.6432   20.3106 C   0  0  0  0  0  0
  -27.7172  -19.7762   21.6609 C   0  0  0  0  0  0
  -29.6353  -17.8108   21.4110 C   0  0  0  0  0  0
  -28.4239  -19.6737   20.4487 C   0  0  0  0  0  0
  -28.9341  -18.0464   22.6186 C   0  0  0  0  0  0
  -29.2476  -17.2888   23.8994 C   0  0  0  0  0  0
  -30.7063  -16.7395   21.2711 C   0  0  0  0  0  0
  -29.1110  -24.2065   20.0880 C   0  0  0  0  0  0
  -28.3465  -22.8567   20.0338 C   0  0  0  0  0  0
  -28.0964  -25.3110   19.7894 C   0  0  0  0  0  0
  -29.0924  -21.6707   19.4261 C   0  0  0  0  0  0
  -27.9792  -18.9942   22.7308 N   0  0  0  0  0  0
  -30.1551  -15.3843   21.2021 N   0  0  0  0  0  0
  -28.2187  -20.5445   19.4118 O   0  0  0  0  0  0
  -31.4536  -12.2969   19.1123 H   0  0  0  0  0  0
  -30.2381  -11.2382   19.7922 H   0  0  0  0  0  0
  -29.7214  -11.8004   17.3994 H   0  0  0  0  0  0
  -29.6714  -13.5063   17.7896 H   0  0  0  0  0  0
  -27.8196  -11.3122   18.7895 H   0  0  0  0  0  0
  -27.3576  -12.6609   17.7892 H   0  0  0  0  0  0
  -27.7238  -14.2549   19.6102 H   0  0  0  0  0  0
  -28.6513  -11.9518   21.3800 H   0  0  0  0  0  0
  -28.4671  -13.6046   21.8634 H   0  0  0  0  0  0
  -25.2790   -9.5645   22.4767 H   0  0  0  0  0  0
  -23.9996   -7.4621   22.7447 H   0  0  0  0  0  0
  -21.0869   -8.8787   19.8950 H   0  0  0  0  0  0
  -22.3727  -10.9691   19.6171 H   0  0  0  0  0  0
  -21.1982   -7.6145   23.9714 H   0  0  0  0  0  0
  -21.1501   -6.0533   25.9095 H   0  0  0  0  0  0
  -22.0583   -2.7603   23.2863 H   0  0  0  0  0  0
  -22.4147  -11.9921   22.4730 H   0  0  0  0  0  0
  -21.1167  -13.1304   22.2589 H   0  0  0  0  0  0
  -24.6670  -15.8451   20.4891 H   0  0  0  0  0  0
  -26.2949  -15.6286   20.0940 H   0  0  0  0  0  0
  -26.7092  -32.5602   23.1301 H   0  0  0  0  0  0
  -25.0141  -33.9889   25.0653 H   0  0  0  0  0  0
  -22.6784  -31.3319   21.4447 H   0  0  0  0  0  0
  -23.3781  -35.9647   23.3308 H   0  0  0  0  0  0
  -24.3611  -36.8921   22.2059 H   0  0  0  0  0  0
  -23.7221  -37.6531   23.6612 H   0  0  0  0  0  0
  -26.0671  -31.6399   20.6427 H   0  0  0  0  0  0
  -26.8060  -30.8795   22.0164 H   0  0  0  0  0  0
  -28.0903  -29.1240   21.1732 H   0  0  0  0  0  0
  -25.9416  -26.0901   18.9100 H   0  0  0  0  0  0
  -23.9453  -27.3882   19.0114 H   0  0  0  0  0  0
  -23.7204  -30.6733   19.4307 H   0  0  0  0  0  0
  -22.7230  -29.3205   19.8591 H   0  0  0  0  0  0
  -25.1276  -36.2073   25.0854 H   0  0  0  0  0  0
  -20.9808  -28.3139   24.1573 H   0  0  0  0  0  0
  -20.5587  -26.2310   23.3573 H   0  0  0  0  0  0
  -21.6683  -26.7558   22.1246 H   0  0  0  0  0  0
  -19.6973  -25.6468   21.0992 H   0  0  0  0  0  0
  -19.6663  -27.3356   20.6702 H   0  0  0  0  0  0
  -17.4226  -26.6816   21.3850 H   0  0  0  0  0  0
  -18.0268  -26.0014   22.8877 H   0  0  0  0  0  0
  -19.7753  -30.7271   24.2440 H   0  0  0  0  0  0
  -17.4820  -31.6156   24.5302 H   0  0  0  0  0  0
  -15.5231  -30.2909   23.7560 H   0  0  0  0  0  0
  -15.8667  -28.0748   22.6943 H   0  0  0  0  0  0
  -24.5920  -30.7053   25.7912 H   0  0  0  0  0  0
  -24.8891  -32.2890   26.4991 H   0  0  0  0  0  0
  -25.8098  -30.8930   27.0339 H   0  0  0  0  0  0
  -26.2866  -29.6801   24.1254 H   0  0  0  0  0  0
  -27.4028  -29.7322   25.4729 H   0  0  0  0  0  0
  -27.8743  -30.4368   23.9441 H   0  0  0  0  0  0
  -27.2736  -33.3644   26.2129 H   0  0  0  0  0  0
  -28.3838  -32.6890   25.0295 H   0  0  0  0  0  0
  -28.0789  -31.8445   26.5403 H   0  0  0  0  0  0
  -28.2607  -38.0121   24.7532 H   0  0  0  0  0  0
  -28.1101  -36.2670   24.6256 H   0  0  0  0  0  0
  -27.2313  -37.1436   25.8852 H   0  0  0  0  0  0
  -20.9104  -29.9004   21.7250 H   0  0  0  0  0  0
  -26.0237  -38.2911   24.1375 H   0  0  0  0  0  0
  -29.8752  -18.5247   19.3647 H   0  0  0  0  0  0
  -26.9494  -20.5275   21.7871 H   0  0  0  0  0  0
  -29.7305  -16.3250   23.7249 H   0  0  0  0  0  0
  -28.3456  -17.1190   24.4805 H   0  0  0  0  0  0
  -29.9277  -17.8881   24.5045 H   0  0  0  0  0  0
  -31.4297  -16.8255   22.0877 H   0  0  0  0  0  0
  -31.2737  -16.9623   20.3667 H   0  0  0  0  0  0
  -29.9065  -24.2373   19.3444 H   0  0  0  0  0  0
  -29.5539  -24.3370   21.0777 H   0  0  0  0  0  0
  -27.4363  -22.9741   19.4386 H   0  0  0  0  0  0
  -27.9919  -22.6048   21.0340 H   0  0  0  0  0  0
  -27.2037  -25.0219   20.3498 H   0  0  0  0  0  0
  -27.8574  -25.2527   18.7293 H   0  0  0  0  0  0
  -30.0290  -21.4844   19.9592 H   0  0  0  0  0  0
  -29.3522  -21.9143   18.3921 H   0  0  0  0  0  0
  -29.2588  -15.1757   21.6168 H   0  0  0  0  0  0
  1 25  1  0  0  0
  1 30  2  0  0  0
  1 83  1  0  0  0
  2  3  1  0  0  0
  2 25  1  0  0  0
  2 85  1  0  0  0
  2 86  1  0  0  0
  3  4  1  0  0  0
  3 87  1  0  0  0
  3 88  1  0  0  0
  4  5  1  0  0  0
  4 89  1  0  0  0
  4 90  1  0  0  0
  5  6  1  0  0  0
  5 26  1  0  0  0
  5 91  1  0  0  0
  6 25  1  0  0  0
  6 92  1  0  0  0
  6 93  1  0  0  0
  7  8  2  0  0  0
  7 26  1  0  0  0
  7 29  1  0  0  0
  8  9  1  0  0  0
  8 22  1  0  0  0
  9 10  1  0  0  0
  9 27  2  0  0  0
 10 11  2  0  0  0
 10 15  1  0  0  0
 11 12  1  0  0  0
 11 94  1  0  0  0
 12 13  2  0  0  0
 12 95  1  0  0  0
 13 14  1  0  0  0
 13 31  1  0  0  0
 14 15  2  0  0  0
 14 96  1  0  0  0
 15 97  1  0  0  0
 16 17  2  0  0  0
 16 21  1  0  0  0
 16 31  1  0  0  0
 17 18  1  0  0  0
 17 98  1  0  0  0
 18 19  2  0  0  0
 18 99  1  0  0  0
 19 20  1  0  0  0
 19 24  1  0  0  0
 20 21  2  0  0  0
 20100  1  0  0  0
 21 23  1  0  0  0
 22 28  1  0  0  0
 22 32  2  0  0  0
 26 27  1  0  0  0
 28101  1  0  0  0
 28102  1  0  0  0
 29103  1  0  0  0
 29104  1  0  0  0
 33 34  1  0  0  0
 33 66  1  0  0  0
 33 70  2  0  0  0
 34 36  1  0  0  0
 34 59  1  0  0  0
 34105  1  0  0  0
 35 44  2  0  0  0
 35 45  1  0  0  0
 35 68  1  0  0  0
 36 56  1  0  0  0
 36106  1  0  0  0
 37 39  1  0  0  0
 37 47  1  0  0  0
 37 66  1  0  0  0
 37107  1  0  0  0
 38 43  2  0  0  0
 38 46  1  0  0  0
 38 47  1  0  0  0
 39 64  1  0  0  0
 39 67  2  0  0  0
 40 52  1  0  0  0
 40 53  2  0  0  0
 40 58  1  0  0  0
 41108  1  0  0  0
 41109  1  0  0  0
 41110  1  0  0  0
 41 48  1  0  0  0
 42 43  1  0  0  0
 42 66  1  0  0  0
 42111  1  0  0  0
 42112  1  0  0  0
 43 44  1  0  0  0
 44113  1  0  0  0
 45 46  2  0  0  0
 45114  1  0  0  0
 46115  1  0  0  0
 47116  1  0  0  0
 47117  1  0  0  0
 48 56  1  0  0  0
 48 65  1  0  0  0
 48118  1  0  0  0
 49 50  1  0  0  0
 49 53  1  0  0  0
 49 64  1  0  0  0
 49119  1  0  0  0
 50 51  1  0  0  0
 50120  1  0  0  0
 50121  1  0  0  0
 51 52  1  0  0  0
 51122  1  0  0  0
 51123  1  0  0  0
 52124  1  0  0  0
 52125  1  0  0  0
 53 54  1  0  0  0
 54 55  2  0  0  0
 54126  1  0  0  0
 55 57  1  0  0  0
 55127  1  0  0  0
 56 69  2  0  0  0
 57 58  2  0  0  0
 57128  1  0  0  0
 58129  1  0  0  0
 59 60  1  0  0  0
 59 61  1  0  0  0
 59 62  1  0  0  0
 60130  1  0  0  0
 60131  1  0  0  0
 60132  1  0  0  0
 61133  1  0  0  0
 61134  1  0  0  0
 61135  1  0  0  0
 62136  1  0  0  0
 62137  1  0  0  0
 62138  1  0  0  0
 63 65  1  0  0  0
 63139  1  0  0  0
 63140  1  0  0  0
 63141  1  0  0  0
 64142  1  0  0  0
 65143  1  0  0  0
 68 80  1  0  0  0
 71 73  2  0  0  0
 71 74  1  0  0  0
 71144  1  0  0  0
 72 74  2  0  0  0
 72 82  1  0  0  0
 72145  1  0  0  0
 73 75  1  0  0  0
 73 77  1  0  0  0
 74 84  1  0  0  0
 75 76  1  0  0  0
 75 82  2  0  0  0
 76146  1  0  0  0
 76147  1  0  0  0
 76148  1  0  0  0
 77 83  1  0  0  0
 77149  1  0  0  0
 77150  1  0  0  0
 78 79  1  0  0  0
 78 80  1  0  0  0
 78151  1  0  0  0
 78152  1  0  0  0
 79 81  1  0  0  0
 79153  1  0  0  0
 79154  1  0  0  0
 80155  1  0  0  0
 80156  1  0  0  0
 81 84  1  0  0  0
 81157  1  0  0  0
 81158  1  0  0  0
 83159  1  0  0  0
M  ISO  4   1 100  68 101  80 101  83 100
M  END
> <chiral flag>
0

> <version>
0

> <s_m_source_file>
/data/baiqing/PycharmProjects/Reinvent-master-3.2/result/LINK_invent/BTK/process_docking_weight1_custom_product_contain_oxygen_bond_distance_aromatic_linkinvent_7_9_3/rearranged_h_0104.sdf

> <i_m_source_file_index>
30

> <r_mmod_Potential_Energy-OPLS-2005>
-118.844512939453

> <r_mmod_Stretch_Energy-OPLS-2005>
34.1125373840332

> <r_mmod_Bend_Energy-OPLS-2005>
106.189849853516

> <r_mmod_Torsional_Energy-OPLS-2005>
235.857727050781

> <r_mmod_Improper_Torsional_Energy-OPLS-2005>
2.89264392852783

> <r_mmod_Van_der_Waal_Energy-OPLS-2005>
181.773895263672

> <r_mmod_Electrostatic_Energy-OPLS-2005>
-475.811492919922

> <r_mmod_Solvation_Energy-OPLS-2005>
-218.239212036133

> <b_mmod_Minimization_Converged-OPLS-2005>
0

> <r_mmod_RMS_Derivative-OPLS-2005>
9.49052238464355

$$$$
31
                    3D
 Structure written by MMmdl.
149157  0  0  1  0            999 V2000
  -30.4028  -15.3051   20.3894 C   0  0  0  0  0  0
  -30.4450  -12.8265   19.5495 C   0  0  0  0  0  0
  -29.5464  -12.5919   18.3053 C   0  0  0  0  0  0
  -28.0933  -12.3078   18.7220 C   0  0  0  0  0  0
  -27.6158  -13.2801   19.8285 C   0  0  2  0  0  0
  -28.6427  -13.4533   20.9689 C   0  0  0  0  0  0
  -25.2401  -13.8262   20.5746 C   0  0  0  0  0  0
  -24.1748  -13.0446   20.9245 C   0  0  0  0  0  0
  -24.6408  -11.6943   20.8746 C   0  0  0  0  0  0
  -23.9102  -10.4300   21.0397 C   0  0  0  0  0  0
  -24.3643   -9.4212   21.9177 C   0  0  0  0  0  0
  -23.6309   -8.2250   22.0748 C   0  0  0  0  0  0
  -22.4287   -8.0287   21.3544 C   0  0  0  0  0  0
  -21.9933   -9.0262   20.4643 C   0  0  0  0  0  0
  -22.7270  -10.2138   20.3049 C   0  0  0  0  0  0
  -21.6858   -6.0740   22.5281 C   0  0  0  0  0  0
  -21.4016   -6.5645   23.8214 C   0  0  0  0  0  0
  -21.3658   -5.6795   24.9176 C   0  0  0  0  0  0
  -21.6043   -4.3058   24.7228 C   0  0  0  0  0  0
  -21.8820   -3.8150   23.4350 C   0  0  0  0  0  0
  -21.9196   -4.6966   22.3405 C   0  0  0  0  0  0
  -22.7764  -13.5191   21.1904 C   0  0  0  0  0  0
  -22.1662   -4.2152   21.0981 F   0  0  0  0  0  0
  -21.5628   -3.4540   25.7740 F   0  0  0  0  0  0
  -29.8853  -13.9699   20.3698 N   0  0  0  0  0  0
  -26.2835  -12.9545   20.3220 N   0  0  0  0  0  0
  -25.9347  -11.6643   20.5707 N   0  0  0  0  0  0
  -22.0433  -12.8163   22.0461 N   0  0  0  0  0  0
  -25.4068  -15.1996   20.4212 N   0  0  0  0  0  0
  -31.5997  -15.3155   20.0606 O   0  0  0  0  0  0
  -21.6647   -6.8885   21.4242 O   0  0  0  0  0  0
  -22.3435  -14.5494   20.6753 O   0  0  0  0  0  0
  -24.6658  -31.8204   23.1687 C   0  0  0  0  0  0
  -25.9329  -32.4566   23.8162 C   0  0  1  0  0  0
  -27.2232  -26.8993   20.1821 C   0  0  0  0  0  0
  -25.5983  -33.8382   24.2059 N   0  0  0  0  0  0
  -23.4822  -30.4312   21.5178 C   0  0  2  0  0  0
  -24.9383  -28.8168   20.1070 C   0  0  0  0  0  0
  -22.7681  -29.4423   22.4768 C   0  0  0  0  0  0
  -18.0328  -28.1416   22.8472 C   0  0  0  0  0  0
  -24.1496  -36.7191   23.2658 C   0  0  0  0  0  0
  -26.0528  -30.6166   21.4064 C   0  0  0  0  0  0
  -26.1209  -29.2046   20.7488 C   0  0  0  0  0  0
  -27.2516  -28.2647   20.7686 C   0  0  0  0  0  0
  -26.0120  -26.6778   19.4828 C   0  0  0  0  0  0
  -24.9117  -27.5743   19.4544 C   0  0  0  0  0  0
  -23.7244  -29.7461   20.1440 C   0  0  0  0  0  0
  -25.4146  -36.2953   24.0298 C   0  0  1  0  0  0
  -20.5952  -28.3759   23.1184 C   0  0  2  0  0  0
  -20.6799  -26.9440   22.5409 C   0  0  0  0  0  0
  -19.5768  -26.6379   21.5217 C   0  0  0  0  0  0
  -18.1956  -26.7948   22.1631 C   0  0  0  0  0  0
  -19.1592  -28.8910   23.2813 C   0  0  0  0  0  0
  -18.9497  -30.1501   23.8848 C   0  0  0  0  0  0
  -17.6487  -30.6603   24.0554 C   0  0  0  0  0  0
  -25.9100  -34.9334   23.5000 C   0  0  0  0  0  0
  -16.5378  -29.9085   23.6345 C   0  0  0  0  0  0
  -16.7309  -28.6506   23.0366 C   0  0  0  0  0  0
  -26.4573  -31.6529   25.0704 C   0  0  0  0  0  0
  -25.3691  -31.3793   26.1351 C   0  0  0  0  0  0
  -27.0474  -30.2886   24.6473 C   0  0  0  0  0  0
  -27.6059  -32.4345   25.7503 C   0  0  0  0  0  0
  -27.5551  -37.1791   24.8498 C   0  0  0  0  0  0
  -21.4348  -29.3033   22.3515 N   0  0  0  0  0  0
  -26.4306  -37.3672   23.9367 N   0  0  0  0  0  0
  -24.7549  -30.9842   22.0836 N   0  0  0  0  0  0
  -23.4214  -28.8003   23.3033 O   0  0  0  0  0  0
  -28.1928  -25.7577   20.3277 O   0  0  0  0  0  0
  -26.5707  -34.8872   22.4593 O   0  0  0  0  0  0
  -23.5719  -32.1188   23.6756 O   0  0  0  0  0  0
  -29.8675  -21.9745   23.2970 C   0  0  0  0  0  0
  -30.2391  -20.6414   23.3957 C   0  0  0  0  0  0
  -29.3219  -22.4530   22.1048 C   0  0  0  0  0  0
  -30.0514  -19.7790   22.3115 C   0  0  0  0  0  0
  -29.0806  -21.6765   20.9393 C   0  0  0  0  0  0
  -29.4778  -20.1178   21.0560 C   0  0  0  0  0  0
  -28.4292  -22.8763   19.9576 C   0  0  0  0  0  0
  -28.0928  -24.3258   19.7732 C   0  0  0  0  0  0
  -29.5841  -18.5884   20.1931 C   0  0  0  0  0  0
  -29.6275  -16.8490   20.8008 C   0  0  0  0  0  0
  -31.4658  -13.0277   19.2224 H   0  0  0  0  0  0
  -30.5113  -11.9180   20.1501 H   0  0  0  0  0  0
  -29.9330  -11.7658   17.7073 H   0  0  0  0  0  0
  -29.5776  -13.4752   17.6660 H   0  0  0  0  0  0
  -28.0487  -11.2824   19.0909 H   0  0  0  0  0  0
  -27.4301  -12.3503   17.8575 H   0  0  0  0  0  0
  -27.5344  -14.2486   19.3340 H   0  0  0  0  0  0
  -28.8060  -12.5158   21.5025 H   0  0  0  0  0  0
  -28.2709  -14.1661   21.7061 H   0  0  0  0  0  0
  -25.2786   -9.5687   22.4758 H   0  0  0  0  0  0
  -24.0018   -7.4639   22.7467 H   0  0  0  0  0  0
  -21.0867   -8.8787   19.8947 H   0  0  0  0  0  0
  -22.3729  -10.9676   19.6160 H   0  0  0  0  0  0
  -21.2005   -7.6152   23.9720 H   0  0  0  0  0  0
  -21.1477   -6.0523   25.9079 H   0  0  0  0  0  0
  -22.0600   -2.7611   23.2850 H   0  0  0  0  0  0
  -22.4074  -11.9836   22.4849 H   0  0  0  0  0  0
  -21.1042  -13.1157   22.2673 H   0  0  0  0  0  0
  -24.6436  -15.8563   20.5439 H   0  0  0  0  0  0
  -26.2609  -15.6413   20.1056 H   0  0  0  0  0  0
  -26.7405  -32.5099   23.0882 H   0  0  0  0  0  0
  -25.0089  -33.9452   25.0183 H   0  0  0  0  0  0
  -22.7964  -31.2635   21.3459 H   0  0  0  0  0  0
  -23.3732  -35.9560   23.3402 H   0  0  0  0  0  0
  -24.3533  -36.8740   22.2053 H   0  0  0  0  0  0
  -23.7311  -37.6434   23.6651 H   0  0  0  0  0  0
  -26.2409  -31.3588   20.6296 H   0  0  0  0  0  0
  -26.9094  -30.6700   22.0660 H   0  0  0  0  0  0
  -28.1385  -28.5523   21.3154 H   0  0  0  0  0  0
  -25.8606  -25.7272   18.9949 H   0  0  0  0  0  0
  -24.0137  -27.2700   18.9346 H   0  0  0  0  0  0
  -23.8783  -30.5142   19.3851 H   0  0  0  0  0  0
  -22.8336  -29.2007   19.8269 H   0  0  0  0  0  0
  -25.1367  -36.1765   25.0796 H   0  0  0  0  0  0
  -21.0048  -28.3374   24.1306 H   0  0  0  0  0  0
  -20.5672  -26.2382   23.3656 H   0  0  0  0  0  0
  -21.6662  -26.7402   22.1222 H   0  0  0  0  0  0
  -19.6924  -25.6274   21.1289 H   0  0  0  0  0  0
  -19.6709  -27.3153   20.6720 H   0  0  0  0  0  0
  -17.4224  -26.6689   21.4039 H   0  0  0  0  0  0
  -18.0352  -26.0104   22.9044 H   0  0  0  0  0  0
  -19.7968  -30.7337   24.2196 H   0  0  0  0  0  0
  -17.5032  -31.6280   24.5162 H   0  0  0  0  0  0
  -15.5375  -30.2968   23.7697 H   0  0  0  0  0  0
  -15.8709  -28.0801   22.7112 H   0  0  0  0  0  0
  -24.5904  -30.7102   25.7669 H   0  0  0  0  0  0
  -24.8855  -32.2998   26.4632 H   0  0  0  0  0  0
  -25.7928  -30.9071   27.0225 H   0  0  0  0  0  0
  -26.3154  -29.6552   24.1452 H   0  0  0  0  0  0
  -27.3949  -29.7265   25.5156 H   0  0  0  0  0  0
  -27.9118  -30.4050   23.9931 H   0  0  0  0  0  0
  -27.2625  -33.3692   26.1954 H   0  0  0  0  0  0
  -28.3940  -32.6834   25.0379 H   0  0  0  0  0  0
  -28.0655  -31.8561   26.5531 H   0  0  0  0  0  0
  -28.2676  -37.9970   24.7353 H   0  0  0  0  0  0
  -28.0932  -36.2497   24.6591 H   0  0  0  0  0  0
  -27.2228  -37.1756   25.8892 H   0  0  0  0  0  0
  -20.9612  -29.8699   21.6617 H   0  0  0  0  0  0
  -26.0162  -38.2759   24.1247 H   0  0  0  0  0  0
  -30.0103  -22.6435   24.1349 H   0  0  0  0  0  0
  -30.6834  -20.2738   24.3107 H   0  0  0  0  0  0
  -29.0736  -23.5060   22.1229 H   0  0  0  0  0  0
  -30.4161  -18.7829   22.4889 H   0  0  0  0  0  0
  -28.0699  -22.3552   19.0810 H   0  0  0  0  0  0
  -27.5996  -24.4553   18.8208 H   0  0  0  0  0  0
  -30.4814  -18.6973   19.5840 H   0  0  0  0  0  0
  -28.7731  -18.6279   19.4662 H   0  0  0  0  0  0
  -28.5776  -16.5783   20.9109 H   0  0  0  0  0  0
  -29.9546  -16.9126   21.8344 H   0  0  0  0  0  0
  1 25  1  0  0  0
  1 30  2  0  0  0
  1 80  1  0  0  0
  2  3  1  0  0  0
  2 25  1  0  0  0
  2 81  1  0  0  0
  2 82  1  0  0  0
  3  4  1  0  0  0
  3 83  1  0  0  0
  3 84  1  0  0  0
  4  5  1  0  0  0
  4 85  1  0  0  0
  4 86  1  0  0  0
  5  6  1  0  0  0
  5 26  1  0  0  0
  5 87  1  0  0  0
  6 25  1  0  0  0
  6 88  1  0  0  0
  6 89  1  0  0  0
  7  8  2  0  0  0
  7 26  1  0  0  0
  7 29  1  0  0  0
  8  9  1  0  0  0
  8 22  1  0  0  0
  9 10  1  0  0  0
  9 27  2  0  0  0
 10 11  2  0  0  0
 10 15  1  0  0  0
 11 12  1  0  0  0
 11 90  1  0  0  0
 12 13  2  0  0  0
 12 91  1  0  0  0
 13 14  1  0  0  0
 13 31  1  0  0  0
 14 15  2  0  0  0
 14 92  1  0  0  0
 15 93  1  0  0  0
 16 17  2  0  0  0
 16 21  1  0  0  0
 16 31  1  0  0  0
 17 18  1  0  0  0
 17 94  1  0  0  0
 18 19  2  0  0  0
 18 95  1  0  0  0
 19 20  1  0  0  0
 19 24  1  0  0  0
 20 21  2  0  0  0
 20 96  1  0  0  0
 21 23  1  0  0  0
 22 28  1  0  0  0
 22 32  2  0  0  0
 26 27  1  0  0  0
 28 97  1  0  0  0
 28 98  1  0  0  0
 29 99  1  0  0  0
 29100  1  0  0  0
 33 34  1  0  0  0
 33 66  1  0  0  0
 33 70  2  0  0  0
 34 36  1  0  0  0
 34 59  1  0  0  0
 34101  1  0  0  0
 35 44  2  0  0  0
 35 45  1  0  0  0
 35 68  1  0  0  0
 36 56  1  0  0  0
 36102  1  0  0  0
 37 39  1  0  0  0
 37 47  1  0  0  0
 37 66  1  0  0  0
 37103  1  0  0  0
 38 43  2  0  0  0
 38 46  1  0  0  0
 38 47  1  0  0  0
 39 64  1  0  0  0
 39 67  2  0  0  0
 40 52  1  0  0  0
 40 53  2  0  0  0
 40 58  1  0  0  0
 41104  1  0  0  0
 41105  1  0  0  0
 41106  1  0  0  0
 41 48  1  0  0  0
 42 43  1  0  0  0
 42 66  1  0  0  0
 42107  1  0  0  0
 42108  1  0  0  0
 43 44  1  0  0  0
 44109  1  0  0  0
 45 46  2  0  0  0
 45110  1  0  0  0
 46111  1  0  0  0
 47112  1  0  0  0
 47113  1  0  0  0
 48 56  1  0  0  0
 48 65  1  0  0  0
 48114  1  0  0  0
 49 50  1  0  0  0
 49 53  1  0  0  0
 49 64  1  0  0  0
 49115  1  0  0  0
 50 51  1  0  0  0
 50116  1  0  0  0
 50117  1  0  0  0
 51 52  1  0  0  0
 51118  1  0  0  0
 51119  1  0  0  0
 52120  1  0  0  0
 52121  1  0  0  0
 53 54  1  0  0  0
 54 55  2  0  0  0
 54122  1  0  0  0
 55 57  1  0  0  0
 55123  1  0  0  0
 56 69  2  0  0  0
 57 58  2  0  0  0
 57124  1  0  0  0
 58125  1  0  0  0
 59 60  1  0  0  0
 59 61  1  0  0  0
 59 62  1  0  0  0
 60126  1  0  0  0
 60127  1  0  0  0
 60128  1  0  0  0
 61129  1  0  0  0
 61130  1  0  0  0
 61131  1  0  0  0
 62132  1  0  0  0
 62133  1  0  0  0
 62134  1  0  0  0
 63 65  1  0  0  0
 63135  1  0  0  0
 63136  1  0  0  0
 63137  1  0  0  0
 64138  1  0  0  0
 65139  1  0  0  0
 68 78  1  0  0  0
 71 72  2  0  0  0
 71 73  1  0  0  0
 71140  1  0  0  0
 72 74  1  0  0  0
 72141  1  0  0  0
 73 75  2  0  0  0
 73142  1  0  0  0
 74 76  2  0  0  0
 74143  1  0  0  0
 75 76  1  0  0  0
 75 77  1  0  0  0
 76 79  1  0  0  0
 77 78  2  0  0  0
 77144  1  0  0  0
 78145  1  0  0  0
 79 80  1  0  0  0
 79146  1  0  0  0
 79147  1  0  0  0
 80148  1  0  0  0
 80149  1  0  0  0
M  ISO  4   1 100  68 101  78 101  80 100
M  END
> <chiral flag>
0

> <version>
0

> <s_m_source_file>
/data/baiqing/PycharmProjects/Reinvent-master-3.2/result/LINK_invent/BTK/process_docking_weight1_custom_product_contain_oxygen_bond_distance_aromatic_linkinvent_7_9_3/rearranged_h_0104.sdf

> <i_m_source_file_index>
31

> <r_mmod_Potential_Energy-OPLS-2005>
1603.84912109375

> <r_mmod_Stretch_Energy-OPLS-2005>
676.956481933594

> <r_mmod_Bend_Energy-OPLS-2005>
617.503295898438

> <r_mmod_Torsional_Energy-OPLS-2005>
184.386077880859

> <r_mmod_Improper_Torsional_Energy-OPLS-2005>
2.46047353744507

> <r_mmod_Van_der_Waal_Energy-OPLS-2005>
136.447967529297

> <r_mmod_Electrostatic_Energy-OPLS-2005>
-320.377319335938

> <r_mmod_Solvation_Energy-OPLS-2005>
-198.908935546875

> <b_mmod_Minimization_Converged-OPLS-2005>
0

> <r_mmod_RMS_Derivative-OPLS-2005>
1.19799816608429

$$$$
32
                    3D
 Structure written by MMmdl.
168177  0  0  1  0            999 V2000
  -30.6116  -14.6725   20.5513 C   0  0  0  0  0  0
  -30.4523  -12.4385   19.4327 C   0  0  0  0  0  0
  -29.5103  -12.5428   18.2103 C   0  0  0  0  0  0
  -28.0260  -12.3750   18.6105 C   0  0  0  0  0  0
  -27.6554  -13.2101   19.8648 C   0  0  2  0  0  0
  -28.7039  -12.9655   20.9634 C   0  0  0  0  0  0
  -25.2552  -13.8130   20.5609 C   0  0  0  0  0  0
  -24.1831  -13.0413   20.9078 C   0  0  0  0  0  0
  -24.6408  -11.6870   20.8662 C   0  0  0  0  0  0
  -23.9082  -10.4257   21.0375 C   0  0  0  0  0  0
  -24.3621   -9.4163   21.9159 C   0  0  0  0  0  0
  -23.6257   -8.2225   22.0769 C   0  0  0  0  0  0
  -22.4233   -8.0294   21.3561 C   0  0  0  0  0  0
  -21.9893   -9.0253   20.4635 C   0  0  0  0  0  0
  -22.7254  -10.2115   20.3022 C   0  0  0  0  0  0
  -21.6829   -6.0711   22.5269 C   0  0  0  0  0  0
  -21.3975   -6.5613   23.8195 C   0  0  0  0  0  0
  -21.3653   -5.6795   24.9178 C   0  0  0  0  0  0
  -21.6047   -4.3056   24.7257 C   0  0  0  0  0  0
  -21.8817   -3.8130   23.4386 C   0  0  0  0  0  0
  -21.9184   -4.6929   22.3428 C   0  0  0  0  0  0
  -22.7852  -13.5199   21.1833 C   0  0  0  0  0  0
  -22.1658   -4.2095   21.1015 F   0  0  0  0  0  0
  -21.5629   -3.4550   25.7774 F   0  0  0  0  0  0
  -30.0013  -13.4319   20.4377 N   0  0  0  0  0  0
  -26.3000  -12.9318   20.3296 N   0  0  0  0  0  0
  -25.9345  -11.6473   20.5727 N   0  0  0  0  0  0
  -22.0525  -12.8183   22.0407 N   0  0  0  0  0  0
  -25.4286  -15.1846   20.4037 N   0  0  0  0  0  0
  -31.7467  -14.8244   20.0841 O   0  0  0  0  0  0
  -21.6614   -6.8878   21.4241 O   0  0  0  0  0  0
  -22.3526  -14.5515   20.6711 O   0  0  0  0  0  0
  -24.6251  -31.8592   23.2036 C   0  0  0  0  0  0
  -25.9107  -32.4764   23.8355 C   0  0  1  0  0  0
  -27.2370  -27.3282   20.1100 C   0  0  0  0  0  0
  -25.5924  -33.8568   24.2280 N   0  0  0  0  0  0
  -23.4189  -30.4838   21.5444 C   0  0  2  0  0  0
  -24.8703  -28.9391   20.1142 C   0  0  0  0  0  0
  -22.7468  -29.4625   22.4919 C   0  0  0  0  0  0
  -18.0289  -28.1379   22.8500 C   0  0  0  0  0  0
  -24.1488  -36.7277   23.2637 C   0  0  0  0  0  0
  -25.9599  -30.7952   21.3740 C   0  0  0  0  0  0
  -26.0397  -29.4223   20.7155 C   0  0  0  0  0  0
  -27.2271  -28.6295   20.7024 C   0  0  0  0  0  0
  -26.0474  -26.9026   19.4783 C   0  0  0  0  0  0
  -24.8767  -27.6834   19.4877 C   0  0  0  0  0  0
  -23.6368  -29.8188   20.1612 C   0  0  0  0  0  0
  -25.4113  -36.3067   24.0326 C   0  0  1  0  0  0
  -20.5892  -28.3690   23.1286 C   0  0  2  0  0  0
  -20.6777  -26.9412   22.5424 C   0  0  0  0  0  0
  -19.5757  -26.6393   21.5218 C   0  0  0  0  0  0
  -18.1931  -26.7929   22.1631 C   0  0  0  0  0  0
  -19.1539  -28.8851   23.2891 C   0  0  0  0  0  0
  -18.9456  -30.1445   23.8923 C   0  0  0  0  0  0
  -17.6454  -30.6586   24.0567 C   0  0  0  0  0  0
  -25.9051  -34.9439   23.5093 C   0  0  0  0  0  0
  -16.5348  -29.9085   23.6318 C   0  0  0  0  0  0
  -16.7272  -28.6493   23.0357 C   0  0  0  0  0  0
  -26.4520  -31.6560   25.0710 C   0  0  0  0  0  0
  -25.3755  -31.3686   26.1427 C   0  0  0  0  0  0
  -27.0357  -30.2978   24.6152 C   0  0  0  0  0  0
  -27.6094  -32.4280   25.7477 C   0  0  0  0  0  0
  -27.5576  -37.1788   24.8463 C   0  0  0  0  0  0
  -21.4185  -29.3028   22.3661 N   0  0  0  0  0  0
  -26.4284  -37.3764   23.9412 N   0  0  0  0  0  0
  -24.6857  -31.0635   22.0964 N   0  0  0  0  0  0
  -23.4195  -28.8168   23.2995 O   0  0  0  0  0  0
  -28.3618  -26.4868   20.1049 O   0  0  0  0  0  0
  -26.5636  -34.8905   22.4668 O   0  0  0  0  0  0
  -23.5423  -32.1372   23.7382 O   0  0  0  0  0  0
  -29.1445  -19.0922   19.2610 C   0  0  0  0  0  0
  -29.2589  -17.6915   19.5254 C   0  0  0  0  0  0
  -30.6082  -19.5653   21.0973 C   0  0  0  0  0  0
  -30.7354  -18.1655   21.3782 C   0  0  0  0  0  0
  -29.7816  -20.0773   20.0626 C   0  0  0  0  0  0
  -30.0368  -17.1804   20.6017 C   0  0  0  0  0  0
  -29.0575  -23.8926   19.9314 C   0  0  0  0  0  0
  -28.9360  -22.5505   20.2734 C   0  0  0  0  0  0
  -30.0819  -24.2394   18.9116 C   0  0  0  0  0  0
  -30.6495  -23.0961   18.0659 C   0  0  0  0  0  0
  -30.8836  -21.8236   18.8944 C   0  0  0  0  0  0
  -27.8862  -22.1093   21.2876 C   0  0  0  0  0  0
  -31.2346  -18.3966   23.8798 C   0  0  0  0  0  0
  -29.1229  -15.6622   22.2688 C   0  0  0  0  0  0
  -31.6420  -17.7622   22.5417 C   0  0  0  0  0  0
  -28.1810  -25.0725   20.5322 C   0  0  0  0  0  0
  -29.7377  -21.4846   19.7388 N   0  0  0  0  0  0
  -29.8970  -15.7730   21.0264 N   0  0  0  0  0  0
  -30.4961  -25.3820   18.6963 O   0  0  0  0  0  0
  -31.4887  -12.5932   19.1225 H   0  0  0  0  0  0
  -30.4321  -11.4297   19.8486 H   0  0  0  0  0  0
  -29.7786  -11.7932   17.4664 H   0  0  0  0  0  0
  -29.6533  -13.5139   17.7325 H   0  0  0  0  0  0
  -27.8512  -11.3157   18.8060 H   0  0  0  0  0  0
  -27.3723  -12.6318   17.7751 H   0  0  0  0  0  0
  -27.7003  -14.2630   19.5835 H   0  0  0  0  0  0
  -28.7496  -11.8952   21.1673 H   0  0  0  0  0  0
  -28.4027  -13.3628   21.9216 H   0  0  0  0  0  0
  -25.2784   -9.5607   22.4707 H   0  0  0  0  0  0
  -23.9930   -7.4641   22.7554 H   0  0  0  0  0  0
  -21.0804   -8.8785   19.8979 H   0  0  0  0  0  0
  -22.3728  -10.9655   19.6123 H   0  0  0  0  0  0
  -21.1878   -7.6115   23.9640 H   0  0  0  0  0  0
  -21.1503   -6.0561   25.9068 H   0  0  0  0  0  0
  -22.0583   -2.7571   23.2931 H   0  0  0  0  0  0
  -22.4187  -11.9858   22.4775 H   0  0  0  0  0  0
  -21.1167  -13.1176   22.2699 H   0  0  0  0  0  0
  -24.6645  -15.8458   20.4970 H   0  0  0  0  0  0
  -26.2992  -15.6172   20.1273 H   0  0  0  0  0  0
  -26.7171  -32.5454   23.1107 H   0  0  0  0  0  0
  -25.0033  -33.9716   25.0397 H   0  0  0  0  0  0
  -22.7125  -31.3031   21.4023 H   0  0  0  0  0  0
  -23.3742  -35.9614   23.3298 H   0  0  0  0  0  0
  -24.3574  -36.8903   22.2049 H   0  0  0  0  0  0
  -23.7256  -37.6484   23.6663 H   0  0  0  0  0  0
  -26.0885  -31.5660   20.6131 H   0  0  0  0  0  0
  -26.8401  -30.8450   22.0027 H   0  0  0  0  0  0
  -28.1260  -29.0034   21.1733 H   0  0  0  0  0  0
  -26.0137  -25.9522   18.9668 H   0  0  0  0  0  0
  -23.9833  -27.3144   19.0030 H   0  0  0  0  0  0
  -23.7540  -30.5956   19.4051 H   0  0  0  0  0  0
  -22.7574  -29.2493   19.8570 H   0  0  0  0  0  0
  -25.1292  -36.1902   25.0820 H   0  0  0  0  0  0
  -20.9985  -28.3262   24.1404 H   0  0  0  0  0  0
  -20.5677  -26.2285   23.3611 H   0  0  0  0  0  0
  -21.6638  -26.7444   22.1209 H   0  0  0  0  0  0
  -19.6919  -25.6307   21.1224 H   0  0  0  0  0  0
  -19.6690  -27.3221   20.6756 H   0  0  0  0  0  0
  -17.4197  -26.6669   21.4032 H   0  0  0  0  0  0
  -18.0346  -26.0065   22.9026 H   0  0  0  0  0  0
  -19.7926  -30.7256   24.2303 H   0  0  0  0  0  0
  -17.5006  -31.6272   24.5167 H   0  0  0  0  0  0
  -15.5346  -30.3002   23.7628 H   0  0  0  0  0  0
  -15.8669  -28.0822   22.7070 H   0  0  0  0  0  0
  -24.5948  -30.7019   25.7740 H   0  0  0  0  0  0
  -24.8923  -32.2844   26.4839 H   0  0  0  0  0  0
  -25.8077  -30.8867   27.0203 H   0  0  0  0  0  0
  -26.2918  -29.6717   24.1201 H   0  0  0  0  0  0
  -27.4082  -29.7245   25.4654 H   0  0  0  0  0  0
  -27.8786  -30.4253   23.9350 H   0  0  0  0  0  0
  -27.2727  -33.3585   26.2055 H   0  0  0  0  0  0
  -28.3912  -32.6814   25.0303 H   0  0  0  0  0  0
  -28.0748  -31.8383   26.5388 H   0  0  0  0  0  0
  -28.2580  -38.0096   24.7515 H   0  0  0  0  0  0
  -28.1086  -36.2627   24.6275 H   0  0  0  0  0  0
  -27.2296  -37.1419   25.8866 H   0  0  0  0  0  0
  -20.9344  -29.8712   21.6857 H   0  0  0  0  0  0
  -26.0153  -38.2825   24.1444 H   0  0  0  0  0  0
  -28.5346  -19.4160   18.4288 H   0  0  0  0  0  0
  -28.6900  -17.0072   18.9104 H   0  0  0  0  0  0
  -31.1551  -20.2765   21.7004 H   0  0  0  0  0  0
  -31.5838  -23.4053   17.5955 H   0  0  0  0  0  0
  -29.9497  -22.8870   17.2578 H   0  0  0  0  0  0
  -31.7584  -21.9636   19.5317 H   0  0  0  0  0  0
  -31.1170  -21.0009   18.2165 H   0  0  0  0  0  0
  -28.1421  -22.4803   22.2809 H   0  0  0  0  0  0
  -27.7719  -21.0286   21.3577 H   0  0  0  0  0  0
  -26.9054  -22.5061   21.0214 H   0  0  0  0  0  0
  -31.8836  -18.0438   24.6826 H   0  0  0  0  0  0
  -30.2093  -18.1411   24.1443 H   0  0  0  0  0  0
  -31.3107  -19.4835   23.8540 H   0  0  0  0  0  0
  -29.1216  -16.5902   22.8361 H   0  0  0  0  0  0
  -29.5178  -14.8973   22.9400 H   0  0  0  0  0  0
  -28.0755  -15.4610   22.0376 H   0  0  0  0  0  0
  -32.6594  -18.0674   22.2972 H   0  0  0  0  0  0
  -31.6851  -16.6810   22.6645 H   0  0  0  0  0  0
  -28.3614  -25.0678   21.6077 H   0  0  0  0  0  0
  -27.1418  -24.7679   20.4272 H   0  0  0  0  0  0
  1 25  1  0  0  0
  1 30  2  0  0  0
  1 88  1  0  0  0
  2  3  1  0  0  0
  2 25  1  0  0  0
  2 90  1  0  0  0
  2 91  1  0  0  0
  3  4  1  0  0  0
  3 92  1  0  0  0
  3 93  1  0  0  0
  4  5  1  0  0  0
  4 94  1  0  0  0
  4 95  1  0  0  0
  5  6  1  0  0  0
  5 26  1  0  0  0
  5 96  1  0  0  0
  6 25  1  0  0  0
  6 97  1  0  0  0
  6 98  1  0  0  0
  7  8  2  0  0  0
  7 26  1  0  0  0
  7 29  1  0  0  0
  8  9  1  0  0  0
  8 22  1  0  0  0
  9 10  1  0  0  0
  9 27  2  0  0  0
 10 11  2  0  0  0
 10 15  1  0  0  0
 11 12  1  0  0  0
 11 99  1  0  0  0
 12 13  2  0  0  0
 12100  1  0  0  0
 13 14  1  0  0  0
 13 31  1  0  0  0
 14 15  2  0  0  0
 14101  1  0  0  0
 15102  1  0  0  0
 16 17  2  0  0  0
 16 21  1  0  0  0
 16 31  1  0  0  0
 17 18  1  0  0  0
 17103  1  0  0  0
 18 19  2  0  0  0
 18104  1  0  0  0
 19 20  1  0  0  0
 19 24  1  0  0  0
 20 21  2  0  0  0
 20105  1  0  0  0
 21 23  1  0  0  0
 22 28  1  0  0  0
 22 32  2  0  0  0
 26 27  1  0  0  0
 28106  1  0  0  0
 28107  1  0  0  0
 29108  1  0  0  0
 29109  1  0  0  0
 33 34  1  0  0  0
 33 66  1  0  0  0
 33 70  2  0  0  0
 34 36  1  0  0  0
 34 59  1  0  0  0
 34110  1  0  0  0
 35 44  2  0  0  0
 35 45  1  0  0  0
 35 68  1  0  0  0
 36 56  1  0  0  0
 36111  1  0  0  0
 37 39  1  0  0  0
 37 47  1  0  0  0
 37 66  1  0  0  0
 37112  1  0  0  0
 38 43  2  0  0  0
 38 46  1  0  0  0
 38 47  1  0  0  0
 39 64  1  0  0  0
 39 67  2  0  0  0
 40 52  1  0  0  0
 40 53  2  0  0  0
 40 58  1  0  0  0
 41113  1  0  0  0
 41114  1  0  0  0
 41115  1  0  0  0
 41 48  1  0  0  0
 42 43  1  0  0  0
 42 66  1  0  0  0
 42116  1  0  0  0
 42117  1  0  0  0
 43 44  1  0  0  0
 44118  1  0  0  0
 45 46  2  0  0  0
 45119  1  0  0  0
 46120  1  0  0  0
 47121  1  0  0  0
 47122  1  0  0  0
 48 56  1  0  0  0
 48 65  1  0  0  0
 48123  1  0  0  0
 49 50  1  0  0  0
 49 53  1  0  0  0
 49 64  1  0  0  0
 49124  1  0  0  0
 50 51  1  0  0  0
 50125  1  0  0  0
 50126  1  0  0  0
 51 52  1  0  0  0
 51127  1  0  0  0
 51128  1  0  0  0
 52129  1  0  0  0
 52130  1  0  0  0
 53 54  1  0  0  0
 54 55  2  0  0  0
 54131  1  0  0  0
 55 57  1  0  0  0
 55132  1  0  0  0
 56 69  2  0  0  0
 57 58  2  0  0  0
 57133  1  0  0  0
 58134  1  0  0  0
 59 60  1  0  0  0
 59 61  1  0  0  0
 59 62  1  0  0  0
 60135  1  0  0  0
 60136  1  0  0  0
 60137  1  0  0  0
 61138  1  0  0  0
 61139  1  0  0  0
 61140  1  0  0  0
 62141  1  0  0  0
 62142  1  0  0  0
 62143  1  0  0  0
 63 65  1  0  0  0
 63144  1  0  0  0
 63145  1  0  0  0
 63146  1  0  0  0
 64147  1  0  0  0
 65148  1  0  0  0
 68 86  1  0  0  0
 71 72  2  0  0  0
 71 75  1  0  0  0
 71149  1  0  0  0
 72 76  1  0  0  0
 72150  1  0  0  0
 73 74  1  0  0  0
 73 75  2  0  0  0
 73151  1  0  0  0
 74 76  2  0  0  0
 74 85  1  0  0  0
 75 87  1  0  0  0
 76 88  1  0  0  0
 77 78  2  0  0  0
 77 79  1  0  0  0
 77 86  1  0  0  0
 78 82  1  0  0  0
 78 87  1  0  0  0
 79 80  1  0  0  0
 79 89  2  0  0  0
 80 81  1  0  0  0
 80152  1  0  0  0
 80153  1  0  0  0
 81 87  1  0  0  0
 81154  1  0  0  0
 81155  1  0  0  0
 82156  1  0  0  0
 82157  1  0  0  0
 82158  1  0  0  0
 83 85  1  0  0  0
 83159  1  0  0  0
 83160  1  0  0  0
 83161  1  0  0  0
 84 88  1  0  0  0
 84162  1  0  0  0
 84163  1  0  0  0
 84164  1  0  0  0
 85165  1  0  0  0
 85166  1  0  0  0
 86167  1  0  0  0
 86168  1  0  0  0
M  ISO  4   1 100  68 101  86 101  88 100
M  END
> <chiral flag>
0

> <version>
0

> <s_m_source_file>
/data/baiqing/PycharmProjects/Reinvent-master-3.2/result/LINK_invent/BTK/process_docking_weight1_custom_product_contain_oxygen_bond_distance_aromatic_linkinvent_7_9_3/rearranged_h_0104.sdf

> <i_m_source_file_index>
32

> <r_mmod_Potential_Energy-OPLS-2005>
308.04541015625

> <r_mmod_Stretch_Energy-OPLS-2005>
102.783180236816

> <r_mmod_Bend_Energy-OPLS-2005>
155.842636108398

> <r_mmod_Torsional_Energy-OPLS-2005>
332.354248046875

> <r_mmod_Improper_Torsional_Energy-OPLS-2005>
6.84072160720825

> <r_mmod_Van_der_Waal_Energy-OPLS-2005>
166.667541503906

> <r_mmod_Electrostatic_Energy-OPLS-2005>
-296.833038330078

> <r_mmod_Solvation_Energy-OPLS-2005>
-206.781433105469

> <b_mmod_Minimization_Converged-OPLS-2005>
0

> <r_mmod_RMS_Derivative-OPLS-2005>
3.82468223571777

$$$$
33
                    3D
 Structure written by MMmdl.
162171  0  0  1  0            999 V2000
  -30.7699  -14.3154   20.6948 C   0  0  0  0  0  0
  -30.4186  -12.2761   19.3437 C   0  0  0  0  0  0
  -29.4685  -12.5258   18.1556 C   0  0  0  0  0  0
  -27.9953  -12.3937   18.5931 C   0  0  0  0  0  0
  -27.6758  -13.1935   19.8863 C   0  0  2  0  0  0
  -28.7256  -12.8853   20.9804 C   0  0  0  0  0  0
  -25.2688  -13.8115   20.5678 C   0  0  0  0  0  0
  -24.1884  -13.0401   20.9151 C   0  0  0  0  0  0
  -24.6431  -11.6884   20.8721 C   0  0  0  0  0  0
  -23.9082  -10.4271   21.0393 C   0  0  0  0  0  0
  -24.3636   -9.4175   21.9165 C   0  0  0  0  0  0
  -23.6302   -8.2225   22.0734 C   0  0  0  0  0  0
  -22.4284   -8.0291   21.3535 C   0  0  0  0  0  0
  -21.9927   -9.0257   20.4625 C   0  0  0  0  0  0
  -22.7259  -10.2135   20.3029 C   0  0  0  0  0  0
  -21.6848   -6.0740   22.5273 C   0  0  0  0  0  0
  -21.3993   -6.5634   23.8203 C   0  0  0  0  0  0
  -21.3651   -5.6781   24.9173 C   0  0  0  0  0  0
  -21.6042   -4.3047   24.7226 C   0  0  0  0  0  0
  -21.8831   -3.8145   23.4350 C   0  0  0  0  0  0
  -21.9197   -4.6969   22.3405 C   0  0  0  0  0  0
  -22.7919  -13.5256   21.1792 C   0  0  0  0  0  0
  -22.1672   -4.2172   21.0984 F   0  0  0  0  0  0
  -21.5645   -3.4527   25.7736 F   0  0  0  0  0  0
  -30.0547  -13.1956   20.4291 N   0  0  0  0  0  0
  -26.3120  -12.9269   20.3438 N   0  0  0  0  0  0
  -25.9362  -11.6434   20.5780 N   0  0  0  0  0  0
  -22.0517  -12.8276   22.0348 N   0  0  0  0  0  0
  -25.4399  -15.1814   20.4080 N   0  0  0  0  0  0
  -31.7809  -14.6294   20.0572 O   0  0  0  0  0  0
  -21.6646   -6.8904   21.4238 O   0  0  0  0  0  0
  -22.3650  -14.5580   20.6682 O   0  0  0  0  0  0
  -24.6126  -31.8676   23.2101 C   0  0  0  0  0  0
  -25.9037  -32.4817   23.8348 C   0  0  1  0  0  0
  -27.2578  -27.4510   20.0744 C   0  0  0  0  0  0
  -25.5859  -33.8583   24.2291 N   0  0  0  0  0  0
  -23.4057  -30.4903   21.5482 C   0  0  2  0  0  0
  -24.8541  -28.9510   20.1255 C   0  0  0  0  0  0
  -22.7408  -29.4679   22.4958 C   0  0  0  0  0  0
  -18.0308  -28.1326   22.8478 C   0  0  0  0  0  0
  -24.1473  -36.7304   23.2656 C   0  0  0  0  0  0
  -25.9356  -30.8261   21.3755 C   0  0  0  0  0  0
  -26.0119  -29.4594   20.7291 C   0  0  0  0  0  0
  -27.2065  -28.7087   20.7201 C   0  0  0  0  0  0
  -26.0865  -26.9766   19.4398 C   0  0  0  0  0  0
  -24.8834  -27.6987   19.4959 C   0  0  0  0  0  0
  -23.6220  -29.8211   20.1654 C   0  0  0  0  0  0
  -25.4095  -36.3087   24.0362 C   0  0  1  0  0  0
  -20.5849  -28.3725   23.1337 C   0  0  2  0  0  0
  -20.6827  -26.9432   22.5527 C   0  0  0  0  0  0
  -19.5871  -26.6417   21.5241 C   0  0  0  0  0  0
  -18.2042  -26.7847   22.1688 C   0  0  0  0  0  0
  -19.1497  -28.8851   23.2875 C   0  0  0  0  0  0
  -18.9397  -30.1477   23.8825 C   0  0  0  0  0  0
  -17.6386  -30.6592   24.0446 C   0  0  0  0  0  0
  -25.9040  -34.9452   23.5150 C   0  0  0  0  0  0
  -16.5303  -29.8990   23.6292 C   0  0  0  0  0  0
  -16.7269  -28.6390   23.0356 C   0  0  0  0  0  0
  -26.4521  -31.6569   25.0625 C   0  0  0  0  0  0
  -25.3846  -31.3546   26.1393 C   0  0  0  0  0  0
  -27.0390  -30.3027   24.5953 C   0  0  0  0  0  0
  -27.6104  -32.4296   25.7327 C   0  0  0  0  0  0
  -27.5576  -37.1796   24.8473 C   0  0  0  0  0  0
  -21.4132  -29.3091   22.3724 N   0  0  0  0  0  0
  -26.4284  -37.3785   23.9416 N   0  0  0  0  0  0
  -24.6671  -31.0774   22.1008 N   0  0  0  0  0  0
  -23.4165  -28.8162   23.2960 O   0  0  0  0  0  0
  -28.4379  -26.7292   20.1098 O   0  0  0  0  0  0
  -26.5650  -34.8936   22.4743 O   0  0  0  0  0  0
  -23.5313  -32.1385   23.7543 O   0  0  0  0  0  0
  -30.5119  -19.9961   22.9025 C   0  0  0  0  0  0
  -28.8689  -18.7766   21.5934 C   0  0  0  0  0  0
  -30.0816  -21.2122   22.3178 C   0  0  0  0  0  0
  -28.4505  -19.9785   21.0036 C   0  0  0  0  0  0
  -29.9250  -18.7728   22.5192 C   0  0  0  0  0  0
  -29.0640  -21.2119   21.3324 C   0  0  0  0  0  0
  -29.3128  -23.4214   20.1714 C   0  0  0  0  0  0
  -27.0149  -23.8990   19.7632 C   0  0  0  0  0  0
  -27.2131  -22.4631   20.2146 C   0  0  0  0  0  0
  -28.4083  -24.2926   19.2812 C   0  0  1  0  0  0
  -30.4220  -17.4471   23.0604 C   0  0  0  0  0  0
  -30.3305  -15.1968   21.8706 C   0  0  0  0  0  0
  -28.7374  -25.7975   19.0610 C   0  0  0  0  0  0
  -31.0441  -16.5588   21.9611 C   0  0  0  0  0  0
  -28.5931  -22.3965   20.6853 N   0  0  0  0  0  0
  -30.5220  -23.6325   20.3283 O   0  0  0  0  0  0
  -31.4574  -12.3817   19.0242 H   0  0  0  0  0  0
  -30.3226  -11.2437   19.6819 H   0  0  0  0  0  0
  -29.6813  -11.8226   17.3492 H   0  0  0  0  0  0
  -29.6390  -13.5213   17.7395 H   0  0  0  0  0  0
  -27.7886  -11.3344   18.7578 H   0  0  0  0  0  0
  -27.3312  -12.6992   17.7838 H   0  0  0  0  0  0
  -27.7494  -14.2548   19.6458 H   0  0  0  0  0  0
  -28.4970  -13.4099   21.9055 H   0  0  0  0  0  0
  -28.6927  -11.8262   21.2434 H   0  0  0  0  0  0
  -25.2781   -9.5685   22.4752 H   0  0  0  0  0  0
  -24.0013   -7.4642   22.7461 H   0  0  0  0  0  0
  -21.0849   -8.8770   19.8963 H   0  0  0  0  0  0
  -22.3681  -10.9688   19.6160 H   0  0  0  0  0  0
  -21.1933   -7.6136   23.9729 H   0  0  0  0  0  0
  -21.1462   -6.0500   25.9089 H   0  0  0  0  0  0
  -22.0617   -2.7618   23.2823 H   0  0  0  0  0  0
  -22.4148  -11.9983   22.4834 H   0  0  0  0  0  0
  -21.1098  -13.1290   22.2436 H   0  0  0  0  0  0
  -24.6718  -15.8367   20.5013 H   0  0  0  0  0  0
  -26.3049  -15.6202   20.1164 H   0  0  0  0  0  0
  -26.7058  -32.5502   23.1060 H   0  0  0  0  0  0
  -24.9817  -33.9704   25.0290 H   0  0  0  0  0  0
  -22.7005  -31.3103   21.4083 H   0  0  0  0  0  0
  -23.3715  -35.9679   23.3346 H   0  0  0  0  0  0
  -24.3571  -36.8878   22.2071 H   0  0  0  0  0  0
  -23.7268  -37.6540   23.6637 H   0  0  0  0  0  0
  -26.0793  -31.5938   20.6148 H   0  0  0  0  0  0
  -26.8118  -30.8653   22.0103 H   0  0  0  0  0  0
  -28.0982  -29.1005   21.1883 H   0  0  0  0  0  0
  -26.0761  -26.0556   18.8877 H   0  0  0  0  0  0
  -23.9985  -27.2937   19.0296 H   0  0  0  0  0  0
  -23.7510  -30.5920   19.4032 H   0  0  0  0  0  0
  -22.7451  -29.2524   19.8464 H   0  0  0  0  0  0
  -25.1275  -36.1997   25.0871 H   0  0  0  0  0  0
  -20.9851  -28.3324   24.1476 H   0  0  0  0  0  0
  -20.5618  -26.2351   23.3759 H   0  0  0  0  0  0
  -21.6717  -26.7470   22.1340 H   0  0  0  0  0  0
  -19.7148  -25.6374   21.1179 H   0  0  0  0  0  0
  -19.6740  -27.3325   20.6830 H   0  0  0  0  0  0
  -17.4270  -26.6475   21.4138 H   0  0  0  0  0  0
  -18.0693  -26.0036   22.9189 H   0  0  0  0  0  0
  -19.7871  -30.7377   24.2086 H   0  0  0  0  0  0
  -17.4893  -31.6295   24.4969 H   0  0  0  0  0  0
  -15.5278  -30.2834   23.7584 H   0  0  0  0  0  0
  -15.8730  -28.0639   22.7096 H   0  0  0  0  0  0
  -24.6057  -30.6865   25.7659 H   0  0  0  0  0  0
  -24.8989  -32.2627   26.4941 H   0  0  0  0  0  0
  -25.8289  -30.8605   27.0041 H   0  0  0  0  0  0
  -26.2861  -29.6703   24.1178 H   0  0  0  0  0  0
  -27.4397  -29.7337   25.4344 H   0  0  0  0  0  0
  -27.8626  -30.4342   23.8927 H   0  0  0  0  0  0
  -27.2725  -33.3581   26.1934 H   0  0  0  0  0  0
  -28.3848  -32.6890   25.0091 H   0  0  0  0  0  0
  -28.0861  -31.8397   26.5178 H   0  0  0  0  0  0
  -28.2630  -38.0044   24.7498 H   0  0  0  0  0  0
  -28.1027  -36.2586   24.6332 H   0  0  0  0  0  0
  -27.2281  -37.1515   25.8867 H   0  0  0  0  0  0
  -20.9314  -29.8825   21.6950 H   0  0  0  0  0  0
  -26.0184  -38.2887   24.1380 H   0  0  0  0  0  0
  -31.2962  -20.0057   23.6476 H   0  0  0  0  0  0
  -28.3857  -17.8533   21.3024 H   0  0  0  0  0  0
  -30.5381  -22.1362   22.6353 H   0  0  0  0  0  0
  -27.6555  -19.9257   20.2771 H   0  0  0  0  0  0
  -26.7058  -24.5064   20.6160 H   0  0  0  0  0  0
  -26.2556  -23.9436   18.9817 H   0  0  0  0  0  0
  -27.1045  -21.8117   19.3440 H   0  0  0  0  0  0
  -26.4914  -22.1623   20.9765 H   0  0  0  0  0  0
  -28.5138  -23.8551   18.2852 H   0  0  0  0  0  0
  -29.5687  -16.9455   23.5185 H   0  0  0  0  0  0
  -31.1380  -17.5935   23.8681 H   0  0  0  0  0  0
  -29.2621  -15.3959   21.7829 H   0  0  0  0  0  0
  -30.4826  -14.6260   22.7870 H   0  0  0  0  0  0
  -28.3017  -26.1369   18.1203 H   0  0  0  0  0  0
  -29.8078  -25.8707   18.8769 H   0  0  0  0  0  0
  -32.1135  -16.4168   22.1451 H   0  0  0  0  0  0
  -30.9815  -17.0540   20.9900 H   0  0  0  0  0  0
  1 25  1  0  0  0
  1 30  2  0  0  0
  1 82  1  0  0  0
  2  3  1  0  0  0
  2 25  1  0  0  0
  2 87  1  0  0  0
  2 88  1  0  0  0
  3  4  1  0  0  0
  3 89  1  0  0  0
  3 90  1  0  0  0
  4  5  1  0  0  0
  4 91  1  0  0  0
  4 92  1  0  0  0
  5  6  1  0  0  0
  5 26  1  0  0  0
  5 93  1  0  0  0
  6 25  1  0  0  0
  6 94  1  0  0  0
  6 95  1  0  0  0
  7  8  2  0  0  0
  7 26  1  0  0  0
  7 29  1  0  0  0
  8  9  1  0  0  0
  8 22  1  0  0  0
  9 10  1  0  0  0
  9 27  2  0  0  0
 10 11  2  0  0  0
 10 15  1  0  0  0
 11 12  1  0  0  0
 11 96  1  0  0  0
 12 13  2  0  0  0
 12 97  1  0  0  0
 13 14  1  0  0  0
 13 31  1  0  0  0
 14 15  2  0  0  0
 14 98  1  0  0  0
 15 99  1  0  0  0
 16 17  2  0  0  0
 16 21  1  0  0  0
 16 31  1  0  0  0
 17 18  1  0  0  0
 17100  1  0  0  0
 18 19  2  0  0  0
 18101  1  0  0  0
 19 20  1  0  0  0
 19 24  1  0  0  0
 20 21  2  0  0  0
 20102  1  0  0  0
 21 23  1  0  0  0
 22 28  1  0  0  0
 22 32  2  0  0  0
 26 27  1  0  0  0
 28103  1  0  0  0
 28104  1  0  0  0
 29105  1  0  0  0
 29106  1  0  0  0
 33 34  1  0  0  0
 33 66  1  0  0  0
 33 70  2  0  0  0
 34 36  1  0  0  0
 34 59  1  0  0  0
 34107  1  0  0  0
 35 44  2  0  0  0
 35 45  1  0  0  0
 35 68  1  0  0  0
 36 56  1  0  0  0
 36108  1  0  0  0
 37 39  1  0  0  0
 37 47  1  0  0  0
 37 66  1  0  0  0
 37109  1  0  0  0
 38 43  2  0  0  0
 38 46  1  0  0  0
 38 47  1  0  0  0
 39 64  1  0  0  0
 39 67  2  0  0  0
 40 52  1  0  0  0
 40 53  2  0  0  0
 40 58  1  0  0  0
 41110  1  0  0  0
 41111  1  0  0  0
 41112  1  0  0  0
 41 48  1  0  0  0
 42 43  1  0  0  0
 42 66  1  0  0  0
 42113  1  0  0  0
 42114  1  0  0  0
 43 44  1  0  0  0
 44115  1  0  0  0
 45 46  2  0  0  0
 45116  1  0  0  0
 46117  1  0  0  0
 47118  1  0  0  0
 47119  1  0  0  0
 48 56  1  0  0  0
 48 65  1  0  0  0
 48120  1  0  0  0
 49 50  1  0  0  0
 49 53  1  0  0  0
 49 64  1  0  0  0
 49121  1  0  0  0
 50 51  1  0  0  0
 50122  1  0  0  0
 50123  1  0  0  0
 51 52  1  0  0  0
 51124  1  0  0  0
 51125  1  0  0  0
 52126  1  0  0  0
 52127  1  0  0  0
 53 54  1  0  0  0
 54 55  2  0  0  0
 54128  1  0  0  0
 55 57  1  0  0  0
 55129  1  0  0  0
 56 69  2  0  0  0
 57 58  2  0  0  0
 57130  1  0  0  0
 58131  1  0  0  0
 59 60  1  0  0  0
 59 61  1  0  0  0
 59 62  1  0  0  0
 60132  1  0  0  0
 60133  1  0  0  0
 60134  1  0  0  0
 61135  1  0  0  0
 61136  1  0  0  0
 61137  1  0  0  0
 62138  1  0  0  0
 62139  1  0  0  0
 62140  1  0  0  0
 63 65  1  0  0  0
 63141  1  0  0  0
 63142  1  0  0  0
 63143  1  0  0  0
 64144  1  0  0  0
 65145  1  0  0  0
 68 83  1  0  0  0
 71 73  2  0  0  0
 71 75  1  0  0  0
 71146  1  0  0  0
 72 74  1  0  0  0
 72 75  2  0  0  0
 72147  1  0  0  0
 73 76  1  0  0  0
 73148  1  0  0  0
 74 76  2  0  0  0
 74149  1  0  0  0
 75 81  1  0  0  0
 76 85  1  0  0  0
 77 80  1  0  0  0
 77 85  1  0  0  0
 77 86  2  0  0  0
 78 79  1  0  0  0
 78 80  1  0  0  0
 78150  1  0  0  0
 78151  1  0  0  0
 79 85  1  0  0  0
 79152  1  0  0  0
 79153  1  0  0  0
 80 83  1  0  0  0
 80154  1  0  0  0
 81 84  1  0  0  0
 81155  1  0  0  0
 81156  1  0  0  0
 82 84  1  0  0  0
 82157  1  0  0  0
 82158  1  0  0  0
 83159  1  0  0  0
 83160  1  0  0  0
 84161  1  0  0  0
 84162  1  0  0  0
M  ISO  4   1 100  68 101  82 100  83 101
M  END
> <chiral flag>
0

> <version>
0

> <s_m_source_file>
/data/baiqing/PycharmProjects/Reinvent-master-3.2/result/LINK_invent/BTK/process_docking_weight1_custom_product_contain_oxygen_bond_distance_aromatic_linkinvent_7_9_3/rearranged_h_0104.sdf

> <i_m_source_file_index>
33

> <r_mmod_Potential_Energy-OPLS-2005>
74.8234634399414

> <r_mmod_Stretch_Energy-OPLS-2005>
35.4336128234863

> <r_mmod_Bend_Energy-OPLS-2005>
150.067840576172

> <r_mmod_Torsional_Energy-OPLS-2005>
224.766479492188

> <r_mmod_Improper_Torsional_Energy-OPLS-2005>
2.51995444297791

> <r_mmod_Van_der_Waal_Energy-OPLS-2005>
161.583343505859

> <r_mmod_Electrostatic_Energy-OPLS-2005>
-298.280212402344

> <r_mmod_Solvation_Energy-OPLS-2005>
-211.146331787109

> <b_mmod_Minimization_Converged-OPLS-2005>
0

> <r_mmod_RMS_Derivative-OPLS-2005>
7.26805019378662

$$$$
34
                    3D
 Structure written by MMmdl.
164173  0  0  1  0            999 V2000
  -30.7005  -14.4611   20.5541 C   0  0  0  0  0  0
  -30.4155  -12.2866   19.4351 C   0  0  0  0  0  0
  -29.5033  -12.5095   18.2096 C   0  0  0  0  0  0
  -28.0168  -12.4027   18.6045 C   0  0  0  0  0  0
  -27.6639  -13.2178   19.8767 C   0  0  2  0  0  0
  -28.6996  -12.9898   21.0004 C   0  0  0  0  0  0
  -25.2565  -13.8164   20.5638 C   0  0  0  0  0  0
  -24.1825  -13.0441   20.9156 C   0  0  0  0  0  0
  -24.6393  -11.6908   20.8689 C   0  0  0  0  0  0
  -23.9069  -10.4282   21.0359 C   0  0  0  0  0  0
  -24.3616   -9.4209   21.9166 C   0  0  0  0  0  0
  -23.6314   -8.2226   22.0735 C   0  0  0  0  0  0
  -22.4291   -8.0255   21.3524 C   0  0  0  0  0  0
  -21.9913   -9.0231   20.4643 C   0  0  0  0  0  0
  -22.7219  -10.2121   20.3036 C   0  0  0  0  0  0
  -21.6851   -6.0739   22.5289 C   0  0  0  0  0  0
  -21.4013   -6.5652   23.8223 C   0  0  0  0  0  0
  -21.3662   -5.6800   24.9190 C   0  0  0  0  0  0
  -21.6054   -4.3065   24.7215 C   0  0  0  0  0  0
  -21.8817   -3.8157   23.4340 C   0  0  0  0  0  0
  -21.9188   -4.6978   22.3397 C   0  0  0  0  0  0
  -22.7853  -13.5267   21.1845 C   0  0  0  0  0  0
  -22.1646   -4.2162   21.0979 F   0  0  0  0  0  0
  -21.5641   -3.4543   25.7723 F   0  0  0  0  0  0
  -30.0398  -13.2759   20.4568 N   0  0  0  0  0  0
  -26.3038  -12.9374   20.3352 N   0  0  0  0  0  0
  -25.9344  -11.6511   20.5724 N   0  0  0  0  0  0
  -22.0506  -12.8261   22.0419 N   0  0  0  0  0  0
  -25.4310  -15.1886   20.4038 N   0  0  0  0  0  0
  -31.8194  -14.6497   20.0631 O   0  0  0  0  0  0
  -21.6637   -6.8879   21.4236 O   0  0  0  0  0  0
  -22.3538  -14.5594   20.6754 O   0  0  0  0  0  0
  -24.6159  -31.8705   23.2086 C   0  0  0  0  0  0
  -25.9061  -32.4846   23.8379 C   0  0  1  0  0  0
  -27.2316  -27.4336   20.0847 C   0  0  0  0  0  0
  -25.5927  -33.8633   24.2320 N   0  0  0  0  0  0
  -23.4015  -30.4932   21.5540 C   0  0  2  0  0  0
  -24.8458  -28.9658   20.1138 C   0  0  0  0  0  0
  -22.7419  -29.4665   22.5026 C   0  0  0  0  0  0
  -18.0267  -28.1412   22.8474 C   0  0  0  0  0  0
  -24.1492  -36.7310   23.2626 C   0  0  0  0  0  0
  -25.9313  -30.8356   21.3605 C   0  0  0  0  0  0
  -26.0092  -29.4693   20.7094 C   0  0  0  0  0  0
  -27.2048  -28.7115   20.6919 C   0  0  0  0  0  0
  -26.0438  -26.9563   19.4758 C   0  0  0  0  0  0
  -24.8590  -27.7087   19.4922 C   0  0  0  0  0  0
  -23.6081  -29.8310   20.1664 C   0  0  0  0  0  0
  -25.4115  -36.3117   24.0330 C   0  0  1  0  0  0
  -20.5854  -28.3679   23.1341 C   0  0  2  0  0  0
  -20.6771  -26.9430   22.5414 C   0  0  0  0  0  0
  -19.5756  -26.6419   21.5200 C   0  0  0  0  0  0
  -18.1931  -26.7961   22.1604 C   0  0  0  0  0  0
  -19.1514  -28.8864   23.2899 C   0  0  0  0  0  0
  -18.9444  -30.1470   23.8911 C   0  0  0  0  0  0
  -17.6447  -30.6609   24.0567 C   0  0  0  0  0  0
  -25.9051  -34.9484   23.5118 C   0  0  0  0  0  0
  -16.5336  -29.9114   23.6332 C   0  0  0  0  0  0
  -16.7255  -28.6537   23.0341 C   0  0  0  0  0  0
  -26.4493  -31.6614   25.0695 C   0  0  0  0  0  0
  -25.3728  -31.3712   26.1422 C   0  0  0  0  0  0
  -27.0308  -30.3069   24.6040 C   0  0  0  0  0  0
  -27.6117  -32.4280   25.7429 C   0  0  0  0  0  0
  -27.5590  -37.1795   24.8463 C   0  0  0  0  0  0
  -21.4147  -29.3043   22.3767 N   0  0  0  0  0  0
  -26.4307  -37.3796   23.9413 N   0  0  0  0  0  0
  -24.6683  -31.0792   22.1002 N   0  0  0  0  0  0
  -23.4197  -28.8212   23.3068 O   0  0  0  0  0  0
  -28.3921  -26.6762   20.1096 O   0  0  0  0  0  0
  -26.5600  -34.8936   22.4672 O   0  0  0  0  0  0
  -23.5350  -32.1472   23.7468 O   0  0  0  0  0  0
  -29.6592  -19.2052   21.2469 C   0  0  0  0  0  0
  -30.1066  -17.1872   19.3638 C   0  0  0  0  0  0
  -29.7200  -19.5578   19.8765 C   0  0  0  0  0  0
  -29.7736  -17.8630   21.6776 C   0  0  0  0  0  0
  -29.9532  -18.5226   18.9263 C   0  0  0  0  0  0
  -30.0058  -16.8347   20.7317 C   0  0  0  0  0  0
  -29.4105  -20.9858   19.4621 C   0  0  0  0  0  0
  -30.4429  -24.1868   19.3753 C   0  0  0  0  0  0
  -31.0164  -22.7933   19.6543 C   0  0  0  0  0  0
  -28.9862  -22.9404   20.8377 C   0  0  0  0  0  0
  -29.4029  -24.3848   20.4745 C   0  0  2  0  0  0
  -29.5870  -17.5593   23.1568 C   0  0  0  0  0  0
  -30.0133  -18.7811   17.4226 C   0  0  0  0  0  0
  -28.1893  -25.2522   20.0712 C   0  0  0  0  0  0
  -29.9203  -21.9916   20.2091 N   0  0  0  0  0  0
  -30.0109  -15.4614   21.1312 N   0  0  0  0  0  0
  -28.6920  -21.2086   18.4809 O   0  0  0  0  0  0
  -31.4668  -12.3617   19.1528 H   0  0  0  0  0  0
  -30.2882  -11.2759   19.8266 H   0  0  0  0  0  0
  -29.7362  -11.7798   17.4308 H   0  0  0  0  0  0
  -29.7007  -13.4922   17.7731 H   0  0  0  0  0  0
  -27.7852  -11.3497   18.7616 H   0  0  0  0  0  0
  -27.3910  -12.7347   17.7750 H   0  0  0  0  0  0
  -27.7146  -14.2690   19.5947 H   0  0  0  0  0  0
  -28.6572  -11.9571   21.3484 H   0  0  0  0  0  0
  -28.4609  -13.5974   21.8733 H   0  0  0  0  0  0
  -25.2721   -9.5734   22.4787 H   0  0  0  0  0  0
  -24.0033   -7.4622   22.7463 H   0  0  0  0  0  0
  -21.0845   -8.8745   19.8964 H   0  0  0  0  0  0
  -22.3634  -10.9674   19.6171 H   0  0  0  0  0  0
  -21.2003   -7.6156   23.9728 H   0  0  0  0  0  0
  -21.1495   -6.0529   25.9106 H   0  0  0  0  0  0
  -22.0603   -2.7622   23.2822 H   0  0  0  0  0  0
  -22.4054  -11.9888   22.4787 H   0  0  0  0  0  0
  -21.1130  -13.1313   22.2639 H   0  0  0  0  0  0
  -24.6757  -15.8542   20.5314 H   0  0  0  0  0  0
  -26.3033  -15.6254   20.1342 H   0  0  0  0  0  0
  -26.7130  -32.5558   23.1143 H   0  0  0  0  0  0
  -25.0094  -33.9802   25.0475 H   0  0  0  0  0  0
  -22.6886  -31.3078   21.4182 H   0  0  0  0  0  0
  -23.3765  -35.9632   23.3291 H   0  0  0  0  0  0
  -24.3576  -36.8919   22.2039 H   0  0  0  0  0  0
  -23.7236  -37.6509   23.6642 H   0  0  0  0  0  0
  -26.0346  -31.5942   20.5830 H   0  0  0  0  0  0
  -26.8230  -30.8961   21.9722 H   0  0  0  0  0  0
  -28.1005  -29.0960   21.1595 H   0  0  0  0  0  0
  -26.0000  -26.0020   18.9745 H   0  0  0  0  0  0
  -23.9708  -27.3145   19.0173 H   0  0  0  0  0  0
  -23.7175  -30.6078   19.4089 H   0  0  0  0  0  0
  -22.7314  -29.2527   19.8711 H   0  0  0  0  0  0
  -25.1291  -36.1969   25.0820 H   0  0  0  0  0  0
  -20.9914  -28.3225   24.1472 H   0  0  0  0  0  0
  -20.5692  -26.2279   23.3580 H   0  0  0  0  0  0
  -21.6642  -26.7514   22.1200 H   0  0  0  0  0  0
  -19.6926  -25.6326   21.1240 H   0  0  0  0  0  0
  -19.6725  -27.3214   20.6722 H   0  0  0  0  0  0
  -17.4205  -26.6696   21.4001 H   0  0  0  0  0  0
  -18.0342  -26.0121   22.9019 H   0  0  0  0  0  0
  -19.7916  -30.7279   24.2305 H   0  0  0  0  0  0
  -17.5003  -31.6290   24.5183 H   0  0  0  0  0  0
  -15.5340  -30.3020   23.7674 H   0  0  0  0  0  0
  -15.8651  -28.0869   22.7055 H   0  0  0  0  0  0
  -24.5914  -30.7082   25.7698 H   0  0  0  0  0  0
  -24.8906  -32.2864   26.4859 H   0  0  0  0  0  0
  -25.8036  -30.8848   27.0184 H   0  0  0  0  0  0
  -26.2834  -29.6815   24.1156 H   0  0  0  0  0  0
  -27.4182  -29.7323   25.4465 H   0  0  0  0  0  0
  -27.8624  -30.4415   23.9114 H   0  0  0  0  0  0
  -27.2840  -33.3581   26.2073 H   0  0  0  0  0  0
  -28.3890  -32.6820   25.0207 H   0  0  0  0  0  0
  -28.0850  -31.8343   26.5265 H   0  0  0  0  0  0
  -28.2617  -38.0086   24.7524 H   0  0  0  0  0  0
  -28.1083  -36.2619   24.6283 H   0  0  0  0  0  0
  -27.2312  -37.1437   25.8868 H   0  0  0  0  0  0
  -20.9320  -29.8767   21.6986 H   0  0  0  0  0  0
  -26.0197  -38.2875   24.1424 H   0  0  0  0  0  0
  -29.4576  -19.9741   21.9795 H   0  0  0  0  0  0
  -30.2506  -16.4153   18.6209 H   0  0  0  0  0  0
  -29.9718  -24.1925   18.3905 H   0  0  0  0  0  0
  -31.2070  -24.9654   19.3732 H   0  0  0  0  0  0
  -31.8057  -22.8601   20.4045 H   0  0  0  0  0  0
  -31.4541  -22.3555   18.7554 H   0  0  0  0  0  0
  -27.9589  -22.7435   20.5246 H   0  0  0  0  0  0
  -29.0015  -22.8044   21.9202 H   0  0  0  0  0  0
  -29.8908  -24.8224   21.3462 H   0  0  0  0  0  0
  -30.0824  -18.3098   23.7708 H   0  0  0  0  0  0
  -30.0081  -16.5941   23.4405 H   0  0  0  0  0  0
  -28.5224  -17.5741   23.4042 H   0  0  0  0  0  0
  -30.3480  -17.9022   16.8695 H   0  0  0  0  0  0
  -30.7075  -19.5885   17.1851 H   0  0  0  0  0  0
  -29.0232  -19.0340   17.0385 H   0  0  0  0  0  0
  -27.3728  -25.0072   20.7523 H   0  0  0  0  0  0
  -27.8741  -24.9493   19.0735 H   0  0  0  0  0  0
  -29.2251  -15.1718   21.6931 H   0  0  0  0  0  0
  1 25  1  0  0  0
  1 30  2  0  0  0
  1 86  1  0  0  0
  2  3  1  0  0  0
  2 25  1  0  0  0
  2 88  1  0  0  0
  2 89  1  0  0  0
  3  4  1  0  0  0
  3 90  1  0  0  0
  3 91  1  0  0  0
  4  5  1  0  0  0
  4 92  1  0  0  0
  4 93  1  0  0  0
  5  6  1  0  0  0
  5 26  1  0  0  0
  5 94  1  0  0  0
  6 25  1  0  0  0
  6 95  1  0  0  0
  6 96  1  0  0  0
  7  8  2  0  0  0
  7 26  1  0  0  0
  7 29  1  0  0  0
  8  9  1  0  0  0
  8 22  1  0  0  0
  9 10  1  0  0  0
  9 27  2  0  0  0
 10 11  2  0  0  0
 10 15  1  0  0  0
 11 12  1  0  0  0
 11 97  1  0  0  0
 12 13  2  0  0  0
 12 98  1  0  0  0
 13 14  1  0  0  0
 13 31  1  0  0  0
 14 15  2  0  0  0
 14 99  1  0  0  0
 15100  1  0  0  0
 16 17  2  0  0  0
 16 21  1  0  0  0
 16 31  1  0  0  0
 17 18  1  0  0  0
 17101  1  0  0  0
 18 19  2  0  0  0
 18102  1  0  0  0
 19 20  1  0  0  0
 19 24  1  0  0  0
 20 21  2  0  0  0
 20103  1  0  0  0
 21 23  1  0  0  0
 22 28  1  0  0  0
 22 32  2  0  0  0
 26 27  1  0  0  0
 28104  1  0  0  0
 28105  1  0  0  0
 29106  1  0  0  0
 29107  1  0  0  0
 33 34  1  0  0  0
 33 66  1  0  0  0
 33 70  2  0  0  0
 34 36  1  0  0  0
 34 59  1  0  0  0
 34108  1  0  0  0
 35 44  2  0  0  0
 35 45  1  0  0  0
 35 68  1  0  0  0
 36 56  1  0  0  0
 36109  1  0  0  0
 37 39  1  0  0  0
 37 47  1  0  0  0
 37 66  1  0  0  0
 37110  1  0  0  0
 38 43  2  0  0  0
 38 46  1  0  0  0
 38 47  1  0  0  0
 39 64  1  0  0  0
 39 67  2  0  0  0
 40 52  1  0  0  0
 40 53  2  0  0  0
 40 58  1  0  0  0
 41111  1  0  0  0
 41112  1  0  0  0
 41113  1  0  0  0
 41 48  1  0  0  0
 42 43  1  0  0  0
 42 66  1  0  0  0
 42114  1  0  0  0
 42115  1  0  0  0
 43 44  1  0  0  0
 44116  1  0  0  0
 45 46  2  0  0  0
 45117  1  0  0  0
 46118  1  0  0  0
 47119  1  0  0  0
 47120  1  0  0  0
 48 56  1  0  0  0
 48 65  1  0  0  0
 48121  1  0  0  0
 49 50  1  0  0  0
 49 53  1  0  0  0
 49 64  1  0  0  0
 49122  1  0  0  0
 50 51  1  0  0  0
 50123  1  0  0  0
 50124  1  0  0  0
 51 52  1  0  0  0
 51125  1  0  0  0
 51126  1  0  0  0
 52127  1  0  0  0
 52128  1  0  0  0
 53 54  1  0  0  0
 54 55  2  0  0  0
 54129  1  0  0  0
 55 57  1  0  0  0
 55130  1  0  0  0
 56 69  2  0  0  0
 57 58  2  0  0  0
 57131  1  0  0  0
 58132  1  0  0  0
 59 60  1  0  0  0
 59 61  1  0  0  0
 59 62  1  0  0  0
 60133  1  0  0  0
 60134  1  0  0  0
 60135  1  0  0  0
 61136  1  0  0  0
 61137  1  0  0  0
 61138  1  0  0  0
 62139  1  0  0  0
 62140  1  0  0  0
 62141  1  0  0  0
 63 65  1  0  0  0
 63142  1  0  0  0
 63143  1  0  0  0
 63144  1  0  0  0
 64145  1  0  0  0
 65146  1  0  0  0
 68 84  1  0  0  0
 71 73  2  0  0  0
 71 74  1  0  0  0
 71147  1  0  0  0
 72 75  2  0  0  0
 72 76  1  0  0  0
 72148  1  0  0  0
 73 75  1  0  0  0
 73 77  1  0  0  0
 74 76  2  0  0  0
 74 82  1  0  0  0
 75 83  1  0  0  0
 76 86  1  0  0  0
 77 85  1  0  0  0
 77 87  2  0  0  0
 78 79  1  0  0  0
 78 81  1  0  0  0
 78149  1  0  0  0
 78150  1  0  0  0
 79 85  1  0  0  0
 79151  1  0  0  0
 79152  1  0  0  0
 80 81  1  0  0  0
 80 85  1  0  0  0
 80153  1  0  0  0
 80154  1  0  0  0
 81 84  1  0  0  0
 81155  1  0  0  0
 82156  1  0  0  0
 82157  1  0  0  0
 82158  1  0  0  0
 83159  1  0  0  0
 83160  1  0  0  0
 83161  1  0  0  0
 84162  1  0  0  0
 84163  1  0  0  0
 86164  1  0  0  0
M  ISO  4   1 100  68 101  84 101  86 100
M  END
> <chiral flag>
0

> <version>
0

> <s_m_source_file>
/data/baiqing/PycharmProjects/Reinvent-master-3.2/result/LINK_invent/BTK/process_docking_weight1_custom_product_contain_oxygen_bond_distance_aromatic_linkinvent_7_9_3/rearranged_h_0104.sdf

> <i_m_source_file_index>
34

> <r_mmod_Potential_Energy-OPLS-2005>
185.658157348633

> <r_mmod_Stretch_Energy-OPLS-2005>
41.2152938842773

> <r_mmod_Bend_Energy-OPLS-2005>
118.821006774902

> <r_mmod_Torsional_Energy-OPLS-2005>
385.756286621094

> <r_mmod_Improper_Torsional_Energy-OPLS-2005>
9.34434795379639

> <r_mmod_Van_der_Waal_Energy-OPLS-2005>
164.312591552734

> <r_mmod_Electrostatic_Energy-OPLS-2005>
-327.055328369141

> <r_mmod_Solvation_Energy-OPLS-2005>
-219.630844116211

> <b_mmod_Minimization_Converged-OPLS-2005>
0

> <r_mmod_RMS_Derivative-OPLS-2005>
3.80768775939941

$$$$
35
                    3D
 Structure written by MMmdl.
159167  0  0  1  0            999 V2000
  -30.7384  -14.4866   20.5684 C   0  0  0  0  0  0
  -30.4052  -12.3200   19.4254 C   0  0  0  0  0  0
  -29.4859  -12.4917   18.2017 C   0  0  0  0  0  0
  -28.0099  -12.3492   18.6206 C   0  0  0  0  0  0
  -27.6494  -13.2150   19.8584 C   0  0  2  0  0  0
  -28.6947  -13.0564   20.9842 C   0  0  0  0  0  0
  -25.2538  -13.8179   20.5641 C   0  0  0  0  0  0
  -24.1816  -13.0439   20.9176 C   0  0  0  0  0  0
  -24.6389  -11.6913   20.8749 C   0  0  0  0  0  0
  -23.9065  -10.4290   21.0420 C   0  0  0  0  0  0
  -24.3620   -9.4200   21.9192 C   0  0  0  0  0  0
  -23.6289   -8.2241   22.0761 C   0  0  0  0  0  0
  -22.4273   -8.0282   21.3552 C   0  0  0  0  0  0
  -21.9911   -9.0253   20.4655 C   0  0  0  0  0  0
  -22.7243  -10.2129   20.3066 C   0  0  0  0  0  0
  -21.6853   -6.0733   22.5276 C   0  0  0  0  0  0
  -21.4019   -6.5638   23.8208 C   0  0  0  0  0  0
  -21.3660   -5.6792   24.9171 C   0  0  0  0  0  0
  -21.6043   -4.3053   24.7223 C   0  0  0  0  0  0
  -21.8817   -3.8146   23.4346 C   0  0  0  0  0  0
  -21.9190   -4.6961   22.3401 C   0  0  0  0  0  0
  -22.7845  -13.5239   21.1833 C   0  0  0  0  0  0
  -22.1659   -4.2147   21.0977 F   0  0  0  0  0  0
  -21.5628   -3.4536   25.7737 F   0  0  0  0  0  0
  -30.0136  -13.3445   20.4082 N   0  0  0  0  0  0
  -26.2966  -12.9359   20.3304 N   0  0  0  0  0  0
  -25.9314  -11.6518   20.5771 N   0  0  0  0  0  0
  -22.0492  -12.8234   22.0400 N   0  0  0  0  0  0
  -25.4224  -15.1887   20.3969 N   0  0  0  0  0  0
  -31.9043  -14.5564   20.1684 O   0  0  0  0  0  0
  -21.6643   -6.8878   21.4243 O   0  0  0  0  0  0
  -22.3532  -14.5540   20.6673 O   0  0  0  0  0  0
  -24.6184  -31.8674   23.2104 C   0  0  0  0  0  0
  -25.9075  -32.4817   23.8392 C   0  0  1  0  0  0
  -27.2132  -27.4063   20.0968 C   0  0  0  0  0  0
  -25.5918  -33.8617   24.2324 N   0  0  0  0  0  0
  -23.4046  -30.4949   21.5530 C   0  0  2  0  0  0
  -24.8462  -28.9653   20.1086 C   0  0  0  0  0  0
  -22.7433  -29.4661   22.4992 C   0  0  0  0  0  0
  -18.0289  -28.1345   22.8471 C   0  0  0  0  0  0
  -24.1487  -36.7313   23.2638 C   0  0  0  0  0  0
  -25.9383  -30.8271   21.3655 C   0  0  0  0  0  0
  -26.0114  -29.4623   20.7065 C   0  0  0  0  0  0
  -27.2018  -28.6927   20.6923 C   0  0  0  0  0  0
  -26.0306  -26.9424   19.4750 C   0  0  0  0  0  0
  -24.8527  -27.7082   19.4856 C   0  0  0  0  0  0
  -23.6100  -29.8339   20.1644 C   0  0  0  0  0  0
  -25.4105  -36.3109   24.0336 C   0  0  1  0  0  0
  -20.5879  -28.3658   23.1319 C   0  0  2  0  0  0
  -20.6787  -26.9389   22.5420 C   0  0  0  0  0  0
  -19.5771  -26.6349   21.5217 C   0  0  0  0  0  0
  -18.1943  -26.7886   22.1612 C   0  0  0  0  0  0
  -19.1534  -28.8818   23.2887 C   0  0  0  0  0  0
  -18.9453  -30.1424   23.8893 C   0  0  0  0  0  0
  -17.6454  -30.6557   24.0534 C   0  0  0  0  0  0
  -25.9042  -34.9476   23.5126 C   0  0  0  0  0  0
  -16.5345  -29.9046   23.6301 C   0  0  0  0  0  0
  -16.7283  -28.6466   23.0320 C   0  0  0  0  0  0
  -26.4479  -31.6596   25.0723 C   0  0  0  0  0  0
  -25.3735  -31.3707   26.1462 C   0  0  0  0  0  0
  -27.0300  -30.3037   24.6103 C   0  0  0  0  0  0
  -27.6053  -32.4308   25.7484 C   0  0  0  0  0  0
  -27.5578  -37.1810   24.8466 C   0  0  0  0  0  0
  -21.4159  -29.3034   22.3736 N   0  0  0  0  0  0
  -26.4289  -37.3793   23.9411 N   0  0  0  0  0  0
  -24.6725  -31.0773   22.1009 N   0  0  0  0  0  0
  -23.4203  -28.8195   23.3030 O   0  0  0  0  0  0
  -28.3469  -26.6122   20.1468 O   0  0  0  0  0  0
  -26.5608  -34.8931   22.4690 O   0  0  0  0  0  0
  -23.5372  -32.1439   23.7495 O   0  0  0  0  0  0
  -28.7367  -18.3992   21.3960 C   0  0  0  0  0  0
  -30.3129  -20.4008   20.2171 C   0  0  0  0  0  0
  -30.0605  -18.0798   21.0114 C   0  0  0  0  0  0
  -30.8443  -19.0943   20.3755 C   0  0  0  0  0  0
  -29.0110  -20.7242   20.6412 C   0  0  0  0  0  0
  -28.2165  -19.7024   21.2107 C   0  0  0  0  0  0
  -30.6741  -16.7373   21.3724 C   0  0  0  0  0  0
  -32.7533  -19.6958   18.7191 C   0  0  0  0  0  0
  -32.2590  -18.7943   19.8606 C   0  0  0  0  0  0
  -29.3150  -24.3855   20.7778 C   0  0  0  0  0  0
  -28.0950  -25.1902   20.2771 C   0  0  0  0  0  0
  -29.0023  -22.9885   21.3901 C   0  0  0  0  0  0
  -30.0690  -15.5956   20.9714 N   0  0  0  0  0  0
  -31.7424  -16.7444   21.9959 O   0  0  0  0  0  0
  -28.5262  -22.0081   20.4559 O   0  0  0  0  0  0
  -26.9528  -19.9782   21.6121 F   0  0  0  0  0  0
  -31.4521  -12.3902   19.1245 H   0  0  0  0  0  0
  -30.2879  -11.3232   19.8547 H   0  0  0  0  0  0
  -29.7288  -11.7521   17.4372 H   0  0  0  0  0  0
  -29.6489  -13.4696   17.7455 H   0  0  0  0  0  0
  -27.8312  -11.2968   18.8437 H   0  0  0  0  0  0
  -27.3542  -12.5952   17.7843 H   0  0  0  0  0  0
  -27.6741  -14.2522   19.5253 H   0  0  0  0  0  0
  -28.6794  -12.0402   21.3802 H   0  0  0  0  0  0
  -28.4654  -13.7112   21.8264 H   0  0  0  0  0  0
  -25.2770   -9.5664   22.4759 H   0  0  0  0  0  0
  -23.9987   -7.4636   22.7486 H   0  0  0  0  0  0
  -21.0838   -8.8785   19.8965 H   0  0  0  0  0  0
  -22.3716  -10.9668   19.6171 H   0  0  0  0  0  0
  -21.2027   -7.6148   23.9710 H   0  0  0  0  0  0
  -21.1480   -6.0524   25.9068 H   0  0  0  0  0  0
  -22.0600   -2.7607   23.2847 H   0  0  0  0  0  0
  -22.4114  -11.9898   22.4788 H   0  0  0  0  0  0
  -21.1117  -13.1272   22.2623 H   0  0  0  0  0  0
  -24.6425  -15.8332   20.4712 H   0  0  0  0  0  0
  -26.2526  -15.6178   20.0091 H   0  0  0  0  0  0
  -26.7144  -32.5500   23.1147 H   0  0  0  0  0  0
  -25.0060  -33.9771   25.0464 H   0  0  0  0  0  0
  -22.6935  -31.3125   21.4186 H   0  0  0  0  0  0
  -23.3741  -35.9653   23.3311 H   0  0  0  0  0  0
  -24.3587  -36.8924   22.2052 H   0  0  0  0  0  0
  -23.7245  -37.6526   23.6646 H   0  0  0  0  0  0
  -26.0549  -31.5948   20.5988 H   0  0  0  0  0  0
  -26.8265  -30.8769   21.9834 H   0  0  0  0  0  0
  -28.1000  -29.0674   21.1636 H   0  0  0  0  0  0
  -25.9925  -25.9848   18.9763 H   0  0  0  0  0  0
  -23.9579  -27.3275   19.0118 H   0  0  0  0  0  0
  -23.7176  -30.6129   19.4095 H   0  0  0  0  0  0
  -22.7313  -29.2582   19.8664 H   0  0  0  0  0  0
  -25.1275  -36.1968   25.0826 H   0  0  0  0  0  0
  -20.9946  -28.3222   24.1453 H   0  0  0  0  0  0
  -20.5680  -26.2265   23.3616 H   0  0  0  0  0  0
  -21.6656  -26.7419   22.1223 H   0  0  0  0  0  0
  -19.6950  -25.6259   21.1269 H   0  0  0  0  0  0
  -19.6726  -27.3136   20.6727 H   0  0  0  0  0  0
  -17.4229  -26.6637   21.3999 H   0  0  0  0  0  0
  -18.0336  -26.0019   22.9001 H   0  0  0  0  0  0
  -19.7930  -30.7231   24.2275 H   0  0  0  0  0  0
  -17.5000  -31.6237   24.5120 H   0  0  0  0  0  0
  -15.5339  -30.2935   23.7614 H   0  0  0  0  0  0
  -15.8686  -28.0776   22.7031 H   0  0  0  0  0  0
  -24.5907  -30.7057   25.7801 H   0  0  0  0  0  0
  -24.8921  -32.2863   26.4907 H   0  0  0  0  0  0
  -25.8081  -30.8874   27.0222 H   0  0  0  0  0  0
  -26.2845  -29.6807   24.1147 H   0  0  0  0  0  0
  -27.4065  -29.7260   25.4560 H   0  0  0  0  0  0
  -27.8686  -30.4362   23.9260 H   0  0  0  0  0  0
  -27.2679  -33.3602   26.2083 H   0  0  0  0  0  0
  -28.3850  -32.6880   25.0302 H   0  0  0  0  0  0
  -28.0732  -31.8413   26.5380 H   0  0  0  0  0  0
  -28.2599  -38.0105   24.7504 H   0  0  0  0  0  0
  -28.1067  -36.2634   24.6285 H   0  0  0  0  0  0
  -27.2304  -37.1457   25.8875 H   0  0  0  0  0  0
  -20.9303  -29.8765   21.6984 H   0  0  0  0  0  0
  -26.0177  -38.2873   24.1402 H   0  0  0  0  0  0
  -28.1199  -17.6564   21.8811 H   0  0  0  0  0  0
  -30.8971  -21.1879   19.7657 H   0  0  0  0  0  0
  -33.7103  -19.3341   18.3413 H   0  0  0  0  0  0
  -32.9121  -20.7233   19.0465 H   0  0  0  0  0  0
  -32.0512  -19.7007   17.8842 H   0  0  0  0  0  0
  -32.2977  -17.7693   19.4896 H   0  0  0  0  0  0
  -32.9582  -18.8497   20.6962 H   0  0  0  0  0  0
  -29.7950  -24.9757   21.5582 H   0  0  0  0  0  0
  -30.0525  -24.2903   19.9805 H   0  0  0  0  0  0
  -27.2749  -25.0373   20.9815 H   0  0  0  0  0  0
  -27.7781  -24.7716   19.3213 H   0  0  0  0  0  0
  -28.2552  -23.0947   22.1776 H   0  0  0  0  0  0
  -29.9047  -22.6317   21.8898 H   0  0  0  0  0  0
  -29.0738  -15.6103   20.8333 H   0  0  0  0  0  0
  1 25  1  0  0  0
  1 30  2  0  0  0
  1 83  1  0  0  0
  2  3  1  0  0  0
  2 25  1  0  0  0
  2 87  1  0  0  0
  2 88  1  0  0  0
  3  4  1  0  0  0
  3 89  1  0  0  0
  3 90  1  0  0  0
  4  5  1  0  0  0
  4 91  1  0  0  0
  4 92  1  0  0  0
  5  6  1  0  0  0
  5 26  1  0  0  0
  5 93  1  0  0  0
  6 25  1  0  0  0
  6 94  1  0  0  0
  6 95  1  0  0  0
  7  8  2  0  0  0
  7 26  1  0  0  0
  7 29  1  0  0  0
  8  9  1  0  0  0
  8 22  1  0  0  0
  9 10  1  0  0  0
  9 27  2  0  0  0
 10 11  2  0  0  0
 10 15  1  0  0  0
 11 12  1  0  0  0
 11 96  1  0  0  0
 12 13  2  0  0  0
 12 97  1  0  0  0
 13 14  1  0  0  0
 13 31  1  0  0  0
 14 15  2  0  0  0
 14 98  1  0  0  0
 15 99  1  0  0  0
 16 17  2  0  0  0
 16 21  1  0  0  0
 16 31  1  0  0  0
 17 18  1  0  0  0
 17100  1  0  0  0
 18 19  2  0  0  0
 18101  1  0  0  0
 19 20  1  0  0  0
 19 24  1  0  0  0
 20 21  2  0  0  0
 20102  1  0  0  0
 21 23  1  0  0  0
 22 28  1  0  0  0
 22 32  2  0  0  0
 26 27  1  0  0  0
 28103  1  0  0  0
 28104  1  0  0  0
 29105  1  0  0  0
 29106  1  0  0  0
 33 34  1  0  0  0
 33 66  1  0  0  0
 33 70  2  0  0  0
 34 36  1  0  0  0
 34 59  1  0  0  0
 34107  1  0  0  0
 35 44  2  0  0  0
 35 45  1  0  0  0
 35 68  1  0  0  0
 36 56  1  0  0  0
 36108  1  0  0  0
 37 39  1  0  0  0
 37 47  1  0  0  0
 37 66  1  0  0  0
 37109  1  0  0  0
 38 43  2  0  0  0
 38 46  1  0  0  0
 38 47  1  0  0  0
 39 64  1  0  0  0
 39 67  2  0  0  0
 40 52  1  0  0  0
 40 53  2  0  0  0
 40 58  1  0  0  0
 41110  1  0  0  0
 41111  1  0  0  0
 41112  1  0  0  0
 41 48  1  0  0  0
 42 43  1  0  0  0
 42 66  1  0  0  0
 42113  1  0  0  0
 42114  1  0  0  0
 43 44  1  0  0  0
 44115  1  0  0  0
 45 46  2  0  0  0
 45116  1  0  0  0
 46117  1  0  0  0
 47118  1  0  0  0
 47119  1  0  0  0
 48 56  1  0  0  0
 48 65  1  0  0  0
 48120  1  0  0  0
 49 50  1  0  0  0
 49 53  1  0  0  0
 49 64  1  0  0  0
 49121  1  0  0  0
 50 51  1  0  0  0
 50122  1  0  0  0
 50123  1  0  0  0
 51 52  1  0  0  0
 51124  1  0  0  0
 51125  1  0  0  0
 52126  1  0  0  0
 52127  1  0  0  0
 53 54  1  0  0  0
 54 55  2  0  0  0
 54128  1  0  0  0
 55 57  1  0  0  0
 55129  1  0  0  0
 56 69  2  0  0  0
 57 58  2  0  0  0
 57130  1  0  0  0
 58131  1  0  0  0
 59 60  1  0  0  0
 59 61  1  0  0  0
 59 62  1  0  0  0
 60132  1  0  0  0
 60133  1  0  0  0
 60134  1  0  0  0
 61135  1  0  0  0
 61136  1  0  0  0
 61137  1  0  0  0
 62138  1  0  0  0
 62139  1  0  0  0
 62140  1  0  0  0
 63 65  1  0  0  0
 63141  1  0  0  0
 63142  1  0  0  0
 63143  1  0  0  0
 64144  1  0  0  0
 65145  1  0  0  0
 68 81  1  0  0  0
 71 73  2  0  0  0
 71 76  1  0  0  0
 71146  1  0  0  0
 72 74  2  0  0  0
 72 75  1  0  0  0
 72147  1  0  0  0
 73 74  1  0  0  0
 73 77  1  0  0  0
 74 79  1  0  0  0
 75 76  2  0  0  0
 75 85  1  0  0  0
 76 86  1  0  0  0
 77 83  1  0  0  0
 77 84  2  0  0  0
 78 79  1  0  0  0
 78148  1  0  0  0
 78149  1  0  0  0
 78150  1  0  0  0
 79151  1  0  0  0
 79152  1  0  0  0
 80 81  1  0  0  0
 80 82  1  0  0  0
 80153  1  0  0  0
 80154  1  0  0  0
 81155  1  0  0  0
 81156  1  0  0  0
 82 85  1  0  0  0
 82157  1  0  0  0
 82158  1  0  0  0
 83159  1  0  0  0
M  ISO  4   1 100  68 101  81 101  83 100
M  END
> <chiral flag>
0

> <version>
0

> <s_m_source_file>
/data/baiqing/PycharmProjects/Reinvent-master-3.2/result/LINK_invent/BTK/process_docking_weight1_custom_product_contain_oxygen_bond_distance_aromatic_linkinvent_7_9_3/rearranged_h_0104.sdf

> <i_m_source_file_index>
35

> <r_mmod_Potential_Energy-OPLS-2005>
-30.6396789550781

> <r_mmod_Stretch_Energy-OPLS-2005>
43.425479888916

> <r_mmod_Bend_Energy-OPLS-2005>
98.1945877075195

> <r_mmod_Torsional_Energy-OPLS-2005>
291.213043212891

> <r_mmod_Improper_Torsional_Energy-OPLS-2005>
5.66051483154297

> <r_mmod_Van_der_Waal_Energy-OPLS-2005>
166.663146972656

> <r_mmod_Electrostatic_Energy-OPLS-2005>
-446.522308349609

> <r_mmod_Solvation_Energy-OPLS-2005>
-212.873901367188

> <b_mmod_Minimization_Converged-OPLS-2005>
0

> <r_mmod_RMS_Derivative-OPLS-2005>
1.47949087619781

$$$$
36
                    3D
 Structure written by MMmdl.
158166  0  0  1  0            999 V2000
  -30.7360  -14.4420   20.6183 C   0  0  0  0  0  0
  -30.4179  -12.3096   19.4116 C   0  0  0  0  0  0
  -29.4879  -12.5140   18.2005 C   0  0  0  0  0  0
  -28.0119  -12.3719   18.6175 C   0  0  0  0  0  0
  -27.6620  -13.2094   19.8761 C   0  0  2  0  0  0
  -28.7037  -12.9866   20.9948 C   0  0  0  0  0  0
  -25.2590  -13.8175   20.5690 C   0  0  0  0  0  0
  -24.1843  -13.0444   20.9179 C   0  0  0  0  0  0
  -24.6400  -11.6911   20.8741 C   0  0  0  0  0  0
  -23.9064  -10.4298   21.0406 C   0  0  0  0  0  0
  -24.3615   -9.4213   21.9188 C   0  0  0  0  0  0
  -23.6291   -8.2247   22.0759 C   0  0  0  0  0  0
  -22.4274   -8.0285   21.3544 C   0  0  0  0  0  0
  -21.9911   -9.0261   20.4647 C   0  0  0  0  0  0
  -22.7238  -10.2140   20.3055 C   0  0  0  0  0  0
  -21.6850   -6.0740   22.5279 C   0  0  0  0  0  0
  -21.4013   -6.5643   23.8213 C   0  0  0  0  0  0
  -21.3661   -5.6796   24.9177 C   0  0  0  0  0  0
  -21.6044   -4.3058   24.7228 C   0  0  0  0  0  0
  -21.8819   -3.8151   23.4348 C   0  0  0  0  0  0
  -21.9191   -4.6967   22.3403 C   0  0  0  0  0  0
  -22.7865  -13.5242   21.1842 C   0  0  0  0  0  0
  -22.1663   -4.2154   21.0979 F   0  0  0  0  0  0
  -21.5629   -3.4539   25.7737 F   0  0  0  0  0  0
  -30.0362  -13.2885   20.4421 N   0  0  0  0  0  0
  -26.3028  -12.9348   20.3377 N   0  0  0  0  0  0
  -25.9325  -11.6503   20.5766 N   0  0  0  0  0  0
  -22.0498  -12.8232   22.0392 N   0  0  0  0  0  0
  -25.4315  -15.1894   20.4109 N   0  0  0  0  0  0
  -31.8269  -14.6504   20.0809 O   0  0  0  0  0  0
  -21.6638   -6.8881   21.4239 O   0  0  0  0  0  0
  -22.3551  -14.5551   20.6695 O   0  0  0  0  0  0
  -24.6149  -31.8675   23.2099 C   0  0  0  0  0  0
  -25.9042  -32.4818   23.8391 C   0  0  1  0  0  0
  -27.2296  -27.4313   20.1017 C   0  0  0  0  0  0
  -25.5901  -33.8614   24.2325 N   0  0  0  0  0  0
  -23.4030  -30.4909   21.5503 C   0  0  2  0  0  0
  -24.8496  -28.9566   20.1139 C   0  0  0  0  0  0
  -22.7407  -29.4652   22.4987 C   0  0  0  0  0  0
  -18.0268  -28.1378   22.8490 C   0  0  0  0  0  0
  -24.1484  -36.7313   23.2639 C   0  0  0  0  0  0
  -25.9317  -30.8337   21.3621 C   0  0  0  0  0  0
  -26.0106  -29.4686   20.7078 C   0  0  0  0  0  0
  -27.2079  -28.7156   20.6928 C   0  0  0  0  0  0
  -26.0548  -26.9351   19.4980 C   0  0  0  0  0  0
  -24.8670  -27.6900   19.5038 C   0  0  0  0  0  0
  -23.6108  -29.8225   20.1652 C   0  0  0  0  0  0
  -25.4106  -36.3106   24.0338 C   0  0  1  0  0  0
  -20.5857  -28.3662   23.1326 C   0  0  2  0  0  0
  -20.6754  -26.9399   22.5432 C   0  0  0  0  0  0
  -19.5741  -26.6388   21.5212 C   0  0  0  0  0  0
  -18.1911  -26.7931   22.1609 C   0  0  0  0  0  0
  -19.1518  -28.8836   23.2904 C   0  0  0  0  0  0
  -18.9447  -30.1442   23.8917 C   0  0  0  0  0  0
  -17.6451  -30.6588   24.0568 C   0  0  0  0  0  0
  -25.9035  -34.9471   23.5128 C   0  0  0  0  0  0
  -16.5342  -29.9086   23.6330 C   0  0  0  0  0  0
  -16.7260  -28.6501   23.0355 C   0  0  0  0  0  0
  -26.4474  -31.6602   25.0721 C   0  0  0  0  0  0
  -25.3742  -31.3706   26.1473 C   0  0  0  0  0  0
  -27.0301  -30.3038   24.6104 C   0  0  0  0  0  0
  -27.6059  -32.4321   25.7474 C   0  0  0  0  0  0
  -27.5592  -37.1799   24.8451 C   0  0  0  0  0  0
  -21.4133  -29.3028   22.3730 N   0  0  0  0  0  0
  -26.4290  -37.3797   23.9420 N   0  0  0  0  0  0
  -24.6682  -31.0777   22.0998 N   0  0  0  0  0  0
  -23.4180  -28.8194   23.3030 O   0  0  0  0  0  0
  -28.3764  -26.6695   20.1091 O   0  0  0  0  0  0
  -26.5597  -34.8924   22.4689 O   0  0  0  0  0  0
  -23.5342  -32.1421   23.7500 O   0  0  0  0  0  0
  -31.1112  -18.5369   20.2551 C   0  0  0  0  0  0
  -30.7748  -19.8075   19.7457 C   0  0  0  0  0  0
  -28.8124  -19.8586   21.1740 C   0  0  0  0  0  0
  -30.3128  -17.9174   21.2394 C   0  0  0  0  0  0
  -29.6373  -20.4946   20.2147 C   0  0  0  0  0  0
  -29.1340  -18.5663   21.6838 C   0  0  0  0  0  0
  -28.8031  -24.2256   19.9208 C   0  0  0  0  0  0
  -27.1081  -18.4538   22.9771 C   0  0  0  0  0  0
  -30.7904  -16.6054   21.8758 C   0  0  0  0  0  0
  -28.6741  -22.7955   20.4992 C   0  0  0  0  0  0
  -28.2314  -25.3877   20.7584 C   0  0  0  0  0  0
  -29.3675  -21.7770   19.6965 N   0  0  0  0  0  0
  -30.1553  -15.3725   21.3925 N   0  0  0  0  0  0
  -29.3574  -24.4181   18.8313 O   0  0  0  0  0  0
  -28.3669  -17.9001   22.6179 O   0  0  0  0  0  0
  -31.4613  -12.4054   19.1054 H   0  0  0  0  0  0
  -30.3177  -11.2966   19.8046 H   0  0  0  0  0  0
  -29.7250  -11.7940   17.4160 H   0  0  0  0  0  0
  -29.6554  -13.5023   17.7691 H   0  0  0  0  0  0
  -27.8241  -11.3158   18.8129 H   0  0  0  0  0  0
  -27.3576  -12.6479   17.7899 H   0  0  0  0  0  0
  -27.7088  -14.2585   19.5834 H   0  0  0  0  0  0
  -28.6785  -11.9506   21.3360 H   0  0  0  0  0  0
  -28.4575  -13.5848   21.8725 H   0  0  0  0  0  0
  -25.2756   -9.5693   22.4765 H   0  0  0  0  0  0
  -24.0002   -7.4645   22.7479 H   0  0  0  0  0  0
  -21.0843   -8.8782   19.8952 H   0  0  0  0  0  0
  -22.3699  -10.9682   19.6168 H   0  0  0  0  0  0
  -21.2007   -7.6152   23.9718 H   0  0  0  0  0  0
  -21.1482   -6.0526   25.9080 H   0  0  0  0  0  0
  -22.0598   -2.7613   23.2845 H   0  0  0  0  0  0
  -22.4097  -11.9874   22.4759 H   0  0  0  0  0  0
  -21.1121  -13.1269   22.2601 H   0  0  0  0  0  0
  -24.6668  -15.8462   20.5178 H   0  0  0  0  0  0
  -26.2916  -15.6278   20.1061 H   0  0  0  0  0  0
  -26.7109  -32.5537   23.1155 H   0  0  0  0  0  0
  -25.0053  -33.9772   25.0472 H   0  0  0  0  0  0
  -22.6914  -31.3070   21.4116 H   0  0  0  0  0  0
  -23.3756  -35.9635   23.3276 H   0  0  0  0  0  0
  -24.3583  -36.8960   22.2060 H   0  0  0  0  0  0
  -23.7216  -37.6500   23.6673 H   0  0  0  0  0  0
  -26.0434  -31.6015   20.5949 H   0  0  0  0  0  0
  -26.8201  -30.8873   21.9797 H   0  0  0  0  0  0
  -28.1059  -29.1060   21.1511 H   0  0  0  0  0  0
  -26.0561  -25.9637   19.0234 H   0  0  0  0  0  0
  -23.9747  -27.2927   19.0402 H   0  0  0  0  0  0
  -23.7159  -30.5956   19.4036 H   0  0  0  0  0  0
  -22.7347  -29.2403   19.8735 H   0  0  0  0  0  0
  -25.1276  -36.1967   25.0829 H   0  0  0  0  0  0
  -20.9950  -28.3241   24.1446 H   0  0  0  0  0  0
  -20.5649  -26.2270   23.3610 H   0  0  0  0  0  0
  -21.6629  -26.7435   22.1245 H   0  0  0  0  0  0
  -19.6902  -25.6302   21.1235 H   0  0  0  0  0  0
  -19.6694  -27.3199   20.6747 H   0  0  0  0  0  0
  -17.4197  -26.6707   21.3989 H   0  0  0  0  0  0
  -18.0278  -26.0062   22.8983 H   0  0  0  0  0  0
  -19.7924  -30.7246   24.2305 H   0  0  0  0  0  0
  -17.5008  -31.6269   24.5168 H   0  0  0  0  0  0
  -15.5341  -30.2994   23.7647 H   0  0  0  0  0  0
  -15.8654  -28.0827   22.7068 H   0  0  0  0  0  0
  -24.5940  -30.7021   25.7825 H   0  0  0  0  0  0
  -24.8903  -32.2853   26.4900 H   0  0  0  0  0  0
  -25.8109  -30.8909   27.0240 H   0  0  0  0  0  0
  -26.2836  -29.6790   24.1187 H   0  0  0  0  0  0
  -27.4091  -29.7290   25.4566 H   0  0  0  0  0  0
  -27.8664  -30.4361   23.9237 H   0  0  0  0  0  0
  -27.2708  -33.3642   26.2042 H   0  0  0  0  0  0
  -28.3863  -32.6848   25.0285 H   0  0  0  0  0  0
  -28.0721  -31.8443   26.5391 H   0  0  0  0  0  0
  -28.2580  -38.0129   24.7561 H   0  0  0  0  0  0
  -28.1120  -36.2663   24.6196 H   0  0  0  0  0  0
  -27.2321  -37.1363   25.8855 H   0  0  0  0  0  0
  -20.9285  -29.8753   21.6960 H   0  0  0  0  0  0
  -26.0176  -38.2868   24.1464 H   0  0  0  0  0  0
  -32.0106  -18.0490   19.9054 H   0  0  0  0  0  0
  -31.4195  -20.2600   19.0050 H   0  0  0  0  0  0
  -27.9295  -20.3769   21.5161 H   0  0  0  0  0  0
  -26.5863  -17.7628   23.6391 H   0  0  0  0  0  0
  -26.4729  -18.6096   22.1036 H   0  0  0  0  0  0
  -27.2266  -19.3971   23.5119 H   0  0  0  0  0  0
  -30.6144  -16.6653   22.9506 H   0  0  0  0  0  0
  -31.8768  -16.5411   21.7814 H   0  0  0  0  0  0
  -27.6139  -22.5484   20.5651 H   0  0  0  0  0  0
  -29.0670  -22.7991   21.5167 H   0  0  0  0  0  0
  -28.7706  -25.4205   21.7050 H   0  0  0  0  0  0
  -27.1930  -25.1633   21.0046 H   0  0  0  0  0  0
  -30.0247  -22.1692   19.0246 H   0  0  0  0  0  0
  -29.2472  -15.1505   21.7709 H   0  0  0  0  0  0
  1 25  1  0  0  0
  1 30  2  0  0  0
  1 83  1  0  0  0
  2  3  1  0  0  0
  2 25  1  0  0  0
  2 86  1  0  0  0
  2 87  1  0  0  0
  3  4  1  0  0  0
  3 88  1  0  0  0
  3 89  1  0  0  0
  4  5  1  0  0  0
  4 90  1  0  0  0
  4 91  1  0  0  0
  5  6  1  0  0  0
  5 26  1  0  0  0
  5 92  1  0  0  0
  6 25  1  0  0  0
  6 93  1  0  0  0
  6 94  1  0  0  0
  7  8  2  0  0  0
  7 26  1  0  0  0
  7 29  1  0  0  0
  8  9  1  0  0  0
  8 22  1  0  0  0
  9 10  1  0  0  0
  9 27  2  0  0  0
 10 11  2  0  0  0
 10 15  1  0  0  0
 11 12  1  0  0  0
 11 95  1  0  0  0
 12 13  2  0  0  0
 12 96  1  0  0  0
 13 14  1  0  0  0
 13 31  1  0  0  0
 14 15  2  0  0  0
 14 97  1  0  0  0
 15 98  1  0  0  0
 16 17  2  0  0  0
 16 21  1  0  0  0
 16 31  1  0  0  0
 17 18  1  0  0  0
 17 99  1  0  0  0
 18 19  2  0  0  0
 18100  1  0  0  0
 19 20  1  0  0  0
 19 24  1  0  0  0
 20 21  2  0  0  0
 20101  1  0  0  0
 21 23  1  0  0  0
 22 28  1  0  0  0
 22 32  2  0  0  0
 26 27  1  0  0  0
 28102  1  0  0  0
 28103  1  0  0  0
 29104  1  0  0  0
 29105  1  0  0  0
 33 34  1  0  0  0
 33 66  1  0  0  0
 33 70  2  0  0  0
 34 36  1  0  0  0
 34 59  1  0  0  0
 34106  1  0  0  0
 35 44  2  0  0  0
 35 45  1  0  0  0
 35 68  1  0  0  0
 36 56  1  0  0  0
 36107  1  0  0  0
 37 39  1  0  0  0
 37 47  1  0  0  0
 37 66  1  0  0  0
 37108  1  0  0  0
 38 43  2  0  0  0
 38 46  1  0  0  0
 38 47  1  0  0  0
 39 64  1  0  0  0
 39 67  2  0  0  0
 40 52  1  0  0  0
 40 53  2  0  0  0
 40 58  1  0  0  0
 41109  1  0  0  0
 41110  1  0  0  0
 41111  1  0  0  0
 41 48  1  0  0  0
 42 43  1  0  0  0
 42 66  1  0  0  0
 42112  1  0  0  0
 42113  1  0  0  0
 43 44  1  0  0  0
 44114  1  0  0  0
 45 46  2  0  0  0
 45115  1  0  0  0
 46116  1  0  0  0
 47117  1  0  0  0
 47118  1  0  0  0
 48 56  1  0  0  0
 48 65  1  0  0  0
 48119  1  0  0  0
 49 50  1  0  0  0
 49 53  1  0  0  0
 49 64  1  0  0  0
 49120  1  0  0  0
 50 51  1  0  0  0
 50121  1  0  0  0
 50122  1  0  0  0
 51 52  1  0  0  0
 51123  1  0  0  0
 51124  1  0  0  0
 52125  1  0  0  0
 52126  1  0  0  0
 53 54  1  0  0  0
 54 55  2  0  0  0
 54127  1  0  0  0
 55 57  1  0  0  0
 55128  1  0  0  0
 56 69  2  0  0  0
 57 58  2  0  0  0
 57129  1  0  0  0
 58130  1  0  0  0
 59 60  1  0  0  0
 59 61  1  0  0  0
 59 62  1  0  0  0
 60131  1  0  0  0
 60132  1  0  0  0
 60133  1  0  0  0
 61134  1  0  0  0
 61135  1  0  0  0
 61136  1  0  0  0
 62137  1  0  0  0
 62138  1  0  0  0
 62139  1  0  0  0
 63 65  1  0  0  0
 63140  1  0  0  0
 63141  1  0  0  0
 63142  1  0  0  0
 64143  1  0  0  0
 65144  1  0  0  0
 68 81  1  0  0  0
 71 72  2  0  0  0
 71 74  1  0  0  0
 71145  1  0  0  0
 72 75  1  0  0  0
 72146  1  0  0  0
 73 75  2  0  0  0
 73 76  1  0  0  0
 73147  1  0  0  0
 74 76  2  0  0  0
 74 79  1  0  0  0
 75 82  1  0  0  0
 76 85  1  0  0  0
 77 80  1  0  0  0
 77 81  1  0  0  0
 77 84  2  0  0  0
 78 85  1  0  0  0
 78148  1  0  0  0
 78149  1  0  0  0
 78150  1  0  0  0
 79 83  1  0  0  0
 79151  1  0  0  0
 79152  1  0  0  0
 80 82  1  0  0  0
 80153  1  0  0  0
 80154  1  0  0  0
 81155  1  0  0  0
 81156  1  0  0  0
 82157  1  0  0  0
 83158  1  0  0  0
M  ISO  4   1 100  68 101  81 101  83 100
M  END
> <chiral flag>
0

> <version>
0

> <s_m_source_file>
/data/baiqing/PycharmProjects/Reinvent-master-3.2/result/LINK_invent/BTK/process_docking_weight1_custom_product_contain_oxygen_bond_distance_aromatic_linkinvent_7_9_3/rearranged_h_0104.sdf

> <i_m_source_file_index>
36

> <r_mmod_Potential_Energy-OPLS-2005>
-71.2968902587891

> <r_mmod_Stretch_Energy-OPLS-2005>
39.240909576416

> <r_mmod_Bend_Energy-OPLS-2005>
104.177917480469

> <r_mmod_Torsional_Energy-OPLS-2005>
211.624603271484

> <r_mmod_Improper_Torsional_Energy-OPLS-2005>
4.42493295669556

> <r_mmod_Van_der_Waal_Energy-OPLS-2005>
154.162796020508

> <r_mmod_Electrostatic_Energy-OPLS-2005>
-355.972442626953

> <r_mmod_Solvation_Energy-OPLS-2005>
-240.084594726562

> <b_mmod_Minimization_Converged-OPLS-2005>
0

> <r_mmod_RMS_Derivative-OPLS-2005>
1.04197692871094

$$$$
37
                    3D
 Structure written by MMmdl.
153161  0  0  1  0            999 V2000
  -30.3955  -15.4214   20.3900 C   0  0  0  0  0  0
  -30.4298  -12.9255   19.5184 C   0  0  0  0  0  0
  -29.5275  -12.6116   18.2932 C   0  0  0  0  0  0
  -28.0969  -12.2828   18.7419 C   0  0  0  0  0  0
  -27.6042  -13.2835   19.8150 C   0  0  2  0  0  0
  -28.6292  -13.5363   20.9422 C   0  0  0  0  0  0
  -25.2409  -13.8212   20.5745 C   0  0  0  0  0  0
  -24.1772  -13.0418   20.9247 C   0  0  0  0  0  0
  -24.6443  -11.6930   20.8711 C   0  0  0  0  0  0
  -23.9140  -10.4295   21.0393 C   0  0  0  0  0  0
  -24.3680   -9.4212   21.9179 C   0  0  0  0  0  0
  -23.6328   -8.2259   22.0765 C   0  0  0  0  0  0
  -22.4334   -8.0288   21.3523 C   0  0  0  0  0  0
  -21.9943   -9.0289   20.4661 C   0  0  0  0  0  0
  -22.7288  -10.2162   20.3063 C   0  0  0  0  0  0
  -21.6864   -6.0767   22.5286 C   0  0  0  0  0  0
  -21.4017   -6.5677   23.8207 C   0  0  0  0  0  0
  -21.3665   -5.6823   24.9164 C   0  0  0  0  0  0
  -21.6055   -4.3087   24.7235 C   0  0  0  0  0  0
  -21.8794   -3.8179   23.4346 C   0  0  0  0  0  0
  -21.9208   -4.6987   22.3401 C   0  0  0  0  0  0
  -22.7798  -13.5190   21.1926 C   0  0  0  0  0  0
  -22.1650   -4.2170   21.0969 F   0  0  0  0  0  0
  -21.5641   -3.4582   25.7742 F   0  0  0  0  0  0
  -29.8411  -14.0902   20.3041 N   0  0  0  0  0  0
  -26.2824  -12.9506   20.3186 N   0  0  0  0  0  0
  -25.9358  -11.6612   20.5621 N   0  0  0  0  0  0
  -22.0488  -12.8154   22.0453 N   0  0  0  0  0  0
  -25.4108  -15.1954   20.4217 N   0  0  0  0  0  0
  -31.6249  -15.3851   20.2238 O   0  0  0  0  0  0
  -21.6654   -6.8938   21.4249 O   0  0  0  0  0  0
  -22.3472  -14.5492   20.6774 O   0  0  0  0  0  0
  -24.6688  -31.8071   23.1645 C   0  0  0  0  0  0
  -25.9330  -32.4519   23.8111 C   0  0  1  0  0  0
  -27.2327  -26.8131   20.2191 C   0  0  0  0  0  0
  -25.5935  -33.8342   24.1971 N   0  0  0  0  0  0
  -23.4942  -30.4190   21.5089 C   0  0  2  0  0  0
  -24.9578  -28.7912   20.1070 C   0  0  0  0  0  0
  -22.7660  -29.4401   22.4673 C   0  0  0  0  0  0
  -18.0348  -28.1425   22.8432 C   0  0  0  0  0  0
  -24.1488  -36.7198   23.2650 C   0  0  0  0  0  0
  -26.0672  -30.5796   21.4208 C   0  0  0  0  0  0
  -26.1375  -29.1576   20.7722 C   0  0  0  0  0  0
  -27.2565  -28.1859   20.8163 C   0  0  0  0  0  0
  -26.0425  -26.6525   19.4596 C   0  0  0  0  0  0
  -24.9494  -27.5662   19.4213 C   0  0  0  0  0  0
  -23.7457  -29.7328   20.1402 C   0  0  0  0  0  0
  -25.4138  -36.2937   24.0288 C   0  0  1  0  0  0
  -20.5968  -28.3815   23.1138 C   0  0  2  0  0  0
  -20.6866  -26.9514   22.5305 C   0  0  0  0  0  0
  -19.5827  -26.6379   21.5174 C   0  0  0  0  0  0
  -18.2002  -26.7985   22.1568 C   0  0  0  0  0  0
  -19.1593  -28.8922   23.2805 C   0  0  0  0  0  0
  -18.9492  -30.1481   23.8884 C   0  0  0  0  0  0
  -17.6492  -30.6572   24.0579 C   0  0  0  0  0  0
  -25.9102  -34.9317   23.4986 C   0  0  0  0  0  0
  -16.5395  -29.9043   23.6347 C   0  0  0  0  0  0
  -16.7338  -28.6498   23.0296 C   0  0  0  0  0  0
  -26.4581  -31.6493   25.0624 C   0  0  0  0  0  0
  -25.3695  -31.3788   26.1258 C   0  0  0  0  0  0
  -27.0481  -30.2839   24.6413 C   0  0  0  0  0  0
  -27.6052  -32.4298   25.7449 C   0  0  0  0  0  0
  -27.5568  -37.1756   24.8468 C   0  0  0  0  0  0
  -21.4297  -29.3105   22.3446 N   0  0  0  0  0  0
  -26.4295  -37.3652   23.9401 N   0  0  0  0  0  0
  -24.7648  -30.9625   22.0872 N   0  0  0  0  0  0
  -23.4123  -28.8017   23.3050 O   0  0  0  0  0  0
  -28.2008  -25.6318   20.3297 O   0  0  0  0  0  0
  -26.5748  -34.8888   22.4592 O   0  0  0  0  0  0
  -23.5732  -32.1034   23.6686 O   0  0  0  0  0  0
  -31.0443  -18.8119   21.1826 C   0  0  0  0  0  0
  -29.2209  -21.1909   20.5871 C   0  0  0  0  0  0
  -30.4896  -21.3057   21.2432 C   0  0  0  0  0  0
  -28.9539  -19.6604   20.3330 C   0  0  0  0  0  0
  -31.3449  -20.1707   21.5175 C   0  0  0  0  0  0
  -29.8306  -18.3802   20.5881 C   0  0  0  0  0  0
  -28.2600  -22.6282   20.2922 C   0  0  0  0  0  0
  -27.8736  -24.1024   20.2032 C   0  0  0  0  0  0
  -30.8971  -22.7033   21.7029 C   0  0  0  0  0  0
  -27.5762  -19.3649   19.7636 C   0  0  0  0  0  0
  -32.5649  -20.3640   22.1899 N   0  0  0  0  0  0
  -29.6244  -16.7367   20.4209 N   0  0  0  0  0  0
  -31.4292  -13.1650   19.1620 H   0  0  0  0  0  0
  -30.5439  -12.0376   20.1388 H   0  0  0  0  0  0
  -29.9243  -11.7776   17.7116 H   0  0  0  0  0  0
  -29.4977  -13.4790   17.6328 H   0  0  0  0  0  0
  -28.1054  -11.2738   19.1552 H   0  0  0  0  0  0
  -27.4163  -12.2624   17.8901 H   0  0  0  0  0  0
  -27.5052  -14.2268   19.2760 H   0  0  0  0  0  0
  -28.8418  -12.6316   21.5180 H   0  0  0  0  0  0
  -28.2362  -14.2721   21.6495 H   0  0  0  0  0  0
  -25.2790   -9.5683   22.4820 H   0  0  0  0  0  0
  -24.0038   -7.4665   22.7478 H   0  0  0  0  0  0
  -21.0892   -8.8862   19.8966 H   0  0  0  0  0  0
  -22.3733  -10.9761   19.6264 H   0  0  0  0  0  0
  -21.1954   -7.6190   23.9721 H   0  0  0  0  0  0
  -21.1509   -6.0557   25.9077 H   0  0  0  0  0  0
  -22.0553   -2.7662   23.2824 H   0  0  0  0  0  0
  -22.4151  -11.9774   22.4709 H   0  0  0  0  0  0
  -21.1168  -13.1234   22.2828 H   0  0  0  0  0  0
  -24.6454  -15.8531   20.5398 H   0  0  0  0  0  0
  -26.2752  -15.6345   20.1352 H   0  0  0  0  0  0
  -26.7329  -32.4995   23.0776 H   0  0  0  0  0  0
  -25.0079  -33.9406   25.0115 H   0  0  0  0  0  0
  -22.8159  -31.2542   21.3340 H   0  0  0  0  0  0
  -23.3758  -35.9511   23.3281 H   0  0  0  0  0  0
  -24.3579  -36.8864   22.2068 H   0  0  0  0  0  0
  -23.7229  -37.6382   23.6719 H   0  0  0  0  0  0
  -26.2475  -31.3122   20.6362 H   0  0  0  0  0  0
  -26.9320  -30.6466   22.0674 H   0  0  0  0  0  0
  -28.1299  -28.4648   21.3868 H   0  0  0  0  0  0
  -25.9148  -25.7449   18.8918 H   0  0  0  0  0  0
  -24.0741  -27.3007   18.8429 H   0  0  0  0  0  0
  -23.8973  -30.5054   19.3822 H   0  0  0  0  0  0
  -22.8547  -29.1890   19.8234 H   0  0  0  0  0  0
  -25.1314  -36.1769   25.0770 H   0  0  0  0  0  0
  -21.0040  -28.3444   24.1295 H   0  0  0  0  0  0
  -20.5891  -26.2491   23.3602 H   0  0  0  0  0  0
  -21.6708  -26.7525   22.1016 H   0  0  0  0  0  0
  -19.7029  -25.6248   21.1333 H   0  0  0  0  0  0
  -19.6759  -27.3105   20.6611 H   0  0  0  0  0  0
  -18.0356  -26.0130   22.8940 H   0  0  0  0  0  0
  -17.4248  -26.6824   21.3955 H   0  0  0  0  0  0
  -19.7987  -30.7282   24.2257 H   0  0  0  0  0  0
  -17.4973  -31.6210   24.5232 H   0  0  0  0  0  0
  -15.5367  -30.2912   23.7594 H   0  0  0  0  0  0
  -15.8768  -28.0799   22.6940 H   0  0  0  0  0  0
  -24.5947  -30.7043   25.7601 H   0  0  0  0  0  0
  -24.8813  -32.2995   26.4440 H   0  0  0  0  0  0
  -25.7909  -30.9149   27.0181 H   0  0  0  0  0  0
  -26.3166  -29.6492   24.1406 H   0  0  0  0  0  0
  -27.3952  -29.7221   25.5096 H   0  0  0  0  0  0
  -27.9114  -30.3946   23.9860 H   0  0  0  0  0  0
  -27.2641  -33.3692   26.1823 H   0  0  0  0  0  0
  -28.4041  -32.6700   25.0414 H   0  0  0  0  0  0
  -28.0540  -31.8543   26.5560 H   0  0  0  0  0  0
  -28.2550  -38.0076   24.7499 H   0  0  0  0  0  0
  -28.1102  -36.2607   24.6322 H   0  0  0  0  0  0
  -27.2294  -37.1417   25.8869 H   0  0  0  0  0  0
  -20.9455  -29.8736   21.6571 H   0  0  0  0  0  0
  -26.0159  -38.2703   24.1437 H   0  0  0  0  0  0
  -31.7521  -18.0418   21.4552 H   0  0  0  0  0  0
  -27.3348  -22.1610   19.9968 H   0  0  0  0  0  0
  -26.8370  -24.1155   19.8990 H   0  0  0  0  0  0
  -31.0901  -23.3552   20.8518 H   0  0  0  0  0  0
  -31.7751  -22.7174   22.3479 H   0  0  0  0  0  0
  -30.1018  -23.1534   22.2936 H   0  0  0  0  0  0
  -27.5523  -19.5733   18.6946 H   0  0  0  0  0  0
  -26.8161  -19.9801   20.2492 H   0  0  0  0  0  0
  -27.2856  -18.3301   19.9315 H   0  0  0  0  0  0
  -32.6055  -21.0707   22.9233 H   0  0  0  0  0  0
  -33.1464  -19.5633   22.4287 H   0  0  0  0  0  0
  -28.6400  -16.5205   20.3546 H   0  0  0  0  0  0
  1 25  1  0  0  0
  1 30  2  0  0  0
  1 82  1  0  0  0
  2  3  1  0  0  0
  2 25  1  0  0  0
  2 83  1  0  0  0
  2 84  1  0  0  0
  3  4  1  0  0  0
  3 85  1  0  0  0
  3 86  1  0  0  0
  4  5  1  0  0  0
  4 87  1  0  0  0
  4 88  1  0  0  0
  5  6  1  0  0  0
  5 26  1  0  0  0
  5 89  1  0  0  0
  6 25  1  0  0  0
  6 90  1  0  0  0
  6 91  1  0  0  0
  7  8  2  0  0  0
  7 26  1  0  0  0
  7 29  1  0  0  0
  8  9  1  0  0  0
  8 22  1  0  0  0
  9 10  1  0  0  0
  9 27  2  0  0  0
 10 11  2  0  0  0
 10 15  1  0  0  0
 11 12  1  0  0  0
 11 92  1  0  0  0
 12 13  2  0  0  0
 12 93  1  0  0  0
 13 14  1  0  0  0
 13 31  1  0  0  0
 14 15  2  0  0  0
 14 94  1  0  0  0
 15 95  1  0  0  0
 16 17  2  0  0  0
 16 21  1  0  0  0
 16 31  1  0  0  0
 17 18  1  0  0  0
 17 96  1  0  0  0
 18 19  2  0  0  0
 18 97  1  0  0  0
 19 20  1  0  0  0
 19 24  1  0  0  0
 20 21  2  0  0  0
 20 98  1  0  0  0
 21 23  1  0  0  0
 22 28  1  0  0  0
 22 32  2  0  0  0
 26 27  1  0  0  0
 28 99  1  0  0  0
 28100  1  0  0  0
 29101  1  0  0  0
 29102  1  0  0  0
 33 34  1  0  0  0
 33 66  1  0  0  0
 33 70  2  0  0  0
 34 36  1  0  0  0
 34 59  1  0  0  0
 34103  1  0  0  0
 35 44  2  0  0  0
 35 45  1  0  0  0
 35 68  1  0  0  0
 36 56  1  0  0  0
 36104  1  0  0  0
 37 39  1  0  0  0
 37 47  1  0  0  0
 37 66  1  0  0  0
 37105  1  0  0  0
 38 43  2  0  0  0
 38 46  1  0  0  0
 38 47  1  0  0  0
 39 64  1  0  0  0
 39 67  2  0  0  0
 40 52  1  0  0  0
 40 53  2  0  0  0
 40 58  1  0  0  0
 41106  1  0  0  0
 41107  1  0  0  0
 41108  1  0  0  0
 41 48  1  0  0  0
 42 43  1  0  0  0
 42 66  1  0  0  0
 42109  1  0  0  0
 42110  1  0  0  0
 43 44  1  0  0  0
 44111  1  0  0  0
 45 46  2  0  0  0
 45112  1  0  0  0
 46113  1  0  0  0
 47114  1  0  0  0
 47115  1  0  0  0
 48 56  1  0  0  0
 48 65  1  0  0  0
 48116  1  0  0  0
 49 50  1  0  0  0
 49 53  1  0  0  0
 49 64  1  0  0  0
 49117  1  0  0  0
 50 51  1  0  0  0
 50118  1  0  0  0
 50119  1  0  0  0
 51 52  1  0  0  0
 51120  1  0  0  0
 51121  1  0  0  0
 52122  1  0  0  0
 52123  1  0  0  0
 53 54  1  0  0  0
 54 55  2  0  0  0
 54124  1  0  0  0
 55 57  1  0  0  0
 55125  1  0  0  0
 56 69  2  0  0  0
 57 58  2  0  0  0
 57126  1  0  0  0
 58127  1  0  0  0
 59 60  1  0  0  0
 59 61  1  0  0  0
 59 62  1  0  0  0
 60128  1  0  0  0
 60129  1  0  0  0
 60130  1  0  0  0
 61131  1  0  0  0
 61132  1  0  0  0
 61133  1  0  0  0
 62134  1  0  0  0
 62135  1  0  0  0
 62136  1  0  0  0
 63 65  1  0  0  0
 63137  1  0  0  0
 63138  1  0  0  0
 63139  1  0  0  0
 64140  1  0  0  0
 65141  1  0  0  0
 68 78  1  0  0  0
 71 75  2  0  0  0
 71 76  1  0  0  0
 71142  1  0  0  0
 72 73  2  0  0  0
 72 74  1  0  0  0
 72 77  1  0  0  0
 73 75  1  0  0  0
 73 79  1  0  0  0
 74 76  2  0  0  0
 74 80  1  0  0  0
 75 81  1  0  0  0
 76 82  1  0  0  0
 77 78  2  0  0  0
 77143  1  0  0  0
 78144  1  0  0  0
 79145  1  0  0  0
 79146  1  0  0  0
 79147  1  0  0  0
 80148  1  0  0  0
 80149  1  0  0  0
 80150  1  0  0  0
 81151  1  0  0  0
 81152  1  0  0  0
 82153  1  0  0  0
M  ISO  4   1 100  68 101  78 101  82 100
M  END
> <chiral flag>
0

> <version>
0

> <s_m_source_file>
/data/baiqing/PycharmProjects/Reinvent-master-3.2/result/LINK_invent/BTK/process_docking_weight1_custom_product_contain_oxygen_bond_distance_aromatic_linkinvent_7_9_3/rearranged_h_0104.sdf

> <i_m_source_file_index>
37

> <r_mmod_Potential_Energy-OPLS-2005>
1733.98901367188

> <r_mmod_Stretch_Energy-OPLS-2005>
737.538452148438

> <r_mmod_Bend_Energy-OPLS-2005>
585.1123046875

> <r_mmod_Torsional_Energy-OPLS-2005>
225.401916503906

> <r_mmod_Improper_Torsional_Energy-OPLS-2005>
8.74123287200928

> <r_mmod_Van_der_Waal_Energy-OPLS-2005>
134.171539306641

> <r_mmod_Electrostatic_Energy-OPLS-2005>
-379.202239990234

> <r_mmod_Solvation_Energy-OPLS-2005>
-222.876419067383

> <b_mmod_Minimization_Converged-OPLS-2005>
0

> <r_mmod_RMS_Derivative-OPLS-2005>
10.0731954574585

$$$$
38
                    3D
 Structure written by MMmdl.
166175  0  0  1  0            999 V2000
  -30.8985  -14.1444   20.8417 C   0  0  0  0  0  0
  -30.4048  -12.2853   19.3183 C   0  0  0  0  0  0
  -29.4501  -12.5625   18.1522 C   0  0  0  0  0  0
  -27.9876  -12.3948   18.5974 C   0  0  0  0  0  0
  -27.6718  -13.1940   19.8880 C   0  0  2  0  0  0
  -28.7208  -12.8983   20.9854 C   0  0  0  0  0  0
  -25.2646  -13.8142   20.5714 C   0  0  0  0  0  0
  -24.1867  -13.0434   20.9185 C   0  0  0  0  0  0
  -24.6406  -11.6897   20.8750 C   0  0  0  0  0  0
  -23.9060  -10.4294   21.0416 C   0  0  0  0  0  0
  -24.3616   -9.4206   21.9192 C   0  0  0  0  0  0
  -23.6286   -8.2245   22.0751 C   0  0  0  0  0  0
  -22.4269   -8.0289   21.3541 C   0  0  0  0  0  0
  -21.9910   -9.0264   20.4646 C   0  0  0  0  0  0
  -22.7236  -10.2145   20.3058 C   0  0  0  0  0  0
  -21.6842   -6.0742   22.5278 C   0  0  0  0  0  0
  -21.4002   -6.5642   23.8211 C   0  0  0  0  0  0
  -21.3662   -5.6796   24.9177 C   0  0  0  0  0  0
  -21.6049   -4.3061   24.7227 C   0  0  0  0  0  0
  -21.8811   -3.8152   23.4344 C   0  0  0  0  0  0
  -21.9189   -4.6969   22.3403 C   0  0  0  0  0  0
  -22.7889  -13.5246   21.1838 C   0  0  0  0  0  0
  -22.1656   -4.2152   21.0979 F   0  0  0  0  0  0
  -21.5642   -3.4549   25.7743 F   0  0  0  0  0  0
  -30.0591  -13.1661   20.4368 N   0  0  0  0  0  0
  -26.3092  -12.9293   20.3485 N   0  0  0  0  0  0
  -25.9338  -11.6456   20.5809 N   0  0  0  0  0  0
  -22.0518  -12.8238   22.0389 N   0  0  0  0  0  0
  -25.4398  -15.1850   20.4090 N   0  0  0  0  0  0
  -31.7275  -14.6599   20.0802 O   0  0  0  0  0  0
  -21.6628   -6.8889   21.4241 O   0  0  0  0  0  0
  -22.3584  -14.5558   20.6698 O   0  0  0  0  0  0
  -24.6079  -31.8748   23.2165 C   0  0  0  0  0  0
  -25.9006  -32.4854   23.8433 C   0  0  1  0  0  0
  -27.2385  -27.4969   20.0614 C   0  0  0  0  0  0
  -25.5903  -33.8653   24.2367 N   0  0  0  0  0  0
  -23.3908  -30.5004   21.5568 C   0  0  2  0  0  0
  -24.8331  -28.9727   20.1197 C   0  0  0  0  0  0
  -22.7368  -29.4694   22.5031 C   0  0  0  0  0  0
  -18.0266  -28.1372   22.8491 C   0  0  0  0  0  0
  -24.1486  -36.7325   23.2635 C   0  0  0  0  0  0
  -25.9149  -30.8527   21.3643 C   0  0  0  0  0  0
  -25.9893  -29.4904   20.7147 C   0  0  0  0  0  0
  -27.1883  -28.7533   20.6952 C   0  0  0  0  0  0
  -26.0566  -26.9774   19.4763 C   0  0  0  0  0  0
  -24.8567  -27.7086   19.5090 C   0  0  0  0  0  0
  -23.5946  -29.8350   20.1701 C   0  0  0  0  0  0
  -25.4107  -36.3134   24.0343 C   0  0  1  0  0  0
  -20.5850  -28.3652   23.1336 C   0  0  2  0  0  0
  -20.6755  -26.9398   22.5417 C   0  0  0  0  0  0
  -19.5737  -26.6386   21.5206 C   0  0  0  0  0  0
  -18.1916  -26.7921   22.1618 C   0  0  0  0  0  0
  -19.1514  -28.8828   23.2913 C   0  0  0  0  0  0
  -18.9446  -30.1436   23.8921 C   0  0  0  0  0  0
  -17.6452  -30.6582   24.0565 C   0  0  0  0  0  0
  -25.9035  -34.9494   23.5149 C   0  0  0  0  0  0
  -16.5342  -29.9087   23.6319 C   0  0  0  0  0  0
  -16.7258  -28.6502   23.0340 C   0  0  0  0  0  0
  -26.4457  -31.6614   25.0736 C   0  0  0  0  0  0
  -25.3743  -31.3698   26.1499 C   0  0  0  0  0  0
  -27.0276  -30.3066   24.6070 C   0  0  0  0  0  0
  -27.6057  -32.4314   25.7482 C   0  0  0  0  0  0
  -27.5587  -37.1818   24.8466 C   0  0  0  0  0  0
  -21.4107  -29.3032   22.3755 N   0  0  0  0  0  0
  -26.4301  -37.3810   23.9411 N   0  0  0  0  0  0
  -24.6557  -31.0897   22.1046 N   0  0  0  0  0  0
  -23.4170  -28.8227   23.3041 O   0  0  0  0  0  0
  -28.4589  -26.8621   20.0310 O   0  0  0  0  0  0
  -26.5585  -34.8931   22.4701 O   0  0  0  0  0  0
  -23.5292  -32.1490   23.7598 O   0  0  0  0  0  0
  -29.7797  -20.8037   21.4340 C   0  0  0  0  0  0
  -29.0786  -21.9687   21.0997 C   0  0  0  0  0  0
  -29.2037  -21.3599   18.7475 C   0  0  0  0  0  0
  -30.1482  -19.8783   20.4373 C   0  0  0  0  0  0
  -29.8874  -20.1742   19.0758 C   0  0  0  0  0  0
  -28.7832  -22.2534   19.7474 C   0  0  0  0  0  0
  -30.2421  -15.5960   22.7254 C   0  0  0  0  0  0
  -32.1000  -18.5436   21.4933 C   0  0  0  0  0  0
  -32.1444  -17.1800   22.1960 C   0  0  0  0  0  0
  -29.8601  -17.8470   21.9280 C   0  0  0  0  0  0
  -30.7121  -18.5380   20.8685 C   0  0  1  0  0  0
  -30.2961  -19.2379   17.9505 C   0  0  0  0  0  0
  -31.0489  -14.3540   22.3638 C   0  0  0  0  0  0
  -28.5845  -25.6529   19.3044 C   0  0  0  0  0  0
  -28.0605  -24.4992   20.1562 C   0  0  0  0  0  0
  -30.7397  -16.8035   22.4107 N   0  0  0  0  0  0
  -29.1132  -15.4686   23.2105 O   0  0  0  0  0  0
  -28.0694  -23.3462   19.3312 O   0  0  0  0  0  0
  -31.4404  -12.4071   18.9932 H   0  0  0  0  0  0
  -30.3172  -11.2459   19.6380 H   0  0  0  0  0  0
  -29.6683  -11.8932   17.3190 H   0  0  0  0  0  0
  -29.6092  -13.5770   17.7829 H   0  0  0  0  0  0
  -27.8019  -11.3322   18.7603 H   0  0  0  0  0  0
  -27.3151  -12.6988   17.7942 H   0  0  0  0  0  0
  -27.7420  -14.2538   19.6396 H   0  0  0  0  0  0
  -28.6666  -11.8530   21.2921 H   0  0  0  0  0  0
  -28.4937  -13.4808   21.8740 H   0  0  0  0  0  0
  -25.2767   -9.5673   22.4766 H   0  0  0  0  0  0
  -23.9994   -7.4626   22.7452 H   0  0  0  0  0  0
  -21.0852   -8.8775   19.8949 H   0  0  0  0  0  0
  -22.3695  -10.9682   19.6164 H   0  0  0  0  0  0
  -21.1977   -7.6146   23.9713 H   0  0  0  0  0  0
  -21.1503   -6.0531   25.9078 H   0  0  0  0  0  0
  -22.0592   -2.7613   23.2842 H   0  0  0  0  0  0
  -22.4123  -11.9890   22.4759 H   0  0  0  0  0  0
  -21.1138  -13.1268   22.2604 H   0  0  0  0  0  0
  -24.6830  -15.8500   20.5256 H   0  0  0  0  0  0
  -26.3092  -15.6191   20.1246 H   0  0  0  0  0  0
  -26.7079  -32.5577   23.1203 H   0  0  0  0  0  0
  -25.0069  -33.9837   25.0522 H   0  0  0  0  0  0
  -22.6760  -31.3147   21.4224 H   0  0  0  0  0  0
  -23.3748  -35.9658   23.3312 H   0  0  0  0  0  0
  -24.3581  -36.8916   22.2048 H   0  0  0  0  0  0
  -23.7237  -37.6538   23.6626 H   0  0  0  0  0  0
  -26.0236  -31.6193   20.5959 H   0  0  0  0  0  0
  -26.8050  -30.9056   21.9791 H   0  0  0  0  0  0
  -28.0847  -29.1570   21.1455 H   0  0  0  0  0  0
  -26.0327  -26.0206   18.9779 H   0  0  0  0  0  0
  -23.9651  -27.3022   19.0520 H   0  0  0  0  0  0
  -23.6998  -30.6103   19.4101 H   0  0  0  0  0  0
  -22.7186  -29.2543   19.8751 H   0  0  0  0  0  0
  -25.1277  -36.2011   25.0838 H   0  0  0  0  0  0
  -20.9948  -28.3215   24.1454 H   0  0  0  0  0  0
  -20.5653  -26.2265   23.3598 H   0  0  0  0  0  0
  -21.6630  -26.7446   22.1217 H   0  0  0  0  0  0
  -19.6899  -25.6301   21.1223 H   0  0  0  0  0  0
  -19.6672  -27.3205   20.6743 H   0  0  0  0  0  0
  -17.4185  -26.6666   21.4022 H   0  0  0  0  0  0
  -18.0325  -26.0061   22.9013 H   0  0  0  0  0  0
  -19.7927  -30.7238   24.2305 H   0  0  0  0  0  0
  -17.5011  -31.6265   24.5160 H   0  0  0  0  0  0
  -15.5344  -30.2992   23.7635 H   0  0  0  0  0  0
  -15.8657  -28.0827   22.7043 H   0  0  0  0  0  0
  -24.5911  -30.7051   25.7835 H   0  0  0  0  0  0
  -24.8938  -32.2846   26.4982 H   0  0  0  0  0  0
  -25.8120  -30.8843   27.0231 H   0  0  0  0  0  0
  -26.2806  -29.6844   24.1132 H   0  0  0  0  0  0
  -27.4076  -29.7285   25.4501 H   0  0  0  0  0  0
  -27.8624  -30.4398   23.9185 H   0  0  0  0  0  0
  -27.2698  -33.3590   26.2124 H   0  0  0  0  0  0
  -28.3829  -32.6912   25.0284 H   0  0  0  0  0  0
  -28.0766  -31.8397   26.5341 H   0  0  0  0  0  0
  -28.2616  -38.0107   24.7526 H   0  0  0  0  0  0
  -28.1074  -36.2647   24.6272 H   0  0  0  0  0  0
  -27.2310  -37.1452   25.8869 H   0  0  0  0  0  0
  -20.9259  -29.8764   21.6993 H   0  0  0  0  0  0
  -26.0196  -38.2891   24.1413 H   0  0  0  0  0  0
  -29.9821  -20.6058   22.4767 H   0  0  0  0  0  0
  -28.7515  -22.5972   21.9139 H   0  0  0  0  0  0
  -28.9778  -21.5846   17.7144 H   0  0  0  0  0  0
  -32.8942  -18.6732   20.7570 H   0  0  0  0  0  0
  -32.1866  -19.3426   22.2310 H   0  0  0  0  0  0
  -32.6864  -17.2331   23.1412 H   0  0  0  0  0  0
  -32.6634  -16.4640   21.5617 H   0  0  0  0  0  0
  -28.9284  -17.4739   21.4983 H   0  0  0  0  0  0
  -29.6072  -18.4839   22.7748 H   0  0  0  0  0  0
  -30.7473  -17.8591   20.0173 H   0  0  0  0  0  0
  -30.1724  -19.7074   16.9741 H   0  0  0  0  0  0
  -29.6878  -18.3329   17.9651 H   0  0  0  0  0  0
  -31.3456  -18.9564   18.0427 H   0  0  0  0  0  0
  -30.6792  -13.4899   22.9159 H   0  0  0  0  0  0
  -32.0970  -14.4698   22.6360 H   0  0  0  0  0  0
  -28.0977  -25.7059   18.3299 H   0  0  0  0  0  0
  -29.6429  -25.4913   19.0979 H   0  0  0  0  0  0
  -27.0406  -24.6645   20.4995 H   0  0  0  0  0  0
  -28.6853  -24.4608   21.0453 H   0  0  0  0  0  0
  1 25  1  0  0  0
  1 30  2  0  0  0
  1 83  1  0  0  0
  2  3  1  0  0  0
  2 25  1  0  0  0
  2 89  1  0  0  0
  2 90  1  0  0  0
  3  4  1  0  0  0
  3 91  1  0  0  0
  3 92  1  0  0  0
  4  5  1  0  0  0
  4 93  1  0  0  0
  4 94  1  0  0  0
  5  6  1  0  0  0
  5 26  1  0  0  0
  5 95  1  0  0  0
  6 25  1  0  0  0
  6 96  1  0  0  0
  6 97  1  0  0  0
  7  8  2  0  0  0
  7 26  1  0  0  0
  7 29  1  0  0  0
  8  9  1  0  0  0
  8 22  1  0  0  0
  9 10  1  0  0  0
  9 27  2  0  0  0
 10 11  2  0  0  0
 10 15  1  0  0  0
 11 12  1  0  0  0
 11 98  1  0  0  0
 12 13  2  0  0  0
 12 99  1  0  0  0
 13 14  1  0  0  0
 13 31  1  0  0  0
 14 15  2  0  0  0
 14100  1  0  0  0
 15101  1  0  0  0
 16 17  2  0  0  0
 16 21  1  0  0  0
 16 31  1  0  0  0
 17 18  1  0  0  0
 17102  1  0  0  0
 18 19  2  0  0  0
 18103  1  0  0  0
 19 20  1  0  0  0
 19 24  1  0  0  0
 20 21  2  0  0  0
 20104  1  0  0  0
 21 23  1  0  0  0
 22 28  1  0  0  0
 22 32  2  0  0  0
 26 27  1  0  0  0
 28105  1  0  0  0
 28106  1  0  0  0
 29107  1  0  0  0
 29108  1  0  0  0
 33 34  1  0  0  0
 33 66  1  0  0  0
 33 70  2  0  0  0
 34 36  1  0  0  0
 34 59  1  0  0  0
 34109  1  0  0  0
 35 44  2  0  0  0
 35 45  1  0  0  0
 35 68  1  0  0  0
 36 56  1  0  0  0
 36110  1  0  0  0
 37 39  1  0  0  0
 37 47  1  0  0  0
 37 66  1  0  0  0
 37111  1  0  0  0
 38 43  2  0  0  0
 38 46  1  0  0  0
 38 47  1  0  0  0
 39 64  1  0  0  0
 39 67  2  0  0  0
 40 52  1  0  0  0
 40 53  2  0  0  0
 40 58  1  0  0  0
 41112  1  0  0  0
 41113  1  0  0  0
 41114  1  0  0  0
 41 48  1  0  0  0
 42 43  1  0  0  0
 42 66  1  0  0  0
 42115  1  0  0  0
 42116  1  0  0  0
 43 44  1  0  0  0
 44117  1  0  0  0
 45 46  2  0  0  0
 45118  1  0  0  0
 46119  1  0  0  0
 47120  1  0  0  0
 47121  1  0  0  0
 48 56  1  0  0  0
 48 65  1  0  0  0
 48122  1  0  0  0
 49 50  1  0  0  0
 49 53  1  0  0  0
 49 64  1  0  0  0
 49123  1  0  0  0
 50 51  1  0  0  0
 50124  1  0  0  0
 50125  1  0  0  0
 51 52  1  0  0  0
 51126  1  0  0  0
 51127  1  0  0  0
 52128  1  0  0  0
 52129  1  0  0  0
 53 54  1  0  0  0
 54 55  2  0  0  0
 54130  1  0  0  0
 55 57  1  0  0  0
 55131  1  0  0  0
 56 69  2  0  0  0
 57 58  2  0  0  0
 57132  1  0  0  0
 58133  1  0  0  0
 59 60  1  0  0  0
 59 61  1  0  0  0
 59 62  1  0  0  0
 60134  1  0  0  0
 60135  1  0  0  0
 60136  1  0  0  0
 61137  1  0  0  0
 61138  1  0  0  0
 61139  1  0  0  0
 62140  1  0  0  0
 62141  1  0  0  0
 62142  1  0  0  0
 63 65  1  0  0  0
 63143  1  0  0  0
 63144  1  0  0  0
 63145  1  0  0  0
 64146  1  0  0  0
 65147  1  0  0  0
 68 84  1  0  0  0
 71 72  2  0  0  0
 71 74  1  0  0  0
 71148  1  0  0  0
 72 76  1  0  0  0
 72149  1  0  0  0
 73 75  1  0  0  0
 73 76  2  0  0  0
 73150  1  0  0  0
 74 75  2  0  0  0
 74 81  1  0  0  0
 75 82  1  0  0  0
 76 88  1  0  0  0
 77 83  1  0  0  0
 77 86  1  0  0  0
 77 87  2  0  0  0
 78 79  1  0  0  0
 78 81  1  0  0  0
 78151  1  0  0  0
 78152  1  0  0  0
 79 86  1  0  0  0
 79153  1  0  0  0
 79154  1  0  0  0
 80 81  1  0  0  0
 80 86  1  0  0  0
 80155  1  0  0  0
 80156  1  0  0  0
 81157  1  0  0  0
 82158  1  0  0  0
 82159  1  0  0  0
 82160  1  0  0  0
 83161  1  0  0  0
 83162  1  0  0  0
 84 85  1  0  0  0
 84163  1  0  0  0
 84164  1  0  0  0
 85 88  1  0  0  0
 85165  1  0  0  0
 85166  1  0  0  0
M  ISO  4   1 100  68 101  83 100  84 101
M  END
> <chiral flag>
0

> <version>
0

> <s_m_source_file>
/data/baiqing/PycharmProjects/Reinvent-master-3.2/result/LINK_invent/BTK/process_docking_weight1_custom_product_contain_oxygen_bond_distance_aromatic_linkinvent_7_9_3/rearranged_h_0104.sdf

> <i_m_source_file_index>
38

> <r_mmod_Potential_Energy-OPLS-2005>
75.8305358886719

> <r_mmod_Stretch_Energy-OPLS-2005>
30.2924976348877

> <r_mmod_Bend_Energy-OPLS-2005>
134.622039794922

> <r_mmod_Torsional_Energy-OPLS-2005>
282.31005859375

> <r_mmod_Improper_Torsional_Energy-OPLS-2005>
8.55525779724121

> <r_mmod_Van_der_Waal_Energy-OPLS-2005>
169.097885131836

> <r_mmod_Electrostatic_Energy-OPLS-2005>
-364.455078125

> <r_mmod_Solvation_Energy-OPLS-2005>
-204.375274658203

> <b_mmod_Minimization_Converged-OPLS-2005>
0

> <r_mmod_RMS_Derivative-OPLS-2005>
1.16842114925385

$$$$
39
                    3D
 Structure written by MMmdl.
160168  0  0  1  0            999 V2000
  -30.6565  -14.5569   20.5621 C   0  0  0  0  0  0
  -30.3911  -12.3217   19.4719 C   0  0  0  0  0  0
  -29.5007  -12.4289   18.2184 C   0  0  0  0  0  0
  -28.0094  -12.3312   18.6094 C   0  0  0  0  0  0
  -27.6263  -13.2021   19.8405 C   0  0  2  0  0  0
  -28.6537  -13.0518   20.9752 C   0  0  0  0  0  0
  -25.2415  -13.8092   20.5668 C   0  0  0  0  0  0
  -24.1696  -13.0385   20.9187 C   0  0  0  0  0  0
  -24.6232  -11.6838   20.8686 C   0  0  0  0  0  0
  -23.8911  -10.4249   21.0379 C   0  0  0  0  0  0
  -24.3488   -9.4188   21.9172 C   0  0  0  0  0  0
  -23.6207   -8.2202   22.0760 C   0  0  0  0  0  0
  -22.4198   -8.0197   21.3544 C   0  0  0  0  0  0
  -21.9794   -9.0149   20.4638 C   0  0  0  0  0  0
  -22.7081  -10.2052   20.3038 C   0  0  0  0  0  0
  -21.6814   -6.0661   22.5285 C   0  0  0  0  0  0
  -21.3997   -6.5593   23.8213 C   0  0  0  0  0  0
  -21.3690   -5.6771   24.9199 C   0  0  0  0  0  0
  -21.6062   -4.3031   24.7265 C   0  0  0  0  0  0
  -21.8795   -3.8091   23.4393 C   0  0  0  0  0  0
  -21.9173   -4.6890   22.3432 C   0  0  0  0  0  0
  -22.7745  -13.5190   21.1934 C   0  0  0  0  0  0
  -22.1633   -4.2073   21.1006 F   0  0  0  0  0  0
  -21.5662   -3.4526   25.7788 F   0  0  0  0  0  0
  -29.9813  -13.3707   20.4262 N   0  0  0  0  0  0
  -26.2773  -12.9241   20.3120 N   0  0  0  0  0  0
  -25.9115  -11.6410   20.5581 N   0  0  0  0  0  0
  -22.0413  -12.8192   22.0509 N   0  0  0  0  0  0
  -25.4225  -15.1834   20.4243 N   0  0  0  0  0  0
  -31.7969  -14.7023   20.1097 O   0  0  0  0  0  0
  -21.6592   -6.8775   21.4234 O   0  0  0  0  0  0
  -22.3447  -14.5536   20.6827 O   0  0  0  0  0  0
  -24.6142  -31.8669   23.2125 C   0  0  0  0  0  0
  -25.9017  -32.4818   23.8439 C   0  0  1  0  0  0
  -27.2223  -27.3878   20.1020 C   0  0  0  0  0  0
  -25.5867  -33.8629   24.2347 N   0  0  0  0  0  0
  -23.4042  -30.4888   21.5548 C   0  0  2  0  0  0
  -24.8475  -28.9545   20.1123 C   0  0  0  0  0  0
  -22.7411  -29.4628   22.5013 C   0  0  0  0  0  0
  -18.0254  -28.1329   22.8480 C   0  0  0  0  0  0
  -24.1455  -36.7288   23.2643 C   0  0  0  0  0  0
  -25.9365  -30.8209   21.3700 C   0  0  0  0  0  0
  -26.0117  -29.4532   20.7071 C   0  0  0  0  0  0
  -27.2017  -28.6820   20.6880 C   0  0  0  0  0  0
  -26.0371  -26.9153   19.4957 C   0  0  0  0  0  0
  -24.8590  -27.6892   19.5000 C   0  0  0  0  0  0
  -23.6122  -29.8302   20.1650 C   0  0  0  0  0  0
  -25.4071  -36.3103   24.0346 C   0  0  1  0  0  0
  -20.5852  -28.3593   23.1319 C   0  0  2  0  0  0
  -20.6729  -26.9327   22.5409 C   0  0  0  0  0  0
  -19.5722  -26.6340   21.5177 C   0  0  0  0  0  0
  -18.1896  -26.7882   22.1582 C   0  0  0  0  0  0
  -19.1510  -28.8784   23.2887 C   0  0  0  0  0  0
  -18.9445  -30.1403   23.8878 C   0  0  0  0  0  0
  -17.6463  -30.6555   24.0538 C   0  0  0  0  0  0
  -25.9024  -34.9474   23.5145 C   0  0  0  0  0  0
  -16.5347  -29.9056   23.6322 C   0  0  0  0  0  0
  -16.7257  -28.6468   23.0340 C   0  0  0  0  0  0
  -26.4440  -31.6620   25.0779 C   0  0  0  0  0  0
  -25.3728  -31.3678   26.1550 C   0  0  0  0  0  0
  -27.0275  -30.3076   24.6156 C   0  0  0  0  0  0
  -27.6035  -32.4347   25.7502 C   0  0  0  0  0  0
  -27.5572  -37.1752   24.8453 C   0  0  0  0  0  0
  -21.4144  -29.2980   22.3738 N   0  0  0  0  0  0
  -26.4234  -37.3815   23.9476 N   0  0  0  0  0  0
  -24.6700  -31.0741   22.1033 N   0  0  0  0  0  0
  -23.4174  -28.8186   23.3080 O   0  0  0  0  0  0
  -28.3953  -26.6470   20.1488 O   0  0  0  0  0  0
  -26.5616  -34.8923   22.4729 O   0  0  0  0  0  0
  -23.5323  -32.1456   23.7470 O   0  0  0  0  0  0
  -28.9480  -18.3457   18.6333 C   0  0  0  0  0  0
  -28.7277  -19.4426   19.4760 C   0  0  0  0  0  0
  -29.4231  -18.0650   21.3474 C   0  0  0  0  0  0
  -29.4125  -17.1030   19.1208 C   0  0  0  0  0  0
  -29.6305  -16.9014   20.5248 C   0  0  0  0  0  0
  -28.9930  -19.3336   20.8513 C   0  0  0  0  0  0
  -29.6306  -16.0423   18.0601 C   0  0  0  0  0  0
  -29.9979  -15.5436   22.6204 C   0  0  0  0  0  0
  -28.0785  -24.1920   20.8506 C   0  0  0  0  0  0
  -28.7369  -22.7722   20.6663 C   0  0  0  0  0  0
  -28.4568  -25.2473   19.7596 C   0  0  0  0  0  0
  -28.0437  -21.5711   21.3984 C   0  0  0  0  0  0
  -29.9938  -15.6087   21.1489 N   0  0  0  0  0  0
  -28.8712  -20.4188   21.7176 O   0  0  0  0  0  0
  -31.4498  -12.3636   19.2182 H   0  0  0  0  0  0
  -30.2342  -11.3402   19.9220 H   0  0  0  0  0  0
  -29.7464  -11.6240   17.5246 H   0  0  0  0  0  0
  -29.7202  -13.3414   17.6709 H   0  0  0  0  0  0
  -27.8175  -11.2826   18.8407 H   0  0  0  0  0  0
  -27.3727  -12.5684   17.7559 H   0  0  0  0  0  0
  -27.6259  -14.2399   19.5212 H   0  0  0  0  0  0
  -28.6378  -12.0342   21.3666 H   0  0  0  0  0  0
  -28.3621  -13.6862   21.8105 H   0  0  0  0  0  0
  -25.2617   -9.5704   22.4757 H   0  0  0  0  0  0
  -23.9925   -7.4596   22.7484 H   0  0  0  0  0  0
  -21.0729   -8.8614   19.8932 H   0  0  0  0  0  0
  -22.3495  -10.9569   19.6147 H   0  0  0  0  0  0
  -21.1957   -7.6094   23.9707 H   0  0  0  0  0  0
  -21.1570   -6.0508   25.9108 H   0  0  0  0  0  0
  -22.0544   -2.7540   23.2931 H   0  0  0  0  0  0
  -22.4000  -11.9824   22.4878 H   0  0  0  0  0  0
  -21.1064  -13.1275   22.2800 H   0  0  0  0  0  0
  -24.6741  -15.8501   20.5808 H   0  0  0  0  0  0
  -26.2928  -15.6220   20.1518 H   0  0  0  0  0  0
  -26.7094  -32.5525   23.1208 H   0  0  0  0  0  0
  -24.9979  -33.9822   25.0462 H   0  0  0  0  0  0
  -22.6907  -31.3041   21.4228 H   0  0  0  0  0  0
  -23.3743  -35.9584   23.3260 H   0  0  0  0  0  0
  -24.3559  -36.8978   22.2073 H   0  0  0  0  0  0
  -23.7160  -37.6440   23.6714 H   0  0  0  0  0  0
  -26.0593  -31.5946   20.6098 H   0  0  0  0  0  0
  -26.8177  -30.8673   21.9982 H   0  0  0  0  0  0
  -28.1055  -29.0717   21.1361 H   0  0  0  0  0  0
  -25.9979  -25.9515   19.0129 H   0  0  0  0  0  0
  -23.9634  -27.3043   19.0321 H   0  0  0  0  0  0
  -23.7229  -30.6153   19.4158 H   0  0  0  0  0  0
  -22.7312  -29.2619   19.8600 H   0  0  0  0  0  0
  -25.1224  -36.1949   25.0828 H   0  0  0  0  0  0
  -20.9895  -28.3128   24.1460 H   0  0  0  0  0  0
  -20.5564  -26.2191   23.3579 H   0  0  0  0  0  0
  -21.6606  -26.7337   22.1253 H   0  0  0  0  0  0
  -19.6868  -25.6251   21.1208 H   0  0  0  0  0  0
  -19.6672  -27.3129   20.6693 H   0  0  0  0  0  0
  -17.4154  -26.6616   21.3998 H   0  0  0  0  0  0
  -18.0304  -26.0014   22.8964 H   0  0  0  0  0  0
  -19.7938  -30.7200   24.2229 H   0  0  0  0  0  0
  -17.5036  -31.6246   24.5099 H   0  0  0  0  0  0
  -15.5337  -30.2951   23.7682 H   0  0  0  0  0  0
  -15.8645  -28.0805   22.7050 H   0  0  0  0  0  0
  -24.5970  -30.6912   25.7952 H   0  0  0  0  0  0
  -24.8784  -32.2766   26.4989 H   0  0  0  0  0  0
  -25.8129  -30.8939   27.0335 H   0  0  0  0  0  0
  -26.2810  -29.6838   24.1213 H   0  0  0  0  0  0
  -27.4068  -29.7319   25.4611 H   0  0  0  0  0  0
  -27.8653  -30.4436   23.9307 H   0  0  0  0  0  0
  -27.2701  -33.3695   26.2026 H   0  0  0  0  0  0
  -28.3822  -32.6831   25.0278 H   0  0  0  0  0  0
  -28.0712  -31.8503   26.5434 H   0  0  0  0  0  0
  -28.2491  -38.0151   24.7660 H   0  0  0  0  0  0
  -28.1158  -36.2683   24.6048 H   0  0  0  0  0  0
  -27.2336  -37.1155   25.8864 H   0  0  0  0  0  0
  -20.9273  -29.8771   21.7044 H   0  0  0  0  0  0
  -26.0100  -38.2850   24.1622 H   0  0  0  0  0  0
  -28.7490  -18.4735   17.5783 H   0  0  0  0  0  0
  -28.3713  -20.3670   19.0453 H   0  0  0  0  0  0
  -29.5853  -18.0149   22.4134 H   0  0  0  0  0  0
  -29.4311  -16.4183   17.0555 H   0  0  0  0  0  0
  -28.9437  -15.2236   18.2228 H   0  0  0  0  0  0
  -30.6605  -15.6900   18.0585 H   0  0  0  0  0  0
  -29.0288  -15.8394   23.0268 H   0  0  0  0  0  0
  -30.7655  -16.2039   23.0253 H   0  0  0  0  0  0
  -30.2015  -14.5415   23.0087 H   0  0  0  0  0  0
  -28.3726  -24.5888   21.8244 H   0  0  0  0  0  0
  -26.9937  -24.0994   20.8840 H   0  0  0  0  0  0
  -29.7722  -22.8385   21.0038 H   0  0  0  0  0  0
  -28.7900  -22.5370   19.6036 H   0  0  0  0  0  0
  -27.9180  -25.0460   18.8339 H   0  0  0  0  0  0
  -29.5000  -25.0828   19.4951 H   0  0  0  0  0  0
  -27.1472  -21.2590   20.8628 H   0  0  0  0  0  0
  -27.6759  -21.9333   22.3580 H   0  0  0  0  0  0
  1 25  1  0  0  0
  1 30  2  0  0  0
  1 83  1  0  0  0
  2  3  1  0  0  0
  2 25  1  0  0  0
  2 85  1  0  0  0
  2 86  1  0  0  0
  3  4  1  0  0  0
  3 87  1  0  0  0
  3 88  1  0  0  0
  4  5  1  0  0  0
  4 89  1  0  0  0
  4 90  1  0  0  0
  5  6  1  0  0  0
  5 26  1  0  0  0
  5 91  1  0  0  0
  6 25  1  0  0  0
  6 92  1  0  0  0
  6 93  1  0  0  0
  7  8  2  0  0  0
  7 26  1  0  0  0
  7 29  1  0  0  0
  8  9  1  0  0  0
  8 22  1  0  0  0
  9 10  1  0  0  0
  9 27  2  0  0  0
 10 11  2  0  0  0
 10 15  1  0  0  0
 11 12  1  0  0  0
 11 94  1  0  0  0
 12 13  2  0  0  0
 12 95  1  0  0  0
 13 14  1  0  0  0
 13 31  1  0  0  0
 14 15  2  0  0  0
 14 96  1  0  0  0
 15 97  1  0  0  0
 16 17  2  0  0  0
 16 21  1  0  0  0
 16 31  1  0  0  0
 17 18  1  0  0  0
 17 98  1  0  0  0
 18 19  2  0  0  0
 18 99  1  0  0  0
 19 20  1  0  0  0
 19 24  1  0  0  0
 20 21  2  0  0  0
 20100  1  0  0  0
 21 23  1  0  0  0
 22 28  1  0  0  0
 22 32  2  0  0  0
 26 27  1  0  0  0
 28101  1  0  0  0
 28102  1  0  0  0
 29103  1  0  0  0
 29104  1  0  0  0
 33 34  1  0  0  0
 33 66  1  0  0  0
 33 70  2  0  0  0
 34 36  1  0  0  0
 34 59  1  0  0  0
 34105  1  0  0  0
 35 44  2  0  0  0
 35 45  1  0  0  0
 35 68  1  0  0  0
 36 56  1  0  0  0
 36106  1  0  0  0
 37 39  1  0  0  0
 37 47  1  0  0  0
 37 66  1  0  0  0
 37107  1  0  0  0
 38 43  2  0  0  0
 38 46  1  0  0  0
 38 47  1  0  0  0
 39 64  1  0  0  0
 39 67  2  0  0  0
 40 52  1  0  0  0
 40 53  2  0  0  0
 40 58  1  0  0  0
 41108  1  0  0  0
 41109  1  0  0  0
 41110  1  0  0  0
 41 48  1  0  0  0
 42 43  1  0  0  0
 42 66  1  0  0  0
 42111  1  0  0  0
 42112  1  0  0  0
 43 44  1  0  0  0
 44113  1  0  0  0
 45 46  2  0  0  0
 45114  1  0  0  0
 46115  1  0  0  0
 47116  1  0  0  0
 47117  1  0  0  0
 48 56  1  0  0  0
 48 65  1  0  0  0
 48118  1  0  0  0
 49 50  1  0  0  0
 49 53  1  0  0  0
 49 64  1  0  0  0
 49119  1  0  0  0
 50 51  1  0  0  0
 50120  1  0  0  0
 50121  1  0  0  0
 51 52  1  0  0  0
 51122  1  0  0  0
 51123  1  0  0  0
 52124  1  0  0  0
 52125  1  0  0  0
 53 54  1  0  0  0
 54 55  2  0  0  0
 54126  1  0  0  0
 55 57  1  0  0  0
 55127  1  0  0  0
 56 69  2  0  0  0
 57 58  2  0  0  0
 57128  1  0  0  0
 58129  1  0  0  0
 59 60  1  0  0  0
 59 61  1  0  0  0
 59 62  1  0  0  0
 60130  1  0  0  0
 60131  1  0  0  0
 60132  1  0  0  0
 61133  1  0  0  0
 61134  1  0  0  0
 61135  1  0  0  0
 62136  1  0  0  0
 62137  1  0  0  0
 62138  1  0  0  0
 63 65  1  0  0  0
 63139  1  0  0  0
 63140  1  0  0  0
 63141  1  0  0  0
 64142  1  0  0  0
 65143  1  0  0  0
 68 81  1  0  0  0
 71 72  2  0  0  0
 71 74  1  0  0  0
 71144  1  0  0  0
 72 76  1  0  0  0
 72145  1  0  0  0
 73 75  1  0  0  0
 73 76  2  0  0  0
 73146  1  0  0  0
 74 75  2  0  0  0
 74 77  1  0  0  0
 75 83  1  0  0  0
 76 84  1  0  0  0
 77147  1  0  0  0
 77148  1  0  0  0
 77149  1  0  0  0
 78 83  1  0  0  0
 78150  1  0  0  0
 78151  1  0  0  0
 78152  1  0  0  0
 79 80  1  0  0  0
 79 81  1  0  0  0
 79153  1  0  0  0
 79154  1  0  0  0
 80 82  1  0  0  0
 80155  1  0  0  0
 80156  1  0  0  0
 81157  1  0  0  0
 81158  1  0  0  0
 82 84  1  0  0  0
 82159  1  0  0  0
 82160  1  0  0  0
M  ISO  4   1 100  68 101  81 101  83 100
M  END
> <chiral flag>
0

> <version>
0

> <s_m_source_file>
/data/baiqing/PycharmProjects/Reinvent-master-3.2/result/LINK_invent/BTK/process_docking_weight1_custom_product_contain_oxygen_bond_distance_aromatic_linkinvent_7_9_3/rearranged_h_0104.sdf

> <i_m_source_file_index>
39

> <r_mmod_Potential_Energy-OPLS-2005>
185.856521606445

> <r_mmod_Stretch_Energy-OPLS-2005>
66.1023559570312

> <r_mmod_Bend_Energy-OPLS-2005>
148.510192871094

> <r_mmod_Torsional_Energy-OPLS-2005>
278.242462158203

> <r_mmod_Improper_Torsional_Energy-OPLS-2005>
2.7005672454834

> <r_mmod_Van_der_Waal_Energy-OPLS-2005>
161.960647583008

> <r_mmod_Electrostatic_Energy-OPLS-2005>
-307.065826416016

> <r_mmod_Solvation_Energy-OPLS-2005>
-192.080688476562

> <b_mmod_Minimization_Converged-OPLS-2005>
0

> <r_mmod_RMS_Derivative-OPLS-2005>
4.4904842376709

$$$$
40
                    3D
 Structure written by MMmdl.
181190  0  0  1  0            999 V2000
  -30.7039  -14.4655   20.5739 C   0  0  0  0  0  0
  -30.4252  -12.3046   19.4156 C   0  0  0  0  0  0
  -29.4961  -12.5058   18.2013 C   0  0  0  0  0  0
  -28.0164  -12.3659   18.6130 C   0  0  0  0  0  0
  -27.6616  -13.2035   19.8711 C   0  0  2  0  0  0
  -28.7042  -12.9801   20.9907 C   0  0  0  0  0  0
  -25.2589  -13.8146   20.5673 C   0  0  0  0  0  0
  -24.1841  -13.0434   20.9189 C   0  0  0  0  0  0
  -24.6386  -11.6900   20.8737 C   0  0  0  0  0  0
  -23.9052  -10.4288   21.0404 C   0  0  0  0  0  0
  -24.3603   -9.4207   21.9181 C   0  0  0  0  0  0
  -23.6278   -8.2243   22.0753 C   0  0  0  0  0  0
  -22.4261   -8.0274   21.3538 C   0  0  0  0  0  0
  -21.9896   -9.0250   20.4646 C   0  0  0  0  0  0
  -22.7225  -10.2131   20.3052 C   0  0  0  0  0  0
  -21.6853   -6.0724   22.5273 C   0  0  0  0  0  0
  -21.4015   -6.5625   23.8206 C   0  0  0  0  0  0
  -21.3659   -5.6784   24.9173 C   0  0  0  0  0  0
  -21.6040   -4.3048   24.7226 C   0  0  0  0  0  0
  -21.8822   -3.8138   23.4350 C   0  0  0  0  0  0
  -21.9195   -4.6953   22.3399 C   0  0  0  0  0  0
  -22.7863  -13.5243   21.1842 C   0  0  0  0  0  0
  -22.1665   -4.2140   21.0980 F   0  0  0  0  0  0
  -21.5624   -3.4533   25.7742 F   0  0  0  0  0  0
  -30.0351  -13.2875   20.4378 N   0  0  0  0  0  0
  -26.3021  -12.9309   20.3338 N   0  0  0  0  0  0
  -25.9306  -11.6476   20.5737 N   0  0  0  0  0  0
  -22.0482  -12.8246   22.0397 N   0  0  0  0  0  0
  -25.4310  -15.1867   20.4053 N   0  0  0  0  0  0
  -31.8428  -14.6260   20.1249 O   0  0  0  0  0  0
  -21.6630   -6.8869   21.4237 O   0  0  0  0  0  0
  -22.3561  -14.5551   20.6695 O   0  0  0  0  0  0
  -24.6136  -31.8691   23.2118 C   0  0  0  0  0  0
  -25.9043  -32.4833   23.8401 C   0  0  1  0  0  0
  -27.2400  -27.4522   20.0709 C   0  0  0  0  0  0
  -25.5906  -33.8627   24.2345 N   0  0  0  0  0  0
  -23.4003  -30.4918   21.5531 C   0  0  2  0  0  0
  -24.8464  -28.9587   20.1181 C   0  0  0  0  0  0
  -22.7403  -29.4646   22.5007 C   0  0  0  0  0  0
  -18.0275  -28.1370   22.8480 C   0  0  0  0  0  0
  -24.1481  -36.7307   23.2635 C   0  0  0  0  0  0
  -25.9291  -30.8334   21.3673 C   0  0  0  0  0  0
  -26.0057  -29.4679   20.7163 C   0  0  0  0  0  0
  -27.2011  -28.7150   20.7044 C   0  0  0  0  0  0
  -26.0552  -26.9437   19.4910 C   0  0  0  0  0  0
  -24.8633  -27.6914   19.5119 C   0  0  0  0  0  0
  -23.6090  -29.8257   20.1677 C   0  0  0  0  0  0
  -25.4101  -36.3117   24.0347 C   0  0  1  0  0  0
  -20.5861  -28.3645   23.1326 C   0  0  2  0  0  0
  -20.6764  -26.9383   22.5419 C   0  0  0  0  0  0
  -19.5749  -26.6376   21.5206 C   0  0  0  0  0  0
  -18.1921  -26.7919   22.1605 C   0  0  0  0  0  0
  -19.1521  -28.8824   23.2900 C   0  0  0  0  0  0
  -18.9450  -30.1432   23.8899 C   0  0  0  0  0  0
  -17.6456  -30.6570   24.0565 C   0  0  0  0  0  0
  -25.9028  -34.9483   23.5141 C   0  0  0  0  0  0
  -16.5344  -29.9072   23.6334 C   0  0  0  0  0  0
  -16.7260  -28.6493   23.0337 C   0  0  0  0  0  0
  -26.4480  -31.6598   25.0721 C   0  0  0  0  0  0
  -25.3758  -31.3728   26.1479 C   0  0  0  0  0  0
  -27.0310  -30.3035   24.6098 C   0  0  0  0  0  0
  -27.6051  -32.4323   25.7491 C   0  0  0  0  0  0
  -27.5581  -37.1810   24.8464 C   0  0  0  0  0  0
  -21.4130  -29.3017   22.3743 N   0  0  0  0  0  0
  -26.4290  -37.3791   23.9412 N   0  0  0  0  0  0
  -24.6657  -31.0794   22.1022 N   0  0  0  0  0  0
  -23.4183  -28.8183   23.3039 O   0  0  0  0  0  0
  -28.4176  -26.7360   20.0541 O   0  0  0  0  0  0
  -26.5573  -34.8935   22.4693 O   0  0  0  0  0  0
  -23.5335  -32.1451   23.7515 O   0  0  0  0  0  0
  -29.2263  -20.6116   18.9189 C   0  0  0  0  0  0
  -29.2329  -20.2638   21.6970 C   0  0  0  0  0  0
  -29.1784  -19.3062   19.4537 C   0  0  0  0  0  0
  -29.2429  -21.7479   19.7564 C   0  0  0  0  0  0
  -29.1949  -19.1205   20.8615 C   0  0  0  0  0  0
  -29.2400  -21.5780   21.1587 C   0  0  0  0  0  0
  -30.2678  -16.7749   21.2202 C   0  0  0  0  0  0
  -32.6315  -25.8520   19.4441 C   0  0  0  0  0  0
  -32.6098  -24.5360   20.2232 C   0  0  0  0  0  0
  -31.2220  -26.4511   19.4323 C   0  0  0  0  0  0
  -31.5841  -23.5617   19.6198 C   0  0  0  0  0  0
  -30.1696  -25.4564   18.8801 C   0  0  2  0  0  0
  -29.0832  -18.1342   18.4880 C   0  0  0  0  0  0
  -28.9152  -24.0799   25.4162 C   0  0  0  0  0  0
  -29.0870  -17.7257   21.5092 C   0  0  0  0  0  0
  -29.1844  -23.1484   19.1296 C   0  0  0  0  0  0
  -28.7784  -26.1420   18.8036 C   0  0  0  0  0  0
  -29.1074  -24.0479   23.8961 C   0  0  0  0  0  0
  -29.1437  -22.6225   23.3317 C   0  0  0  0  0  0
  -29.9524  -15.4704   21.0713 N   0  0  0  0  0  0
  -30.2046  -24.1340   19.6067 N   0  3  1  0  0  0
  -31.4116  -17.2367   21.1339 O   0  0  0  0  0  0
  -29.2495  -22.7287   21.9189 O   0  0  0  0  0  0
  -31.4692  -12.4015   19.1122 H   0  0  0  0  0  0
  -30.3236  -11.2928   19.8109 H   0  0  0  0  0  0
  -29.7354  -11.7825   17.4209 H   0  0  0  0  0  0
  -29.6669  -13.4913   17.7654 H   0  0  0  0  0  0
  -27.8281  -11.3091   18.8063 H   0  0  0  0  0  0
  -27.3670  -12.6403   17.7806 H   0  0  0  0  0  0
  -27.7058  -14.2519   19.5749 H   0  0  0  0  0  0
  -28.6812  -11.9419   21.3244 H   0  0  0  0  0  0
  -28.4664  -13.5721   21.8759 H   0  0  0  0  0  0
  -25.2748   -9.5676   22.4753 H   0  0  0  0  0  0
  -23.9985   -7.4634   22.7471 H   0  0  0  0  0  0
  -21.0823   -8.8764   19.8951 H   0  0  0  0  0  0
  -22.3680  -10.9659   19.6156 H   0  0  0  0  0  0
  -21.2007   -7.6131   23.9706 H   0  0  0  0  0  0
  -21.1476   -6.0513   25.9072 H   0  0  0  0  0  0
  -22.0605   -2.7602   23.2857 H   0  0  0  0  0  0
  -22.4053  -11.9882   22.4765 H   0  0  0  0  0  0
  -21.1103  -13.1293   22.2584 H   0  0  0  0  0  0
  -24.6578  -15.8360   20.4979 H   0  0  0  0  0  0
  -26.2595  -15.6165   20.0164 H   0  0  0  0  0  0
  -26.7104  -32.5559   23.1157 H   0  0  0  0  0  0
  -25.0116  -33.9794   25.0529 H   0  0  0  0  0  0
  -22.6876  -31.3077   21.4160 H   0  0  0  0  0  0
  -23.3756  -35.9629   23.3315 H   0  0  0  0  0  0
  -24.3581  -36.8899   22.2044 H   0  0  0  0  0  0
  -23.7227  -37.6515   23.6634 H   0  0  0  0  0  0
  -26.0440  -31.5988   20.5984 H   0  0  0  0  0  0
  -26.8159  -30.8859   21.9872 H   0  0  0  0  0  0
  -28.0982  -29.1054   21.1649 H   0  0  0  0  0  0
  -26.0257  -25.9656   19.0341 H   0  0  0  0  0  0
  -23.9677  -27.2855   19.0623 H   0  0  0  0  0  0
  -23.7184  -30.6013   19.4086 H   0  0  0  0  0  0
  -22.7332  -29.2459   19.8719 H   0  0  0  0  0  0
  -25.1276  -36.1984   25.0842 H   0  0  0  0  0  0
  -20.9945  -28.3207   24.1447 H   0  0  0  0  0  0
  -20.5656  -26.2245   23.3597 H   0  0  0  0  0  0
  -21.6640  -26.7429   22.1216 H   0  0  0  0  0  0
  -19.6913  -25.6292   21.1221 H   0  0  0  0  0  0
  -19.6695  -27.3197   20.6747 H   0  0  0  0  0  0
  -17.4195  -26.6673   21.4000 H   0  0  0  0  0  0
  -18.0308  -26.0052   22.8987 H   0  0  0  0  0  0
  -19.7929  -30.7251   24.2259 H   0  0  0  0  0  0
  -17.5011  -31.6255   24.5162 H   0  0  0  0  0  0
  -15.5342  -30.2966   23.7666 H   0  0  0  0  0  0
  -15.8661  -28.0824   22.7038 H   0  0  0  0  0  0
  -24.5908  -30.7091   25.7835 H   0  0  0  0  0  0
  -24.8984  -32.2904   26.4924 H   0  0  0  0  0  0
  -25.8115  -30.8897   27.0233 H   0  0  0  0  0  0
  -26.2847  -29.6795   24.1158 H   0  0  0  0  0  0
  -27.4089  -29.7263   25.4549 H   0  0  0  0  0  0
  -27.8682  -30.4352   23.9241 H   0  0  0  0  0  0
  -27.2658  -33.3613   26.2086 H   0  0  0  0  0  0
  -28.3847  -32.6900   25.0311 H   0  0  0  0  0  0
  -28.0732  -31.8444   26.5397 H   0  0  0  0  0  0
  -28.2604  -38.0097   24.7505 H   0  0  0  0  0  0
  -28.1074  -36.2639   24.6291 H   0  0  0  0  0  0
  -27.2316  -37.1462   25.8870 H   0  0  0  0  0  0
  -20.9281  -29.8740   21.6975 H   0  0  0  0  0  0
  -26.0198  -38.2883   24.1394 H   0  0  0  0  0  0
  -29.2112  -20.7439   17.8459 H   0  0  0  0  0  0
  -29.2314  -20.1133   22.7666 H   0  0  0  0  0  0
  -32.9765  -25.6784   18.4230 H   0  0  0  0  0  0
  -33.3370  -26.5500   19.8967 H   0  0  0  0  0  0
  -32.3704  -24.7262   21.2712 H   0  0  0  0  0  0
  -33.6015  -24.0823   20.2133 H   0  0  0  0  0  0
  -31.2247  -27.3629   18.8328 H   0  0  0  0  0  0
  -30.9550  -26.7604   20.4445 H   0  0  0  0  0  0
  -31.6224  -22.6415   20.2016 H   0  0  0  0  0  0
  -31.8771  -23.2946   18.6031 H   0  0  0  0  0  0
  -30.4489  -25.2345   17.8485 H   0  0  0  0  0  0
  -28.7714  -18.4636   17.4963 H   0  0  0  0  0  0
  -28.3513  -17.4003   18.8242 H   0  0  0  0  0  0
  -30.0493  -17.6402   18.3829 H   0  0  0  0  0  0
  -28.8870  -25.1056   25.7845 H   0  0  0  0  0  0
  -29.7293  -23.5658   25.9277 H   0  0  0  0  0  0
  -27.9803  -23.5983   25.7050 H   0  0  0  0  0  0
  -28.1542  -17.2688   21.1777 H   0  0  0  0  0  0
  -28.9977  -17.8237   22.5911 H   0  0  0  0  0  0
  -28.1845  -23.5209   19.3480 H   0  0  0  0  0  0
  -29.2583  -23.0625   18.0442 H   0  0  0  0  0  0
  -28.0233  -25.4592   18.4218 H   0  0  0  0  0  0
  -28.8349  -26.9448   18.0654 H   0  0  0  0  0  0
  -30.0316  -24.5657   23.6366 H   0  0  0  0  0  0
  -28.2990  -24.6059   23.4218 H   0  0  0  0  0  0
  -28.2319  -22.0889   23.6054 H   0  0  0  0  0  0
  -29.9974  -22.0801   23.7416 H   0  0  0  0  0  0
  -29.0022  -15.2193   21.2861 H   0  0  0  0  0  0
  -29.9591  -24.3040   20.5733 H   0  0  0  0  0  0
  1 25  1  0  0  0
  1 30  2  0  0  0
  1 90  1  0  0  0
  2  3  1  0  0  0
  2 25  1  0  0  0
  2 94  1  0  0  0
  2 95  1  0  0  0
  3  4  1  0  0  0
  3 96  1  0  0  0
  3 97  1  0  0  0
  4  5  1  0  0  0
  4 98  1  0  0  0
  4 99  1  0  0  0
  5  6  1  0  0  0
  5 26  1  0  0  0
  5100  1  0  0  0
  6 25  1  0  0  0
  6101  1  0  0  0
  6102  1  0  0  0
  7  8  2  0  0  0
  7 26  1  0  0  0
  7 29  1  0  0  0
  8  9  1  0  0  0
  8 22  1  0  0  0
  9 10  1  0  0  0
  9 27  2  0  0  0
 10 11  2  0  0  0
 10 15  1  0  0  0
 11 12  1  0  0  0
 11103  1  0  0  0
 12 13  2  0  0  0
 12104  1  0  0  0
 13 14  1  0  0  0
 13 31  1  0  0  0
 14 15  2  0  0  0
 14105  1  0  0  0
 15106  1  0  0  0
 16 17  2  0  0  0
 16 21  1  0  0  0
 16 31  1  0  0  0
 17 18  1  0  0  0
 17107  1  0  0  0
 18 19  2  0  0  0
 18108  1  0  0  0
 19 20  1  0  0  0
 19 24  1  0  0  0
 20 21  2  0  0  0
 20109  1  0  0  0
 21 23  1  0  0  0
 22 28  1  0  0  0
 22 32  2  0  0  0
 26 27  1  0  0  0
 28110  1  0  0  0
 28111  1  0  0  0
 29112  1  0  0  0
 29113  1  0  0  0
 33 34  1  0  0  0
 33 66  1  0  0  0
 33 70  2  0  0  0
 34 36  1  0  0  0
 34 59  1  0  0  0
 34114  1  0  0  0
 35 44  2  0  0  0
 35 45  1  0  0  0
 35 68  1  0  0  0
 36 56  1  0  0  0
 36115  1  0  0  0
 37 39  1  0  0  0
 37 47  1  0  0  0
 37 66  1  0  0  0
 37116  1  0  0  0
 38 43  2  0  0  0
 38 46  1  0  0  0
 38 47  1  0  0  0
 39 64  1  0  0  0
 39 67  2  0  0  0
 40 52  1  0  0  0
 40 53  2  0  0  0
 40 58  1  0  0  0
 41117  1  0  0  0
 41118  1  0  0  0
 41119  1  0  0  0
 41 48  1  0  0  0
 42 43  1  0  0  0
 42 66  1  0  0  0
 42120  1  0  0  0
 42121  1  0  0  0
 43 44  1  0  0  0
 44122  1  0  0  0
 45 46  2  0  0  0
 45123  1  0  0  0
 46124  1  0  0  0
 47125  1  0  0  0
 47126  1  0  0  0
 48 56  1  0  0  0
 48 65  1  0  0  0
 48127  1  0  0  0
 49 50  1  0  0  0
 49 53  1  0  0  0
 49 64  1  0  0  0
 49128  1  0  0  0
 50 51  1  0  0  0
 50129  1  0  0  0
 50130  1  0  0  0
 51 52  1  0  0  0
 51131  1  0  0  0
 51132  1  0  0  0
 52133  1  0  0  0
 52134  1  0  0  0
 53 54  1  0  0  0
 54 55  2  0  0  0
 54135  1  0  0  0
 55 57  1  0  0  0
 55136  1  0  0  0
 56 69  2  0  0  0
 57 58  2  0  0  0
 57137  1  0  0  0
 58138  1  0  0  0
 59 60  1  0  0  0
 59 61  1  0  0  0
 59 62  1  0  0  0
 60139  1  0  0  0
 60140  1  0  0  0
 60141  1  0  0  0
 61142  1  0  0  0
 61143  1  0  0  0
 61144  1  0  0  0
 62145  1  0  0  0
 62146  1  0  0  0
 62147  1  0  0  0
 63 65  1  0  0  0
 63148  1  0  0  0
 63149  1  0  0  0
 63150  1  0  0  0
 64151  1  0  0  0
 65152  1  0  0  0
 68 87  1  0  0  0
 71 73  2  0  0  0
 71 74  1  0  0  0
 71153  1  0  0  0
 72 75  2  0  0  0
 72 76  1  0  0  0
 72154  1  0  0  0
 73 75  1  0  0  0
 73 83  1  0  0  0
 74 76  2  0  0  0
 74 86  1  0  0  0
 75 85  1  0  0  0
 76 93  1  0  0  0
 77 85  1  0  0  0
 77 90  1  0  0  0
 77 92  2  0  0  0
 78 79  1  0  0  0
 78 80  1  0  0  0
 78155  1  0  0  0
 78156  1  0  0  0
 79 81  1  0  0  0
 79157  1  0  0  0
 79158  1  0  0  0
 80 82  1  0  0  0
 80159  1  0  0  0
 80160  1  0  0  0
 81 91  1  0  0  0
 81161  1  0  0  0
 81162  1  0  0  0
 82 87  1  0  0  0
 82 91  1  0  0  0
 82163  1  0  0  0
 83164  1  0  0  0
 83165  1  0  0  0
 83166  1  0  0  0
 84 88  1  0  0  0
 84167  1  0  0  0
 84168  1  0  0  0
 84169  1  0  0  0
 85170  1  0  0  0
 85171  1  0  0  0
 86172  1  0  0  0
 86173  1  0  0  0
 86 91  1  0  0  0
 87174  1  0  0  0
 87175  1  0  0  0
 88 89  1  0  0  0
 88176  1  0  0  0
 88177  1  0  0  0
 89 93  1  0  0  0
 89178  1  0  0  0
 89179  1  0  0  0
 90180  1  0  0  0
 91181  1  0  0  0
M  CHG  1  91   1
M  ISO  4   1 100  68 101  87 101  90 100
M  END
> <chiral flag>
0

> <version>
0

> <s_m_source_file>
/data/baiqing/PycharmProjects/Reinvent-master-3.2/result/LINK_invent/BTK/process_docking_weight1_custom_product_contain_oxygen_bond_distance_aromatic_linkinvent_7_9_3/rearranged_h_0104.sdf

> <i_m_source_file_index>
40

> <r_mmod_Potential_Energy-OPLS-2005>
-145.639297485352

> <r_mmod_Stretch_Energy-OPLS-2005>
43.0210113525391

> <r_mmod_Bend_Energy-OPLS-2005>
116.220802307129

> <r_mmod_Torsional_Energy-OPLS-2005>
246.938949584961

> <r_mmod_Improper_Torsional_Energy-OPLS-2005>
4.51464509963989

> <r_mmod_Van_der_Waal_Energy-OPLS-2005>
163.886520385742

> <r_mmod_Electrostatic_Energy-OPLS-2005>
-330.020965576172

> <r_mmod_Solvation_Energy-OPLS-2005>
-402.025146484375

> <b_mmod_Minimization_Converged-OPLS-2005>
0

> <r_mmod_RMS_Derivative-OPLS-2005>
1.57683455944061

$$$$
41
                    3D
 Structure written by MMmdl.
154162  0  0  1  0            999 V2000
  -30.5452  -14.9008   20.4380 C   0  0  0  0  0  0
  -30.4420  -12.5556   19.4835 C   0  0  0  0  0  0
  -29.5171  -12.5520   18.2438 C   0  0  0  0  0  0
  -28.0478  -12.3367   18.6566 C   0  0  0  0  0  0
  -27.6359  -13.2426   19.8467 C   0  0  2  0  0  0
  -28.6847  -13.2207   20.9799 C   0  0  0  0  0  0
  -25.2470  -13.8168   20.5702 C   0  0  0  0  0  0
  -24.1774  -13.0392   20.9216 C   0  0  0  0  0  0
  -24.6400  -11.6886   20.8737 C   0  0  0  0  0  0
  -23.9091  -10.4258   21.0393 C   0  0  0  0  0  0
  -24.3629   -9.4176   21.9185 C   0  0  0  0  0  0
  -23.6291   -8.2219   22.0746 C   0  0  0  0  0  0
  -22.4277   -8.0259   21.3529 C   0  0  0  0  0  0
  -21.9928   -9.0229   20.4627 C   0  0  0  0  0  0
  -22.7265  -10.2103   20.3044 C   0  0  0  0  0  0
  -21.6844   -6.0726   22.5282 C   0  0  0  0  0  0
  -21.4001   -6.5620   23.8215 C   0  0  0  0  0  0
  -21.3670   -5.6774   24.9177 C   0  0  0  0  0  0
  -21.6051   -4.3038   24.7222 C   0  0  0  0  0  0
  -21.8807   -3.8133   23.4341 C   0  0  0  0  0  0
  -21.9182   -4.6956   22.3397 C   0  0  0  0  0  0
  -22.7795  -13.5180   21.1865 C   0  0  0  0  0  0
  -22.1645   -4.2148   21.0973 F   0  0  0  0  0  0
  -21.5652   -3.4522   25.7737 F   0  0  0  0  0  0
  -29.9712  -13.6325   20.3972 N   0  0  0  0  0  0
  -26.2914  -12.9409   20.3290 N   0  0  0  0  0  0
  -25.9345  -11.6532   20.5745 N   0  0  0  0  0  0
  -22.0435  -12.8171   22.0413 N   0  0  0  0  0  0
  -25.4115  -15.1893   20.4133 N   0  0  0  0  0  0
  -31.7330  -15.0114   20.1157 O   0  0  0  0  0  0
  -21.6621   -6.8875   21.4249 O   0  0  0  0  0  0
  -22.3479  -14.5481   20.6704 O   0  0  0  0  0  0
  -24.6370  -31.8507   23.1972 C   0  0  0  0  0  0
  -25.9160  -32.4741   23.8352 C   0  0  1  0  0  0
  -27.2120  -27.1633   20.1557 C   0  0  0  0  0  0
  -25.5946  -33.8553   24.2272 N   0  0  0  0  0  0
  -23.4407  -30.4723   21.5395 C   0  0  2  0  0  0
  -24.8918  -28.9097   20.1112 C   0  0  0  0  0  0
  -22.7541  -29.4582   22.4881 C   0  0  0  0  0  0
  -18.0292  -28.1414   22.8497 C   0  0  0  0  0  0
  -24.1475  -36.7230   23.2651 C   0  0  0  0  0  0
  -25.9964  -30.7281   21.3999 C   0  0  0  0  0  0
  -26.0659  -29.3437   20.7397 C   0  0  0  0  0  0
  -27.2225  -28.4815   20.7580 C   0  0  0  0  0  0
  -26.0184  -26.8394   19.4683 C   0  0  0  0  0  0
  -24.8786  -27.6672   19.4655 C   0  0  0  0  0  0
  -23.6682  -29.8092   20.1564 C   0  0  0  0  0  0
  -25.4117  -36.3060   24.0338 C   0  0  1  0  0  0
  -20.5904  -28.3735   23.1260 C   0  0  2  0  0  0
  -20.6790  -26.9448   22.5417 C   0  0  0  0  0  0
  -19.5752  -26.6401   21.5240 C   0  0  0  0  0  0
  -18.1922  -26.7968   22.1625 C   0  0  0  0  0  0
  -19.1541  -28.8894   23.2873 C   0  0  0  0  0  0
  -18.9463  -30.1500   23.8895 C   0  0  0  0  0  0
  -17.6453  -30.6622   24.0572 C   0  0  0  0  0  0
  -25.9064  -34.9430   23.5109 C   0  0  0  0  0  0
  -16.5349  -29.9109   23.6365 C   0  0  0  0  0  0
  -16.7271  -28.6524   23.0392 C   0  0  0  0  0  0
  -26.4511  -31.6592   25.0766 C   0  0  0  0  0  0
  -25.3725  -31.3713   26.1472 C   0  0  0  0  0  0
  -27.0388  -30.3009   24.6314 C   0  0  0  0  0  0
  -27.6055  -32.4364   25.7524 C   0  0  0  0  0  0
  -27.5573  -37.1778   24.8477 C   0  0  0  0  0  0
  -21.4227  -29.3070   22.3634 N   0  0  0  0  0  0
  -26.4283  -37.3767   23.9423 N   0  0  0  0  0  0
  -24.7103  -31.0383   22.0996 N   0  0  0  0  0  0
  -23.4201  -28.8120   23.3005 O   0  0  0  0  0  0
  -28.2552  -26.1748   20.2568 O   0  0  0  0  0  0
  -26.5626  -34.8904   22.4671 O   0  0  0  0  0  0
  -23.5498  -32.1375   23.7192 O   0  0  0  0  0  0
  -28.6552  -19.5409   19.3152 C   0  0  0  0  0  0
  -30.2622  -18.5487   21.3122 C   0  0  0  0  0  0
  -29.1564  -20.5674   20.1792 C   0  0  0  0  0  0
  -28.9019  -18.1195   19.4307 C   0  0  0  0  0  0
  -30.0068  -19.9884   21.1896 C   0  0  0  0  0  0
  -29.7201  -17.5275   20.4462 C   0  0  0  0  0  0
  -28.6799  -22.0723   19.9118 C   0  0  0  0  0  0
  -28.7286  -23.3684   20.4687 C   0  0  0  0  0  0
  -28.2084  -17.2163   18.4313 C   0  0  0  0  0  0
  -30.6659  -20.9261   22.1858 C   0  0  0  0  0  0
  -27.9674  -24.7004   19.9013 C   0  0  0  0  0  0
  -29.7173  -16.0170   20.6969 N   0  0  0  0  0  0
  -31.4777  -12.7040   19.1764 H   0  0  0  0  0  0
  -30.4156  -11.5867   19.9842 H   0  0  0  0  0  0
  -29.8270  -11.7821   17.5364 H   0  0  0  0  0  0
  -29.6102  -13.5034   17.7184 H   0  0  0  0  0  0
  -27.9315  -11.2893   18.9352 H   0  0  0  0  0  0
  -27.3858  -12.5030   17.8049 H   0  0  0  0  0  0
  -27.6126  -14.2561   19.4481 H   0  0  0  0  0  0
  -28.7575  -12.2238   21.4178 H   0  0  0  0  0  0
  -28.3937  -13.8915   21.7904 H   0  0  0  0  0  0
  -25.2772   -9.5637   22.4771 H   0  0  0  0  0  0
  -23.9994   -7.4599   22.7454 H   0  0  0  0  0  0
  -21.0873   -8.8730   19.8921 H   0  0  0  0  0  0
  -22.3728  -10.9633   19.6131 H   0  0  0  0  0  0
  -21.1968   -7.6119   23.9730 H   0  0  0  0  0  0
  -21.1520   -6.0492   25.9089 H   0  0  0  0  0  0
  -22.0579   -2.7601   23.2831 H   0  0  0  0  0  0
  -22.4043  -11.9856   22.4855 H   0  0  0  0  0  0
  -21.1038  -13.1168   22.2555 H   0  0  0  0  0  0
  -24.6364  -15.8371   20.5106 H   0  0  0  0  0  0
  -26.2542  -15.6338   20.0769 H   0  0  0  0  0  0
  -26.7210  -32.5369   23.1069 H   0  0  0  0  0  0
  -25.0183  -33.9717   25.0482 H   0  0  0  0  0  0
  -22.7409  -31.2973   21.3887 H   0  0  0  0  0  0
  -23.3792  -35.9503   23.3294 H   0  0  0  0  0  0
  -24.3576  -36.8875   22.2071 H   0  0  0  0  0  0
  -23.7150  -37.6386   23.6694 H   0  0  0  0  0  0
  -26.1583  -31.4864   20.6330 H   0  0  0  0  0  0
  -26.8647  -30.7732   22.0453 H   0  0  0  0  0  0
  -28.1049  -28.7978   21.2959 H   0  0  0  0  0  0
  -25.9186  -25.9025   18.9434 H   0  0  0  0  0  0
  -23.9819  -27.3306   18.9632 H   0  0  0  0  0  0
  -23.8051  -30.5892   19.4064 H   0  0  0  0  0  0
  -22.7845  -29.2509   19.8411 H   0  0  0  0  0  0
  -25.1296  -36.1908   25.0829 H   0  0  0  0  0  0
  -20.9988  -28.3329   24.1381 H   0  0  0  0  0  0
  -20.5741  -26.2340   23.3629 H   0  0  0  0  0  0
  -21.6654  -26.7508   22.1168 H   0  0  0  0  0  0
  -19.6924  -25.6304   21.1289 H   0  0  0  0  0  0
  -19.6706  -27.3212   20.6768 H   0  0  0  0  0  0
  -17.4212  -26.6768   21.3997 H   0  0  0  0  0  0
  -18.0275  -26.0098   22.8992 H   0  0  0  0  0  0
  -19.7933  -30.7337   24.2249 H   0  0  0  0  0  0
  -17.5005  -31.6306   24.5154 H   0  0  0  0  0  0
  -15.5356  -30.3007   23.7712 H   0  0  0  0  0  0
  -15.8658  -28.0845   22.7131 H   0  0  0  0  0  0
  -24.5911  -30.7062   25.7773 H   0  0  0  0  0  0
  -24.8906  -32.2856   26.4945 H   0  0  0  0  0  0
  -25.8042  -30.8846   27.0228 H   0  0  0  0  0  0
  -26.2996  -29.6736   24.1321 H   0  0  0  0  0  0
  -27.4020  -29.7304   25.4871 H   0  0  0  0  0  0
  -27.8900  -30.4292   23.9629 H   0  0  0  0  0  0
  -27.2689  -33.3738   26.1976 H   0  0  0  0  0  0
  -28.3915  -32.6810   25.0363 H   0  0  0  0  0  0
  -28.0653  -31.8561   26.5535 H   0  0  0  0  0  0
  -28.2572  -38.0091   24.7572 H   0  0  0  0  0  0
  -28.1082  -36.2627   24.6253 H   0  0  0  0  0  0
  -27.2296  -37.1365   25.8878 H   0  0  0  0  0  0
  -20.9424  -29.8773   21.6816 H   0  0  0  0  0  0
  -26.0155  -38.2830   24.1449 H   0  0  0  0  0  0
  -28.0042  -19.8601   18.5138 H   0  0  0  0  0  0
  -30.8712  -18.2188   22.1417 H   0  0  0  0  0  0
  -28.1066  -22.1004   18.9949 H   0  0  0  0  0  0
  -29.2592  -23.5111   21.3984 H   0  0  0  0  0  0
  -27.8256  -17.7870   17.5848 H   0  0  0  0  0  0
  -27.3676  -16.7119   18.9043 H   0  0  0  0  0  0
  -28.8977  -16.4681   18.0399 H   0  0  0  0  0  0
  -31.3475  -20.3945   22.8507 H   0  0  0  0  0  0
  -29.9168  -21.4237   22.8022 H   0  0  0  0  0  0
  -31.2389  -21.6931   21.6615 H   0  0  0  0  0  0
  -26.9387  -24.5010   20.2041 H   0  0  0  0  0  0
  -27.9737  -24.6326   18.8122 H   0  0  0  0  0  0
  -28.7960  -15.6829   20.9319 H   0  0  0  0  0  0
  1 25  1  0  0  0
  1 30  2  0  0  0
  1 82  1  0  0  0
  2  3  1  0  0  0
  2 25  1  0  0  0
  2 83  1  0  0  0
  2 84  1  0  0  0
  3  4  1  0  0  0
  3 85  1  0  0  0
  3 86  1  0  0  0
  4  5  1  0  0  0
  4 87  1  0  0  0
  4 88  1  0  0  0
  5  6  1  0  0  0
  5 26  1  0  0  0
  5 89  1  0  0  0
  6 25  1  0  0  0
  6 90  1  0  0  0
  6 91  1  0  0  0
  7  8  2  0  0  0
  7 26  1  0  0  0
  7 29  1  0  0  0
  8  9  1  0  0  0
  8 22  1  0  0  0
  9 10  1  0  0  0
  9 27  2  0  0  0
 10 11  2  0  0  0
 10 15  1  0  0  0
 11 12  1  0  0  0
 11 92  1  0  0  0
 12 13  2  0  0  0
 12 93  1  0  0  0
 13 14  1  0  0  0
 13 31  1  0  0  0
 14 15  2  0  0  0
 14 94  1  0  0  0
 15 95  1  0  0  0
 16 17  2  0  0  0
 16 21  1  0  0  0
 16 31  1  0  0  0
 17 18  1  0  0  0
 17 96  1  0  0  0
 18 19  2  0  0  0
 18 97  1  0  0  0
 19 20  1  0  0  0
 19 24  1  0  0  0
 20 21  2  0  0  0
 20 98  1  0  0  0
 21 23  1  0  0  0
 22 28  1  0  0  0
 22 32  2  0  0  0
 26 27  1  0  0  0
 28 99  1  0  0  0
 28100  1  0  0  0
 29101  1  0  0  0
 29102  1  0  0  0
 33 34  1  0  0  0
 33 66  1  0  0  0
 33 70  2  0  0  0
 34 36  1  0  0  0
 34 59  1  0  0  0
 34103  1  0  0  0
 35 44  2  0  0  0
 35 45  1  0  0  0
 35 68  1  0  0  0
 36 56  1  0  0  0
 36104  1  0  0  0
 37 39  1  0  0  0
 37 47  1  0  0  0
 37 66  1  0  0  0
 37105  1  0  0  0
 38 43  2  0  0  0
 38 46  1  0  0  0
 38 47  1  0  0  0
 39 64  1  0  0  0
 39 67  2  0  0  0
 40 52  1  0  0  0
 40 53  2  0  0  0
 40 58  1  0  0  0
 41106  1  0  0  0
 41107  1  0  0  0
 41108  1  0  0  0
 41 48  1  0  0  0
 42 43  1  0  0  0
 42 66  1  0  0  0
 42109  1  0  0  0
 42110  1  0  0  0
 43 44  1  0  0  0
 44111  1  0  0  0
 45 46  2  0  0  0
 45112  1  0  0  0
 46113  1  0  0  0
 47114  1  0  0  0
 47115  1  0  0  0
 48 56  1  0  0  0
 48 65  1  0  0  0
 48116  1  0  0  0
 49 50  1  0  0  0
 49 53  1  0  0  0
 49 64  1  0  0  0
 49117  1  0  0  0
 50 51  1  0  0  0
 50118  1  0  0  0
 50119  1  0  0  0
 51 52  1  0  0  0
 51120  1  0  0  0
 51121  1  0  0  0
 52122  1  0  0  0
 52123  1  0  0  0
 53 54  1  0  0  0
 54 55  2  0  0  0
 54124  1  0  0  0
 55 57  1  0  0  0
 55125  1  0  0  0
 56 69  2  0  0  0
 57 58  2  0  0  0
 57126  1  0  0  0
 58127  1  0  0  0
 59 60  1  0  0  0
 59 61  1  0  0  0
 59 62  1  0  0  0
 60128  1  0  0  0
 60129  1  0  0  0
 60130  1  0  0  0
 61131  1  0  0  0
 61132  1  0  0  0
 61133  1  0  0  0
 62134  1  0  0  0
 62135  1  0  0  0
 62136  1  0  0  0
 63 65  1  0  0  0
 63137  1  0  0  0
 63138  1  0  0  0
 63139  1  0  0  0
 64140  1  0  0  0
 65141  1  0  0  0
 68 81  1  0  0  0
 71 73  2  0  0  0
 71 74  1  0  0  0
 71142  1  0  0  0
 72 75  2  0  0  0
 72 76  1  0  0  0
 72143  1  0  0  0
 73 75  1  0  0  0
 73 77  1  0  0  0
 74 76  2  0  0  0
 74 79  1  0  0  0
 75 80  1  0  0  0
 76 82  1  0  0  0
 77 78  2  0  0  0
 77144  1  0  0  0
 78 81  1  0  0  0
 78145  1  0  0  0
 79146  1  0  0  0
 79147  1  0  0  0
 79148  1  0  0  0
 80149  1  0  0  0
 80150  1  0  0  0
 80151  1  0  0  0
 81152  1  0  0  0
 81153  1  0  0  0
 82154  1  0  0  0
M  ISO  4   1 100  68 101  81 101  82 100
M  END
> <chiral flag>
0

> <version>
0

> <s_m_source_file>
/data/baiqing/PycharmProjects/Reinvent-master-3.2/result/LINK_invent/BTK/process_docking_weight1_custom_product_contain_oxygen_bond_distance_aromatic_linkinvent_7_9_3/rearranged_h_0104.sdf

> <i_m_source_file_index>
41

> <r_mmod_Potential_Energy-OPLS-2005>
410.012451171875

> <r_mmod_Stretch_Energy-OPLS-2005>
203.524948120117

> <r_mmod_Bend_Energy-OPLS-2005>
249.278900146484

> <r_mmod_Torsional_Energy-OPLS-2005>
245.123641967773

> <r_mmod_Improper_Torsional_Energy-OPLS-2005>
6.82344436645508

> <r_mmod_Van_der_Waal_Energy-OPLS-2005>
133.788848876953

> <r_mmod_Electrostatic_Energy-OPLS-2005>
-385.307281494141

> <r_mmod_Solvation_Energy-OPLS-2005>
-210.113754272461

> <b_mmod_Minimization_Converged-OPLS-2005>
0

> <r_mmod_RMS_Derivative-OPLS-2005>
2.72032022476196

$$$$
42
                    3D
 Structure written by MMmdl.
160169  0  0  1  0            999 V2000
  -30.6167  -14.5795   20.4507 C   0  0  0  0  0  0
  -30.4341  -12.3407   19.4294 C   0  0  0  0  0  0
  -29.5010  -12.4807   18.2048 C   0  0  0  0  0  0
  -28.0247  -12.3335   18.6254 C   0  0  0  0  0  0
  -27.6588  -13.2064   19.8573 C   0  0  2  0  0  0
  -28.7057  -13.0284   20.9835 C   0  0  0  0  0  0
  -25.2616  -13.8191   20.5736 C   0  0  0  0  0  0
  -24.1846  -13.0432   20.9199 C   0  0  0  0  0  0
  -24.6416  -11.6922   20.8725 C   0  0  0  0  0  0
  -23.9061  -10.4297   21.0389 C   0  0  0  0  0  0
  -24.3600   -9.4211   21.9171 C   0  0  0  0  0  0
  -23.6276   -8.2252   22.0745 C   0  0  0  0  0  0
  -22.4248   -8.0289   21.3539 C   0  0  0  0  0  0
  -21.9883   -9.0271   20.4633 C   0  0  0  0  0  0
  -22.7232  -10.2153   20.3038 C   0  0  0  0  0  0
  -21.6852   -6.0735   22.5293 C   0  0  0  0  0  0
  -21.4025   -6.5631   23.8233 C   0  0  0  0  0  0
  -21.3648   -5.6775   24.9185 C   0  0  0  0  0  0
  -21.6041   -4.3039   24.7232 C   0  0  0  0  0  0
  -21.8821   -3.8140   23.4349 C   0  0  0  0  0  0
  -21.9207   -4.6967   22.3408 C   0  0  0  0  0  0
  -22.7867  -13.5240   21.1847 C   0  0  0  0  0  0
  -22.1668   -4.2140   21.0988 F   0  0  0  0  0  0
  -21.5604   -3.4522   25.7746 F   0  0  0  0  0  0
  -30.0235  -13.3531   20.4191 N   0  0  0  0  0  0
  -26.3029  -12.9349   20.3310 N   0  0  0  0  0  0
  -25.9332  -11.6502   20.5716 N   0  0  0  0  0  0
  -22.0490  -12.8241   22.0419 N   0  0  0  0  0  0
  -25.4327  -15.1909   20.4296 N   0  0  0  0  0  0
  -31.7665  -14.7638   20.0383 O   0  0  0  0  0  0
  -21.6626   -6.8877   21.4249 O   0  0  0  0  0  0
  -22.3573  -14.5554   20.6721 O   0  0  0  0  0  0
  -24.6120  -31.8669   23.2031 C   0  0  0  0  0  0
  -25.9038  -32.4796   23.8297 C   0  0  1  0  0  0
  -27.2289  -27.3952   20.1072 C   0  0  0  0  0  0
  -25.5899  -33.8575   24.2243 N   0  0  0  0  0  0
  -23.3973  -30.4930   21.5387 C   0  0  2  0  0  0
  -24.8516  -28.9555   20.1019 C   0  0  0  0  0  0
  -22.7325  -29.4611   22.4838 C   0  0  0  0  0  0
  -18.0254  -28.1316   22.8472 C   0  0  0  0  0  0
  -24.1513  -36.7338   23.2641 C   0  0  0  0  0  0
  -25.9288  -30.8252   21.3593 C   0  0  0  0  0  0
  -26.0069  -29.4519   20.7156 C   0  0  0  0  0  0
  -27.1905  -28.6708   20.7262 C   0  0  0  0  0  0
  -26.0542  -26.9264   19.4756 C   0  0  0  0  0  0
  -24.8725  -27.6925   19.4812 C   0  0  0  0  0  0
  -23.6144  -29.8299   20.1479 C   0  0  0  0  0  0
  -25.4122  -36.3075   24.0321 C   0  0  1  0  0  0
  -20.5876  -28.3480   23.1248 C   0  0  2  0  0  0
  -20.6688  -26.9246   22.5272 C   0  0  0  0  0  0
  -19.5611  -26.6296   21.5171 C   0  0  0  0  0  0
  -18.1807  -26.7878   22.1520 C   0  0  0  0  0  0
  -19.1539  -28.8680   23.2924 C   0  0  0  0  0  0
  -18.9522  -30.1295   23.8931 C   0  0  0  0  0  0
  -17.6553  -30.6543   24.0606 C   0  0  0  0  0  0
  -25.9039  -34.9443   23.5072 C   0  0  0  0  0  0
  -16.5404  -29.9085   23.6359 C   0  0  0  0  0  0
  -16.7284  -28.6531   23.0321 C   0  0  0  0  0  0
  -26.4485  -31.6551   25.0595 C   0  0  0  0  0  0
  -25.3755  -31.3693   26.1324 C   0  0  0  0  0  0
  -27.0339  -30.2991   24.5977 C   0  0  0  0  0  0
  -27.6013  -32.4269   25.7406 C   0  0  0  0  0  0
  -27.5553  -37.1806   24.8456 C   0  0  0  0  0  0
  -21.4061  -29.2971   22.3658 N   0  0  0  0  0  0
  -26.4286  -37.3764   23.9399 N   0  0  0  0  0  0
  -24.6641  -31.0744   22.0943 N   0  0  0  0  0  0
  -23.4171  -28.8156   23.2794 O   0  0  0  0  0  0
  -28.4008  -26.6538   20.1584 O   0  0  0  0  0  0
  -26.5595  -34.8928   22.4615 O   0  0  0  0  0  0
  -23.5339  -32.1445   23.7466 O   0  0  0  0  0  0
  -29.6906  -18.1050   20.9644 C   0  0  0  0  0  0
  -29.3858  -19.4563   18.9607 C   0  0  0  0  0  0
  -29.4780  -17.0151   18.7950 C   0  0  0  0  0  0
  -29.5453  -19.3957   20.3626 C   0  0  0  0  0  0
  -29.6978  -16.9076   20.1917 C   0  0  0  0  0  0
  -29.3286  -18.2794   18.1870 C   0  0  0  0  0  0
  -28.0515  -24.0524   21.7641 C   0  0  0  0  0  0
  -28.3112  -22.5823   22.1937 C   0  0  0  0  0  0
  -29.0027  -22.8286   19.9646 C   0  0  0  0  0  0
  -28.0932  -24.0574   20.2323 C   0  0  2  0  0  0
  -29.6556  -20.6958   21.2051 C   0  0  0  0  0  0
  -28.5378  -25.3705   19.4979 C   0  0  0  0  0  0
  -29.8170  -15.6139   20.8248 N   0  0  0  0  0  0
  -28.6454  -21.7897   20.9752 N   0  3  1  0  0  0
  -29.0804  -18.4010   16.4819 Cl  0  0  0  0  0  0
  -31.4795  -12.4534   19.1333 H   0  0  0  0  0  0
  -30.3496  -11.3426   19.8614 H   0  0  0  0  0  0
  -29.7453  -11.7242   17.4582 H   0  0  0  0  0  0
  -29.6522  -13.4457   17.7148 H   0  0  0  0  0  0
  -27.8586  -11.2829   18.8670 H   0  0  0  0  0  0
  -27.3633  -12.5609   17.7871 H   0  0  0  0  0  0
  -27.6854  -14.2452   19.5211 H   0  0  0  0  0  0
  -28.7090  -11.9987   21.3439 H   0  0  0  0  0  0
  -28.4702  -13.6466   21.8515 H   0  0  0  0  0  0
  -25.2745   -9.5702   22.4739 H   0  0  0  0  0  0
  -23.9985   -7.4645   22.7456 H   0  0  0  0  0  0
  -21.0814   -8.8807   19.8934 H   0  0  0  0  0  0
  -22.3694  -10.9689   19.6131 H   0  0  0  0  0  0
  -21.2023   -7.6136   23.9745 H   0  0  0  0  0  0
  -21.1447   -6.0487   25.9085 H   0  0  0  0  0  0
  -22.0607   -2.7600   23.2865 H   0  0  0  0  0  0
  -22.4070  -11.9883   22.4790 H   0  0  0  0  0  0
  -21.1111  -13.1304   22.2597 H   0  0  0  0  0  0
  -24.6773  -15.8450   20.5901 H   0  0  0  0  0  0
  -26.2964  -15.6437   20.1622 H   0  0  0  0  0  0
  -26.7080  -32.5555   23.1024 H   0  0  0  0  0  0
  -25.0025  -33.9722   25.0366 H   0  0  0  0  0  0
  -22.6889  -31.3140   21.3994 H   0  0  0  0  0  0
  -23.3737  -35.9705   23.3317 H   0  0  0  0  0  0
  -24.3628  -36.8944   22.2053 H   0  0  0  0  0  0
  -23.7327  -37.6563   23.6675 H   0  0  0  0  0  0
  -26.0201  -31.5899   20.5871 H   0  0  0  0  0  0
  -26.8291  -30.9052   21.9565 H   0  0  0  0  0  0
  -28.0769  -29.0377   21.2261 H   0  0  0  0  0  0
  -26.0395  -25.9682   18.9777 H   0  0  0  0  0  0
  -23.9854  -27.3059   19.0014 H   0  0  0  0  0  0
  -23.7216  -30.6160   19.3937 H   0  0  0  0  0  0
  -22.7346  -29.2545   19.8456 H   0  0  0  0  0  0
  -25.1308  -36.1870   25.0811 H   0  0  0  0  0  0
  -21.0077  -28.3011   24.1319 H   0  0  0  0  0  0
  -20.5610  -26.2016   23.3377 H   0  0  0  0  0  0
  -21.6490  -26.7212   22.0881 H   0  0  0  0  0  0
  -19.6719  -25.6231   21.1214 H   0  0  0  0  0  0
  -19.6578  -27.3089   20.6719 H   0  0  0  0  0  0
  -17.4097  -26.6677   21.3909 H   0  0  0  0  0  0
  -18.0159  -25.9999   22.8867 H   0  0  0  0  0  0
  -19.8080  -30.7015   24.2219 H   0  0  0  0  0  0
  -17.5140  -31.6252   24.5127 H   0  0  0  0  0  0
  -15.5391  -30.2942   23.7651 H   0  0  0  0  0  0
  -15.8649  -28.0899   22.7013 H   0  0  0  0  0  0
  -24.5883  -30.7090   25.7663 H   0  0  0  0  0  0
  -24.8996  -32.2883   26.4751 H   0  0  0  0  0  0
  -25.8089  -30.8824   27.0059 H   0  0  0  0  0  0
  -26.2887  -29.6666   24.1129 H   0  0  0  0  0  0
  -27.4247  -29.7285   25.4415 H   0  0  0  0  0  0
  -27.8647  -30.4320   23.9048 H   0  0  0  0  0  0
  -27.2574  -33.3532   26.2044 H   0  0  0  0  0  0
  -28.3837  -32.6889   25.0262 H   0  0  0  0  0  0
  -28.0673  -31.8318   26.5268 H   0  0  0  0  0  0
  -28.2554  -38.0116   24.7430 H   0  0  0  0  0  0
  -28.1048  -36.2602   24.6340 H   0  0  0  0  0  0
  -27.2259  -37.1542   25.8866 H   0  0  0  0  0  0
  -20.9120  -29.8766   21.7007 H   0  0  0  0  0  0
  -26.0145  -38.2822   24.1399 H   0  0  0  0  0  0
  -29.8402  -18.0271   22.0329 H   0  0  0  0  0  0
  -29.3191  -20.4041   18.4505 H   0  0  0  0  0  0
  -29.4088  -16.1388   18.1689 H   0  0  0  0  0  0
  -28.8211  -24.7009   22.1846 H   0  0  0  0  0  0
  -27.0908  -24.4190   22.1283 H   0  0  0  0  0  0
  -27.4561  -22.1484   22.7129 H   0  0  0  0  0  0
  -29.1487  -22.5701   22.8987 H   0  0  0  0  0  0
  -30.0397  -23.1259   20.1394 H   0  0  0  0  0  0
  -28.9413  -22.4864   18.9323 H   0  0  0  0  0  0
  -27.0883  -23.8213   19.8764 H   0  0  0  0  0  0
  -30.6632  -21.1043   21.1080 H   0  0  0  0  0  0
  -29.5824  -20.3812   22.2462 H   0  0  0  0  0  0
  -28.0766  -25.3994   18.5118 H   0  0  0  0  0  0
  -29.5997  -25.2784   19.2688 H   0  0  0  0  0  0
  -29.0144  -15.3386   21.3737 H   0  0  0  0  0  0
  -27.7865  -21.3436   20.6841 H   0  0  0  0  0  0
  1 25  1  0  0  0
  1 30  2  0  0  0
  1 83  1  0  0  0
  2  3  1  0  0  0
  2 25  1  0  0  0
  2 86  1  0  0  0
  2 87  1  0  0  0
  3  4  1  0  0  0
  3 88  1  0  0  0
  3 89  1  0  0  0
  4  5  1  0  0  0
  4 90  1  0  0  0
  4 91  1  0  0  0
  5  6  1  0  0  0
  5 26  1  0  0  0
  5 92  1  0  0  0
  6 25  1  0  0  0
  6 93  1  0  0  0
  6 94  1  0  0  0
  7  8  2  0  0  0
  7 26  1  0  0  0
  7 29  1  0  0  0
  8  9  1  0  0  0
  8 22  1  0  0  0
  9 10  1  0  0  0
  9 27  2  0  0  0
 10 11  2  0  0  0
 10 15  1  0  0  0
 11 12  1  0  0  0
 11 95  1  0  0  0
 12 13  2  0  0  0
 12 96  1  0  0  0
 13 14  1  0  0  0
 13 31  1  0  0  0
 14 15  2  0  0  0
 14 97  1  0  0  0
 15 98  1  0  0  0
 16 17  2  0  0  0
 16 21  1  0  0  0
 16 31  1  0  0  0
 17 18  1  0  0  0
 17 99  1  0  0  0
 18 19  2  0  0  0
 18100  1  0  0  0
 19 20  1  0  0  0
 19 24  1  0  0  0
 20 21  2  0  0  0
 20101  1  0  0  0
 21 23  1  0  0  0
 22 28  1  0  0  0
 22 32  2  0  0  0
 26 27  1  0  0  0
 28102  1  0  0  0
 28103  1  0  0  0
 29104  1  0  0  0
 29105  1  0  0  0
 33 34  1  0  0  0
 33 66  1  0  0  0
 33 70  2  0  0  0
 34 36  1  0  0  0
 34 59  1  0  0  0
 34106  1  0  0  0
 35 44  2  0  0  0
 35 45  1  0  0  0
 35 68  1  0  0  0
 36 56  1  0  0  0
 36107  1  0  0  0
 37 39  1  0  0  0
 37 47  1  0  0  0
 37 66  1  0  0  0
 37108  1  0  0  0
 38 43  2  0  0  0
 38 46  1  0  0  0
 38 47  1  0  0  0
 39 64  1  0  0  0
 39 67  2  0  0  0
 40 52  1  0  0  0
 40 53  2  0  0  0
 40 58  1  0  0  0
 41109  1  0  0  0
 41110  1  0  0  0
 41111  1  0  0  0
 41 48  1  0  0  0
 42 43  1  0  0  0
 42 66  1  0  0  0
 42112  1  0  0  0
 42113  1  0  0  0
 43 44  1  0  0  0
 44114  1  0  0  0
 45 46  2  0  0  0
 45115  1  0  0  0
 46116  1  0  0  0
 47117  1  0  0  0
 47118  1  0  0  0
 48 56  1  0  0  0
 48 65  1  0  0  0
 48119  1  0  0  0
 49 50  1  0  0  0
 49 53  1  0  0  0
 49 64  1  0  0  0
 49120  1  0  0  0
 50 51  1  0  0  0
 50121  1  0  0  0
 50122  1  0  0  0
 51 52  1  0  0  0
 51123  1  0  0  0
 51124  1  0  0  0
 52125  1  0  0  0
 52126  1  0  0  0
 53 54  1  0  0  0
 54 55  2  0  0  0
 54127  1  0  0  0
 55 57  1  0  0  0
 55128  1  0  0  0
 56 69  2  0  0  0
 57 58  2  0  0  0
 57129  1  0  0  0
 58130  1  0  0  0
 59 60  1  0  0  0
 59 61  1  0  0  0
 59 62  1  0  0  0
 60131  1  0  0  0
 60132  1  0  0  0
 60133  1  0  0  0
 61134  1  0  0  0
 61135  1  0  0  0
 61136  1  0  0  0
 62137  1  0  0  0
 62138  1  0  0  0
 62139  1  0  0  0
 63 65  1  0  0  0
 63140  1  0  0  0
 63141  1  0  0  0
 63142  1  0  0  0
 64143  1  0  0  0
 65144  1  0  0  0
 68 82  1  0  0  0
 71 74  2  0  0  0
 71 75  1  0  0  0
 71145  1  0  0  0
 72 74  1  0  0  0
 72 76  2  0  0  0
 72146  1  0  0  0
 73 75  2  0  0  0
 73 76  1  0  0  0
 73147  1  0  0  0
 74 81  1  0  0  0
 75 83  1  0  0  0
 76 85  1  0  0  0
 77 78  1  0  0  0
 77 80  1  0  0  0
 77148  1  0  0  0
 77149  1  0  0  0
 78 84  1  0  0  0
 78150  1  0  0  0
 78151  1  0  0  0
 79 80  1  0  0  0
 79 84  1  0  0  0
 79152  1  0  0  0
 79153  1  0  0  0
 80 82  1  0  0  0
 80154  1  0  0  0
 81155  1  0  0  0
 81156  1  0  0  0
 81 84  1  0  0  0
 82157  1  0  0  0
 82158  1  0  0  0
 83159  1  0  0  0
 84160  1  0  0  0
M  CHG  1  84   1
M  ISO  4   1 100  68 101  82 101  83 100
M  END
> <chiral flag>
0

> <version>
0

> <s_m_source_file>
/data/baiqing/PycharmProjects/Reinvent-master-3.2/result/LINK_invent/BTK/process_docking_weight1_custom_product_contain_oxygen_bond_distance_aromatic_linkinvent_7_9_3/rearranged_h_0104.sdf

> <i_m_source_file_index>
42

> <r_mmod_Potential_Energy-OPLS-2005>
-44.7196426391602

> <r_mmod_Stretch_Energy-OPLS-2005>
51.7851943969727

> <r_mmod_Bend_Energy-OPLS-2005>
147.888473510742

> <r_mmod_Torsional_Energy-OPLS-2005>
306.482482910156

> <r_mmod_Improper_Torsional_Energy-OPLS-2005>
5.25437021255493

> <r_mmod_Van_der_Waal_Energy-OPLS-2005>
137.151519775391

> <r_mmod_Electrostatic_Energy-OPLS-2005>
-252.913467407227

> <r_mmod_Solvation_Energy-OPLS-2005>
-469.865020751953

> <b_mmod_Minimization_Converged-OPLS-2005>
0

> <r_mmod_RMS_Derivative-OPLS-2005>
7.1794490814209

$$$$
43
                    3D
 Structure written by MMmdl.
164173  0  0  1  0            999 V2000
  -30.6595  -14.6527   20.5368 C   0  0  0  0  0  0
  -30.4300  -12.4209   19.4449 C   0  0  0  0  0  0
  -29.4985  -12.5154   18.2159 C   0  0  0  0  0  0
  -28.0212  -12.3470   18.6253 C   0  0  0  0  0  0
  -27.6478  -13.2083   19.8608 C   0  0  2  0  0  0
  -28.6978  -13.0316   20.9808 C   0  0  0  0  0  0
  -25.2503  -13.8140   20.5622 C   0  0  0  0  0  0
  -24.1793  -13.0411   20.9188 C   0  0  0  0  0  0
  -24.6369  -11.6890   20.8747 C   0  0  0  0  0  0
  -23.9038  -10.4276   21.0408 C   0  0  0  0  0  0
  -24.3600   -9.4197   21.9184 C   0  0  0  0  0  0
  -23.6283   -8.2227   22.0754 C   0  0  0  0  0  0
  -22.4269   -8.0266   21.3540 C   0  0  0  0  0  0
  -21.9886   -9.0233   20.4645 C   0  0  0  0  0  0
  -22.7211  -10.2113   20.3053 C   0  0  0  0  0  0
  -21.6848   -6.0724   22.5281 C   0  0  0  0  0  0
  -21.4016   -6.5631   23.8211 C   0  0  0  0  0  0
  -21.3655   -5.6785   24.9173 C   0  0  0  0  0  0
  -21.6047   -4.3047   24.7227 C   0  0  0  0  0  0
  -21.8818   -3.8135   23.4350 C   0  0  0  0  0  0
  -21.9190   -4.6951   22.3404 C   0  0  0  0  0  0
  -22.7818  -13.5211   21.1844 C   0  0  0  0  0  0
  -22.1663   -4.2136   21.0983 F   0  0  0  0  0  0
  -21.5626   -3.4534   25.7742 F   0  0  0  0  0  0
  -29.9916  -13.4487   20.4208 N   0  0  0  0  0  0
  -26.2944  -12.9317   20.3300 N   0  0  0  0  0  0
  -25.9295  -11.6479   20.5762 N   0  0  0  0  0  0
  -22.0465  -12.8215   22.0421 N   0  0  0  0  0  0
  -25.4119  -15.1858   20.3936 N   0  0  0  0  0  0
  -31.8318  -14.7099   20.1482 O   0  0  0  0  0  0
  -21.6634   -6.8866   21.4244 O   0  0  0  0  0  0
  -22.3493  -14.5498   20.6672 O   0  0  0  0  0  0
  -24.6235  -31.8614   23.2028 C   0  0  0  0  0  0
  -25.9089  -32.4790   23.8355 C   0  0  1  0  0  0
  -27.2271  -27.3350   20.1310 C   0  0  0  0  0  0
  -25.5914  -33.8593   24.2284 N   0  0  0  0  0  0
  -23.4169  -30.4831   21.5452 C   0  0  2  0  0  0
  -24.8646  -28.9347   20.1162 C   0  0  0  0  0  0
  -22.7459  -29.4631   22.4949 C   0  0  0  0  0  0
  -18.0280  -28.1382   22.8490 C   0  0  0  0  0  0
  -24.1488  -36.7300   23.2639 C   0  0  0  0  0  0
  -25.9547  -30.7978   21.3702 C   0  0  0  0  0  0
  -26.0311  -29.4242   20.7182 C   0  0  0  0  0  0
  -27.2173  -28.6367   20.7130 C   0  0  0  0  0  0
  -26.0429  -26.8900   19.5053 C   0  0  0  0  0  0
  -24.8713  -27.6725   19.4997 C   0  0  0  0  0  0
  -23.6318  -29.8138   20.1615 C   0  0  0  0  0  0
  -25.4111  -36.3093   24.0332 C   0  0  1  0  0  0
  -20.5877  -28.3688   23.1290 C   0  0  2  0  0  0
  -20.6774  -26.9414   22.5412 C   0  0  0  0  0  0
  -19.5751  -26.6382   21.5215 C   0  0  0  0  0  0
  -18.1928  -26.7925   22.1624 C   0  0  0  0  0  0
  -19.1532  -28.8851   23.2886 C   0  0  0  0  0  0
  -18.9460  -30.1453   23.8903 C   0  0  0  0  0  0
  -17.6464  -30.6591   24.0565 C   0  0  0  0  0  0
  -25.9044  -34.9464   23.5107 C   0  0  0  0  0  0
  -16.5354  -29.9091   23.6330 C   0  0  0  0  0  0
  -16.7269  -28.6504   23.0355 C   0  0  0  0  0  0
  -26.4480  -31.6601   25.0724 C   0  0  0  0  0  0
  -25.3721  -31.3739   26.1459 C   0  0  0  0  0  0
  -27.0319  -30.3032   24.6155 C   0  0  0  0  0  0
  -27.6039  -32.4342   25.7492 C   0  0  0  0  0  0
  -27.5582  -37.1801   24.8458 C   0  0  0  0  0  0
  -21.4176  -29.3045   22.3691 N   0  0  0  0  0  0
  -26.4289  -37.3790   23.9415 N   0  0  0  0  0  0
  -24.6839  -31.0635   22.0973 N   0  0  0  0  0  0
  -23.4188  -28.8177   23.3027 O   0  0  0  0  0  0
  -28.3599  -26.5179   20.1338 O   0  0  0  0  0  0
  -26.5615  -34.8930   22.4673 O   0  0  0  0  0  0
  -23.5404  -32.1403   23.7370 O   0  0  0  0  0  0
  -29.6063  -19.4812   19.4858 C   0  0  0  0  0  0
  -29.4184  -20.8844   19.6790 C   0  0  0  0  0  0
  -29.9773  -20.6003   21.9891 C   0  0  0  0  0  0
  -30.0476  -18.6054   20.5176 C   0  0  0  0  0  0
  -30.2134  -19.2067   21.7970 C   0  0  0  0  0  0
  -29.6540  -21.5091   20.9329 C   0  0  0  0  0  0
  -30.6122  -23.5497   21.9337 C   0  0  0  0  0  0
  -31.2133  -24.8104   21.3357 C   0  0  0  0  0  0
  -30.6514  -24.7828   19.9231 C   0  0  0  0  0  0
  -29.3154  -24.0544   20.1123 C   0  0  2  0  0  0
  -30.7160  -18.4095   22.9917 C   0  0  0  0  0  0
  -28.8447  -16.0155   21.6708 C   0  0  0  0  0  0
  -30.5189  -17.1392   20.1558 C   0  0  0  0  0  0
  -28.2275  -25.1219   20.6055 C   0  0  0  0  0  0
  -29.6849  -22.9835   21.1174 N   0  0  0  0  0  0
  -29.9714  -15.8503   20.7431 N   0  0  0  0  0  0
  -30.9665  -23.1652   23.0517 O   0  0  0  0  0  0
  -31.4669  -12.5471   19.1303 H   0  0  0  0  0  0
  -30.3846  -11.4237   19.8854 H   0  0  0  0  0  0
  -29.7685  -11.7612   17.4760 H   0  0  0  0  0  0
  -29.6329  -13.4808   17.7254 H   0  0  0  0  0  0
  -27.8562  -11.2925   18.8487 H   0  0  0  0  0  0
  -27.3670  -12.5825   17.7847 H   0  0  0  0  0  0
  -27.6690  -14.2426   19.5202 H   0  0  0  0  0  0
  -28.7370  -11.9829   21.2794 H   0  0  0  0  0  0
  -28.4327  -13.5481   21.8984 H   0  0  0  0  0  0
  -25.2743   -9.5670   22.4765 H   0  0  0  0  0  0
  -23.9983   -7.4609   22.7471 H   0  0  0  0  0  0
  -21.0806   -8.8742   19.8962 H   0  0  0  0  0  0
  -22.3658  -10.9645   19.6164 H   0  0  0  0  0  0
  -21.2024   -7.6142   23.9708 H   0  0  0  0  0  0
  -21.1478   -6.0524   25.9073 H   0  0  0  0  0  0
  -22.0605   -2.7599   23.2851 H   0  0  0  0  0  0
  -22.4092  -11.9895   22.4822 H   0  0  0  0  0  0
  -21.1084  -13.1242   22.2628 H   0  0  0  0  0  0
  -24.6420  -15.8370   20.5063 H   0  0  0  0  0  0
  -26.2563  -15.6259   20.0508 H   0  0  0  0  0  0
  -26.7156  -32.5471   23.1108 H   0  0  0  0  0  0
  -25.0079  -33.9742   25.0438 H   0  0  0  0  0  0
  -22.7106  -31.3035   21.4009 H   0  0  0  0  0  0
  -23.3758  -35.9623   23.3297 H   0  0  0  0  0  0
  -24.3579  -36.8924   22.2053 H   0  0  0  0  0  0
  -23.7231  -37.6499   23.6660 H   0  0  0  0  0  0
  -26.0791  -31.5587   20.5987 H   0  0  0  0  0  0
  -26.8378  -30.8514   21.9951 H   0  0  0  0  0  0
  -28.1167  -29.0119   21.1816 H   0  0  0  0  0  0
  -26.0165  -25.9287   19.0126 H   0  0  0  0  0  0
  -23.9784  -27.2942   19.0211 H   0  0  0  0  0  0
  -23.7513  -30.5894   19.4041 H   0  0  0  0  0  0
  -22.7523  -29.2420   19.8597 H   0  0  0  0  0  0
  -25.1288  -36.1948   25.0824 H   0  0  0  0  0  0
  -20.9965  -28.3260   24.1412 H   0  0  0  0  0  0
  -20.5681  -26.2297   23.3610 H   0  0  0  0  0  0
  -21.6644  -26.7452   22.1203 H   0  0  0  0  0  0
  -19.6919  -25.6290   21.1249 H   0  0  0  0  0  0
  -19.6691  -27.3190   20.6743 H   0  0  0  0  0  0
  -17.4200  -26.6675   21.4025 H   0  0  0  0  0  0
  -18.0332  -26.0062   22.9016 H   0  0  0  0  0  0
  -19.7936  -30.7264   24.2277 H   0  0  0  0  0  0
  -17.5021  -31.6272   24.5163 H   0  0  0  0  0  0
  -15.5354  -30.3002   23.7647 H   0  0  0  0  0  0
  -15.8665  -28.0826   22.7072 H   0  0  0  0  0  0
  -24.5879  -30.7106   25.7792 H   0  0  0  0  0  0
  -24.8931  -32.2909   26.4904 H   0  0  0  0  0  0
  -25.8046  -30.8903   27.0224 H   0  0  0  0  0  0
  -26.2884  -29.6800   24.1173 H   0  0  0  0  0  0
  -27.4024  -29.7270   25.4643 H   0  0  0  0  0  0
  -27.8747  -30.4335   23.9364 H   0  0  0  0  0  0
  -27.2639  -33.3635   26.2076 H   0  0  0  0  0  0
  -28.3839  -32.6922   25.0317 H   0  0  0  0  0  0
  -28.0719  -31.8473   26.5404 H   0  0  0  0  0  0
  -28.2584  -38.0116   24.7539 H   0  0  0  0  0  0
  -28.1094  -36.2651   24.6237 H   0  0  0  0  0  0
  -27.2308  -37.1393   25.8862 H   0  0  0  0  0  0
  -20.9352  -29.8769   21.6905 H   0  0  0  0  0  0
  -26.0172  -38.2860   24.1442 H   0  0  0  0  0  0
  -29.4787  -19.0858   18.4874 H   0  0  0  0  0  0
  -29.1542  -21.4802   18.8169 H   0  0  0  0  0  0
  -30.1262  -20.9712   22.9916 H   0  0  0  0  0  0
  -32.3032  -24.7867   21.3518 H   0  0  0  0  0  0
  -30.8687  -25.6821   21.8933 H   0  0  0  0  0  0
  -31.3063  -24.1978   19.2754 H   0  0  0  0  0  0
  -30.5667  -25.7739   19.4781 H   0  0  0  0  0  0
  -28.9968  -23.6355   19.1592 H   0  0  0  0  0  0
  -31.4042  -19.0069   23.5913 H   0  0  0  0  0  0
  -31.2498  -17.5055   22.7022 H   0  0  0  0  0  0
  -29.8827  -18.1217   23.6323 H   0  0  0  0  0  0
  -29.0595  -15.5525   22.6341 H   0  0  0  0  0  0
  -27.9300  -15.5946   21.2683 H   0  0  0  0  0  0
  -28.5913  -17.0506   21.8766 H   0  0  0  0  0  0
  -31.5941  -17.1601   20.3409 H   0  0  0  0  0  0
  -30.4359  -17.0304   19.0732 H   0  0  0  0  0  0
  -28.2575  -25.1837   21.6940 H   0  0  0  0  0  0
  -27.2427  -24.7131   20.3848 H   0  0  0  0  0  0
  1 25  1  0  0  0
  1 30  2  0  0  0
  1 86  1  0  0  0
  2  3  1  0  0  0
  2 25  1  0  0  0
  2 88  1  0  0  0
  2 89  1  0  0  0
  3  4  1  0  0  0
  3 90  1  0  0  0
  3 91  1  0  0  0
  4  5  1  0  0  0
  4 92  1  0  0  0
  4 93  1  0  0  0
  5  6  1  0  0  0
  5 26  1  0  0  0
  5 94  1  0  0  0
  6 25  1  0  0  0
  6 95  1  0  0  0
  6 96  1  0  0  0
  7  8  2  0  0  0
  7 26  1  0  0  0
  7 29  1  0  0  0
  8  9  1  0  0  0
  8 22  1  0  0  0
  9 10  1  0  0  0
  9 27  2  0  0  0
 10 11  2  0  0  0
 10 15  1  0  0  0
 11 12  1  0  0  0
 11 97  1  0  0  0
 12 13  2  0  0  0
 12 98  1  0  0  0
 13 14  1  0  0  0
 13 31  1  0  0  0
 14 15  2  0  0  0
 14 99  1  0  0  0
 15100  1  0  0  0
 16 17  2  0  0  0
 16 21  1  0  0  0
 16 31  1  0  0  0
 17 18  1  0  0  0
 17101  1  0  0  0
 18 19  2  0  0  0
 18102  1  0  0  0
 19 20  1  0  0  0
 19 24  1  0  0  0
 20 21  2  0  0  0
 20103  1  0  0  0
 21 23  1  0  0  0
 22 28  1  0  0  0
 22 32  2  0  0  0
 26 27  1  0  0  0
 28104  1  0  0  0
 28105  1  0  0  0
 29106  1  0  0  0
 29107  1  0  0  0
 33 34  1  0  0  0
 33 66  1  0  0  0
 33 70  2  0  0  0
 34 36  1  0  0  0
 34 59  1  0  0  0
 34108  1  0  0  0
 35 44  2  0  0  0
 35 45  1  0  0  0
 35 68  1  0  0  0
 36 56  1  0  0  0
 36109  1  0  0  0
 37 39  1  0  0  0
 37 47  1  0  0  0
 37 66  1  0  0  0
 37110  1  0  0  0
 38 43  2  0  0  0
 38 46  1  0  0  0
 38 47  1  0  0  0
 39 64  1  0  0  0
 39 67  2  0  0  0
 40 52  1  0  0  0
 40 53  2  0  0  0
 40 58  1  0  0  0
 41111  1  0  0  0
 41112  1  0  0  0
 41113  1  0  0  0
 41 48  1  0  0  0
 42 43  1  0  0  0
 42 66  1  0  0  0
 42114  1  0  0  0
 42115  1  0  0  0
 43 44  1  0  0  0
 44116  1  0  0  0
 45 46  2  0  0  0
 45117  1  0  0  0
 46118  1  0  0  0
 47119  1  0  0  0
 47120  1  0  0  0
 48 56  1  0  0  0
 48 65  1  0  0  0
 48121  1  0  0  0
 49 50  1  0  0  0
 49 53  1  0  0  0
 49 64  1  0  0  0
 49122  1  0  0  0
 50 51  1  0  0  0
 50123  1  0  0  0
 50124  1  0  0  0
 51 52  1  0  0  0
 51125  1  0  0  0
 51126  1  0  0  0
 52127  1  0  0  0
 52128  1  0  0  0
 53 54  1  0  0  0
 54 55  2  0  0  0
 54129  1  0  0  0
 55 57  1  0  0  0
 55130  1  0  0  0
 56 69  2  0  0  0
 57 58  2  0  0  0
 57131  1  0  0  0
 58132  1  0  0  0
 59 60  1  0  0  0
 59 61  1  0  0  0
 59 62  1  0  0  0
 60133  1  0  0  0
 60134  1  0  0  0
 60135  1  0  0  0
 61136  1  0  0  0
 61137  1  0  0  0
 61138  1  0  0  0
 62139  1  0  0  0
 62140  1  0  0  0
 62141  1  0  0  0
 63 65  1  0  0  0
 63142  1  0  0  0
 63143  1  0  0  0
 63144  1  0  0  0
 64145  1  0  0  0
 65146  1  0  0  0
 68 84  1  0  0  0
 71 72  2  0  0  0
 71 74  1  0  0  0
 71147  1  0  0  0
 72 76  1  0  0  0
 72148  1  0  0  0
 73 75  1  0  0  0
 73 76  2  0  0  0
 73149  1  0  0  0
 74 75  2  0  0  0
 74 83  1  0  0  0
 75 81  1  0  0  0
 76 85  1  0  0  0
 77 78  1  0  0  0
 77 85  1  0  0  0
 77 87  2  0  0  0
 78 79  1  0  0  0
 78150  1  0  0  0
 78151  1  0  0  0
 79 80  1  0  0  0
 79152  1  0  0  0
 79153  1  0  0  0
 80 84  1  0  0  0
 80 85  1  0  0  0
 80154  1  0  0  0
 81155  1  0  0  0
 81156  1  0  0  0
 81157  1  0  0  0
 82 86  1  0  0  0
 82158  1  0  0  0
 82159  1  0  0  0
 82160  1  0  0  0
 83 86  1  0  0  0
 83161  1  0  0  0
 83162  1  0  0  0
 84163  1  0  0  0
 84164  1  0  0  0
M  ISO  4   1 100  68 101  84 101  86 100
M  END
> <chiral flag>
0

> <version>
0

> <s_m_source_file>
/data/baiqing/PycharmProjects/Reinvent-master-3.2/result/LINK_invent/BTK/process_docking_weight1_custom_product_contain_oxygen_bond_distance_aromatic_linkinvent_7_9_3/rearranged_h_0104.sdf

> <i_m_source_file_index>
43

> <r_mmod_Potential_Energy-OPLS-2005>
344.851684570312

> <r_mmod_Stretch_Energy-OPLS-2005>
97.8692779541016

> <r_mmod_Bend_Energy-OPLS-2005>
203.360809326172

> <r_mmod_Torsional_Energy-OPLS-2005>
344.363830566406

> <r_mmod_Improper_Torsional_Energy-OPLS-2005>
12.3213205337524

> <r_mmod_Van_der_Waal_Energy-OPLS-2005>
168.897033691406

> <r_mmod_Electrostatic_Energy-OPLS-2005>
-320.293792724609

> <r_mmod_Solvation_Energy-OPLS-2005>
-204.925750732422

> <b_mmod_Minimization_Converged-OPLS-2005>
0

> <r_mmod_RMS_Derivative-OPLS-2005>
1.26122212409973

$$$$
44
                    3D
 Structure written by MMmdl.
160168  0  0  1  0            999 V2000
  -30.7620  -14.4394   20.6604 C   0  0  0  0  0  0
  -30.4107  -12.3293   19.4101 C   0  0  0  0  0  0
  -29.4813  -12.5501   18.2025 C   0  0  0  0  0  0
  -28.0120  -12.3794   18.6176 C   0  0  0  0  0  0
  -27.6625  -13.2030   19.8822 C   0  0  2  0  0  0
  -28.7060  -12.9898   21.0050 C   0  0  0  0  0  0
  -25.2594  -13.8125   20.5678 C   0  0  0  0  0  0
  -24.1849  -13.0406   20.9164 C   0  0  0  0  0  0
  -24.6397  -11.6865   20.8746 C   0  0  0  0  0  0
  -23.9067  -10.4264   21.0418 C   0  0  0  0  0  0
  -24.3592   -9.4161   21.9200 C   0  0  0  0  0  0
  -23.6262   -8.2209   22.0765 C   0  0  0  0  0  0
  -22.4259   -8.0270   21.3533 C   0  0  0  0  0  0
  -21.9910   -9.0253   20.4643 C   0  0  0  0  0  0
  -22.7243  -10.2127   20.3062 C   0  0  0  0  0  0
  -21.6822   -6.0732   22.5269 C   0  0  0  0  0  0
  -21.4000   -6.5651   23.8203 C   0  0  0  0  0  0
  -21.3671   -5.6815   24.9179 C   0  0  0  0  0  0
  -21.6048   -4.3074   24.7237 C   0  0  0  0  0  0
  -21.8817   -3.8157   23.4363 C   0  0  0  0  0  0
  -21.9173   -4.6964   22.3407 C   0  0  0  0  0  0
  -22.7873  -13.5192   21.1847 C   0  0  0  0  0  0
  -22.1643   -4.2134   21.0989 F   0  0  0  0  0  0
  -21.5643   -3.4571   25.7759 F   0  0  0  0  0  0
  -30.0388  -13.2968   20.4603 N   0  0  0  0  0  0
  -26.3036  -12.9290   20.3401 N   0  0  0  0  0  0
  -25.9318  -11.6452   20.5781 N   0  0  0  0  0  0
  -22.0517  -12.8161   22.0387 N   0  0  0  0  0  0
  -25.4319  -15.1845   20.4012 N   0  0  0  0  0  0
  -31.8203  -14.6508   20.0590 O   0  0  0  0  0  0
  -21.6606   -6.8874   21.4232 O   0  0  0  0  0  0
  -22.3571  -14.5518   20.6724 O   0  0  0  0  0  0
  -24.6118  -31.8707   23.2125 C   0  0  0  0  0  0
  -25.9034  -32.4840   23.8422 C   0  0  1  0  0  0
  -27.2551  -27.4598   20.0759 C   0  0  0  0  0  0
  -25.5909  -33.8645   24.2334 N   0  0  0  0  0  0
  -23.4022  -30.4946   21.5496 C   0  0  2  0  0  0
  -24.8542  -28.9646   20.1148 C   0  0  0  0  0  0
  -22.7387  -29.4693   22.4959 C   0  0  0  0  0  0
  -18.0285  -28.1427   22.8504 C   0  0  0  0  0  0
  -24.1485  -36.7314   23.2654 C   0  0  0  0  0  0
  -25.9326  -30.8332   21.3750 C   0  0  0  0  0  0
  -26.0097  -29.4717   20.7195 C   0  0  0  0  0  0
  -27.2061  -28.7212   20.7080 C   0  0  0  0  0  0
  -26.0775  -26.9667   19.4637 C   0  0  0  0  0  0
  -24.8827  -27.7070   19.4898 C   0  0  0  0  0  0
  -23.6134  -29.8262   20.1650 C   0  0  0  0  0  0
  -25.4135  -36.3132   24.0317 C   0  0  1  0  0  0
  -20.5860  -28.3715   23.1341 C   0  0  2  0  0  0
  -20.6759  -26.9430   22.5509 C   0  0  0  0  0  0
  -19.5792  -26.6405   21.5250 C   0  0  0  0  0  0
  -18.1916  -26.8017   22.1538 C   0  0  0  0  0  0
  -19.1528  -28.8875   23.2942 C   0  0  0  0  0  0
  -18.9450  -30.1474   23.8974 C   0  0  0  0  0  0
  -17.6455  -30.6631   24.0608 C   0  0  0  0  0  0
  -25.9063  -34.9493   23.5127 C   0  0  0  0  0  0
  -16.5354  -29.9149   23.6333 C   0  0  0  0  0  0
  -16.7273  -28.6551   23.0385 C   0  0  0  0  0  0
  -26.4434  -31.6637   25.0764 C   0  0  0  0  0  0
  -25.3627  -31.3799   26.1440 C   0  0  0  0  0  0
  -27.0270  -30.3066   24.6227 C   0  0  0  0  0  0
  -27.6015  -32.4345   25.7530 C   0  0  0  0  0  0
  -27.5587  -37.1858   24.8450 C   0  0  0  0  0  0
  -21.4117  -29.3060   22.3682 N   0  0  0  0  0  0
  -26.4335  -37.3799   23.9344 N   0  0  0  0  0  0
  -24.6664  -31.0805   22.1035 N   0  0  0  0  0  0
  -23.4144  -28.8231   23.3007 O   0  0  0  0  0  0
  -28.4560  -26.7753   20.0853 O   0  0  0  0  0  0
  -26.5607  -34.8926   22.4679 O   0  0  0  0  0  0
  -23.5315  -32.1449   23.7519 O   0  0  0  0  0  0
  -30.6552  -17.8919   20.1365 C   0  0  0  0  0  0
  -29.6980  -17.6488   21.0890 C   0  0  0  0  0  0
  -29.1192  -18.8804   21.5778 C   0  0  0  0  0  0
  -29.6303  -20.0194   20.9824 C   0  0  0  0  0  0
  -29.6064  -22.4715   20.7013 C   0  0  0  0  0  0
  -28.0617  -18.9471   22.6476 C   0  0  0  0  0  0
  -31.3973  -15.6832   22.6445 C   0  0  0  0  0  0
  -29.2898  -16.2466   21.5325 C   0  0  0  0  0  0
  -28.8428  -23.7143   21.1831 C   0  0  0  0  0  0
  -27.9674  -24.3534   20.0811 C   0  0  0  0  0  0
  -28.5930  -25.5587   19.3447 C   0  0  0  0  0  0
  -29.2362  -21.2977   21.2553 N   0  0  0  0  0  0
  -30.3831  -15.2617   21.6709 N   0  0  0  0  0  0
  -30.4963  -22.6025   19.8580 O   0  0  0  0  0  0
  -30.8518  -19.5832   19.8057 S   0  0  0  0  0  0
  -31.4531  -12.4249   19.1039 H   0  0  0  0  0  0
  -30.3095  -11.3095   19.7872 H   0  0  0  0  0  0
  -29.7266  -11.8592   17.3954 H   0  0  0  0  0  0
  -29.6316  -13.5538   17.8034 H   0  0  0  0  0  0
  -27.8328  -11.3204   18.7973 H   0  0  0  0  0  0
  -27.3558  -12.6660   17.7961 H   0  0  0  0  0  0
  -27.7037  -14.2472   19.5810 H   0  0  0  0  0  0
  -28.6852  -11.9516   21.3467 H   0  0  0  0  0  0
  -28.4587  -13.5864   21.8826 H   0  0  0  0  0  0
  -25.2725   -9.5624   22.4789 H   0  0  0  0  0  0
  -23.9954   -7.4598   22.7490 H   0  0  0  0  0  0
  -21.0848   -8.8782   19.8936 H   0  0  0  0  0  0
  -22.3710  -10.9677   19.6183 H   0  0  0  0  0  0
  -21.1992   -7.6160   23.9698 H   0  0  0  0  0  0
  -21.1515   -6.0563   25.9078 H   0  0  0  0  0  0
  -22.0593   -2.7611   23.2883 H   0  0  0  0  0  0
  -22.4145  -11.9769   22.4661 H   0  0  0  0  0  0
  -21.1134  -13.1167   22.2623 H   0  0  0  0  0  0
  -24.6584  -15.8353   20.4798 H   0  0  0  0  0  0
  -26.2732  -15.6127   20.0374 H   0  0  0  0  0  0
  -26.7116  -32.5559   23.1202 H   0  0  0  0  0  0
  -25.0051  -33.9816   25.0469 H   0  0  0  0  0  0
  -22.6928  -31.3133   21.4041 H   0  0  0  0  0  0
  -23.3790  -35.9600   23.3292 H   0  0  0  0  0  0
  -24.3548  -36.8991   22.2071 H   0  0  0  0  0  0
  -23.7196  -37.6478   23.6727 H   0  0  0  0  0  0
  -26.0524  -31.6010   20.6098 H   0  0  0  0  0  0
  -26.8177  -30.8783   22.0005 H   0  0  0  0  0  0
  -28.0985  -29.1119   21.1777 H   0  0  0  0  0  0
  -26.0567  -26.0152   18.9552 H   0  0  0  0  0  0
  -23.9964  -27.3094   19.0144 H   0  0  0  0  0  0
  -23.7193  -30.6018   19.4053 H   0  0  0  0  0  0
  -22.7410  -29.2414   19.8685 H   0  0  0  0  0  0
  -25.1329  -36.2030   25.0824 H   0  0  0  0  0  0
  -20.9989  -28.3358   24.1455 H   0  0  0  0  0  0
  -20.5632  -26.2337   23.3712 H   0  0  0  0  0  0
  -21.6647  -26.7426   22.1365 H   0  0  0  0  0  0
  -19.6956  -25.6307   21.1318 H   0  0  0  0  0  0
  -19.6845  -27.3196   20.6787 H   0  0  0  0  0  0
  -17.4274  -26.6970   21.3821 H   0  0  0  0  0  0
  -18.0131  -26.0088   22.8819 H   0  0  0  0  0  0
  -19.7911  -30.7262   24.2408 H   0  0  0  0  0  0
  -17.5016  -31.6315   24.5214 H   0  0  0  0  0  0
  -15.5371  -30.3089   23.7600 H   0  0  0  0  0  0
  -15.8677  -28.0894   22.7081 H   0  0  0  0  0  0
  -24.6068  -30.6802   25.7845 H   0  0  0  0  0  0
  -24.8465  -32.2926   26.4447 H   0  0  0  0  0  0
  -25.7949  -30.9419   27.0442 H   0  0  0  0  0  0
  -26.2891  -29.6877   24.1116 H   0  0  0  0  0  0
  -27.3790  -29.7271   25.4775 H   0  0  0  0  0  0
  -27.8826  -30.4332   23.9582 H   0  0  0  0  0  0
  -27.2692  -33.3680   26.2078 H   0  0  0  0  0  0
  -28.3860  -32.6833   25.0369 H   0  0  0  0  0  0
  -28.0643  -31.8463   26.5459 H   0  0  0  0  0  0
  -28.2713  -38.0032   24.7321 H   0  0  0  0  0  0
  -28.0968  -36.2571   24.6510 H   0  0  0  0  0  0
  -27.2284  -37.1816   25.8847 H   0  0  0  0  0  0
  -20.9264  -29.8756   21.6884 H   0  0  0  0  0  0
  -26.0241  -38.2899   24.1268 H   0  0  0  0  0  0
  -31.2676  -17.1849   19.5905 H   0  0  0  0  0  0
  -28.5128  -19.1393   23.6211 H   0  0  0  0  0  0
  -27.4830  -18.0293   22.7252 H   0  0  0  0  0  0
  -27.3395  -19.7424   22.4616 H   0  0  0  0  0  0
  -30.9671  -16.2829   23.4480 H   0  0  0  0  0  0
  -32.1737  -16.2833   22.1672 H   0  0  0  0  0  0
  -31.8723  -14.8150   23.1025 H   0  0  0  0  0  0
  -28.5303  -15.8703   20.8515 H   0  0  0  0  0  0
  -28.7969  -16.2762   22.5036 H   0  0  0  0  0  0
  -29.5411  -24.4445   21.5946 H   0  0  0  0  0  0
  -28.1959  -23.4285   22.0147 H   0  0  0  0  0  0
  -27.0133  -24.6417   20.5206 H   0  0  0  0  0  0
  -27.7158  -23.5932   19.3387 H   0  0  0  0  0  0
  -28.1684  -25.6802   18.3469 H   0  0  0  0  0  0
  -29.6571  -25.3835   19.1777 H   0  0  0  0  0  0
  -28.5131  -21.3825   21.9563 H   0  0  0  0  0  0
  1 25  1  0  0  0
  1 30  2  0  0  0
  1 83  1  0  0  0
  2  3  1  0  0  0
  2 25  1  0  0  0
  2 86  1  0  0  0
  2 87  1  0  0  0
  3  4  1  0  0  0
  3 88  1  0  0  0
  3 89  1  0  0  0
  4  5  1  0  0  0
  4 90  1  0  0  0
  4 91  1  0  0  0
  5  6  1  0  0  0
  5 26  1  0  0  0
  5 92  1  0  0  0
  6 25  1  0  0  0
  6 93  1  0  0  0
  6 94  1  0  0  0
  7  8  2  0  0  0
  7 26  1  0  0  0
  7 29  1  0  0  0
  8  9  1  0  0  0
  8 22  1  0  0  0
  9 10  1  0  0  0
  9 27  2  0  0  0
 10 11  2  0  0  0
 10 15  1  0  0  0
 11 12  1  0  0  0
 11 95  1  0  0  0
 12 13  2  0  0  0
 12 96  1  0  0  0
 13 14  1  0  0  0
 13 31  1  0  0  0
 14 15  2  0  0  0
 14 97  1  0  0  0
 15 98  1  0  0  0
 16 17  2  0  0  0
 16 21  1  0  0  0
 16 31  1  0  0  0
 17 18  1  0  0  0
 17 99  1  0  0  0
 18 19  2  0  0  0
 18100  1  0  0  0
 19 20  1  0  0  0
 19 24  1  0  0  0
 20 21  2  0  0  0
 20101  1  0  0  0
 21 23  1  0  0  0
 22 28  1  0  0  0
 22 32  2  0  0  0
 26 27  1  0  0  0
 28102  1  0  0  0
 28103  1  0  0  0
 29104  1  0  0  0
 29105  1  0  0  0
 33 34  1  0  0  0
 33 66  1  0  0  0
 33 70  2  0  0  0
 34 36  1  0  0  0
 34 59  1  0  0  0
 34106  1  0  0  0
 35 44  2  0  0  0
 35 45  1  0  0  0
 35 68  1  0  0  0
 36 56  1  0  0  0
 36107  1  0  0  0
 37 39  1  0  0  0
 37 47  1  0  0  0
 37 66  1  0  0  0
 37108  1  0  0  0
 38 43  2  0  0  0
 38 46  1  0  0  0
 38 47  1  0  0  0
 39 64  1  0  0  0
 39 67  2  0  0  0
 40 52  1  0  0  0
 40 53  2  0  0  0
 40 58  1  0  0  0
 41109  1  0  0  0
 41110  1  0  0  0
 41111  1  0  0  0
 41 48  1  0  0  0
 42 43  1  0  0  0
 42 66  1  0  0  0
 42112  1  0  0  0
 42113  1  0  0  0
 43 44  1  0  0  0
 44114  1  0  0  0
 45 46  2  0  0  0
 45115  1  0  0  0
 46116  1  0  0  0
 47117  1  0  0  0
 47118  1  0  0  0
 48 56  1  0  0  0
 48 65  1  0  0  0
 48119  1  0  0  0
 49 50  1  0  0  0
 49 53  1  0  0  0
 49 64  1  0  0  0
 49120  1  0  0  0
 50 51  1  0  0  0
 50121  1  0  0  0
 50122  1  0  0  0
 51 52  1  0  0  0
 51123  1  0  0  0
 51124  1  0  0  0
 52125  1  0  0  0
 52126  1  0  0  0
 53 54  1  0  0  0
 54 55  2  0  0  0
 54127  1  0  0  0
 55 57  1  0  0  0
 55128  1  0  0  0
 56 69  2  0  0  0
 57 58  2  0  0  0
 57129  1  0  0  0
 58130  1  0  0  0
 59 60  1  0  0  0
 59 61  1  0  0  0
 59 62  1  0  0  0
 60131  1  0  0  0
 60132  1  0  0  0
 60133  1  0  0  0
 61134  1  0  0  0
 61135  1  0  0  0
 61136  1  0  0  0
 62137  1  0  0  0
 62138  1  0  0  0
 62139  1  0  0  0
 63 65  1  0  0  0
 63140  1  0  0  0
 63141  1  0  0  0
 63142  1  0  0  0
 64143  1  0  0  0
 65144  1  0  0  0
 68 81  1  0  0  0
 71 72  2  0  0  0
 71 85  1  0  0  0
 71145  1  0  0  0
 72 73  1  0  0  0
 72 78  1  0  0  0
 73 74  2  0  0  0
 73 76  1  0  0  0
 74 82  1  0  0  0
 74 85  1  0  0  0
 75 79  1  0  0  0
 75 82  1  0  0  0
 75 84  2  0  0  0
 76146  1  0  0  0
 76147  1  0  0  0
 76148  1  0  0  0
 77 83  1  0  0  0
 77149  1  0  0  0
 77150  1  0  0  0
 77151  1  0  0  0
 78 83  1  0  0  0
 78152  1  0  0  0
 78153  1  0  0  0
 79 80  1  0  0  0
 79154  1  0  0  0
 79155  1  0  0  0
 80 81  1  0  0  0
 80156  1  0  0  0
 80157  1  0  0  0
 81158  1  0  0  0
 81159  1  0  0  0
 82160  1  0  0  0
M  ISO  4   1 100  68 101  81 101  83 100
M  END
> <chiral flag>
0

> <version>
0

> <s_m_source_file>
/data/baiqing/PycharmProjects/Reinvent-master-3.2/result/LINK_invent/BTK/process_docking_weight1_custom_product_contain_oxygen_bond_distance_aromatic_linkinvent_7_9_3/rearranged_h_0104.sdf

> <i_m_source_file_index>
44

> <r_mmod_Potential_Energy-OPLS-2005>
-73.5879516601562

> <r_mmod_Stretch_Energy-OPLS-2005>
38.0867080688477

> <r_mmod_Bend_Energy-OPLS-2005>
118.04541015625

> <r_mmod_Torsional_Energy-OPLS-2005>
254.22721862793

> <r_mmod_Improper_Torsional_Energy-OPLS-2005>
5.9375524520874

> <r_mmod_Van_der_Waal_Energy-OPLS-2005>
140.074035644531

> <r_mmod_Electrostatic_Energy-OPLS-2005>
-416.183654785156

> <r_mmod_Solvation_Energy-OPLS-2005>
-224.328659057617

> <b_mmod_Minimization_Converged-OPLS-2005>
0

> <r_mmod_RMS_Derivative-OPLS-2005>
3.62408208847046

$$$$
45
                    3D
 Structure written by MMmdl.
162171  0  0  1  0            999 V2000
  -30.6088  -14.7470   20.5441 C   0  0  0  0  0  0
  -30.4537  -12.4811   19.4781 C   0  0  0  0  0  0
  -29.5315  -12.5175   18.2366 C   0  0  0  0  0  0
  -28.0543  -12.3127   18.6428 C   0  0  0  0  0  0
  -27.6456  -13.2126   19.8352 C   0  0  2  0  0  0
  -28.6776  -13.1154   20.9734 C   0  0  0  0  0  0
  -25.2336  -13.7981   20.5066 C   0  0  0  0  0  0
  -24.1744  -13.0326   20.9080 C   0  0  0  0  0  0
  -24.6410  -11.6860   20.8762 C   0  0  0  0  0  0
  -23.9062  -10.4277   21.0416 C   0  0  0  0  0  0
  -24.3621   -9.4218   21.9187 C   0  0  0  0  0  0
  -23.6311   -8.2241   22.0752 C   0  0  0  0  0  0
  -22.4268   -8.0295   21.3544 C   0  0  0  0  0  0
  -21.9937   -9.0228   20.4620 C   0  0  0  0  0  0
  -22.7225  -10.2131   20.3034 C   0  0  0  0  0  0
  -21.6847   -6.0753   22.5279 C   0  0  0  0  0  0
  -21.4006   -6.5634   23.8227 C   0  0  0  0  0  0
  -21.3660   -5.6791   24.9197 C   0  0  0  0  0  0
  -21.6043   -4.3051   24.7252 C   0  0  0  0  0  0
  -21.8811   -3.8166   23.4362 C   0  0  0  0  0  0
  -21.9189   -4.6973   22.3411 C   0  0  0  0  0  0
  -22.7791  -13.5157   21.1779 C   0  0  0  0  0  0
  -22.1663   -4.2165   21.1006 F   0  0  0  0  0  0
  -21.5673   -3.4539   25.7766 F   0  0  0  0  0  0
  -29.9835  -13.5183   20.4282 N   0  0  0  0  0  0
  -26.2920  -12.9244   20.3068 N   0  0  0  0  0  0
  -25.9370  -11.6440   20.5788 N   0  0  0  0  0  0
  -22.0472  -12.8201   22.0434 N   0  0  0  0  0  0
  -25.3636  -15.1516   20.2506 N   0  0  0  0  0  0
  -31.7329  -14.9000   20.0496 O   0  0  0  0  0  0
  -21.6641   -6.8892   21.4251 O   0  0  0  0  0  0
  -22.3445  -14.5462   20.6646 O   0  0  0  0  0  0
  -24.6323  -31.8483   23.1947 C   0  0  0  0  0  0
  -25.9169  -32.4691   23.8290 C   0  0  1  0  0  0
  -27.2171  -27.2544   20.1162 C   0  0  0  0  0  0
  -25.6007  -33.8506   24.2192 N   0  0  0  0  0  0
  -23.4291  -30.4702   21.5346 C   0  0  2  0  0  0
  -24.8743  -28.9137   20.0940 C   0  0  0  0  0  0
  -22.7503  -29.4554   22.4837 C   0  0  0  0  0  0
  -18.0311  -28.1429   22.8482 C   0  0  0  0  0  0
  -24.1466  -36.7262   23.2636 C   0  0  0  0  0  0
  -25.9703  -30.7659   21.3618 C   0  0  0  0  0  0
  -26.0425  -29.3848   20.7049 C   0  0  0  0  0  0
  -27.2100  -28.5624   20.7099 C   0  0  0  0  0  0
  -26.0313  -26.8386   19.4823 C   0  0  0  0  0  0
  -24.8750  -27.6512   19.4703 C   0  0  0  0  0  0
  -23.6449  -29.8039   20.1465 C   0  0  0  0  0  0
  -25.4091  -36.3018   24.0300 C   0  0  1  0  0  0
  -20.5913  -28.3734   23.1272 C   0  0  2  0  0  0
  -20.6787  -26.9448   22.5403 C   0  0  0  0  0  0
  -19.5757  -26.6406   21.5209 C   0  0  0  0  0  0
  -18.1935  -26.7982   22.1623 C   0  0  0  0  0  0
  -19.1553  -28.8892   23.2892 C   0  0  0  0  0  0
  -18.9474  -30.1505   23.8906 C   0  0  0  0  0  0
  -17.6473  -30.6612   24.0585 C   0  0  0  0  0  0
  -25.9044  -34.9409   23.5021 C   0  0  0  0  0  0
  -16.5368  -29.9122   23.6343 C   0  0  0  0  0  0
  -16.7300  -28.6548   23.0336 C   0  0  0  0  0  0
  -26.4570  -31.6577   25.0706 C   0  0  0  0  0  0
  -25.3783  -31.3765   26.1417 C   0  0  0  0  0  0
  -27.0381  -30.2987   24.6178 C   0  0  0  0  0  0
  -27.6094  -32.4342   25.7550 C   0  0  0  0  0  0
  -27.5546  -37.1779   24.8463 C   0  0  0  0  0  0
  -21.4197  -29.3045   22.3604 N   0  0  0  0  0  0
  -26.4234  -37.3749   23.9438 N   0  0  0  0  0  0
  -24.6972  -31.0456   22.0897 N   0  0  0  0  0  0
  -23.4180  -28.8071   23.2941 O   0  0  0  0  0  0
  -28.3216  -26.3929   20.2617 O   0  0  0  0  0  0
  -26.5580  -34.8940   22.4559 O   0  0  0  0  0  0
  -23.5469  -32.1323   23.7272 O   0  0  0  0  0  0
  -27.8339  -18.9540   20.9235 C   0  0  0  0  0  0
  -30.3247  -18.1499   20.2137 C   0  0  0  0  0  0
  -28.2340  -17.6089   21.1748 C   0  0  0  0  0  0
  -29.5189  -17.1205   20.7995 C   0  0  0  0  0  0
  -28.7053  -19.9220   20.3671 C   0  0  0  0  0  0
  -28.2065  -23.8260   19.9629 C   0  0  0  0  0  0
  -28.5882  -25.1308   19.6490 C   0  0  0  0  0  0
  -27.0764  -23.3945   20.8728 C   0  0  0  0  0  0
  -28.8720  -22.4735   19.4919 C   0  0  0  0  0  0
  -27.1829  -21.8490   21.0604 C   0  0  0  0  0  0
  -27.2758  -16.7518   21.9659 C   0  0  0  0  0  0
  -29.9139  -14.8563   23.6350 C   0  0  0  0  0  0
  -30.5233  -15.8797   22.6649 C   0  0  0  0  0  0
  -29.9463  -19.4749   20.0128 N   0  0  0  0  0  0
  -28.3042  -21.3237   20.2634 N   0  0  0  0  0  0
  -30.0147  -15.7855   21.2758 N   0  0  0  0  0  0
  -31.4973  -12.6273   19.1873 H   0  0  0  0  0  0
  -30.4342  -11.4977   19.9523 H   0  0  0  0  0  0
  -29.8421  -11.7500   17.5275 H   0  0  0  0  0  0
  -29.6486  -13.4765   17.7281 H   0  0  0  0  0  0
  -27.9259  -11.2636   18.9142 H   0  0  0  0  0  0
  -27.3941  -12.4817   17.7932 H   0  0  0  0  0  0
  -27.6566  -14.2380   19.4637 H   0  0  0  0  0  0
  -28.7271  -12.1017   21.3706 H   0  0  0  0  0  0
  -28.3680  -13.7348   21.8078 H   0  0  0  0  0  0
  -25.2809   -9.5693   22.4743 H   0  0  0  0  0  0
  -24.0047   -7.4633   22.7443 H   0  0  0  0  0  0
  -21.0900   -8.8668   19.8879 H   0  0  0  0  0  0
  -22.3680  -10.9652   19.6117 H   0  0  0  0  0  0
  -21.1948   -7.6147   23.9738 H   0  0  0  0  0  0
  -21.1488   -6.0529   25.9086 H   0  0  0  0  0  0
  -22.0574   -2.7618   23.2845 H   0  0  0  0  0  0
  -22.4089  -11.9919   22.4907 H   0  0  0  0  0  0
  -21.1104  -13.1238   22.2650 H   0  0  0  0  0  0
  -24.5646  -15.7739   20.2873 H   0  0  0  0  0  0
  -26.1705  -15.5624   19.8001 H   0  0  0  0  0  0
  -26.7233  -32.5324   23.1033 H   0  0  0  0  0  0
  -25.0279  -33.9671   25.0422 H   0  0  0  0  0  0
  -22.7303  -31.2949   21.3886 H   0  0  0  0  0  0
  -23.3697  -35.9626   23.3259 H   0  0  0  0  0  0
  -24.3533  -36.8902   22.2059 H   0  0  0  0  0  0
  -23.7279  -37.6478   23.6667 H   0  0  0  0  0  0
  -26.0863  -31.5192   20.5800 H   0  0  0  0  0  0
  -26.8599  -30.8357   21.9775 H   0  0  0  0  0  0
  -28.0967  -28.9146   21.2162 H   0  0  0  0  0  0
  -25.9762  -25.8534   19.0418 H   0  0  0  0  0  0
  -23.9816  -27.2790   18.9922 H   0  0  0  0  0  0
  -23.7870  -30.5886   19.4050 H   0  0  0  0  0  0
  -22.7575  -29.2550   19.8203 H   0  0  0  0  0  0
  -25.1268  -36.1800   25.0777 H   0  0  0  0  0  0
  -21.0072  -28.3339   24.1386 H   0  0  0  0  0  0
  -20.5689  -26.2347   23.3616 H   0  0  0  0  0  0
  -21.6649  -26.7416   22.1210 H   0  0  0  0  0  0
  -19.6903  -25.6297   21.1276 H   0  0  0  0  0  0
  -19.6753  -27.3180   20.6711 H   0  0  0  0  0  0
  -17.4229  -26.6773   21.4023 H   0  0  0  0  0  0
  -18.0329  -26.0124   22.9010 H   0  0  0  0  0  0
  -19.7923  -30.7339   24.2262 H   0  0  0  0  0  0
  -17.5001  -31.6297   24.5190 H   0  0  0  0  0  0
  -15.5353  -30.3026   23.7641 H   0  0  0  0  0  0
  -15.8707  -28.0877   22.7011 H   0  0  0  0  0  0
  -24.6018  -30.7032   25.7782 H   0  0  0  0  0  0
  -24.8939  -32.2948   26.4726 H   0  0  0  0  0  0
  -25.8138  -30.9080   27.0243 H   0  0  0  0  0  0
  -26.2932  -29.6786   24.1185 H   0  0  0  0  0  0
  -27.4024  -29.7235   25.4691 H   0  0  0  0  0  0
  -27.8827  -30.4221   23.9404 H   0  0  0  0  0  0
  -27.2632  -33.3645   26.2066 H   0  0  0  0  0  0
  -28.4005  -32.6875   25.0483 H   0  0  0  0  0  0
  -28.0644  -31.8501   26.5558 H   0  0  0  0  0  0
  -28.2520  -38.0108   24.7461 H   0  0  0  0  0  0
  -28.1074  -36.2627   24.6276 H   0  0  0  0  0  0
  -27.2274  -37.1385   25.8869 H   0  0  0  0  0  0
  -20.9346  -29.8768   21.6827 H   0  0  0  0  0  0
  -26.0061  -38.2786   24.1493 H   0  0  0  0  0  0
  -26.8370  -19.2385   21.2243 H   0  0  0  0  0  0
  -31.3572  -17.9401   19.9837 H   0  0  0  0  0  0
  -29.4204  -25.2709   18.9737 H   0  0  0  0  0  0
  -26.1359  -23.6283   20.3703 H   0  0  0  0  0  0
  -27.0756  -23.9393   21.8146 H   0  0  0  0  0  0
  -29.9563  -22.5064   19.6073 H   0  0  0  0  0  0
  -28.6727  -22.3092   18.4307 H   0  0  0  0  0  0
  -26.2468  -21.3770   20.7527 H   0  0  0  0  0  0
  -27.3307  -21.6059   22.1127 H   0  0  0  0  0  0
  -26.2494  -17.0219   21.7176 H   0  0  0  0  0  0
  -27.4127  -16.9171   23.0345 H   0  0  0  0  0  0
  -27.4242  -15.6950   21.7623 H   0  0  0  0  0  0
  -30.2852  -15.0227   24.6453 H   0  0  0  0  0  0
  -30.1716  -13.8344   23.3538 H   0  0  0  0  0  0
  -28.8291  -14.9427   23.6894 H   0  0  0  0  0  0
  -31.6113  -15.7851   22.6737 H   0  0  0  0  0  0
  -30.3311  -16.8751   23.0694 H   0  0  0  0  0  0
  1 25  1  0  0  0
  1 30  2  0  0  0
  1 86  1  0  0  0
  2  3  1  0  0  0
  2 25  1  0  0  0
  2 87  1  0  0  0
  2 88  1  0  0  0
  3  4  1  0  0  0
  3 89  1  0  0  0
  3 90  1  0  0  0
  4  5  1  0  0  0
  4 91  1  0  0  0
  4 92  1  0  0  0
  5  6  1  0  0  0
  5 26  1  0  0  0
  5 93  1  0  0  0
  6 25  1  0  0  0
  6 94  1  0  0  0
  6 95  1  0  0  0
  7  8  2  0  0  0
  7 26  1  0  0  0
  7 29  1  0  0  0
  8  9  1  0  0  0
  8 22  1  0  0  0
  9 10  1  0  0  0
  9 27  2  0  0  0
 10 11  2  0  0  0
 10 15  1  0  0  0
 11 12  1  0  0  0
 11 96  1  0  0  0
 12 13  2  0  0  0
 12 97  1  0  0  0
 13 14  1  0  0  0
 13 31  1  0  0  0
 14 15  2  0  0  0
 14 98  1  0  0  0
 15 99  1  0  0  0
 16 17  2  0  0  0
 16 21  1  0  0  0
 16 31  1  0  0  0
 17 18  1  0  0  0
 17100  1  0  0  0
 18 19  2  0  0  0
 18101  1  0  0  0
 19 20  1  0  0  0
 19 24  1  0  0  0
 20 21  2  0  0  0
 20102  1  0  0  0
 21 23  1  0  0  0
 22 28  1  0  0  0
 22 32  2  0  0  0
 26 27  1  0  0  0
 28103  1  0  0  0
 28104  1  0  0  0
 29105  1  0  0  0
 29106  1  0  0  0
 33 34  1  0  0  0
 33 66  1  0  0  0
 33 70  2  0  0  0
 34 36  1  0  0  0
 34 59  1  0  0  0
 34107  1  0  0  0
 35 44  2  0  0  0
 35 45  1  0  0  0
 35 68  1  0  0  0
 36 56  1  0  0  0
 36108  1  0  0  0
 37 39  1  0  0  0
 37 47  1  0  0  0
 37 66  1  0  0  0
 37109  1  0  0  0
 38 43  2  0  0  0
 38 46  1  0  0  0
 38 47  1  0  0  0
 39 64  1  0  0  0
 39 67  2  0  0  0
 40 52  1  0  0  0
 40 53  2  0  0  0
 40 58  1  0  0  0
 41110  1  0  0  0
 41111  1  0  0  0
 41112  1  0  0  0
 41 48  1  0  0  0
 42 43  1  0  0  0
 42 66  1  0  0  0
 42113  1  0  0  0
 42114  1  0  0  0
 43 44  1  0  0  0
 44115  1  0  0  0
 45 46  2  0  0  0
 45116  1  0  0  0
 46117  1  0  0  0
 47118  1  0  0  0
 47119  1  0  0  0
 48 56  1  0  0  0
 48 65  1  0  0  0
 48120  1  0  0  0
 49 50  1  0  0  0
 49 53  1  0  0  0
 49 64  1  0  0  0
 49121  1  0  0  0
 50 51  1  0  0  0
 50122  1  0  0  0
 50123  1  0  0  0
 51 52  1  0  0  0
 51124  1  0  0  0
 51125  1  0  0  0
 52126  1  0  0  0
 52127  1  0  0  0
 53 54  1  0  0  0
 54 55  2  0  0  0
 54128  1  0  0  0
 55 57  1  0  0  0
 55129  1  0  0  0
 56 69  2  0  0  0
 57 58  2  0  0  0
 57130  1  0  0  0
 58131  1  0  0  0
 59 60  1  0  0  0
 59 61  1  0  0  0
 59 62  1  0  0  0
 60132  1  0  0  0
 60133  1  0  0  0
 60134  1  0  0  0
 61135  1  0  0  0
 61136  1  0  0  0
 61137  1  0  0  0
 62138  1  0  0  0
 62139  1  0  0  0
 62140  1  0  0  0
 63 65  1  0  0  0
 63141  1  0  0  0
 63142  1  0  0  0
 63143  1  0  0  0
 64144  1  0  0  0
 65145  1  0  0  0
 68 77  1  0  0  0
 71 73  2  0  0  0
 71 75  1  0  0  0
 71146  1  0  0  0
 72 74  2  0  0  0
 72 84  1  0  0  0
 72147  1  0  0  0
 73 74  1  0  0  0
 73 81  1  0  0  0
 74 86  1  0  0  0
 75 84  2  0  0  0
 75 85  1  0  0  0
 76 77  2  0  0  0
 76 78  1  0  0  0
 76 79  1  0  0  0
 77148  1  0  0  0
 78 80  1  0  0  0
 78149  1  0  0  0
 78150  1  0  0  0
 79 85  1  0  0  0
 79151  1  0  0  0
 79152  1  0  0  0
 80 85  1  0  0  0
 80153  1  0  0  0
 80154  1  0  0  0
 81155  1  0  0  0
 81156  1  0  0  0
 81157  1  0  0  0
 82 83  1  0  0  0
 82158  1  0  0  0
 82159  1  0  0  0
 82160  1  0  0  0
 83 86  1  0  0  0
 83161  1  0  0  0
 83162  1  0  0  0
M  ISO  4   1 100  68 101  77 101  86 100
M  END
> <chiral flag>
0

> <version>
0

> <s_m_source_file>
/data/baiqing/PycharmProjects/Reinvent-master-3.2/result/LINK_invent/BTK/process_docking_weight1_custom_product_contain_oxygen_bond_distance_aromatic_linkinvent_7_9_3/rearranged_h_0104.sdf

> <i_m_source_file_index>
45

> <r_mmod_Potential_Energy-OPLS-2005>
236.980682373047

> <r_mmod_Stretch_Energy-OPLS-2005>
118.692115783691

> <r_mmod_Bend_Energy-OPLS-2005>
246.017364501953

> <r_mmod_Torsional_Energy-OPLS-2005>
344.644470214844

> <r_mmod_Improper_Torsional_Energy-OPLS-2005>
8.87187767028809

> <r_mmod_Van_der_Waal_Energy-OPLS-2005>
135.013824462891

> <r_mmod_Electrostatic_Energy-OPLS-2005>
-494.318908691406

> <r_mmod_Solvation_Energy-OPLS-2005>
-213.939376831055

> <b_mmod_Minimization_Converged-OPLS-2005>
0

> <r_mmod_RMS_Derivative-OPLS-2005>
6.65888547897339

$$$$
46
                    3D
 Structure written by MMmdl.
164173  0  0  1  0            999 V2000
  -30.6400  -14.7262   20.4345 C   0  0  0  0  0  0
  -30.4274  -12.4363   19.4737 C   0  0  0  0  0  0
  -29.5055  -12.4897   18.2347 C   0  0  0  0  0  0
  -28.0304  -12.3255   18.6493 C   0  0  0  0  0  0
  -27.6434  -13.2307   19.8475 C   0  0  2  0  0  0
  -28.6895  -13.1784   20.9847 C   0  0  0  0  0  0
  -25.2544  -13.8207   20.5724 C   0  0  0  0  0  0
  -24.1838  -13.0437   20.9205 C   0  0  0  0  0  0
  -24.6445  -11.6923   20.8761 C   0  0  0  0  0  0
  -23.9114  -10.4298   21.0427 C   0  0  0  0  0  0
  -24.3651   -9.4203   21.9190 C   0  0  0  0  0  0
  -23.6311   -8.2246   22.0757 C   0  0  0  0  0  0
  -22.4290   -8.0302   21.3544 C   0  0  0  0  0  0
  -21.9949   -9.0282   20.4651 C   0  0  0  0  0  0
  -22.7296  -10.2155   20.3059 C   0  0  0  0  0  0
  -21.6850   -6.0758   22.5297 C   0  0  0  0  0  0
  -21.4016   -6.5650   23.8241 C   0  0  0  0  0  0
  -21.3648   -5.6792   24.9183 C   0  0  0  0  0  0
  -21.6041   -4.3056   24.7223 C   0  0  0  0  0  0
  -21.8816   -3.8159   23.4342 C   0  0  0  0  0  0
  -21.9199   -4.6994   22.3398 C   0  0  0  0  0  0
  -22.7869  -13.5220   21.1859 C   0  0  0  0  0  0
  -22.1660   -4.2175   21.0981 F   0  0  0  0  0  0
  -21.5622   -3.4536   25.7729 F   0  0  0  0  0  0
  -29.9913  -13.5122   20.3963 N   0  0  0  0  0  0
  -26.2944  -12.9401   20.3256 N   0  0  0  0  0  0
  -25.9365  -11.6530   20.5752 N   0  0  0  0  0  0
  -22.0513  -12.8195   22.0414 N   0  0  0  0  0  0
  -25.4251  -15.1942   20.4220 N   0  0  0  0  0  0
  -31.8289  -14.7906   20.1163 O   0  0  0  0  0  0
  -21.6638   -6.8905   21.4266 O   0  0  0  0  0  0
  -22.3540  -14.5529   20.6733 O   0  0  0  0  0  0
  -24.6243  -31.8569   23.1985 C   0  0  0  0  0  0
  -25.9055  -32.4792   23.8342 C   0  0  1  0  0  0
  -27.2420  -27.3248   20.1374 C   0  0  0  0  0  0
  -25.5826  -33.8584   24.2258 N   0  0  0  0  0  0
  -23.4175  -30.4739   21.5433 C   0  0  2  0  0  0
  -24.8696  -28.9187   20.1137 C   0  0  0  0  0  0
  -22.7446  -29.4554   22.4947 C   0  0  0  0  0  0
  -18.0297  -28.1335   22.8561 C   0  0  0  0  0  0
  -24.1467  -36.7296   23.2646 C   0  0  0  0  0  0
  -25.9536  -30.7941   21.3579 C   0  0  0  0  0  0
  -26.0321  -29.4194   20.7074 C   0  0  0  0  0  0
  -27.2161  -28.6338   20.7095 C   0  0  0  0  0  0
  -26.0604  -26.8612   19.5225 C   0  0  0  0  0  0
  -24.8833  -27.6431   19.5158 C   0  0  0  0  0  0
  -23.6329  -29.7955   20.1622 C   0  0  0  0  0  0
  -25.4084  -36.3103   24.0360 C   0  0  1  0  0  0
  -20.5897  -28.3603   23.1330 C   0  0  2  0  0  0
  -20.6738  -26.9306   22.5433 C   0  0  0  0  0  0
  -19.5702  -26.6351   21.5229 C   0  0  0  0  0  0
  -18.1911  -26.7907   22.1673 C   0  0  0  0  0  0
  -19.1549  -28.8795   23.2963 C   0  0  0  0  0  0
  -18.9447  -30.1413   23.8951 C   0  0  0  0  0  0
  -17.6441  -30.6552   24.0563 C   0  0  0  0  0  0
  -25.9014  -34.9487   23.5133 C   0  0  0  0  0  0
  -16.5340  -29.9035   23.6333 C   0  0  0  0  0  0
  -16.7290  -28.6444   23.0392 C   0  0  0  0  0  0
  -26.4428  -31.6608   25.0716 C   0  0  0  0  0  0
  -25.3675  -31.3726   26.1457 C   0  0  0  0  0  0
  -27.0206  -30.3052   24.6070 C   0  0  0  0  0  0
  -27.6005  -32.4324   25.7472 C   0  0  0  0  0  0
  -27.5579  -37.1801   24.8485 C   0  0  0  0  0  0
  -21.4151  -29.2974   22.3711 N   0  0  0  0  0  0
  -26.4287  -37.3787   23.9428 N   0  0  0  0  0  0
  -24.6852  -31.0570   22.0934 N   0  0  0  0  0  0
  -23.4154  -28.8077   23.3027 O   0  0  0  0  0  0
  -28.4015  -26.5410   20.2209 O   0  0  0  0  0  0
  -26.5619  -34.8976   22.4724 O   0  0  0  0  0  0
  -23.5406  -32.1341   23.7265 O   0  0  0  0  0  0
  -30.4473  -19.5089   21.3232 C   0  0  0  0  0  0
  -30.0814  -20.8678   21.5749 C   0  0  0  0  0  0
  -28.6909  -19.3520   19.7155 C   0  0  0  0  0  0
  -29.7470  -18.6806   20.4121 C   0  0  0  0  0  0
  -28.3144  -20.7297   19.9595 C   0  0  0  0  0  0
  -28.9540  -21.5126   20.9763 C   0  0  0  0  0  0
  -28.1580  -22.7879   22.8896 C   0  0  0  0  0  0
  -27.2140  -23.8845   23.3471 C   0  0  0  0  0  0
  -27.1822  -24.8151   22.1625 C   0  0  0  0  0  0
  -27.7380  -24.0276   20.9612 C   0  0  2  0  0  0
  -25.8252  -21.2611   19.6870 C   0  0  0  0  0  0
  -27.2341  -21.3559   19.0830 C   0  0  0  0  0  0
  -30.3320  -17.2492   20.0100 C   0  0  0  0  0  0
  -28.4811  -25.0676   20.0055 C   0  0  0  0  0  0
  -28.4548  -22.8033   21.5592 N   0  0  0  0  0  0
  -29.9001  -15.8939   20.5604 N   0  0  0  0  0  0
  -28.5730  -21.9789   23.7281 O   0  0  0  0  0  0
  -31.4687  -12.5498   19.1638 H   0  0  0  0  0  0
  -30.3691  -11.4655   19.9646 H   0  0  0  0  0  0
  -29.7814  -11.7068   17.5295 H   0  0  0  0  0  0
  -29.6424  -13.4372   17.7099 H   0  0  0  0  0  0
  -27.8766  -11.2774   18.9119 H   0  0  0  0  0  0
  -27.3778  -12.5205   17.7998 H   0  0  0  0  0  0
  -27.6352  -14.2500   19.4588 H   0  0  0  0  0  0
  -28.7209  -12.1868   21.4360 H   0  0  0  0  0  0
  -28.4313  -13.8807   21.7815 H   0  0  0  0  0  0
  -25.2796   -9.5660   22.4750 H   0  0  0  0  0  0
  -24.0016   -7.4632   22.7479 H   0  0  0  0  0  0
  -21.0860   -8.8802   19.8965 H   0  0  0  0  0  0
  -22.3752  -10.9686   19.6147 H   0  0  0  0  0  0
  -21.2007   -7.6161   23.9744 H   0  0  0  0  0  0
  -21.1465   -6.0515   25.9084 H   0  0  0  0  0  0
  -22.0614   -2.7624   23.2828 H   0  0  0  0  0  0
  -22.4104  -11.9815   22.4725 H   0  0  0  0  0  0
  -21.1151  -13.1258   22.2671 H   0  0  0  0  0  0
  -24.6708  -15.8502   20.5862 H   0  0  0  0  0  0
  -26.2720  -15.6422   20.0998 H   0  0  0  0  0  0
  -26.7115  -32.5485   23.1088 H   0  0  0  0  0  0
  -25.0002  -33.9721   25.0414 H   0  0  0  0  0  0
  -22.7181  -31.2974   21.3910 H   0  0  0  0  0  0
  -23.3768  -35.9593   23.3323 H   0  0  0  0  0  0
  -24.3574  -36.8896   22.2065 H   0  0  0  0  0  0
  -23.7184  -37.6497   23.6638 H   0  0  0  0  0  0
  -26.0635  -31.5503   20.5797 H   0  0  0  0  0  0
  -26.8452  -30.8613   21.9732 H   0  0  0  0  0  0
  -28.1064  -29.0088   21.1913 H   0  0  0  0  0  0
  -26.0388  -25.8809   19.0660 H   0  0  0  0  0  0
  -23.9880  -27.2386   19.0640 H   0  0  0  0  0  0
  -23.7414  -30.5680   19.3997 H   0  0  0  0  0  0
  -22.7577  -29.2150   19.8723 H   0  0  0  0  0  0
  -25.1254  -36.1994   25.0859 H   0  0  0  0  0  0
  -21.0045  -28.3155   24.1427 H   0  0  0  0  0  0
  -20.5587  -26.2177   23.3619 H   0  0  0  0  0  0
  -21.6608  -26.7301   22.1226 H   0  0  0  0  0  0
  -19.6802  -25.6265   21.1242 H   0  0  0  0  0  0
  -19.6649  -27.3200   20.6798 H   0  0  0  0  0  0
  -17.4154  -26.6745   21.4091 H   0  0  0  0  0  0
  -18.0263  -26.0005   22.9028 H   0  0  0  0  0  0
  -19.7908  -30.7247   24.2325 H   0  0  0  0  0  0
  -17.4971  -31.6261   24.5082 H   0  0  0  0  0  0
  -15.5322  -30.2926   23.7584 H   0  0  0  0  0  0
  -15.8722  -28.0746   22.7063 H   0  0  0  0  0  0
  -24.5877  -30.7008   25.7846 H   0  0  0  0  0  0
  -24.8807  -32.2870   26.4897 H   0  0  0  0  0  0
  -25.8045  -30.8966   27.0246 H   0  0  0  0  0  0
  -26.2722  -29.6896   24.1064 H   0  0  0  0  0  0
  -27.3907  -29.7222   25.4517 H   0  0  0  0  0  0
  -27.8607  -30.4412   23.9241 H   0  0  0  0  0  0
  -27.2649  -33.3662   26.2011 H   0  0  0  0  0  0
  -28.3834  -32.6815   25.0290 H   0  0  0  0  0  0
  -28.0629  -31.8452   26.5426 H   0  0  0  0  0  0
  -28.2608  -38.0084   24.7528 H   0  0  0  0  0  0
  -28.1052  -36.2630   24.6300 H   0  0  0  0  0  0
  -27.2316  -37.1465   25.8891 H   0  0  0  0  0  0
  -20.9213  -29.8762   21.7064 H   0  0  0  0  0  0
  -26.0201  -38.2879   24.1416 H   0  0  0  0  0  0
  -31.3126  -19.1054   21.8293 H   0  0  0  0  0  0
  -30.6624  -21.4147   22.3078 H   0  0  0  0  0  0
  -28.1782  -18.8105   18.9310 H   0  0  0  0  0  0
  -27.5774  -24.3754   24.2530 H   0  0  0  0  0  0
  -26.2226  -23.4731   23.5505 H   0  0  0  0  0  0
  -27.8068  -25.6729   22.4097 H   0  0  0  0  0  0
  -26.1764  -25.1934   21.9718 H   0  0  0  0  0  0
  -26.8538  -23.6726   20.4406 H   0  0  0  0  0  0
  -25.4428  -20.2436   19.6200 H   0  0  0  0  0  0
  -25.1308  -21.9149   19.1554 H   0  0  0  0  0  0
  -25.8139  -21.5493   20.7411 H   0  0  0  0  0  0
  -27.2398  -20.8975   18.0949 H   0  0  0  0  0  0
  -27.5108  -22.3909   18.8835 H   0  0  0  0  0  0
  -31.4102  -17.3210   20.1452 H   0  0  0  0  0  0
  -30.2191  -17.1779   18.9306 H   0  0  0  0  0  0
  -28.2598  -24.8460   18.9611 H   0  0  0  0  0  0
  -29.5448  -24.8484   20.0983 H   0  0  0  0  0  0
  -28.9295  -15.7967   20.8042 H   0  0  0  0  0  0
  1 25  1  0  0  0
  1 30  2  0  0  0
  1 86  1  0  0  0
  2  3  1  0  0  0
  2 25  1  0  0  0
  2 88  1  0  0  0
  2 89  1  0  0  0
  3  4  1  0  0  0
  3 90  1  0  0  0
  3 91  1  0  0  0
  4  5  1  0  0  0
  4 92  1  0  0  0
  4 93  1  0  0  0
  5  6  1  0  0  0
  5 26  1  0  0  0
  5 94  1  0  0  0
  6 25  1  0  0  0
  6 95  1  0  0  0
  6 96  1  0  0  0
  7  8  2  0  0  0
  7 26  1  0  0  0
  7 29  1  0  0  0
  8  9  1  0  0  0
  8 22  1  0  0  0
  9 10  1  0  0  0
  9 27  2  0  0  0
 10 11  2  0  0  0
 10 15  1  0  0  0
 11 12  1  0  0  0
 11 97  1  0  0  0
 12 13  2  0  0  0
 12 98  1  0  0  0
 13 14  1  0  0  0
 13 31  1  0  0  0
 14 15  2  0  0  0
 14 99  1  0  0  0
 15100  1  0  0  0
 16 17  2  0  0  0
 16 21  1  0  0  0
 16 31  1  0  0  0
 17 18  1  0  0  0
 17101  1  0  0  0
 18 19  2  0  0  0
 18102  1  0  0  0
 19 20  1  0  0  0
 19 24  1  0  0  0
 20 21  2  0  0  0
 20103  1  0  0  0
 21 23  1  0  0  0
 22 28  1  0  0  0
 22 32  2  0  0  0
 26 27  1  0  0  0
 28104  1  0  0  0
 28105  1  0  0  0
 29106  1  0  0  0
 29107  1  0  0  0
 33 34  1  0  0  0
 33 66  1  0  0  0
 33 70  2  0  0  0
 34 36  1  0  0  0
 34 59  1  0  0  0
 34108  1  0  0  0
 35 44  2  0  0  0
 35 45  1  0  0  0
 35 68  1  0  0  0
 36 56  1  0  0  0
 36109  1  0  0  0
 37 39  1  0  0  0
 37 47  1  0  0  0
 37 66  1  0  0  0
 37110  1  0  0  0
 38 43  2  0  0  0
 38 46  1  0  0  0
 38 47  1  0  0  0
 39 64  1  0  0  0
 39 67  2  0  0  0
 40 52  1  0  0  0
 40 53  2  0  0  0
 40 58  1  0  0  0
 41111  1  0  0  0
 41112  1  0  0  0
 41113  1  0  0  0
 41 48  1  0  0  0
 42 43  1  0  0  0
 42 66  1  0  0  0
 42114  1  0  0  0
 42115  1  0  0  0
 43 44  1  0  0  0
 44116  1  0  0  0
 45 46  2  0  0  0
 45117  1  0  0  0
 46118  1  0  0  0
 47119  1  0  0  0
 47120  1  0  0  0
 48 56  1  0  0  0
 48 65  1  0  0  0
 48121  1  0  0  0
 49 50  1  0  0  0
 49 53  1  0  0  0
 49 64  1  0  0  0
 49122  1  0  0  0
 50 51  1  0  0  0
 50123  1  0  0  0
 50124  1  0  0  0
 51 52  1  0  0  0
 51125  1  0  0  0
 51126  1  0  0  0
 52127  1  0  0  0
 52128  1  0  0  0
 53 54  1  0  0  0
 54 55  2  0  0  0
 54129  1  0  0  0
 55 57  1  0  0  0
 55130  1  0  0  0
 56 69  2  0  0  0
 57 58  2  0  0  0
 57131  1  0  0  0
 58132  1  0  0  0
 59 60  1  0  0  0
 59 61  1  0  0  0
 59 62  1  0  0  0
 60133  1  0  0  0
 60134  1  0  0  0
 60135  1  0  0  0
 61136  1  0  0  0
 61137  1  0  0  0
 61138  1  0  0  0
 62139  1  0  0  0
 62140  1  0  0  0
 62141  1  0  0  0
 63 65  1  0  0  0
 63142  1  0  0  0
 63143  1  0  0  0
 63144  1  0  0  0
 64145  1  0  0  0
 65146  1  0  0  0
 68 84  1  0  0  0
 71 72  2  0  0  0
 71 74  1  0  0  0
 71147  1  0  0  0
 72 76  1  0  0  0
 72148  1  0  0  0
 73 74  2  0  0  0
 73 75  1  0  0  0
 73149  1  0  0  0
 74 83  1  0  0  0
 75 76  2  0  0  0
 75 82  1  0  0  0
 76 85  1  0  0  0
 77 78  1  0  0  0
 77 85  1  0  0  0
 77 87  2  0  0  0
 78 79  1  0  0  0
 78150  1  0  0  0
 78151  1  0  0  0
 79 80  1  0  0  0
 79152  1  0  0  0
 79153  1  0  0  0
 80 84  1  0  0  0
 80 85  1  0  0  0
 80154  1  0  0  0
 81 82  1  0  0  0
 81155  1  0  0  0
 81156  1  0  0  0
 81157  1  0  0  0
 82158  1  0  0  0
 82159  1  0  0  0
 83 86  1  0  0  0
 83160  1  0  0  0
 83161  1  0  0  0
 84162  1  0  0  0
 84163  1  0  0  0
 86164  1  0  0  0
M  ISO  4   1 100  68 101  84 101  86 100
M  END
> <chiral flag>
0

> <version>
0

> <s_m_source_file>
/data/baiqing/PycharmProjects/Reinvent-master-3.2/result/LINK_invent/BTK/process_docking_weight1_custom_product_contain_oxygen_bond_distance_aromatic_linkinvent_7_9_3/rearranged_h_0104.sdf

> <i_m_source_file_index>
46

> <r_mmod_Potential_Energy-OPLS-2005>
240.871612548828

> <r_mmod_Stretch_Energy-OPLS-2005>
118.140106201172

> <r_mmod_Bend_Energy-OPLS-2005>
227.400085449219

> <r_mmod_Torsional_Energy-OPLS-2005>
306.413330078125

> <r_mmod_Improper_Torsional_Energy-OPLS-2005>
10.56165599823

> <r_mmod_Van_der_Waal_Energy-OPLS-2005>
139.071716308594

> <r_mmod_Electrostatic_Energy-OPLS-2005>
-406.0458984375

> <r_mmod_Solvation_Energy-OPLS-2005>
-220.655685424805

> <b_mmod_Minimization_Converged-OPLS-2005>
0

> <r_mmod_RMS_Derivative-OPLS-2005>
6.09221458435059

$$$$
47
                    3D
 Structure written by MMmdl.
155163  0  0  1  0            999 V2000
  -30.7295  -14.4934   20.5765 C   0  0  0  0  0  0
  -30.4134  -12.3190   19.4431 C   0  0  0  0  0  0
  -29.5006  -12.5200   18.2160 C   0  0  0  0  0  0
  -28.0154  -12.3947   18.6072 C   0  0  0  0  0  0
  -27.6617  -13.2145   19.8766 C   0  0  2  0  0  0
  -28.6952  -12.9751   20.9952 C   0  0  0  0  0  0
  -25.2594  -13.8182   20.5646 C   0  0  0  0  0  0
  -24.1838  -13.0463   20.9146 C   0  0  0  0  0  0
  -24.6392  -11.6936   20.8715 C   0  0  0  0  0  0
  -23.9039  -10.4326   21.0404 C   0  0  0  0  0  0
  -24.3593   -9.4237   21.9172 C   0  0  0  0  0  0
  -23.6269   -8.2275   22.0763 C   0  0  0  0  0  0
  -22.4244   -8.0302   21.3569 C   0  0  0  0  0  0
  -21.9875   -9.0279   20.4669 C   0  0  0  0  0  0
  -22.7211  -10.2158   20.3061 C   0  0  0  0  0  0
  -21.6864   -6.0730   22.5274 C   0  0  0  0  0  0
  -21.4033   -6.5647   23.8208 C   0  0  0  0  0  0
  -21.3647   -5.6800   24.9169 C   0  0  0  0  0  0
  -21.6034   -4.3060   24.7220 C   0  0  0  0  0  0
  -21.8806   -3.8146   23.4341 C   0  0  0  0  0  0
  -21.9196   -4.6959   22.3394 C   0  0  0  0  0  0
  -22.7853  -13.5270   21.1793 C   0  0  0  0  0  0
  -22.1650   -4.2145   21.0977 F   0  0  0  0  0  0
  -21.5611   -3.4539   25.7731 F   0  0  0  0  0  0
  -30.0273  -13.3185   20.4639 N   0  0  0  0  0  0
  -26.3018  -12.9363   20.3330 N   0  0  0  0  0  0
  -25.9315  -11.6513   20.5713 N   0  0  0  0  0  0
  -22.0479  -12.8303   22.0370 N   0  0  0  0  0  0
  -25.4325  -15.1893   20.4037 N   0  0  0  0  0  0
  -31.8434  -14.6045   20.0559 O   0  0  0  0  0  0
  -21.6645   -6.8881   21.4240 O   0  0  0  0  0  0
  -22.3544  -14.5572   20.6633 O   0  0  0  0  0  0
  -24.6175  -31.8663   23.2099 C   0  0  0  0  0  0
  -25.9059  -32.4827   23.8405 C   0  0  1  0  0  0
  -27.2338  -27.4227   20.1063 C   0  0  0  0  0  0
  -25.5883  -33.8619   24.2329 N   0  0  0  0  0  0
  -23.4059  -30.4900   21.5520 C   0  0  2  0  0  0
  -24.8510  -28.9518   20.1190 C   0  0  0  0  0  0
  -22.7417  -29.4653   22.4998 C   0  0  0  0  0  0
  -18.0262  -28.1380   22.8508 C   0  0  0  0  0  0
  -24.1474  -36.7310   23.2646 C   0  0  0  0  0  0
  -25.9341  -30.8335   21.3602 C   0  0  0  0  0  0
  -26.0132  -29.4660   20.7079 C   0  0  0  0  0  0
  -27.2114  -28.7121   20.6916 C   0  0  0  0  0  0
  -26.0567  -26.9239   19.5106 C   0  0  0  0  0  0
  -24.8692  -27.6830   19.5128 C   0  0  0  0  0  0
  -23.6138  -29.8215   20.1671 C   0  0  0  0  0  0
  -25.4093  -36.3115   24.0348 C   0  0  1  0  0  0
  -20.5862  -28.3662   23.1322 C   0  0  2  0  0  0
  -20.6745  -26.9386   22.5425 C   0  0  0  0  0  0
  -19.5716  -26.6378   21.5227 C   0  0  0  0  0  0
  -18.1904  -26.7924   22.1642 C   0  0  0  0  0  0
  -19.1518  -28.8837   23.2916 C   0  0  0  0  0  0
  -18.9442  -30.1447   23.8918 C   0  0  0  0  0  0
  -17.6441  -30.6587   24.0573 C   0  0  0  0  0  0
  -25.9027  -34.9480   23.5146 C   0  0  0  0  0  0
  -16.5332  -29.9088   23.6338 C   0  0  0  0  0  0
  -16.7252  -28.6508   23.0360 C   0  0  0  0  0  0
  -26.4480  -31.6612   25.0736 C   0  0  0  0  0  0
  -25.3743  -31.3711   26.1484 C   0  0  0  0  0  0
  -27.0329  -30.3060   24.6135 C   0  0  0  0  0  0
  -27.6073  -32.4323   25.7492 C   0  0  0  0  0  0
  -27.5567  -37.1809   24.8467 C   0  0  0  0  0  0
  -21.4136  -29.3026   22.3732 N   0  0  0  0  0  0
  -26.4274  -37.3798   23.9425 N   0  0  0  0  0  0
  -24.6710  -31.0765   22.0997 N   0  0  0  0  0  0
  -23.4191  -28.8181   23.3034 O   0  0  0  0  0  0
  -28.3951  -26.6779   20.0857 O   0  0  0  0  0  0
  -26.5597  -34.8931   22.4714 O   0  0  0  0  0  0
  -23.5358  -32.1387   23.7497 O   0  0  0  0  0  0
  -31.5929  -18.8390   19.5325 C   0  0  0  0  0  0
  -31.4548  -17.5236   20.0145 C   0  0  0  0  0  0
  -30.5901  -19.7979   19.7648 C   0  0  0  0  0  0
  -29.2995  -18.1088   20.9444 C   0  0  0  0  0  0
  -30.2964  -17.1098   20.7267 C   0  0  0  0  0  0
  -29.4249  -19.4449   20.4789 C   0  0  0  0  0  0
  -30.1128  -15.7179   21.3194 C   0  0  0  0  0  0
  -28.5563  -22.8406   20.7773 C   0  0  0  0  0  0
  -28.2824  -24.1560   19.9865 C   0  0  0  0  0  0
  -28.2337  -21.5424   19.9933 C   0  0  0  0  0  0
  -28.3891  -25.4493   20.8396 C   0  0  0  0  0  0
  -29.4764  -15.6117   22.4110 N   0  0  0  0  0  0
  -28.4104  -20.3432   20.7743 O   0  0  0  0  0  0
  -30.2896  -11.3092   19.8343 H   0  0  0  0  0  0
  -31.4622  -12.3848   19.1502 H   0  0  0  0  0  0
  -29.7424  -11.7998   17.4348 H   0  0  0  0  0  0
  -29.6844  -13.5046   17.7807 H   0  0  0  0  0  0
  -27.8022  -11.3391   18.7716 H   0  0  0  0  0  0
  -27.3800  -12.7083   17.7785 H   0  0  0  0  0  0
  -27.7114  -14.2665   19.5979 H   0  0  0  0  0  0
  -28.6823  -11.9251   21.2925 H   0  0  0  0  0  0
  -28.4126  -13.5014   21.8996 H   0  0  0  0  0  0
  -25.2751   -9.5707   22.4728 H   0  0  0  0  0  0
  -23.9977   -7.4665   22.7492 H   0  0  0  0  0  0
  -21.0787   -8.8797   19.8981 H   0  0  0  0  0  0
  -22.3667  -10.9678   19.6144 H   0  0  0  0  0  0
  -21.2055   -7.6161   23.9700 H   0  0  0  0  0  0
  -21.1459   -6.0540   25.9061 H   0  0  0  0  0  0
  -22.0592   -2.7610   23.2850 H   0  0  0  0  0  0
  -22.4083  -11.9983   22.4795 H   0  0  0  0  0  0
  -21.1097  -13.1359   22.2548 H   0  0  0  0  0  0
  -24.6773  -15.8557   20.5217 H   0  0  0  0  0  0
  -26.2966  -15.6168   20.0958 H   0  0  0  0  0  0
  -26.7146  -32.5551   23.1189 H   0  0  0  0  0  0
  -25.0035  -33.9794   25.0482 H   0  0  0  0  0  0
  -22.6970  -31.3087   21.4152 H   0  0  0  0  0  0
  -23.3731  -35.9647   23.3316 H   0  0  0  0  0  0
  -24.3565  -36.8913   22.2055 H   0  0  0  0  0  0
  -23.7214  -37.6516   23.6649 H   0  0  0  0  0  0
  -26.0461  -31.5981   20.5904 H   0  0  0  0  0  0
  -26.8213  -30.8901   21.9783 H   0  0  0  0  0  0
  -28.1113  -29.1112   21.1388 H   0  0  0  0  0  0
  -26.0558  -25.9549   19.0351 H   0  0  0  0  0  0
  -23.9787  -27.2858   19.0459 H   0  0  0  0  0  0
  -23.7250  -30.5967   19.4076 H   0  0  0  0  0  0
  -22.7357  -29.2446   19.8725 H   0  0  0  0  0  0
  -25.1266  -36.1990   25.0833 H   0  0  0  0  0  0
  -20.9974  -28.3218   24.1441 H   0  0  0  0  0  0
  -20.5644  -26.2255   23.3614 H   0  0  0  0  0  0
  -21.6615  -26.7418   22.1219 H   0  0  0  0  0  0
  -19.6861  -25.6296   21.1244 H   0  0  0  0  0  0
  -19.6660  -27.3200   20.6771 H   0  0  0  0  0  0
  -17.4170  -26.6686   21.4049 H   0  0  0  0  0  0
  -18.0297  -26.0067   22.9039 H   0  0  0  0  0  0
  -19.7914  -30.7260   24.2302 H   0  0  0  0  0  0
  -17.4994  -31.6280   24.5144 H   0  0  0  0  0  0
  -15.5336  -30.2993   23.7645 H   0  0  0  0  0  0
  -15.8656  -28.0832   22.7062 H   0  0  0  0  0  0
  -24.5901  -30.7094   25.7793 H   0  0  0  0  0  0
  -24.8960  -32.2859   26.4979 H   0  0  0  0  0  0
  -25.8079  -30.8819   27.0219 H   0  0  0  0  0  0
  -26.2891  -29.6800   24.1193 H   0  0  0  0  0  0
  -27.4094  -29.7329   25.4623 H   0  0  0  0  0  0
  -27.8724  -30.4381   23.9309 H   0  0  0  0  0  0
  -27.2717  -33.3612   26.2119 H   0  0  0  0  0  0
  -28.3848  -32.6895   25.0284 H   0  0  0  0  0  0
  -28.0785  -31.8412   26.5354 H   0  0  0  0  0  0
  -28.2603  -38.0091   24.7510 H   0  0  0  0  0  0
  -28.1044  -36.2625   24.6298 H   0  0  0  0  0  0
  -27.2298  -37.1475   25.8877 H   0  0  0  0  0  0
  -20.9290  -29.8751   21.6971 H   0  0  0  0  0  0
  -26.0164  -38.2883   24.1432 H   0  0  0  0  0  0
  -32.4870  -19.1202   18.9933 H   0  0  0  0  0  0
  -32.2834  -16.8587   19.8345 H   0  0  0  0  0  0
  -30.7468  -20.8051   19.4061 H   0  0  0  0  0  0
  -28.4036  -17.8544   21.4933 H   0  0  0  0  0  0
  -27.9635  -22.8398   21.6919 H   0  0  0  0  0  0
  -29.5987  -22.8218   21.0955 H   0  0  0  0  0  0
  -28.9879  -24.2189   19.1585 H   0  0  0  0  0  0
  -27.2918  -24.1040   19.5372 H   0  0  0  0  0  0
  -27.1740  -21.5637   19.7348 H   0  0  0  0  0  0
  -28.7552  -21.5206   19.0372 H   0  0  0  0  0  0
  -29.3281  -25.4208   21.3927 H   0  0  0  0  0  0
  -27.6063  -25.4590   21.5989 H   0  0  0  0  0  0
  -29.1735  -16.5205   22.7392 H   0  0  0  0  0  0
  1 25  1  0  0  0
  1 30  2  0  0  0
  1 77  1  0  0  0
  2  3  1  0  0  0
  2 25  1  0  0  0
  2 84  1  0  0  0
  2 85  1  0  0  0
  3  4  1  0  0  0
  3 86  1  0  0  0
  3 87  1  0  0  0
  4  5  1  0  0  0
  4 88  1  0  0  0
  4 89  1  0  0  0
  5  6  1  0  0  0
  5 26  1  0  0  0
  5 90  1  0  0  0
  6 25  1  0  0  0
  6 91  1  0  0  0
  6 92  1  0  0  0
  7  8  2  0  0  0
  7 26  1  0  0  0
  7 29  1  0  0  0
  8  9  1  0  0  0
  8 22  1  0  0  0
  9 10  1  0  0  0
  9 27  2  0  0  0
 10 11  2  0  0  0
 10 15  1  0  0  0
 11 12  1  0  0  0
 11 93  1  0  0  0
 12 13  2  0  0  0
 12 94  1  0  0  0
 13 14  1  0  0  0
 13 31  1  0  0  0
 14 15  2  0  0  0
 14 95  1  0  0  0
 15 96  1  0  0  0
 16 17  2  0  0  0
 16 21  1  0  0  0
 16 31  1  0  0  0
 17 18  1  0  0  0
 17 97  1  0  0  0
 18 19  2  0  0  0
 18 98  1  0  0  0
 19 20  1  0  0  0
 19 24  1  0  0  0
 20 21  2  0  0  0
 20 99  1  0  0  0
 21 23  1  0  0  0
 22 28  1  0  0  0
 22 32  2  0  0  0
 26 27  1  0  0  0
 28100  1  0  0  0
 28101  1  0  0  0
 29102  1  0  0  0
 29103  1  0  0  0
 33 34  1  0  0  0
 33 66  1  0  0  0
 33 70  2  0  0  0
 34 36  1  0  0  0
 34 59  1  0  0  0
 34104  1  0  0  0
 35 44  2  0  0  0
 35 45  1  0  0  0
 35 68  1  0  0  0
 36 56  1  0  0  0
 36105  1  0  0  0
 37 39  1  0  0  0
 37 47  1  0  0  0
 37 66  1  0  0  0
 37106  1  0  0  0
 38 43  2  0  0  0
 38 46  1  0  0  0
 38 47  1  0  0  0
 39 64  1  0  0  0
 39 67  2  0  0  0
 40 52  1  0  0  0
 40 53  2  0  0  0
 40 58  1  0  0  0
 41107  1  0  0  0
 41108  1  0  0  0
 41109  1  0  0  0
 41 48  1  0  0  0
 42 43  1  0  0  0
 42 66  1  0  0  0
 42110  1  0  0  0
 42111  1  0  0  0
 43 44  1  0  0  0
 44112  1  0  0  0
 45 46  2  0  0  0
 45113  1  0  0  0
 46114  1  0  0  0
 47115  1  0  0  0
 47116  1  0  0  0
 48 56  1  0  0  0
 48 65  1  0  0  0
 48117  1  0  0  0
 49 50  1  0  0  0
 49 53  1  0  0  0
 49 64  1  0  0  0
 49118  1  0  0  0
 50 51  1  0  0  0
 50119  1  0  0  0
 50120  1  0  0  0
 51 52  1  0  0  0
 51121  1  0  0  0
 51122  1  0  0  0
 52123  1  0  0  0
 52124  1  0  0  0
 53 54  1  0  0  0
 54 55  2  0  0  0
 54125  1  0  0  0
 55 57  1  0  0  0
 55126  1  0  0  0
 56 69  2  0  0  0
 57 58  2  0  0  0
 57127  1  0  0  0
 58128  1  0  0  0
 59 60  1  0  0  0
 59 61  1  0  0  0
 59 62  1  0  0  0
 60129  1  0  0  0
 60130  1  0  0  0
 60131  1  0  0  0
 61132  1  0  0  0
 61133  1  0  0  0
 61134  1  0  0  0
 62135  1  0  0  0
 62136  1  0  0  0
 62137  1  0  0  0
 63 65  1  0  0  0
 63138  1  0  0  0
 63139  1  0  0  0
 63140  1  0  0  0
 64141  1  0  0  0
 65142  1  0  0  0
 68 81  1  0  0  0
 71 72  2  0  0  0
 71 73  1  0  0  0
 71143  1  0  0  0
 72 75  1  0  0  0
 72144  1  0  0  0
 73 76  2  0  0  0
 73145  1  0  0  0
 74 75  2  0  0  0
 74 76  1  0  0  0
 74146  1  0  0  0
 75 77  1  0  0  0
 76 83  1  0  0  0
 77 82  2  0  0  0
 78 79  1  0  0  0
 78 80  1  0  0  0
 78147  1  0  0  0
 78148  1  0  0  0
 79 81  1  0  0  0
 79149  1  0  0  0
 79150  1  0  0  0
 80 83  1  0  0  0
 80151  1  0  0  0
 80152  1  0  0  0
 81153  1  0  0  0
 81154  1  0  0  0
 82155  1  0  0  0
M  ISO  4   1 100  68 101  77 100  81 101
M  END
> <chiral flag>
0

> <version>
0

> <s_m_source_file>
/data/baiqing/PycharmProjects/Reinvent-master-3.2/result/LINK_invent/BTK/process_docking_weight1_custom_product_contain_oxygen_bond_distance_aromatic_linkinvent_7_9_3/rearranged_h_0104.sdf

> <i_m_source_file_index>
47

> <r_mmod_Potential_Energy-OPLS-2005>
136.579605102539

> <r_mmod_Stretch_Energy-OPLS-2005>
52.3718452453613

> <r_mmod_Bend_Energy-OPLS-2005>
124.706832885742

> <r_mmod_Torsional_Energy-OPLS-2005>
216.816101074219

> <r_mmod_Improper_Torsional_Energy-OPLS-2005>
2.20564794540405

> <r_mmod_Van_der_Waal_Energy-OPLS-2005>
163.184494018555

> <r_mmod_Electrostatic_Energy-OPLS-2005>
-243.684906005859

> <r_mmod_Solvation_Energy-OPLS-2005>
-193.159088134766

> <b_mmod_Minimization_Converged-OPLS-2005>
0

> <r_mmod_RMS_Derivative-OPLS-2005>
3.20399212837219

$$$$
48
                    3D
 Structure written by MMmdl.
166175  0  0  1  0            999 V2000
  -30.8103  -14.3740   20.6860 C   0  0  0  0  0  0
  -30.4067  -12.2978   19.4142 C   0  0  0  0  0  0
  -29.4806  -12.5122   18.2048 C   0  0  0  0  0  0
  -28.0097  -12.3579   18.6256 C   0  0  0  0  0  0
  -27.6608  -13.2108   19.8723 C   0  0  2  0  0  0
  -28.7001  -13.0112   20.9997 C   0  0  0  0  0  0
  -25.2569  -13.8179   20.5682 C   0  0  0  0  0  0
  -24.1821  -13.0449   20.9176 C   0  0  0  0  0  0
  -24.6388  -11.6919   20.8730 C   0  0  0  0  0  0
  -23.9063  -10.4299   21.0399 C   0  0  0  0  0  0
  -24.3616   -9.4225   21.9180 C   0  0  0  0  0  0
  -23.6293   -8.2257   22.0751 C   0  0  0  0  0  0
  -22.4274   -8.0289   21.3544 C   0  0  0  0  0  0
  -21.9925   -9.0255   20.4626 C   0  0  0  0  0  0
  -22.7247  -10.2131   20.3033 C   0  0  0  0  0  0
  -21.6850   -6.0745   22.5285 C   0  0  0  0  0  0
  -21.4002   -6.5646   23.8220 C   0  0  0  0  0  0
  -21.3655   -5.6793   24.9181 C   0  0  0  0  0  0
  -21.6054   -4.3061   24.7218 C   0  0  0  0  0  0
  -21.8817   -3.8154   23.4336 C   0  0  0  0  0  0
  -21.9189   -4.6971   22.3400 C   0  0  0  0  0  0
  -22.7842  -13.5241   21.1845 C   0  0  0  0  0  0
  -22.1662   -4.2163   21.0973 F   0  0  0  0  0  0
  -21.5630   -3.4538   25.7729 F   0  0  0  0  0  0
  -30.0485  -13.2710   20.4600 N   0  0  0  0  0  0
  -26.3013  -12.9364   20.3369 N   0  0  0  0  0  0
  -25.9316  -11.6515   20.5779 N   0  0  0  0  0  0
  -22.0469  -12.8192   22.0360 N   0  0  0  0  0  0
  -25.4311  -15.1885   20.4082 N   0  0  0  0  0  0
  -31.8044  -14.6479   20.0076 O   0  0  0  0  0  0
  -21.6636   -6.8887   21.4245 O   0  0  0  0  0  0
  -22.3539  -14.5580   20.6750 O   0  0  0  0  0  0
  -24.6114  -31.8692   23.2123 C   0  0  0  0  0  0
  -25.9012  -32.4848   23.8394 C   0  0  1  0  0  0
  -27.2407  -27.4602   20.0977 C   0  0  0  0  0  0
  -25.5911  -33.8650   24.2357 N   0  0  0  0  0  0
  -23.4008  -30.4904   21.5517 C   0  0  2  0  0  0
  -24.8511  -28.9549   20.1205 C   0  0  0  0  0  0
  -22.7393  -29.4649   22.4997 C   0  0  0  0  0  0
  -18.0274  -28.1402   22.8505 C   0  0  0  0  0  0
  -24.1484  -36.7269   23.2634 C   0  0  0  0  0  0
  -25.9221  -30.8466   21.3547 C   0  0  0  0  0  0
  -26.0052  -29.4735   20.7202 C   0  0  0  0  0  0
  -27.2056  -28.7278   20.7186 C   0  0  0  0  0  0
  -26.0761  -26.9518   19.4901 C   0  0  0  0  0  0
  -24.8758  -27.6899   19.5078 C   0  0  0  0  0  0
  -23.6088  -29.8167   20.1678 C   0  0  0  0  0  0
  -25.4113  -36.3124   24.0358 C   0  0  1  0  0  0
  -20.5867  -28.3654   23.1348 C   0  0  2  0  0  0
  -20.6765  -26.9404   22.5432 C   0  0  0  0  0  0
  -19.5765  -26.6426   21.5207 C   0  0  0  0  0  0
  -18.1925  -26.7985   22.1590 C   0  0  0  0  0  0
  -19.1524  -28.8839   23.2935 C   0  0  0  0  0  0
  -18.9463  -30.1458   23.8929 C   0  0  0  0  0  0
  -17.6466  -30.6608   24.0587 C   0  0  0  0  0  0
  -25.9031  -34.9492   23.5147 C   0  0  0  0  0  0
  -16.5344  -29.9126   23.6352 C   0  0  0  0  0  0
  -16.7262  -28.6550   23.0343 C   0  0  0  0  0  0
  -26.4487  -31.6598   25.0672 C   0  0  0  0  0  0
  -25.3789  -31.3680   26.1433 C   0  0  0  0  0  0
  -27.0301  -30.3081   24.5921 C   0  0  0  0  0  0
  -27.6083  -32.4291   25.7445 C   0  0  0  0  0  0
  -27.5582  -37.1800   24.8481 C   0  0  0  0  0  0
  -21.4115  -29.3033   22.3749 N   0  0  0  0  0  0
  -26.4295  -37.3803   23.9428 N   0  0  0  0  0  0
  -24.6641  -31.0805   22.1011 N   0  0  0  0  0  0
  -23.4181  -28.8143   23.2988 O   0  0  0  0  0  0
  -28.3958  -26.7258   19.9997 O   0  0  0  0  0  0
  -26.5539  -34.8936   22.4684 O   0  0  0  0  0  0
  -23.5309  -32.1423   23.7524 O   0  0  0  0  0  0
  -31.4770  -19.9147   22.5000 C   0  0  0  0  0  0
  -31.8564  -18.5696   22.3161 C   0  0  0  0  0  0
  -29.1990  -19.2020   22.9708 C   0  0  0  0  0  0
  -30.1457  -20.2423   22.8358 C   0  0  0  0  0  0
  -30.9181  -17.5221   22.4810 C   0  0  0  0  0  0
  -29.5817  -17.8521   22.8082 C   0  0  0  0  0  0
  -27.9693  -23.8062   20.8252 C   0  0  0  0  0  0
  -28.4995  -22.3848   21.0514 C   0  0  0  0  0  0
  -29.2144  -24.6845   20.9521 C   0  0  2  0  0  0
  -30.0110  -23.9623   22.0564 C   0  0  2  0  0  0
  -31.5232  -24.2671   22.0140 C   0  0  0  0  0  0
  -31.4021  -16.0728   22.4095 C   0  0  0  0  0  0
  -29.7635  -21.6987   23.1022 C   0  0  0  0  0  0
  -28.9055  -26.1759   21.2096 C   0  0  0  0  0  0
  -30.5035  -15.0973   21.7725 N   0  0  0  0  0  0
  -29.7379  -22.5138   21.8596 N   0  3  1  0  0  0
  -28.6649  -16.8733   23.0064 F   0  0  0  0  0  0
  -31.4527  -12.3754   19.1116 H   0  0  0  0  0  0
  -30.2916  -11.2859   19.8062 H   0  0  0  0  0  0
  -29.7198  -11.7973   17.4161 H   0  0  0  0  0  0
  -29.6435  -13.5053   17.7842 H   0  0  0  0  0  0
  -27.8343  -11.3014   18.8351 H   0  0  0  0  0  0
  -27.3516  -12.6155   17.7951 H   0  0  0  0  0  0
  -27.7053  -14.2552   19.5608 H   0  0  0  0  0  0
  -28.6558  -11.9897   21.3803 H   0  0  0  0  0  0
  -28.4465  -13.6535   21.8432 H   0  0  0  0  0  0
  -25.2757   -9.5703   22.4761 H   0  0  0  0  0  0
  -23.9996   -7.4644   22.7468 H   0  0  0  0  0  0
  -21.0871   -8.8764   19.8910 H   0  0  0  0  0  0
  -22.3730  -10.9656   19.6117 H   0  0  0  0  0  0
  -21.1976   -7.6150   23.9730 H   0  0  0  0  0  0
  -21.1479   -6.0517   25.9089 H   0  0  0  0  0  0
  -22.0587   -2.7613   23.2822 H   0  0  0  0  0  0
  -22.4051  -11.9797   22.4657 H   0  0  0  0  0  0
  -21.1079  -13.1187   22.2550 H   0  0  0  0  0  0
  -24.6750  -15.8530   20.5320 H   0  0  0  0  0  0
  -26.2997  -15.6257   20.1266 H   0  0  0  0  0  0
  -26.7066  -32.5570   23.1139 H   0  0  0  0  0  0
  -25.0237  -33.9866   25.0622 H   0  0  0  0  0  0
  -22.6915  -31.3082   21.4064 H   0  0  0  0  0  0
  -23.3786  -35.9556   23.3311 H   0  0  0  0  0  0
  -24.3580  -36.8843   22.2041 H   0  0  0  0  0  0
  -23.7181  -37.6471   23.6599 H   0  0  0  0  0  0
  -26.0056  -31.6020   20.5721 H   0  0  0  0  0  0
  -26.8216  -30.9222   21.9527 H   0  0  0  0  0  0
  -28.1024  -29.1324   21.1692 H   0  0  0  0  0  0
  -26.1029  -25.9887   19.0002 H   0  0  0  0  0  0
  -23.9878  -27.2872   19.0407 H   0  0  0  0  0  0
  -23.7110  -30.5904   19.4064 H   0  0  0  0  0  0
  -22.7385  -29.2270   19.8750 H   0  0  0  0  0  0
  -25.1297  -36.1977   25.0849 H   0  0  0  0  0  0
  -20.9967  -28.3186   24.1462 H   0  0  0  0  0  0
  -20.5670  -26.2247   23.3594 H   0  0  0  0  0  0
  -21.6626  -26.7469   22.1187 H   0  0  0  0  0  0
  -19.6951  -25.6358   21.1185 H   0  0  0  0  0  0
  -19.6765  -27.3281   20.6775 H   0  0  0  0  0  0
  -17.4243  -26.6800   21.3934 H   0  0  0  0  0  0
  -18.0272  -26.0100   22.8937 H   0  0  0  0  0  0
  -19.7942  -30.7275   24.2269 H   0  0  0  0  0  0
  -17.5036  -31.6292   24.5196 H   0  0  0  0  0  0
  -15.5348  -30.3019   23.7713 H   0  0  0  0  0  0
  -15.8662  -28.0894   22.6990 H   0  0  0  0  0  0
  -24.6125  -30.6797   25.7840 H   0  0  0  0  0  0
  -24.8760  -32.2791   26.4678 H   0  0  0  0  0  0
  -25.8215  -30.9114   27.0290 H   0  0  0  0  0  0
  -26.2797  -29.6854   24.1036 H   0  0  0  0  0  0
  -27.4236  -29.7267   25.4256 H   0  0  0  0  0  0
  -27.8537  -30.4471   23.8924 H   0  0  0  0  0  0
  -27.2754  -33.3640   26.1954 H   0  0  0  0  0  0
  -28.3949  -32.6752   25.0304 H   0  0  0  0  0  0
  -28.0662  -31.8429   26.5417 H   0  0  0  0  0  0
  -28.2598  -38.0097   24.7501 H   0  0  0  0  0  0
  -28.1068  -36.2619   24.6314 H   0  0  0  0  0  0
  -27.2294  -37.1435   25.8884 H   0  0  0  0  0  0
  -20.9246  -29.8772   21.7011 H   0  0  0  0  0  0
  -26.0185  -38.2875   24.1454 H   0  0  0  0  0  0
  -32.2250  -20.6924   22.4049 H   0  0  0  0  0  0
  -32.8893  -18.3469   22.0837 H   0  0  0  0  0  0
  -28.1757  -19.4229   23.2388 H   0  0  0  0  0  0
  -27.2467  -24.0605   21.6039 H   0  0  0  0  0  0
  -27.4678  -23.9158   19.8632 H   0  0  0  0  0  0
  -28.7648  -21.9262   20.0987 H   0  0  0  0  0  0
  -27.7431  -21.7487   21.5137 H   0  0  0  0  0  0
  -29.7783  -24.6045   20.0195 H   0  0  0  0  0  0
  -29.6015  -24.2658   23.0228 H   0  0  0  0  0  0
  -31.9738  -23.9662   21.0678 H   0  0  0  0  0  0
  -32.0583  -23.7525   22.8123 H   0  0  0  0  0  0
  -31.7174  -25.3325   22.1378 H   0  0  0  0  0  0
  -31.5641  -15.7352   23.4344 H   0  0  0  0  0  0
  -32.3925  -16.0568   21.9484 H   0  0  0  0  0  0
  -30.5015  -22.1053   23.7956 H   0  0  0  0  0  0
  -28.8094  -21.7705   23.6260 H   0  0  0  0  0  0
  -29.8130  -26.7209   21.4717 H   0  0  0  0  0  0
  -28.2096  -26.2903   22.0446 H   0  0  0  0  0  0
  -29.6687  -14.8445   22.2799 H   0  0  0  0  0  0
  -30.4817  -22.1610   21.2792 H   0  0  0  0  0  0
  1 25  1  0  0  0
  1 30  2  0  0  0
  1 85  1  0  0  0
  2  3  1  0  0  0
  2 25  1  0  0  0
  2 88  1  0  0  0
  2 89  1  0  0  0
  3  4  1  0  0  0
  3 90  1  0  0  0
  3 91  1  0  0  0
  4  5  1  0  0  0
  4 92  1  0  0  0
  4 93  1  0  0  0
  5  6  1  0  0  0
  5 26  1  0  0  0
  5 94  1  0  0  0
  6 25  1  0  0  0
  6 95  1  0  0  0
  6 96  1  0  0  0
  7  8  2  0  0  0
  7 26  1  0  0  0
  7 29  1  0  0  0
  8  9  1  0  0  0
  8 22  1  0  0  0
  9 10  1  0  0  0
  9 27  2  0  0  0
 10 11  2  0  0  0
 10 15  1  0  0  0
 11 12  1  0  0  0
 11 97  1  0  0  0
 12 13  2  0  0  0
 12 98  1  0  0  0
 13 14  1  0  0  0
 13 31  1  0  0  0
 14 15  2  0  0  0
 14 99  1  0  0  0
 15100  1  0  0  0
 16 17  2  0  0  0
 16 21  1  0  0  0
 16 31  1  0  0  0
 17 18  1  0  0  0
 17101  1  0  0  0
 18 19  2  0  0  0
 18102  1  0  0  0
 19 20  1  0  0  0
 19 24  1  0  0  0
 20 21  2  0  0  0
 20103  1  0  0  0
 21 23  1  0  0  0
 22 28  1  0  0  0
 22 32  2  0  0  0
 26 27  1  0  0  0
 28104  1  0  0  0
 28105  1  0  0  0
 29106  1  0  0  0
 29107  1  0  0  0
 33 34  1  0  0  0
 33 66  1  0  0  0
 33 70  2  0  0  0
 34 36  1  0  0  0
 34 59  1  0  0  0
 34108  1  0  0  0
 35 44  2  0  0  0
 35 45  1  0  0  0
 35 68  1  0  0  0
 36 56  1  0  0  0
 36109  1  0  0  0
 37 39  1  0  0  0
 37 47  1  0  0  0
 37 66  1  0  0  0
 37110  1  0  0  0
 38 43  2  0  0  0
 38 46  1  0  0  0
 38 47  1  0  0  0
 39 64  1  0  0  0
 39 67  2  0  0  0
 40 52  1  0  0  0
 40 53  2  0  0  0
 40 58  1  0  0  0
 41111  1  0  0  0
 41112  1  0  0  0
 41113  1  0  0  0
 41 48  1  0  0  0
 42 43  1  0  0  0
 42 66  1  0  0  0
 42114  1  0  0  0
 42115  1  0  0  0
 43 44  1  0  0  0
 44116  1  0  0  0
 45 46  2  0  0  0
 45117  1  0  0  0
 46118  1  0  0  0
 47119  1  0  0  0
 47120  1  0  0  0
 48 56  1  0  0  0
 48 65  1  0  0  0
 48121  1  0  0  0
 49 50  1  0  0  0
 49 53  1  0  0  0
 49 64  1  0  0  0
 49122  1  0  0  0
 50 51  1  0  0  0
 50123  1  0  0  0
 50124  1  0  0  0
 51 52  1  0  0  0
 51125  1  0  0  0
 51126  1  0  0  0
 52127  1  0  0  0
 52128  1  0  0  0
 53 54  1  0  0  0
 54 55  2  0  0  0
 54129  1  0  0  0
 55 57  1  0  0  0
 55130  1  0  0  0
 56 69  2  0  0  0
 57 58  2  0  0  0
 57131  1  0  0  0
 58132  1  0  0  0
 59 60  1  0  0  0
 59 61  1  0  0  0
 59 62  1  0  0  0
 60133  1  0  0  0
 60134  1  0  0  0
 60135  1  0  0  0
 61136  1  0  0  0
 61137  1  0  0  0
 61138  1  0  0  0
 62139  1  0  0  0
 62140  1  0  0  0
 62141  1  0  0  0
 63 65  1  0  0  0
 63142  1  0  0  0
 63143  1  0  0  0
 63144  1  0  0  0
 64145  1  0  0  0
 65146  1  0  0  0
 68 84  1  0  0  0
 71 72  2  0  0  0
 71 74  1  0  0  0
 71147  1  0  0  0
 72 75  1  0  0  0
 72148  1  0  0  0
 73 74  2  0  0  0
 73 76  1  0  0  0
 73149  1  0  0  0
 74 83  1  0  0  0
 75 76  2  0  0  0
 75 82  1  0  0  0
 76 87  1  0  0  0
 77 78  1  0  0  0
 77 79  1  0  0  0
 77150  1  0  0  0
 77151  1  0  0  0
 78 86  1  0  0  0
 78152  1  0  0  0
 78153  1  0  0  0
 79 80  1  0  0  0
 79 84  1  0  0  0
 79154  1  0  0  0
 80 81  1  0  0  0
 80 86  1  0  0  0
 80155  1  0  0  0
 81156  1  0  0  0
 81157  1  0  0  0
 81158  1  0  0  0
 82 85  1  0  0  0
 82159  1  0  0  0
 82160  1  0  0  0
 83161  1  0  0  0
 83162  1  0  0  0
 83 86  1  0  0  0
 84163  1  0  0  0
 84164  1  0  0  0
 85165  1  0  0  0
 86166  1  0  0  0
M  CHG  1  86   1
M  ISO  4   1 100  68 101  84 101  85 100
M  END
> <chiral flag>
0

> <version>
0

> <s_m_source_file>
/data/baiqing/PycharmProjects/Reinvent-master-3.2/result/LINK_invent/BTK/process_docking_weight1_custom_product_contain_oxygen_bond_distance_aromatic_linkinvent_7_9_3/rearranged_h_0104.sdf

> <i_m_source_file_index>
48

> <r_mmod_Potential_Energy-OPLS-2005>
-147.111312866211

> <r_mmod_Stretch_Energy-OPLS-2005>
34.4939231872559

> <r_mmod_Bend_Energy-OPLS-2005>
114.772972106934

> <r_mmod_Torsional_Energy-OPLS-2005>
278.740478515625

> <r_mmod_Improper_Torsional_Energy-OPLS-2005>
3.22932267189026

> <r_mmod_Van_der_Waal_Energy-OPLS-2005>
141.11376953125

> <r_mmod_Electrostatic_Energy-OPLS-2005>
-293.08203125

> <r_mmod_Solvation_Energy-OPLS-2005>
-434.044128417969

> <b_mmod_Minimization_Converged-OPLS-2005>
0

> <r_mmod_RMS_Derivative-OPLS-2005>
3.25900316238403

$$$$
49
                    3D
 Structure written by MMmdl.
157166  0  0  1  0            999 V2000
  -30.6771  -14.5901   20.4990 C   0  0  0  0  0  0
  -30.4193  -12.3628   19.4544 C   0  0  0  0  0  0
  -29.4991  -12.4989   18.2229 C   0  0  0  0  0  0
  -28.0219  -12.3501   18.6352 C   0  0  0  0  0  0
  -27.6511  -13.2232   19.8647 C   0  0  2  0  0  0
  -28.6946  -13.0920   20.9971 C   0  0  0  0  0  0
  -25.2550  -13.8193   20.5701 C   0  0  0  0  0  0
  -24.1819  -13.0449   20.9191 C   0  0  0  0  0  0
  -24.6392  -11.6919   20.8742 C   0  0  0  0  0  0
  -23.9070  -10.4297   21.0403 C   0  0  0  0  0  0
  -24.3616   -9.4216   21.9186 C   0  0  0  0  0  0
  -23.6288   -8.2250   22.0765 C   0  0  0  0  0  0
  -22.4281   -8.0279   21.3543 C   0  0  0  0  0  0
  -21.9913   -9.0252   20.4648 C   0  0  0  0  0  0
  -22.7237  -10.2129   20.3053 C   0  0  0  0  0  0
  -21.6852   -6.0736   22.5279 C   0  0  0  0  0  0
  -21.4008   -6.5636   23.8213 C   0  0  0  0  0  0
  -21.3659   -5.6786   24.9169 C   0  0  0  0  0  0
  -21.6045   -4.3054   24.7218 C   0  0  0  0  0  0
  -21.8820   -3.8146   23.4339 C   0  0  0  0  0  0
  -21.9191   -4.6966   22.3400 C   0  0  0  0  0  0
  -22.7843  -13.5237   21.1847 C   0  0  0  0  0  0
  -22.1662   -4.2149   21.0979 F   0  0  0  0  0  0
  -21.5629   -3.4546   25.7733 F   0  0  0  0  0  0
  -30.0139  -13.3964   20.4279 N   0  0  0  0  0  0
  -26.2979  -12.9381   20.3341 N   0  0  0  0  0  0
  -25.9324  -11.6528   20.5767 N   0  0  0  0  0  0
  -22.0480  -12.8217   22.0387 N   0  0  0  0  0  0
  -25.4268  -15.1915   20.4134 N   0  0  0  0  0  0
  -31.8441  -14.6975   20.1138 O   0  0  0  0  0  0
  -21.6642   -6.8879   21.4241 O   0  0  0  0  0  0
  -22.3533  -14.5547   20.6708 O   0  0  0  0  0  0
  -24.6226  -31.8610   23.2052 C   0  0  0  0  0  0
  -25.9085  -32.4788   23.8374 C   0  0  1  0  0  0
  -27.2349  -27.3656   20.1155 C   0  0  0  0  0  0
  -25.5899  -33.8589   24.2293 N   0  0  0  0  0  0
  -23.4154  -30.4842   21.5451 C   0  0  2  0  0  0
  -24.8668  -28.9400   20.1154 C   0  0  0  0  0  0
  -22.7449  -29.4637   22.4947 C   0  0  0  0  0  0
  -18.0270  -28.1399   22.8496 C   0  0  0  0  0  0
  -24.1483  -36.7302   23.2640 C   0  0  0  0  0  0
  -25.9512  -30.8053   21.3691 C   0  0  0  0  0  0
  -26.0306  -29.4332   20.7206 C   0  0  0  0  0  0
  -27.2206  -28.6536   20.7218 C   0  0  0  0  0  0
  -26.0571  -26.9084   19.4938 C   0  0  0  0  0  0
  -24.8763  -27.6776   19.4992 C   0  0  0  0  0  0
  -23.6306  -29.8142   20.1620 C   0  0  0  0  0  0
  -25.4104  -36.3089   24.0342 C   0  0  1  0  0  0
  -20.5870  -28.3693   23.1296 C   0  0  2  0  0  0
  -20.6773  -26.9421   22.5411 C   0  0  0  0  0  0
  -19.5746  -26.6397   21.5214 C   0  0  0  0  0  0
  -18.1919  -26.7942   22.1621 C   0  0  0  0  0  0
  -19.1526  -28.8862   23.2894 C   0  0  0  0  0  0
  -18.9449  -30.1460   23.8913 C   0  0  0  0  0  0
  -17.6454  -30.6600   24.0578 C   0  0  0  0  0  0
  -25.9041  -34.9457   23.5124 C   0  0  0  0  0  0
  -16.5344  -29.9102   23.6351 C   0  0  0  0  0  0
  -16.7259  -28.6524   23.0368 C   0  0  0  0  0  0
  -26.4477  -31.6591   25.0728 C   0  0  0  0  0  0
  -25.3723  -31.3691   26.1457 C   0  0  0  0  0  0
  -27.0328  -30.3035   24.6145 C   0  0  0  0  0  0
  -27.6029  -32.4331   25.7500 C   0  0  0  0  0  0
  -27.5571  -37.1796   24.8463 C   0  0  0  0  0  0
  -21.4164  -29.3049   22.3690 N   0  0  0  0  0  0
  -26.4278  -37.3789   23.9421 N   0  0  0  0  0  0
  -24.6818  -31.0655   22.0982 N   0  0  0  0  0  0
  -23.4178  -28.8179   23.3024 O   0  0  0  0  0  0
  -28.3276  -26.5060   20.0940 O   0  0  0  0  0  0
  -26.5607  -34.8922   22.4684 O   0  0  0  0  0  0
  -23.5395  -32.1381   23.7406 O   0  0  0  0  0  0
  -28.6516  -19.8077   22.5537 C   0  0  0  0  0  0
  -29.0106  -18.4490   22.2435 C   0  0  0  0  0  0
  -29.7063  -18.3287   21.0594 C   0  0  0  0  0  0
  -29.0324  -20.7632   21.6359 C   0  0  0  0  0  0
  -28.9513  -24.5861   21.5809 C   0  0  0  0  0  0
  -28.6720  -25.8967   21.2883 C   0  0  0  0  0  0
  -29.2655  -24.1790   22.9999 C   0  0  0  0  0  0
  -28.9278  -23.2626   20.7719 C   0  0  0  0  0  0
  -28.7457  -22.7480   23.1196 C   0  0  0  0  0  0
  -28.6733  -17.3049   23.1547 C   0  0  0  0  0  0
  -30.3747  -17.0970   20.4152 C   0  0  0  0  0  0
  -28.8456  -22.1745   21.7834 N   0  0  0  0  0  0
  -29.9470  -15.7079   20.7803 N   0  0  0  0  0  0
  -29.8490  -19.9408   20.3091 S   0  0  0  0  0  0
  -31.4641  -12.4543   19.1543 H   0  0  0  0  0  0
  -30.3231  -11.3699   19.8964 H   0  0  0  0  0  0
  -29.7543  -11.7463   17.4750 H   0  0  0  0  0  0
  -29.6540  -13.4690   17.7464 H   0  0  0  0  0  0
  -27.8515  -11.2970   18.8643 H   0  0  0  0  0  0
  -27.3687  -12.5862   17.7938 H   0  0  0  0  0  0
  -27.6680  -14.2575   19.5204 H   0  0  0  0  0  0
  -28.6896  -12.0822   21.4113 H   0  0  0  0  0  0
  -28.4538  -13.7599   21.8255 H   0  0  0  0  0  0
  -25.2757   -9.5690   22.4767 H   0  0  0  0  0  0
  -23.9993   -7.4647   22.7493 H   0  0  0  0  0  0
  -21.0845   -8.8756   19.8954 H   0  0  0  0  0  0
  -22.3691  -10.9661   19.6164 H   0  0  0  0  0  0
  -21.1997   -7.6145   23.9705 H   0  0  0  0  0  0
  -21.1483   -6.0526   25.9068 H   0  0  0  0  0  0
  -22.0599   -2.7610   23.2839 H   0  0  0  0  0  0
  -22.4089  -11.9860   22.4744 H   0  0  0  0  0  0
  -21.1092  -13.1235   22.2587 H   0  0  0  0  0  0
  -24.6597  -15.8458   20.5222 H   0  0  0  0  0  0
  -26.2756  -15.6304   20.0808 H   0  0  0  0  0  0
  -26.7161  -32.5476   23.1129 H   0  0  0  0  0  0
  -25.0028  -33.9750   25.0430 H   0  0  0  0  0  0
  -22.7083  -31.3030   21.3994 H   0  0  0  0  0  0
  -23.3753  -35.9623   23.3294 H   0  0  0  0  0  0
  -24.3559  -36.8934   22.2051 H   0  0  0  0  0  0
  -23.7242  -37.6509   23.6661 H   0  0  0  0  0  0
  -26.0694  -31.5651   20.5943 H   0  0  0  0  0  0
  -26.8374  -30.8617   21.9896 H   0  0  0  0  0  0
  -28.1178  -29.0275   21.1960 H   0  0  0  0  0  0
  -26.0524  -25.9354   19.0238 H   0  0  0  0  0  0
  -23.9809  -27.2907   19.0328 H   0  0  0  0  0  0
  -23.7448  -30.5881   19.4018 H   0  0  0  0  0  0
  -22.7525  -29.2368   19.8663 H   0  0  0  0  0  0
  -25.1287  -36.1925   25.0838 H   0  0  0  0  0  0
  -20.9955  -28.3264   24.1416 H   0  0  0  0  0  0
  -20.5697  -26.2303   23.3607 H   0  0  0  0  0  0
  -21.6644  -26.7472   22.1182 H   0  0  0  0  0  0
  -19.6924  -25.6309   21.1233 H   0  0  0  0  0  0
  -19.6696  -27.3231   20.6761 H   0  0  0  0  0  0
  -17.4197  -26.6714   21.4010 H   0  0  0  0  0  0
  -18.0308  -26.0074   22.9008 H   0  0  0  0  0  0
  -19.7928  -30.7280   24.2287 H   0  0  0  0  0  0
  -17.5013  -31.6280   24.5180 H   0  0  0  0  0  0
  -15.5356  -30.3018   23.7677 H   0  0  0  0  0  0
  -15.8652  -28.0856   22.7088 H   0  0  0  0  0  0
  -24.5942  -30.6987   25.7787 H   0  0  0  0  0  0
  -24.8863  -32.2837   26.4864 H   0  0  0  0  0  0
  -25.8072  -30.8897   27.0237 H   0  0  0  0  0  0
  -26.2894  -29.6780   24.1190 H   0  0  0  0  0  0
  -27.4086  -29.7279   25.4614 H   0  0  0  0  0  0
  -27.8729  -30.4365   23.9324 H   0  0  0  0  0  0
  -27.2654  -33.3665   26.2012 H   0  0  0  0  0  0
  -28.3869  -32.6834   25.0344 H   0  0  0  0  0  0
  -28.0658  -31.8500   26.5466 H   0  0  0  0  0  0
  -28.2567  -38.0111   24.7519 H   0  0  0  0  0  0
  -28.1084  -36.2639   24.6263 H   0  0  0  0  0  0
  -27.2281  -37.1423   25.8862 H   0  0  0  0  0  0
  -20.9334  -29.8749   21.6886 H   0  0  0  0  0  0
  -26.0155  -38.2863   24.1429 H   0  0  0  0  0  0
  -28.1277  -20.0363   23.4722 H   0  0  0  0  0  0
  -28.7327  -26.6385   22.0736 H   0  0  0  0  0  0
  -28.8398  -24.8519   23.7455 H   0  0  0  0  0  0
  -30.3495  -24.1857   23.1236 H   0  0  0  0  0  0
  -29.8418  -23.1606   20.1847 H   0  0  0  0  0  0
  -28.0744  -23.2414   20.0926 H   0  0  0  0  0  0
  -27.6985  -22.7523   23.4288 H   0  0  0  0  0  0
  -29.3117  -22.1851   23.8640 H   0  0  0  0  0  0
  -28.2769  -17.6534   24.1089 H   0  0  0  0  0  0
  -29.5475  -16.6931   23.3796 H   0  0  0  0  0  0
  -27.9166  -16.6579   22.7103 H   0  0  0  0  0  0
  -31.4477  -17.1824   20.5951 H   0  0  0  0  0  0
  -30.2658  -17.1803   19.3329 H   0  0  0  0  0  0
  -28.9871  -15.5728   21.0521 H   0  0  0  0  0  0
  1 25  1  0  0  0
  1 30  2  0  0  0
  1 83  1  0  0  0
  2  3  1  0  0  0
  2 25  1  0  0  0
  2 85  1  0  0  0
  2 86  1  0  0  0
  3  4  1  0  0  0
  3 87  1  0  0  0
  3 88  1  0  0  0
  4  5  1  0  0  0
  4 89  1  0  0  0
  4 90  1  0  0  0
  5  6  1  0  0  0
  5 26  1  0  0  0
  5 91  1  0  0  0
  6 25  1  0  0  0
  6 92  1  0  0  0
  6 93  1  0  0  0
  7  8  2  0  0  0
  7 26  1  0  0  0
  7 29  1  0  0  0
  8  9  1  0  0  0
  8 22  1  0  0  0
  9 10  1  0  0  0
  9 27  2  0  0  0
 10 11  2  0  0  0
 10 15  1  0  0  0
 11 12  1  0  0  0
 11 94  1  0  0  0
 12 13  2  0  0  0
 12 95  1  0  0  0
 13 14  1  0  0  0
 13 31  1  0  0  0
 14 15  2  0  0  0
 14 96  1  0  0  0
 15 97  1  0  0  0
 16 17  2  0  0  0
 16 21  1  0  0  0
 16 31  1  0  0  0
 17 18  1  0  0  0
 17 98  1  0  0  0
 18 19  2  0  0  0
 18 99  1  0  0  0
 19 20  1  0  0  0
 19 24  1  0  0  0
 20 21  2  0  0  0
 20100  1  0  0  0
 21 23  1  0  0  0
 22 28  1  0  0  0
 22 32  2  0  0  0
 26 27  1  0  0  0
 28101  1  0  0  0
 28102  1  0  0  0
 29103  1  0  0  0
 29104  1  0  0  0
 33 34  1  0  0  0
 33 66  1  0  0  0
 33 70  2  0  0  0
 34 36  1  0  0  0
 34 59  1  0  0  0
 34105  1  0  0  0
 35 44  2  0  0  0
 35 45  1  0  0  0
 35 68  1  0  0  0
 36 56  1  0  0  0
 36106  1  0  0  0
 37 39  1  0  0  0
 37 47  1  0  0  0
 37 66  1  0  0  0
 37107  1  0  0  0
 38 43  2  0  0  0
 38 46  1  0  0  0
 38 47  1  0  0  0
 39 64  1  0  0  0
 39 67  2  0  0  0
 40 52  1  0  0  0
 40 53  2  0  0  0
 40 58  1  0  0  0
 41108  1  0  0  0
 41109  1  0  0  0
 41110  1  0  0  0
 41 48  1  0  0  0
 42 43  1  0  0  0
 42 66  1  0  0  0
 42111  1  0  0  0
 42112  1  0  0  0
 43 44  1  0  0  0
 44113  1  0  0  0
 45 46  2  0  0  0
 45114  1  0  0  0
 46115  1  0  0  0
 47116  1  0  0  0
 47117  1  0  0  0
 48 56  1  0  0  0
 48 65  1  0  0  0
 48118  1  0  0  0
 49 50  1  0  0  0
 49 53  1  0  0  0
 49 64  1  0  0  0
 49119  1  0  0  0
 50 51  1  0  0  0
 50120  1  0  0  0
 50121  1  0  0  0
 51 52  1  0  0  0
 51122  1  0  0  0
 51123  1  0  0  0
 52124  1  0  0  0
 52125  1  0  0  0
 53 54  1  0  0  0
 54 55  2  0  0  0
 54126  1  0  0  0
 55 57  1  0  0  0
 55127  1  0  0  0
 56 69  2  0  0  0
 57 58  2  0  0  0
 57128  1  0  0  0
 58129  1  0  0  0
 59 60  1  0  0  0
 59 61  1  0  0  0
 59 62  1  0  0  0
 60130  1  0  0  0
 60131  1  0  0  0
 60132  1  0  0  0
 61133  1  0  0  0
 61134  1  0  0  0
 61135  1  0  0  0
 62136  1  0  0  0
 62137  1  0  0  0
 62138  1  0  0  0
 63 65  1  0  0  0
 63139  1  0  0  0
 63140  1  0  0  0
 63141  1  0  0  0
 64142  1  0  0  0
 65143  1  0  0  0
 68 76  1  0  0  0
 71 72  1  0  0  0
 71 74  2  0  0  0
 71144  1  0  0  0
 72 73  2  0  0  0
 72 80  1  0  0  0
 73 81  1  0  0  0
 73 84  1  0  0  0
 74 82  1  0  0  0
 74 84  1  0  0  0
 75 76  2  0  0  0
 75 77  1  0  0  0
 75 78  1  0  0  0
 76145  1  0  0  0
 77 79  1  0  0  0
 77146  1  0  0  0
 77147  1  0  0  0
 78 82  1  0  0  0
 78148  1  0  0  0
 78149  1  0  0  0
 79 82  1  0  0  0
 79150  1  0  0  0
 79151  1  0  0  0
 80152  1  0  0  0
 80153  1  0  0  0
 80154  1  0  0  0
 81 83  1  0  0  0
 81155  1  0  0  0
 81156  1  0  0  0
 83157  1  0  0  0
M  ISO  4   1 100  68 101  76 101  83 100
M  END
> <chiral flag>
0

> <version>
0

> <s_m_source_file>
/data/baiqing/PycharmProjects/Reinvent-master-3.2/result/LINK_invent/BTK/process_docking_weight1_custom_product_contain_oxygen_bond_distance_aromatic_linkinvent_7_9_3/rearranged_h_0104.sdf

> <i_m_source_file_index>
49

> <r_mmod_Potential_Energy-OPLS-2005>
24.336555480957

> <r_mmod_Stretch_Energy-OPLS-2005>
56.7677154541016

> <r_mmod_Bend_Energy-OPLS-2005>
184.958572387695

> <r_mmod_Torsional_Energy-OPLS-2005>
232.846710205078

> <r_mmod_Improper_Torsional_Energy-OPLS-2005>
6.33855628967285

> <r_mmod_Van_der_Waal_Energy-OPLS-2005>
114.004623413086

> <r_mmod_Electrostatic_Energy-OPLS-2005>
-380.013092041016

> <r_mmod_Solvation_Energy-OPLS-2005>
-225.63346862793

> <b_mmod_Minimization_Converged-OPLS-2005>
0

> <r_mmod_RMS_Derivative-OPLS-2005>
2.04638934135437

$$$$
50
                    3D
 Structure written by MMmdl.
168177  0  0  1  0            999 V2000
  -30.7295  -14.4859   20.6025 C   0  0  0  0  0  0
  -30.4276  -12.3315   19.4315 C   0  0  0  0  0  0
  -29.4995  -12.5049   18.2135 C   0  0  0  0  0  0
  -28.0243  -12.3556   18.6318 C   0  0  0  0  0  0
  -27.6633  -13.2110   19.8749 C   0  0  2  0  0  0
  -28.7065  -13.0202   20.9982 C   0  0  0  0  0  0
  -25.2601  -13.8179   20.5684 C   0  0  0  0  0  0
  -24.1841  -13.0429   20.9159 C   0  0  0  0  0  0
  -24.6408  -11.6901   20.8726 C   0  0  0  0  0  0
  -23.9059  -10.4279   21.0385 C   0  0  0  0  0  0
  -24.3604   -9.4198   21.9182 C   0  0  0  0  0  0
  -23.6272   -8.2232   22.0755 C   0  0  0  0  0  0
  -22.4261   -8.0265   21.3531 C   0  0  0  0  0  0
  -21.9894   -9.0244   20.4643 C   0  0  0  0  0  0
  -22.7223  -10.2130   20.3044 C   0  0  0  0  0  0
  -21.6867   -6.0713   22.5259 C   0  0  0  0  0  0
  -21.4021   -6.5620   23.8191 C   0  0  0  0  0  0
  -21.3663   -5.6775   24.9160 C   0  0  0  0  0  0
  -21.6047   -4.3044   24.7218 C   0  0  0  0  0  0
  -21.8829   -3.8126   23.4341 C   0  0  0  0  0  0
  -21.9187   -4.6930   22.3387 C   0  0  0  0  0  0
  -22.7875  -13.5234   21.1829 C   0  0  0  0  0  0
  -22.1664   -4.2115   21.0972 F   0  0  0  0  0  0
  -21.5632   -3.4523   25.7733 F   0  0  0  0  0  0
  -30.0316  -13.3275   20.4371 N   0  0  0  0  0  0
  -26.3043  -12.9343   20.3381 N   0  0  0  0  0  0
  -25.9345  -11.6505   20.5774 N   0  0  0  0  0  0
  -22.0531  -12.8200   22.0394 N   0  0  0  0  0  0
  -25.4345  -15.1889   20.4101 N   0  0  0  0  0  0
  -31.8478  -14.6607   20.1130 O   0  0  0  0  0  0
  -21.6638   -6.8856   21.4220 O   0  0  0  0  0  0
  -22.3527  -14.5524   20.6689 O   0  0  0  0  0  0
  -24.6153  -31.8679   23.2077 C   0  0  0  0  0  0
  -25.9025  -32.4850   23.8395 C   0  0  1  0  0  0
  -27.2458  -27.4303   20.1008 C   0  0  0  0  0  0
  -25.5838  -33.8636   24.2338 N   0  0  0  0  0  0
  -23.4055  -30.4863   21.5512 C   0  0  2  0  0  0
  -24.8597  -28.9529   20.1104 C   0  0  0  0  0  0
  -22.7453  -29.4611   22.4999 C   0  0  0  0  0  0
  -18.0281  -28.1349   22.8487 C   0  0  0  0  0  0
  -24.1497  -36.7330   23.2636 C   0  0  0  0  0  0
  -25.9371  -30.8296   21.3652 C   0  0  0  0  0  0
  -26.0196  -29.4672   20.7056 C   0  0  0  0  0  0
  -27.2196  -28.7144   20.6922 C   0  0  0  0  0  0
  -26.0739  -26.9347   19.4940 C   0  0  0  0  0  0
  -24.8808  -27.6856   19.4995 C   0  0  0  0  0  0
  -23.6173  -29.8148   20.1670 C   0  0  0  0  0  0
  -25.4110  -36.3117   24.0326 C   0  0  1  0  0  0
  -20.5865  -28.3643   23.1329 C   0  0  2  0  0  0
  -20.6766  -26.9372   22.5427 C   0  0  0  0  0  0
  -19.5760  -26.6374   21.5187 C   0  0  0  0  0  0
  -18.1942  -26.7900   22.1603 C   0  0  0  0  0  0
  -19.1522  -28.8804   23.2900 C   0  0  0  0  0  0
  -18.9459  -30.1414   23.8900 C   0  0  0  0  0  0
  -17.6467  -30.6570   24.0551 C   0  0  0  0  0  0
  -25.9006  -34.9489   23.5152 C   0  0  0  0  0  0
  -16.5361  -29.9053   23.6316 C   0  0  0  0  0  0
  -16.7256  -28.6468   23.0330 C   0  0  0  0  0  0
  -26.4445  -31.6621   25.0730 C   0  0  0  0  0  0
  -25.3687  -31.3681   26.1483 C   0  0  0  0  0  0
  -27.0314  -30.3074   24.6077 C   0  0  0  0  0  0
  -27.6033  -32.4343   25.7483 C   0  0  0  0  0  0
  -27.5595  -37.1823   24.8452 C   0  0  0  0  0  0
  -21.4178  -29.2984   22.3754 N   0  0  0  0  0  0
  -26.4321  -37.3775   23.9380 N   0  0  0  0  0  0
  -24.6710  -31.0755   22.0986 N   0  0  0  0  0  0
  -23.4237  -28.8188   23.3066 O   0  0  0  0  0  0
  -28.3732  -26.6341   20.1531 O   0  0  0  0  0  0
  -26.5619  -34.8943   22.4744 O   0  0  0  0  0  0
  -23.5359  -32.1466   23.7444 O   0  0  0  0  0  0
  -30.4710  -18.5005   20.2451 C   0  0  0  0  0  0
  -29.8474  -20.3290   22.2607 C   0  0  0  0  0  0
  -30.2839  -19.8704   19.9155 C   0  0  0  0  0  0
  -30.3754  -18.0360   21.5752 C   0  0  0  0  0  0
  -30.0006  -20.8231   20.9432 C   0  0  0  0  0  0
  -30.0224  -18.9580   22.5912 C   0  0  0  0  0  0
  -28.9467  -23.0665   21.2665 C   0  0  0  0  0  0
  -30.4854  -24.5274   20.2156 C   0  0  0  0  0  0
  -31.0317  -23.0901   20.3120 C   0  0  0  0  0  0
  -29.3836  -24.5451   21.2728 C   0  0  1  0  0  0
  -28.9384  -20.3842   17.8417 C   0  0  0  0  0  0
  -29.6549  -19.4097   24.9257 C   0  0  0  0  0  0
  -30.3403  -20.2377   18.4393 C   0  0  0  0  0  0
  -30.8010  -16.5992   21.9390 C   0  0  0  0  0  0
  -28.2640  -25.6325   21.1859 C   0  0  0  0  0  0
  -29.8994  -22.2578   20.7389 N   0  0  0  0  0  0
  -30.1163  -15.4626   21.2984 N   0  0  0  0  0  0
  -27.8473  -22.6978   21.6943 O   0  0  0  0  0  0
  -29.8854  -18.4759   23.8767 O   0  0  0  0  0  0
  -31.4730  -12.4275   19.1305 H   0  0  0  0  0  0
  -30.3320  -11.3301   19.8532 H   0  0  0  0  0  0
  -29.7518  -11.7704   17.4486 H   0  0  0  0  0  0
  -29.6601  -13.4861   17.7620 H   0  0  0  0  0  0
  -27.8520  -11.3026   18.8485 H   0  0  0  0  0  0
  -27.3661  -12.6076   17.8000 H   0  0  0  0  0  0
  -27.7019  -14.2542   19.5634 H   0  0  0  0  0  0
  -28.6968  -11.9910   21.3608 H   0  0  0  0  0  0
  -28.4628  -13.6345   21.8660 H   0  0  0  0  0  0
  -25.2763   -9.5668   22.4756 H   0  0  0  0  0  0
  -23.9974   -7.4630   22.7482 H   0  0  0  0  0  0
  -21.0824   -8.8768   19.8948 H   0  0  0  0  0  0
  -22.3689  -10.9662   19.6143 H   0  0  0  0  0  0
  -21.2040   -7.6137   23.9685 H   0  0  0  0  0  0
  -21.1484   -6.0517   25.9065 H   0  0  0  0  0  0
  -22.0614   -2.7576   23.2856 H   0  0  0  0  0  0
  -22.4161  -11.9831   22.4715 H   0  0  0  0  0  0
  -21.1164  -13.1218   22.2690 H   0  0  0  0  0  0
  -24.6732  -15.8493   20.5145 H   0  0  0  0  0  0
  -26.2957  -15.6211   20.1034 H   0  0  0  0  0  0
  -26.7151  -32.5589   23.1207 H   0  0  0  0  0  0
  -24.9923  -33.9767   25.0444 H   0  0  0  0  0  0
  -22.6959  -31.3061   21.4166 H   0  0  0  0  0  0
  -23.3760  -35.9670   23.3285 H   0  0  0  0  0  0
  -24.3590  -36.8917   22.2046 H   0  0  0  0  0  0
  -23.7279  -37.6527   23.6701 H   0  0  0  0  0  0
  -26.0516  -31.6021   20.6012 H   0  0  0  0  0  0
  -26.8213  -30.8849   21.9892 H   0  0  0  0  0  0
  -28.1148  -29.0981   21.1609 H   0  0  0  0  0  0
  -26.0778  -25.9571   19.0299 H   0  0  0  0  0  0
  -23.9892  -27.2826   19.0369 H   0  0  0  0  0  0
  -23.7235  -30.5943   19.4120 H   0  0  0  0  0  0
  -22.7454  -29.2258   19.8696 H   0  0  0  0  0  0
  -25.1310  -36.1981   25.0819 H   0  0  0  0  0  0
  -20.9971  -28.3267   24.1426 H   0  0  0  0  0  0
  -20.5644  -26.2235   23.3609 H   0  0  0  0  0  0
  -21.6645  -26.7422   22.1224 H   0  0  0  0  0  0
  -19.6903  -25.6264   21.1221 H   0  0  0  0  0  0
  -19.6700  -27.3171   20.6727 H   0  0  0  0  0  0
  -17.4188  -26.6594   21.4033 H   0  0  0  0  0  0
  -18.0336  -26.0031   22.8992 H   0  0  0  0  0  0
  -19.7943  -30.7198   24.2269 H   0  0  0  0  0  0
  -17.5028  -31.6236   24.5171 H   0  0  0  0  0  0
  -15.5351  -30.2967   23.7611 H   0  0  0  0  0  0
  -15.8662  -28.0817   22.7022 H   0  0  0  0  0  0
  -24.5874  -30.7032   25.7778 H   0  0  0  0  0  0
  -24.8882  -32.2818   26.5013 H   0  0  0  0  0  0
  -25.8020  -30.8813   27.0229 H   0  0  0  0  0  0
  -26.2881  -29.6797   24.1160 H   0  0  0  0  0  0
  -27.4122  -29.7340   25.4532 H   0  0  0  0  0  0
  -27.8704  -30.4377   23.9226 H   0  0  0  0  0  0
  -27.2648  -33.3636   26.2098 H   0  0  0  0  0  0
  -28.3812  -32.6869   25.0256 H   0  0  0  0  0  0
  -28.0746  -31.8422   26.5332 H   0  0  0  0  0  0
  -28.2611  -38.0121   24.7522 H   0  0  0  0  0  0
  -28.1095  -36.2660   24.6301 H   0  0  0  0  0  0
  -27.2316  -37.1432   25.8847 H   0  0  0  0  0  0
  -20.9344  -29.8718   21.6956 H   0  0  0  0  0  0
  -26.0236  -38.2864   24.1360 H   0  0  0  0  0  0
  -30.7211  -17.7885   19.4711 H   0  0  0  0  0  0
  -29.6126  -21.0419   23.0343 H   0  0  0  0  0  0
  -30.0660  -24.7051   19.2258 H   0  0  0  0  0  0
  -31.2577  -25.2797   20.3930 H   0  0  0  0  0  0
  -31.7993  -23.0379   21.0917 H   0  0  0  0  0  0
  -31.4975  -22.7889   19.3794 H   0  0  0  0  0  0
  -29.8723  -24.6898   22.2374 H   0  0  0  0  0  0
  -29.0019  -20.6615   16.7895 H   0  0  0  0  0  0
  -28.3570  -21.1491   18.3566 H   0  0  0  0  0  0
  -28.3887  -19.4438   17.9084 H   0  0  0  0  0  0
  -29.5961  -18.8814   25.8767 H   0  0  0  0  0  0
  -28.7187  -19.9518   24.7962 H   0  0  0  0  0  0
  -30.4809  -20.1191   24.9903 H   0  0  0  0  0  0
  -30.8713  -19.4550   17.8943 H   0  0  0  0  0  0
  -30.9259  -21.1357   18.2661 H   0  0  0  0  0  0
  -30.6995  -16.4342   23.0101 H   0  0  0  0  0  0
  -31.8760  -16.5487   21.7584 H   0  0  0  0  0  0
  -28.2719  -26.1723   22.1366 H   0  0  0  0  0  0
  -27.2848  -25.1564   21.1499 H   0  0  0  0  0  0
  -29.1758  -15.2687   21.6025 H   0  0  0  0  0  0
  1 25  1  0  0  0
  1 30  2  0  0  0
  1 87  1  0  0  0
  2  3  1  0  0  0
  2 25  1  0  0  0
  2 90  1  0  0  0
  2 91  1  0  0  0
  3  4  1  0  0  0
  3 92  1  0  0  0
  3 93  1  0  0  0
  4  5  1  0  0  0
  4 94  1  0  0  0
  4 95  1  0  0  0
  5  6  1  0  0  0
  5 26  1  0  0  0
  5 96  1  0  0  0
  6 25  1  0  0  0
  6 97  1  0  0  0
  6 98  1  0  0  0
  7  8  2  0  0  0
  7 26  1  0  0  0
  7 29  1  0  0  0
  8  9  1  0  0  0
  8 22  1  0  0  0
  9 10  1  0  0  0
  9 27  2  0  0  0
 10 11  2  0  0  0
 10 15  1  0  0  0
 11 12  1  0  0  0
 11 99  1  0  0  0
 12 13  2  0  0  0
 12100  1  0  0  0
 13 14  1  0  0  0
 13 31  1  0  0  0
 14 15  2  0  0  0
 14101  1  0  0  0
 15102  1  0  0  0
 16 17  2  0  0  0
 16 21  1  0  0  0
 16 31  1  0  0  0
 17 18  1  0  0  0
 17103  1  0  0  0
 18 19  2  0  0  0
 18104  1  0  0  0
 19 20  1  0  0  0
 19 24  1  0  0  0
 20 21  2  0  0  0
 20105  1  0  0  0
 21 23  1  0  0  0
 22 28  1  0  0  0
 22 32  2  0  0  0
 26 27  1  0  0  0
 28106  1  0  0  0
 28107  1  0  0  0
 29108  1  0  0  0
 29109  1  0  0  0
 33 34  1  0  0  0
 33 66  1  0  0  0
 33 70  2  0  0  0
 34 36  1  0  0  0
 34 59  1  0  0  0
 34110  1  0  0  0
 35 44  2  0  0  0
 35 45  1  0  0  0
 35 68  1  0  0  0
 36 56  1  0  0  0
 36111  1  0  0  0
 37 39  1  0  0  0
 37 47  1  0  0  0
 37 66  1  0  0  0
 37112  1  0  0  0
 38 43  2  0  0  0
 38 46  1  0  0  0
 38 47  1  0  0  0
 39 64  1  0  0  0
 39 67  2  0  0  0
 40 52  1  0  0  0
 40 53  2  0  0  0
 40 58  1  0  0  0
 41113  1  0  0  0
 41114  1  0  0  0
 41115  1  0  0  0
 41 48  1  0  0  0
 42 43  1  0  0  0
 42 66  1  0  0  0
 42116  1  0  0  0
 42117  1  0  0  0
 43 44  1  0  0  0
 44118  1  0  0  0
 45 46  2  0  0  0
 45119  1  0  0  0
 46120  1  0  0  0
 47121  1  0  0  0
 47122  1  0  0  0
 48 56  1  0  0  0
 48 65  1  0  0  0
 48123  1  0  0  0
 49 50  1  0  0  0
 49 53  1  0  0  0
 49 64  1  0  0  0
 49124  1  0  0  0
 50 51  1  0  0  0
 50125  1  0  0  0
 50126  1  0  0  0
 51 52  1  0  0  0
 51127  1  0  0  0
 51128  1  0  0  0
 52129  1  0  0  0
 52130  1  0  0  0
 53 54  1  0  0  0
 54 55  2  0  0  0
 54131  1  0  0  0
 55 57  1  0  0  0
 55132  1  0  0  0
 56 69  2  0  0  0
 57 58  2  0  0  0
 57133  1  0  0  0
 58134  1  0  0  0
 59 60  1  0  0  0
 59 61  1  0  0  0
 59 62  1  0  0  0
 60135  1  0  0  0
 60136  1  0  0  0
 60137  1  0  0  0
 61138  1  0  0  0
 61139  1  0  0  0
 61140  1  0  0  0
 62141  1  0  0  0
 62142  1  0  0  0
 62143  1  0  0  0
 63 65  1  0  0  0
 63144  1  0  0  0
 63145  1  0  0  0
 63146  1  0  0  0
 64147  1  0  0  0
 65148  1  0  0  0
 68 85  1  0  0  0
 71 73  2  0  0  0
 71 74  1  0  0  0
 71149  1  0  0  0
 72 75  2  0  0  0
 72 76  1  0  0  0
 72150  1  0  0  0
 73 75  1  0  0  0
 73 83  1  0  0  0
 74 76  2  0  0  0
 74 84  1  0  0  0
 75 86  1  0  0  0
 76 89  1  0  0  0
 77 80  1  0  0  0
 77 86  1  0  0  0
 77 88  2  0  0  0
 78 79  1  0  0  0
 78 80  1  0  0  0
 78151  1  0  0  0
 78152  1  0  0  0
 79 86  1  0  0  0
 79153  1  0  0  0
 79154  1  0  0  0
 80 85  1  0  0  0
 80155  1  0  0  0
 81 83  1  0  0  0
 81156  1  0  0  0
 81157  1  0  0  0
 81158  1  0  0  0
 82 89  1  0  0  0
 82159  1  0  0  0
 82160  1  0  0  0
 82161  1  0  0  0
 83162  1  0  0  0
 83163  1  0  0  0
 84 87  1  0  0  0
 84164  1  0  0  0
 84165  1  0  0  0
 85166  1  0  0  0
 85167  1  0  0  0
 87168  1  0  0  0
M  ISO  4   1 100  68 101  85 101  87 100
M  END
> <chiral flag>
0

> <version>
0

> <s_m_source_file>
/data/baiqing/PycharmProjects/Reinvent-master-3.2/result/LINK_invent/BTK/process_docking_weight1_custom_product_contain_oxygen_bond_distance_aromatic_linkinvent_7_9_3/rearranged_h_0104.sdf

> <i_m_source_file_index>
50

> <r_mmod_Potential_Energy-OPLS-2005>
68.1960678100586

> <r_mmod_Stretch_Energy-OPLS-2005>
47.1801834106445

> <r_mmod_Bend_Energy-OPLS-2005>
151.347625732422

> <r_mmod_Torsional_Energy-OPLS-2005>
310.221435546875

> <r_mmod_Improper_Torsional_Energy-OPLS-2005>
3.90027189254761

> <r_mmod_Van_der_Waal_Energy-OPLS-2005>
156.654998779297

> <r_mmod_Electrostatic_Energy-OPLS-2005>
-399.930541992188

> <r_mmod_Solvation_Energy-OPLS-2005>
-217.574645996094

> <b_mmod_Minimization_Converged-OPLS-2005>
0

> <r_mmod_RMS_Derivative-OPLS-2005>
4.31058168411255

$$$$
51
                    3D
 Structure written by MMmdl.
163171  0  0  1  0            999 V2000
  -30.7785  -14.1672   20.5656 C   0  0  0  0  0  0
  -31.1213  -12.4054   19.0282 C   0  0  0  0  0  0
  -29.7325  -12.6844   17.7349 C   0  0  0  0  0  0
  -27.9550  -13.0693   18.3052 C   0  0  0  0  0  0
  -27.4714  -13.3864   20.1143 C   0  0  2  0  0  0
  -28.7446  -13.1011   21.5310 C   0  0  0  0  0  0
  -25.0989  -13.8483   20.6050 C   0  0  0  0  0  0
  -24.0660  -13.0381   20.9342 C   0  0  0  0  0  0
  -24.5595  -11.6986   20.8876 C   0  0  0  0  0  0
  -23.8678  -10.4236   21.0427 C   0  0  0  0  0  0
  -24.3427   -9.4209   21.9159 C   0  0  0  0  0  0
  -23.6230   -8.2178   22.0710 C   0  0  0  0  0  0
  -22.4209   -8.0161   21.3516 C   0  0  0  0  0  0
  -21.9748   -9.0065   20.4604 C   0  0  0  0  0  0
  -22.6934  -10.1997   20.3025 C   0  0  0  0  0  0
  -21.6836   -6.0669   22.5297 C   0  0  0  0  0  0
  -21.3998   -6.5603   23.8216 C   0  0  0  0  0  0
  -21.3656   -5.6774   24.9191 C   0  0  0  0  0  0
  -21.6045   -4.3034   24.7257 C   0  0  0  0  0  0
  -21.8822   -3.8106   23.4385 C   0  0  0  0  0  0
  -21.9187   -4.6907   22.3432 C   0  0  0  0  0  0
  -22.6775  -13.5021   21.1993 C   0  0  0  0  0  0
  -22.1658   -4.2093   21.1010 F   0  0  0  0  0  0
  -21.5640   -3.4529   25.7776 F   0  0  0  0  0  0
  -30.4873  -12.9981   20.7261 N   0  0  0  0  0  0
  -26.1567  -12.9939   20.4312 N   0  0  0  0  0  0
  -25.8466  -11.6928   20.6095 N   0  0  0  0  0  0
  -21.9639  -12.7997   22.0668 N   0  0  0  0  0  0
  -25.2142  -15.2312   20.4486 N   0  0  0  0  0  0
  -31.8050  -14.7467   20.1775 O   0  0  0  0  0  0
  -21.6612   -6.8755   21.4231 O   0  0  0  0  0  0
  -22.2483  -14.5343   20.6852 O   0  0  0  0  0  0
  -24.6342  -31.8581   23.2019 C   0  0  0  0  0  0
  -25.9172  -32.4768   23.8345 C   0  0  1  0  0  0
  -27.1962  -27.2697   20.0572 C   0  0  0  0  0  0
  -25.5968  -33.8570   24.2267 N   0  0  0  0  0  0
  -23.4267  -30.4891   21.5496 C   0  0  2  0  0  0
  -24.8615  -28.9474   20.1069 C   0  0  0  0  0  0
  -22.7504  -29.4639   22.4917 C   0  0  0  0  0  0
  -18.0297  -28.1393   22.8479 C   0  0  0  0  0  0
  -24.1498  -36.7276   23.2639 C   0  0  0  0  0  0
  -25.9794  -30.7643   21.3864 C   0  0  0  0  0  0
  -26.0431  -29.3933   20.7135 C   0  0  0  0  0  0
  -27.2142  -28.5644   20.6848 C   0  0  0  0  0  0
  -25.9826  -26.9065   19.4255 C   0  0  0  0  0  0
  -24.8346  -27.7086   19.4615 C   0  0  0  0  0  0
  -23.6396  -29.8389   20.1619 C   0  0  0  0  0  0
  -25.4132  -36.3075   24.0321 C   0  0  1  0  0  0
  -20.5905  -28.3714   23.1260 C   0  0  2  0  0  0
  -20.6791  -26.9433   22.5400 C   0  0  0  0  0  0
  -19.5761  -26.6386   21.5215 C   0  0  0  0  0  0
  -18.1944  -26.7932   22.1626 C   0  0  0  0  0  0
  -19.1550  -28.8866   23.2865 C   0  0  0  0  0  0
  -18.9466  -30.1461   23.8893 C   0  0  0  0  0  0
  -17.6467  -30.6590   24.0562 C   0  0  0  0  0  0
  -25.9074  -34.9448   23.5090 C   0  0  0  0  0  0
  -16.5360  -29.9089   23.6333 C   0  0  0  0  0  0
  -16.7284  -28.6508   23.0354 C   0  0  0  0  0  0
  -26.4519  -31.6592   25.0734 C   0  0  0  0  0  0
  -25.3728  -31.3749   26.1436 C   0  0  0  0  0  0
  -27.0377  -30.3004   24.6246 C   0  0  0  0  0  0
  -27.6060  -32.4342   25.7516 C   0  0  0  0  0  0
  -27.5583  -37.1806   24.8473 C   0  0  0  0  0  0
  -21.4213  -29.3068   22.3649 N   0  0  0  0  0  0
  -26.4308  -37.3771   23.9396 N   0  0  0  0  0  0
  -24.7000  -31.0536   22.1011 N   0  0  0  0  0  0
  -23.4209  -28.8161   23.3001 O   0  0  0  0  0  0
  -28.2767  -26.3501   20.0594 O   0  0  0  0  0  0
  -26.5634  -34.8917   22.4652 O   0  0  0  0  0  0
  -23.5489  -32.1415   23.7309 O   0  0  0  0  0  0
  -28.9368  -17.8282   20.1344 C   0  0  0  0  0  0
  -29.3168  -15.9504   18.1257 C   0  0  0  0  0  0
  -29.0609  -16.4369   20.4470 C   0  0  0  0  0  0
  -29.3105  -15.3841   19.4438 C   0  0  0  0  0  0
  -28.9937  -18.3520   18.8333 C   0  0  0  0  0  0
  -29.1533  -17.3493   17.8312 C   0  0  0  0  0  0
  -28.8997  -16.2141   21.9516 C   0  0  0  0  0  0
  -29.7360  -10.4329   20.7047 C   0  0  0  0  0  0
  -28.9263  -23.6589   19.8268 C   0  0  0  0  0  0
  -28.5539  -22.3058   19.0203 C   0  0  0  0  0  0
  -29.0789  -11.5901   19.7970 C   0  0  0  0  0  0
  -28.0129  -24.9543   19.5587 C   0  0  0  0  0  0
  -29.0581  -20.8461   19.4804 C   0  0  0  0  0  0
  -29.7540  -13.9042   19.7920 N   0  0  0  0  0  0
  -28.8533  -19.7347   18.5173 O   0  0  0  0  0  0
  -29.1862  -17.8378   16.1747 Cl  0  0  0  0  0  0
  -32.0136  -12.9332   18.6844 H   0  0  0  0  0  0
  -31.4877  -11.3829   19.0136 H   0  0  0  0  0  0
  -29.6992  -11.8196   17.0691 H   0  0  0  0  0  0
  -30.0834  -13.4390   17.0391 H   0  0  0  0  0  0
  -27.3356  -12.2388   17.9596 H   0  0  0  0  0  0
  -27.5647  -13.8902   17.7047 H   0  0  0  0  0  0
  -27.3590  -14.4486   20.1546 H   0  0  0  0  0  0
  -28.4754  -12.2070   22.0936 H   0  0  0  0  0  0
  -28.6902  -13.8088   22.3427 H   0  0  0  0  0  0
  -25.2543   -9.5813   22.4743 H   0  0  0  0  0  0
  -23.9996   -7.4584   22.7415 H   0  0  0  0  0  0
  -21.0684   -8.8489   19.8931 H   0  0  0  0  0  0
  -22.3293  -10.9519   19.6171 H   0  0  0  0  0  0
  -21.1984   -7.6112   23.9700 H   0  0  0  0  0  0
  -21.1479   -6.0518   25.9089 H   0  0  0  0  0  0
  -22.0608   -2.7567   23.2904 H   0  0  0  0  0  0
  -22.3407  -11.9708   22.5021 H   0  0  0  0  0  0
  -21.0264  -13.0934   22.3021 H   0  0  0  0  0  0
  -24.4073  -15.8410   20.5236 H   0  0  0  0  0  0
  -26.0526  -15.7146   20.1518 H   0  0  0  0  0  0
  -26.7232  -32.5392   23.1074 H   0  0  0  0  0  0
  -25.0117  -33.9723   25.0411 H   0  0  0  0  0  0
  -22.7248  -31.3135   21.4136 H   0  0  0  0  0  0
  -23.3767  -35.9603   23.3315 H   0  0  0  0  0  0
  -24.3578  -36.8882   22.2048 H   0  0  0  0  0  0
  -23.7249  -37.6478   23.6656 H   0  0  0  0  0  0
  -26.1350  -31.5327   20.6280 H   0  0  0  0  0  0
  -26.8516  -30.7956   22.0276 H   0  0  0  0  0  0
  -28.1199  -28.9027   21.1677 H   0  0  0  0  0  0
  -25.8640  -25.9823   18.8832 H   0  0  0  0  0  0
  -23.9301  -27.3665   18.9775 H   0  0  0  0  0  0
  -23.7693  -30.6237   19.4152 H   0  0  0  0  0  0
  -22.7536  -29.2834   19.8503 H   0  0  0  0  0  0
  -25.1323  -36.1924   25.0815 H   0  0  0  0  0  0
  -21.0006  -28.3293   24.1374 H   0  0  0  0  0  0
  -20.5711  -26.2328   23.3608 H   0  0  0  0  0  0
  -21.6659  -26.7465   22.1184 H   0  0  0  0  0  0
  -19.6927  -25.6293   21.1253 H   0  0  0  0  0  0
  -19.6693  -27.3189   20.6736 H   0  0  0  0  0  0
  -17.4214  -26.6677   21.4026 H   0  0  0  0  0  0
  -18.0337  -26.0082   22.9027 H   0  0  0  0  0  0
  -19.7942  -30.7274   24.2269 H   0  0  0  0  0  0
  -17.5023  -31.6274   24.5159 H   0  0  0  0  0  0
  -15.5360  -30.2991   23.7656 H   0  0  0  0  0  0
  -15.8684  -28.0823   22.7077 H   0  0  0  0  0  0
  -24.5899  -30.7113   25.7743 H   0  0  0  0  0  0
  -24.8927  -32.2925   26.4845 H   0  0  0  0  0  0
  -25.8019  -30.8917   27.0221 H   0  0  0  0  0  0
  -26.2970  -29.6741   24.1256 H   0  0  0  0  0  0
  -27.4031  -29.7277   25.4780 H   0  0  0  0  0  0
  -27.8864  -30.4268   23.9524 H   0  0  0  0  0  0
  -27.2651  -33.3638   26.2087 H   0  0  0  0  0  0
  -28.3872  -32.6915   25.0351 H   0  0  0  0  0  0
  -28.0731  -31.8479   26.5438 H   0  0  0  0  0  0
  -28.2625  -38.0080   24.7495 H   0  0  0  0  0  0
  -28.1059  -36.2610   24.6348 H   0  0  0  0  0  0
  -27.2288  -37.1510   25.8873 H   0  0  0  0  0  0
  -20.9395  -29.8801   21.6867 H   0  0  0  0  0  0
  -26.0187  -38.2849   24.1368 H   0  0  0  0  0  0
  -28.7762  -18.5298   20.9375 H   0  0  0  0  0  0
  -29.4882  -15.3303   17.2683 H   0  0  0  0  0  0
  -28.8623  -17.1499   22.5089 H   0  0  0  0  0  0
  -29.7255  -15.6767   22.4130 H   0  0  0  0  0  0
  -27.9442  -15.7363   22.1585 H   0  0  0  0  0  0
  -29.1017   -9.5441   20.6940 H   0  0  0  0  0  0
  -29.8709  -10.6804   21.7564 H   0  0  0  0  0  0
  -30.7020  -10.0741   20.3604 H   0  0  0  0  0  0
  -29.9644  -23.9112   19.6108 H   0  0  0  0  0  0
  -28.8945  -23.4443   20.8948 H   0  0  0  0  0  0
  -28.8856  -22.4525   17.9918 H   0  0  0  0  0  0
  -27.4676  -22.2487   18.9564 H   0  0  0  0  0  0
  -28.0787  -11.2676   20.0450 H   0  0  0  0  0  0
  -29.0849  -10.9540   18.9066 H   0  0  0  0  0  0
  -27.0513  -24.6390   19.9647 H   0  0  0  0  0  0
  -27.8860  -25.0316   18.4782 H   0  0  0  0  0  0
  -28.5683  -20.6125   20.4252 H   0  0  0  0  0  0
  -30.1262  -20.8944   19.6940 H   0  0  0  0  0  0
  1 25  1  0  0  0
  1 30  2  0  0  0
  1 84  1  0  0  0
  2  3  1  0  0  0
  2 25  1  0  0  0
  2 87  1  0  0  0
  2 88  1  0  0  0
  3  4  1  0  0  0
  3 89  1  0  0  0
  3 90  1  0  0  0
  4  5  1  0  0  0
  4 91  1  0  0  0
  4 92  1  0  0  0
  5  6  1  0  0  0
  5 26  1  0  0  0
  5 93  1  0  0  0
  6 25  1  0  0  0
  6 94  1  0  0  0
  6 95  1  0  0  0
  7  8  2  0  0  0
  7 26  1  0  0  0
  7 29  1  0  0  0
  8  9  1  0  0  0
  8 22  1  0  0  0
  9 10  1  0  0  0
  9 27  2  0  0  0
 10 11  2  0  0  0
 10 15  1  0  0  0
 11 12  1  0  0  0
 11 96  1  0  0  0
 12 13  2  0  0  0
 12 97  1  0  0  0
 13 14  1  0  0  0
 13 31  1  0  0  0
 14 15  2  0  0  0
 14 98  1  0  0  0
 15 99  1  0  0  0
 16 17  2  0  0  0
 16 21  1  0  0  0
 16 31  1  0  0  0
 17 18  1  0  0  0
 17100  1  0  0  0
 18 19  2  0  0  0
 18101  1  0  0  0
 19 20  1  0  0  0
 19 24  1  0  0  0
 20 21  2  0  0  0
 20102  1  0  0  0
 21 23  1  0  0  0
 22 28  1  0  0  0
 22 32  2  0  0  0
 26 27  1  0  0  0
 28103  1  0  0  0
 28104  1  0  0  0
 29105  1  0  0  0
 29106  1  0  0  0
 33 34  1  0  0  0
 33 66  1  0  0  0
 33 70  2  0  0  0
 34 36  1  0  0  0
 34 59  1  0  0  0
 34107  1  0  0  0
 35 44  2  0  0  0
 35 45  1  0  0  0
 35 68  1  0  0  0
 36 56  1  0  0  0
 36108  1  0  0  0
 37 39  1  0  0  0
 37 47  1  0  0  0
 37 66  1  0  0  0
 37109  1  0  0  0
 38 43  2  0  0  0
 38 46  1  0  0  0
 38 47  1  0  0  0
 39 64  1  0  0  0
 39 67  2  0  0  0
 40 52  1  0  0  0
 40 53  2  0  0  0
 40 58  1  0  0  0
 41110  1  0  0  0
 41111  1  0  0  0
 41112  1  0  0  0
 41 48  1  0  0  0
 42 43  1  0  0  0
 42 66  1  0  0  0
 42113  1  0  0  0
 42114  1  0  0  0
 43 44  1  0  0  0
 44115  1  0  0  0
 45 46  2  0  0  0
 45116  1  0  0  0
 46117  1  0  0  0
 47118  1  0  0  0
 47119  1  0  0  0
 48 56  1  0  0  0
 48 65  1  0  0  0
 48120  1  0  0  0
 49 50  1  0  0  0
 49 53  1  0  0  0
 49 64  1  0  0  0
 49121  1  0  0  0
 50 51  1  0  0  0
 50122  1  0  0  0
 50123  1  0  0  0
 51 52  1  0  0  0
 51124  1  0  0  0
 51125  1  0  0  0
 52126  1  0  0  0
 52127  1  0  0  0
 53 54  1  0  0  0
 54 55  2  0  0  0
 54128  1  0  0  0
 55 57  1  0  0  0
 55129  1  0  0  0
 56 69  2  0  0  0
 57 58  2  0  0  0
 57130  1  0  0  0
 58131  1  0  0  0
 59 60  1  0  0  0
 59 61  1  0  0  0
 59 62  1  0  0  0
 60132  1  0  0  0
 60133  1  0  0  0
 60134  1  0  0  0
 61135  1  0  0  0
 61136  1  0  0  0
 61137  1  0  0  0
 62138  1  0  0  0
 62139  1  0  0  0
 62140  1  0  0  0
 63 65  1  0  0  0
 63141  1  0  0  0
 63142  1  0  0  0
 63143  1  0  0  0
 64144  1  0  0  0
 65145  1  0  0  0
 68 82  1  0  0  0
 71 73  2  0  0  0
 71 75  1  0  0  0
 71146  1  0  0  0
 72 74  2  0  0  0
 72 76  1  0  0  0
 72147  1  0  0  0
 73 74  1  0  0  0
 73 77  1  0  0  0
 74 84  1  0  0  0
 75 76  2  0  0  0
 75 85  1  0  0  0
 76 86  1  0  0  0
 77148  1  0  0  0
 77149  1  0  0  0
 77150  1  0  0  0
 78 81  1  0  0  0
 78151  1  0  0  0
 78152  1  0  0  0
 78153  1  0  0  0
 79 80  1  0  0  0
 79 82  1  0  0  0
 79154  1  0  0  0
 79155  1  0  0  0
 80 83  1  0  0  0
 80156  1  0  0  0
 80157  1  0  0  0
 81 84  1  0  0  0
 81158  1  0  0  0
 81159  1  0  0  0
 82160  1  0  0  0
 82161  1  0  0  0
 83 85  1  0  0  0
 83162  1  0  0  0
 83163  1  0  0  0
M  ISO  4   1 100  68 101  82 101  84 100
M  END
> <chiral flag>
0

> <version>
0

> <s_m_source_file>
/data/baiqing/PycharmProjects/Reinvent-master-3.2/result/LINK_invent/BTK/process_docking_weight1_custom_product_contain_oxygen_bond_distance_aromatic_linkinvent_7_9_3/rearranged_h_0104.sdf

> <i_m_source_file_index>
51

> <r_mmod_Potential_Energy-OPLS-2005>
5332.02978515625

> <r_mmod_Stretch_Energy-OPLS-2005>
2771.89013671875

> <r_mmod_Bend_Energy-OPLS-2005>
684.992919921875

> <r_mmod_Torsional_Energy-OPLS-2005>
375.438720703125

> <r_mmod_Improper_Torsional_Energy-OPLS-2005>
56.7033805847168

> <r_mmod_Van_der_Waal_Energy-OPLS-2005>
1626.87451171875

> <r_mmod_Electrostatic_Energy-OPLS-2005>
-267.585876464844

> <r_mmod_Solvation_Energy-OPLS-2005>
-197.955169677734

> <b_mmod_Minimization_Converged-OPLS-2005>
0

> <r_mmod_RMS_Derivative-OPLS-2005>
1.64580917358398

$$$$
52
                    3D
 Structure written by MMmdl.
149157  0  0  1  0            999 V2000
  -30.4979  -14.9940   20.4147 C   0  0  0  0  0  0
  -30.4476  -12.6179   19.4965 C   0  0  0  0  0  0
  -29.5249  -12.5365   18.2573 C   0  0  0  0  0  0
  -28.0587  -12.3138   18.6758 C   0  0  0  0  0  0
  -27.6282  -13.2475   19.8363 C   0  0  2  0  0  0
  -28.6709  -13.2781   20.9730 C   0  0  0  0  0  0
  -25.2453  -13.8215   20.5696 C   0  0  0  0  0  0
  -24.1775  -13.0438   20.9229 C   0  0  0  0  0  0
  -24.6394  -11.6924   20.8752 C   0  0  0  0  0  0
  -23.9084  -10.4291   21.0409 C   0  0  0  0  0  0
  -24.3627   -9.4200   21.9185 C   0  0  0  0  0  0
  -23.6287   -8.2245   22.0760 C   0  0  0  0  0  0
  -22.4272   -8.0283   21.3547 C   0  0  0  0  0  0
  -21.9916   -9.0264   20.4654 C   0  0  0  0  0  0
  -22.7256  -10.2135   20.3058 C   0  0  0  0  0  0
  -21.6851   -6.0731   22.5276 C   0  0  0  0  0  0
  -21.4016   -6.5636   23.8211 C   0  0  0  0  0  0
  -21.3657   -5.6786   24.9169 C   0  0  0  0  0  0
  -21.6041   -4.3052   24.7221 C   0  0  0  0  0  0
  -21.8818   -3.8141   23.4345 C   0  0  0  0  0  0
  -21.9193   -4.6958   22.3399 C   0  0  0  0  0  0
  -22.7793  -13.5207   21.1874 C   0  0  0  0  0  0
  -22.1656   -4.2146   21.0975 F   0  0  0  0  0  0
  -21.5627   -3.4534   25.7733 F   0  0  0  0  0  0
  -29.9402  -13.7128   20.3748 N   0  0  0  0  0  0
  -26.2877  -12.9443   20.3231 N   0  0  0  0  0  0
  -25.9326  -11.6576   20.5741 N   0  0  0  0  0  0
  -22.0439  -12.8206   22.0436 N   0  0  0  0  0  0
  -25.4094  -15.1950   20.4076 N   0  0  0  0  0  0
  -31.7062  -15.0828   20.1629 O   0  0  0  0  0  0
  -21.6637   -6.8876   21.4241 O   0  0  0  0  0  0
  -22.3474  -14.5505   20.6706 O   0  0  0  0  0  0
  -24.6495  -31.8386   23.1832 C   0  0  0  0  0  0
  -25.9241  -32.4664   23.8248 C   0  0  1  0  0  0
  -27.2184  -27.0851   20.1576 C   0  0  0  0  0  0
  -25.5957  -33.8469   24.2159 N   0  0  0  0  0  0
  -23.4558  -30.4569   21.5293 C   0  0  2  0  0  0
  -24.9060  -28.8752   20.1103 C   0  0  0  0  0  0
  -22.7607  -29.4522   22.4833 C   0  0  0  0  0  0
  -18.0314  -28.1380   22.8471 C   0  0  0  0  0  0
  -24.1495  -36.7244   23.2643 C   0  0  0  0  0  0
  -26.0169  -30.6947   21.3911 C   0  0  0  0  0  0
  -26.0868  -29.3023   20.7307 C   0  0  0  0  0  0
  -27.2422  -28.4255   20.7351 C   0  0  0  0  0  0
  -26.0106  -26.7754   19.4914 C   0  0  0  0  0  0
  -24.8844  -27.6265   19.4728 C   0  0  0  0  0  0
  -23.6863  -29.7838   20.1502 C   0  0  0  0  0  0
  -25.4123  -36.3013   24.0320 C   0  0  1  0  0  0
  -20.5931  -28.3724   23.1214 C   0  0  2  0  0  0
  -20.6793  -26.9420   22.5399 C   0  0  0  0  0  0
  -19.5765  -26.6366   21.5211 C   0  0  0  0  0  0
  -18.1947  -26.7917   22.1619 C   0  0  0  0  0  0
  -19.1571  -28.8869   23.2834 C   0  0  0  0  0  0
  -18.9490  -30.1454   23.8877 C   0  0  0  0  0  0
  -17.6487  -30.6579   24.0547 C   0  0  0  0  0  0
  -25.9086  -34.9391   23.5056 C   0  0  0  0  0  0
  -16.5378  -29.9073   23.6325 C   0  0  0  0  0  0
  -16.7301  -28.6478   23.0369 C   0  0  0  0  0  0
  -26.4542  -31.6541   25.0711 C   0  0  0  0  0  0
  -25.3710  -31.3746   26.1395 C   0  0  0  0  0  0
  -27.0415  -30.2928   24.6329 C   0  0  0  0  0  0
  -27.6059  -32.4324   25.7491 C   0  0  0  0  0  0
  -27.5581  -37.1762   24.8460 C   0  0  0  0  0  0
  -21.4291  -29.3046   22.3583 N   0  0  0  0  0  0
  -26.4278  -37.3739   23.9427 N   0  0  0  0  0  0
  -24.7275  -31.0196   22.0887 N   0  0  0  0  0  0
  -23.4225  -28.8085   23.3015 O   0  0  0  0  0  0
  -28.2475  -26.0584   20.2394 O   0  0  0  0  0  0
  -26.5682  -34.8899   22.4643 O   0  0  0  0  0  0
  -23.5594  -32.1300   23.7004 O   0  0  0  0  0  0
  -30.8373  -18.4582   20.6263 C   0  0  0  0  0  0
  -30.6022  -19.9285   20.6019 C   0  0  0  0  0  0
  -29.2901  -20.3766   20.3987 C   0  0  0  0  0  0
  -29.7597  -17.5927   20.4767 C   0  0  0  0  0  0
  -28.6209  -21.7949   20.2722 C   0  0  0  0  0  0
  -28.8950  -23.2038   20.3183 C   0  0  0  0  0  0
  -31.7420  -20.8603   20.8323 C   0  0  0  0  0  0
  -27.9069  -24.5261   20.0741 C   0  0  0  0  0  0
  -32.8694  -20.5242   20.2186 N   0  0  0  0  0  0
  -29.6471  -16.1429   20.5171 N   0  0  0  0  0  0
  -31.6678  -21.8724   21.5260 O   0  0  0  0  0  0
  -28.3805  -18.7879   20.2762 S   0  0  0  0  0  0
  -31.4751  -12.8008   19.1792 H   0  0  0  0  0  0
  -30.4647  -11.6672   20.0314 H   0  0  0  0  0  0
  -29.8510  -11.7365   17.5911 H   0  0  0  0  0  0
  -29.6040  -13.4618   17.6846 H   0  0  0  0  0  0
  -27.9614  -11.2729   18.9867 H   0  0  0  0  0  0
  -27.3944  -12.4380   17.8198 H   0  0  0  0  0  0
  -27.5878  -14.2480   19.4051 H   0  0  0  0  0  0
  -28.7701  -12.2995   21.4445 H   0  0  0  0  0  0
  -28.3636  -13.9687   21.7598 H   0  0  0  0  0  0
  -25.2770   -9.5670   22.4762 H   0  0  0  0  0  0
  -23.9986   -7.4637   22.7488 H   0  0  0  0  0  0
  -21.0842   -8.8791   19.8963 H   0  0  0  0  0  0
  -22.3718  -10.9673   19.6166 H   0  0  0  0  0  0
  -21.2012   -7.6144   23.9712 H   0  0  0  0  0  0
  -21.1478   -6.0515   25.9071 H   0  0  0  0  0  0
  -22.0601   -2.7604   23.2844 H   0  0  0  0  0  0
  -22.4046  -11.9869   22.4830 H   0  0  0  0  0  0
  -21.1060  -13.1251   22.2641 H   0  0  0  0  0  0
  -24.6327  -15.8396   20.5086 H   0  0  0  0  0  0
  -26.2356  -15.6356   20.0259 H   0  0  0  0  0  0
  -26.7307  -32.5253   23.0966 H   0  0  0  0  0  0
  -25.0072  -33.9571   25.0285 H   0  0  0  0  0  0
  -22.7618  -31.2847   21.3690 H   0  0  0  0  0  0
  -23.3774  -35.9558   23.3266 H   0  0  0  0  0  0
  -24.3592  -36.8922   22.2068 H   0  0  0  0  0  0
  -23.7235  -37.6419   23.6710 H   0  0  0  0  0  0
  -26.1852  -31.4459   20.6185 H   0  0  0  0  0  0
  -26.8823  -30.7420   22.0406 H   0  0  0  0  0  0
  -28.1388  -28.7475   21.2457 H   0  0  0  0  0  0
  -25.8960  -25.8235   18.9955 H   0  0  0  0  0  0
  -23.9860  -27.2927   18.9721 H   0  0  0  0  0  0
  -23.8309  -30.5566   19.3948 H   0  0  0  0  0  0
  -22.8009  -29.2307   19.8340 H   0  0  0  0  0  0
  -25.1307  -36.1826   25.0813 H   0  0  0  0  0  0
  -21.0016  -28.3309   24.1338 H   0  0  0  0  0  0
  -20.5675  -26.2347   23.3632 H   0  0  0  0  0  0
  -21.6659  -26.7410   22.1202 H   0  0  0  0  0  0
  -19.6940  -25.6275   21.1248 H   0  0  0  0  0  0
  -19.6690  -27.3165   20.6729 H   0  0  0  0  0  0
  -17.4221  -26.6669   21.4017 H   0  0  0  0  0  0
  -18.0338  -26.0053   22.9009 H   0  0  0  0  0  0
  -19.7971  -30.7255   24.2247 H   0  0  0  0  0  0
  -17.5049  -31.6258   24.5152 H   0  0  0  0  0  0
  -15.5379  -30.2977   23.7644 H   0  0  0  0  0  0
  -15.8700  -28.0773   22.7132 H   0  0  0  0  0  0
  -24.5910  -30.7071   25.7714 H   0  0  0  0  0  0
  -24.8878  -32.2933   26.4733 H   0  0  0  0  0  0
  -25.7980  -30.8981   27.0228 H   0  0  0  0  0  0
  -26.3043  -29.6637   24.1330 H   0  0  0  0  0  0
  -27.4014  -29.7243   25.4912 H   0  0  0  0  0  0
  -27.8960  -30.4163   23.9675 H   0  0  0  0  0  0
  -27.2646  -33.3662   26.1970 H   0  0  0  0  0  0
  -28.3905  -32.6820   25.0335 H   0  0  0  0  0  0
  -28.0687  -31.8519   26.5482 H   0  0  0  0  0  0
  -28.2542  -38.0107   24.7553 H   0  0  0  0  0  0
  -28.1126  -36.2637   24.6211 H   0  0  0  0  0  0
  -27.2310  -37.1318   25.8862 H   0  0  0  0  0  0
  -20.9523  -29.8769   21.6759 H   0  0  0  0  0  0
  -26.0138  -38.2802   24.1449 H   0  0  0  0  0  0
  -31.8369  -18.0825   20.7939 H   0  0  0  0  0  0
  -27.5708  -21.6466   20.0618 H   0  0  0  0  0  0
  -29.9166  -23.4871   20.5221 H   0  0  0  0  0  0
  -27.0135  -24.3360   20.6699 H   0  0  0  0  0  0
  -27.5913  -24.4111   19.0379 H   0  0  0  0  0  0
  -32.8980  -19.7063   19.6283 H   0  0  0  0  0  0
  -33.6987  -21.0879   20.3311 H   0  0  0  0  0  0
  -28.6889  -15.8437   20.6117 H   0  0  0  0  0  0
  1 25  1  0  0  0
  1 30  2  0  0  0
  1 80  1  0  0  0
  2  3  1  0  0  0
  2 25  1  0  0  0
  2 83  1  0  0  0
  2 84  1  0  0  0
  3  4  1  0  0  0
  3 85  1  0  0  0
  3 86  1  0  0  0
  4  5  1  0  0  0
  4 87  1  0  0  0
  4 88  1  0  0  0
  5  6  1  0  0  0
  5 26  1  0  0  0
  5 89  1  0  0  0
  6 25  1  0  0  0
  6 90  1  0  0  0
  6 91  1  0  0  0
  7  8  2  0  0  0
  7 26  1  0  0  0
  7 29  1  0  0  0
  8  9  1  0  0  0
  8 22  1  0  0  0
  9 10  1  0  0  0
  9 27  2  0  0  0
 10 11  2  0  0  0
 10 15  1  0  0  0
 11 12  1  0  0  0
 11 92  1  0  0  0
 12 13  2  0  0  0
 12 93  1  0  0  0
 13 14  1  0  0  0
 13 31  1  0  0  0
 14 15  2  0  0  0
 14 94  1  0  0  0
 15 95  1  0  0  0
 16 17  2  0  0  0
 16 21  1  0  0  0
 16 31  1  0  0  0
 17 18  1  0  0  0
 17 96  1  0  0  0
 18 19  2  0  0  0
 18 97  1  0  0  0
 19 20  1  0  0  0
 19 24  1  0  0  0
 20 21  2  0  0  0
 20 98  1  0  0  0
 21 23  1  0  0  0
 22 28  1  0  0  0
 22 32  2  0  0  0
 26 27  1  0  0  0
 28 99  1  0  0  0
 28100  1  0  0  0
 29101  1  0  0  0
 29102  1  0  0  0
 33 34  1  0  0  0
 33 66  1  0  0  0
 33 70  2  0  0  0
 34 36  1  0  0  0
 34 59  1  0  0  0
 34103  1  0  0  0
 35 44  2  0  0  0
 35 45  1  0  0  0
 35 68  1  0  0  0
 36 56  1  0  0  0
 36104  1  0  0  0
 37 39  1  0  0  0
 37 47  1  0  0  0
 37 66  1  0  0  0
 37105  1  0  0  0
 38 43  2  0  0  0
 38 46  1  0  0  0
 38 47  1  0  0  0
 39 64  1  0  0  0
 39 67  2  0  0  0
 40 52  1  0  0  0
 40 53  2  0  0  0
 40 58  1  0  0  0
 41106  1  0  0  0
 41107  1  0  0  0
 41108  1  0  0  0
 41 48  1  0  0  0
 42 43  1  0  0  0
 42 66  1  0  0  0
 42109  1  0  0  0
 42110  1  0  0  0
 43 44  1  0  0  0
 44111  1  0  0  0
 45 46  2  0  0  0
 45112  1  0  0  0
 46113  1  0  0  0
 47114  1  0  0  0
 47115  1  0  0  0
 48 56  1  0  0  0
 48 65  1  0  0  0
 48116  1  0  0  0
 49 50  1  0  0  0
 49 53  1  0  0  0
 49 64  1  0  0  0
 49117  1  0  0  0
 50 51  1  0  0  0
 50118  1  0  0  0
 50119  1  0  0  0
 51 52  1  0  0  0
 51120  1  0  0  0
 51121  1  0  0  0
 52122  1  0  0  0
 52123  1  0  0  0
 53 54  1  0  0  0
 54 55  2  0  0  0
 54124  1  0  0  0
 55 57  1  0  0  0
 55125  1  0  0  0
 56 69  2  0  0  0
 57 58  2  0  0  0
 57126  1  0  0  0
 58127  1  0  0  0
 59 60  1  0  0  0
 59 61  1  0  0  0
 59 62  1  0  0  0
 60128  1  0  0  0
 60129  1  0  0  0
 60130  1  0  0  0
 61131  1  0  0  0
 61132  1  0  0  0
 61133  1  0  0  0
 62134  1  0  0  0
 62135  1  0  0  0
 62136  1  0  0  0
 63 65  1  0  0  0
 63137  1  0  0  0
 63138  1  0  0  0
 63139  1  0  0  0
 64140  1  0  0  0
 65141  1  0  0  0
 68 78  1  0  0  0
 71 72  1  0  0  0
 71 74  2  0  0  0
 71142  1  0  0  0
 72 73  2  0  0  0
 72 77  1  0  0  0
 73 75  1  0  0  0
 73 82  1  0  0  0
 74 80  1  0  0  0
 74 82  1  0  0  0
 75 76  2  0  0  0
 75143  1  0  0  0
 76 78  1  0  0  0
 76144  1  0  0  0
 77 79  1  0  0  0
 77 81  2  0  0  0
 78145  1  0  0  0
 78146  1  0  0  0
 79147  1  0  0  0
 79148  1  0  0  0
 80149  1  0  0  0
M  ISO  4   1 100  68 101  78 101  80 100
M  END
> <chiral flag>
0

> <version>
0

> <s_m_source_file>
/data/baiqing/PycharmProjects/Reinvent-master-3.2/result/LINK_invent/BTK/process_docking_weight1_custom_product_contain_oxygen_bond_distance_aromatic_linkinvent_7_9_3/rearranged_h_0104.sdf

> <i_m_source_file_index>
52

> <r_mmod_Potential_Energy-OPLS-2005>
412.720123291016

> <r_mmod_Stretch_Energy-OPLS-2005>
270.903900146484

> <r_mmod_Bend_Energy-OPLS-2005>
270.968933105469

> <r_mmod_Torsional_Energy-OPLS-2005>
232.707427978516

> <r_mmod_Improper_Torsional_Energy-OPLS-2005>
5.23512697219849

> <r_mmod_Van_der_Waal_Energy-OPLS-2005>
111.74755859375

> <r_mmod_Electrostatic_Energy-OPLS-2005>
-469.456420898438

> <r_mmod_Solvation_Energy-OPLS-2005>
-246.026412963867

> <b_mmod_Minimization_Converged-OPLS-2005>
0

> <r_mmod_RMS_Derivative-OPLS-2005>
1.47063481807709

$$$$
53
                    3D
 Structure written by MMmdl.
165174  0  0  1  0            999 V2000
  -30.6924  -14.4192   20.6328 C   0  0  0  0  0  0
  -30.4161  -12.3093   19.3601 C   0  0  0  0  0  0
  -29.4644  -12.5490   18.1677 C   0  0  0  0  0  0
  -27.9873  -12.3717   18.5842 C   0  0  0  0  0  0
  -27.6534  -13.1496   19.8796 C   0  0  2  0  0  0
  -28.7133  -12.8262   20.9629 C   0  0  0  0  0  0
  -25.2545  -13.8010   20.5647 C   0  0  0  0  0  0
  -24.1770  -13.0375   20.9192 C   0  0  0  0  0  0
  -24.6276  -11.6802   20.8809 C   0  0  0  0  0  0
  -23.8938  -10.4215   21.0457 C   0  0  0  0  0  0
  -24.3507   -9.4108   21.9213 C   0  0  0  0  0  0
  -23.6186   -8.2150   22.0759 C   0  0  0  0  0  0
  -22.4188   -8.0204   21.3519 C   0  0  0  0  0  0
  -21.9822   -9.0190   20.4638 C   0  0  0  0  0  0
  -22.7141  -10.2073   20.3062 C   0  0  0  0  0  0
  -21.6827   -6.0686   22.5288 C   0  0  0  0  0  0
  -21.4024   -6.5622   23.8225 C   0  0  0  0  0  0
  -21.3642   -5.6784   24.9199 C   0  0  0  0  0  0
  -21.6002   -4.3033   24.7282 C   0  0  0  0  0  0
  -21.8812   -3.8110   23.4415 C   0  0  0  0  0  0
  -21.9179   -4.6906   22.3453 C   0  0  0  0  0  0
  -22.7779  -13.5184   21.1844 C   0  0  0  0  0  0
  -22.1638   -4.2071   21.1024 F   0  0  0  0  0  0
  -21.5598   -3.4522   25.7799 F   0  0  0  0  0  0
  -30.0204  -13.2407   20.4400 N   0  0  0  0  0  0
  -26.2924  -12.9052   20.3412 N   0  0  0  0  0  0
  -25.9163  -11.6265   20.5821 N   0  0  0  0  0  0
  -22.0380  -12.8245   22.0429 N   0  0  0  0  0  0
  -25.4286  -15.1736   20.3885 N   0  0  0  0  0  0
  -31.7849  -14.5829   20.0679 O   0  0  0  0  0  0
  -21.6571   -6.8802   21.4244 O   0  0  0  0  0  0
  -22.3472  -14.5481   20.6610 O   0  0  0  0  0  0
  -24.6102  -31.8726   23.2131 C   0  0  0  0  0  0
  -25.8984  -32.4864   23.8463 C   0  0  1  0  0  0
  -27.2238  -27.4647   20.1159 C   0  0  0  0  0  0
  -25.5816  -33.8666   24.2342 N   0  0  0  0  0  0
  -23.3994  -30.4947   21.5519 C   0  0  2  0  0  0
  -24.8484  -28.9712   20.1054 C   0  0  0  0  0  0
  -22.7399  -29.4648   22.4963 C   0  0  0  0  0  0
  -18.0247  -28.1396   22.8516 C   0  0  0  0  0  0
  -24.1471  -36.7323   23.2647 C   0  0  0  0  0  0
  -25.9236  -30.8507   21.3614 C   0  0  0  0  0  0
  -26.0043  -29.4902   20.7025 C   0  0  0  0  0  0
  -27.2023  -28.7453   20.7025 C   0  0  0  0  0  0
  -26.0648  -26.9558   19.5046 C   0  0  0  0  0  0
  -24.8713  -27.7010   19.4995 C   0  0  0  0  0  0
  -23.6084  -29.8334   20.1630 C   0  0  0  0  0  0
  -25.4095  -36.3140   24.0351 C   0  0  1  0  0  0
  -20.5843  -28.3673   23.1327 C   0  0  2  0  0  0
  -20.6734  -26.9412   22.5417 C   0  0  0  0  0  0
  -19.5703  -26.6396   21.5217 C   0  0  0  0  0  0
  -18.1880  -26.7948   22.1627 C   0  0  0  0  0  0
  -19.1509  -28.8841   23.2944 C   0  0  0  0  0  0
  -18.9449  -30.1448   23.8959 C   0  0  0  0  0  0
  -17.6450  -30.6617   24.0566 C   0  0  0  0  0  0
  -25.9019  -34.9501   23.5153 C   0  0  0  0  0  0
  -16.5328  -29.9122   23.6326 C   0  0  0  0  0  0
  -16.7240  -28.6527   23.0371 C   0  0  0  0  0  0
  -26.4400  -31.6661   25.0802 C   0  0  0  0  0  0
  -25.3660  -31.3732   26.1544 C   0  0  0  0  0  0
  -27.0280  -30.3137   24.6184 C   0  0  0  0  0  0
  -27.6017  -32.4372   25.7516 C   0  0  0  0  0  0
  -27.5569  -37.1805   24.8450 C   0  0  0  0  0  0
  -21.4115  -29.3044   22.3721 N   0  0  0  0  0  0
  -26.4270  -37.3833   23.9432 N   0  0  0  0  0  0
  -24.6633  -31.0855   22.1015 N   0  0  0  0  0  0
  -23.4196  -28.8172   23.2986 O   0  0  0  0  0  0
  -28.3136  -26.6504   20.2518 O   0  0  0  0  0  0
  -26.5624  -34.8941   22.4740 O   0  0  0  0  0  0
  -23.5284  -32.1405   23.7546 O   0  0  0  0  0  0
  -30.4176  -18.5448   23.0161 C   0  0  0  0  0  0
  -29.9911  -19.8873   22.9581 C   0  0  0  0  0  0
  -29.8291  -19.7198   20.5467 C   0  0  0  0  0  0
  -30.5760  -17.7851   21.8360 C   0  0  0  0  0  0
  -30.2823  -18.3915   20.5811 C   0  0  0  0  0  0
  -29.6948  -20.5006   21.7185 C   0  0  0  0  0  0
  -28.8348  -24.6980   21.5671 C   0  0  0  0  0  0
  -28.2692  -25.9071   21.4116 C   0  0  0  0  0  0
  -30.9828  -16.3352   21.9574 C   0  0  0  0  0  0
  -29.6181  -24.0185   20.4615 C   0  0  0  0  0  0
  -28.7432  -23.9169   22.8762 C   0  0  0  0  0  0
  -29.2882  -22.5286   20.3393 C   0  0  0  0  0  0
  -28.4311  -22.4225   22.6615 C   0  0  0  0  0  0
  -30.4053  -17.6837   19.2362 C   0  0  0  0  0  0
  -28.7008  -15.7884   21.3688 C   0  0  0  0  0  0
  -29.3174  -21.8595   21.6432 N   0  0  0  0  0  0
  -30.1417  -15.4040   21.4223 N   0  0  0  0  0  0
  -32.0589  -16.0709   22.5104 O   0  0  0  0  0  0
  -31.4517  -12.4289   19.0307 H   0  0  0  0  0  0
  -30.3410  -11.2696   19.6947 H   0  0  0  0  0  0
  -29.6988  -11.8803   17.3353 H   0  0  0  0  0  0
  -29.6128  -13.5647   17.7923 H   0  0  0  0  0  0
  -27.7926  -11.3100   18.7290 H   0  0  0  0  0  0
  -27.3261  -12.6917   17.7759 H   0  0  0  0  0  0
  -27.6998  -14.1877   19.5834 H   0  0  0  0  0  0
  -28.7114  -11.7459   21.1076 H   0  0  0  0  0  0
  -28.5035  -13.1818   21.9671 H   0  0  0  0  0  0
  -25.2663   -9.5592   22.4745 H   0  0  0  0  0  0
  -23.9894   -7.4556   22.7490 H   0  0  0  0  0  0
  -21.0746   -8.8717   19.8950 H   0  0  0  0  0  0
  -22.3617  -10.9608   19.6142 H   0  0  0  0  0  0
  -21.2047   -7.6137   23.9733 H   0  0  0  0  0  0
  -21.1448   -6.0517   25.9100 H   0  0  0  0  0  0
  -22.0596   -2.7570   23.2980 H   0  0  0  0  0  0
  -22.3957  -11.9961   22.4969 H   0  0  0  0  0  0
  -21.0975  -13.1268   22.2527 H   0  0  0  0  0  0
  -24.6606  -15.8303   20.4648 H   0  0  0  0  0  0
  -26.2819  -15.6001   20.0540 H   0  0  0  0  0  0
  -26.7048  -32.5602   23.1253 H   0  0  0  0  0  0
  -24.9861  -33.9843   25.0412 H   0  0  0  0  0  0
  -22.6866  -31.3105   21.4155 H   0  0  0  0  0  0
  -23.3764  -35.9618   23.3294 H   0  0  0  0  0  0
  -24.3543  -36.8974   22.2057 H   0  0  0  0  0  0
  -23.7167  -37.6497   23.6696 H   0  0  0  0  0  0
  -26.0269  -31.6248   20.5991 H   0  0  0  0  0  0
  -26.8128  -30.9032   21.9792 H   0  0  0  0  0  0
  -28.0867  -29.1270   21.1930 H   0  0  0  0  0  0
  -26.0788  -25.9648   19.0780 H   0  0  0  0  0  0
  -23.9790  -27.2866   19.0515 H   0  0  0  0  0  0
  -23.7192  -30.6138   19.4100 H   0  0  0  0  0  0
  -22.7343  -29.2540   19.8635 H   0  0  0  0  0  0
  -25.1251  -36.2017   25.0851 H   0  0  0  0  0  0
  -20.9918  -28.3252   24.1455 H   0  0  0  0  0  0
  -20.5603  -26.2299   23.3609 H   0  0  0  0  0  0
  -21.6621  -26.7438   22.1233 H   0  0  0  0  0  0
  -19.6871  -25.6320   21.1229 H   0  0  0  0  0  0
  -19.6641  -27.3226   20.6773 H   0  0  0  0  0  0
  -17.4136  -26.6718   21.4029 H   0  0  0  0  0  0
  -18.0275  -26.0086   22.9026 H   0  0  0  0  0  0
  -19.7929  -30.7252   24.2357 H   0  0  0  0  0  0
  -17.5018  -31.6303   24.5187 H   0  0  0  0  0  0
  -15.5344  -30.3069   23.7622 H   0  0  0  0  0  0
  -15.8626  -28.0862   22.7091 H   0  0  0  0  0  0
  -24.5823  -30.7109   25.7831 H   0  0  0  0  0  0
  -24.8841  -32.2872   26.5038 H   0  0  0  0  0  0
  -25.7983  -30.8832   27.0281 H   0  0  0  0  0  0
  -26.2882  -29.6884   24.1177 H   0  0  0  0  0  0
  -27.4003  -29.7376   25.4663 H   0  0  0  0  0  0
  -27.8710  -30.4501   23.9409 H   0  0  0  0  0  0
  -27.2704  -33.3691   26.2102 H   0  0  0  0  0  0
  -28.3792  -32.6885   25.0296 H   0  0  0  0  0  0
  -28.0735  -31.8496   26.5400 H   0  0  0  0  0  0
  -28.2556  -38.0130   24.7585 H   0  0  0  0  0  0
  -28.1093  -36.2678   24.6188 H   0  0  0  0  0  0
  -27.2301  -37.1345   25.8847 H   0  0  0  0  0  0
  -20.9239  -29.8852   21.7024 H   0  0  0  0  0  0
  -26.0167  -38.2894   24.1535 H   0  0  0  0  0  0
  -30.6062  -18.0884   23.9806 H   0  0  0  0  0  0
  -29.9156  -20.4331   23.8875 H   0  0  0  0  0  0
  -29.5827  -20.1153   19.5750 H   0  0  0  0  0  0
  -27.7190  -26.3905   22.2090 H   0  0  0  0  0  0
  -30.6813  -24.1313   20.6741 H   0  0  0  0  0  0
  -29.4362  -24.5066   19.5046 H   0  0  0  0  0  0
  -28.0015  -24.3660   23.5420 H   0  0  0  0  0  0
  -29.7041  -24.0023   23.3846 H   0  0  0  0  0  0
  -30.0141  -22.1129   19.6433 H   0  0  0  0  0  0
  -28.2953  -22.3962   19.9040 H   0  0  0  0  0  0
  -27.3998  -22.3010   22.3219 H   0  0  0  0  0  0
  -28.4849  -21.9075   23.6196 H   0  0  0  0  0  0
  -29.4800  -17.1665   18.9763 H   0  0  0  0  0  0
  -31.2361  -16.9821   19.2146 H   0  0  0  0  0  0
  -30.5901  -18.4083   18.4439 H   0  0  0  0  0  0
  -28.4319  -16.7124   21.8771 H   0  0  0  0  0  0
  -28.0173  -15.1089   21.8611 H   0  0  0  0  0  0
  -28.3791  -15.9381   20.3449 H   0  0  0  0  0  0
  1 25  1  0  0  0
  1 30  2  0  0  0
  1 87  1  0  0  0
  2  3  1  0  0  0
  2 25  1  0  0  0
  2 89  1  0  0  0
  2 90  1  0  0  0
  3  4  1  0  0  0
  3 91  1  0  0  0
  3 92  1  0  0  0
  4  5  1  0  0  0
  4 93  1  0  0  0
  4 94  1  0  0  0
  5  6  1  0  0  0
  5 26  1  0  0  0
  5 95  1  0  0  0
  6 25  1  0  0  0
  6 96  1  0  0  0
  6 97  1  0  0  0
  7  8  2  0  0  0
  7 26  1  0  0  0
  7 29  1  0  0  0
  8  9  1  0  0  0
  8 22  1  0  0  0
  9 10  1  0  0  0
  9 27  2  0  0  0
 10 11  2  0  0  0
 10 15  1  0  0  0
 11 12  1  0  0  0
 11 98  1  0  0  0
 12 13  2  0  0  0
 12 99  1  0  0  0
 13 14  1  0  0  0
 13 31  1  0  0  0
 14 15  2  0  0  0
 14100  1  0  0  0
 15101  1  0  0  0
 16 17  2  0  0  0
 16 21  1  0  0  0
 16 31  1  0  0  0
 17 18  1  0  0  0
 17102  1  0  0  0
 18 19  2  0  0  0
 18103  1  0  0  0
 19 20  1  0  0  0
 19 24  1  0  0  0
 20 21  2  0  0  0
 20104  1  0  0  0
 21 23  1  0  0  0
 22 28  1  0  0  0
 22 32  2  0  0  0
 26 27  1  0  0  0
 28105  1  0  0  0
 28106  1  0  0  0
 29107  1  0  0  0
 29108  1  0  0  0
 33 34  1  0  0  0
 33 66  1  0  0  0
 33 70  2  0  0  0
 34 36  1  0  0  0
 34 59  1  0  0  0
 34109  1  0  0  0
 35 44  2  0  0  0
 35 45  1  0  0  0
 35 68  1  0  0  0
 36 56  1  0  0  0
 36110  1  0  0  0
 37 39  1  0  0  0
 37 47  1  0  0  0
 37 66  1  0  0  0
 37111  1  0  0  0
 38 43  2  0  0  0
 38 46  1  0  0  0
 38 47  1  0  0  0
 39 64  1  0  0  0
 39 67  2  0  0  0
 40 52  1  0  0  0
 40 53  2  0  0  0
 40 58  1  0  0  0
 41112  1  0  0  0
 41113  1  0  0  0
 41114  1  0  0  0
 41 48  1  0  0  0
 42 43  1  0  0  0
 42 66  1  0  0  0
 42115  1  0  0  0
 42116  1  0  0  0
 43 44  1  0  0  0
 44117  1  0  0  0
 45 46  2  0  0  0
 45118  1  0  0  0
 46119  1  0  0  0
 47120  1  0  0  0
 47121  1  0  0  0
 48 56  1  0  0  0
 48 65  1  0  0  0
 48122  1  0  0  0
 49 50  1  0  0  0
 49 53  1  0  0  0
 49 64  1  0  0  0
 49123  1  0  0  0
 50 51  1  0  0  0
 50124  1  0  0  0
 50125  1  0  0  0
 51 52  1  0  0  0
 51126  1  0  0  0
 51127  1  0  0  0
 52128  1  0  0  0
 52129  1  0  0  0
 53 54  1  0  0  0
 54 55  2  0  0  0
 54130  1  0  0  0
 55 57  1  0  0  0
 55131  1  0  0  0
 56 69  2  0  0  0
 57 58  2  0  0  0
 57132  1  0  0  0
 58133  1  0  0  0
 59 60  1  0  0  0
 59 61  1  0  0  0
 59 62  1  0  0  0
 60134  1  0  0  0
 60135  1  0  0  0
 60136  1  0  0  0
 61137  1  0  0  0
 61138  1  0  0  0
 61139  1  0  0  0
 62140  1  0  0  0
 62141  1  0  0  0
 62142  1  0  0  0
 63 65  1  0  0  0
 63143  1  0  0  0
 63144  1  0  0  0
 63145  1  0  0  0
 64146  1  0  0  0
 65147  1  0  0  0
 68 78  1  0  0  0
 71 72  2  0  0  0
 71 74  1  0  0  0
 71148  1  0  0  0
 72 76  1  0  0  0
 72149  1  0  0  0
 73 75  1  0  0  0
 73 76  2  0  0  0
 73150  1  0  0  0
 74 75  2  0  0  0
 74 79  1  0  0  0
 75 84  1  0  0  0
 76 86  1  0  0  0
 77 78  2  0  0  0
 77 80  1  0  0  0
 77 81  1  0  0  0
 78151  1  0  0  0
 79 87  1  0  0  0
 79 88  2  0  0  0
 80 82  1  0  0  0
 80152  1  0  0  0
 80153  1  0  0  0
 81 83  1  0  0  0
 81154  1  0  0  0
 81155  1  0  0  0
 82 86  1  0  0  0
 82156  1  0  0  0
 82157  1  0  0  0
 83 86  1  0  0  0
 83158  1  0  0  0
 83159  1  0  0  0
 84160  1  0  0  0
 84161  1  0  0  0
 84162  1  0  0  0
 85 87  1  0  0  0
 85163  1  0  0  0
 85164  1  0  0  0
 85165  1  0  0  0
M  ISO  4   1 100  68 101  78 101  87 100
M  END
> <chiral flag>
0

> <version>
0

> <s_m_source_file>
/data/baiqing/PycharmProjects/Reinvent-master-3.2/result/LINK_invent/BTK/process_docking_weight1_custom_product_contain_oxygen_bond_distance_aromatic_linkinvent_7_9_3/rearranged_h_0104.sdf

> <i_m_source_file_index>
53

> <r_mmod_Potential_Energy-OPLS-2005>
245.981262207031

> <r_mmod_Stretch_Energy-OPLS-2005>
45.2529602050781

> <r_mmod_Bend_Energy-OPLS-2005>
135.607025146484

> <r_mmod_Torsional_Energy-OPLS-2005>
333.402069091797

> <r_mmod_Improper_Torsional_Energy-OPLS-2005>
5.41350030899048

> <r_mmod_Van_der_Waal_Energy-OPLS-2005>
217.480728149414

> <r_mmod_Electrostatic_Energy-OPLS-2005>
-301.481018066406

> <r_mmod_Solvation_Energy-OPLS-2005>
-208.812408447266

> <b_mmod_Minimization_Converged-OPLS-2005>
0

> <r_mmod_RMS_Derivative-OPLS-2005>
6.07934379577637

$$$$
54
                    3D
 Structure written by MMmdl.
162171  0  0  1  0            999 V2000
  -30.7240  -14.4533   20.6052 C   0  0  0  0  0  0
  -30.4189  -12.3121   19.4100 C   0  0  0  0  0  0
  -29.4885  -12.5123   18.1980 C   0  0  0  0  0  0
  -28.0112  -12.3707   18.6140 C   0  0  0  0  0  0
  -27.6598  -13.2088   19.8729 C   0  0  2  0  0  0
  -28.7029  -12.9854   20.9903 C   0  0  0  0  0  0
  -25.2577  -13.8169   20.5679 C   0  0  0  0  0  0
  -24.1831  -13.0442   20.9175 C   0  0  0  0  0  0
  -24.6391  -11.6912   20.8739 C   0  0  0  0  0  0
  -23.9061  -10.4294   21.0406 C   0  0  0  0  0  0
  -24.3614   -9.4208   21.9182 C   0  0  0  0  0  0
  -23.6292   -8.2240   22.0755 C   0  0  0  0  0  0
  -22.4270   -8.0281   21.3546 C   0  0  0  0  0  0
  -21.9909   -9.0250   20.4644 C   0  0  0  0  0  0
  -22.7240  -10.2127   20.3052 C   0  0  0  0  0  0
  -21.6850   -6.0733   22.5284 C   0  0  0  0  0  0
  -21.4006   -6.5639   23.8216 C   0  0  0  0  0  0
  -21.3653   -5.6787   24.9177 C   0  0  0  0  0  0
  -21.6046   -4.3049   24.7225 C   0  0  0  0  0  0
  -21.8823   -3.8142   23.4346 C   0  0  0  0  0  0
  -21.9193   -4.6962   22.3405 C   0  0  0  0  0  0
  -22.7853  -13.5241   21.1844 C   0  0  0  0  0  0
  -22.1663   -4.2149   21.0979 F   0  0  0  0  0  0
  -21.5629   -3.4530   25.7734 F   0  0  0  0  0  0
  -30.0331  -13.2936   20.4361 N   0  0  0  0  0  0
  -26.3014  -12.9340   20.3365 N   0  0  0  0  0  0
  -25.9317  -11.6499   20.5767 N   0  0  0  0  0  0
  -22.0483  -12.8225   22.0388 N   0  0  0  0  0  0
  -25.4310  -15.1888   20.4091 N   0  0  0  0  0  0
  -31.8294  -14.6528   20.0938 O   0  0  0  0  0  0
  -21.6640   -6.8876   21.4242 O   0  0  0  0  0  0
  -22.3543  -14.5552   20.6710 O   0  0  0  0  0  0
  -24.6151  -31.8678   23.2092 C   0  0  0  0  0  0
  -25.9049  -32.4811   23.8391 C   0  0  1  0  0  0
  -27.2313  -27.4304   20.0996 C   0  0  0  0  0  0
  -25.5923  -33.8608   24.2341 N   0  0  0  0  0  0
  -23.4029  -30.4922   21.5488 C   0  0  2  0  0  0
  -24.8492  -28.9574   20.1125 C   0  0  0  0  0  0
  -22.7414  -29.4663   22.4973 C   0  0  0  0  0  0
  -18.0275  -28.1378   22.8482 C   0  0  0  0  0  0
  -24.1485  -36.7285   23.2637 C   0  0  0  0  0  0
  -25.9317  -30.8349   21.3596 C   0  0  0  0  0  0
  -26.0104  -29.4685   20.7067 C   0  0  0  0  0  0
  -27.2074  -28.7147   20.6921 C   0  0  0  0  0  0
  -26.0550  -26.9385   19.4930 C   0  0  0  0  0  0
  -24.8668  -27.6924   19.5007 C   0  0  0  0  0  0
  -23.6112  -29.8242   20.1629 C   0  0  0  0  0  0
  -25.4104  -36.3095   24.0351 C   0  0  1  0  0  0
  -20.5865  -28.3665   23.1312 C   0  0  2  0  0  0
  -20.6758  -26.9397   22.5422 C   0  0  0  0  0  0
  -19.5750  -26.6388   21.5202 C   0  0  0  0  0  0
  -18.1925  -26.7933   22.1599 C   0  0  0  0  0  0
  -19.1523  -28.8835   23.2899 C   0  0  0  0  0  0
  -18.9448  -30.1436   23.8916 C   0  0  0  0  0  0
  -17.6454  -30.6581   24.0566 C   0  0  0  0  0  0
  -25.9039  -34.9465   23.5137 C   0  0  0  0  0  0
  -16.5344  -29.9085   23.6324 C   0  0  0  0  0  0
  -16.7263  -28.6503   23.0342 C   0  0  0  0  0  0
  -26.4484  -31.6572   25.0702 C   0  0  0  0  0  0
  -25.3761  -31.3667   26.1461 C   0  0  0  0  0  0
  -27.0274  -30.3006   24.6038 C   0  0  0  0  0  0
  -27.6082  -32.4257   25.7460 C   0  0  0  0  0  0
  -27.5578  -37.1806   24.8469 C   0  0  0  0  0  0
  -21.4142  -29.3028   22.3708 N   0  0  0  0  0  0
  -26.4284  -37.3785   23.9419 N   0  0  0  0  0  0
  -24.6681  -31.0791   22.0980 N   0  0  0  0  0  0
  -23.4190  -28.8209   23.3015 O   0  0  0  0  0  0
  -28.3853  -26.6731   20.1094 O   0  0  0  0  0  0
  -26.5577  -34.8927   22.4683 O   0  0  0  0  0  0
  -23.5346  -32.1419   23.7497 O   0  0  0  0  0  0
  -31.0009  -18.4443   20.0214 C   0  0  0  0  0  0
  -30.7195  -19.7084   19.4598 C   0  0  0  0  0  0
  -28.9214  -20.0163   21.0479 C   0  0  0  0  0  0
  -30.2602  -17.9532   21.1163 C   0  0  0  0  0  0
  -29.1837  -18.7383   21.6058 C   0  0  0  0  0  0
  -29.6924  -20.5362   19.9799 C   0  0  0  0  0  0
  -28.9867  -22.9369   20.1928 C   0  0  0  0  0  0
  -28.6968  -24.1711   19.7021 C   0  0  0  0  0  0
  -28.7951  -24.3718   18.2330 C   0  0  0  0  0  0
  -28.9260  -23.1167   17.3673 C   0  0  0  0  0  0
  -29.7763  -22.0221   18.0374 C   0  0  0  0  0  0
  -28.3140  -18.2452   22.7497 C   0  0  0  0  0  0
  -30.7155  -16.6547   21.8027 C   0  0  0  0  0  0
  -28.2429  -25.3264   20.6158 C   0  0  0  0  0  0
  -29.4357  -21.8325   19.4529 N   0  0  0  0  0  0
  -30.1065  -15.4067   21.3246 N   0  0  0  0  0  0
  -28.7519  -25.4664   17.6646 O   0  0  0  0  0  0
  -31.4633  -12.4092   19.1071 H   0  0  0  0  0  0
  -30.3188  -11.2999   19.8052 H   0  0  0  0  0  0
  -29.7280  -11.7908   17.4158 H   0  0  0  0  0  0
  -29.6553  -13.4992   17.7638 H   0  0  0  0  0  0
  -27.8217  -11.3146   18.8076 H   0  0  0  0  0  0
  -27.3582  -12.6454   17.7850 H   0  0  0  0  0  0
  -27.7053  -14.2583   19.5804 H   0  0  0  0  0  0
  -28.6817  -11.9473   21.3248 H   0  0  0  0  0  0
  -28.4597  -13.5771   21.8734 H   0  0  0  0  0  0
  -25.2760   -9.5685   22.4749 H   0  0  0  0  0  0
  -24.0008   -7.4631   22.7466 H   0  0  0  0  0  0
  -21.0845   -8.8759   19.8945 H   0  0  0  0  0  0
  -22.3703  -10.9655   19.6146 H   0  0  0  0  0  0
  -21.1985   -7.6146   23.9721 H   0  0  0  0  0  0
  -21.1469   -6.0510   25.9079 H   0  0  0  0  0  0
  -22.0601   -2.7604   23.2839 H   0  0  0  0  0  0
  -22.4079  -11.9866   22.4755 H   0  0  0  0  0  0
  -21.1095  -13.1248   22.2575 H   0  0  0  0  0  0
  -24.6662  -15.8461   20.5140 H   0  0  0  0  0  0
  -26.2909  -15.6263   20.1021 H   0  0  0  0  0  0
  -26.7114  -32.5530   23.1158 H   0  0  0  0  0  0
  -25.0147  -33.9765   25.0536 H   0  0  0  0  0  0
  -22.6921  -31.3097   21.4097 H   0  0  0  0  0  0
  -23.3756  -35.9608   23.3307 H   0  0  0  0  0  0
  -24.3582  -36.8871   22.2047 H   0  0  0  0  0  0
  -23.7226  -37.6496   23.6626 H   0  0  0  0  0  0
  -26.0407  -31.6011   20.5908 H   0  0  0  0  0  0
  -26.8212  -30.8903   21.9749 H   0  0  0  0  0  0
  -28.1042  -29.1053   21.1520 H   0  0  0  0  0  0
  -26.0549  -25.9710   19.0111 H   0  0  0  0  0  0
  -23.9754  -27.2953   19.0342 H   0  0  0  0  0  0
  -23.7202  -30.5985   19.4026 H   0  0  0  0  0  0
  -22.7359  -29.2435   19.8666 H   0  0  0  0  0  0
  -25.1275  -36.1962   25.0846 H   0  0  0  0  0  0
  -20.9967  -28.3225   24.1431 H   0  0  0  0  0  0
  -20.5622  -26.2277   23.3608 H   0  0  0  0  0  0
  -21.6631  -26.7421   22.1238 H   0  0  0  0  0  0
  -19.6911  -25.6304   21.1214 H   0  0  0  0  0  0
  -19.6713  -27.3207   20.6741 H   0  0  0  0  0  0
  -17.4210  -26.6702   21.3982 H   0  0  0  0  0  0
  -18.0310  -26.0062   22.8976 H   0  0  0  0  0  0
  -19.7927  -30.7236   24.2303 H   0  0  0  0  0  0
  -17.5015  -31.6259   24.5168 H   0  0  0  0  0  0
  -15.5346  -30.2988   23.7653 H   0  0  0  0  0  0
  -15.8663  -28.0831   22.7044 H   0  0  0  0  0  0
  -24.6003  -30.6917   25.7834 H   0  0  0  0  0  0
  -24.8868  -32.2798   26.4853 H   0  0  0  0  0  0
  -25.8151  -30.8927   27.0248 H   0  0  0  0  0  0
  -26.2777  -29.6795   24.1118 H   0  0  0  0  0  0
  -27.4075  -29.7215   25.4465 H   0  0  0  0  0  0
  -27.8617  -30.4311   23.9138 H   0  0  0  0  0  0
  -27.2746  -33.3583   26.2022 H   0  0  0  0  0  0
  -28.3916  -32.6749   25.0288 H   0  0  0  0  0  0
  -28.0716  -31.8362   26.5384 H   0  0  0  0  0  0
  -28.2611  -38.0088   24.7490 H   0  0  0  0  0  0
  -28.1054  -36.2620   24.6309 H   0  0  0  0  0  0
  -27.2306  -37.1472   25.8876 H   0  0  0  0  0  0
  -20.9300  -29.8748   21.6930 H   0  0  0  0  0  0
  -26.0172  -38.2862   24.1420 H   0  0  0  0  0  0
  -31.8254  -17.8648   19.6291 H   0  0  0  0  0  0
  -31.3455  -20.0469   18.6465 H   0  0  0  0  0  0
  -28.1099  -20.6056   21.4503 H   0  0  0  0  0  0
  -28.9237  -22.7517   21.2565 H   0  0  0  0  0  0
  -29.3452  -23.3768   16.3958 H   0  0  0  0  0  0
  -27.9203  -22.7378   17.1862 H   0  0  0  0  0  0
  -30.8335  -22.2809   17.9553 H   0  0  0  0  0  0
  -29.6320  -21.0950   17.4794 H   0  0  0  0  0  0
  -27.3931  -18.8240   22.8278 H   0  0  0  0  0  0
  -28.8436  -18.3270   23.6992 H   0  0  0  0  0  0
  -28.0305  -17.2027   22.6007 H   0  0  0  0  0  0
  -30.5253  -16.7265   22.8733 H   0  0  0  0  0  0
  -31.8035  -16.5954   21.7324 H   0  0  0  0  0  0
  -28.8396  -25.2758   21.5273 H   0  0  0  0  0  0
  -27.2241  -25.1088   20.9403 H   0  0  0  0  0  0
  -29.1873  -15.1837   21.6736 H   0  0  0  0  0  0
  1 25  1  0  0  0
  1 30  2  0  0  0
  1 86  1  0  0  0
  2  3  1  0  0  0
  2 25  1  0  0  0
  2 88  1  0  0  0
  2 89  1  0  0  0
  3  4  1  0  0  0
  3 90  1  0  0  0
  3 91  1  0  0  0
  4  5  1  0  0  0
  4 92  1  0  0  0
  4 93  1  0  0  0
  5  6  1  0  0  0
  5 26  1  0  0  0
  5 94  1  0  0  0
  6 25  1  0  0  0
  6 95  1  0  0  0
  6 96  1  0  0  0
  7  8  2  0  0  0
  7 26  1  0  0  0
  7 29  1  0  0  0
  8  9  1  0  0  0
  8 22  1  0  0  0
  9 10  1  0  0  0
  9 27  2  0  0  0
 10 11  2  0  0  0
 10 15  1  0  0  0
 11 12  1  0  0  0
 11 97  1  0  0  0
 12 13  2  0  0  0
 12 98  1  0  0  0
 13 14  1  0  0  0
 13 31  1  0  0  0
 14 15  2  0  0  0
 14 99  1  0  0  0
 15100  1  0  0  0
 16 17  2  0  0  0
 16 21  1  0  0  0
 16 31  1  0  0  0
 17 18  1  0  0  0
 17101  1  0  0  0
 18 19  2  0  0  0
 18102  1  0  0  0
 19 20  1  0  0  0
 19 24  1  0  0  0
 20 21  2  0  0  0
 20103  1  0  0  0
 21 23  1  0  0  0
 22 28  1  0  0  0
 22 32  2  0  0  0
 26 27  1  0  0  0
 28104  1  0  0  0
 28105  1  0  0  0
 29106  1  0  0  0
 29107  1  0  0  0
 33 34  1  0  0  0
 33 66  1  0  0  0
 33 70  2  0  0  0
 34 36  1  0  0  0
 34 59  1  0  0  0
 34108  1  0  0  0
 35 44  2  0  0  0
 35 45  1  0  0  0
 35 68  1  0  0  0
 36 56  1  0  0  0
 36109  1  0  0  0
 37 39  1  0  0  0
 37 47  1  0  0  0
 37 66  1  0  0  0
 37110  1  0  0  0
 38 43  2  0  0  0
 38 46  1  0  0  0
 38 47  1  0  0  0
 39 64  1  0  0  0
 39 67  2  0  0  0
 40 52  1  0  0  0
 40 53  2  0  0  0
 40 58  1  0  0  0
 41111  1  0  0  0
 41112  1  0  0  0
 41113  1  0  0  0
 41 48  1  0  0  0
 42 43  1  0  0  0
 42 66  1  0  0  0
 42114  1  0  0  0
 42115  1  0  0  0
 43 44  1  0  0  0
 44116  1  0  0  0
 45 46  2  0  0  0
 45117  1  0  0  0
 46118  1  0  0  0
 47119  1  0  0  0
 47120  1  0  0  0
 48 56  1  0  0  0
 48 65  1  0  0  0
 48121  1  0  0  0
 49 50  1  0  0  0
 49 53  1  0  0  0
 49 64  1  0  0  0
 49122  1  0  0  0
 50 51  1  0  0  0
 50123  1  0  0  0
 50124  1  0  0  0
 51 52  1  0  0  0
 51125  1  0  0  0
 51126  1  0  0  0
 52127  1  0  0  0
 52128  1  0  0  0
 53 54  1  0  0  0
 54 55  2  0  0  0
 54129  1  0  0  0
 55 57  1  0  0  0
 55130  1  0  0  0
 56 69  2  0  0  0
 57 58  2  0  0  0
 57131  1  0  0  0
 58132  1  0  0  0
 59 60  1  0  0  0
 59 61  1  0  0  0
 59 62  1  0  0  0
 60133  1  0  0  0
 60134  1  0  0  0
 60135  1  0  0  0
 61136  1  0  0  0
 61137  1  0  0  0
 61138  1  0  0  0
 62139  1  0  0  0
 62140  1  0  0  0
 62141  1  0  0  0
 63 65  1  0  0  0
 63142  1  0  0  0
 63143  1  0  0  0
 63144  1  0  0  0
 64145  1  0  0  0
 65146  1  0  0  0
 68 84  1  0  0  0
 71 72  2  0  0  0
 71 74  1  0  0  0
 71147  1  0  0  0
 72 76  1  0  0  0
 72148  1  0  0  0
 73 75  1  0  0  0
 73 76  2  0  0  0
 73149  1  0  0  0
 74 75  2  0  0  0
 74 83  1  0  0  0
 75 82  1  0  0  0
 76 85  1  0  0  0
 77 78  2  0  0  0
 77 85  1  0  0  0
 77150  1  0  0  0
 78 79  1  0  0  0
 78 84  1  0  0  0
 79 80  1  0  0  0
 79 87  2  0  0  0
 80 81  1  0  0  0
 80151  1  0  0  0
 80152  1  0  0  0
 81 85  1  0  0  0
 81153  1  0  0  0
 81154  1  0  0  0
 82155  1  0  0  0
 82156  1  0  0  0
 82157  1  0  0  0
 83 86  1  0  0  0
 83158  1  0  0  0
 83159  1  0  0  0
 84160  1  0  0  0
 84161  1  0  0  0
 86162  1  0  0  0
M  ISO  4   1 100  68 101  84 101  86 100
M  END
> <chiral flag>
0

> <version>
0

> <s_m_source_file>
/data/baiqing/PycharmProjects/Reinvent-master-3.2/result/LINK_invent/BTK/process_docking_weight1_custom_product_contain_oxygen_bond_distance_aromatic_linkinvent_7_9_3/rearranged_h_0104.sdf

> <i_m_source_file_index>
54

> <r_mmod_Potential_Energy-OPLS-2005>
-89.4284973144531

> <r_mmod_Stretch_Energy-OPLS-2005>
43.2611618041992

> <r_mmod_Bend_Energy-OPLS-2005>
101.128700256348

> <r_mmod_Torsional_Energy-OPLS-2005>
199.657470703125

> <r_mmod_Improper_Torsional_Energy-OPLS-2005>
2.513756275177

> <r_mmod_Van_der_Waal_Energy-OPLS-2005>
169.873245239258

> <r_mmod_Electrostatic_Energy-OPLS-2005>
-391.828277587891

> <r_mmod_Solvation_Energy-OPLS-2005>
-225.772705078125

> <b_mmod_Minimization_Converged-OPLS-2005>
0

> <r_mmod_RMS_Derivative-OPLS-2005>
1.10336875915527

$$$$
55
                    3D
 Structure written by MMmdl.
155164  0  0  1  0            999 V2000
  -30.6082  -14.8182   20.4067 C   0  0  0  0  0  0
  -30.4296  -12.4959   19.4764 C   0  0  0  0  0  0
  -29.5082  -12.4937   18.2371 C   0  0  0  0  0  0
  -28.0380  -12.3110   18.6594 C   0  0  0  0  0  0
  -27.6323  -13.2393   19.8361 C   0  0  2  0  0  0
  -28.6815  -13.2382   20.9679 C   0  0  0  0  0  0
  -25.2504  -13.8205   20.5724 C   0  0  0  0  0  0
  -24.1795  -13.0448   20.9201 C   0  0  0  0  0  0
  -24.6381  -11.6920   20.8734 C   0  0  0  0  0  0
  -23.9063  -10.4296   21.0394 C   0  0  0  0  0  0
  -24.3613   -9.4212   21.9176 C   0  0  0  0  0  0
  -23.6294   -8.2243   22.0749 C   0  0  0  0  0  0
  -22.4281   -8.0272   21.3540 C   0  0  0  0  0  0
  -21.9906   -9.0238   20.4642 C   0  0  0  0  0  0
  -22.7225  -10.2128   20.3052 C   0  0  0  0  0  0
  -21.6853   -6.0728   22.5270 C   0  0  0  0  0  0
  -21.4012   -6.5635   23.8199 C   0  0  0  0  0  0
  -21.3661   -5.6795   24.9166 C   0  0  0  0  0  0
  -21.6050   -4.3056   24.7224 C   0  0  0  0  0  0
  -21.8821   -3.8143   23.4344 C   0  0  0  0  0  0
  -21.9192   -4.6955   22.3400 C   0  0  0  0  0  0
  -22.7817  -13.5221   21.1863 C   0  0  0  0  0  0
  -22.1660   -4.2139   21.0977 F   0  0  0  0  0  0
  -21.5631   -3.4540   25.7739 F   0  0  0  0  0  0
  -29.9666  -13.5951   20.3593 N   0  0  0  0  0  0
  -26.2911  -12.9424   20.3267 N   0  0  0  0  0  0
  -25.9318  -11.6559   20.5745 N   0  0  0  0  0  0
  -22.0481  -12.8201   22.0421 N   0  0  0  0  0  0
  -25.4239  -15.1933   20.4193 N   0  0  0  0  0  0
  -31.8251  -14.8422   20.1906 O   0  0  0  0  0  0
  -21.6645   -6.8869   21.4234 O   0  0  0  0  0  0
  -22.3494  -14.5518   20.6702 O   0  0  0  0  0  0
  -24.6329  -31.8545   23.1967 C   0  0  0  0  0  0
  -25.9135  -32.4761   23.8343 C   0  0  1  0  0  0
  -27.2243  -27.2408   20.1510 C   0  0  0  0  0  0
  -25.5920  -33.8559   24.2275 N   0  0  0  0  0  0
  -23.4326  -30.4732   21.5414 C   0  0  2  0  0  0
  -24.8836  -28.9124   20.1152 C   0  0  0  0  0  0
  -22.7519  -29.4590   22.4926 C   0  0  0  0  0  0
  -18.0293  -28.1386   22.8486 C   0  0  0  0  0  0
  -24.1480  -36.7266   23.2650 C   0  0  0  0  0  0
  -25.9791  -30.7619   21.3791 C   0  0  0  0  0  0
  -26.0545  -29.3797   20.7267 C   0  0  0  0  0  0
  -27.2298  -28.5581   20.7288 C   0  0  0  0  0  0
  -26.0340  -26.8435   19.5080 C   0  0  0  0  0  0
  -24.8799  -27.6530   19.4929 C   0  0  0  0  0  0
  -23.6552  -29.8026   20.1591 C   0  0  0  0  0  0
  -25.4105  -36.3077   24.0349 C   0  0  1  0  0  0
  -20.5897  -28.3700   23.1275 C   0  0  2  0  0  0
  -20.6781  -26.9413   22.5419 C   0  0  0  0  0  0
  -19.5751  -26.6380   21.5229 C   0  0  0  0  0  0
  -18.1928  -26.7921   22.1632 C   0  0  0  0  0  0
  -19.1547  -28.8861   23.2867 C   0  0  0  0  0  0
  -18.9467  -30.1459   23.8885 C   0  0  0  0  0  0
  -17.6465  -30.6584   24.0564 C   0  0  0  0  0  0
  -25.9054  -34.9448   23.5126 C   0  0  0  0  0  0
  -16.5359  -29.9079   23.6335 C   0  0  0  0  0  0
  -16.7281  -28.6502   23.0354 C   0  0  0  0  0  0
  -26.4502  -31.6583   25.0732 C   0  0  0  0  0  0
  -25.3715  -31.3714   26.1449 C   0  0  0  0  0  0
  -27.0370  -30.3016   24.6205 C   0  0  0  0  0  0
  -27.6082  -32.4315   25.7468 C   0  0  0  0  0  0
  -27.5572  -37.1780   24.8467 C   0  0  0  0  0  0
  -21.4226  -29.3040   22.3665 N   0  0  0  0  0  0
  -26.4278  -37.3779   23.9432 N   0  0  0  0  0  0
  -24.7013  -31.0478   22.0963 N   0  0  0  0  0  0
  -23.4199  -28.8136   23.3047 O   0  0  0  0  0  0
  -28.3120  -26.3339   20.1657 O   0  0  0  0  0  0
  -26.5623  -34.8917   22.4694 O   0  0  0  0  0  0
  -23.5472  -32.1385   23.7233 O   0  0  0  0  0  0
  -29.0916  -19.7878   21.1171 C   0  0  0  0  0  0
  -29.4079  -20.7344   18.9097 C   0  0  0  0  0  0
  -29.4352  -18.4706   20.6139 C   0  0  0  0  0  0
  -29.7389  -18.3076   19.2842 C   0  0  0  0  0  0
  -29.7430  -19.4323   18.4143 C   0  0  0  0  0  0
  -29.0616  -20.9725   20.2705 C   0  0  0  0  0  0
  -29.5481  -17.0592   21.2834 C   0  0  0  0  0  0
  -30.0288  -16.8226   18.9867 C   0  0  0  0  0  0
  -30.1043  -19.2612   16.9506 C   0  0  0  0  0  0
  -28.1074  -24.9211   20.6784 C   0  0  0  0  0  0
  -28.6775  -23.5532   19.9766 C   0  0  0  0  0  0
  -29.8619  -16.0001   20.2361 N   0  0  0  0  0  0
  -28.7067  -22.2727   20.7727 O   0  0  0  0  0  0
  -31.4683  -12.6211   19.1665 H   0  0  0  0  0  0
  -30.3848  -11.5385   19.9979 H   0  0  0  0  0  0
  -29.7999  -11.6971   17.5513 H   0  0  0  0  0  0
  -29.6202  -13.4297   17.6868 H   0  0  0  0  0  0
  -27.9098  -11.2685   18.9526 H   0  0  0  0  0  0
  -27.3763  -12.4658   17.8058 H   0  0  0  0  0  0
  -27.6055  -14.2465   19.4202 H   0  0  0  0  0  0
  -28.7402  -12.2634   21.4528 H   0  0  0  0  0  0
  -28.4119  -13.9583   21.7420 H   0  0  0  0  0  0
  -25.2753   -9.5683   22.4756 H   0  0  0  0  0  0
  -23.9993   -7.4637   22.7468 H   0  0  0  0  0  0
  -21.0834   -8.8749   19.8955 H   0  0  0  0  0  0
  -22.3663  -10.9663   19.6166 H   0  0  0  0  0  0
  -21.2002   -7.6143   23.9698 H   0  0  0  0  0  0
  -21.1488   -6.0528   25.9067 H   0  0  0  0  0  0
  -22.0600   -2.7604   23.2849 H   0  0  0  0  0  0
  -22.4123  -11.9861   22.4796 H   0  0  0  0  0  0
  -21.1099  -13.1207   22.2655 H   0  0  0  0  0  0
  -24.6671  -15.8556   20.5475 H   0  0  0  0  0  0
  -26.2898  -15.6307   20.1293 H   0  0  0  0  0  0
  -26.7201  -32.5419   23.1085 H   0  0  0  0  0  0
  -25.0087  -33.9710   25.0437 H   0  0  0  0  0  0
  -22.7303  -31.2958   21.3905 H   0  0  0  0  0  0
  -23.3780  -35.9559   23.3293 H   0  0  0  0  0  0
  -24.3584  -36.8906   22.2069 H   0  0  0  0  0  0
  -23.7179  -37.6441   23.6686 H   0  0  0  0  0  0
  -26.1137  -31.5176   20.6038 H   0  0  0  0  0  0
  -26.8573  -30.8196   22.0106 H   0  0  0  0  0  0
  -28.1263  -28.9125   21.2186 H   0  0  0  0  0  0
  -25.9919  -25.8781   19.0241 H   0  0  0  0  0  0
  -23.9847  -27.2914   19.0064 H   0  0  0  0  0  0
  -23.7820  -30.5790   19.4039 H   0  0  0  0  0  0
  -22.7739  -29.2372   19.8519 H   0  0  0  0  0  0
  -25.1276  -36.1943   25.0841 H   0  0  0  0  0  0
  -20.9979  -28.3278   24.1401 H   0  0  0  0  0  0
  -20.5709  -26.2307   23.3631 H   0  0  0  0  0  0
  -21.6643  -26.7444   22.1195 H   0  0  0  0  0  0
  -19.6919  -25.6294   21.1253 H   0  0  0  0  0  0
  -19.6688  -27.3200   20.6767 H   0  0  0  0  0  0
  -17.4208  -26.6700   21.4020 H   0  0  0  0  0  0
  -18.0294  -26.0055   22.9014 H   0  0  0  0  0  0
  -19.7947  -30.7278   24.2244 H   0  0  0  0  0  0
  -17.5023  -31.6261   24.5163 H   0  0  0  0  0  0
  -15.5359  -30.2979   23.7663 H   0  0  0  0  0  0
  -15.8682  -28.0822   22.7066 H   0  0  0  0  0  0
  -24.5870  -30.7104   25.7744 H   0  0  0  0  0  0
  -24.8927  -32.2875   26.4919 H   0  0  0  0  0  0
  -25.8008  -30.8831   27.0207 H   0  0  0  0  0  0
  -26.2966  -29.6733   24.1242 H   0  0  0  0  0  0
  -27.4103  -29.7301   25.4714 H   0  0  0  0  0  0
  -27.8809  -30.4338   23.9430 H   0  0  0  0  0  0
  -27.2745  -33.3649   26.2010 H   0  0  0  0  0  0
  -28.3873  -32.6813   25.0251 H   0  0  0  0  0  0
  -28.0766  -31.8453   26.5386 H   0  0  0  0  0  0
  -28.2581  -38.0085   24.7546 H   0  0  0  0  0  0
  -28.1076  -36.2624   24.6252 H   0  0  0  0  0  0
  -27.2305  -37.1367   25.8871 H   0  0  0  0  0  0
  -20.9430  -29.8769   21.6862 H   0  0  0  0  0  0
  -26.0168  -38.2856   24.1458 H   0  0  0  0  0  0
  -28.8419  -19.8955   22.1635 H   0  0  0  0  0  0
  -29.4123  -21.5665   18.2192 H   0  0  0  0  0  0
  -28.6105  -16.8116   21.7825 H   0  0  0  0  0  0
  -30.3326  -17.0756   22.0410 H   0  0  0  0  0  0
  -31.0352  -16.7303   18.5746 H   0  0  0  0  0  0
  -29.3325  -16.4682   18.2256 H   0  0  0  0  0  0
  -30.0955  -20.2157   16.4212 H   0  0  0  0  0  0
  -29.3976  -18.5964   16.4532 H   0  0  0  0  0  0
  -31.1038  -18.8379   16.8500 H   0  0  0  0  0  0
  -28.5657  -24.9473   21.6684 H   0  0  0  0  0  0
  -27.0497  -24.7632   20.8910 H   0  0  0  0  0  0
  -29.6971  -23.7472   19.6429 H   0  0  0  0  0  0
  -28.0962  -23.3753   19.0714 H   0  0  0  0  0  0
  1 25  1  0  0  0
  1 30  2  0  0  0
  1 82  1  0  0  0
  2  3  1  0  0  0
  2 25  1  0  0  0
  2 84  1  0  0  0
  2 85  1  0  0  0
  3  4  1  0  0  0
  3 86  1  0  0  0
  3 87  1  0  0  0
  4  5  1  0  0  0
  4 88  1  0  0  0
  4 89  1  0  0  0
  5  6  1  0  0  0
  5 26  1  0  0  0
  5 90  1  0  0  0
  6 25  1  0  0  0
  6 91  1  0  0  0
  6 92  1  0  0  0
  7  8  2  0  0  0
  7 26  1  0  0  0
  7 29  1  0  0  0
  8  9  1  0  0  0
  8 22  1  0  0  0
  9 10  1  0  0  0
  9 27  2  0  0  0
 10 11  2  0  0  0
 10 15  1  0  0  0
 11 12  1  0  0  0
 11 93  1  0  0  0
 12 13  2  0  0  0
 12 94  1  0  0  0
 13 14  1  0  0  0
 13 31  1  0  0  0
 14 15  2  0  0  0
 14 95  1  0  0  0
 15 96  1  0  0  0
 16 17  2  0  0  0
 16 21  1  0  0  0
 16 31  1  0  0  0
 17 18  1  0  0  0
 17 97  1  0  0  0
 18 19  2  0  0  0
 18 98  1  0  0  0
 19 20  1  0  0  0
 19 24  1  0  0  0
 20 21  2  0  0  0
 20 99  1  0  0  0
 21 23  1  0  0  0
 22 28  1  0  0  0
 22 32  2  0  0  0
 26 27  1  0  0  0
 28100  1  0  0  0
 28101  1  0  0  0
 29102  1  0  0  0
 29103  1  0  0  0
 33 34  1  0  0  0
 33 66  1  0  0  0
 33 70  2  0  0  0
 34 36  1  0  0  0
 34 59  1  0  0  0
 34104  1  0  0  0
 35 44  2  0  0  0
 35 45  1  0  0  0
 35 68  1  0  0  0
 36 56  1  0  0  0
 36105  1  0  0  0
 37 39  1  0  0  0
 37 47  1  0  0  0
 37 66  1  0  0  0
 37106  1  0  0  0
 38 43  2  0  0  0
 38 46  1  0  0  0
 38 47  1  0  0  0
 39 64  1  0  0  0
 39 67  2  0  0  0
 40 52  1  0  0  0
 40 53  2  0  0  0
 40 58  1  0  0  0
 41107  1  0  0  0
 41108  1  0  0  0
 41109  1  0  0  0
 41 48  1  0  0  0
 42 43  1  0  0  0
 42 66  1  0  0  0
 42110  1  0  0  0
 42111  1  0  0  0
 43 44  1  0  0  0
 44112  1  0  0  0
 45 46  2  0  0  0
 45113  1  0  0  0
 46114  1  0  0  0
 47115  1  0  0  0
 47116  1  0  0  0
 48 56  1  0  0  0
 48 65  1  0  0  0
 48117  1  0  0  0
 49 50  1  0  0  0
 49 53  1  0  0  0
 49 64  1  0  0  0
 49118  1  0  0  0
 50 51  1  0  0  0
 50119  1  0  0  0
 50120  1  0  0  0
 51 52  1  0  0  0
 51121  1  0  0  0
 51122  1  0  0  0
 52123  1  0  0  0
 52124  1  0  0  0
 53 54  1  0  0  0
 54 55  2  0  0  0
 54125  1  0  0  0
 55 57  1  0  0  0
 55126  1  0  0  0
 56 69  2  0  0  0
 57 58  2  0  0  0
 57127  1  0  0  0
 58128  1  0  0  0
 59 60  1  0  0  0
 59 61  1  0  0  0
 59 62  1  0  0  0
 60129  1  0  0  0
 60130  1  0  0  0
 60131  1  0  0  0
 61132  1  0  0  0
 61133  1  0  0  0
 61134  1  0  0  0
 62135  1  0  0  0
 62136  1  0  0  0
 62137  1  0  0  0
 63 65  1  0  0  0
 63138  1  0  0  0
 63139  1  0  0  0
 63140  1  0  0  0
 64141  1  0  0  0
 65142  1  0  0  0
 68 80  1  0  0  0
 71 73  2  0  0  0
 71 76  1  0  0  0
 71143  1  0  0  0
 72 75  1  0  0  0
 72 76  2  0  0  0
 72144  1  0  0  0
 73 74  1  0  0  0
 73 77  1  0  0  0
 74 75  2  0  0  0
 74 78  1  0  0  0
 75 79  1  0  0  0
 76 83  1  0  0  0
 77 82  1  0  0  0
 77145  1  0  0  0
 77146  1  0  0  0
 78 82  1  0  0  0
 78147  1  0  0  0
 78148  1  0  0  0
 79149  1  0  0  0
 79150  1  0  0  0
 79151  1  0  0  0
 80 81  1  0  0  0
 80152  1  0  0  0
 80153  1  0  0  0
 81 83  1  0  0  0
 81154  1  0  0  0
 81155  1  0  0  0
M  ISO  4   1 100  68 101  80 101  82 100
M  END
> <chiral flag>
0

> <version>
0

> <s_m_source_file>
/data/baiqing/PycharmProjects/Reinvent-master-3.2/result/LINK_invent/BTK/process_docking_weight1_custom_product_contain_oxygen_bond_distance_aromatic_linkinvent_7_9_3/rearranged_h_0104.sdf

> <i_m_source_file_index>
55

> <r_mmod_Potential_Energy-OPLS-2005>
371.5859375

> <r_mmod_Stretch_Energy-OPLS-2005>
142.709609985352

> <r_mmod_Bend_Energy-OPLS-2005>
224.749328613281

> <r_mmod_Torsional_Energy-OPLS-2005>
283.415466308594

> <r_mmod_Improper_Torsional_Energy-OPLS-2005>
17.0917835235596

> <r_mmod_Van_der_Waal_Energy-OPLS-2005>
124.673469543457

> <r_mmod_Electrostatic_Energy-OPLS-2005>
-330.525573730469

> <r_mmod_Solvation_Energy-OPLS-2005>
-203.680938720703

> <b_mmod_Minimization_Converged-OPLS-2005>
0

> <r_mmod_RMS_Derivative-OPLS-2005>
1.78395712375641

$$$$
56
                    3D
 Structure written by MMmdl.
161169  0  0  1  0            999 V2000
  -30.6792  -14.6773   20.5718 C   0  0  0  0  0  0
  -30.4305  -12.4384   19.4713 C   0  0  0  0  0  0
  -29.5106  -12.5389   18.2358 C   0  0  0  0  0  0
  -28.0342  -12.3568   18.6362 C   0  0  0  0  0  0
  -27.6454  -13.2250   19.8605 C   0  0  2  0  0  0
  -28.6864  -13.1066   20.9919 C   0  0  0  0  0  0
  -25.2417  -13.8071   20.5640 C   0  0  0  0  0  0
  -24.1758  -13.0318   20.9188 C   0  0  0  0  0  0
  -24.6405  -11.6826   20.8748 C   0  0  0  0  0  0
  -23.9089  -10.4222   21.0406 C   0  0  0  0  0  0
  -24.3629   -9.4141   21.9193 C   0  0  0  0  0  0
  -23.6285   -8.2192   22.0767 C   0  0  0  0  0  0
  -22.4265   -8.0258   21.3554 C   0  0  0  0  0  0
  -21.9911   -9.0224   20.4648 C   0  0  0  0  0  0
  -22.7257  -10.2085   20.3051 C   0  0  0  0  0  0
  -21.6833   -6.0722   22.5284 C   0  0  0  0  0  0
  -21.4003   -6.5631   23.8216 C   0  0  0  0  0  0
  -21.3658   -5.6790   24.9182 C   0  0  0  0  0  0
  -21.6042   -4.3052   24.7232 C   0  0  0  0  0  0
  -21.8823   -3.8139   23.4358 C   0  0  0  0  0  0
  -21.9183   -4.6953   22.3411 C   0  0  0  0  0  0
  -22.7785  -13.5113   21.1853 C   0  0  0  0  0  0
  -22.1652   -4.2140   21.0988 F   0  0  0  0  0  0
  -21.5633   -3.4540   25.7748 F   0  0  0  0  0  0
  -30.0079  -13.4737   20.4467 N   0  0  0  0  0  0
  -26.2931  -12.9341   20.3292 N   0  0  0  0  0  0
  -25.9340  -11.6476   20.5766 N   0  0  0  0  0  0
  -22.0461  -12.8115   22.0441 N   0  0  0  0  0  0
  -25.3831  -15.1774   20.3988 N   0  0  0  0  0  0
  -31.7846  -14.8179   20.0386 O   0  0  0  0  0  0
  -21.6619   -6.8863   21.4248 O   0  0  0  0  0  0
  -22.3455  -14.5423   20.6711 O   0  0  0  0  0  0
  -24.6254  -31.8601   23.1994 C   0  0  0  0  0  0
  -25.9117  -32.4756   23.8329 C   0  0  1  0  0  0
  -27.2284  -27.3133   20.1148 C   0  0  0  0  0  0
  -25.5953  -33.8570   24.2250 N   0  0  0  0  0  0
  -23.4196  -30.4809   21.5441 C   0  0  2  0  0  0
  -24.8671  -28.9343   20.1127 C   0  0  0  0  0  0
  -22.7455  -29.4637   22.4956 C   0  0  0  0  0  0
  -18.0291  -28.1337   22.8527 C   0  0  0  0  0  0
  -24.1497  -36.7284   23.2631 C   0  0  0  0  0  0
  -25.9616  -30.7853   21.3761 C   0  0  0  0  0  0
  -26.0359  -29.4134   20.7164 C   0  0  0  0  0  0
  -27.2196  -28.6158   20.7062 C   0  0  0  0  0  0
  -26.0341  -26.8913   19.4855 C   0  0  0  0  0  0
  -24.8680  -27.6778   19.4897 C   0  0  0  0  0  0
  -23.6322  -29.8104   20.1616 C   0  0  0  0  0  0
  -25.4125  -36.3070   24.0311 C   0  0  1  0  0  0
  -20.5895  -28.3665   23.1289 C   0  0  2  0  0  0
  -20.6786  -26.9403   22.5382 C   0  0  0  0  0  0
  -19.5756  -26.6362   21.5195 C   0  0  0  0  0  0
  -18.1937  -26.7892   22.1630 C   0  0  0  0  0  0
  -19.1542  -28.8826   23.2897 C   0  0  0  0  0  0
  -18.9475  -30.1439   23.8886 C   0  0  0  0  0  0
  -17.6472  -30.6566   24.0564 C   0  0  0  0  0  0
  -25.9070  -34.9441   23.5076 C   0  0  0  0  0  0
  -16.5367  -29.9059   23.6334 C   0  0  0  0  0  0
  -16.7279  -28.6461   23.0383 C   0  0  0  0  0  0
  -26.4495  -31.6581   25.0724 C   0  0  0  0  0  0
  -25.3704  -31.3757   26.1444 C   0  0  0  0  0  0
  -27.0336  -30.2992   24.6224 C   0  0  0  0  0  0
  -27.6024  -32.4367   25.7490 C   0  0  0  0  0  0
  -27.5583  -37.1794   24.8458 C   0  0  0  0  0  0
  -21.4179  -29.3028   22.3682 N   0  0  0  0  0  0
  -26.4301  -37.3770   23.9398 N   0  0  0  0  0  0
  -24.6875  -31.0597   22.0956 N   0  0  0  0  0  0
  -23.4176  -28.8210   23.3065 O   0  0  0  0  0  0
  -28.3472  -26.4621   20.1728 O   0  0  0  0  0  0
  -26.5618  -34.8911   22.4633 O   0  0  0  0  0  0
  -23.5419  -32.1422   23.7295 O   0  0  0  0  0  0
  -29.1134  -19.3089   20.0724 C   0  0  0  0  0  0
  -31.1935  -18.0073   21.3895 C   0  0  0  0  0  0
  -29.1352  -17.8768   20.1766 C   0  0  0  0  0  0
  -30.1684  -17.1762   20.8684 C   0  0  0  0  0  0
  -30.1245  -20.1335   20.6341 C   0  0  0  0  0  0
  -31.2022  -19.4289   21.2657 C   0  0  0  0  0  0
  -27.9778  -17.1066   19.5941 C   0  0  0  0  0  0
  -29.8923  -15.5435   22.6875 C   0  0  0  0  0  0
  -32.8002  -21.2292   21.2463 C   0  0  0  0  0  0
  -29.2576  -23.9650   20.4108 C   0  0  0  0  0  0
  -28.1456  -25.0072   19.9479 C   0  0  0  0  0  0
  -29.0134  -22.3978   20.1725 C   0  0  0  0  0  0
  -30.0904  -15.7416   21.2423 N   0  0  0  0  0  0
  -32.2847  -20.0503   21.8534 O   0  0  0  0  0  0
  -30.1167  -21.5484   20.6306 O   0  0  0  0  0  0
  -31.4736  -12.5506   19.1720 H   0  0  0  0  0  0
  -30.3618  -11.4472   19.9215 H   0  0  0  0  0  0
  -29.7922  -11.7940   17.4906 H   0  0  0  0  0  0
  -29.6455  -13.5115   17.7595 H   0  0  0  0  0  0
  -27.8779  -11.3025   18.8660 H   0  0  0  0  0  0
  -27.3837  -12.5872   17.7923 H   0  0  0  0  0  0
  -27.6489  -14.2569   19.5198 H   0  0  0  0  0  0
  -28.7125  -12.0906   21.3886 H   0  0  0  0  0  0
  -28.3725  -13.7307   21.8222 H   0  0  0  0  0  0
  -25.2773   -9.5599   22.4769 H   0  0  0  0  0  0
  -23.9970   -7.4579   22.7497 H   0  0  0  0  0  0
  -21.0835   -8.8752   19.8963 H   0  0  0  0  0  0
  -22.3731  -10.9629   19.6159 H   0  0  0  0  0  0
  -21.1999   -7.6138   23.9716 H   0  0  0  0  0  0
  -21.1477   -6.0523   25.9082 H   0  0  0  0  0  0
  -22.0607   -2.7603   23.2865 H   0  0  0  0  0  0
  -22.4092  -11.9757   22.4781 H   0  0  0  0  0  0
  -21.1102  -13.1161   22.2711 H   0  0  0  0  0  0
  -24.5982  -15.8106   20.5078 H   0  0  0  0  0  0
  -26.2156  -15.6319   20.0524 H   0  0  0  0  0  0
  -26.7185  -32.5406   23.1073 H   0  0  0  0  0  0
  -25.0152  -33.9729   25.0429 H   0  0  0  0  0  0
  -22.7135  -31.3003   21.3960 H   0  0  0  0  0  0
  -23.3764  -35.9611   23.3293 H   0  0  0  0  0  0
  -24.3578  -36.8909   22.2039 H   0  0  0  0  0  0
  -23.7252  -37.6487   23.6669 H   0  0  0  0  0  0
  -26.1005  -31.5503   20.6105 H   0  0  0  0  0  0
  -26.8368  -30.8276   22.0123 H   0  0  0  0  0  0
  -28.1185  -28.9801   21.1844 H   0  0  0  0  0  0
  -25.9683  -25.9342   18.9912 H   0  0  0  0  0  0
  -23.9721  -27.3005   19.0159 H   0  0  0  0  0  0
  -23.7443  -30.5822   19.3995 H   0  0  0  0  0  0
  -22.7519  -29.2329   19.8697 H   0  0  0  0  0  0
  -25.1302  -36.1911   25.0802 H   0  0  0  0  0  0
  -20.9998  -28.3231   24.1405 H   0  0  0  0  0  0
  -20.5696  -26.2279   23.3580 H   0  0  0  0  0  0
  -21.6652  -26.7430   22.1173 H   0  0  0  0  0  0
  -19.6933  -25.6263   21.1254 H   0  0  0  0  0  0
  -19.6681  -27.3150   20.6706 H   0  0  0  0  0  0
  -17.4211  -26.6674   21.4015 H   0  0  0  0  0  0
  -18.0348  -25.9967   22.8961 H   0  0  0  0  0  0
  -19.7945  -30.7279   24.2213 H   0  0  0  0  0  0
  -17.5025  -31.6247   24.5152 H   0  0  0  0  0  0
  -15.5367  -30.2966   23.7635 H   0  0  0  0  0  0
  -15.8683  -28.0767   22.7107 H   0  0  0  0  0  0
  -24.5869  -30.7106   25.7794 H   0  0  0  0  0  0
  -24.8906  -32.2937   26.4845 H   0  0  0  0  0  0
  -25.8010  -30.8961   27.0241 H   0  0  0  0  0  0
  -26.2923  -29.6752   24.1214 H   0  0  0  0  0  0
  -27.3963  -29.7255   25.4767 H   0  0  0  0  0  0
  -27.8834  -30.4239   23.9500 H   0  0  0  0  0  0
  -27.2585  -33.3667   26.2031 H   0  0  0  0  0  0
  -28.3846  -32.6944   25.0328 H   0  0  0  0  0  0
  -28.0691  -31.8544   26.5444 H   0  0  0  0  0  0
  -28.2582  -38.0104   24.7536 H   0  0  0  0  0  0
  -28.1115  -36.2646   24.6279 H   0  0  0  0  0  0
  -27.2318  -37.1423   25.8864 H   0  0  0  0  0  0
  -20.9362  -29.8730   21.6869 H   0  0  0  0  0  0
  -26.0189  -38.2853   24.1393 H   0  0  0  0  0  0
  -28.2789  -19.7797   19.5745 H   0  0  0  0  0  0
  -31.9992  -17.5427   21.9395 H   0  0  0  0  0  0
  -27.3021  -17.7452   19.0233 H   0  0  0  0  0  0
  -27.4265  -16.6694   20.4206 H   0  0  0  0  0  0
  -28.3341  -16.3187   18.9323 H   0  0  0  0  0  0
  -28.8424  -15.6887   22.9486 H   0  0  0  0  0  0
  -30.4688  -16.2590   23.2744 H   0  0  0  0  0  0
  -30.1962  -14.5532   23.0381 H   0  0  0  0  0  0
  -32.7462  -21.1904   20.1570 H   0  0  0  0  0  0
  -33.8502  -21.3424   21.5157 H   0  0  0  0  0  0
  -32.2819  -22.1207   21.6014 H   0  0  0  0  0  0
  -29.4306  -24.1154   21.4769 H   0  0  0  0  0  0
  -30.1923  -24.2394   19.9201 H   0  0  0  0  0  0
  -27.2192  -24.7044   20.4380 H   0  0  0  0  0  0
  -27.9848  -24.8657   18.8788 H   0  0  0  0  0  0
  -28.8512  -22.2192   19.1089 H   0  0  0  0  0  0
  -28.1009  -22.0882   20.6840 H   0  0  0  0  0  0
  1 25  1  0  0  0
  1 30  2  0  0  0
  1 83  1  0  0  0
  2  3  1  0  0  0
  2 25  1  0  0  0
  2 86  1  0  0  0
  2 87  1  0  0  0
  3  4  1  0  0  0
  3 88  1  0  0  0
  3 89  1  0  0  0
  4  5  1  0  0  0
  4 90  1  0  0  0
  4 91  1  0  0  0
  5  6  1  0  0  0
  5 26  1  0  0  0
  5 92  1  0  0  0
  6 25  1  0  0  0
  6 93  1  0  0  0
  6 94  1  0  0  0
  7  8  2  0  0  0
  7 26  1  0  0  0
  7 29  1  0  0  0
  8  9  1  0  0  0
  8 22  1  0  0  0
  9 10  1  0  0  0
  9 27  2  0  0  0
 10 11  2  0  0  0
 10 15  1  0  0  0
 11 12  1  0  0  0
 11 95  1  0  0  0
 12 13  2  0  0  0
 12 96  1  0  0  0
 13 14  1  0  0  0
 13 31  1  0  0  0
 14 15  2  0  0  0
 14 97  1  0  0  0
 15 98  1  0  0  0
 16 17  2  0  0  0
 16 21  1  0  0  0
 16 31  1  0  0  0
 17 18  1  0  0  0
 17 99  1  0  0  0
 18 19  2  0  0  0
 18100  1  0  0  0
 19 20  1  0  0  0
 19 24  1  0  0  0
 20 21  2  0  0  0
 20101  1  0  0  0
 21 23  1  0  0  0
 22 28  1  0  0  0
 22 32  2  0  0  0
 26 27  1  0  0  0
 28102  1  0  0  0
 28103  1  0  0  0
 29104  1  0  0  0
 29105  1  0  0  0
 33 34  1  0  0  0
 33 66  1  0  0  0
 33 70  2  0  0  0
 34 36  1  0  0  0
 34 59  1  0  0  0
 34106  1  0  0  0
 35 44  2  0  0  0
 35 45  1  0  0  0
 35 68  1  0  0  0
 36 56  1  0  0  0
 36107  1  0  0  0
 37 39  1  0  0  0
 37 47  1  0  0  0
 37 66  1  0  0  0
 37108  1  0  0  0
 38 43  2  0  0  0
 38 46  1  0  0  0
 38 47  1  0  0  0
 39 64  1  0  0  0
 39 67  2  0  0  0
 40 52  1  0  0  0
 40 53  2  0  0  0
 40 58  1  0  0  0
 41109  1  0  0  0
 41110  1  0  0  0
 41111  1  0  0  0
 41 48  1  0  0  0
 42 43  1  0  0  0
 42 66  1  0  0  0
 42112  1  0  0  0
 42113  1  0  0  0
 43 44  1  0  0  0
 44114  1  0  0  0
 45 46  2  0  0  0
 45115  1  0  0  0
 46116  1  0  0  0
 47117  1  0  0  0
 47118  1  0  0  0
 48 56  1  0  0  0
 48 65  1  0  0  0
 48119  1  0  0  0
 49 50  1  0  0  0
 49 53  1  0  0  0
 49 64  1  0  0  0
 49120  1  0  0  0
 50 51  1  0  0  0
 50121  1  0  0  0
 50122  1  0  0  0
 51 52  1  0  0  0
 51123  1  0  0  0
 51124  1  0  0  0
 52125  1  0  0  0
 52126  1  0  0  0
 53 54  1  0  0  0
 54 55  2  0  0  0
 54127  1  0  0  0
 55 57  1  0  0  0
 55128  1  0  0  0
 56 69  2  0  0  0
 57 58  2  0  0  0
 57129  1  0  0  0
 58130  1  0  0  0
 59 60  1  0  0  0
 59 61  1  0  0  0
 59 62  1  0  0  0
 60131  1  0  0  0
 60132  1  0  0  0
 60133  1  0  0  0
 61134  1  0  0  0
 61135  1  0  0  0
 61136  1  0  0  0
 62137  1  0  0  0
 62138  1  0  0  0
 62139  1  0  0  0
 63 65  1  0  0  0
 63140  1  0  0  0
 63141  1  0  0  0
 63142  1  0  0  0
 64143  1  0  0  0
 65144  1  0  0  0
 68 81  1  0  0  0
 71 73  2  0  0  0
 71 75  1  0  0  0
 71145  1  0  0  0
 72 74  2  0  0  0
 72 76  1  0  0  0
 72146  1  0  0  0
 73 74  1  0  0  0
 73 77  1  0  0  0
 74 83  1  0  0  0
 75 76  2  0  0  0
 75 85  1  0  0  0
 76 84  1  0  0  0
 77147  1  0  0  0
 77148  1  0  0  0
 77149  1  0  0  0
 78 83  1  0  0  0
 78150  1  0  0  0
 78151  1  0  0  0
 78152  1  0  0  0
 79 84  1  0  0  0
 79153  1  0  0  0
 79154  1  0  0  0
 79155  1  0  0  0
 80 81  1  0  0  0
 80 82  1  0  0  0
 80156  1  0  0  0
 80157  1  0  0  0
 81158  1  0  0  0
 81159  1  0  0  0
 82 85  1  0  0  0
 82160  1  0  0  0
 82161  1  0  0  0
M  ISO  4   1 100  68 101  81 101  83 100
M  END
> <chiral flag>
0

> <version>
0

> <s_m_source_file>
/data/baiqing/PycharmProjects/Reinvent-master-3.2/result/LINK_invent/BTK/process_docking_weight1_custom_product_contain_oxygen_bond_distance_aromatic_linkinvent_7_9_3/rearranged_h_0104.sdf

> <i_m_source_file_index>
56

> <r_mmod_Potential_Energy-OPLS-2005>
279.707336425781

> <r_mmod_Stretch_Energy-OPLS-2005>
95.1441345214844

> <r_mmod_Bend_Energy-OPLS-2005>
167.048782348633

> <r_mmod_Torsional_Energy-OPLS-2005>
311.996551513672

> <r_mmod_Improper_Torsional_Energy-OPLS-2005>
5.36444187164307

> <r_mmod_Van_der_Waal_Energy-OPLS-2005>
153.867767333984

> <r_mmod_Electrostatic_Energy-OPLS-2005>
-306.579528808594

> <r_mmod_Solvation_Energy-OPLS-2005>
-202.226654052734

> <b_mmod_Minimization_Converged-OPLS-2005>
0

> <r_mmod_RMS_Derivative-OPLS-2005>
2.59591627120972

$$$$
57
                    3D
 Structure written by MMmdl.
160168  0  0  1  0            999 V2000
  -30.7160  -14.4244   20.5724 C   0  0  0  0  0  0
  -30.4154  -12.2783   19.4084 C   0  0  0  0  0  0
  -29.4803  -12.4848   18.1999 C   0  0  0  0  0  0
  -28.0077  -12.3420   18.6270 C   0  0  0  0  0  0
  -27.6629  -13.1953   19.8764 C   0  0  2  0  0  0
  -28.7040  -12.9654   20.9950 C   0  0  0  0  0  0
  -25.2611  -13.8157   20.5692 C   0  0  0  0  0  0
  -24.1844  -13.0437   20.9187 C   0  0  0  0  0  0
  -24.6391  -11.6909   20.8757 C   0  0  0  0  0  0
  -23.9059  -10.4278   21.0408 C   0  0  0  0  0  0
  -24.3605   -9.4191   21.9180 C   0  0  0  0  0  0
  -23.6276   -8.2237   22.0753 C   0  0  0  0  0  0
  -22.4252   -8.0288   21.3549 C   0  0  0  0  0  0
  -21.9892   -9.0261   20.4641 C   0  0  0  0  0  0
  -22.7232  -10.2137   20.3055 C   0  0  0  0  0  0
  -21.6843   -6.0736   22.5271 C   0  0  0  0  0  0
  -21.3998   -6.5638   23.8205 C   0  0  0  0  0  0
  -21.3662   -5.6790   24.9166 C   0  0  0  0  0  0
  -21.6047   -4.3053   24.7208 C   0  0  0  0  0  0
  -21.8822   -3.8150   23.4330 C   0  0  0  0  0  0
  -21.9184   -4.6965   22.3386 C   0  0  0  0  0  0
  -22.7859  -13.5244   21.1844 C   0  0  0  0  0  0
  -22.1656   -4.2158   21.0962 F   0  0  0  0  0  0
  -21.5634   -3.4534   25.7719 F   0  0  0  0  0  0
  -30.0370  -13.2568   20.4380 N   0  0  0  0  0  0
  -26.3036  -12.9305   20.3414 N   0  0  0  0  0  0
  -25.9309  -11.6481   20.5819 N   0  0  0  0  0  0
  -22.0530  -12.8208   22.0398 N   0  0  0  0  0  0
  -25.4382  -15.1855   20.4103 N   0  0  0  0  0  0
  -31.8343  -14.6165   20.0857 O   0  0  0  0  0  0
  -21.6625   -6.8884   21.4240 O   0  0  0  0  0  0
  -22.3527  -14.5543   20.6712 O   0  0  0  0  0  0
  -24.6110  -31.8701   23.2134 C   0  0  0  0  0  0
  -25.9014  -32.4839   23.8417 C   0  0  1  0  0  0
  -27.2311  -27.4505   20.0731 C   0  0  0  0  0  0
  -25.5889  -33.8642   24.2358 N   0  0  0  0  0  0
  -23.3980  -30.4947   21.5533 C   0  0  2  0  0  0
  -24.8402  -28.9614   20.1166 C   0  0  0  0  0  0
  -22.7389  -29.4677   22.5007 C   0  0  0  0  0  0
  -18.0282  -28.1336   22.8531 C   0  0  0  0  0  0
  -24.1480  -36.7316   23.2639 C   0  0  0  0  0  0
  -25.9261  -30.8356   21.3672 C   0  0  0  0  0  0
  -25.9986  -29.4708   20.7139 C   0  0  0  0  0  0
  -27.1917  -28.7169   20.6984 C   0  0  0  0  0  0
  -26.0490  -26.9512   19.4772 C   0  0  0  0  0  0
  -24.8571  -27.6974   19.5034 C   0  0  0  0  0  0
  -23.6063  -29.8307   20.1659 C   0  0  0  0  0  0
  -25.4107  -36.3128   24.0347 C   0  0  1  0  0  0
  -20.5845  -28.3676   23.1336 C   0  0  2  0  0  0
  -20.6758  -26.9398   22.5465 C   0  0  0  0  0  0
  -19.5738  -26.6309   21.5275 C   0  0  0  0  0  0
  -18.1943  -26.7840   22.1737 C   0  0  0  0  0  0
  -19.1514  -28.8844   23.2889 C   0  0  0  0  0  0
  -18.9437  -30.1463   23.8870 C   0  0  0  0  0  0
  -17.6445  -30.6585   24.0509 C   0  0  0  0  0  0
  -25.9033  -34.9487   23.5147 C   0  0  0  0  0  0
  -16.5341  -29.9048   23.6320 C   0  0  0  0  0  0
  -16.7268  -28.6451   23.0378 C   0  0  0  0  0  0
  -26.4450  -31.6613   25.0737 C   0  0  0  0  0  0
  -25.3727  -31.3701   26.1497 C   0  0  0  0  0  0
  -27.0283  -30.3060   24.6101 C   0  0  0  0  0  0
  -27.6035  -32.4332   25.7487 C   0  0  0  0  0  0
  -27.5581  -37.1821   24.8471 C   0  0  0  0  0  0
  -21.4117  -29.3051   22.3758 N   0  0  0  0  0  0
  -26.4298  -37.3811   23.9406 N   0  0  0  0  0  0
  -24.6630  -31.0804   22.1037 N   0  0  0  0  0  0
  -23.4180  -28.8198   23.3018 O   0  0  0  0  0  0
  -28.4292  -26.7667   20.0759 O   0  0  0  0  0  0
  -26.5589  -34.8936   22.4702 O   0  0  0  0  0  0
  -23.5316  -32.1465   23.7536 O   0  0  0  0  0  0
  -27.3483  -19.8088   21.2623 C   0  0  0  0  0  0
  -29.2538  -18.7691   20.1685 C   0  0  0  0  0  0
  -27.4313  -18.8616   22.3038 C   0  0  0  0  0  0
  -29.3653  -17.8326   21.2213 C   0  0  0  0  0  0
  -28.2619  -19.7734   20.1793 C   0  0  0  0  0  0
  -28.4473  -17.8839   22.2900 C   0  0  0  0  0  0
  -26.4190  -18.9010   23.4314 C   0  0  0  0  0  0
  -30.4935  -16.8091   21.2152 C   0  0  0  0  0  0
  -28.0415  -24.3157   20.0846 C   0  0  0  0  0  0
  -28.6413  -22.9767   19.5945 C   0  0  0  0  0  0
  -28.5793  -25.5533   19.3330 C   0  0  0  0  0  0
  -27.6001  -21.9129   19.2030 C   0  0  0  0  0  0
  -30.0365  -15.4198   21.1554 N   0  0  0  0  0  0
  -28.2303  -20.6312   19.0961 O   0  0  0  0  0  0
  -28.5391  -16.9915   23.3049 F   0  0  0  0  0  0
  -31.4598  -12.3693   19.1031 H   0  0  0  0  0  0
  -30.3070  -11.2662   19.8001 H   0  0  0  0  0  0
  -29.7081  -11.7592   17.4186 H   0  0  0  0  0  0
  -29.6433  -13.4709   17.7645 H   0  0  0  0  0  0
  -27.8323  -11.2867   18.8438 H   0  0  0  0  0  0
  -27.3419  -12.5891   17.8002 H   0  0  0  0  0  0
  -27.7157  -14.2418   19.5761 H   0  0  0  0  0  0
  -28.6699  -11.9274   21.3322 H   0  0  0  0  0  0
  -28.4745  -13.5652   21.8758 H   0  0  0  0  0  0
  -25.2770   -9.5638   22.4740 H   0  0  0  0  0  0
  -23.9997   -7.4609   22.7452 H   0  0  0  0  0  0
  -21.0835   -8.8762   19.8923 H   0  0  0  0  0  0
  -22.3710  -10.9671   19.6147 H   0  0  0  0  0  0
  -21.1981   -7.6141   23.9694 H   0  0  0  0  0  0
  -21.1493   -6.0528   25.9066 H   0  0  0  0  0  0
  -22.0601   -2.7610   23.2827 H   0  0  0  0  0  0
  -22.4207  -11.9892   22.4778 H   0  0  0  0  0  0
  -21.1145  -13.1203   22.2631 H   0  0  0  0  0  0
  -24.6814  -15.8491   20.5322 H   0  0  0  0  0  0
  -26.3019  -15.6190   20.1084 H   0  0  0  0  0  0
  -26.7088  -32.5550   23.1186 H   0  0  0  0  0  0
  -25.0046  -33.9818   25.0511 H   0  0  0  0  0  0
  -22.6862  -31.3127   21.4172 H   0  0  0  0  0  0
  -23.3744  -35.9644   23.3319 H   0  0  0  0  0  0
  -24.3573  -36.8912   22.2048 H   0  0  0  0  0  0
  -23.7227  -37.6531   23.6637 H   0  0  0  0  0  0
  -26.0407  -31.6023   20.5995 H   0  0  0  0  0  0
  -26.8142  -30.8862   21.9852 H   0  0  0  0  0  0
  -28.0893  -29.1073   21.1594 H   0  0  0  0  0  0
  -26.0230  -25.9926   18.9837 H   0  0  0  0  0  0
  -23.9623  -27.3001   19.0437 H   0  0  0  0  0  0
  -23.7212  -30.6096   19.4104 H   0  0  0  0  0  0
  -22.7285  -29.2563   19.8660 H   0  0  0  0  0  0
  -25.1280  -36.2002   25.0844 H   0  0  0  0  0  0
  -20.9898  -28.3298   24.1471 H   0  0  0  0  0  0
  -20.5659  -26.2265   23.3645 H   0  0  0  0  0  0
  -21.6616  -26.7381   22.1277 H   0  0  0  0  0  0
  -19.6941  -25.6205   21.1345 H   0  0  0  0  0  0
  -19.6620  -27.3075   20.6759 H   0  0  0  0  0  0
  -17.4161  -26.6482   21.4208 H   0  0  0  0  0  0
  -18.0412  -26.0036   22.9201 H   0  0  0  0  0  0
  -19.7913  -30.7301   24.2200 H   0  0  0  0  0  0
  -17.4980  -31.6275   24.5055 H   0  0  0  0  0  0
  -15.5343  -30.2943   23.7648 H   0  0  0  0  0  0
  -15.8673  -28.0762   22.7123 H   0  0  0  0  0  0
  -24.5889  -30.7062   25.7826 H   0  0  0  0  0  0
  -24.8932  -32.2856   26.4977 H   0  0  0  0  0  0
  -25.8096  -30.8843   27.0232 H   0  0  0  0  0  0
  -26.2830  -29.6825   24.1150 H   0  0  0  0  0  0
  -27.4051  -29.7290   25.4552 H   0  0  0  0  0  0
  -27.8659  -30.4381   23.9248 H   0  0  0  0  0  0
  -27.2657  -33.3618   26.2101 H   0  0  0  0  0  0
  -28.3817  -32.6927   25.0293 H   0  0  0  0  0  0
  -28.0734  -31.8440   26.5376 H   0  0  0  0  0  0
  -28.2624  -38.0096   24.7513 H   0  0  0  0  0  0
  -28.1058  -36.2633   24.6307 H   0  0  0  0  0  0
  -27.2301  -37.1486   25.8879 H   0  0  0  0  0  0
  -20.9257  -29.8744   21.6974 H   0  0  0  0  0  0
  -26.0188  -38.2889   24.1419 H   0  0  0  0  0  0
  -26.5487  -20.5308   21.3169 H   0  0  0  0  0  0
  -29.9528  -18.7339   19.3441 H   0  0  0  0  0  0
  -25.4289  -19.1450   23.0462 H   0  0  0  0  0  0
  -26.6956  -19.6589   24.1648 H   0  0  0  0  0  0
  -26.3530  -17.9372   23.9382 H   0  0  0  0  0  0
  -31.1000  -16.9450   22.1112 H   0  0  0  0  0  0
  -31.1510  -17.0265   20.3720 H   0  0  0  0  0  0
  -26.9545  -24.2866   20.0364 H   0  0  0  0  0  0
  -28.2748  -24.4201   21.1439 H   0  0  0  0  0  0
  -29.2797  -22.5804   20.3846 H   0  0  0  0  0  0
  -29.3022  -23.1428   18.7432 H   0  0  0  0  0  0
  -28.1562  -25.6307   18.3298 H   0  0  0  0  0  0
  -29.6518  -25.4301   19.1865 H   0  0  0  0  0  0
  -26.7384  -21.9381   19.8642 H   0  0  0  0  0  0
  -27.1976  -22.1628   18.2203 H   0  0  0  0  0  0
  -29.1205  -15.2120   21.5216 H   0  0  0  0  0  0
  1 25  1  0  0  0
  1 30  2  0  0  0
  1 83  1  0  0  0
  2  3  1  0  0  0
  2 25  1  0  0  0
  2 86  1  0  0  0
  2 87  1  0  0  0
  3  4  1  0  0  0
  3 88  1  0  0  0
  3 89  1  0  0  0
  4  5  1  0  0  0
  4 90  1  0  0  0
  4 91  1  0  0  0
  5  6  1  0  0  0
  5 26  1  0  0  0
  5 92  1  0  0  0
  6 25  1  0  0  0
  6 93  1  0  0  0
  6 94  1  0  0  0
  7  8  2  0  0  0
  7 26  1  0  0  0
  7 29  1  0  0  0
  8  9  1  0  0  0
  8 22  1  0  0  0
  9 10  1  0  0  0
  9 27  2  0  0  0
 10 11  2  0  0  0
 10 15  1  0  0  0
 11 12  1  0  0  0
 11 95  1  0  0  0
 12 13  2  0  0  0
 12 96  1  0  0  0
 13 14  1  0  0  0
 13 31  1  0  0  0
 14 15  2  0  0  0
 14 97  1  0  0  0
 15 98  1  0  0  0
 16 17  2  0  0  0
 16 21  1  0  0  0
 16 31  1  0  0  0
 17 18  1  0  0  0
 17 99  1  0  0  0
 18 19  2  0  0  0
 18100  1  0  0  0
 19 20  1  0  0  0
 19 24  1  0  0  0
 20 21  2  0  0  0
 20101  1  0  0  0
 21 23  1  0  0  0
 22 28  1  0  0  0
 22 32  2  0  0  0
 26 27  1  0  0  0
 28102  1  0  0  0
 28103  1  0  0  0
 29104  1  0  0  0
 29105  1  0  0  0
 33 34  1  0  0  0
 33 66  1  0  0  0
 33 70  2  0  0  0
 34 36  1  0  0  0
 34 59  1  0  0  0
 34106  1  0  0  0
 35 44  2  0  0  0
 35 45  1  0  0  0
 35 68  1  0  0  0
 36 56  1  0  0  0
 36107  1  0  0  0
 37 39  1  0  0  0
 37 47  1  0  0  0
 37 66  1  0  0  0
 37108  1  0  0  0
 38 43  2  0  0  0
 38 46  1  0  0  0
 38 47  1  0  0  0
 39 64  1  0  0  0
 39 67  2  0  0  0
 40 52  1  0  0  0
 40 53  2  0  0  0
 40 58  1  0  0  0
 41109  1  0  0  0
 41110  1  0  0  0
 41111  1  0  0  0
 41 48  1  0  0  0
 42 43  1  0  0  0
 42 66  1  0  0  0
 42112  1  0  0  0
 42113  1  0  0  0
 43 44  1  0  0  0
 44114  1  0  0  0
 45 46  2  0  0  0
 45115  1  0  0  0
 46116  1  0  0  0
 47117  1  0  0  0
 47118  1  0  0  0
 48 56  1  0  0  0
 48 65  1  0  0  0
 48119  1  0  0  0
 49 50  1  0  0  0
 49 53  1  0  0  0
 49 64  1  0  0  0
 49120  1  0  0  0
 50 51  1  0  0  0
 50121  1  0  0  0
 50122  1  0  0  0
 51 52  1  0  0  0
 51123  1  0  0  0
 51124  1  0  0  0
 52125  1  0  0  0
 52126  1  0  0  0
 53 54  1  0  0  0
 54 55  2  0  0  0
 54127  1  0  0  0
 55 57  1  0  0  0
 55128  1  0  0  0
 56 69  2  0  0  0
 57 58  2  0  0  0
 57129  1  0  0  0
 58130  1  0  0  0
 59 60  1  0  0  0
 59 61  1  0  0  0
 59 62  1  0  0  0
 60131  1  0  0  0
 60132  1  0  0  0
 60133  1  0  0  0
 61134  1  0  0  0
 61135  1  0  0  0
 61136  1  0  0  0
 62137  1  0  0  0
 62138  1  0  0  0
 62139  1  0  0  0
 63 65  1  0  0  0
 63140  1  0  0  0
 63141  1  0  0  0
 63142  1  0  0  0
 64143  1  0  0  0
 65144  1  0  0  0
 68 81  1  0  0  0
 71 73  2  0  0  0
 71 75  1  0  0  0
 71145  1  0  0  0
 72 74  1  0  0  0
 72 75  2  0  0  0
 72146  1  0  0  0
 73 76  1  0  0  0
 73 77  1  0  0  0
 74 76  2  0  0  0
 74 78  1  0  0  0
 75 84  1  0  0  0
 76 85  1  0  0  0
 77147  1  0  0  0
 77148  1  0  0  0
 77149  1  0  0  0
 78 83  1  0  0  0
 78150  1  0  0  0
 78151  1  0  0  0
 79 80  1  0  0  0
 79 81  1  0  0  0
 79152  1  0  0  0
 79153  1  0  0  0
 80 82  1  0  0  0
 80154  1  0  0  0
 80155  1  0  0  0
 81156  1  0  0  0
 81157  1  0  0  0
 82 84  1  0  0  0
 82158  1  0  0  0
 82159  1  0  0  0
 83160  1  0  0  0
M  ISO  4   1 100  68 101  81 101  83 100
M  END
> <chiral flag>
0

> <version>
0

> <s_m_source_file>
/data/baiqing/PycharmProjects/Reinvent-master-3.2/result/LINK_invent/BTK/process_docking_weight1_custom_product_contain_oxygen_bond_distance_aromatic_linkinvent_7_9_3/rearranged_h_0104.sdf

> <i_m_source_file_index>
57

> <r_mmod_Potential_Energy-OPLS-2005>
-94.9928283691406

> <r_mmod_Stretch_Energy-OPLS-2005>
33.7797813415527

> <r_mmod_Bend_Energy-OPLS-2005>
107.192268371582

> <r_mmod_Torsional_Energy-OPLS-2005>
205.431228637695

> <r_mmod_Improper_Torsional_Energy-OPLS-2005>
3.11050486564636

> <r_mmod_Van_der_Waal_Energy-OPLS-2005>
159.986892700195

> <r_mmod_Electrostatic_Energy-OPLS-2005>
-418.793853759766

> <r_mmod_Solvation_Energy-OPLS-2005>
-196.405868530273

> <b_mmod_Minimization_Converged-OPLS-2005>
0

> <r_mmod_RMS_Derivative-OPLS-2005>
2.63002729415894

$$$$
58
                    3D
 Structure written by MMmdl.
155163  0  0  1  0            999 V2000
  -30.6272  -14.6788   20.4460 C   0  0  0  0  0  0
  -30.4252  -12.4058   19.4739 C   0  0  0  0  0  0
  -29.5078  -12.4972   18.2346 C   0  0  0  0  0  0
  -28.0318  -12.3331   18.6452 C   0  0  0  0  0  0
  -27.6446  -13.2271   19.8541 C   0  0  2  0  0  0
  -28.6860  -13.1366   20.9916 C   0  0  0  0  0  0
  -25.2519  -13.8195   20.5702 C   0  0  0  0  0  0
  -24.1801  -13.0446   20.9206 C   0  0  0  0  0  0
  -24.6385  -11.6920   20.8744 C   0  0  0  0  0  0
  -23.9063  -10.4294   21.0404 C   0  0  0  0  0  0
  -24.3617   -9.4210   21.9181 C   0  0  0  0  0  0
  -23.6291   -8.2245   22.0753 C   0  0  0  0  0  0
  -22.4272   -8.0280   21.3546 C   0  0  0  0  0  0
  -21.9908   -9.0255   20.4651 C   0  0  0  0  0  0
  -22.7236  -10.2133   20.3057 C   0  0  0  0  0  0
  -21.6849   -6.0735   22.5280 C   0  0  0  0  0  0
  -21.4016   -6.5640   23.8216 C   0  0  0  0  0  0
  -21.3660   -5.6792   24.9178 C   0  0  0  0  0  0
  -21.6040   -4.3053   24.7226 C   0  0  0  0  0  0
  -21.8818   -3.8148   23.4345 C   0  0  0  0  0  0
  -21.9193   -4.6965   22.3403 C   0  0  0  0  0  0
  -22.7826  -13.5231   21.1864 C   0  0  0  0  0  0
  -22.1661   -4.2154   21.0980 F   0  0  0  0  0  0
  -21.5626   -3.4535   25.7739 F   0  0  0  0  0  0
  -29.9976  -13.4603   20.4193 N   0  0  0  0  0  0
  -26.2942  -12.9395   20.3291 N   0  0  0  0  0  0
  -25.9314  -11.6540   20.5752 N   0  0  0  0  0  0
  -22.0466  -12.8231   22.0422 N   0  0  0  0  0  0
  -25.4222  -15.1917   20.4126 N   0  0  0  0  0  0
  -31.8171  -14.7652   20.1289 O   0  0  0  0  0  0
  -21.6635   -6.8876   21.4242 O   0  0  0  0  0  0
  -22.3514  -14.5537   20.6704 O   0  0  0  0  0  0
  -24.6271  -31.8585   23.1996 C   0  0  0  0  0  0
  -25.9114  -32.4772   23.8334 C   0  0  1  0  0  0
  -27.2229  -27.2997   20.1200 C   0  0  0  0  0  0
  -25.5927  -33.8571   24.2268 N   0  0  0  0  0  0
  -23.4212  -30.4808   21.5419 C   0  0  2  0  0  0
  -24.8657  -28.9288   20.1096 C   0  0  0  0  0  0
  -22.7475  -29.4620   22.4918 C   0  0  0  0  0  0
  -18.0290  -28.1391   22.8485 C   0  0  0  0  0  0
  -24.1490  -36.7283   23.2642 C   0  0  0  0  0  0
  -25.9621  -30.7827   21.3720 C   0  0  0  0  0  0
  -26.0332  -29.4076   20.7147 C   0  0  0  0  0  0
  -27.2107  -28.6036   20.7102 C   0  0  0  0  0  0
  -26.0273  -26.8663   19.5052 C   0  0  0  0  0  0
  -24.8651  -27.6642   19.4980 C   0  0  0  0  0  0
  -23.6359  -29.8131   20.1574 C   0  0  0  0  0  0
  -25.4119  -36.3083   24.0333 C   0  0  1  0  0  0
  -20.5891  -28.3696   23.1278 C   0  0  2  0  0  0
  -20.6779  -26.9418   22.5410 C   0  0  0  0  0  0
  -19.5754  -26.6390   21.5213 C   0  0  0  0  0  0
  -18.1935  -26.7937   22.1625 C   0  0  0  0  0  0
  -19.1544  -28.8858   23.2880 C   0  0  0  0  0  0
  -18.9469  -30.1458   23.8900 C   0  0  0  0  0  0
  -17.6469  -30.6592   24.0565 C   0  0  0  0  0  0
  -25.9052  -34.9451   23.5102 C   0  0  0  0  0  0
  -16.5357  -29.9092   23.6333 C   0  0  0  0  0  0
  -16.7278  -28.6511   23.0353 C   0  0  0  0  0  0
  -26.4495  -31.6593   25.0711 C   0  0  0  0  0  0
  -25.3724  -31.3740   26.1436 C   0  0  0  0  0  0
  -27.0344  -30.3020   24.6171 C   0  0  0  0  0  0
  -27.6052  -32.4335   25.7482 C   0  0  0  0  0  0
  -27.5579  -37.1805   24.8473 C   0  0  0  0  0  0
  -21.4190  -29.3042   22.3660 N   0  0  0  0  0  0
  -26.4298  -37.3777   23.9404 N   0  0  0  0  0  0
  -24.6891  -31.0584   22.0945 N   0  0  0  0  0  0
  -23.4194  -28.8166   23.3008 O   0  0  0  0  0  0
  -28.3647  -26.4839   20.1934 O   0  0  0  0  0  0
  -26.5620  -34.8923   22.4668 O   0  0  0  0  0  0
  -23.5434  -32.1386   23.7318 O   0  0  0  0  0  0
  -29.4397  -18.3826   20.5552 C   0  0  0  0  0  0
  -30.7272  -17.2677   18.8243 C   0  0  0  0  0  0
  -29.5688  -19.6813   19.9092 C   0  0  0  0  0  0
  -30.0215  -17.1544   20.0416 C   0  0  0  0  0  0
  -30.3077  -19.6848   18.6898 C   0  0  0  0  0  0
  -30.8668  -18.4992   18.1680 C   0  0  0  0  0  0
  -28.9323  -21.0059   20.5433 C   0  0  0  0  0  0
  -28.9612  -22.4442   19.8045 C   0  0  0  0  0  0
  -28.4094  -23.7910   20.4848 C   0  0  0  0  0  0
  -28.4694  -25.1271   19.5974 C   0  0  0  0  0  0
  -30.5222  -20.8293   17.9262 N   0  0  0  0  0  0
  -29.8605  -15.8131   20.6469 N   0  0  0  0  0  0
  -31.5460  -18.5460   16.9938 F   0  0  0  0  0  0
  -31.4704  -12.5094   19.1771 H   0  0  0  0  0  0
  -30.3456  -11.4234   19.9419 H   0  0  0  0  0  0
  -29.7804  -11.7325   17.5059 H   0  0  0  0  0  0
  -29.6488  -13.4589   17.7377 H   0  0  0  0  0  0
  -27.8798  -11.2837   18.9006 H   0  0  0  0  0  0
  -27.3768  -12.5371   17.7974 H   0  0  0  0  0  0
  -27.6487  -14.2531   19.4842 H   0  0  0  0  0  0
  -28.7001  -12.1371   21.4279 H   0  0  0  0  0  0
  -28.4322  -13.8193   21.8037 H   0  0  0  0  0  0
  -25.2762   -9.5687   22.4758 H   0  0  0  0  0  0
  -24.0003   -7.4634   22.7471 H   0  0  0  0  0  0
  -21.0839   -8.8774   19.8957 H   0  0  0  0  0  0
  -22.3695  -10.9671   19.6168 H   0  0  0  0  0  0
  -21.2011   -7.6149   23.9725 H   0  0  0  0  0  0
  -21.1481   -6.0519   25.9082 H   0  0  0  0  0  0
  -22.0597   -2.7611   23.2844 H   0  0  0  0  0  0
  -22.4076  -11.9902   22.4827 H   0  0  0  0  0  0
  -21.1082  -13.1264   22.2613 H   0  0  0  0  0  0
  -24.6532  -15.8440   20.5222 H   0  0  0  0  0  0
  -26.2698  -15.6330   20.0790 H   0  0  0  0  0  0
  -26.7173  -32.5434   23.1072 H   0  0  0  0  0  0
  -25.0092  -33.9712   25.0426 H   0  0  0  0  0  0
  -22.7161  -31.3018   21.3972 H   0  0  0  0  0  0
  -23.3756  -35.9614   23.3332 H   0  0  0  0  0  0
  -24.3567  -36.8871   22.2048 H   0  0  0  0  0  0
  -23.7246  -37.6496   23.6641 H   0  0  0  0  0  0
  -26.0966  -31.5451   20.6036 H   0  0  0  0  0  0
  -26.8421  -30.8303   22.0024 H   0  0  0  0  0  0
  -28.1077  -28.9668   21.1926 H   0  0  0  0  0  0
  -25.9495  -25.8910   19.0517 H   0  0  0  0  0  0
  -23.9652  -27.2867   19.0324 H   0  0  0  0  0  0
  -23.7585  -30.5888   19.4004 H   0  0  0  0  0  0
  -22.7549  -29.2448   19.8545 H   0  0  0  0  0  0
  -25.1307  -36.1940   25.0829 H   0  0  0  0  0  0
  -20.9991  -28.3279   24.1396 H   0  0  0  0  0  0
  -20.5691  -26.2304   23.3610 H   0  0  0  0  0  0
  -21.6647  -26.7450   22.1197 H   0  0  0  0  0  0
  -19.6915  -25.6303   21.1242 H   0  0  0  0  0  0
  -19.6696  -27.3200   20.6744 H   0  0  0  0  0  0
  -17.4205  -26.6684   21.4028 H   0  0  0  0  0  0
  -18.0333  -26.0085   22.9026 H   0  0  0  0  0  0
  -19.7945  -30.7272   24.2275 H   0  0  0  0  0  0
  -17.5027  -31.6277   24.5161 H   0  0  0  0  0  0
  -15.5361  -30.2996   23.7662 H   0  0  0  0  0  0
  -15.8677  -28.0832   22.7069 H   0  0  0  0  0  0
  -24.5895  -30.7097   25.7762 H   0  0  0  0  0  0
  -24.8919  -32.2909   26.4859 H   0  0  0  0  0  0
  -25.8041  -30.8916   27.0214 H   0  0  0  0  0  0
  -26.2917  -29.6767   24.1200 H   0  0  0  0  0  0
  -27.4052  -29.7285   25.4677 H   0  0  0  0  0  0
  -27.8783  -30.4319   23.9392 H   0  0  0  0  0  0
  -27.2663  -33.3638   26.2057 H   0  0  0  0  0  0
  -28.3861  -32.6897   25.0309 H   0  0  0  0  0  0
  -28.0724  -31.8467   26.5400 H   0  0  0  0  0  0
  -28.2627  -38.0072   24.7491 H   0  0  0  0  0  0
  -28.1049  -36.2604   24.6354 H   0  0  0  0  0  0
  -27.2286  -37.1519   25.8874 H   0  0  0  0  0  0
  -20.9368  -29.8749   21.6856 H   0  0  0  0  0  0
  -26.0188  -38.2862   24.1380 H   0  0  0  0  0  0
  -28.8796  -18.3348   21.4787 H   0  0  0  0  0  0
  -31.1654  -16.4055   18.3455 H   0  0  0  0  0  0
  -29.4037  -21.1286   21.5185 H   0  0  0  0  0  0
  -27.8900  -20.7701   20.7594 H   0  0  0  0  0  0
  -28.4417  -22.3364   18.8519 H   0  0  0  0  0  0
  -30.0015  -22.6689   19.5721 H   0  0  0  0  0  0
  -28.9821  -23.9615   21.3970 H   0  0  0  0  0  0
  -27.3799  -23.6342   20.8081 H   0  0  0  0  0  0
  -27.8223  -25.0164   18.7294 H   0  0  0  0  0  0
  -29.4660  -25.1331   19.1550 H   0  0  0  0  0  0
  -29.8567  -21.5855   18.0173 H   0  0  0  0  0  0
  -30.8273  -20.6726   16.9711 H   0  0  0  0  0  0
  -28.9768  -15.6481   21.1051 H   0  0  0  0  0  0
  1 25  1  0  0  0
  1 30  2  0  0  0
  1 82  1  0  0  0
  2  3  1  0  0  0
  2 25  1  0  0  0
  2 84  1  0  0  0
  2 85  1  0  0  0
  3  4  1  0  0  0
  3 86  1  0  0  0
  3 87  1  0  0  0
  4  5  1  0  0  0
  4 88  1  0  0  0
  4 89  1  0  0  0
  5  6  1  0  0  0
  5 26  1  0  0  0
  5 90  1  0  0  0
  6 25  1  0  0  0
  6 91  1  0  0  0
  6 92  1  0  0  0
  7  8  2  0  0  0
  7 26  1  0  0  0
  7 29  1  0  0  0
  8  9  1  0  0  0
  8 22  1  0  0  0
  9 10  1  0  0  0
  9 27  2  0  0  0
 10 11  2  0  0  0
 10 15  1  0  0  0
 11 12  1  0  0  0
 11 93  1  0  0  0
 12 13  2  0  0  0
 12 94  1  0  0  0
 13 14  1  0  0  0
 13 31  1  0  0  0
 14 15  2  0  0  0
 14 95  1  0  0  0
 15 96  1  0  0  0
 16 17  2  0  0  0
 16 21  1  0  0  0
 16 31  1  0  0  0
 17 18  1  0  0  0
 17 97  1  0  0  0
 18 19  2  0  0  0
 18 98  1  0  0  0
 19 20  1  0  0  0
 19 24  1  0  0  0
 20 21  2  0  0  0
 20 99  1  0  0  0
 21 23  1  0  0  0
 22 28  1  0  0  0
 22 32  2  0  0  0
 26 27  1  0  0  0
 28100  1  0  0  0
 28101  1  0  0  0
 29102  1  0  0  0
 29103  1  0  0  0
 33 34  1  0  0  0
 33 66  1  0  0  0
 33 70  2  0  0  0
 34 36  1  0  0  0
 34 59  1  0  0  0
 34104  1  0  0  0
 35 44  2  0  0  0
 35 45  1  0  0  0
 35 68  1  0  0  0
 36 56  1  0  0  0
 36105  1  0  0  0
 37 39  1  0  0  0
 37 47  1  0  0  0
 37 66  1  0  0  0
 37106  1  0  0  0
 38 43  2  0  0  0
 38 46  1  0  0  0
 38 47  1  0  0  0
 39 64  1  0  0  0
 39 67  2  0  0  0
 40 52  1  0  0  0
 40 53  2  0  0  0
 40 58  1  0  0  0
 41107  1  0  0  0
 41108  1  0  0  0
 41109  1  0  0  0
 41 48  1  0  0  0
 42 43  1  0  0  0
 42 66  1  0  0  0
 42110  1  0  0  0
 42111  1  0  0  0
 43 44  1  0  0  0
 44112  1  0  0  0
 45 46  2  0  0  0
 45113  1  0  0  0
 46114  1  0  0  0
 47115  1  0  0  0
 47116  1  0  0  0
 48 56  1  0  0  0
 48 65  1  0  0  0
 48117  1  0  0  0
 49 50  1  0  0  0
 49 53  1  0  0  0
 49 64  1  0  0  0
 49118  1  0  0  0
 50 51  1  0  0  0
 50119  1  0  0  0
 50120  1  0  0  0
 51 52  1  0  0  0
 51121  1  0  0  0
 51122  1  0  0  0
 52123  1  0  0  0
 52124  1  0  0  0
 53 54  1  0  0  0
 54 55  2  0  0  0
 54125  1  0  0  0
 55 57  1  0  0  0
 55126  1  0  0  0
 56 69  2  0  0  0
 57 58  2  0  0  0
 57127  1  0  0  0
 58128  1  0  0  0
 59 60  1  0  0  0
 59 61  1  0  0  0
 59 62  1  0  0  0
 60129  1  0  0  0
 60130  1  0  0  0
 60131  1  0  0  0
 61132  1  0  0  0
 61133  1  0  0  0
 61134  1  0  0  0
 62135  1  0  0  0
 62136  1  0  0  0
 62137  1  0  0  0
 63 65  1  0  0  0
 63138  1  0  0  0
 63139  1  0  0  0
 63140  1  0  0  0
 64141  1  0  0  0
 65142  1  0  0  0
 68 80  1  0  0  0
 71 73  2  0  0  0
 71 74  1  0  0  0
 71143  1  0  0  0
 72 74  2  0  0  0
 72 76  1  0  0  0
 72144  1  0  0  0
 73 75  1  0  0  0
 73 77  1  0  0  0
 74 82  1  0  0  0
 75 76  2  0  0  0
 75 81  1  0  0  0
 76 83  1  0  0  0
 77 78  1  0  0  0
 77145  1  0  0  0
 77146  1  0  0  0
 78 79  1  0  0  0
 78147  1  0  0  0
 78148  1  0  0  0
 79 80  1  0  0  0
 79149  1  0  0  0
 79150  1  0  0  0
 80151  1  0  0  0
 80152  1  0  0  0
 81153  1  0  0  0
 81154  1  0  0  0
 82155  1  0  0  0
M  ISO  4   1 100  68 101  80 101  82 100
M  END
> <chiral flag>
0

> <version>
0

> <s_m_source_file>
/data/baiqing/PycharmProjects/Reinvent-master-3.2/result/LINK_invent/BTK/process_docking_weight1_custom_product_contain_oxygen_bond_distance_aromatic_linkinvent_7_9_3/rearranged_h_0104.sdf

> <i_m_source_file_index>
58

> <r_mmod_Potential_Energy-OPLS-2005>
134.828598022461

> <r_mmod_Stretch_Energy-OPLS-2005>
105.799499511719

> <r_mmod_Bend_Energy-OPLS-2005>
165.204681396484

> <r_mmod_Torsional_Energy-OPLS-2005>
223.265014648438

> <r_mmod_Improper_Torsional_Energy-OPLS-2005>
8.53013706207275

> <r_mmod_Van_der_Waal_Energy-OPLS-2005>
151.543212890625

> <r_mmod_Electrostatic_Energy-OPLS-2005>
-370.028137207031

> <r_mmod_Solvation_Energy-OPLS-2005>
-209.627227783203

> <b_mmod_Minimization_Converged-OPLS-2005>
0

> <r_mmod_RMS_Derivative-OPLS-2005>
0.859561145305634

$$$$
59
                    3D
 Structure written by MMmdl.
174183  0  0  1  0            999 V2000
  -30.7598  -14.3323   20.7273 C   0  0  0  0  0  0
  -30.4168  -12.2962   19.3707 C   0  0  0  0  0  0
  -29.4748  -12.5287   18.1754 C   0  0  0  0  0  0
  -28.0025  -12.3673   18.5984 C   0  0  0  0  0  0
  -27.6603  -13.1906   19.8665 C   0  0  2  0  0  0
  -28.6937  -12.9141   20.9755 C   0  0  0  0  0  0
  -25.2595  -13.8127   20.5644 C   0  0  0  0  0  0
  -24.1834  -13.0425   20.9151 C   0  0  0  0  0  0
  -24.6366  -11.6888   20.8700 C   0  0  0  0  0  0
  -23.9042  -10.4285   21.0393 C   0  0  0  0  0  0
  -24.3602   -9.4205   21.9174 C   0  0  0  0  0  0
  -23.6284   -8.2238   22.0743 C   0  0  0  0  0  0
  -22.4264   -8.0267   21.3543 C   0  0  0  0  0  0
  -21.9892   -9.0244   20.4654 C   0  0  0  0  0  0
  -22.7206  -10.2128   20.3057 C   0  0  0  0  0  0
  -21.6850   -6.0726   22.5289 C   0  0  0  0  0  0
  -21.4009   -6.5643   23.8215 C   0  0  0  0  0  0
  -21.3655   -5.6790   24.9183 C   0  0  0  0  0  0
  -21.6043   -4.3052   24.7228 C   0  0  0  0  0  0
  -21.8822   -3.8142   23.4355 C   0  0  0  0  0  0
  -21.9197   -4.6959   22.3408 C   0  0  0  0  0  0
  -22.7869  -13.5242   21.1840 C   0  0  0  0  0  0
  -22.1664   -4.2146   21.0982 F   0  0  0  0  0  0
  -21.5628   -3.4535   25.7745 F   0  0  0  0  0  0
  -30.0361  -13.2212   20.4456 N   0  0  0  0  0  0
  -26.2999  -12.9267   20.3289 N   0  0  0  0  0  0
  -25.9278  -11.6445   20.5691 N   0  0  0  0  0  0
  -22.0532  -12.8247   22.0424 N   0  0  0  0  0  0
  -25.4387  -15.1839   20.4072 N   0  0  0  0  0  0
  -31.7794  -14.6641   20.1160 O   0  0  0  0  0  0
  -21.6633   -6.8866   21.4243 O   0  0  0  0  0  0
  -22.3572  -14.5557   20.6704 O   0  0  0  0  0  0
  -24.6103  -31.8706   23.2139 C   0  0  0  0  0  0
  -25.9028  -32.4830   23.8401 C   0  0  1  0  0  0
  -27.2361  -27.4750   20.0931 C   0  0  0  0  0  0
  -25.5888  -33.8617   24.2349 N   0  0  0  0  0  0
  -23.3958  -30.4936   21.5530 C   0  0  2  0  0  0
  -24.8447  -28.9644   20.1202 C   0  0  0  0  0  0
  -22.7386  -29.4654   22.5007 C   0  0  0  0  0  0
  -18.0251  -28.1388   22.8478 C   0  0  0  0  0  0
  -24.1468  -36.7278   23.2633 C   0  0  0  0  0  0
  -25.9188  -30.8500   21.3631 C   0  0  0  0  0  0
  -26.0021  -29.4865   20.7137 C   0  0  0  0  0  0
  -27.2025  -28.7488   20.7016 C   0  0  0  0  0  0
  -26.0674  -26.9562   19.5030 C   0  0  0  0  0  0
  -24.8690  -27.6943   19.5153 C   0  0  0  0  0  0
  -23.6041  -29.8274   20.1668 C   0  0  0  0  0  0
  -25.4086  -36.3094   24.0352 C   0  0  1  0  0  0
  -20.5833  -28.3643   23.1324 C   0  0  2  0  0  0
  -20.6719  -26.9374   22.5430 C   0  0  0  0  0  0
  -19.5711  -26.6392   21.5193 C   0  0  0  0  0  0
  -18.1889  -26.7937   22.1610 C   0  0  0  0  0  0
  -19.1496  -28.8834   23.2902 C   0  0  0  0  0  0
  -18.9440  -30.1440   23.8917 C   0  0  0  0  0  0
  -17.6444  -30.6582   24.0561 C   0  0  0  0  0  0
  -25.9022  -34.9464   23.5142 C   0  0  0  0  0  0
  -16.5334  -29.9088   23.6336 C   0  0  0  0  0  0
  -16.7242  -28.6512   23.0348 C   0  0  0  0  0  0
  -26.4504  -31.6596   25.0701 C   0  0  0  0  0  0
  -25.3809  -31.3720   26.1486 C   0  0  0  0  0  0
  -27.0301  -30.3015   24.6091 C   0  0  0  0  0  0
  -27.6101  -32.4321   25.7435 C   0  0  0  0  0  0
  -27.5575  -37.1771   24.8472 C   0  0  0  0  0  0
  -21.4115  -29.3009   22.3736 N   0  0  0  0  0  0
  -26.4267  -37.3786   23.9443 N   0  0  0  0  0  0
  -24.6591  -31.0859   22.1015 N   0  0  0  0  0  0
  -23.4170  -28.8183   23.3021 O   0  0  0  0  0  0
  -28.3840  -26.7327   20.0160 O   0  0  0  0  0  0
  -26.5572  -34.8934   22.4700 O   0  0  0  0  0  0
  -23.5318  -32.1439   23.7582 O   0  0  0  0  0  0
  -29.1465  -18.6883   22.0715 C   0  0  0  0  0  0
  -29.1007  -20.0334   21.6524 C   0  0  0  0  0  0
  -31.0440  -20.5146   23.0249 C   0  0  0  0  0  0
  -30.1295  -18.2517   22.9854 C   0  0  0  0  0  0
  -31.0908  -19.1762   23.4605 C   0  0  0  0  0  0
  -30.0441  -20.9687   22.1382 C   0  0  0  0  0  0
  -29.5964  -25.1401   21.2838 C   0  0  0  0  0  0
  -28.9503  -26.3163   21.1875 C   0  0  0  0  0  0
  -31.9289  -15.0187   23.6207 C   0  0  0  0  0  0
  -30.2616  -24.6780   22.5657 C   0  0  0  0  0  0
  -29.7089  -24.1513   20.1321 C   0  0  0  0  0  0
  -29.8623  -23.2396   22.9315 C   0  0  0  0  0  0
  -29.3107  -22.7283   20.5654 C   0  0  0  0  0  0
  -32.1722  -18.7668   24.4483 C   0  0  0  0  0  0
  -33.8863  -13.3769   23.7008 C   0  0  0  0  0  0
  -30.1345  -16.8004   23.4452 C   0  0  0  0  0  0
  -33.3944  -14.7673   23.2616 C   0  0  0  0  0  0
  -31.1089  -15.8887   22.6485 C   0  0  2  0  0  0
  -30.0116  -22.3335   21.7894 N   0  0  0  0  0  0
  -30.3288  -14.9847   21.8104 N   0  0  0  0  0  0
  -31.4350  -14.4764   24.6135 O   0  0  0  0  0  0
  -31.4572  -12.4168   19.0624 H   0  0  0  0  0  0
  -30.3293  -11.2672   19.7237 H   0  0  0  0  0  0
  -29.7100  -11.8321   17.3695 H   0  0  0  0  0  0
  -29.6338  -13.5286   17.7688 H   0  0  0  0  0  0
  -27.8238  -11.3075   18.7851 H   0  0  0  0  0  0
  -27.3415  -12.6431   17.7761 H   0  0  0  0  0  0
  -27.7249  -14.2448   19.5963 H   0  0  0  0  0  0
  -28.6593  -11.8627   21.2656 H   0  0  0  0  0  0
  -28.4209  -13.4619   21.8768 H   0  0  0  0  0  0
  -25.2755   -9.5683   22.4730 H   0  0  0  0  0  0
  -24.0007   -7.4630   22.7448 H   0  0  0  0  0  0
  -21.0824   -8.8759   19.8962 H   0  0  0  0  0  0
  -22.3663  -10.9664   19.6159 H   0  0  0  0  0  0
  -21.1996   -7.6152   23.9722 H   0  0  0  0  0  0
  -21.1470   -6.0521   25.9084 H   0  0  0  0  0  0
  -22.0607   -2.7604   23.2862 H   0  0  0  0  0  0
  -22.4145  -11.9891   22.4780 H   0  0  0  0  0  0
  -21.1159  -13.1287   22.2644 H   0  0  0  0  0  0
  -24.6787  -15.8467   20.5153 H   0  0  0  0  0  0
  -26.3033  -15.6199   20.1099 H   0  0  0  0  0  0
  -26.7086  -32.5591   23.1150 H   0  0  0  0  0  0
  -25.0046  -33.9800   25.0504 H   0  0  0  0  0  0
  -22.6787  -31.3057   21.4166 H   0  0  0  0  0  0
  -23.3744  -35.9597   23.3316 H   0  0  0  0  0  0
  -24.3519  -36.8869   22.2033 H   0  0  0  0  0  0
  -23.7231  -37.6489   23.6641 H   0  0  0  0  0  0
  -26.0304  -31.6252   20.6032 H   0  0  0  0  0  0
  -26.8030  -30.8981   21.9864 H   0  0  0  0  0  0
  -28.1022  -29.1543   21.1419 H   0  0  0  0  0  0
  -26.0912  -25.9810   19.0386 H   0  0  0  0  0  0
  -23.9755  -27.2854   19.0638 H   0  0  0  0  0  0
  -23.7111  -30.6049   19.4082 H   0  0  0  0  0  0
  -22.7301  -29.2459   19.8697 H   0  0  0  0  0  0
  -25.1263  -36.1923   25.0844 H   0  0  0  0  0  0
  -20.9932  -28.3231   24.1446 H   0  0  0  0  0  0
  -20.5539  -26.2268   23.3619 H   0  0  0  0  0  0
  -21.6602  -26.7372   22.1262 H   0  0  0  0  0  0
  -19.6851  -25.6311   21.1195 H   0  0  0  0  0  0
  -19.6660  -27.3229   20.6742 H   0  0  0  0  0  0
  -17.4156  -26.6692   21.4023 H   0  0  0  0  0  0
  -18.0284  -26.0067   22.8995 H   0  0  0  0  0  0
  -19.7916  -30.7236   24.2307 H   0  0  0  0  0  0
  -17.5006  -31.6262   24.5158 H   0  0  0  0  0  0
  -15.5340  -30.2994   23.7647 H   0  0  0  0  0  0
  -15.8642  -28.0835   22.7062 H   0  0  0  0  0  0
  -24.6036  -30.6976   25.7890 H   0  0  0  0  0  0
  -24.8948  -32.2866   26.4880 H   0  0  0  0  0  0
  -25.8203  -30.8995   27.0275 H   0  0  0  0  0  0
  -26.2812  -29.6741   24.1240 H   0  0  0  0  0  0
  -27.4131  -29.7302   25.4554 H   0  0  0  0  0  0
  -27.8624  -30.4260   23.9156 H   0  0  0  0  0  0
  -27.2730  -33.3611   26.2041 H   0  0  0  0  0  0
  -28.3866  -32.6892   25.0217 H   0  0  0  0  0  0
  -28.0808  -31.8434   26.5320 H   0  0  0  0  0  0
  -28.2609  -38.0053   24.7486 H   0  0  0  0  0  0
  -28.1048  -36.2574   24.6307 H   0  0  0  0  0  0
  -27.2287  -37.1456   25.8879 H   0  0  0  0  0  0
  -20.9286  -29.8721   21.6946 H   0  0  0  0  0  0
  -26.0147  -38.2852   24.1504 H   0  0  0  0  0  0
  -28.4100  -17.9950   21.6912 H   0  0  0  0  0  0
  -28.3147  -20.3279   20.9725 H   0  0  0  0  0  0
  -31.7919  -21.2068   23.3862 H   0  0  0  0  0  0
  -28.8480  -27.0240   21.9996 H   0  0  0  0  0  0
  -30.0215  -25.3521   23.3895 H   0  0  0  0  0  0
  -31.3430  -24.7311   22.4254 H   0  0  0  0  0  0
  -30.7435  -24.1515   19.7840 H   0  0  0  0  0  0
  -29.0966  -24.4668   19.2864 H   0  0  0  0  0  0
  -28.8208  -23.2109   23.2547 H   0  0  0  0  0  0
  -30.4490  -22.9187   23.7920 H   0  0  0  0  0  0
  -29.5259  -22.0287   19.7553 H   0  0  0  0  0  0
  -28.2339  -22.6847   20.7404 H   0  0  0  0  0  0
  -32.8441  -19.5969   24.6724 H   0  0  0  0  0  0
  -32.7779  -17.9537   24.0492 H   0  0  0  0  0  0
  -31.7307  -18.4445   25.3930 H   0  0  0  0  0  0
  -34.8963  -13.1900   23.3385 H   0  0  0  0  0  0
  -33.2457  -12.5854   23.3087 H   0  0  0  0  0  0
  -33.9002  -13.2862   24.7879 H   0  0  0  0  0  0
  -29.1137  -16.4161   23.3944 H   0  0  0  0  0  0
  -30.3526  -16.7974   24.5143 H   0  0  0  0  0  0
  -34.0046  -15.5456   23.7204 H   0  0  0  0  0  0
  -33.5111  -14.8701   22.1827 H   0  0  0  0  0  0
  -31.7826  -16.4962   22.0416 H   0  0  0  0  0  0
  -29.4893  -14.6131   22.2257 H   0  0  0  0  0  0
  1 25  1  0  0  0
  1 30  2  0  0  0
  1 90  1  0  0  0
  2  3  1  0  0  0
  2 25  1  0  0  0
  2 92  1  0  0  0
  2 93  1  0  0  0
  3  4  1  0  0  0
  3 94  1  0  0  0
  3 95  1  0  0  0
  4  5  1  0  0  0
  4 96  1  0  0  0
  4 97  1  0  0  0
  5  6  1  0  0  0
  5 26  1  0  0  0
  5 98  1  0  0  0
  6 25  1  0  0  0
  6 99  1  0  0  0
  6100  1  0  0  0
  7  8  2  0  0  0
  7 26  1  0  0  0
  7 29  1  0  0  0
  8  9  1  0  0  0
  8 22  1  0  0  0
  9 10  1  0  0  0
  9 27  2  0  0  0
 10 11  2  0  0  0
 10 15  1  0  0  0
 11 12  1  0  0  0
 11101  1  0  0  0
 12 13  2  0  0  0
 12102  1  0  0  0
 13 14  1  0  0  0
 13 31  1  0  0  0
 14 15  2  0  0  0
 14103  1  0  0  0
 15104  1  0  0  0
 16 17  2  0  0  0
 16 21  1  0  0  0
 16 31  1  0  0  0
 17 18  1  0  0  0
 17105  1  0  0  0
 18 19  2  0  0  0
 18106  1  0  0  0
 19 20  1  0  0  0
 19 24  1  0  0  0
 20 21  2  0  0  0
 20107  1  0  0  0
 21 23  1  0  0  0
 22 28  1  0  0  0
 22 32  2  0  0  0
 26 27  1  0  0  0
 28108  1  0  0  0
 28109  1  0  0  0
 29110  1  0  0  0
 29111  1  0  0  0
 33 34  1  0  0  0
 33 66  1  0  0  0
 33 70  2  0  0  0
 34 36  1  0  0  0
 34 59  1  0  0  0
 34112  1  0  0  0
 35 44  2  0  0  0
 35 45  1  0  0  0
 35 68  1  0  0  0
 36 56  1  0  0  0
 36113  1  0  0  0
 37 39  1  0  0  0
 37 47  1  0  0  0
 37 66  1  0  0  0
 37114  1  0  0  0
 38 43  2  0  0  0
 38 46  1  0  0  0
 38 47  1  0  0  0
 39 64  1  0  0  0
 39 67  2  0  0  0
 40 52  1  0  0  0
 40 53  2  0  0  0
 40 58  1  0  0  0
 41115  1  0  0  0
 41116  1  0  0  0
 41117  1  0  0  0
 41 48  1  0  0  0
 42 43  1  0  0  0
 42 66  1  0  0  0
 42118  1  0  0  0
 42119  1  0  0  0
 43 44  1  0  0  0
 44120  1  0  0  0
 45 46  2  0  0  0
 45121  1  0  0  0
 46122  1  0  0  0
 47123  1  0  0  0
 47124  1  0  0  0
 48 56  1  0  0  0
 48 65  1  0  0  0
 48125  1  0  0  0
 49 50  1  0  0  0
 49 53  1  0  0  0
 49 64  1  0  0  0
 49126  1  0  0  0
 50 51  1  0  0  0
 50127  1  0  0  0
 50128  1  0  0  0
 51 52  1  0  0  0
 51129  1  0  0  0
 51130  1  0  0  0
 52131  1  0  0  0
 52132  1  0  0  0
 53 54  1  0  0  0
 54 55  2  0  0  0
 54133  1  0  0  0
 55 57  1  0  0  0
 55134  1  0  0  0
 56 69  2  0  0  0
 57 58  2  0  0  0
 57135  1  0  0  0
 58136  1  0  0  0
 59 60  1  0  0  0
 59 61  1  0  0  0
 59 62  1  0  0  0
 60137  1  0  0  0
 60138  1  0  0  0
 60139  1  0  0  0
 61140  1  0  0  0
 61141  1  0  0  0
 61142  1  0  0  0
 62143  1  0  0  0
 62144  1  0  0  0
 62145  1  0  0  0
 63 65  1  0  0  0
 63146  1  0  0  0
 63147  1  0  0  0
 63148  1  0  0  0
 64149  1  0  0  0
 65150  1  0  0  0
 68 78  1  0  0  0
 71 72  2  0  0  0
 71 74  1  0  0  0
 71151  1  0  0  0
 72 76  1  0  0  0
 72152  1  0  0  0
 73 75  1  0  0  0
 73 76  2  0  0  0
 73153  1  0  0  0
 74 75  2  0  0  0
 74 86  1  0  0  0
 75 84  1  0  0  0
 76 89  1  0  0  0
 77 78  2  0  0  0
 77 80  1  0  0  0
 77 81  1  0  0  0
 78154  1  0  0  0
 79 87  1  0  0  0
 79 88  1  0  0  0
 79 91  2  0  0  0
 80 82  1  0  0  0
 80155  1  0  0  0
 80156  1  0  0  0
 81 83  1  0  0  0
 81157  1  0  0  0
 81158  1  0  0  0
 82 89  1  0  0  0
 82159  1  0  0  0
 82160  1  0  0  0
 83 89  1  0  0  0
 83161  1  0  0  0
 83162  1  0  0  0
 84163  1  0  0  0
 84164  1  0  0  0
 84165  1  0  0  0
 85 87  1  0  0  0
 85166  1  0  0  0
 85167  1  0  0  0
 85168  1  0  0  0
 86169  1  0  0  0
 86170  1  0  0  0
 86 88  1  0  0  0
 87171  1  0  0  0
 87172  1  0  0  0
 88 90  1  0  0  0
 88173  1  0  0  0
 90174  1  0  0  0
M  ISO  4   1 100  68 101  78 101  90 100
M  END
> <chiral flag>
0

> <version>
0

> <s_m_source_file>
/data/baiqing/PycharmProjects/Reinvent-master-3.2/result/LINK_invent/BTK/process_docking_weight1_custom_product_contain_oxygen_bond_distance_aromatic_linkinvent_7_9_3/rearranged_h_0104.sdf

> <i_m_source_file_index>
59

> <r_mmod_Potential_Energy-OPLS-2005>
-141.356536865234

> <r_mmod_Stretch_Energy-OPLS-2005>
32.9182586669922

> <r_mmod_Bend_Energy-OPLS-2005>
96.1449432373047

> <r_mmod_Torsional_Energy-OPLS-2005>
238.721405029297

> <r_mmod_Improper_Torsional_Energy-OPLS-2005>
6.71916627883911

> <r_mmod_Van_der_Waal_Energy-OPLS-2005>
167.125625610352

> <r_mmod_Electrostatic_Energy-OPLS-2005>
-475.127838134766

> <r_mmod_Solvation_Energy-OPLS-2005>
-215.180969238281

> <b_mmod_Minimization_Converged-OPLS-2005>
0

> <r_mmod_RMS_Derivative-OPLS-2005>
3.00075650215149

$$$$
60
                    3D
 Structure written by MMmdl.
165174  0  0  1  0            999 V2000
  -30.7324  -14.4530   20.6287 C   0  0  0  0  0  0
  -30.4197  -12.3210   19.4120 C   0  0  0  0  0  0
  -29.4893  -12.5168   18.1991 C   0  0  0  0  0  0
  -28.0133  -12.3694   18.6165 C   0  0  0  0  0  0
  -27.6605  -13.2096   19.8725 C   0  0  2  0  0  0
  -28.7019  -12.9917   20.9919 C   0  0  0  0  0  0
  -25.2590  -13.8167   20.5691 C   0  0  0  0  0  0
  -24.1843  -13.0440   20.9184 C   0  0  0  0  0  0
  -24.6394  -11.6906   20.8731 C   0  0  0  0  0  0
  -23.9061  -10.4292   21.0404 C   0  0  0  0  0  0
  -24.3611   -9.4208   21.9185 C   0  0  0  0  0  0
  -23.6290   -8.2242   22.0753 C   0  0  0  0  0  0
  -22.4270   -8.0275   21.3542 C   0  0  0  0  0  0
  -21.9904   -9.0254   20.4646 C   0  0  0  0  0  0
  -22.7232  -10.2133   20.3056 C   0  0  0  0  0  0
  -21.6854   -6.0733   22.5279 C   0  0  0  0  0  0
  -21.4015   -6.5638   23.8212 C   0  0  0  0  0  0
  -21.3659   -5.6789   24.9174 C   0  0  0  0  0  0
  -21.6045   -4.3055   24.7225 C   0  0  0  0  0  0
  -21.8818   -3.8144   23.4347 C   0  0  0  0  0  0
  -21.9192   -4.6964   22.3403 C   0  0  0  0  0  0
  -22.7864  -13.5236   21.1842 C   0  0  0  0  0  0
  -22.1662   -4.2146   21.0981 F   0  0  0  0  0  0
  -21.5629   -3.4537   25.7741 F   0  0  0  0  0  0
  -30.0325  -13.3009   20.4399 N   0  0  0  0  0  0
  -26.3022  -12.9340   20.3357 N   0  0  0  0  0  0
  -25.9320  -11.6496   20.5756 N   0  0  0  0  0  0
  -22.0501  -12.8229   22.0396 N   0  0  0  0  0  0
  -25.4313  -15.1887   20.4108 N   0  0  0  0  0  0
  -31.8262  -14.6614   20.0963 O   0  0  0  0  0  0
  -21.6636   -6.8876   21.4238 O   0  0  0  0  0  0
  -22.3547  -14.5542   20.6693 O   0  0  0  0  0  0
  -24.6166  -31.8671   23.2094 C   0  0  0  0  0  0
  -25.9055  -32.4820   23.8390 C   0  0  1  0  0  0
  -27.2249  -27.4073   20.0925 C   0  0  0  0  0  0
  -25.5912  -33.8618   24.2323 N   0  0  0  0  0  0
  -23.4055  -30.4927   21.5517 C   0  0  2  0  0  0
  -24.8493  -28.9623   20.1110 C   0  0  0  0  0  0
  -22.7427  -29.4647   22.4982 C   0  0  0  0  0  0
  -18.0277  -28.1373   22.8501 C   0  0  0  0  0  0
  -24.1492  -36.7307   23.2635 C   0  0  0  0  0  0
  -25.9385  -30.8241   21.3683 C   0  0  0  0  0  0
  -26.0128  -29.4586   20.7117 C   0  0  0  0  0  0
  -27.2020  -28.6885   20.6998 C   0  0  0  0  0  0
  -26.0414  -26.9479   19.4647 C   0  0  0  0  0  0
  -24.8602  -27.7081   19.4835 C   0  0  0  0  0  0
  -23.6140  -29.8312   20.1642 C   0  0  0  0  0  0
  -25.4114  -36.3114   24.0335 C   0  0  1  0  0  0
  -20.5870  -28.3657   23.1320 C   0  0  2  0  0  0
  -20.6761  -26.9393   22.5419 C   0  0  0  0  0  0
  -19.5741  -26.6387   21.5214 C   0  0  0  0  0  0
  -18.1922  -26.7920   22.1628 C   0  0  0  0  0  0
  -19.1527  -28.8833   23.2910 C   0  0  0  0  0  0
  -18.9452  -30.1442   23.8918 C   0  0  0  0  0  0
  -17.6454  -30.6580   24.0569 C   0  0  0  0  0  0
  -25.9043  -34.9475   23.5124 C   0  0  0  0  0  0
  -16.5348  -29.9083   23.6328 C   0  0  0  0  0  0
  -16.7265  -28.6495   23.0358 C   0  0  0  0  0  0
  -26.4467  -31.6596   25.0717 C   0  0  0  0  0  0
  -25.3724  -31.3721   26.1463 C   0  0  0  0  0  0
  -27.0292  -30.3035   24.6097 C   0  0  0  0  0  0
  -27.6046  -32.4313   25.7479 C   0  0  0  0  0  0
  -27.5590  -37.1816   24.8465 C   0  0  0  0  0  0
  -21.4150  -29.3025   22.3726 N   0  0  0  0  0  0
  -26.4303  -37.3800   23.9409 N   0  0  0  0  0  0
  -24.6722  -31.0754   22.1014 N   0  0  0  0  0  0
  -23.4195  -28.8186   23.3025 O   0  0  0  0  0  0
  -28.3810  -26.6393   20.1373 O   0  0  0  0  0  0
  -26.5602  -34.8919   22.4687 O   0  0  0  0  0  0
  -23.5351  -32.1438   23.7469 O   0  0  0  0  0  0
  -31.5027  -18.7269   21.0163 C   0  0  0  0  0  0
  -29.0717  -19.9394   21.6907 C   0  0  0  0  0  0
  -30.4934  -17.9348   21.6067 C   0  0  0  0  0  0
  -31.3296  -20.1157   20.8118 C   0  0  0  0  0  0
  -29.2470  -18.5464   21.9027 C   0  0  0  0  0  0
  -30.1216  -20.7493   21.1939 C   0  0  0  0  0  0
  -29.2343  -24.2537   22.0394 C   0  0  0  0  0  0
  -29.7225  -22.8435   22.4193 C   0  0  0  0  0  0
  -29.3334  -22.8544   20.0935 C   0  0  0  0  0  0
  -29.3533  -24.3456   20.5092 C   0  0  1  0  0  0
  -32.4810  -20.9256   20.2395 C   0  0  0  0  0  0
  -28.1101  -17.7449   22.5143 C   0  0  0  0  0  0
  -30.8523  -16.5043   22.0541 C   0  0  0  0  0  0
  -28.2649  -25.2268   19.8423 C   0  0  0  0  0  0
  -30.0345  -22.1616   21.1682 N   0  0  0  0  0  0
  -30.1577  -15.3724   21.4247 N   0  0  0  0  0  0
  -31.4633  -12.4217   19.1083 H   0  0  0  0  0  0
  -30.3234  -11.3090   19.8084 H   0  0  0  0  0  0
  -29.7301  -11.7950   17.4175 H   0  0  0  0  0  0
  -29.6528  -13.5041   17.7639 H   0  0  0  0  0  0
  -27.8299  -11.3131   18.8164 H   0  0  0  0  0  0
  -27.3577  -12.6395   17.7878 H   0  0  0  0  0  0
  -27.7042  -14.2581   19.5765 H   0  0  0  0  0  0
  -28.6819  -11.9548   21.3306 H   0  0  0  0  0  0
  -28.4512  -13.5863   21.8707 H   0  0  0  0  0  0
  -25.2759   -9.5685   22.4756 H   0  0  0  0  0  0
  -24.0001   -7.4633   22.7471 H   0  0  0  0  0  0
  -21.0833   -8.8770   19.8954 H   0  0  0  0  0  0
  -22.3689  -10.9670   19.6162 H   0  0  0  0  0  0
  -21.2005   -7.6145   23.9713 H   0  0  0  0  0  0
  -21.1485   -6.0522   25.9077 H   0  0  0  0  0  0
  -22.0597   -2.7607   23.2849 H   0  0  0  0  0  0
  -22.4112  -11.9889   22.4787 H   0  0  0  0  0  0
  -21.1122  -13.1264   22.2601 H   0  0  0  0  0  0
  -24.6649  -15.8445   20.5153 H   0  0  0  0  0  0
  -26.2832  -15.6241   20.0797 H   0  0  0  0  0  0
  -26.7120  -32.5535   23.1147 H   0  0  0  0  0  0
  -25.0086  -33.9785   25.0483 H   0  0  0  0  0  0
  -22.6952  -31.3105   21.4156 H   0  0  0  0  0  0
  -23.3758  -35.9640   23.3306 H   0  0  0  0  0  0
  -24.3589  -36.8910   22.2049 H   0  0  0  0  0  0
  -23.7228  -37.6507   23.6637 H   0  0  0  0  0  0
  -26.0597  -31.5907   20.6016 H   0  0  0  0  0  0
  -26.8236  -30.8730   21.9909 H   0  0  0  0  0  0
  -28.0974  -29.0646   21.1743 H   0  0  0  0  0  0
  -26.0008  -26.0007   18.9478 H   0  0  0  0  0  0
  -23.9684  -27.3284   19.0043 H   0  0  0  0  0  0
  -23.7251  -30.6080   19.4071 H   0  0  0  0  0  0
  -22.7367  -29.2549   19.8651 H   0  0  0  0  0  0
  -25.1294  -36.1983   25.0829 H   0  0  0  0  0  0
  -20.9973  -28.3206   24.1438 H   0  0  0  0  0  0
  -20.5664  -26.2257   23.3599 H   0  0  0  0  0  0
  -21.6634  -26.7436   22.1220 H   0  0  0  0  0  0
  -19.6893  -25.6305   21.1232 H   0  0  0  0  0  0
  -19.6678  -27.3203   20.6750 H   0  0  0  0  0  0
  -17.4199  -26.6684   21.4021 H   0  0  0  0  0  0
  -18.0318  -26.0047   22.9011 H   0  0  0  0  0  0
  -19.7926  -30.7255   24.2297 H   0  0  0  0  0  0
  -17.5007  -31.6265   24.5162 H   0  0  0  0  0  0
  -15.5349  -30.2994   23.7624 H   0  0  0  0  0  0
  -15.8666  -28.0813   22.7073 H   0  0  0  0  0  0
  -24.5903  -30.7055   25.7808 H   0  0  0  0  0  0
  -24.8907  -32.2886   26.4888 H   0  0  0  0  0  0
  -25.8077  -30.8915   27.0232 H   0  0  0  0  0  0
  -26.2834  -29.6819   24.1126 H   0  0  0  0  0  0
  -27.4024  -29.7257   25.4560 H   0  0  0  0  0  0
  -27.8691  -30.4352   23.9271 H   0  0  0  0  0  0
  -27.2670  -33.3608   26.2077 H   0  0  0  0  0  0
  -28.3845  -32.6879   25.0299 H   0  0  0  0  0  0
  -28.0715  -31.8415   26.5378 H   0  0  0  0  0  0
  -28.2621  -38.0103   24.7530 H   0  0  0  0  0  0
  -28.1077  -36.2641   24.6284 H   0  0  0  0  0  0
  -27.2312  -37.1460   25.8868 H   0  0  0  0  0  0
  -20.9301  -29.8769   21.6971 H   0  0  0  0  0  0
  -26.0191  -38.2882   24.1408 H   0  0  0  0  0  0
  -32.4559  -18.2742   20.7782 H   0  0  0  0  0  0
  -28.1339  -20.4012   21.9664 H   0  0  0  0  0  0
  -29.8112  -25.0356   22.5347 H   0  0  0  0  0  0
  -28.1971  -24.3737   22.3562 H   0  0  0  0  0  0
  -28.9600  -22.3160   22.9948 H   0  0  0  0  0  0
  -30.6187  -22.8988   23.0391 H   0  0  0  0  0  0
  -29.8255  -22.7001   19.1314 H   0  0  0  0  0  0
  -28.3120  -22.4776   20.0151 H   0  0  0  0  0  0
  -30.3368  -24.7480   20.2614 H   0  0  0  0  0  0
  -33.3237  -20.2915   19.9628 H   0  0  0  0  0  0
  -32.8301  -21.6556   20.9697 H   0  0  0  0  0  0
  -32.1579  -21.4637   19.3483 H   0  0  0  0  0  0
  -27.2366  -18.3696   22.7030 H   0  0  0  0  0  0
  -28.4122  -17.3062   23.4654 H   0  0  0  0  0  0
  -27.8018  -16.9421   21.8441 H   0  0  0  0  0  0
  -30.6539  -16.4406   23.1246 H   0  0  0  0  0  0
  -31.9331  -16.3694   21.9802 H   0  0  0  0  0  0
  -27.3074  -24.8259   20.1765 H   0  0  0  0  0  0
  -28.3043  -25.1000   18.7594 H   0  0  0  0  0  0
  -29.2448  -15.1412   21.7846 H   0  0  0  0  0  0
  1 25  1  0  0  0
  1 30  2  0  0  0
  1 86  1  0  0  0
  2  3  1  0  0  0
  2 25  1  0  0  0
  2 87  1  0  0  0
  2 88  1  0  0  0
  3  4  1  0  0  0
  3 89  1  0  0  0
  3 90  1  0  0  0
  4  5  1  0  0  0
  4 91  1  0  0  0
  4 92  1  0  0  0
  5  6  1  0  0  0
  5 26  1  0  0  0
  5 93  1  0  0  0
  6 25  1  0  0  0
  6 94  1  0  0  0
  6 95  1  0  0  0
  7  8  2  0  0  0
  7 26  1  0  0  0
  7 29  1  0  0  0
  8  9  1  0  0  0
  8 22  1  0  0  0
  9 10  1  0  0  0
  9 27  2  0  0  0
 10 11  2  0  0  0
 10 15  1  0  0  0
 11 12  1  0  0  0
 11 96  1  0  0  0
 12 13  2  0  0  0
 12 97  1  0  0  0
 13 14  1  0  0  0
 13 31  1  0  0  0
 14 15  2  0  0  0
 14 98  1  0  0  0
 15 99  1  0  0  0
 16 17  2  0  0  0
 16 21  1  0  0  0
 16 31  1  0  0  0
 17 18  1  0  0  0
 17100  1  0  0  0
 18 19  2  0  0  0
 18101  1  0  0  0
 19 20  1  0  0  0
 19 24  1  0  0  0
 20 21  2  0  0  0
 20102  1  0  0  0
 21 23  1  0  0  0
 22 28  1  0  0  0
 22 32  2  0  0  0
 26 27  1  0  0  0
 28103  1  0  0  0
 28104  1  0  0  0
 29105  1  0  0  0
 29106  1  0  0  0
 33 34  1  0  0  0
 33 66  1  0  0  0
 33 70  2  0  0  0
 34 36  1  0  0  0
 34 59  1  0  0  0
 34107  1  0  0  0
 35 44  2  0  0  0
 35 45  1  0  0  0
 35 68  1  0  0  0
 36 56  1  0  0  0
 36108  1  0  0  0
 37 39  1  0  0  0
 37 47  1  0  0  0
 37 66  1  0  0  0
 37109  1  0  0  0
 38 43  2  0  0  0
 38 46  1  0  0  0
 38 47  1  0  0  0
 39 64  1  0  0  0
 39 67  2  0  0  0
 40 52  1  0  0  0
 40 53  2  0  0  0
 40 58  1  0  0  0
 41110  1  0  0  0
 41111  1  0  0  0
 41112  1  0  0  0
 41 48  1  0  0  0
 42 43  1  0  0  0
 42 66  1  0  0  0
 42113  1  0  0  0
 42114  1  0  0  0
 43 44  1  0  0  0
 44115  1  0  0  0
 45 46  2  0  0  0
 45116  1  0  0  0
 46117  1  0  0  0
 47118  1  0  0  0
 47119  1  0  0  0
 48 56  1  0  0  0
 48 65  1  0  0  0
 48120  1  0  0  0
 49 50  1  0  0  0
 49 53  1  0  0  0
 49 64  1  0  0  0
 49121  1  0  0  0
 50 51  1  0  0  0
 50122  1  0  0  0
 50123  1  0  0  0
 51 52  1  0  0  0
 51124  1  0  0  0
 51125  1  0  0  0
 52126  1  0  0  0
 52127  1  0  0  0
 53 54  1  0  0  0
 54 55  2  0  0  0
 54128  1  0  0  0
 55 57  1  0  0  0
 55129  1  0  0  0
 56 69  2  0  0  0
 57 58  2  0  0  0
 57130  1  0  0  0
 58131  1  0  0  0
 59 60  1  0  0  0
 59 61  1  0  0  0
 59 62  1  0  0  0
 60132  1  0  0  0
 60133  1  0  0  0
 60134  1  0  0  0
 61135  1  0  0  0
 61136  1  0  0  0
 61137  1  0  0  0
 62138  1  0  0  0
 62139  1  0  0  0
 62140  1  0  0  0
 63 65  1  0  0  0
 63141  1  0  0  0
 63142  1  0  0  0
 63143  1  0  0  0
 64144  1  0  0  0
 65145  1  0  0  0
 68 84  1  0  0  0
 71 73  2  0  0  0
 71 74  1  0  0  0
 71146  1  0  0  0
 72 75  2  0  0  0
 72 76  1  0  0  0
 72147  1  0  0  0
 73 75  1  0  0  0
 73 83  1  0  0  0
 74 76  2  0  0  0
 74 81  1  0  0  0
 75 82  1  0  0  0
 76 85  1  0  0  0
 77 78  1  0  0  0
 77 80  1  0  0  0
 77148  1  0  0  0
 77149  1  0  0  0
 78 85  1  0  0  0
 78150  1  0  0  0
 78151  1  0  0  0
 79 80  1  0  0  0
 79 85  1  0  0  0
 79152  1  0  0  0
 79153  1  0  0  0
 80 84  1  0  0  0
 80154  1  0  0  0
 81155  1  0  0  0
 81156  1  0  0  0
 81157  1  0  0  0
 82158  1  0  0  0
 82159  1  0  0  0
 82160  1  0  0  0
 83 86  1  0  0  0
 83161  1  0  0  0
 83162  1  0  0  0
 84163  1  0  0  0
 84164  1  0  0  0
 86165  1  0  0  0
M  ISO  4   1 100  68 101  84 101  86 100
M  END
> <chiral flag>
0

> <version>
0

> <s_m_source_file>
/data/baiqing/PycharmProjects/Reinvent-master-3.2/result/LINK_invent/BTK/process_docking_weight1_custom_product_contain_oxygen_bond_distance_aromatic_linkinvent_7_9_3/rearranged_h_0104.sdf

> <i_m_source_file_index>
60

> <r_mmod_Potential_Energy-OPLS-2005>
-7.1651406288147

> <r_mmod_Stretch_Energy-OPLS-2005>
41.0166320800781

> <r_mmod_Bend_Energy-OPLS-2005>
131.547241210938

> <r_mmod_Torsional_Energy-OPLS-2005>
286.602111816406

> <r_mmod_Improper_Torsional_Energy-OPLS-2005>
7.36903715133667

> <r_mmod_Van_der_Waal_Energy-OPLS-2005>
151.999923706055

> <r_mmod_Electrostatic_Energy-OPLS-2005>
-424.918212890625

> <r_mmod_Solvation_Energy-OPLS-2005>
-215.250244140625

> <b_mmod_Minimization_Converged-OPLS-2005>
0

> <r_mmod_RMS_Derivative-OPLS-2005>
1.1998530626297

$$$$
61
                    3D
 Structure written by MMmdl.
167176  0  0  1  0            999 V2000
  -30.4705  -15.2906   20.4226 C   0  0  0  0  0  0
  -30.4568  -12.8222   19.5542 C   0  0  0  0  0  0
  -29.5550  -12.5981   18.3097 C   0  0  0  0  0  0
  -28.1033  -12.3114   18.7279 C   0  0  0  0  0  0
  -27.6263  -13.2848   19.8323 C   0  0  2  0  0  0
  -28.6577  -13.4684   20.9703 C   0  0  0  0  0  0
  -25.2456  -13.8265   20.5754 C   0  0  0  0  0  0
  -24.1797  -13.0445   20.9228 C   0  0  0  0  0  0
  -24.6460  -11.6943   20.8737 C   0  0  0  0  0  0
  -23.9141  -10.4299   21.0387 C   0  0  0  0  0  0
  -24.3669   -9.4212   21.9174 C   0  0  0  0  0  0
  -23.6323   -8.2259   22.0756 C   0  0  0  0  0  0
  -22.4304   -8.0300   21.3546 C   0  0  0  0  0  0
  -21.9951   -9.0279   20.4647 C   0  0  0  0  0  0
  -22.7301  -10.2146   20.3046 C   0  0  0  0  0  0
  -21.6863   -6.0752   22.5279 C   0  0  0  0  0  0
  -21.4021   -6.5651   23.8214 C   0  0  0  0  0  0
  -21.3660   -5.6798   24.9171 C   0  0  0  0  0  0
  -21.6044   -4.3062   24.7218 C   0  0  0  0  0  0
  -21.8820   -3.8159   23.4337 C   0  0  0  0  0  0
  -21.9196   -4.6979   22.3397 C   0  0  0  0  0  0
  -22.7807  -13.5193   21.1875 C   0  0  0  0  0  0
  -22.1666   -4.2167   21.0974 F   0  0  0  0  0  0
  -21.5625   -3.4542   25.7728 F   0  0  0  0  0  0
  -29.9137  -13.9702   20.3781 N   0  0  0  0  0  0
  -26.2918  -12.9569   20.3257 N   0  0  0  0  0  0
  -25.9413  -11.6658   20.5714 N   0  0  0  0  0  0
  -22.0471  -12.8172   22.0429 N   0  0  0  0  0  0
  -25.4090  -15.2002   20.4243 N   0  0  0  0  0  0
  -31.6743  -15.2778   20.1287 O   0  0  0  0  0  0
  -21.6656   -6.8902   21.4245 O   0  0  0  0  0  0
  -22.3478  -14.5493   20.6720 O   0  0  0  0  0  0
  -24.8133  -31.6797   23.2721 C   0  0  0  0  0  0
  -25.9911  -32.4506   23.9085 C   0  0  1  0  0  0
  -26.7235  -26.9251   20.3580 C   0  0  0  0  0  0
  -25.5894  -33.8334   24.2294 N   0  0  0  0  0  0
  -23.6274  -30.0468   21.6594 C   0  0  2  0  0  0
  -25.3011  -29.0969   19.0413 C   0  0  0  0  0  0
  -22.7609  -29.2939   22.6301 C   0  0  0  0  0  0
  -18.0116  -28.1395   22.8401 C   0  0  0  0  0  0
  -24.1469  -36.7146   23.2577 C   0  0  0  0  0  0
  -26.6878  -30.6474   21.5516 C   0  0  0  0  0  0
  -26.8910  -29.7401   19.8800 C   0  0  0  0  0  0
  -27.7512  -28.5299   20.5072 C   0  0  0  0  0  0
  -25.5960  -26.5861   19.4111 C   0  0  0  0  0  0
  -24.9010  -27.6961   18.7898 C   0  0  0  0  0  0
  -23.6557  -29.2491   19.9697 C   0  0  0  0  0  0
  -25.4079  -36.2903   24.0268 C   0  0  1  0  0  0
  -20.5598  -28.3346   23.1471 C   0  0  2  0  0  0
  -20.6421  -26.9063   22.5638 C   0  0  0  0  0  0
  -19.5568  -26.6253   21.5238 C   0  0  0  0  0  0
  -18.1705  -26.7935   22.1518 C   0  0  0  0  0  0
  -19.1384  -28.8798   23.2805 C   0  0  0  0  0  0
  -18.9424  -30.1414   23.8820 C   0  0  0  0  0  0
  -17.6455  -30.6613   24.0521 C   0  0  0  0  0  0
  -25.9019  -34.9213   23.5092 C   0  0  0  0  0  0
  -16.5302  -29.9151   23.6319 C   0  0  0  0  0  0
  -16.7141  -28.6570   23.0309 C   0  0  0  0  0  0
  -26.4848  -31.7036   25.1937 C   0  0  0  0  0  0
  -25.3682  -31.4481   26.2311 C   0  0  0  0  0  0
  -27.0890  -30.3337   24.8655 C   0  0  0  0  0  0
  -27.6214  -32.5112   25.8468 C   0  0  0  0  0  0
  -27.5525  -37.1706   24.8458 C   0  0  0  0  0  0
  -21.4419  -29.2251   22.4010 N   0  0  0  0  0  0
  -26.4255  -37.3620   23.9368 N   0  0  0  0  0  0
  -25.0880  -30.6705   22.3758 N   0  0  0  0  0  0
  -23.3119  -28.7476   23.5761 O   0  0  0  0  0  0
  -26.1581  -26.2427   21.2961 O   0  0  0  0  0  0
  -26.5706  -34.8666   22.4739 O   0  0  0  0  0  0
  -23.6660  -32.0073   23.6308 O   0  0  0  0  0  0
  -31.4374  -23.0687   19.6878 C   0  0  0  0  0  0
  -30.7159  -24.2705   19.9233 C   0  0  0  0  0  0
  -30.9585  -21.7641   19.9742 C   0  0  0  0  0  0
  -28.9635  -22.8782   20.7919 C   0  0  0  0  0  0
  -29.4242  -24.3325   20.4981 C   0  0  0  0  0  0
  -29.6895  -21.5213   20.5359 C   0  0  0  0  0  0
  -26.9711  -27.8450   22.6313 C   0  0  0  0  0  0
  -27.3574  -27.8595   18.4492 C   0  0  0  0  0  0
  -28.4445  -26.5616   22.1233 C   0  0  0  0  0  0
  -28.7663  -26.6181   19.0734 C   0  0  0  0  0  0
  -25.6143  -28.5347   21.1872 C   0  0  0  0  0  0
  -24.9981  -31.1415   20.0678 C   0  0  0  0  0  0
  -29.6873  -16.8529   20.7122 C   0  0  0  0  0  0
  -24.9732  -27.1371   21.6860 C   0  0  0  0  0  0
  -30.1006  -18.6087   20.4613 C   0  0  0  0  0  0
  -28.8814  -25.8009   20.6046 N   0  0  0  0  0  0
  -29.3194  -20.0430   20.7580 O   0  0  0  0  0  0
  -31.4784  -13.0156   19.2257 H   0  0  0  0  0  0
  -30.5145  -11.9131   20.1552 H   0  0  0  0  0  0
  -29.9405  -11.7774   17.7034 H   0  0  0  0  0  0
  -29.5852  -13.4872   17.6782 H   0  0  0  0  0  0
  -28.0620  -11.2864   19.0989 H   0  0  0  0  0  0
  -27.4392  -12.3532   17.8639 H   0  0  0  0  0  0
  -27.5423  -14.2519   19.3358 H   0  0  0  0  0  0
  -28.8146  -12.5390   21.5194 H   0  0  0  0  0  0
  -28.2875  -14.1945   21.6953 H   0  0  0  0  0  0
  -25.2813   -9.5682   22.4750 H   0  0  0  0  0  0
  -24.0027   -7.4651   22.7481 H   0  0  0  0  0  0
  -21.0881   -8.8812   19.8950 H   0  0  0  0  0  0
  -22.3768  -10.9689   19.6156 H   0  0  0  0  0  0
  -21.2018   -7.6160   23.9722 H   0  0  0  0  0  0
  -21.1478   -6.0526   25.9074 H   0  0  0  0  0  0
  -22.0597   -2.7622   23.2830 H   0  0  0  0  0  0
  -22.4123  -11.9848   22.4818 H   0  0  0  0  0  0
  -21.1081  -13.1169   22.2630 H   0  0  0  0  0  0
  -24.6414  -15.8514   20.5493 H   0  0  0  0  0  0
  -26.2640  -15.6490   20.1213 H   0  0  0  0  0  0
  -26.8412  -32.5158   23.2387 H   0  0  0  0  0  0
  -24.9936  -33.9507   25.0356 H   0  0  0  0  0  0
  -22.9806  -30.9162   21.5114 H   0  0  0  0  0  0
  -23.3723  -35.9485   23.3219 H   0  0  0  0  0  0
  -24.3575  -36.8767   22.1995 H   0  0  0  0  0  0
  -23.7229  -37.6349   23.6607 H   0  0  0  0  0  0
  -26.9904  -31.6771   21.3475 H   0  0  0  0  0  0
  -27.5019  -30.4135   22.2135 H   0  0  0  0  0  0
  -28.5793  -28.7618   21.1646 H   0  0  0  0  0  0
  -25.1345  -25.6064   19.3846 H   0  0  0  0  0  0
  -23.9774  -27.4753   18.2710 H   0  0  0  0  0  0
  -22.9498  -29.7756   19.3229 H   0  0  0  0  0  0
  -23.0973  -28.3178   20.0708 H   0  0  0  0  0  0
  -25.1242  -36.1769   25.0756 H   0  0  0  0  0  0
  -20.9259  -28.2794   24.1749 H   0  0  0  0  0  0
  -20.5022  -26.1974   23.3814 H   0  0  0  0  0  0
  -21.6328  -26.6869   22.1643 H   0  0  0  0  0  0
  -19.6657  -25.6167   21.1236 H   0  0  0  0  0  0
  -19.6716  -27.3103   20.6826 H   0  0  0  0  0  0
  -17.4042  -26.6787   21.3835 H   0  0  0  0  0  0
  -17.9938  -26.0073   22.8872 H   0  0  0  0  0  0
  -19.7949  -30.7143   24.2208 H   0  0  0  0  0  0
  -17.5069  -31.6295   24.5132 H   0  0  0  0  0  0
  -15.5326  -30.3098   23.7680 H   0  0  0  0  0  0
  -15.8503  -28.0935   22.7046 H   0  0  0  0  0  0
  -24.6104  -30.7505   25.8727 H   0  0  0  0  0  0
  -24.8599  -32.3713   26.5100 H   0  0  0  0  0  0
  -25.7722  -31.0217   27.1501 H   0  0  0  0  0  0
  -26.3431  -29.6697   24.4395 H   0  0  0  0  0  0
  -27.4300  -29.8355   25.7742 H   0  0  0  0  0  0
  -27.9734  -30.4227   24.2389 H   0  0  0  0  0  0
  -27.2768  -33.4742   26.2247 H   0  0  0  0  0  0
  -28.4293  -32.7093   25.1410 H   0  0  0  0  0  0
  -28.0564  -31.9823   26.6959 H   0  0  0  0  0  0
  -28.2545  -38.0000   24.7487 H   0  0  0  0  0  0
  -28.1024  -36.2523   24.6338 H   0  0  0  0  0  0
  -27.2214  -37.1394   25.8853 H   0  0  0  0  0  0
  -21.0445  -29.7274   21.6193 H   0  0  0  0  0  0
  -26.0110  -38.2690   24.1337 H   0  0  0  0  0  0
  -32.4239  -23.1557   19.2544 H   0  0  0  0  0  0
  -31.2026  -25.1953   19.6480 H   0  0  0  0  0  0
  -31.6003  -20.9246   19.7451 H   0  0  0  0  0  0
  -27.9750  -22.7935   21.2186 H   0  0  0  0  0  0
  -27.5564  -28.6324   23.0671 H   0  0  0  0  0  0
  -26.5072  -27.4831   23.5506 H   0  0  0  0  0  0
  -26.8991  -27.4185   17.5542 H   0  0  0  0  0  0
  -27.8770  -28.7015   17.9743 H   0  0  0  0  0  0
  -28.3139  -25.7187   22.8029 H   0  0  0  0  0  0
  -29.3697  -27.0159   22.4800 H   0  0  0  0  0  0
  -29.7036  -27.1703   18.9900 H   0  0  0  0  0  0
  -28.8550  -25.8470   18.3072 H   0  0  0  0  0  0
  -25.8065  -31.7358   19.6156 H   0  0  0  0  0  0
  -24.5465  -31.9823   20.6090 H   0  0  0  0  0  0
  -24.3874  -31.2561   19.1609 H   0  0  0  0  0  0
  -28.7327  -16.7283   20.2030 H   0  0  0  0  0  0
  -29.4265  -16.7888   21.7680 H   0  0  0  0  0  0
  -24.7328  -27.0385   22.7405 H   0  0  0  0  0  0
  -24.0348  -26.8339   21.2212 H   0  0  0  0  0  0
  -30.3570  -18.6773   19.4035 H   0  0  0  0  0  0
  -31.0567  -18.7362   20.9687 H   0  0  0  0  0  0
  1 25  1  0  0  0
  1 30  2  0  0  0
  1 83  1  0  0  0
  2  3  1  0  0  0
  2 25  1  0  0  0
  2 88  1  0  0  0
  2 89  1  0  0  0
  3  4  1  0  0  0
  3 90  1  0  0  0
  3 91  1  0  0  0
  4  5  1  0  0  0
  4 92  1  0  0  0
  4 93  1  0  0  0
  5  6  1  0  0  0
  5 26  1  0  0  0
  5 94  1  0  0  0
  6 25  1  0  0  0
  6 95  1  0  0  0
  6 96  1  0  0  0
  7  8  2  0  0  0
  7 26  1  0  0  0
  7 29  1  0  0  0
  8  9  1  0  0  0
  8 22  1  0  0  0
  9 10  1  0  0  0
  9 27  2  0  0  0
 10 11  2  0  0  0
 10 15  1  0  0  0
 11 12  1  0  0  0
 11 97  1  0  0  0
 12 13  2  0  0  0
 12 98  1  0  0  0
 13 14  1  0  0  0
 13 31  1  0  0  0
 14 15  2  0  0  0
 14 99  1  0  0  0
 15100  1  0  0  0
 16 17  2  0  0  0
 16 21  1  0  0  0
 16 31  1  0  0  0
 17 18  1  0  0  0
 17101  1  0  0  0
 18 19  2  0  0  0
 18102  1  0  0  0
 19 20  1  0  0  0
 19 24  1  0  0  0
 20 21  2  0  0  0
 20103  1  0  0  0
 21 23  1  0  0  0
 22 28  1  0  0  0
 22 32  2  0  0  0
 26 27  1  0  0  0
 28104  1  0  0  0
 28105  1  0  0  0
 29106  1  0  0  0
 29107  1  0  0  0
 33 34  1  0  0  0
 33 66  1  0  0  0
 33 70  2  0  0  0
 34 36  1  0  0  0
 34 59  1  0  0  0
 34108  1  0  0  0
 35 44  2  0  0  0
 35 45  1  0  0  0
 35 68  1  0  0  0
 36 56  1  0  0  0
 36109  1  0  0  0
 37 39  1  0  0  0
 37 47  1  0  0  0
 37 66  1  0  0  0
 37110  1  0  0  0
 38 43  2  0  0  0
 38 46  1  0  0  0
 38 47  1  0  0  0
 39 64  1  0  0  0
 39 67  2  0  0  0
 40 52  1  0  0  0
 40 53  2  0  0  0
 40 58  1  0  0  0
 41111  1  0  0  0
 41112  1  0  0  0
 41113  1  0  0  0
 41 48  1  0  0  0
 42 43  1  0  0  0
 42 66  1  0  0  0
 42114  1  0  0  0
 42115  1  0  0  0
 43 44  1  0  0  0
 44116  1  0  0  0
 45 46  2  0  0  0
 45117  1  0  0  0
 46118  1  0  0  0
 47119  1  0  0  0
 47120  1  0  0  0
 48 56  1  0  0  0
 48 65  1  0  0  0
 48121  1  0  0  0
 49 50  1  0  0  0
 49 53  1  0  0  0
 49 64  1  0  0  0
 49122  1  0  0  0
 50 51  1  0  0  0
 50123  1  0  0  0
 50124  1  0  0  0
 51 52  1  0  0  0
 51125  1  0  0  0
 51126  1  0  0  0
 52127  1  0  0  0
 52128  1  0  0  0
 53 54  1  0  0  0
 54 55  2  0  0  0
 54129  1  0  0  0
 55 57  1  0  0  0
 55130  1  0  0  0
 56 69  2  0  0  0
 57 58  2  0  0  0
 57131  1  0  0  0
 58132  1  0  0  0
 59 60  1  0  0  0
 59 61  1  0  0  0
 59 62  1  0  0  0
 60133  1  0  0  0
 60134  1  0  0  0
 60135  1  0  0  0
 61136  1  0  0  0
 61137  1  0  0  0
 61138  1  0  0  0
 62139  1  0  0  0
 62140  1  0  0  0
 62141  1  0  0  0
 63 65  1  0  0  0
 63142  1  0  0  0
 63143  1  0  0  0
 63144  1  0  0  0
 64145  1  0  0  0
 65146  1  0  0  0
 68 84  1  0  0  0
 71 72  2  0  0  0
 71 73  1  0  0  0
 71147  1  0  0  0
 72 75  1  0  0  0
 72148  1  0  0  0
 73 76  2  0  0  0
 73149  1  0  0  0
 74 75  2  0  0  0
 74 76  1  0  0  0
 74150  1  0  0  0
 75 86  1  0  0  0
 76 87  1  0  0  0
 77 79  1  0  0  0
 77 81  1  0  0  0
 77151  1  0  0  0
 77152  1  0  0  0
 78 80  1  0  0  0
 78 81  1  0  0  0
 78153  1  0  0  0
 78154  1  0  0  0
 79 86  1  0  0  0
 79155  1  0  0  0
 79156  1  0  0  0
 80 86  1  0  0  0
 80157  1  0  0  0
 80158  1  0  0  0
 81 82  1  0  0  0
 81 84  1  0  0  0
 82159  1  0  0  0
 82160  1  0  0  0
 82161  1  0  0  0
 83 85  1  0  0  0
 83162  1  0  0  0
 83163  1  0  0  0
 84164  1  0  0  0
 84165  1  0  0  0
 85 87  1  0  0  0
 85166  1  0  0  0
 85167  1  0  0  0
M  ISO  4   1 100  68 101  83 100  84 101
M  END
> <chiral flag>
0

> <version>
0

> <s_m_source_file>
/data/baiqing/PycharmProjects/Reinvent-master-3.2/result/LINK_invent/BTK/process_docking_weight1_custom_product_contain_oxygen_bond_distance_aromatic_linkinvent_7_9_3/rearranged_h_0104.sdf

> <i_m_source_file_index>
61

> <r_mmod_Potential_Energy-OPLS-2005>
16419.755859375

> <r_mmod_Stretch_Energy-OPLS-2005>
9395.5302734375

> <r_mmod_Bend_Energy-OPLS-2005>
1174.62341308594

> <r_mmod_Torsional_Energy-OPLS-2005>
581.680847167969

> <r_mmod_Improper_Torsional_Energy-OPLS-2005>
59.9764213562012

> <r_mmod_Van_der_Waal_Energy-OPLS-2005>
4056.93579101562

> <r_mmod_Electrostatic_Energy-OPLS-2005>
-326.588653564453

> <r_mmod_Solvation_Energy-OPLS-2005>
-206.211395263672

> <b_mmod_Minimization_Converged-OPLS-2005>
0

> <r_mmod_RMS_Derivative-OPLS-2005>
1.60253798961639

$$$$
62
                    3D
 Structure written by MMmdl.
161170  0  0  1  0            999 V2000
  -30.6120  -14.6451   20.5034 C   0  0  0  0  0  0
  -30.4437  -12.3956   19.4522 C   0  0  0  0  0  0
  -29.5106  -12.5060   18.2251 C   0  0  0  0  0  0
  -28.0332  -12.3406   18.6365 C   0  0  0  0  0  0
  -27.6545  -13.2126   19.8630 C   0  0  2  0  0  0
  -28.6991  -13.0629   20.9927 C   0  0  0  0  0  0
  -25.2565  -13.8160   20.5675 C   0  0  0  0  0  0
  -24.1830  -13.0437   20.9198 C   0  0  0  0  0  0
  -24.6388  -11.6906   20.8742 C   0  0  0  0  0  0
  -23.9056  -10.4293   21.0407 C   0  0  0  0  0  0
  -24.3607   -9.4208   21.9183 C   0  0  0  0  0  0
  -23.6284   -8.2244   22.0754 C   0  0  0  0  0  0
  -22.4265   -8.0282   21.3548 C   0  0  0  0  0  0
  -21.9900   -9.0257   20.4649 C   0  0  0  0  0  0
  -22.7229  -10.2135   20.3056 C   0  0  0  0  0  0
  -21.6854   -6.0730   22.5276 C   0  0  0  0  0  0
  -21.4015   -6.5633   23.8209 C   0  0  0  0  0  0
  -21.3660   -5.6788   24.9174 C   0  0  0  0  0  0
  -21.6042   -4.3051   24.7225 C   0  0  0  0  0  0
  -21.8819   -3.8142   23.4346 C   0  0  0  0  0  0
  -21.9193   -4.6958   22.3400 C   0  0  0  0  0  0
  -22.7851  -13.5239   21.1858 C   0  0  0  0  0  0
  -22.1660   -4.2143   21.0978 F   0  0  0  0  0  0
  -21.5630   -3.4535   25.7738 F   0  0  0  0  0  0
  -30.0157  -13.4125   20.4326 N   0  0  0  0  0  0
  -26.2989  -12.9329   20.3305 N   0  0  0  0  0  0
  -25.9314  -11.6491   20.5750 N   0  0  0  0  0  0
  -22.0486  -12.8240   22.0415 N   0  0  0  0  0  0
  -25.4280  -15.1876   20.4043 N   0  0  0  0  0  0
  -31.7733  -14.8201   20.1211 O   0  0  0  0  0  0
  -21.6638   -6.8873   21.4239 O   0  0  0  0  0  0
  -22.3542  -14.5547   20.6704 O   0  0  0  0  0  0
  -24.6262  -31.8605   23.2037 C   0  0  0  0  0  0
  -25.9112  -32.4783   23.8361 C   0  0  1  0  0  0
  -27.2217  -27.3196   20.1098 C   0  0  0  0  0  0
  -25.5924  -33.8581   24.2285 N   0  0  0  0  0  0
  -23.4195  -30.4870   21.5464 C   0  0  2  0  0  0
  -24.8649  -28.9466   20.1099 C   0  0  0  0  0  0
  -22.7474  -29.4632   22.4927 C   0  0  0  0  0  0
  -18.0286  -28.1390   22.8483 C   0  0  0  0  0  0
  -24.1489  -36.7297   23.2638 C   0  0  0  0  0  0
  -25.9624  -30.7912   21.3762 C   0  0  0  0  0  0
  -26.0354  -29.4200   20.7158 C   0  0  0  0  0  0
  -27.2161  -28.6184   20.7073 C   0  0  0  0  0  0
  -26.0252  -26.9057   19.4753 C   0  0  0  0  0  0
  -24.8617  -27.6943   19.4815 C   0  0  0  0  0  0
  -23.6342  -29.8273   20.1601 C   0  0  0  0  0  0
  -25.4113  -36.3085   24.0327 C   0  0  1  0  0  0
  -20.5887  -28.3694   23.1276 C   0  0  2  0  0  0
  -20.6777  -26.9416   22.5407 C   0  0  0  0  0  0
  -19.5755  -26.6388   21.5207 C   0  0  0  0  0  0
  -18.1934  -26.7933   22.1619 C   0  0  0  0  0  0
  -19.1539  -28.8858   23.2878 C   0  0  0  0  0  0
  -18.9463  -30.1459   23.8899 C   0  0  0  0  0  0
  -17.6463  -30.6589   24.0566 C   0  0  0  0  0  0
  -25.9050  -34.9454   23.5108 C   0  0  0  0  0  0
  -16.5354  -29.9091   23.6329 C   0  0  0  0  0  0
  -16.7272  -28.6508   23.0349 C   0  0  0  0  0  0
  -26.4496  -31.6588   25.0730 C   0  0  0  0  0  0
  -25.3730  -31.3728   26.1457 C   0  0  0  0  0  0
  -27.0339  -30.3010   24.6188 C   0  0  0  0  0  0
  -27.6061  -32.4320   25.7497 C   0  0  0  0  0  0
  -27.5579  -37.1804   24.8464 C   0  0  0  0  0  0
  -21.4188  -29.3047   22.3669 N   0  0  0  0  0  0
  -26.4292  -37.3778   23.9405 N   0  0  0  0  0  0
  -24.6883  -31.0625   22.0988 N   0  0  0  0  0  0
  -23.4200  -28.8163   23.2997 O   0  0  0  0  0  0
  -28.3352  -26.4606   20.1669 O   0  0  0  0  0  0
  -26.5621  -34.8918   22.4675 O   0  0  0  0  0  0
  -23.5426  -32.1401   23.7365 O   0  0  0  0  0  0
  -28.6423  -17.8712   20.9781 C   0  0  0  0  0  0
  -30.9750  -17.9094   20.4032 C   0  0  0  0  0  0
  -28.5712  -19.2970   20.9099 C   0  0  0  0  0  0
  -29.7188  -20.0773   20.5847 C   0  0  0  0  0  0
  -29.8325  -17.1334   20.7353 C   0  0  0  0  0  0
  -30.9159  -19.3376   20.3323 C   0  0  0  0  0  0
  -29.3651  -23.6052   21.7769 C   0  0  0  0  0  0
  -30.0178  -22.2002   21.8564 C   0  0  0  0  0  0
  -28.9269  -22.4394   19.7684 C   0  0  0  0  0  0
  -29.1880  -23.9079   20.2820 C   0  0  1  0  0  0
  -27.2386  -19.9580   21.2224 C   0  0  0  0  0  0
  -28.1041  -25.0169   19.9177 C   0  0  0  0  0  0
  -29.7540  -21.5221   20.5887 N   0  0  0  0  0  0
  -32.0706  -20.0547   20.0178 N   0  0  0  0  0  0
  -29.7794  -15.6731   20.8627 N   0  0  0  0  0  0
  -31.4842  -12.5276   19.1505 H   0  0  0  0  0  0
  -30.3857  -11.3992   19.8928 H   0  0  0  0  0  0
  -29.7767  -11.7539   17.4808 H   0  0  0  0  0  0
  -29.6501  -13.4747   17.7427 H   0  0  0  0  0  0
  -27.8730  -11.2877   18.8718 H   0  0  0  0  0  0
  -27.3785  -12.5669   17.7942 H   0  0  0  0  0  0
  -27.6738  -14.2473   19.5205 H   0  0  0  0  0  0
  -28.7120  -12.0381   21.3662 H   0  0  0  0  0  0
  -28.4412  -13.6856   21.8508 H   0  0  0  0  0  0
  -25.2751   -9.5683   22.4759 H   0  0  0  0  0  0
  -23.9995   -7.4631   22.7471 H   0  0  0  0  0  0
  -21.0831   -8.8773   19.8954 H   0  0  0  0  0  0
  -22.3686  -10.9672   19.6166 H   0  0  0  0  0  0
  -21.2008   -7.6140   23.9711 H   0  0  0  0  0  0
  -21.1481   -6.0518   25.9076 H   0  0  0  0  0  0
  -22.0598   -2.7606   23.2849 H   0  0  0  0  0  0
  -22.4087  -11.9902   22.4814 H   0  0  0  0  0  0
  -21.1106  -13.1276   22.2614 H   0  0  0  0  0  0
  -24.6535  -15.8361   20.4925 H   0  0  0  0  0  0
  -26.2565  -15.6154   20.0118 H   0  0  0  0  0  0
  -26.7179  -32.5453   23.1109 H   0  0  0  0  0  0
  -25.0067  -33.9729   25.0426 H   0  0  0  0  0  0
  -22.7132  -31.3078   21.4059 H   0  0  0  0  0  0
  -23.3747  -35.9635   23.3307 H   0  0  0  0  0  0
  -24.3582  -36.8911   22.2052 H   0  0  0  0  0  0
  -23.7253  -37.6504   23.6658 H   0  0  0  0  0  0
  -26.0969  -31.5552   20.6093 H   0  0  0  0  0  0
  -26.8420  -30.8367   22.0066 H   0  0  0  0  0  0
  -28.1131  -28.9765   21.1930 H   0  0  0  0  0  0
  -25.9496  -25.9536   18.9730 H   0  0  0  0  0  0
  -23.9657  -27.3277   18.9996 H   0  0  0  0  0  0
  -23.7555  -30.6067   19.4067 H   0  0  0  0  0  0
  -22.7532  -29.2601   19.8546 H   0  0  0  0  0  0
  -25.1293  -36.1940   25.0820 H   0  0  0  0  0  0
  -20.9982  -28.3274   24.1394 H   0  0  0  0  0  0
  -20.5676  -26.2302   23.3607 H   0  0  0  0  0  0
  -21.6648  -26.7447   22.1203 H   0  0  0  0  0  0
  -19.6917  -25.6299   21.1238 H   0  0  0  0  0  0
  -19.6694  -27.3195   20.6735 H   0  0  0  0  0  0
  -17.4201  -26.6674   21.4025 H   0  0  0  0  0  0
  -18.0337  -26.0077   22.9017 H   0  0  0  0  0  0
  -19.7940  -30.7273   24.2269 H   0  0  0  0  0  0
  -17.5020  -31.6268   24.5170 H   0  0  0  0  0  0
  -15.5357  -30.2995   23.7655 H   0  0  0  0  0  0
  -15.8670  -28.0830   22.7064 H   0  0  0  0  0  0
  -24.5902  -30.7079   25.7786 H   0  0  0  0  0  0
  -24.8924  -32.2895   26.4885 H   0  0  0  0  0  0
  -25.8052  -30.8904   27.0232 H   0  0  0  0  0  0
  -26.2914  -29.6758   24.1217 H   0  0  0  0  0  0
  -27.4036  -29.7271   25.4696 H   0  0  0  0  0  0
  -27.8784  -30.4291   23.9413 H   0  0  0  0  0  0
  -27.2677  -33.3617   26.2084 H   0  0  0  0  0  0
  -28.3867  -32.6883   25.0322 H   0  0  0  0  0  0
  -28.0735  -31.8439   26.5406 H   0  0  0  0  0  0
  -28.2602  -38.0094   24.7502 H   0  0  0  0  0  0
  -28.1069  -36.2626   24.6301 H   0  0  0  0  0  0
  -27.2298  -37.1471   25.8867 H   0  0  0  0  0  0
  -20.9357  -29.8778   21.6892 H   0  0  0  0  0  0
  -26.0174  -38.2853   24.1401 H   0  0  0  0  0  0
  -27.7440  -17.3280   21.2381 H   0  0  0  0  0  0
  -31.9133  -17.4106   20.2076 H   0  0  0  0  0  0
  -29.9510  -24.3678   22.2912 H   0  0  0  0  0  0
  -28.3873  -23.5713   22.2596 H   0  0  0  0  0  0
  -29.6352  -21.6346   22.7085 H   0  0  0  0  0  0
  -31.0969  -22.2943   21.9874 H   0  0  0  0  0  0
  -29.1797  -22.3438   18.7115 H   0  0  0  0  0  0
  -27.8714  -22.1913   19.8704 H   0  0  0  0  0  0
  -30.1495  -24.2297   19.8795 H   0  0  0  0  0  0
  -26.5730  -19.2804   21.7572 H   0  0  0  0  0  0
  -26.7407  -20.2534   20.2991 H   0  0  0  0  0  0
  -27.3713  -20.8425   21.8453 H   0  0  0  0  0  0
  -27.1843  -24.7201   20.4245 H   0  0  0  0  0  0
  -27.9111  -24.9159   18.8488 H   0  0  0  0  0  0
  -32.9443  -19.6991   20.3895 H   0  0  0  0  0  0
  -31.9464  -21.0482   20.1977 H   0  0  0  0  0  0
  -28.8828  -15.3233   21.1638 H   0  0  0  0  0  0
  1 25  1  0  0  0
  1 30  2  0  0  0
  1 85  1  0  0  0
  2  3  1  0  0  0
  2 25  1  0  0  0
  2 86  1  0  0  0
  2 87  1  0  0  0
  3  4  1  0  0  0
  3 88  1  0  0  0
  3 89  1  0  0  0
  4  5  1  0  0  0
  4 90  1  0  0  0
  4 91  1  0  0  0
  5  6  1  0  0  0
  5 26  1  0  0  0
  5 92  1  0  0  0
  6 25  1  0  0  0
  6 93  1  0  0  0
  6 94  1  0  0  0
  7  8  2  0  0  0
  7 26  1  0  0  0
  7 29  1  0  0  0
  8  9  1  0  0  0
  8 22  1  0  0  0
  9 10  1  0  0  0
  9 27  2  0  0  0
 10 11  2  0  0  0
 10 15  1  0  0  0
 11 12  1  0  0  0
 11 95  1  0  0  0
 12 13  2  0  0  0
 12 96  1  0  0  0
 13 14  1  0  0  0
 13 31  1  0  0  0
 14 15  2  0  0  0
 14 97  1  0  0  0
 15 98  1  0  0  0
 16 17  2  0  0  0
 16 21  1  0  0  0
 16 31  1  0  0  0
 17 18  1  0  0  0
 17 99  1  0  0  0
 18 19  2  0  0  0
 18100  1  0  0  0
 19 20  1  0  0  0
 19 24  1  0  0  0
 20 21  2  0  0  0
 20101  1  0  0  0
 21 23  1  0  0  0
 22 28  1  0  0  0
 22 32  2  0  0  0
 26 27  1  0  0  0
 28102  1  0  0  0
 28103  1  0  0  0
 29104  1  0  0  0
 29105  1  0  0  0
 33 34  1  0  0  0
 33 66  1  0  0  0
 33 70  2  0  0  0
 34 36  1  0  0  0
 34 59  1  0  0  0
 34106  1  0  0  0
 35 44  2  0  0  0
 35 45  1  0  0  0
 35 68  1  0  0  0
 36 56  1  0  0  0
 36107  1  0  0  0
 37 39  1  0  0  0
 37 47  1  0  0  0
 37 66  1  0  0  0
 37108  1  0  0  0
 38 43  2  0  0  0
 38 46  1  0  0  0
 38 47  1  0  0  0
 39 64  1  0  0  0
 39 67  2  0  0  0
 40 52  1  0  0  0
 40 53  2  0  0  0
 40 58  1  0  0  0
 41109  1  0  0  0
 41110  1  0  0  0
 41111  1  0  0  0
 41 48  1  0  0  0
 42 43  1  0  0  0
 42 66  1  0  0  0
 42112  1  0  0  0
 42113  1  0  0  0
 43 44  1  0  0  0
 44114  1  0  0  0
 45 46  2  0  0  0
 45115  1  0  0  0
 46116  1  0  0  0
 47117  1  0  0  0
 47118  1  0  0  0
 48 56  1  0  0  0
 48 65  1  0  0  0
 48119  1  0  0  0
 49 50  1  0  0  0
 49 53  1  0  0  0
 49 64  1  0  0  0
 49120  1  0  0  0
 50 51  1  0  0  0
 50121  1  0  0  0
 50122  1  0  0  0
 51 52  1  0  0  0
 51123  1  0  0  0
 51124  1  0  0  0
 52125  1  0  0  0
 52126  1  0  0  0
 53 54  1  0  0  0
 54 55  2  0  0  0
 54127  1  0  0  0
 55 57  1  0  0  0
 55128  1  0  0  0
 56 69  2  0  0  0
 57 58  2  0  0  0
 57129  1  0  0  0
 58130  1  0  0  0
 59 60  1  0  0  0
 59 61  1  0  0  0
 59 62  1  0  0  0
 60131  1  0  0  0
 60132  1  0  0  0
 60133  1  0  0  0
 61134  1  0  0  0
 61135  1  0  0  0
 61136  1  0  0  0
 62137  1  0  0  0
 62138  1  0  0  0
 62139  1  0  0  0
 63 65  1  0  0  0
 63140  1  0  0  0
 63141  1  0  0  0
 63142  1  0  0  0
 64143  1  0  0  0
 65144  1  0  0  0
 68 82  1  0  0  0
 71 73  2  0  0  0
 71 75  1  0  0  0
 71145  1  0  0  0
 72 75  2  0  0  0
 72 76  1  0  0  0
 72146  1  0  0  0
 73 74  1  0  0  0
 73 81  1  0  0  0
 74 76  2  0  0  0
 74 83  1  0  0  0
 75 85  1  0  0  0
 76 84  1  0  0  0
 77 78  1  0  0  0
 77 80  1  0  0  0
 77147  1  0  0  0
 77148  1  0  0  0
 78 83  1  0  0  0
 78149  1  0  0  0
 78150  1  0  0  0
 79 80  1  0  0  0
 79 83  1  0  0  0
 79151  1  0  0  0
 79152  1  0  0  0
 80 82  1  0  0  0
 80153  1  0  0  0
 81154  1  0  0  0
 81155  1  0  0  0
 81156  1  0  0  0
 82157  1  0  0  0
 82158  1  0  0  0
 84159  1  0  0  0
 84160  1  0  0  0
 85161  1  0  0  0
M  ISO  4   1 100  68 101  82 101  85 100
M  END
> <chiral flag>
0

> <version>
0

> <s_m_source_file>
/data/baiqing/PycharmProjects/Reinvent-master-3.2/result/LINK_invent/BTK/process_docking_weight1_custom_product_contain_oxygen_bond_distance_aromatic_linkinvent_7_9_3/rearranged_h_0104.sdf

> <i_m_source_file_index>
62

> <r_mmod_Potential_Energy-OPLS-2005>
128.812850952148

> <r_mmod_Stretch_Energy-OPLS-2005>
77.9679489135742

> <r_mmod_Bend_Energy-OPLS-2005>
180.554397583008

> <r_mmod_Torsional_Energy-OPLS-2005>
295.918487548828

> <r_mmod_Improper_Torsional_Energy-OPLS-2005>
12.0824670791626

> <r_mmod_Van_der_Waal_Energy-OPLS-2005>
145.215530395508

> <r_mmod_Electrostatic_Energy-OPLS-2005>
-407.599822998047

> <r_mmod_Solvation_Energy-OPLS-2005>
-225.704254150391

> <b_mmod_Minimization_Converged-OPLS-2005>
0

> <r_mmod_RMS_Derivative-OPLS-2005>
0.700770616531372

$$$$
63
                    3D
 Structure written by MMmdl.
160169  0  0  1  0            999 V2000
  -30.6014  -14.7377   20.4333 C   0  0  0  0  0  0
  -30.4267  -12.4397   19.4806 C   0  0  0  0  0  0
  -29.5123  -12.5078   18.2375 C   0  0  0  0  0  0
  -28.0348  -12.3407   18.6433 C   0  0  0  0  0  0
  -27.6415  -13.2333   19.8510 C   0  0  2  0  0  0
  -28.6839  -13.1610   20.9885 C   0  0  0  0  0  0
  -25.2508  -13.8215   20.5690 C   0  0  0  0  0  0
  -24.1801  -13.0449   20.9194 C   0  0  0  0  0  0
  -24.6392  -11.6930   20.8728 C   0  0  0  0  0  0
  -23.9065  -10.4302   21.0403 C   0  0  0  0  0  0
  -24.3624   -9.4227   21.9192 C   0  0  0  0  0  0
  -23.6311   -8.2253   22.0764 C   0  0  0  0  0  0
  -22.4287   -8.0281   21.3548 C   0  0  0  0  0  0
  -21.9912   -9.0256   20.4650 C   0  0  0  0  0  0
  -22.7231  -10.2146   20.3063 C   0  0  0  0  0  0
  -21.6861   -6.0735   22.5277 C   0  0  0  0  0  0
  -21.4011   -6.5637   23.8206 C   0  0  0  0  0  0
  -21.3663   -5.6788   24.9175 C   0  0  0  0  0  0
  -21.6053   -4.3054   24.7222 C   0  0  0  0  0  0
  -21.8823   -3.8143   23.4336 C   0  0  0  0  0  0
  -21.9196   -4.6957   22.3396 C   0  0  0  0  0  0
  -22.7826  -13.5227   21.1863 C   0  0  0  0  0  0
  -22.1672   -4.2146   21.0977 F   0  0  0  0  0  0
  -21.5637   -3.4539   25.7736 F   0  0  0  0  0  0
  -29.9861  -13.5067   20.4092 N   0  0  0  0  0  0
  -26.2930  -12.9414   20.3272 N   0  0  0  0  0  0
  -25.9319  -11.6558   20.5732 N   0  0  0  0  0  0
  -22.0475  -12.8208   22.0417 N   0  0  0  0  0  0
  -25.4196  -15.1939   20.4121 N   0  0  0  0  0  0
  -31.7970  -14.8149   20.1351 O   0  0  0  0  0  0
  -21.6651   -6.8878   21.4240 O   0  0  0  0  0  0
  -22.3508  -14.5541   20.6727 O   0  0  0  0  0  0
  -24.6306  -31.8559   23.1981 C   0  0  0  0  0  0
  -25.9138  -32.4753   23.8328 C   0  0  1  0  0  0
  -27.2135  -27.2770   20.1398 C   0  0  0  0  0  0
  -25.5931  -33.8552   24.2252 N   0  0  0  0  0  0
  -23.4247  -30.4798   21.5406 C   0  0  2  0  0  0
  -24.8714  -28.9226   20.1156 C   0  0  0  0  0  0
  -22.7486  -29.4619   22.4902 C   0  0  0  0  0  0
  -18.0303  -28.1390   22.8497 C   0  0  0  0  0  0
  -24.1490  -36.7290   23.2635 C   0  0  0  0  0  0
  -25.9672  -30.7778   21.3705 C   0  0  0  0  0  0
  -26.0419  -29.3974   20.7211 C   0  0  0  0  0  0
  -27.2198  -28.5879   20.7195 C   0  0  0  0  0  0
  -26.0239  -26.8577   19.5111 C   0  0  0  0  0  0
  -24.8654  -27.6599   19.4999 C   0  0  0  0  0  0
  -23.6438  -29.8114   20.1575 C   0  0  0  0  0  0
  -25.4106  -36.3064   24.0327 C   0  0  1  0  0  0
  -20.5902  -28.3706   23.1269 C   0  0  2  0  0  0
  -20.6789  -26.9420   22.5410 C   0  0  0  0  0  0
  -19.5761  -26.6388   21.5215 C   0  0  0  0  0  0
  -18.1944  -26.7938   22.1629 C   0  0  0  0  0  0
  -19.1552  -28.8862   23.2889 C   0  0  0  0  0  0
  -18.9465  -30.1460   23.8920 C   0  0  0  0  0  0
  -17.6463  -30.6595   24.0561 C   0  0  0  0  0  0
  -25.9047  -34.9436   23.5087 C   0  0  0  0  0  0
  -16.5358  -29.9092   23.6317 C   0  0  0  0  0  0
  -16.7287  -28.6502   23.0357 C   0  0  0  0  0  0
  -26.4513  -31.6566   25.0705 C   0  0  0  0  0  0
  -25.3729  -31.3725   26.1415 C   0  0  0  0  0  0
  -27.0352  -30.2988   24.6162 C   0  0  0  0  0  0
  -27.6074  -32.4286   25.7502 C   0  0  0  0  0  0
  -27.5574  -37.1795   24.8461 C   0  0  0  0  0  0
  -21.4195  -29.3062   22.3659 N   0  0  0  0  0  0
  -26.4280  -37.3758   23.9415 N   0  0  0  0  0  0
  -24.6935  -31.0547   22.0946 N   0  0  0  0  0  0
  -23.4196  -28.8149   23.2984 O   0  0  0  0  0  0
  -28.3145  -26.4018   20.1381 O   0  0  0  0  0  0
  -26.5614  -34.8918   22.4656 O   0  0  0  0  0  0
  -23.5458  -32.1377   23.7282 O   0  0  0  0  0  0
  -31.1539  -18.8840   18.6751 C   0  0  0  0  0  0
  -30.3448  -19.9554   19.0961 C   0  0  0  0  0  0
  -30.9933  -17.5859   19.2006 C   0  0  0  0  0  0
  -29.2012  -18.4223   20.6045 C   0  0  0  0  0  0
  -29.3547  -19.7782   20.0811 C   0  0  0  0  0  0
  -30.0135  -17.2869   20.1783 C   0  0  0  0  0  0
  -31.0095  -23.5541   20.3161 C   0  0  0  0  0  0
  -29.9755  -23.9075   19.2443 C   0  0  0  0  0  0
  -30.3311  -22.5103   21.2190 C   0  0  0  0  0  0
  -28.6284  -23.6779   19.9361 C   0  0  2  0  0  0
  -28.4055  -21.0243   20.4022 C   0  0  0  0  0  0
  -28.1582  -25.0249   20.7146 C   0  0  0  0  0  0
  -29.8193  -15.8754   20.6252 N   0  0  0  0  0  0
  -28.9080  -22.4326   20.8052 N   0  3  1  0  0  0
  -31.4717  -12.5495   19.1874 H   0  0  0  0  0  0
  -30.3519  -11.4614   19.9595 H   0  0  0  0  0  0
  -29.7926  -11.7369   17.5182 H   0  0  0  0  0  0
  -29.6498  -13.4641   17.7297 H   0  0  0  0  0  0
  -27.8825  -11.2907   18.8951 H   0  0  0  0  0  0
  -27.3847  -12.5491   17.7920 H   0  0  0  0  0  0
  -27.6348  -14.2567   19.4753 H   0  0  0  0  0  0
  -28.7153  -12.1612   21.4249 H   0  0  0  0  0  0
  -28.4226  -13.8412   21.8012 H   0  0  0  0  0  0
  -25.2783   -9.5713   22.4753 H   0  0  0  0  0  0
  -24.0035   -7.4645   22.7477 H   0  0  0  0  0  0
  -21.0842   -8.8758   19.8948 H   0  0  0  0  0  0
  -22.3684  -10.9683   19.6165 H   0  0  0  0  0  0
  -21.1999   -7.6146   23.9703 H   0  0  0  0  0  0
  -21.1490   -6.0528   25.9078 H   0  0  0  0  0  0
  -22.0598   -2.7601   23.2839 H   0  0  0  0  0  0
  -22.4103  -11.9872   22.4803 H   0  0  0  0  0  0
  -21.1091  -13.1233   22.2620 H   0  0  0  0  0  0
  -24.6498  -15.8454   20.5200 H   0  0  0  0  0  0
  -26.2635  -15.6347   20.0694 H   0  0  0  0  0  0
  -26.7206  -32.5423   23.1073 H   0  0  0  0  0  0
  -25.0081  -33.9688   25.0403 H   0  0  0  0  0  0
  -22.7221  -31.3028   21.3923 H   0  0  0  0  0  0
  -23.3747  -35.9627   23.3278 H   0  0  0  0  0  0
  -24.3584  -36.8933   22.2054 H   0  0  0  0  0  0
  -23.7255  -37.6491   23.6674 H   0  0  0  0  0  0
  -26.0887  -31.5327   20.5925 H   0  0  0  0  0  0
  -26.8515  -30.8387   21.9934 H   0  0  0  0  0  0
  -28.1186  -28.9489   21.2005 H   0  0  0  0  0  0
  -25.9842  -25.8909   19.0307 H   0  0  0  0  0  0
  -23.9674  -27.2919   19.0221 H   0  0  0  0  0  0
  -23.7735  -30.5874   19.4023 H   0  0  0  0  0  0
  -22.7636  -29.2468   19.8468 H   0  0  0  0  0  0
  -25.1285  -36.1898   25.0818 H   0  0  0  0  0  0
  -21.0007  -28.3286   24.1380 H   0  0  0  0  0  0
  -20.5688  -26.2314   23.3616 H   0  0  0  0  0  0
  -21.6654  -26.7444   22.1191 H   0  0  0  0  0  0
  -19.6914  -25.6290   21.1262 H   0  0  0  0  0  0
  -19.6701  -27.3192   20.6738 H   0  0  0  0  0  0
  -17.4208  -26.6703   21.4034 H   0  0  0  0  0  0
  -18.0338  -26.0077   22.9021 H   0  0  0  0  0  0
  -19.7934  -30.7275   24.2311 H   0  0  0  0  0  0
  -17.5009  -31.6280   24.5150 H   0  0  0  0  0  0
  -15.5357  -30.2999   23.7614 H   0  0  0  0  0  0
  -15.8695  -28.0814   22.7068 H   0  0  0  0  0  0
  -24.5914  -30.7063   25.7738 H   0  0  0  0  0  0
  -24.8908  -32.2902   26.4794 H   0  0  0  0  0  0
  -25.8022  -30.8930   27.0219 H   0  0  0  0  0  0
  -26.2928  -29.6742   24.1173 H   0  0  0  0  0  0
  -27.4047  -29.7234   25.4663 H   0  0  0  0  0  0
  -27.8801  -30.4282   23.9391 H   0  0  0  0  0  0
  -27.2689  -33.3585   26.2085 H   0  0  0  0  0  0
  -28.3904  -32.6829   25.0346 H   0  0  0  0  0  0
  -28.0719  -31.8393   26.5419 H   0  0  0  0  0  0
  -28.2562  -38.0116   24.7493 H   0  0  0  0  0  0
  -28.1092  -36.2635   24.6284 H   0  0  0  0  0  0
  -27.2295  -37.1443   25.8866 H   0  0  0  0  0  0
  -20.9369  -29.8795   21.6883 H   0  0  0  0  0  0
  -26.0152  -38.2830   24.1418 H   0  0  0  0  0  0
  -31.8971  -19.0527   17.9087 H   0  0  0  0  0  0
  -30.4783  -20.9239   18.6350 H   0  0  0  0  0  0
  -31.6316  -16.8160   18.7934 H   0  0  0  0  0  0
  -28.4140  -18.2428   21.3223 H   0  0  0  0  0  0
  -31.2602  -24.4395   20.9029 H   0  0  0  0  0  0
  -31.9354  -23.1809   19.8775 H   0  0  0  0  0  0
  -30.0720  -23.2186   18.4035 H   0  0  0  0  0  0
  -30.1005  -24.9158   18.8473 H   0  0  0  0  0  0
  -30.3724  -22.8394   22.2579 H   0  0  0  0  0  0
  -30.8541  -21.5566   21.1878 H   0  0  0  0  0  0
  -27.8667  -23.4529   19.1885 H   0  0  0  0  0  0
  -27.7680  -20.7054   21.2270 H   0  0  0  0  0  0
  -27.7188  -21.1333   19.5625 H   0  0  0  0  0  0
  -28.7325  -25.0679   21.6409 H   0  0  0  0  0  0
  -27.1301  -24.8804   21.0460 H   0  0  0  0  0  0
  -28.9060  -15.6717   21.0005 H   0  0  0  0  0  0
  -28.3844  -22.5877   21.6542 H   0  0  0  0  0  0
  1 25  1  0  0  0
  1 30  2  0  0  0
  1 83  1  0  0  0
  2  3  1  0  0  0
  2 25  1  0  0  0
  2 85  1  0  0  0
  2 86  1  0  0  0
  3  4  1  0  0  0
  3 87  1  0  0  0
  3 88  1  0  0  0
  4  5  1  0  0  0
  4 89  1  0  0  0
  4 90  1  0  0  0
  5  6  1  0  0  0
  5 26  1  0  0  0
  5 91  1  0  0  0
  6 25  1  0  0  0
  6 92  1  0  0  0
  6 93  1  0  0  0
  7  8  2  0  0  0
  7 26  1  0  0  0
  7 29  1  0  0  0
  8  9  1  0  0  0
  8 22  1  0  0  0
  9 10  1  0  0  0
  9 27  2  0  0  0
 10 11  2  0  0  0
 10 15  1  0  0  0
 11 12  1  0  0  0
 11 94  1  0  0  0
 12 13  2  0  0  0
 12 95  1  0  0  0
 13 14  1  0  0  0
 13 31  1  0  0  0
 14 15  2  0  0  0
 14 96  1  0  0  0
 15 97  1  0  0  0
 16 17  2  0  0  0
 16 21  1  0  0  0
 16 31  1  0  0  0
 17 18  1  0  0  0
 17 98  1  0  0  0
 18 19  2  0  0  0
 18 99  1  0  0  0
 19 20  1  0  0  0
 19 24  1  0  0  0
 20 21  2  0  0  0
 20100  1  0  0  0
 21 23  1  0  0  0
 22 28  1  0  0  0
 22 32  2  0  0  0
 26 27  1  0  0  0
 28101  1  0  0  0
 28102  1  0  0  0
 29103  1  0  0  0
 29104  1  0  0  0
 33 34  1  0  0  0
 33 66  1  0  0  0
 33 70  2  0  0  0
 34 36  1  0  0  0
 34 59  1  0  0  0
 34105  1  0  0  0
 35 44  2  0  0  0
 35 45  1  0  0  0
 35 68  1  0  0  0
 36 56  1  0  0  0
 36106  1  0  0  0
 37 39  1  0  0  0
 37 47  1  0  0  0
 37 66  1  0  0  0
 37107  1  0  0  0
 38 43  2  0  0  0
 38 46  1  0  0  0
 38 47  1  0  0  0
 39 64  1  0  0  0
 39 67  2  0  0  0
 40 52  1  0  0  0
 40 53  2  0  0  0
 40 58  1  0  0  0
 41108  1  0  0  0
 41109  1  0  0  0
 41110  1  0  0  0
 41 48  1  0  0  0
 42 43  1  0  0  0
 42 66  1  0  0  0
 42111  1  0  0  0
 42112  1  0  0  0
 43 44  1  0  0  0
 44113  1  0  0  0
 45 46  2  0  0  0
 45114  1  0  0  0
 46115  1  0  0  0
 47116  1  0  0  0
 47117  1  0  0  0
 48 56  1  0  0  0
 48 65  1  0  0  0
 48118  1  0  0  0
 49 50  1  0  0  0
 49 53  1  0  0  0
 49 64  1  0  0  0
 49119  1  0  0  0
 50 51  1  0  0  0
 50120  1  0  0  0
 50121  1  0  0  0
 51 52  1  0  0  0
 51122  1  0  0  0
 51123  1  0  0  0
 52124  1  0  0  0
 52125  1  0  0  0
 53 54  1  0  0  0
 54 55  2  0  0  0
 54126  1  0  0  0
 55 57  1  0  0  0
 55127  1  0  0  0
 56 69  2  0  0  0
 57 58  2  0  0  0
 57128  1  0  0  0
 58129  1  0  0  0
 59 60  1  0  0  0
 59 61  1  0  0  0
 59 62  1  0  0  0
 60130  1  0  0  0
 60131  1  0  0  0
 60132  1  0  0  0
 61133  1  0  0  0
 61134  1  0  0  0
 61135  1  0  0  0
 62136  1  0  0  0
 62137  1  0  0  0
 62138  1  0  0  0
 63 65  1  0  0  0
 63139  1  0  0  0
 63140  1  0  0  0
 63141  1  0  0  0
 64142  1  0  0  0
 65143  1  0  0  0
 68 82  1  0  0  0
 71 72  2  0  0  0
 71 73  1  0  0  0
 71144  1  0  0  0
 72 75  1  0  0  0
 72145  1  0  0  0
 73 76  2  0  0  0
 73146  1  0  0  0
 74 75  2  0  0  0
 74 76  1  0  0  0
 74147  1  0  0  0
 75 81  1  0  0  0
 76 83  1  0  0  0
 77 78  1  0  0  0
 77 79  1  0  0  0
 77148  1  0  0  0
 77149  1  0  0  0
 78 80  1  0  0  0
 78150  1  0  0  0
 78151  1  0  0  0
 79 84  1  0  0  0
 79152  1  0  0  0
 79153  1  0  0  0
 80 82  1  0  0  0
 80 84  1  0  0  0
 80154  1  0  0  0
 81155  1  0  0  0
 81156  1  0  0  0
 81 84  1  0  0  0
 82157  1  0  0  0
 82158  1  0  0  0
 83159  1  0  0  0
 84160  1  0  0  0
M  CHG  1  84   1
M  ISO  4   1 100  68 101  82 101  83 100
M  END
> <chiral flag>
0

> <version>
0

> <s_m_source_file>
/data/baiqing/PycharmProjects/Reinvent-master-3.2/result/LINK_invent/BTK/process_docking_weight1_custom_product_contain_oxygen_bond_distance_aromatic_linkinvent_7_9_3/rearranged_h_0104.sdf

> <i_m_source_file_index>
63

> <r_mmod_Potential_Energy-OPLS-2005>
191.898483276367

> <r_mmod_Stretch_Energy-OPLS-2005>
124.205703735352

> <r_mmod_Bend_Energy-OPLS-2005>
194.54280090332

> <r_mmod_Torsional_Energy-OPLS-2005>
319.186462402344

> <r_mmod_Improper_Torsional_Energy-OPLS-2005>
4.85583925247192

> <r_mmod_Van_der_Waal_Energy-OPLS-2005>
134.893447875977

> <r_mmod_Electrostatic_Energy-OPLS-2005>
-224.660781860352

> <r_mmod_Solvation_Energy-OPLS-2005>
-439.208892822266

> <b_mmod_Minimization_Converged-OPLS-2005>
0

> <r_mmod_RMS_Derivative-OPLS-2005>
1.860347032547

$$$$
64
                    3D
 Structure written by MMmdl.
163171  0  0  1  0            999 V2000
  -30.7448  -14.4587   20.6302 C   0  0  0  0  0  0
  -30.4146  -12.3059   19.4447 C   0  0  0  0  0  0
  -29.5050  -12.4818   18.2108 C   0  0  0  0  0  0
  -28.0186  -12.3487   18.6026 C   0  0  0  0  0  0
  -27.6506  -13.1848   19.8548 C   0  0  2  0  0  0
  -28.6808  -12.9962   20.9822 C   0  0  0  0  0  0
  -25.2578  -13.8075   20.5614 C   0  0  0  0  0  0
  -24.1810  -13.0397   20.9118 C   0  0  0  0  0  0
  -24.6333  -11.6863   20.8668 C   0  0  0  0  0  0
  -23.8995  -10.4273   21.0384 C   0  0  0  0  0  0
  -24.3556   -9.4213   21.9182 C   0  0  0  0  0  0
  -23.6247   -8.2242   22.0749 C   0  0  0  0  0  0
  -22.4234   -8.0270   21.3531 C   0  0  0  0  0  0
  -21.9854   -9.0233   20.4619 C   0  0  0  0  0  0
  -22.7179  -10.2112   20.3032 C   0  0  0  0  0  0
  -21.6837   -6.0705   22.5246 C   0  0  0  0  0  0
  -21.4007   -6.5611   23.8176 C   0  0  0  0  0  0
  -21.3666   -5.6763   24.9131 C   0  0  0  0  0  0
  -21.6064   -4.3025   24.7174 C   0  0  0  0  0  0
  -21.8826   -3.8114   23.4285 C   0  0  0  0  0  0
  -21.9195   -4.6937   22.3355 C   0  0  0  0  0  0
  -22.7855  -13.5237   21.1821 C   0  0  0  0  0  0
  -22.1661   -4.2131   21.0926 F   0  0  0  0  0  0
  -21.5651   -3.4518   25.7686 F   0  0  0  0  0  0
  -30.0245  -13.3058   20.4560 N   0  0  0  0  0  0
  -26.2937  -12.9183   20.3186 N   0  0  0  0  0  0
  -25.9229  -11.6372   20.5627 N   0  0  0  0  0  0
  -22.0487  -12.8251   22.0364 N   0  0  0  0  0  0
  -25.4359  -15.1792   20.4107 N   0  0  0  0  0  0
  -31.8249  -14.6435   20.0608 O   0  0  0  0  0  0
  -21.6622   -6.8854   21.4211 O   0  0  0  0  0  0
  -22.3560  -14.5579   20.6705 O   0  0  0  0  0  0
  -24.6112  -31.8641   23.2060 C   0  0  0  0  0  0
  -25.9017  -32.4785   23.8362 C   0  0  1  0  0  0
  -27.2546  -27.4412   20.0918 C   0  0  0  0  0  0
  -25.5858  -33.8584   24.2292 N   0  0  0  0  0  0
  -23.3991  -30.4867   21.5448 C   0  0  2  0  0  0
  -24.8495  -28.9448   20.1148 C   0  0  0  0  0  0
  -22.7368  -29.4661   22.4974 C   0  0  0  0  0  0
  -18.0248  -28.1385   22.8498 C   0  0  0  0  0  0
  -24.1488  -36.7315   23.2639 C   0  0  0  0  0  0
  -25.9229  -30.8320   21.3557 C   0  0  0  0  0  0
  -26.0029  -29.4623   20.7129 C   0  0  0  0  0  0
  -27.1986  -28.7126   20.7104 C   0  0  0  0  0  0
  -26.0760  -26.9263   19.5022 C   0  0  0  0  0  0
  -24.8795  -27.6736   19.5103 C   0  0  0  0  0  0
  -23.6073  -29.8077   20.1617 C   0  0  0  0  0  0
  -25.4103  -36.3085   24.0335 C   0  0  1  0  0  0
  -20.5835  -28.3679   23.1316 C   0  0  2  0  0  0
  -20.6748  -26.9408   22.5430 C   0  0  0  0  0  0
  -19.5735  -26.6396   21.5217 C   0  0  0  0  0  0
  -18.1907  -26.7939   22.1615 C   0  0  0  0  0  0
  -19.1494  -28.8843   23.2907 C   0  0  0  0  0  0
  -18.9430  -30.1453   23.8922 C   0  0  0  0  0  0
  -17.6436  -30.6591   24.0586 C   0  0  0  0  0  0
  -25.9039  -34.9449   23.5115 C   0  0  0  0  0  0
  -16.5336  -29.9101   23.6322 C   0  0  0  0  0  0
  -16.7236  -28.6519   23.0334 C   0  0  0  0  0  0
  -26.4465  -31.6536   25.0670 C   0  0  0  0  0  0
  -25.3741  -31.3573   26.1409 C   0  0  0  0  0  0
  -27.0271  -30.2980   24.5997 C   0  0  0  0  0  0
  -27.6030  -32.4233   25.7455 C   0  0  0  0  0  0
  -27.5562  -37.1816   24.8456 C   0  0  0  0  0  0
  -21.4094  -29.3050   22.3715 N   0  0  0  0  0  0
  -26.4273  -37.3781   23.9397 N   0  0  0  0  0  0
  -24.6629  -31.0759   22.0944 N   0  0  0  0  0  0
  -23.4130  -28.8192   23.3020 O   0  0  0  0  0  0
  -28.4682  -26.7832   20.1061 O   0  0  0  0  0  0
  -26.5615  -34.8901   22.4693 O   0  0  0  0  0  0
  -23.5314  -32.1390   23.7464 O   0  0  0  0  0  0
  -30.9575  -17.7883   21.7352 C   0  0  0  0  0  0
  -29.6486  -18.7119   19.4542 C   0  0  0  0  0  0
  -31.0192  -19.1619   21.3968 C   0  0  0  0  0  0
  -29.6062  -17.3352   19.7699 C   0  0  0  0  0  0
  -30.2487  -16.8413   20.9457 C   0  0  0  0  0  0
  -30.3396  -19.6362   20.2549 C   0  0  0  0  0  0
  -31.8513  -20.1023   22.2542 C   0  0  0  0  0  0
  -28.8298  -16.4656   18.8021 C   0  0  0  0  0  0
  -30.0499  -15.2027   22.8240 C   0  0  0  0  0  0
  -28.7082  -24.3338   20.2293 C   0  0  0  0  0  0
  -29.4383  -23.1351   19.5804 C   0  0  0  0  0  0
  -28.7066  -25.5987   19.3407 C   0  0  0  0  0  0
  -29.5195  -21.8676   20.4578 C   0  0  0  0  0  0
  -30.1884  -15.4548   21.3771 N   0  0  0  0  0  0
  -30.4147  -20.9451   19.8364 O   0  0  0  0  0  0
  -31.4663  -12.3737   19.1655 H   0  0  0  0  0  0
  -30.2925  -11.3018   19.8565 H   0  0  0  0  0  0
  -29.7520  -11.7314   17.4595 H   0  0  0  0  0  0
  -29.6923  -13.4486   17.7449 H   0  0  0  0  0  0
  -27.8239  -11.2954   18.8005 H   0  0  0  0  0  0
  -27.3809  -12.6228   17.7605 H   0  0  0  0  0  0
  -27.6755  -14.2221   19.5541 H   0  0  0  0  0  0
  -28.6607  -11.9691   21.3498 H   0  0  0  0  0  0
  -28.3690  -13.6066   21.8240 H   0  0  0  0  0  0
  -25.2685   -9.5711   22.4769 H   0  0  0  0  0  0
  -23.9954   -7.4630   22.7478 H   0  0  0  0  0  0
  -21.0784   -8.8728   19.8906 H   0  0  0  0  0  0
  -22.3636  -10.9643   19.6127 H   0  0  0  0  0  0
  -21.1993   -7.6122   23.9661 H   0  0  0  0  0  0
  -21.1495   -6.0487   25.9036 H   0  0  0  0  0  0
  -22.0606   -2.7578   23.2755 H   0  0  0  0  0  0
  -22.4044  -11.9852   22.4689 H   0  0  0  0  0  0
  -21.1105  -13.1299   22.2555 H   0  0  0  0  0  0
  -24.6816  -15.8436   20.5381 H   0  0  0  0  0  0
  -26.3104  -15.6151   20.1520 H   0  0  0  0  0  0
  -26.7090  -32.5500   23.1132 H   0  0  0  0  0  0
  -24.9934  -33.9749   25.0385 H   0  0  0  0  0  0
  -22.6895  -31.3027   21.3983 H   0  0  0  0  0  0
  -23.3730  -35.9664   23.3294 H   0  0  0  0  0  0
  -24.3604  -36.8951   22.2059 H   0  0  0  0  0  0
  -23.7267  -37.6527   23.6675 H   0  0  0  0  0  0
  -26.0222  -31.5911   20.5781 H   0  0  0  0  0  0
  -26.8149  -30.8977   21.9663 H   0  0  0  0  0  0
  -28.0859  -29.1076   21.1855 H   0  0  0  0  0  0
  -26.0561  -25.9532   19.0362 H   0  0  0  0  0  0
  -23.9910  -27.2603   19.0537 H   0  0  0  0  0  0
  -23.7055  -30.5739   19.3923 H   0  0  0  0  0  0
  -22.7355  -29.2170   19.8766 H   0  0  0  0  0  0
  -25.1297  -36.1947   25.0835 H   0  0  0  0  0  0
  -20.9934  -28.3263   24.1429 H   0  0  0  0  0  0
  -20.5629  -26.2292   23.3622 H   0  0  0  0  0  0
  -21.6621  -26.7450   22.1219 H   0  0  0  0  0  0
  -19.6894  -25.6308   21.1227 H   0  0  0  0  0  0
  -19.6673  -27.3224   20.6765 H   0  0  0  0  0  0
  -17.4167  -26.6669   21.4029 H   0  0  0  0  0  0
  -18.0313  -26.0083   22.9021 H   0  0  0  0  0  0
  -19.7916  -30.7254   24.2301 H   0  0  0  0  0  0
  -17.5002  -31.6288   24.5167 H   0  0  0  0  0  0
  -15.5336  -30.3021   23.7654 H   0  0  0  0  0  0
  -15.8635  -28.0868   22.7023 H   0  0  0  0  0  0
  -24.5993  -30.6848   25.7734 H   0  0  0  0  0  0
  -24.8843  -32.2668   26.4876 H   0  0  0  0  0  0
  -25.8120  -30.8746   27.0154 H   0  0  0  0  0  0
  -26.2782  -29.6750   24.1094 H   0  0  0  0  0  0
  -27.4103  -29.7205   25.4425 H   0  0  0  0  0  0
  -27.8599  -30.4295   23.9080 H   0  0  0  0  0  0
  -27.2652  -33.3539   26.2024 H   0  0  0  0  0  0
  -28.3865  -32.6761   25.0299 H   0  0  0  0  0  0
  -28.0659  -31.8337   26.5376 H   0  0  0  0  0  0
  -28.2573  -38.0120   24.7487 H   0  0  0  0  0  0
  -28.1060  -36.2648   24.6291 H   0  0  0  0  0  0
  -27.2269  -37.1464   25.8856 H   0  0  0  0  0  0
  -20.9225  -29.8800   21.6980 H   0  0  0  0  0  0
  -26.0147  -38.2855   24.1403 H   0  0  0  0  0  0
  -31.5068  -17.4672   22.6071 H   0  0  0  0  0  0
  -29.1475  -19.0710   18.5655 H   0  0  0  0  0  0
  -32.7338  -19.5951   22.6431 H   0  0  0  0  0  0
  -31.2696  -20.4708   23.1001 H   0  0  0  0  0  0
  -32.2024  -20.9583   21.6763 H   0  0  0  0  0  0
  -28.7862  -16.9288   17.8167 H   0  0  0  0  0  0
  -27.8082  -16.3487   19.1563 H   0  0  0  0  0  0
  -29.2851  -15.4946   18.6477 H   0  0  0  0  0  0
  -30.8553  -15.6447   23.4077 H   0  0  0  0  0  0
  -30.0637  -14.1437   23.0863 H   0  0  0  0  0  0
  -29.1060  -15.6173   23.1840 H   0  0  0  0  0  0
  -29.2089  -24.5712   21.1697 H   0  0  0  0  0  0
  -27.6820  -24.0692   20.4848 H   0  0  0  0  0  0
  -30.4566  -23.4466   19.3365 H   0  0  0  0  0  0
  -28.9664  -22.8813   18.6286 H   0  0  0  0  0  0
  -28.0596  -25.4878   18.4715 H   0  0  0  0  0  0
  -29.7076  -25.7214   18.9243 H   0  0  0  0  0  0
  -28.5274  -21.4301   20.5803 H   0  0  0  0  0  0
  -29.8934  -22.1194   21.4495 H   0  0  0  0  0  0
  1 25  1  0  0  0
  1 30  2  0  0  0
  1 84  1  0  0  0
  2  3  1  0  0  0
  2 25  1  0  0  0
  2 86  1  0  0  0
  2 87  1  0  0  0
  3  4  1  0  0  0
  3 88  1  0  0  0
  3 89  1  0  0  0
  4  5  1  0  0  0
  4 90  1  0  0  0
  4 91  1  0  0  0
  5  6  1  0  0  0
  5 26  1  0  0  0
  5 92  1  0  0  0
  6 25  1  0  0  0
  6 93  1  0  0  0
  6 94  1  0  0  0
  7  8  2  0  0  0
  7 26  1  0  0  0
  7 29  1  0  0  0
  8  9  1  0  0  0
  8 22  1  0  0  0
  9 10  1  0  0  0
  9 27  2  0  0  0
 10 11  2  0  0  0
 10 15  1  0  0  0
 11 12  1  0  0  0
 11 95  1  0  0  0
 12 13  2  0  0  0
 12 96  1  0  0  0
 13 14  1  0  0  0
 13 31  1  0  0  0
 14 15  2  0  0  0
 14 97  1  0  0  0
 15 98  1  0  0  0
 16 17  2  0  0  0
 16 21  1  0  0  0
 16 31  1  0  0  0
 17 18  1  0  0  0
 17 99  1  0  0  0
 18 19  2  0  0  0
 18100  1  0  0  0
 19 20  1  0  0  0
 19 24  1  0  0  0
 20 21  2  0  0  0
 20101  1  0  0  0
 21 23  1  0  0  0
 22 28  1  0  0  0
 22 32  2  0  0  0
 26 27  1  0  0  0
 28102  1  0  0  0
 28103  1  0  0  0
 29104  1  0  0  0
 29105  1  0  0  0
 33 34  1  0  0  0
 33 66  1  0  0  0
 33 70  2  0  0  0
 34 36  1  0  0  0
 34 59  1  0  0  0
 34106  1  0  0  0
 35 44  2  0  0  0
 35 45  1  0  0  0
 35 68  1  0  0  0
 36 56  1  0  0  0
 36107  1  0  0  0
 37 39  1  0  0  0
 37 47  1  0  0  0
 37 66  1  0  0  0
 37108  1  0  0  0
 38 43  2  0  0  0
 38 46  1  0  0  0
 38 47  1  0  0  0
 39 64  1  0  0  0
 39 67  2  0  0  0
 40 52  1  0  0  0
 40 53  2  0  0  0
 40 58  1  0  0  0
 41109  1  0  0  0
 41110  1  0  0  0
 41111  1  0  0  0
 41 48  1  0  0  0
 42 43  1  0  0  0
 42 66  1  0  0  0
 42112  1  0  0  0
 42113  1  0  0  0
 43 44  1  0  0  0
 44114  1  0  0  0
 45 46  2  0  0  0
 45115  1  0  0  0
 46116  1  0  0  0
 47117  1  0  0  0
 47118  1  0  0  0
 48 56  1  0  0  0
 48 65  1  0  0  0
 48119  1  0  0  0
 49 50  1  0  0  0
 49 53  1  0  0  0
 49 64  1  0  0  0
 49120  1  0  0  0
 50 51  1  0  0  0
 50121  1  0  0  0
 50122  1  0  0  0
 51 52  1  0  0  0
 51123  1  0  0  0
 51124  1  0  0  0
 52125  1  0  0  0
 52126  1  0  0  0
 53 54  1  0  0  0
 54 55  2  0  0  0
 54127  1  0  0  0
 55 57  1  0  0  0
 55128  1  0  0  0
 56 69  2  0  0  0
 57 58  2  0  0  0
 57129  1  0  0  0
 58130  1  0  0  0
 59 60  1  0  0  0
 59 61  1  0  0  0
 59 62  1  0  0  0
 60131  1  0  0  0
 60132  1  0  0  0
 60133  1  0  0  0
 61134  1  0  0  0
 61135  1  0  0  0
 61136  1  0  0  0
 62137  1  0  0  0
 62138  1  0  0  0
 62139  1  0  0  0
 63 65  1  0  0  0
 63140  1  0  0  0
 63141  1  0  0  0
 63142  1  0  0  0
 64143  1  0  0  0
 65144  1  0  0  0
 68 82  1  0  0  0
 71 73  2  0  0  0
 71 75  1  0  0  0
 71145  1  0  0  0
 72 74  1  0  0  0
 72 76  2  0  0  0
 72146  1  0  0  0
 73 76  1  0  0  0
 73 77  1  0  0  0
 74 75  2  0  0  0
 74 78  1  0  0  0
 75 84  1  0  0  0
 76 85  1  0  0  0
 77147  1  0  0  0
 77148  1  0  0  0
 77149  1  0  0  0
 78150  1  0  0  0
 78151  1  0  0  0
 78152  1  0  0  0
 79 84  1  0  0  0
 79153  1  0  0  0
 79154  1  0  0  0
 79155  1  0  0  0
 80 81  1  0  0  0
 80 82  1  0  0  0
 80156  1  0  0  0
 80157  1  0  0  0
 81 83  1  0  0  0
 81158  1  0  0  0
 81159  1  0  0  0
 82160  1  0  0  0
 82161  1  0  0  0
 83 85  1  0  0  0
 83162  1  0  0  0
 83163  1  0  0  0
M  ISO  4   1 100  68 101  82 101  84 100
M  END
> <chiral flag>
0

> <version>
0

> <s_m_source_file>
/data/baiqing/PycharmProjects/Reinvent-master-3.2/result/LINK_invent/BTK/process_docking_weight1_custom_product_contain_oxygen_bond_distance_aromatic_linkinvent_7_9_3/rearranged_h_0104.sdf

> <i_m_source_file_index>
64

> <r_mmod_Potential_Energy-OPLS-2005>
137.622161865234

> <r_mmod_Stretch_Energy-OPLS-2005>
43.6787033081055

> <r_mmod_Bend_Energy-OPLS-2005>
120.405212402344

> <r_mmod_Torsional_Energy-OPLS-2005>
313.764617919922

> <r_mmod_Improper_Torsional_Energy-OPLS-2005>
4.04169416427612

> <r_mmod_Van_der_Waal_Energy-OPLS-2005>
157.865966796875

> <r_mmod_Electrostatic_Energy-OPLS-2005>
-321.618316650391

> <r_mmod_Solvation_Energy-OPLS-2005>
-193.032241821289

> <b_mmod_Minimization_Converged-OPLS-2005>
0

> <r_mmod_RMS_Derivative-OPLS-2005>
3.28730463981628

$$$$
65
                    3D
 Structure written by MMmdl.
159167  0  0  1  0            999 V2000
  -30.7427  -14.4841   20.4620 C   0  0  0  0  0  0
  -30.3837  -12.2743   19.4811 C   0  0  0  0  0  0
  -29.4975  -12.4536   18.2314 C   0  0  0  0  0  0
  -28.0188  -12.3160   18.6353 C   0  0  0  0  0  0
  -27.6434  -13.2182   19.8430 C   0  0  2  0  0  0
  -28.6777  -13.1181   20.9899 C   0  0  0  0  0  0
  -25.2512  -13.8177   20.5730 C   0  0  0  0  0  0
  -24.1796  -13.0446   20.9189 C   0  0  0  0  0  0
  -24.6360  -11.6906   20.8732 C   0  0  0  0  0  0
  -23.9028  -10.4295   21.0427 C   0  0  0  0  0  0
  -24.3607   -9.4208   21.9199 C   0  0  0  0  0  0
  -23.6286   -8.2239   22.0755 C   0  0  0  0  0  0
  -22.4255   -8.0274   21.3563 C   0  0  0  0  0  0
  -21.9885   -9.0227   20.4653 C   0  0  0  0  0  0
  -22.7199  -10.2112   20.3070 C   0  0  0  0  0  0
  -21.6844   -6.0739   22.5291 C   0  0  0  0  0  0
  -21.3990   -6.5642   23.8221 C   0  0  0  0  0  0
  -21.3663   -5.6801   24.9196 C   0  0  0  0  0  0
  -21.6026   -4.3054   24.7239 C   0  0  0  0  0  0
  -21.8809   -3.8149   23.4361 C   0  0  0  0  0  0
  -21.9176   -4.6965   22.3418 C   0  0  0  0  0  0
  -22.7822  -13.5227   21.1873 C   0  0  0  0  0  0
  -22.1657   -4.2148   21.0999 F   0  0  0  0  0  0
  -21.5636   -3.4550   25.7766 F   0  0  0  0  0  0
  -30.0193  -13.3342   20.4349 N   0  0  0  0  0  0
  -26.2931  -12.9379   20.3250 N   0  0  0  0  0  0
  -25.9275  -11.6523   20.5700 N   0  0  0  0  0  0
  -22.0482  -12.8226   22.0436 N   0  0  0  0  0  0
  -25.4249  -15.1914   20.4350 N   0  0  0  0  0  0
  -31.9190  -14.5073   20.0890 O   0  0  0  0  0  0
  -21.6609   -6.8880   21.4259 O   0  0  0  0  0  0
  -22.3517  -14.5544   20.6705 O   0  0  0  0  0  0
  -24.6216  -31.8628   23.2126 C   0  0  0  0  0  0
  -25.9119  -32.4775   23.8361 C   0  0  1  0  0  0
  -27.2270  -27.4184   20.0736 C   0  0  0  0  0  0
  -25.6004  -33.8579   24.2342 N   0  0  0  0  0  0
  -23.4104  -30.4964   21.5512 C   0  0  2  0  0  0
  -24.8535  -28.9673   20.1133 C   0  0  0  0  0  0
  -22.7440  -29.4671   22.4945 C   0  0  0  0  0  0
  -18.0298  -28.1376   22.8463 C   0  0  0  0  0  0
  -24.1537  -36.7287   23.2617 C   0  0  0  0  0  0
  -25.9445  -30.8217   21.3739 C   0  0  0  0  0  0
  -26.0145  -29.4604   20.7105 C   0  0  0  0  0  0
  -27.2038  -28.6962   20.6863 C   0  0  0  0  0  0
  -26.0360  -26.9418   19.4750 C   0  0  0  0  0  0
  -24.8603  -27.7116   19.4870 C   0  0  0  0  0  0
  -23.6246  -29.8442   20.1618 C   0  0  0  0  0  0
  -25.4141  -36.3085   24.0345 C   0  0  1  0  0  0
  -20.5867  -28.3737   23.1303 C   0  0  2  0  0  0
  -20.6792  -26.9428   22.5490 C   0  0  0  0  0  0
  -19.5844  -26.6426   21.5246 C   0  0  0  0  0  0
  -18.2018  -26.7889   22.1653 C   0  0  0  0  0  0
  -19.1512  -28.8904   23.2839 C   0  0  0  0  0  0
  -18.9372  -30.1526   23.8797 C   0  0  0  0  0  0
  -17.6347  -30.6604   24.0428 C   0  0  0  0  0  0
  -25.9078  -34.9446   23.5110 C   0  0  0  0  0  0
  -16.5286  -29.9037   23.6241 C   0  0  0  0  0  0
  -16.7270  -28.6458   23.0297 C   0  0  0  0  0  0
  -26.4565  -31.6533   25.0664 C   0  0  0  0  0  0
  -25.3838  -31.3591   26.1402 C   0  0  0  0  0  0
  -27.0393  -30.2985   24.6039 C   0  0  0  0  0  0
  -27.6206  -32.4194   25.7357 C   0  0  0  0  0  0
  -27.5619  -37.1761   24.8462 C   0  0  0  0  0  0
  -21.4162  -29.3033   22.3637 N   0  0  0  0  0  0
  -26.4325  -37.3783   23.9419 N   0  0  0  0  0  0
  -24.6770  -31.0740   22.1032 N   0  0  0  0  0  0
  -23.4190  -28.8235   23.3045 O   0  0  0  0  0  0
  -28.4202  -26.7151   20.0614 O   0  0  0  0  0  0
  -26.5600  -34.8889   22.4656 O   0  0  0  0  0  0
  -23.5431  -32.1357   23.7541 O   0  0  0  0  0  0
  -28.2657  -19.9732   20.5997 C   0  0  0  0  0  0
  -30.1738  -20.1266   22.0851 C   0  0  0  0  0  0
  -29.8057  -18.0753   20.7774 C   0  0  0  0  0  0
  -28.6324  -18.6586   20.2315 C   0  0  0  0  0  0
  -30.5501  -18.8047   21.7450 C   0  0  0  0  0  0
  -29.0683  -20.7485   21.4670 C   0  0  0  0  0  0
  -30.3908  -16.8221   20.1739 C   0  0  0  0  0  0
  -27.7973  -17.9349   19.1816 C   0  0  0  0  0  0
  -31.8177  -18.2224   22.3578 C   0  0  0  0  0  0
  -28.4382  -24.3936   20.9012 C   0  0  0  0  0  0
  -28.4694  -25.3283   19.6740 C   0  0  0  0  0  0
  -28.5849  -22.8948   20.5388 C   0  0  0  0  0  0
  -30.0705  -15.6256   20.7162 N   0  0  0  0  0  0
  -31.1307  -16.9787   19.1929 O   0  0  0  0  0  0
  -28.8264  -22.0875   21.7037 O   0  0  0  0  0  0
  -31.4422  -12.2780   19.2125 H   0  0  0  0  0  0
  -30.2002  -11.2984   19.9303 H   0  0  0  0  0  0
  -29.7522  -11.7060   17.4786 H   0  0  0  0  0  0
  -29.6747  -13.4249   17.7687 H   0  0  0  0  0  0
  -27.8559  -11.2700   18.8987 H   0  0  0  0  0  0
  -27.3645  -12.5124   17.7854 H   0  0  0  0  0  0
  -27.6504  -14.2383   19.4592 H   0  0  0  0  0  0
  -28.6253  -12.1367   21.4618 H   0  0  0  0  0  0
  -28.4437  -13.8498   21.7674 H   0  0  0  0  0  0
  -25.2785   -9.5652   22.4749 H   0  0  0  0  0  0
  -23.9984   -7.4613   22.7463 H   0  0  0  0  0  0
  -21.0813   -8.8719   19.8983 H   0  0  0  0  0  0
  -22.3660  -10.9629   19.6155 H   0  0  0  0  0  0
  -21.1977   -7.6151   23.9715 H   0  0  0  0  0  0
  -21.1506   -6.0561   25.9095 H   0  0  0  0  0  0
  -22.0577   -2.7607   23.2874 H   0  0  0  0  0  0
  -22.4089  -11.9904   22.4889 H   0  0  0  0  0  0
  -21.1102  -13.1249   22.2648 H   0  0  0  0  0  0
  -24.6786  -15.8543   20.6118 H   0  0  0  0  0  0
  -26.3075  -15.6301   20.2194 H   0  0  0  0  0  0
  -26.7143  -32.5459   23.1055 H   0  0  0  0  0  0
  -25.0270  -33.9715   25.0576 H   0  0  0  0  0  0
  -22.6997  -31.3173   21.4160 H   0  0  0  0  0  0
  -23.3831  -35.9589   23.3264 H   0  0  0  0  0  0
  -24.3679  -36.8923   22.2044 H   0  0  0  0  0  0
  -23.7261  -37.6481   23.6618 H   0  0  0  0  0  0
  -26.0766  -31.5932   20.6176 H   0  0  0  0  0  0
  -26.8315  -30.8536   21.9991 H   0  0  0  0  0  0
  -28.1057  -29.0833   21.1387 H   0  0  0  0  0  0
  -25.9692  -25.9932   18.9692 H   0  0  0  0  0  0
  -23.9665  -27.3394   19.0046 H   0  0  0  0  0  0
  -23.7491  -30.6313   19.4168 H   0  0  0  0  0  0
  -22.7478  -29.2774   19.8438 H   0  0  0  0  0  0
  -25.1293  -36.1936   25.0840 H   0  0  0  0  0  0
  -20.9889  -28.3450   24.1456 H   0  0  0  0  0  0
  -20.5661  -26.2296   23.3656 H   0  0  0  0  0  0
  -21.6640  -26.7468   22.1254 H   0  0  0  0  0  0
  -19.7096  -25.6351   21.1227 H   0  0  0  0  0  0
  -19.6809  -27.3288   20.6840 H   0  0  0  0  0  0
  -17.4302  -26.6631   21.4061 H   0  0  0  0  0  0
  -18.0451  -26.0022   22.9043 H   0  0  0  0  0  0
  -19.7809  -30.7369   24.2164 H   0  0  0  0  0  0
  -17.4806  -31.6290   24.4964 H   0  0  0  0  0  0
  -15.5257  -30.2849   23.7528 H   0  0  0  0  0  0
  -15.8682  -28.0746   22.7034 H   0  0  0  0  0  0
  -24.5991  -30.6983   25.7675 H   0  0  0  0  0  0
  -24.9049  -32.2728   26.4903 H   0  0  0  0  0  0
  -25.8208  -30.8629   27.0083 H   0  0  0  0  0  0
  -26.2865  -29.6650   24.1331 H   0  0  0  0  0  0
  -27.4456  -29.7304   25.4428 H   0  0  0  0  0  0
  -27.8600  -30.4352   23.9004 H   0  0  0  0  0  0
  -27.2913  -33.3471   26.2039 H   0  0  0  0  0  0
  -28.3928  -32.6777   25.0085 H   0  0  0  0  0  0
  -28.0978  -31.8210   26.5128 H   0  0  0  0  0  0
  -28.2587  -38.0104   24.7564 H   0  0  0  0  0  0
  -28.1161  -36.2637   24.6207 H   0  0  0  0  0  0
  -27.2325  -37.1302   25.8856 H   0  0  0  0  0  0
  -20.9307  -29.8646   21.6794 H   0  0  0  0  0  0
  -26.0225  -38.2861   24.1469 H   0  0  0  0  0  0
  -27.3790  -20.4060   20.1636 H   0  0  0  0  0  0
  -30.7861  -20.6912   22.7758 H   0  0  0  0  0  0
  -26.8741  -18.4706   18.9557 H   0  0  0  0  0  0
  -27.5320  -16.9309   19.5149 H   0  0  0  0  0  0
  -28.3538  -17.8348   18.2461 H   0  0  0  0  0  0
  -32.2330  -18.8607   23.1403 H   0  0  0  0  0  0
  -32.5761  -18.1081   21.5843 H   0  0  0  0  0  0
  -31.6248  -17.2347   22.7848 H   0  0  0  0  0  0
  -27.5117  -24.5504   21.4550 H   0  0  0  0  0  0
  -29.2503  -24.6886   21.5637 H   0  0  0  0  0  0
  -27.7398  -25.0238   18.9269 H   0  0  0  0  0  0
  -29.4266  -25.1929   19.1731 H   0  0  0  0  0  0
  -29.4166  -22.7695   19.8416 H   0  0  0  0  0  0
  -27.6923  -22.5622   20.0092 H   0  0  0  0  0  0
  -29.2573  -15.5825   21.3070 H   0  0  0  0  0  0
  1 25  1  0  0  0
  1 30  2  0  0  0
  1 83  1  0  0  0
  2  3  1  0  0  0
  2 25  1  0  0  0
  2 86  1  0  0  0
  2 87  1  0  0  0
  3  4  1  0  0  0
  3 88  1  0  0  0
  3 89  1  0  0  0
  4  5  1  0  0  0
  4 90  1  0  0  0
  4 91  1  0  0  0
  5  6  1  0  0  0
  5 26  1  0  0  0
  5 92  1  0  0  0
  6 25  1  0  0  0
  6 93  1  0  0  0
  6 94  1  0  0  0
  7  8  2  0  0  0
  7 26  1  0  0  0
  7 29  1  0  0  0
  8  9  1  0  0  0
  8 22  1  0  0  0
  9 10  1  0  0  0
  9 27  2  0  0  0
 10 11  2  0  0  0
 10 15  1  0  0  0
 11 12  1  0  0  0
 11 95  1  0  0  0
 12 13  2  0  0  0
 12 96  1  0  0  0
 13 14  1  0  0  0
 13 31  1  0  0  0
 14 15  2  0  0  0
 14 97  1  0  0  0
 15 98  1  0  0  0
 16 17  2  0  0  0
 16 21  1  0  0  0
 16 31  1  0  0  0
 17 18  1  0  0  0
 17 99  1  0  0  0
 18 19  2  0  0  0
 18100  1  0  0  0
 19 20  1  0  0  0
 19 24  1  0  0  0
 20 21  2  0  0  0
 20101  1  0  0  0
 21 23  1  0  0  0
 22 28  1  0  0  0
 22 32  2  0  0  0
 26 27  1  0  0  0
 28102  1  0  0  0
 28103  1  0  0  0
 29104  1  0  0  0
 29105  1  0  0  0
 33 34  1  0  0  0
 33 66  1  0  0  0
 33 70  2  0  0  0
 34 36  1  0  0  0
 34 59  1  0  0  0
 34106  1  0  0  0
 35 44  2  0  0  0
 35 45  1  0  0  0
 35 68  1  0  0  0
 36 56  1  0  0  0
 36107  1  0  0  0
 37 39  1  0  0  0
 37 47  1  0  0  0
 37 66  1  0  0  0
 37108  1  0  0  0
 38 43  2  0  0  0
 38 46  1  0  0  0
 38 47  1  0  0  0
 39 64  1  0  0  0
 39 67  2  0  0  0
 40 52  1  0  0  0
 40 53  2  0  0  0
 40 58  1  0  0  0
 41109  1  0  0  0
 41110  1  0  0  0
 41111  1  0  0  0
 41 48  1  0  0  0
 42 43  1  0  0  0
 42 66  1  0  0  0
 42112  1  0  0  0
 42113  1  0  0  0
 43 44  1  0  0  0
 44114  1  0  0  0
 45 46  2  0  0  0
 45115  1  0  0  0
 46116  1  0  0  0
 47117  1  0  0  0
 47118  1  0  0  0
 48 56  1  0  0  0
 48 65  1  0  0  0
 48119  1  0  0  0
 49 50  1  0  0  0
 49 53  1  0  0  0
 49 64  1  0  0  0
 49120  1  0  0  0
 50 51  1  0  0  0
 50121  1  0  0  0
 50122  1  0  0  0
 51 52  1  0  0  0
 51123  1  0  0  0
 51124  1  0  0  0
 52125  1  0  0  0
 52126  1  0  0  0
 53 54  1  0  0  0
 54 55  2  0  0  0
 54127  1  0  0  0
 55 57  1  0  0  0
 55128  1  0  0  0
 56 69  2  0  0  0
 57 58  2  0  0  0
 57129  1  0  0  0
 58130  1  0  0  0
 59 60  1  0  0  0
 59 61  1  0  0  0
 59 62  1  0  0  0
 60131  1  0  0  0
 60132  1  0  0  0
 60133  1  0  0  0
 61134  1  0  0  0
 61135  1  0  0  0
 61136  1  0  0  0
 62137  1  0  0  0
 62138  1  0  0  0
 62139  1  0  0  0
 63 65  1  0  0  0
 63140  1  0  0  0
 63141  1  0  0  0
 63142  1  0  0  0
 64143  1  0  0  0
 65144  1  0  0  0
 68 81  1  0  0  0
 71 74  2  0  0  0
 71 76  1  0  0  0
 71145  1  0  0  0
 72 75  1  0  0  0
 72 76  2  0  0  0
 72146  1  0  0  0
 73 74  1  0  0  0
 73 75  2  0  0  0
 73 77  1  0  0  0
 74 78  1  0  0  0
 75 79  1  0  0  0
 76 85  1  0  0  0
 77 83  1  0  0  0
 77 84  2  0  0  0
 78147  1  0  0  0
 78148  1  0  0  0
 78149  1  0  0  0
 79150  1  0  0  0
 79151  1  0  0  0
 79152  1  0  0  0
 80 81  1  0  0  0
 80 82  1  0  0  0
 80153  1  0  0  0
 80154  1  0  0  0
 81155  1  0  0  0
 81156  1  0  0  0
 82 85  1  0  0  0
 82157  1  0  0  0
 82158  1  0  0  0
 83159  1  0  0  0
M  ISO  4   1 100  68 101  81 101  83 100
M  END
> <chiral flag>
0

> <version>
0

> <s_m_source_file>
/data/baiqing/PycharmProjects/Reinvent-master-3.2/result/LINK_invent/BTK/process_docking_weight1_custom_product_contain_oxygen_bond_distance_aromatic_linkinvent_7_9_3/rearranged_h_0104.sdf

> <i_m_source_file_index>
65

> <r_mmod_Potential_Energy-OPLS-2005>
17.6096267700195

> <r_mmod_Stretch_Energy-OPLS-2005>
38.8468818664551

> <r_mmod_Bend_Energy-OPLS-2005>
106.355682373047

> <r_mmod_Torsional_Energy-OPLS-2005>
276.179443359375

> <r_mmod_Improper_Torsional_Energy-OPLS-2005>
6.13577842712402

> <r_mmod_Van_der_Waal_Energy-OPLS-2005>
167.158721923828

> <r_mmod_Electrostatic_Energy-OPLS-2005>
-379.801055908203

> <r_mmod_Solvation_Energy-OPLS-2005>
-224.484909057617

> <b_mmod_Minimization_Converged-OPLS-2005>
0

> <r_mmod_RMS_Derivative-OPLS-2005>
5.7491979598999

$$$$
66
                    3D
 Structure written by MMmdl.
166175  0  0  1  0            999 V2000
  -30.7025  -14.4235   20.6048 C   0  0  0  0  0  0
  -30.4184  -12.2842   19.4207 C   0  0  0  0  0  0
  -29.4933  -12.5107   18.2063 C   0  0  0  0  0  0
  -28.0131  -12.3757   18.6108 C   0  0  0  0  0  0
  -27.6635  -13.1979   19.8794 C   0  0  2  0  0  0
  -28.6987  -12.9455   20.9999 C   0  0  0  0  0  0
  -25.2594  -13.8159   20.5638 C   0  0  0  0  0  0
  -24.1819  -13.0454   20.9128 C   0  0  0  0  0  0
  -24.6338  -11.6915   20.8691 C   0  0  0  0  0  0
  -23.9003  -10.4313   21.0398 C   0  0  0  0  0  0
  -24.3574   -9.4241   21.9180 C   0  0  0  0  0  0
  -23.6265   -8.2263   22.0760 C   0  0  0  0  0  0
  -22.4264   -8.0284   21.3541 C   0  0  0  0  0  0
  -21.9870   -9.0245   20.4646 C   0  0  0  0  0  0
  -22.7172  -10.2150   20.3052 C   0  0  0  0  0  0
  -21.6858   -6.0728   22.5270 C   0  0  0  0  0  0
  -21.4015   -6.5626   23.8197 C   0  0  0  0  0  0
  -21.3657   -5.6782   24.9158 C   0  0  0  0  0  0
  -21.6048   -4.3039   24.7200 C   0  0  0  0  0  0
  -21.8815   -3.8131   23.4327 C   0  0  0  0  0  0
  -21.9194   -4.6945   22.3382 C   0  0  0  0  0  0
  -22.7858  -13.5288   21.1788 C   0  0  0  0  0  0
  -22.1672   -4.2141   21.0958 F   0  0  0  0  0  0
  -21.5629   -3.4511   25.7717 F   0  0  0  0  0  0
  -30.0431  -13.2427   20.4701 N   0  0  0  0  0  0
  -26.3017  -12.9303   20.3342 N   0  0  0  0  0  0
  -25.9265  -11.6474   20.5723 N   0  0  0  0  0  0
  -22.0469  -12.8343   22.0368 N   0  0  0  0  0  0
  -25.4363  -15.1869   20.4069 N   0  0  0  0  0  0
  -31.7750  -14.6745   20.0449 O   0  0  0  0  0  0
  -21.6648   -6.8865   21.4232 O   0  0  0  0  0  0
  -22.3567  -14.5597   20.6606 O   0  0  0  0  0  0
  -24.6126  -31.8689   23.2118 C   0  0  0  0  0  0
  -25.9021  -32.4828   23.8413 C   0  0  1  0  0  0
  -27.2528  -27.4684   20.0766 C   0  0  0  0  0  0
  -25.5896  -33.8628   24.2349 N   0  0  0  0  0  0
  -23.4015  -30.4898   21.5499 C   0  0  2  0  0  0
  -24.8522  -28.9572   20.1146 C   0  0  0  0  0  0
  -22.7400  -29.4657   22.4992 C   0  0  0  0  0  0
  -18.0276  -28.1367   22.8489 C   0  0  0  0  0  0
  -24.1480  -36.7305   23.2639 C   0  0  0  0  0  0
  -25.9265  -30.8404   21.3647 C   0  0  0  0  0  0
  -26.0068  -29.4759   20.7130 C   0  0  0  0  0  0
  -27.2058  -28.7311   20.7045 C   0  0  0  0  0  0
  -26.0787  -26.9476   19.4910 C   0  0  0  0  0  0
  -24.8804  -27.6879   19.5078 C   0  0  0  0  0  0
  -23.6106  -29.8181   20.1650 C   0  0  0  0  0  0
  -25.4101  -36.3114   24.0344 C   0  0  1  0  0  0
  -20.5864  -28.3650   23.1315 C   0  0  2  0  0  0
  -20.6763  -26.9387   22.5415 C   0  0  0  0  0  0
  -19.5745  -26.6370   21.5210 C   0  0  0  0  0  0
  -18.1921  -26.7919   22.1611 C   0  0  0  0  0  0
  -19.1522  -28.8824   23.2900 C   0  0  0  0  0  0
  -18.9454  -30.1435   23.8907 C   0  0  0  0  0  0
  -17.6454  -30.6574   24.0560 C   0  0  0  0  0  0
  -25.9032  -34.9477   23.5140 C   0  0  0  0  0  0
  -16.5348  -29.9071   23.6327 C   0  0  0  0  0  0
  -16.7267  -28.6488   23.0353 C   0  0  0  0  0  0
  -26.4468  -31.6611   25.0732 C   0  0  0  0  0  0
  -25.3743  -31.3707   26.1484 C   0  0  0  0  0  0
  -27.0314  -30.3063   24.6102 C   0  0  0  0  0  0
  -27.6053  -32.4329   25.7479 C   0  0  0  0  0  0
  -27.5580  -37.1806   24.8465 C   0  0  0  0  0  0
  -21.4133  -29.3018   22.3721 N   0  0  0  0  0  0
  -26.4291  -37.3792   23.9410 N   0  0  0  0  0  0
  -24.6639  -31.0804   22.1007 N   0  0  0  0  0  0
  -23.4170  -28.8216   23.3045 O   0  0  0  0  0  0
  -28.4305  -26.7566   20.1029 O   0  0  0  0  0  0
  -26.5590  -34.8924   22.4701 O   0  0  0  0  0  0
  -23.5317  -32.1436   23.7516 O   0  0  0  0  0  0
  -29.1382  -18.9647   21.3371 C   0  0  0  0  0  0
  -29.6560  -17.7224   21.7557 C   0  0  0  0  0  0
  -29.1658  -16.7950   19.5623 C   0  0  0  0  0  0
  -28.5953  -19.1283   20.0419 C   0  0  0  0  0  0
  -28.6167  -18.0269   19.1448 C   0  0  0  0  0  0
  -29.6699  -16.6240   20.8732 C   0  0  0  0  0  0
  -30.4736  -24.3409   18.0229 C   0  0  0  0  0  0
  -30.5881  -22.8276   18.2511 C   0  0  0  0  0  0
  -28.6445  -23.6470   19.3859 C   0  0  0  0  0  0
  -29.5908  -24.8372   19.1683 C   0  0  2  0  0  0
  -28.0457  -18.1105   17.7328 C   0  0  0  0  0  0
  -27.9347  -20.4597   19.6718 C   0  0  0  0  0  0
  -28.8967  -26.1867   18.8816 C   0  0  0  0  0  0
  -28.6745  -21.2690   18.5830 C   0  0  0  0  0  0
  -30.0759  -15.3457   21.3492 N   0  0  0  0  0  0
  -29.4463  -22.4256   19.1111 N   0  3  1  0  0  0
  -31.4650  -12.3817   19.1258 H   0  0  0  0  0  0
  -30.3078  -11.2663   19.7976 H   0  0  0  0  0  0
  -29.7301  -11.8004   17.4141 H   0  0  0  0  0  0
  -29.6645  -13.5040   17.7861 H   0  0  0  0  0  0
  -27.8071  -11.3184   18.7843 H   0  0  0  0  0  0
  -27.3730  -12.6773   17.7807 H   0  0  0  0  0  0
  -27.7124  -14.2500   19.6030 H   0  0  0  0  0  0
  -28.6612  -11.9036   21.3191 H   0  0  0  0  0  0
  -28.4429  -13.5252   21.8878 H   0  0  0  0  0  0
  -25.2708   -9.5741   22.4751 H   0  0  0  0  0  0
  -23.9967   -7.4679   22.7496 H   0  0  0  0  0  0
  -21.0792   -8.8739   19.8968 H   0  0  0  0  0  0
  -22.3585  -10.9674   19.6161 H   0  0  0  0  0  0
  -21.2018   -7.6149   23.9695 H   0  0  0  0  0  0
  -21.1489   -6.0520   25.9065 H   0  0  0  0  0  0
  -22.0598   -2.7581   23.2835 H   0  0  0  0  0  0
  -22.4033  -12.0013   22.4813 H   0  0  0  0  0  0
  -21.1068  -13.1391   22.2485 H   0  0  0  0  0  0
  -24.6770  -15.8498   20.5296 H   0  0  0  0  0  0
  -26.2965  -15.6206   20.0970 H   0  0  0  0  0  0
  -26.7094  -32.5554   23.1187 H   0  0  0  0  0  0
  -25.0085  -33.9791   25.0517 H   0  0  0  0  0  0
  -22.6900  -31.3054   21.4086 H   0  0  0  0  0  0
  -23.3741  -35.9642   23.3321 H   0  0  0  0  0  0
  -24.3571  -36.8896   22.2050 H   0  0  0  0  0  0
  -23.7233  -37.6516   23.6633 H   0  0  0  0  0  0
  -26.0388  -31.6087   20.5985 H   0  0  0  0  0  0
  -26.8132  -30.8935   21.9843 H   0  0  0  0  0  0
  -28.0976  -29.1279   21.1701 H   0  0  0  0  0  0
  -26.0773  -25.9669   19.0359 H   0  0  0  0  0  0
  -23.9885  -27.2751   19.0578 H   0  0  0  0  0  0
  -23.7172  -30.5912   19.4034 H   0  0  0  0  0  0
  -22.7358  -29.2351   19.8702 H   0  0  0  0  0  0
  -25.1271  -36.1994   25.0837 H   0  0  0  0  0  0
  -20.9957  -28.3220   24.1434 H   0  0  0  0  0  0
  -20.5661  -26.2260   23.3598 H   0  0  0  0  0  0
  -21.6638  -26.7421   22.1226 H   0  0  0  0  0  0
  -19.6909  -25.6285   21.1226 H   0  0  0  0  0  0
  -19.6689  -27.3184   20.6746 H   0  0  0  0  0  0
  -17.4197  -26.6686   21.4006 H   0  0  0  0  0  0
  -18.0305  -26.0050   22.8988 H   0  0  0  0  0  0
  -19.7926  -30.7249   24.2283 H   0  0  0  0  0  0
  -17.5007  -31.6256   24.5159 H   0  0  0  0  0  0
  -15.5351  -30.2973   23.7645 H   0  0  0  0  0  0
  -15.8669  -28.0804   22.7073 H   0  0  0  0  0  0
  -24.5902  -30.7076   25.7813 H   0  0  0  0  0  0
  -24.8953  -32.2863   26.4964 H   0  0  0  0  0  0
  -25.8100  -30.8843   27.0220 H   0  0  0  0  0  0
  -26.2867  -29.6803   24.1176 H   0  0  0  0  0  0
  -27.4124  -29.7320   25.4557 H   0  0  0  0  0  0
  -27.8677  -30.4400   23.9235 H   0  0  0  0  0  0
  -27.2688  -33.3612   26.2106 H   0  0  0  0  0  0
  -28.3830  -32.6922   25.0283 H   0  0  0  0  0  0
  -28.0763  -31.8432   26.5351 H   0  0  0  0  0  0
  -28.2608  -38.0093   24.7508 H   0  0  0  0  0  0
  -28.1065  -36.2629   24.6291 H   0  0  0  0  0  0
  -27.2299  -37.1457   25.8868 H   0  0  0  0  0  0
  -20.9299  -29.8725   21.6926 H   0  0  0  0  0  0
  -26.0187  -38.2874   24.1406 H   0  0  0  0  0  0
  -29.1239  -19.7868   22.0403 H   0  0  0  0  0  0
  -30.0246  -17.6168   22.7669 H   0  0  0  0  0  0
  -29.1575  -15.9643   18.8714 H   0  0  0  0  0  0
  -29.9852  -24.5293   17.0645 H   0  0  0  0  0  0
  -31.4507  -24.8273   17.9956 H   0  0  0  0  0  0
  -31.5136  -22.5759   18.7717 H   0  0  0  0  0  0
  -30.6083  -22.3058   17.2936 H   0  0  0  0  0  0
  -27.8107  -23.7157   18.6845 H   0  0  0  0  0  0
  -28.2231  -23.6370   20.3912 H   0  0  0  0  0  0
  -30.2239  -24.9471   20.0507 H   0  0  0  0  0  0
  -27.7546  -17.1233   17.3701 H   0  0  0  0  0  0
  -28.7924  -18.5023   17.0416 H   0  0  0  0  0  0
  -27.1580  -18.7386   17.6753 H   0  0  0  0  0  0
  -27.7907  -21.0674   20.5652 H   0  0  0  0  0  0
  -26.9227  -20.2391   19.3332 H   0  0  0  0  0  0
  -28.1295  -26.0741   18.1145 H   0  0  0  0  0  0
  -29.6274  -26.8855   18.4706 H   0  0  0  0  0  0
  -27.9628  -21.6239   17.8368 H   0  0  0  0  0  0
  -29.3438  -20.6004   18.0423 H   0  0  0  0  0  0
  -29.4675  -14.9565   22.0548 H   0  0  0  0  0  0
  -29.8629  -22.1374   19.9835 H   0  0  0  0  0  0
  1 25  1  0  0  0
  1 30  2  0  0  0
  1 85  1  0  0  0
  2  3  1  0  0  0
  2 25  1  0  0  0
  2 87  1  0  0  0
  2 88  1  0  0  0
  3  4  1  0  0  0
  3 89  1  0  0  0
  3 90  1  0  0  0
  4  5  1  0  0  0
  4 91  1  0  0  0
  4 92  1  0  0  0
  5  6  1  0  0  0
  5 26  1  0  0  0
  5 93  1  0  0  0
  6 25  1  0  0  0
  6 94  1  0  0  0
  6 95  1  0  0  0
  7  8  2  0  0  0
  7 26  1  0  0  0
  7 29  1  0  0  0
  8  9  1  0  0  0
  8 22  1  0  0  0
  9 10  1  0  0  0
  9 27  2  0  0  0
 10 11  2  0  0  0
 10 15  1  0  0  0
 11 12  1  0  0  0
 11 96  1  0  0  0
 12 13  2  0  0  0
 12 97  1  0  0  0
 13 14  1  0  0  0
 13 31  1  0  0  0
 14 15  2  0  0  0
 14 98  1  0  0  0
 15 99  1  0  0  0
 16 17  2  0  0  0
 16 21  1  0  0  0
 16 31  1  0  0  0
 17 18  1  0  0  0
 17100  1  0  0  0
 18 19  2  0  0  0
 18101  1  0  0  0
 19 20  1  0  0  0
 19 24  1  0  0  0
 20 21  2  0  0  0
 20102  1  0  0  0
 21 23  1  0  0  0
 22 28  1  0  0  0
 22 32  2  0  0  0
 26 27  1  0  0  0
 28103  1  0  0  0
 28104  1  0  0  0
 29105  1  0  0  0
 29106  1  0  0  0
 33 34  1  0  0  0
 33 66  1  0  0  0
 33 70  2  0  0  0
 34 36  1  0  0  0
 34 59  1  0  0  0
 34107  1  0  0  0
 35 44  2  0  0  0
 35 45  1  0  0  0
 35 68  1  0  0  0
 36 56  1  0  0  0
 36108  1  0  0  0
 37 39  1  0  0  0
 37 47  1  0  0  0
 37 66  1  0  0  0
 37109  1  0  0  0
 38 43  2  0  0  0
 38 46  1  0  0  0
 38 47  1  0  0  0
 39 64  1  0  0  0
 39 67  2  0  0  0
 40 52  1  0  0  0
 40 53  2  0  0  0
 40 58  1  0  0  0
 41110  1  0  0  0
 41111  1  0  0  0
 41112  1  0  0  0
 41 48  1  0  0  0
 42 43  1  0  0  0
 42 66  1  0  0  0
 42113  1  0  0  0
 42114  1  0  0  0
 43 44  1  0  0  0
 44115  1  0  0  0
 45 46  2  0  0  0
 45116  1  0  0  0
 46117  1  0  0  0
 47118  1  0  0  0
 47119  1  0  0  0
 48 56  1  0  0  0
 48 65  1  0  0  0
 48120  1  0  0  0
 49 50  1  0  0  0
 49 53  1  0  0  0
 49 64  1  0  0  0
 49121  1  0  0  0
 50 51  1  0  0  0
 50122  1  0  0  0
 50123  1  0  0  0
 51 52  1  0  0  0
 51124  1  0  0  0
 51125  1  0  0  0
 52126  1  0  0  0
 52127  1  0  0  0
 53 54  1  0  0  0
 54 55  2  0  0  0
 54128  1  0  0  0
 55 57  1  0  0  0
 55129  1  0  0  0
 56 69  2  0  0  0
 57 58  2  0  0  0
 57130  1  0  0  0
 58131  1  0  0  0
 59 60  1  0  0  0
 59 61  1  0  0  0
 59 62  1  0  0  0
 60132  1  0  0  0
 60133  1  0  0  0
 60134  1  0  0  0
 61135  1  0  0  0
 61136  1  0  0  0
 61137  1  0  0  0
 62138  1  0  0  0
 62139  1  0  0  0
 62140  1  0  0  0
 63 65  1  0  0  0
 63141  1  0  0  0
 63142  1  0  0  0
 63143  1  0  0  0
 64144  1  0  0  0
 65145  1  0  0  0
 68 83  1  0  0  0
 71 72  2  0  0  0
 71 74  1  0  0  0
 71146  1  0  0  0
 72 76  1  0  0  0
 72147  1  0  0  0
 73 75  1  0  0  0
 73 76  2  0  0  0
 73148  1  0  0  0
 74 75  2  0  0  0
 74 82  1  0  0  0
 75 81  1  0  0  0
 76 85  1  0  0  0
 77 78  1  0  0  0
 77 80  1  0  0  0
 77149  1  0  0  0
 77150  1  0  0  0
 78 86  1  0  0  0
 78151  1  0  0  0
 78152  1  0  0  0
 79 80  1  0  0  0
 79 86  1  0  0  0
 79153  1  0  0  0
 79154  1  0  0  0
 80 83  1  0  0  0
 80155  1  0  0  0
 81156  1  0  0  0
 81157  1  0  0  0
 81158  1  0  0  0
 82 84  1  0  0  0
 82159  1  0  0  0
 82160  1  0  0  0
 83161  1  0  0  0
 83162  1  0  0  0
 84163  1  0  0  0
 84164  1  0  0  0
 84 86  1  0  0  0
 85165  1  0  0  0
 86166  1  0  0  0
M  CHG  1  86   1
M  ISO  4   1 100  68 101  83 101  85 100
M  END
> <chiral flag>
0

> <version>
0

> <s_m_source_file>
/data/baiqing/PycharmProjects/Reinvent-master-3.2/result/LINK_invent/BTK/process_docking_weight1_custom_product_contain_oxygen_bond_distance_aromatic_linkinvent_7_9_3/rearranged_h_0104.sdf

> <i_m_source_file_index>
66

> <r_mmod_Potential_Energy-OPLS-2005>
-52.2322845458984

> <r_mmod_Stretch_Energy-OPLS-2005>
34.7240142822266

> <r_mmod_Bend_Energy-OPLS-2005>
116.714866638184

> <r_mmod_Torsional_Energy-OPLS-2005>
352.095855712891

> <r_mmod_Improper_Torsional_Energy-OPLS-2005>
5.29065942764282

> <r_mmod_Van_der_Waal_Energy-OPLS-2005>
145.704574584961

> <r_mmod_Electrostatic_Energy-OPLS-2005>
-275.391418457031

> <r_mmod_Solvation_Energy-OPLS-2005>
-440.236083984375

> <b_mmod_Minimization_Converged-OPLS-2005>
0

> <r_mmod_RMS_Derivative-OPLS-2005>
2.70851349830627

$$$$
67
                    3D
 Structure written by MMmdl.
162170  0  0  1  0            999 V2000
  -30.7270  -14.4797   20.5337 C   0  0  0  0  0  0
  -30.4010  -12.3052   19.4248 C   0  0  0  0  0  0
  -29.4835  -12.4963   18.2032 C   0  0  0  0  0  0
  -28.0068  -12.3632   18.6175 C   0  0  0  0  0  0
  -27.6519  -13.2179   19.8662 C   0  0  2  0  0  0
  -28.6954  -13.0465   20.9926 C   0  0  0  0  0  0
  -25.2542  -13.8180   20.5692 C   0  0  0  0  0  0
  -24.1817  -13.0445   20.9198 C   0  0  0  0  0  0
  -24.6390  -11.6914   20.8741 C   0  0  0  0  0  0
  -23.9068  -10.4296   21.0401 C   0  0  0  0  0  0
  -24.3612   -9.4212   21.9188 C   0  0  0  0  0  0
  -23.6296   -8.2244   22.0762 C   0  0  0  0  0  0
  -22.4286   -8.0284   21.3552 C   0  0  0  0  0  0
  -21.9908   -9.0242   20.4652 C   0  0  0  0  0  0
  -22.7232  -10.2133   20.3063 C   0  0  0  0  0  0
  -21.6858   -6.0745   22.5277 C   0  0  0  0  0  0
  -21.4005   -6.5639   23.8216 C   0  0  0  0  0  0
  -21.3662   -5.6794   24.9174 C   0  0  0  0  0  0
  -21.6044   -4.3061   24.7230 C   0  0  0  0  0  0
  -21.8818   -3.8155   23.4348 C   0  0  0  0  0  0
  -21.9190   -4.6966   22.3404 C   0  0  0  0  0  0
  -22.7841  -13.5235   21.1858 C   0  0  0  0  0  0
  -22.1665   -4.2153   21.0980 F   0  0  0  0  0  0
  -21.5629   -3.4549   25.7739 F   0  0  0  0  0  0
  -30.0198  -13.3222   20.4199 N   0  0  0  0  0  0
  -26.2972  -12.9368   20.3343 N   0  0  0  0  0  0
  -25.9316  -11.6522   20.5761 N   0  0  0  0  0  0
  -22.0490  -12.8216   22.0405 N   0  0  0  0  0  0
  -25.4245  -15.1895   20.4099 N   0  0  0  0  0  0
  -31.8946  -14.5450   20.1388 O   0  0  0  0  0  0
  -21.6649   -6.8881   21.4244 O   0  0  0  0  0  0
  -22.3521  -14.5547   20.6724 O   0  0  0  0  0  0
  -24.6139  -31.8701   23.2078 C   0  0  0  0  0  0
  -25.9032  -32.4830   23.8394 C   0  0  1  0  0  0
  -27.2273  -27.4266   20.0967 C   0  0  0  0  0  0
  -25.5926  -33.8637   24.2322 N   0  0  0  0  0  0
  -23.3991  -30.4947   21.5470 C   0  0  2  0  0  0
  -24.8436  -28.9590   20.1130 C   0  0  0  0  0  0
  -22.7379  -29.4691   22.4954 C   0  0  0  0  0  0
  -18.0267  -28.1347   22.8491 C   0  0  0  0  0  0
  -24.1505  -36.7315   23.2633 C   0  0  0  0  0  0
  -25.9287  -30.8343   21.3602 C   0  0  0  0  0  0
  -26.0043  -29.4676   20.7077 C   0  0  0  0  0  0
  -27.1969  -28.7095   20.6928 C   0  0  0  0  0  0
  -26.0427  -26.9308   19.5037 C   0  0  0  0  0  0
  -24.8591  -27.6915   19.5083 C   0  0  0  0  0  0
  -23.6051  -29.8242   20.1610 C   0  0  0  0  0  0
  -25.4133  -36.3128   24.0326 C   0  0  1  0  0  0
  -20.5857  -28.3688   23.1276 C   0  0  2  0  0  0
  -20.6774  -26.9422   22.5388 C   0  0  0  0  0  0
  -19.5753  -26.6374   21.5184 C   0  0  0  0  0  0
  -18.1929  -26.7889   22.1594 C   0  0  0  0  0  0
  -19.1516  -28.8819   23.2898 C   0  0  0  0  0  0
  -18.9460  -30.1417   23.8933 C   0  0  0  0  0  0
  -17.6474  -30.6575   24.0549 C   0  0  0  0  0  0
  -25.9051  -34.9486   23.5110 C   0  0  0  0  0  0
  -16.5361  -29.9084   23.6319 C   0  0  0  0  0  0
  -16.7260  -28.6464   23.0380 C   0  0  0  0  0  0
  -26.4479  -31.6606   25.0703 C   0  0  0  0  0  0
  -25.3727  -31.3700   26.1429 C   0  0  0  0  0  0
  -27.0315  -30.3051   24.6067 C   0  0  0  0  0  0
  -27.6067  -32.4322   25.7462 C   0  0  0  0  0  0
  -27.5593  -37.1817   24.8455 C   0  0  0  0  0  0
  -21.4108  -29.3059   22.3685 N   0  0  0  0  0  0
  -26.4317  -37.3812   23.9394 N   0  0  0  0  0  0
  -24.6655  -31.0796   22.0976 N   0  0  0  0  0  0
  -23.4150  -28.8233   23.2990 O   0  0  0  0  0  0
  -28.4147  -26.7211   20.1169 O   0  0  0  0  0  0
  -26.5590  -34.8926   22.4648 O   0  0  0  0  0  0
  -23.5328  -32.1470   23.7445 O   0  0  0  0  0  0
  -28.9405  -18.4562   22.0998 C   0  0  0  0  0  0
  -28.8698  -20.0851   19.8181 C   0  0  0  0  0  0
  -29.5843  -18.0122   20.9241 C   0  0  0  0  0  0
  -28.3164  -19.7260   22.1528 C   0  0  0  0  0  0
  -29.4958  -18.8171   19.7543 C   0  0  0  0  0  0
  -28.3267  -20.5850   21.0260 C   0  0  0  0  0  0
  -30.5270  -16.8337   20.9872 C   0  0  0  0  0  0
  -27.6831  -20.1932   23.4516 C   0  0  0  0  0  0
  -29.2051  -17.3231   17.7213 C   0  0  0  0  0  0
  -30.0805  -18.3744   18.4170 C   0  0  0  0  0  0
  -27.9574  -24.3100   20.6653 C   0  0  0  0  0  0
  -28.4713  -25.3644   19.6485 C   0  0  0  0  0  0
  -28.2400  -22.8581   20.2027 C   0  0  0  0  0  0
  -30.0227  -15.5827   20.8879 N   0  0  0  0  0  0
  -31.7281  -17.1022   21.1064 O   0  0  0  0  0  0
  -27.8252  -21.8736   21.1613 O   0  0  0  0  0  0
  -31.4471  -12.3708   19.1212 H   0  0  0  0  0  0
  -30.2803  -11.3049   19.8451 H   0  0  0  0  0  0
  -29.7223  -11.7631   17.4326 H   0  0  0  0  0  0
  -29.6550  -13.4771   17.7575 H   0  0  0  0  0  0
  -27.8159  -11.3078   18.8218 H   0  0  0  0  0  0
  -27.3571  -12.6325   17.7836 H   0  0  0  0  0  0
  -27.6808  -14.2594   19.5441 H   0  0  0  0  0  0
  -28.6707  -12.0306   21.3877 H   0  0  0  0  0  0
  -28.4701  -13.7015   21.8354 H   0  0  0  0  0  0
  -25.2757   -9.5701   22.4755 H   0  0  0  0  0  0
  -24.0012   -7.4643   22.7471 H   0  0  0  0  0  0
  -21.0846   -8.8762   19.8941 H   0  0  0  0  0  0
  -22.3687  -10.9674   19.6168 H   0  0  0  0  0  0
  -21.1995   -7.6147   23.9714 H   0  0  0  0  0  0
  -21.1484   -6.0529   25.9073 H   0  0  0  0  0  0
  -22.0594   -2.7621   23.2851 H   0  0  0  0  0  0
  -22.4124  -11.9875   22.4769 H   0  0  0  0  0  0
  -21.1105  -13.1227   22.2630 H   0  0  0  0  0  0
  -24.6524  -15.8389   20.5167 H   0  0  0  0  0  0
  -26.2675  -15.6355   20.0728 H   0  0  0  0  0  0
  -26.7072  -32.5548   23.1139 H   0  0  0  0  0  0
  -25.0168  -33.9840   25.0525 H   0  0  0  0  0  0
  -22.6918  -31.3139   21.4048 H   0  0  0  0  0  0
  -23.3776  -35.9637   23.3305 H   0  0  0  0  0  0
  -24.3599  -36.8920   22.2048 H   0  0  0  0  0  0
  -23.7241  -37.6511   23.6637 H   0  0  0  0  0  0
  -26.0410  -31.6016   20.5930 H   0  0  0  0  0  0
  -26.8174  -30.8875   21.9784 H   0  0  0  0  0  0
  -28.0972  -29.1047   21.1438 H   0  0  0  0  0  0
  -26.0037  -25.9604   19.0345 H   0  0  0  0  0  0
  -23.9650  -27.2943   19.0498 H   0  0  0  0  0  0
  -23.7069  -30.5962   19.3980 H   0  0  0  0  0  0
  -22.7319  -29.2381   19.8687 H   0  0  0  0  0  0
  -25.1308  -36.2011   25.0820 H   0  0  0  0  0  0
  -20.9980  -28.3283   24.1381 H   0  0  0  0  0  0
  -20.5667  -26.2327   23.3600 H   0  0  0  0  0  0
  -21.6662  -26.7447   22.1217 H   0  0  0  0  0  0
  -19.6957  -25.6276   21.1248 H   0  0  0  0  0  0
  -19.6700  -27.3155   20.6689 H   0  0  0  0  0  0
  -17.4223  -26.6647   21.3976 H   0  0  0  0  0  0
  -18.0347  -25.9991   22.8956 H   0  0  0  0  0  0
  -19.7953  -30.7191   24.2352 H   0  0  0  0  0  0
  -17.5042  -31.6263   24.5137 H   0  0  0  0  0  0
  -15.5374  -30.3013   23.7581 H   0  0  0  0  0  0
  -15.8650  -28.0762   22.7140 H   0  0  0  0  0  0
  -24.5923  -30.7022   25.7736 H   0  0  0  0  0  0
  -24.8889  -32.2847   26.4863 H   0  0  0  0  0  0
  -25.8063  -30.8874   27.0192 H   0  0  0  0  0  0
  -26.2835  -29.6829   24.1133 H   0  0  0  0  0  0
  -27.4091  -29.7283   25.4528 H   0  0  0  0  0  0
  -27.8672  -30.4365   23.9182 H   0  0  0  0  0  0
  -27.2691  -33.3625   26.2041 H   0  0  0  0  0  0
  -28.3879  -32.6893   25.0282 H   0  0  0  0  0  0
  -28.0720  -31.8441   26.5385 H   0  0  0  0  0  0
  -28.2613  -38.0123   24.7543 H   0  0  0  0  0  0
  -28.1096  -36.2656   24.6253 H   0  0  0  0  0  0
  -27.2297  -37.1426   25.8854 H   0  0  0  0  0  0
  -20.9260  -29.8802   21.6928 H   0  0  0  0  0  0
  -26.0218  -38.2890   24.1387 H   0  0  0  0  0  0
  -28.9959  -17.8462   22.9920 H   0  0  0  0  0  0
  -28.8433  -20.6886   18.9213 H   0  0  0  0  0  0
  -27.6972  -19.4105   24.2099 H   0  0  0  0  0  0
  -26.6432  -20.4740   23.2874 H   0  0  0  0  0  0
  -28.2145  -21.0593   23.8455 H   0  0  0  0  0  0
  -29.6295  -17.0399   16.7571 H   0  0  0  0  0  0
  -28.1992  -17.7070   17.5418 H   0  0  0  0  0  0
  -29.1129  -16.4149   18.3153 H   0  0  0  0  0  0
  -31.0978  -18.0006   18.5424 H   0  0  0  0  0  0
  -30.1756  -19.2387   17.7578 H   0  0  0  0  0  0
  -26.8900  -24.4454   20.8413 H   0  0  0  0  0  0
  -28.4494  -24.4757   21.6242 H   0  0  0  0  0  0
  -27.9897  -25.2512   18.6771 H   0  0  0  0  0  0
  -29.5253  -25.1630   19.4537 H   0  0  0  0  0  0
  -29.3129  -22.7606   20.0285 H   0  0  0  0  0  0
  -27.7357  -22.6749   19.2538 H   0  0  0  0  0  0
  -29.0268  -15.4820   20.9770 H   0  0  0  0  0  0
  1 25  1  0  0  0
  1 30  2  0  0  0
  1 84  1  0  0  0
  2  3  1  0  0  0
  2 25  1  0  0  0
  2 87  1  0  0  0
  2 88  1  0  0  0
  3  4  1  0  0  0
  3 89  1  0  0  0
  3 90  1  0  0  0
  4  5  1  0  0  0
  4 91  1  0  0  0
  4 92  1  0  0  0
  5  6  1  0  0  0
  5 26  1  0  0  0
  5 93  1  0  0  0
  6 25  1  0  0  0
  6 94  1  0  0  0
  6 95  1  0  0  0
  7  8  2  0  0  0
  7 26  1  0  0  0
  7 29  1  0  0  0
  8  9  1  0  0  0
  8 22  1  0  0  0
  9 10  1  0  0  0
  9 27  2  0  0  0
 10 11  2  0  0  0
 10 15  1  0  0  0
 11 12  1  0  0  0
 11 96  1  0  0  0
 12 13  2  0  0  0
 12 97  1  0  0  0
 13 14  1  0  0  0
 13 31  1  0  0  0
 14 15  2  0  0  0
 14 98  1  0  0  0
 15 99  1  0  0  0
 16 17  2  0  0  0
 16 21  1  0  0  0
 16 31  1  0  0  0
 17 18  1  0  0  0
 17100  1  0  0  0
 18 19  2  0  0  0
 18101  1  0  0  0
 19 20  1  0  0  0
 19 24  1  0  0  0
 20 21  2  0  0  0
 20102  1  0  0  0
 21 23  1  0  0  0
 22 28  1  0  0  0
 22 32  2  0  0  0
 26 27  1  0  0  0
 28103  1  0  0  0
 28104  1  0  0  0
 29105  1  0  0  0
 29106  1  0  0  0
 33 34  1  0  0  0
 33 66  1  0  0  0
 33 70  2  0  0  0
 34 36  1  0  0  0
 34 59  1  0  0  0
 34107  1  0  0  0
 35 44  2  0  0  0
 35 45  1  0  0  0
 35 68  1  0  0  0
 36 56  1  0  0  0
 36108  1  0  0  0
 37 39  1  0  0  0
 37 47  1  0  0  0
 37 66  1  0  0  0
 37109  1  0  0  0
 38 43  2  0  0  0
 38 46  1  0  0  0
 38 47  1  0  0  0
 39 64  1  0  0  0
 39 67  2  0  0  0
 40 52  1  0  0  0
 40 53  2  0  0  0
 40 58  1  0  0  0
 41110  1  0  0  0
 41111  1  0  0  0
 41112  1  0  0  0
 41 48  1  0  0  0
 42 43  1  0  0  0
 42 66  1  0  0  0
 42113  1  0  0  0
 42114  1  0  0  0
 43 44  1  0  0  0
 44115  1  0  0  0
 45 46  2  0  0  0
 45116  1  0  0  0
 46117  1  0  0  0
 47118  1  0  0  0
 47119  1  0  0  0
 48 56  1  0  0  0
 48 65  1  0  0  0
 48120  1  0  0  0
 49 50  1  0  0  0
 49 53  1  0  0  0
 49 64  1  0  0  0
 49121  1  0  0  0
 50 51  1  0  0  0
 50122  1  0  0  0
 50123  1  0  0  0
 51 52  1  0  0  0
 51124  1  0  0  0
 51125  1  0  0  0
 52126  1  0  0  0
 52127  1  0  0  0
 53 54  1  0  0  0
 54 55  2  0  0  0
 54128  1  0  0  0
 55 57  1  0  0  0
 55129  1  0  0  0
 56 69  2  0  0  0
 57 58  2  0  0  0
 57130  1  0  0  0
 58131  1  0  0  0
 59 60  1  0  0  0
 59 61  1  0  0  0
 59 62  1  0  0  0
 60132  1  0  0  0
 60133  1  0  0  0
 60134  1  0  0  0
 61135  1  0  0  0
 61136  1  0  0  0
 61137  1  0  0  0
 62138  1  0  0  0
 62139  1  0  0  0
 62140  1  0  0  0
 63 65  1  0  0  0
 63141  1  0  0  0
 63142  1  0  0  0
 63143  1  0  0  0
 64144  1  0  0  0
 65145  1  0  0  0
 68 82  1  0  0  0
 71 73  2  0  0  0
 71 74  1  0  0  0
 71146  1  0  0  0
 72 75  2  0  0  0
 72 76  1  0  0  0
 72147  1  0  0  0
 73 75  1  0  0  0
 73 77  1  0  0  0
 74 76  2  0  0  0
 74 78  1  0  0  0
 75 80  1  0  0  0
 76 86  1  0  0  0
 77 84  1  0  0  0
 77 85  2  0  0  0
 78148  1  0  0  0
 78149  1  0  0  0
 78150  1  0  0  0
 79 80  1  0  0  0
 79151  1  0  0  0
 79152  1  0  0  0
 79153  1  0  0  0
 80154  1  0  0  0
 80155  1  0  0  0
 81 82  1  0  0  0
 81 83  1  0  0  0
 81156  1  0  0  0
 81157  1  0  0  0
 82158  1  0  0  0
 82159  1  0  0  0
 83 86  1  0  0  0
 83160  1  0  0  0
 83161  1  0  0  0
 84162  1  0  0  0
M  ISO  4   1 100  68 101  82 101  84 100
M  END
> <chiral flag>
0

> <version>
0

> <s_m_source_file>
/data/baiqing/PycharmProjects/Reinvent-master-3.2/result/LINK_invent/BTK/process_docking_weight1_custom_product_contain_oxygen_bond_distance_aromatic_linkinvent_7_9_3/rearranged_h_0104.sdf

> <i_m_source_file_index>
67

> <r_mmod_Potential_Energy-OPLS-2005>
-84.6763000488281

> <r_mmod_Stretch_Energy-OPLS-2005>
40.0000267028809

> <r_mmod_Bend_Energy-OPLS-2005>
108.421577453613

> <r_mmod_Torsional_Energy-OPLS-2005>
239.370590209961

> <r_mmod_Improper_Torsional_Energy-OPLS-2005>
6.18641710281372

> <r_mmod_Van_der_Waal_Energy-OPLS-2005>
159.810821533203

> <r_mmod_Electrostatic_Energy-OPLS-2005>
-435.225036621094

> <r_mmod_Solvation_Energy-OPLS-2005>
-221.687850952148

> <b_mmod_Minimization_Converged-OPLS-2005>
0

> <r_mmod_RMS_Derivative-OPLS-2005>
2.94994258880615

$$$$
68
                    3D
 Structure written by MMmdl.
158167  0  0  1  0            999 V2000
  -30.6625  -14.6779   20.4060 C   0  0  0  0  0  0
  -30.4248  -12.4086   19.4521 C   0  0  0  0  0  0
  -29.5067  -12.5050   18.2162 C   0  0  0  0  0  0
  -28.0346  -12.3312   18.6412 C   0  0  0  0  0  0
  -27.6404  -13.2312   19.8446 C   0  0  2  0  0  0
  -28.6904  -13.1770   20.9755 C   0  0  0  0  0  0
  -25.2505  -13.8203   20.5696 C   0  0  0  0  0  0
  -24.1803  -13.0391   20.9195 C   0  0  0  0  0  0
  -24.6401  -11.6881   20.8697 C   0  0  0  0  0  0
  -23.9021  -10.4267   21.0375 C   0  0  0  0  0  0
  -24.3568   -9.4211   21.9170 C   0  0  0  0  0  0
  -23.6242   -8.2246   22.0757 C   0  0  0  0  0  0
  -22.4258   -8.0239   21.3541 C   0  0  0  0  0  0
  -21.9851   -9.0205   20.4678 C   0  0  0  0  0  0
  -22.7166  -10.2092   20.3051 C   0  0  0  0  0  0
  -21.6858   -6.0681   22.5254 C   0  0  0  0  0  0
  -21.4026   -6.5610   23.8181 C   0  0  0  0  0  0
  -21.3671   -5.6777   24.9172 C   0  0  0  0  0  0
  -21.6054   -4.3032   24.7244 C   0  0  0  0  0  0
  -21.8807   -3.8102   23.4367 C   0  0  0  0  0  0
  -21.9213   -4.6907   22.3412 C   0  0  0  0  0  0
  -22.7859  -13.5197   21.1873 C   0  0  0  0  0  0
  -22.1684   -4.2066   21.0984 F   0  0  0  0  0  0
  -21.5638   -3.4530   25.7779 F   0  0  0  0  0  0
  -29.9973  -13.4805   20.3744 N   0  0  0  0  0  0
  -26.2926  -12.9380   20.3257 N   0  0  0  0  0  0
  -25.9330  -11.6513   20.5648 N   0  0  0  0  0  0
  -22.0499  -12.8185   22.0452 N   0  0  0  0  0  0
  -25.4123  -15.1941   20.4233 N   0  0  0  0  0  0
  -31.8674  -14.7258   20.1581 O   0  0  0  0  0  0
  -21.6684   -6.8794   21.4197 O   0  0  0  0  0  0
  -22.3536  -14.5488   20.6750 O   0  0  0  0  0  0
  -24.6244  -31.8542   23.2064 C   0  0  0  0  0  0
  -25.9096  -32.4697   23.8340 C   0  0  1  0  0  0
  -27.1938  -27.2895   20.0734 C   0  0  0  0  0  0
  -25.5971  -33.8531   24.2258 N   0  0  0  0  0  0
  -23.4176  -30.4841   21.5485 C   0  0  2  0  0  0
  -24.8574  -28.9383   20.1149 C   0  0  0  0  0  0
  -22.7445  -29.4622   22.4954 C   0  0  0  0  0  0
  -18.0267  -28.1413   22.8440 C   0  0  0  0  0  0
  -24.1514  -36.7244   23.2635 C   0  0  0  0  0  0
  -25.9652  -30.7627   21.3955 C   0  0  0  0  0  0
  -26.0272  -29.3929   20.7309 C   0  0  0  0  0  0
  -27.1942  -28.5669   20.7260 C   0  0  0  0  0  0
  -26.0063  -26.9233   19.4080 C   0  0  0  0  0  0
  -24.8451  -27.7065   19.4572 C   0  0  0  0  0  0
  -23.6282  -29.8147   20.1659 C   0  0  0  0  0  0
  -25.4135  -36.3018   24.0302 C   0  0  1  0  0  0
  -20.5858  -28.3744   23.1257 C   0  0  2  0  0  0
  -20.6765  -26.9467   22.5399 C   0  0  0  0  0  0
  -19.5756  -26.6411   21.5182 C   0  0  0  0  0  0
  -18.1933  -26.7934   22.1605 C   0  0  0  0  0  0
  -19.1514  -28.8875   23.2837 C   0  0  0  0  0  0
  -18.9449  -30.1478   23.8868 C   0  0  0  0  0  0
  -17.6459  -30.6608   24.0550 C   0  0  0  0  0  0
  -25.9082  -34.9395   23.5047 C   0  0  0  0  0  0
  -16.5343  -29.9104   23.6335 C   0  0  0  0  0  0
  -16.7248  -28.6533   23.0320 C   0  0  0  0  0  0
  -26.4540  -31.6517   25.0678 C   0  0  0  0  0  0
  -25.3797  -31.3628   26.1385 C   0  0  0  0  0  0
  -27.0408  -30.2885   24.6257 C   0  0  0  0  0  0
  -27.6082  -32.4261   25.7440 C   0  0  0  0  0  0
  -27.5582  -37.1769   24.8457 C   0  0  0  0  0  0
  -21.4166  -29.3076   22.3646 N   0  0  0  0  0  0
  -26.4300  -37.3712   23.9383 N   0  0  0  0  0  0
  -24.6860  -31.0553   22.1044 N   0  0  0  0  0  0
  -23.4155  -28.8152   23.3032 O   0  0  0  0  0  0
  -28.2854  -26.4057   20.1164 O   0  0  0  0  0  0
  -26.5658  -34.8861   22.4629 O   0  0  0  0  0  0
  -23.5434  -32.1406   23.7394 O   0  0  0  0  0  0
  -28.8620  -19.2060   20.8250 C   0  0  0  0  0  0
  -30.0632  -19.2097   18.7452 C   0  0  0  0  0  0
  -28.3630  -20.5141   20.5440 C   0  0  0  0  0  0
  -29.5378  -20.5091   18.4511 C   0  0  0  0  0  0
  -29.7414  -18.5209   19.9499 C   0  0  0  0  0  0
  -28.6877  -21.2124   19.3531 C   0  0  0  0  0  0
  -26.9921  -22.3978   18.1917 C   0  0  0  0  0  0
  -25.8058  -23.1825   18.7219 C   0  0  0  0  0  0
  -26.3078  -23.6324   20.1084 C   0  0  0  0  0  0
  -27.8359  -23.6822   19.9438 C   0  0  2  0  0  0
  -30.5227  -17.2297   20.4102 C   0  0  0  0  0  0
  -28.3067  -25.1155   19.3603 C   0  0  0  0  0  0
  -28.0628  -22.5005   19.0102 N   0  0  0  0  0  0
  -29.9338  -15.8414   20.4706 N   0  0  0  0  0  0
  -26.9206  -21.7346   17.1498 O   0  0  0  0  0  0
  -31.4728  -12.4871   19.1671 H   0  0  0  0  0  0
  -30.3180  -11.4333   19.9235 H   0  0  0  0  0  0
  -29.7715  -11.7533   17.4697 H   0  0  0  0  0  0
  -29.6429  -13.4682   17.7300 H   0  0  0  0  0  0
  -27.8917  -11.2804   18.8972 H   0  0  0  0  0  0
  -27.3694  -12.5325   17.8053 H   0  0  0  0  0  0
  -27.6305  -14.2552   19.4679 H   0  0  0  0  0  0
  -28.6987  -12.1972   21.4595 H   0  0  0  0  0  0
  -28.4565  -13.9017   21.7597 H   0  0  0  0  0  0
  -25.2698   -9.5704   22.4760 H   0  0  0  0  0  0
  -23.9967   -7.4631   22.7466 H   0  0  0  0  0  0
  -21.0777   -8.8689   19.8971 H   0  0  0  0  0  0
  -22.3573  -10.9620   19.6169 H   0  0  0  0  0  0
  -21.2009   -7.6113   23.9646 H   0  0  0  0  0  0
  -21.1520   -6.0541   25.9059 H   0  0  0  0  0  0
  -22.0578   -2.7538   23.2936 H   0  0  0  0  0  0
  -22.4176  -11.9892   22.4848 H   0  0  0  0  0  0
  -21.1101  -13.1162   22.2620 H   0  0  0  0  0  0
  -24.6264  -15.8249   20.5474 H   0  0  0  0  0  0
  -26.2520  -15.6533   20.0848 H   0  0  0  0  0  0
  -26.7150  -32.5339   23.1081 H   0  0  0  0  0  0
  -25.0047  -33.9663   25.0351 H   0  0  0  0  0  0
  -22.7166  -31.3103   21.4046 H   0  0  0  0  0  0
  -23.3762  -35.9595   23.3271 H   0  0  0  0  0  0
  -24.3588  -36.8886   22.2053 H   0  0  0  0  0  0
  -23.7327  -37.6445   23.6695 H   0  0  0  0  0  0
  -26.1332  -31.5339   20.6467 H   0  0  0  0  0  0
  -26.8316  -30.7862   22.0449 H   0  0  0  0  0  0
  -28.0768  -28.8833   21.2667 H   0  0  0  0  0  0
  -25.9255  -26.0067   18.8545 H   0  0  0  0  0  0
  -23.9414  -27.3559   18.9765 H   0  0  0  0  0  0
  -23.7578  -30.5857   19.4088 H   0  0  0  0  0  0
  -22.7487  -29.2445   19.8564 H   0  0  0  0  0  0
  -25.1353  -36.1829   25.0802 H   0  0  0  0  0  0
  -20.9932  -28.3347   24.1376 H   0  0  0  0  0  0
  -20.5677  -26.2354   23.3619 H   0  0  0  0  0  0
  -21.6636  -26.7504   22.1197 H   0  0  0  0  0  0
  -19.6944  -25.6321   21.1221 H   0  0  0  0  0  0
  -19.6675  -27.3217   20.6713 H   0  0  0  0  0  0
  -17.4193  -26.6629   21.4024 H   0  0  0  0  0  0
  -18.0390  -26.0086   22.9033 H   0  0  0  0  0  0
  -19.7937  -30.7285   24.2240 H   0  0  0  0  0  0
  -17.5018  -31.6275   24.5208 H   0  0  0  0  0  0
  -15.5347  -30.3006   23.7689 H   0  0  0  0  0  0
  -15.8641  -28.0858   22.7042 H   0  0  0  0  0  0
  -24.5999  -30.6968   25.7669 H   0  0  0  0  0  0
  -24.8994  -32.2792   26.4812 H   0  0  0  0  0  0
  -25.8118  -30.8771   27.0158 H   0  0  0  0  0  0
  -26.3008  -29.6543   24.1326 H   0  0  0  0  0  0
  -27.4069  -29.7202   25.4856 H   0  0  0  0  0  0
  -27.8939  -30.4032   23.9536 H   0  0  0  0  0  0
  -27.2664  -33.3556   26.2037 H   0  0  0  0  0  0
  -28.3900  -32.6829   25.0257 H   0  0  0  0  0  0
  -28.0793  -31.8380   26.5367 H   0  0  0  0  0  0
  -28.2585  -38.0076   24.7458 H   0  0  0  0  0  0
  -28.1102  -36.2586   24.6357 H   0  0  0  0  0  0
  -27.2252  -37.1464   25.8847 H   0  0  0  0  0  0
  -20.9428  -29.8721   21.6737 H   0  0  0  0  0  0
  -26.0148  -38.2774   24.1372 H   0  0  0  0  0  0
  -28.5922  -18.7409   21.7622 H   0  0  0  0  0  0
  -30.7385  -18.7492   18.0343 H   0  0  0  0  0  0
  -27.7002  -20.9778   21.2626 H   0  0  0  0  0  0
  -29.7958  -20.9785   17.5085 H   0  0  0  0  0  0
  -24.9115  -22.5597   18.7885 H   0  0  0  0  0  0
  -25.6093  -24.0010   18.0343 H   0  0  0  0  0  0
  -25.8617  -24.5549   20.4651 H   0  0  0  0  0  0
  -26.0338  -22.8757   20.8521 H   0  0  0  0  0  0
  -28.3363  -23.4935   20.8968 H   0  0  0  0  0  0
  -30.8331  -17.4516   21.4370 H   0  0  0  0  0  0
  -31.4557  -17.1967   19.8426 H   0  0  0  0  0  0
  -29.3624  -24.9980   19.1198 H   0  0  0  0  0  0
  -27.8577  -25.2790   18.3791 H   0  0  0  0  0  0
  -28.9418  -15.7568   20.6175 H   0  0  0  0  0  0
  1 25  1  0  0  0
  1 30  2  0  0  0
  1 84  1  0  0  0
  2  3  1  0  0  0
  2 25  1  0  0  0
  2 86  1  0  0  0
  2 87  1  0  0  0
  3  4  1  0  0  0
  3 88  1  0  0  0
  3 89  1  0  0  0
  4  5  1  0  0  0
  4 90  1  0  0  0
  4 91  1  0  0  0
  5  6  1  0  0  0
  5 26  1  0  0  0
  5 92  1  0  0  0
  6 25  1  0  0  0
  6 93  1  0  0  0
  6 94  1  0  0  0
  7  8  2  0  0  0
  7 26  1  0  0  0
  7 29  1  0  0  0
  8  9  1  0  0  0
  8 22  1  0  0  0
  9 10  1  0  0  0
  9 27  2  0  0  0
 10 11  2  0  0  0
 10 15  1  0  0  0
 11 12  1  0  0  0
 11 95  1  0  0  0
 12 13  2  0  0  0
 12 96  1  0  0  0
 13 14  1  0  0  0
 13 31  1  0  0  0
 14 15  2  0  0  0
 14 97  1  0  0  0
 15 98  1  0  0  0
 16 17  2  0  0  0
 16 21  1  0  0  0
 16 31  1  0  0  0
 17 18  1  0  0  0
 17 99  1  0  0  0
 18 19  2  0  0  0
 18100  1  0  0  0
 19 20  1  0  0  0
 19 24  1  0  0  0
 20 21  2  0  0  0
 20101  1  0  0  0
 21 23  1  0  0  0
 22 28  1  0  0  0
 22 32  2  0  0  0
 26 27  1  0  0  0
 28102  1  0  0  0
 28103  1  0  0  0
 29104  1  0  0  0
 29105  1  0  0  0
 33 34  1  0  0  0
 33 66  1  0  0  0
 33 70  2  0  0  0
 34 36  1  0  0  0
 34 59  1  0  0  0
 34106  1  0  0  0
 35 44  2  0  0  0
 35 45  1  0  0  0
 35 68  1  0  0  0
 36 56  1  0  0  0
 36107  1  0  0  0
 37 39  1  0  0  0
 37 47  1  0  0  0
 37 66  1  0  0  0
 37108  1  0  0  0
 38 43  2  0  0  0
 38 46  1  0  0  0
 38 47  1  0  0  0
 39 64  1  0  0  0
 39 67  2  0  0  0
 40 52  1  0  0  0
 40 53  2  0  0  0
 40 58  1  0  0  0
 41109  1  0  0  0
 41110  1  0  0  0
 41111  1  0  0  0
 41 48  1  0  0  0
 42 43  1  0  0  0
 42 66  1  0  0  0
 42112  1  0  0  0
 42113  1  0  0  0
 43 44  1  0  0  0
 44114  1  0  0  0
 45 46  2  0  0  0
 45115  1  0  0  0
 46116  1  0  0  0
 47117  1  0  0  0
 47118  1  0  0  0
 48 56  1  0  0  0
 48 65  1  0  0  0
 48119  1  0  0  0
 49 50  1  0  0  0
 49 53  1  0  0  0
 49 64  1  0  0  0
 49120  1  0  0  0
 50 51  1  0  0  0
 50121  1  0  0  0
 50122  1  0  0  0
 51 52  1  0  0  0
 51123  1  0  0  0
 51124  1  0  0  0
 52125  1  0  0  0
 52126  1  0  0  0
 53 54  1  0  0  0
 54 55  2  0  0  0
 54127  1  0  0  0
 55 57  1  0  0  0
 55128  1  0  0  0
 56 69  2  0  0  0
 57 58  2  0  0  0
 57129  1  0  0  0
 58130  1  0  0  0
 59 60  1  0  0  0
 59 61  1  0  0  0
 59 62  1  0  0  0
 60131  1  0  0  0
 60132  1  0  0  0
 60133  1  0  0  0
 61134  1  0  0  0
 61135  1  0  0  0
 61136  1  0  0  0
 62137  1  0  0  0
 62138  1  0  0  0
 62139  1  0  0  0
 63 65  1  0  0  0
 63140  1  0  0  0
 63141  1  0  0  0
 63142  1  0  0  0
 64143  1  0  0  0
 65144  1  0  0  0
 68 82  1  0  0  0
 71 73  2  0  0  0
 71 75  1  0  0  0
 71145  1  0  0  0
 72 74  1  0  0  0
 72 75  2  0  0  0
 72146  1  0  0  0
 73 76  1  0  0  0
 73147  1  0  0  0
 74 76  2  0  0  0
 74148  1  0  0  0
 75 81  1  0  0  0
 76 83  1  0  0  0
 77 78  1  0  0  0
 77 83  1  0  0  0
 77 85  2  0  0  0
 78 79  1  0  0  0
 78149  1  0  0  0
 78150  1  0  0  0
 79 80  1  0  0  0
 79151  1  0  0  0
 79152  1  0  0  0
 80 82  1  0  0  0
 80 83  1  0  0  0
 80153  1  0  0  0
 81 84  1  0  0  0
 81154  1  0  0  0
 81155  1  0  0  0
 82156  1  0  0  0
 82157  1  0  0  0
 84158  1  0  0  0
M  ISO  4   1 100  68 101  82 101  84 100
M  END
> <chiral flag>
0

> <version>
0

> <s_m_source_file>
/data/baiqing/PycharmProjects/Reinvent-master-3.2/result/LINK_invent/BTK/process_docking_weight1_custom_product_contain_oxygen_bond_distance_aromatic_linkinvent_7_9_3/rearranged_h_0104.sdf

> <i_m_source_file_index>
68

> <r_mmod_Potential_Energy-OPLS-2005>
200.177627563477

> <r_mmod_Stretch_Energy-OPLS-2005>
93.7256851196289

> <r_mmod_Bend_Energy-OPLS-2005>
198.210494995117

> <r_mmod_Torsional_Energy-OPLS-2005>
300.895935058594

> <r_mmod_Improper_Torsional_Energy-OPLS-2005>
10.1942958831787

> <r_mmod_Van_der_Waal_Energy-OPLS-2005>
142.989303588867

> <r_mmod_Electrostatic_Energy-OPLS-2005>
-393.434478759766

> <r_mmod_Solvation_Energy-OPLS-2005>
-224.472412109375

> <b_mmod_Minimization_Converged-OPLS-2005>
0

> <r_mmod_RMS_Derivative-OPLS-2005>
8.20101070404053

$$$$
69
                    3D
 Structure written by MMmdl.
168176  0  0  1  0            999 V2000
  -30.6931  -14.4967   20.6389 C   0  0  0  0  0  0
  -30.4420  -12.3323   19.4507 C   0  0  0  0  0  0
  -29.5119  -12.4825   18.2289 C   0  0  0  0  0  0
  -28.0314  -12.3413   18.6397 C   0  0  0  0  0  0
  -27.6695  -13.1978   19.8803 C   0  0  2  0  0  0
  -28.6994  -12.9811   21.0075 C   0  0  0  0  0  0
  -25.2673  -13.8160   20.5682 C   0  0  0  0  0  0
  -24.1902  -13.0461   20.9165 C   0  0  0  0  0  0
  -24.6444  -11.6915   20.8754 C   0  0  0  0  0  0
  -23.9098  -10.4302   21.0428 C   0  0  0  0  0  0
  -24.3643   -9.4205   21.9186 C   0  0  0  0  0  0
  -23.6299   -8.2247   22.0758 C   0  0  0  0  0  0
  -22.4286   -8.0306   21.3545 C   0  0  0  0  0  0
  -21.9923   -9.0285   20.4642 C   0  0  0  0  0  0
  -22.7277  -10.2167   20.3065 C   0  0  0  0  0  0
  -21.6857   -6.0753   22.5277 C   0  0  0  0  0  0
  -21.4011   -6.5651   23.8207 C   0  0  0  0  0  0
  -21.3651   -5.6801   24.9165 C   0  0  0  0  0  0
  -21.6045   -4.3072   24.7213 C   0  0  0  0  0  0
  -21.8820   -3.8166   23.4329 C   0  0  0  0  0  0
  -21.9187   -4.6987   22.3393 C   0  0  0  0  0  0
  -22.7928  -13.5260   21.1838 C   0  0  0  0  0  0
  -22.1663   -4.2171   21.0978 F   0  0  0  0  0  0
  -21.5622   -3.4550   25.7721 F   0  0  0  0  0  0
  -30.0334  -13.3117   20.4732 N   0  0  0  0  0  0
  -26.3081  -12.9304   20.3358 N   0  0  0  0  0  0
  -25.9363  -11.6474   20.5780 N   0  0  0  0  0  0
  -22.0572  -12.8234   22.0380 N   0  0  0  0  0  0
  -25.4504  -15.1855   20.4103 N   0  0  0  0  0  0
  -31.7412  -14.7497   20.0376 O   0  0  0  0  0  0
  -21.6643   -6.8906   21.4241 O   0  0  0  0  0  0
  -22.3612  -14.5573   20.6705 O   0  0  0  0  0  0
  -24.6137  -31.8633   23.2075 C   0  0  0  0  0  0
  -25.9017  -32.4812   23.8386 C   0  0  1  0  0  0
  -27.2501  -27.4173   20.1281 C   0  0  0  0  0  0
  -25.5856  -33.8609   24.2325 N   0  0  0  0  0  0
  -23.4059  -30.4840   21.5427 C   0  0  2  0  0  0
  -24.8587  -28.9394   20.1221 C   0  0  0  0  0  0
  -22.7404  -29.4633   22.4938 C   0  0  0  0  0  0
  -18.0264  -28.1391   22.8472 C   0  0  0  0  0  0
  -24.1481  -36.7329   23.2638 C   0  0  0  0  0  0
  -25.9324  -30.8324   21.3547 C   0  0  0  0  0  0
  -26.0156  -29.4605   20.7133 C   0  0  0  0  0  0
  -27.2141  -28.7078   20.7077 C   0  0  0  0  0  0
  -26.0721  -26.9097   19.5344 C   0  0  0  0  0  0
  -24.8805  -27.6652   19.5286 C   0  0  0  0  0  0
  -23.6205  -29.8082   20.1607 C   0  0  0  0  0  0
  -25.4105  -36.3115   24.0340 C   0  0  1  0  0  0
  -20.5850  -28.3676   23.1287 C   0  0  2  0  0  0
  -20.6749  -26.9407   22.5401 C   0  0  0  0  0  0
  -19.5742  -26.6390   21.5184 C   0  0  0  0  0  0
  -18.1922  -26.7924   22.1615 C   0  0  0  0  0  0
  -19.1513  -28.8846   23.2884 C   0  0  0  0  0  0
  -18.9452  -30.1441   23.8919 C   0  0  0  0  0  0
  -17.6463  -30.6595   24.0570 C   0  0  0  0  0  0
  -25.9020  -34.9474   23.5137 C   0  0  0  0  0  0
  -16.5350  -29.9113   23.6329 C   0  0  0  0  0  0
  -16.7254  -28.6529   23.0342 C   0  0  0  0  0  0
  -26.4472  -31.6589   25.0703 C   0  0  0  0  0  0
  -25.3803  -31.3650   26.1498 C   0  0  0  0  0  0
  -27.0271  -30.3038   24.6013 C   0  0  0  0  0  0
  -27.6055  -32.4315   25.7450 C   0  0  0  0  0  0
  -27.5578  -37.1822   24.8477 C   0  0  0  0  0  0
  -21.4126  -29.3047   22.3695 N   0  0  0  0  0  0
  -26.4298  -37.3799   23.9402 N   0  0  0  0  0  0
  -24.6695  -31.0738   22.0958 N   0  0  0  0  0  0
  -23.4181  -28.8156   23.2968 O   0  0  0  0  0  0
  -28.4330  -26.7004   20.1513 O   0  0  0  0  0  0
  -26.5586  -34.8919   22.4701 O   0  0  0  0  0  0
  -23.5326  -32.1344   23.7487 O   0  0  0  0  0  0
  -30.5726  -18.7582   20.0160 C   0  0  0  0  0  0
  -28.7773  -19.0246   21.6137 C   0  0  0  0  0  0
  -29.7323  -18.1842   21.0043 C   0  0  0  0  0  0
  -30.4603  -20.1314   19.6651 C   0  0  0  0  0  0
  -28.6478  -20.3989   21.2762 C   0  0  0  0  0  0
  -29.5236  -20.9722   20.3240 C   0  0  0  0  0  0
  -29.7928  -16.7735   21.5089 C   0  0  0  0  0  0
  -30.0804  -15.4381   21.6025 C   0  0  0  0  0  0
  -31.2914  -20.6577   18.5538 C   0  0  0  0  0  0
  -32.7912  -20.4324   18.6534 C   0  0  0  0  0  0
  -25.5913  -22.5705   23.6275 C   0  0  0  0  0  0
  -25.3890  -21.6420   22.4263 C   0  0  0  0  0  0
  -29.7704  -24.7181   20.6952 C   0  0  0  0  0  0
  -26.4945  -20.5873   22.2961 C   0  0  0  0  0  0
  -28.3637  -25.2745   20.3562 C   0  0  0  0  0  0
  -29.8686  -23.2104   21.0556 C   0  0  0  0  0  0
  -30.8367  -21.2833   17.5906 O   0  0  0  0  0  0
  -27.6812  -21.2131   21.8265 O   0  0  0  0  0  0
  -29.4314  -22.3236   20.0182 O   0  0  0  0  0  0
  -31.4841  -12.4597   19.1514 H   0  0  0  0  0  0
  -30.3759  -11.3239   19.8641 H   0  0  0  0  0  0
  -29.7645  -11.7256   17.4848 H   0  0  0  0  0  0
  -29.6778  -13.4504   17.7559 H   0  0  0  0  0  0
  -27.8572  -11.2881   18.8659 H   0  0  0  0  0  0
  -27.3798  -12.5825   17.7994 H   0  0  0  0  0  0
  -27.7199  -14.2435   19.5759 H   0  0  0  0  0  0
  -28.6861  -11.9430   21.3448 H   0  0  0  0  0  0
  -28.4125  -13.5607   21.8842 H   0  0  0  0  0  0
  -25.2780   -9.5679   22.4760 H   0  0  0  0  0  0
  -23.9990   -7.4649   22.7498 H   0  0  0  0  0  0
  -21.0846   -8.8859   19.8945 H   0  0  0  0  0  0
  -22.3753  -10.9733   19.6197 H   0  0  0  0  0  0
  -21.2018   -7.6161   23.9718 H   0  0  0  0  0  0
  -21.1464   -6.0533   25.9074 H   0  0  0  0  0  0
  -22.0605   -2.7630   23.2825 H   0  0  0  0  0  0
  -22.4174  -11.9830   22.4667 H   0  0  0  0  0  0
  -21.1233  -13.1324   22.2683 H   0  0  0  0  0  0
  -24.7089  -15.8630   20.5492 H   0  0  0  0  0  0
  -26.3214  -15.6089   20.1160 H   0  0  0  0  0  0
  -26.7071  -32.5538   23.1151 H   0  0  0  0  0  0
  -25.0045  -33.9777   25.0490 H   0  0  0  0  0  0
  -22.6974  -31.3007   21.3946 H   0  0  0  0  0  0
  -23.3726  -35.9689   23.3362 H   0  0  0  0  0  0
  -24.3546  -36.8877   22.2038 H   0  0  0  0  0  0
  -23.7266  -37.6564   23.6611 H   0  0  0  0  0  0
  -26.0265  -31.5913   20.5768 H   0  0  0  0  0  0
  -26.8263  -30.9044   21.9621 H   0  0  0  0  0  0
  -28.1075  -29.1062   21.1667 H   0  0  0  0  0  0
  -26.0668  -25.9328   19.0731 H   0  0  0  0  0  0
  -23.9902  -27.2534   19.0757 H   0  0  0  0  0  0
  -23.7383  -30.5749   19.3939 H   0  0  0  0  0  0
  -22.7493  -29.2220   19.8622 H   0  0  0  0  0  0
  -25.1292  -36.1991   25.0835 H   0  0  0  0  0  0
  -20.9946  -28.3249   24.1407 H   0  0  0  0  0  0
  -20.5597  -26.2302   23.3603 H   0  0  0  0  0  0
  -21.6629  -26.7419   22.1232 H   0  0  0  0  0  0
  -19.6906  -25.6297   21.1227 H   0  0  0  0  0  0
  -19.6686  -27.3188   20.6700 H   0  0  0  0  0  0
  -17.4172  -26.6606   21.4046 H   0  0  0  0  0  0
  -18.0392  -26.0083   22.9045 H   0  0  0  0  0  0
  -19.7934  -30.7215   24.2327 H   0  0  0  0  0  0
  -17.5037  -31.6270   24.5181 H   0  0  0  0  0  0
  -15.5360  -30.3038   23.7640 H   0  0  0  0  0  0
  -15.8646  -28.0857   22.7070 H   0  0  0  0  0  0
  -24.5981  -30.6971   25.7872 H   0  0  0  0  0  0
  -24.9006  -32.2783   26.5014 H   0  0  0  0  0  0
  -25.8243  -30.8805   27.0207 H   0  0  0  0  0  0
  -26.2736  -29.6785   24.1204 H   0  0  0  0  0  0
  -27.4197  -29.7275   25.4397 H   0  0  0  0  0  0
  -27.8513  -30.4361   23.9009 H   0  0  0  0  0  0
  -27.2674  -33.3629   26.2003 H   0  0  0  0  0  0
  -28.3872  -32.6842   25.0282 H   0  0  0  0  0  0
  -28.0705  -31.8455   26.5386 H   0  0  0  0  0  0
  -28.2640  -38.0074   24.7471 H   0  0  0  0  0  0
  -28.1022  -36.2603   24.6388 H   0  0  0  0  0  0
  -27.2277  -37.1585   25.8874 H   0  0  0  0  0  0
  -20.9287  -29.8823   21.6960 H   0  0  0  0  0  0
  -26.0196  -38.2875   24.1406 H   0  0  0  0  0  0
  -31.3055  -18.1390   19.5173 H   0  0  0  0  0  0
  -28.1313  -18.5864   22.3608 H   0  0  0  0  0  0
  -29.9487  -16.6212   20.4550 H   0  0  0  0  0  0
  -29.8448  -15.0145   22.5667 H   0  0  0  0  0  0
  -33.0223  -19.5437   19.2373 H   0  0  0  0  0  0
  -33.2546  -21.2926   19.1363 H   0  0  0  0  0  0
  -33.2263  -20.3153   17.6613 H   0  0  0  0  0  0
  -24.8021  -23.3200   23.6792 H   0  0  0  0  0  0
  -26.5465  -23.0906   23.5679 H   0  0  0  0  0  0
  -25.5774  -22.0069   24.5606 H   0  0  0  0  0  0
  -25.3246  -22.2281   21.5092 H   0  0  0  0  0  0
  -24.4281  -21.1347   22.5330 H   0  0  0  0  0  0
  -30.1584  -25.2794   21.5483 H   0  0  0  0  0  0
  -30.4538  -24.9329   19.8747 H   0  0  0  0  0  0
  -26.1692  -19.8248   21.5868 H   0  0  0  0  0  0
  -26.6684  -20.0976   23.2562 H   0  0  0  0  0  0
  -27.6706  -25.0464   21.1685 H   0  0  0  0  0  0
  -27.9950  -24.7838   19.4565 H   0  0  0  0  0  0
  -29.3459  -23.0194   21.9912 H   0  0  0  0  0  0
  -30.9195  -22.9878   21.2526 H   0  0  0  0  0  0
  1 25  1  0  0  0
  1 30  2  0  0  0
  1 78  1  0  0  0
  2  3  1  0  0  0
  2 25  1  0  0  0
  2 90  1  0  0  0
  2 91  1  0  0  0
  3  4  1  0  0  0
  3 92  1  0  0  0
  3 93  1  0  0  0
  4  5  1  0  0  0
  4 94  1  0  0  0
  4 95  1  0  0  0
  5  6  1  0  0  0
  5 26  1  0  0  0
  5 96  1  0  0  0
  6 25  1  0  0  0
  6 97  1  0  0  0
  6 98  1  0  0  0
  7  8  2  0  0  0
  7 26  1  0  0  0
  7 29  1  0  0  0
  8  9  1  0  0  0
  8 22  1  0  0  0
  9 10  1  0  0  0
  9 27  2  0  0  0
 10 11  2  0  0  0
 10 15  1  0  0  0
 11 12  1  0  0  0
 11 99  1  0  0  0
 12 13  2  0  0  0
 12100  1  0  0  0
 13 14  1  0  0  0
 13 31  1  0  0  0
 14 15  2  0  0  0
 14101  1  0  0  0
 15102  1  0  0  0
 16 17  2  0  0  0
 16 21  1  0  0  0
 16 31  1  0  0  0
 17 18  1  0  0  0
 17103  1  0  0  0
 18 19  2  0  0  0
 18104  1  0  0  0
 19 20  1  0  0  0
 19 24  1  0  0  0
 20 21  2  0  0  0
 20105  1  0  0  0
 21 23  1  0  0  0
 22 28  1  0  0  0
 22 32  2  0  0  0
 26 27  1  0  0  0
 28106  1  0  0  0
 28107  1  0  0  0
 29108  1  0  0  0
 29109  1  0  0  0
 33 34  1  0  0  0
 33 66  1  0  0  0
 33 70  2  0  0  0
 34 36  1  0  0  0
 34 59  1  0  0  0
 34110  1  0  0  0
 35 44  2  0  0  0
 35 45  1  0  0  0
 35 68  1  0  0  0
 36 56  1  0  0  0
 36111  1  0  0  0
 37 39  1  0  0  0
 37 47  1  0  0  0
 37 66  1  0  0  0
 37112  1  0  0  0
 38 43  2  0  0  0
 38 46  1  0  0  0
 38 47  1  0  0  0
 39 64  1  0  0  0
 39 67  2  0  0  0
 40 52  1  0  0  0
 40 53  2  0  0  0
 40 58  1  0  0  0
 41113  1  0  0  0
 41114  1  0  0  0
 41115  1  0  0  0
 41 48  1  0  0  0
 42 43  1  0  0  0
 42 66  1  0  0  0
 42116  1  0  0  0
 42117  1  0  0  0
 43 44  1  0  0  0
 44118  1  0  0  0
 45 46  2  0  0  0
 45119  1  0  0  0
 46120  1  0  0  0
 47121  1  0  0  0
 47122  1  0  0  0
 48 56  1  0  0  0
 48 65  1  0  0  0
 48123  1  0  0  0
 49 50  1  0  0  0
 49 53  1  0  0  0
 49 64  1  0  0  0
 49124  1  0  0  0
 50 51  1  0  0  0
 50125  1  0  0  0
 50126  1  0  0  0
 51 52  1  0  0  0
 51127  1  0  0  0
 51128  1  0  0  0
 52129  1  0  0  0
 52130  1  0  0  0
 53 54  1  0  0  0
 54 55  2  0  0  0
 54131  1  0  0  0
 55 57  1  0  0  0
 55132  1  0  0  0
 56 69  2  0  0  0
 57 58  2  0  0  0
 57133  1  0  0  0
 58134  1  0  0  0
 59 60  1  0  0  0
 59 61  1  0  0  0
 59 62  1  0  0  0
 60135  1  0  0  0
 60136  1  0  0  0
 60137  1  0  0  0
 61138  1  0  0  0
 61139  1  0  0  0
 61140  1  0  0  0
 62141  1  0  0  0
 62142  1  0  0  0
 62143  1  0  0  0
 63 65  1  0  0  0
 63144  1  0  0  0
 63145  1  0  0  0
 63146  1  0  0  0
 64147  1  0  0  0
 65148  1  0  0  0
 68 85  1  0  0  0
 71 73  2  0  0  0
 71 74  1  0  0  0
 71149  1  0  0  0
 72 73  1  0  0  0
 72 75  2  0  0  0
 72150  1  0  0  0
 73 77  1  0  0  0
 74 76  2  0  0  0
 74 79  1  0  0  0
 75 76  1  0  0  0
 75 88  1  0  0  0
 76 89  1  0  0  0
 77 78  2  0  0  0
 77151  1  0  0  0
 78152  1  0  0  0
 79 80  1  0  0  0
 79 87  2  0  0  0
 80153  1  0  0  0
 80154  1  0  0  0
 80155  1  0  0  0
 81 82  1  0  0  0
 81156  1  0  0  0
 81157  1  0  0  0
 81158  1  0  0  0
 82 84  1  0  0  0
 82159  1  0  0  0
 82160  1  0  0  0
 83 85  1  0  0  0
 83 86  1  0  0  0
 83161  1  0  0  0
 83162  1  0  0  0
 84 88  1  0  0  0
 84163  1  0  0  0
 84164  1  0  0  0
 85165  1  0  0  0
 85166  1  0  0  0
 86 89  1  0  0  0
 86167  1  0  0  0
 86168  1  0  0  0
M  ISO  4   1 100  68 101  78 100  85 101
M  END
> <chiral flag>
0

> <version>
0

> <s_m_source_file>
/data/baiqing/PycharmProjects/Reinvent-master-3.2/result/LINK_invent/BTK/process_docking_weight1_custom_product_contain_oxygen_bond_distance_aromatic_linkinvent_7_9_3/rearranged_h_0104.sdf

> <i_m_source_file_index>
69

> <r_mmod_Potential_Energy-OPLS-2005>
305.459869384766

> <r_mmod_Stretch_Energy-OPLS-2005>
47.252758026123

> <r_mmod_Bend_Energy-OPLS-2005>
364.870910644531

> <r_mmod_Torsional_Energy-OPLS-2005>
278.721252441406

> <r_mmod_Improper_Torsional_Energy-OPLS-2005>
4.22047090530396

> <r_mmod_Van_der_Waal_Energy-OPLS-2005>
164.460189819336

> <r_mmod_Electrostatic_Energy-OPLS-2005>
-357.040069580078

> <r_mmod_Solvation_Energy-OPLS-2005>
-213.26448059082

> <b_mmod_Minimization_Converged-OPLS-2005>
0

> <r_mmod_RMS_Derivative-OPLS-2005>
4.19745779037476

$$$$
70
                    3D
 Structure written by MMmdl.
182191  0  0  1  0            999 V2000
  -30.7278  -14.5286   20.5467 C   0  0  0  0  0  0
  -30.4060  -12.3383   19.4480 C   0  0  0  0  0  0
  -29.4928  -12.5039   18.2176 C   0  0  0  0  0  0
  -28.0152  -12.3647   18.6281 C   0  0  0  0  0  0
  -27.6520  -13.2268   19.8679 C   0  0  2  0  0  0
  -28.6947  -13.0827   20.9994 C   0  0  0  0  0  0
  -25.2540  -13.8211   20.5702 C   0  0  0  0  0  0
  -24.1817  -13.0452   20.9198 C   0  0  0  0  0  0
  -24.6400  -11.6932   20.8752 C   0  0  0  0  0  0
  -23.9083  -10.4304   21.0415 C   0  0  0  0  0  0
  -24.3632   -9.4218   21.9194 C   0  0  0  0  0  0
  -23.6302   -8.2255   22.0761 C   0  0  0  0  0  0
  -22.4287   -8.0292   21.3549 C   0  0  0  0  0  0
  -21.9929   -9.0270   20.4652 C   0  0  0  0  0  0
  -22.7260  -10.2144   20.3065 C   0  0  0  0  0  0
  -21.6855   -6.0747   22.5284 C   0  0  0  0  0  0
  -21.4011   -6.5648   23.8220 C   0  0  0  0  0  0
  -21.3660   -5.6795   24.9178 C   0  0  0  0  0  0
  -21.6043   -4.3059   24.7223 C   0  0  0  0  0  0
  -21.8819   -3.8157   23.4343 C   0  0  0  0  0  0
  -21.9191   -4.6974   22.3402 C   0  0  0  0  0  0
  -22.7836  -13.5234   21.1856 C   0  0  0  0  0  0
  -22.1662   -4.2165   21.0981 F   0  0  0  0  0  0
  -21.5626   -3.4546   25.7733 F   0  0  0  0  0  0
  -30.0180  -13.3697   20.4300 N   0  0  0  0  0  0
  -26.2984  -12.9416   20.3366 N   0  0  0  0  0  0
  -25.9334  -11.6559   20.5789 N   0  0  0  0  0  0
  -22.0476  -12.8226   22.0401 N   0  0  0  0  0  0
  -25.4229  -15.1927   20.4103 N   0  0  0  0  0  0
  -31.8796  -14.6153   20.1141 O   0  0  0  0  0  0
  -21.6644   -6.8892   21.4246 O   0  0  0  0  0  0
  -22.3528  -14.5547   20.6707 O   0  0  0  0  0  0
  -24.6180  -31.8650   23.2119 C   0  0  0  0  0  0
  -25.9059  -32.4813   23.8404 C   0  0  1  0  0  0
  -27.2202  -27.3882   20.1212 C   0  0  0  0  0  0
  -25.5919  -33.8611   24.2335 N   0  0  0  0  0  0
  -23.4121  -30.4878   21.5501 C   0  0  2  0  0  0
  -24.8618  -28.9577   20.1109 C   0  0  0  0  0  0
  -22.7448  -29.4630   22.4975 C   0  0  0  0  0  0
  -18.0274  -28.1394   22.8470 C   0  0  0  0  0  0
  -24.1492  -36.7291   23.2637 C   0  0  0  0  0  0
  -25.9447  -30.8139   21.3807 C   0  0  0  0  0  0
  -26.0205  -29.4434   20.7331 C   0  0  0  0  0  0
  -27.2033  -28.6577   20.7545 C   0  0  0  0  0  0
  -26.0701  -26.9657   19.4291 C   0  0  0  0  0  0
  -24.8812  -27.7158   19.4572 C   0  0  0  0  0  0
  -23.6246  -29.8267   20.1625 C   0  0  0  0  0  0
  -25.4117  -36.3104   24.0344 C   0  0  1  0  0  0
  -20.5876  -28.3670   23.1300 C   0  0  2  0  0  0
  -20.6777  -26.9402   22.5415 C   0  0  0  0  0  0
  -19.5748  -26.6385   21.5222 C   0  0  0  0  0  0
  -18.1914  -26.7942   22.1620 C   0  0  0  0  0  0
  -19.1530  -28.8850   23.2870 C   0  0  0  0  0  0
  -18.9468  -30.1459   23.8880 C   0  0  0  0  0  0
  -17.6471  -30.6592   24.0561 C   0  0  0  0  0  0
  -25.9047  -34.9464   23.5130 C   0  0  0  0  0  0
  -16.5351  -29.9092   23.6348 C   0  0  0  0  0  0
  -16.7264  -28.6518   23.0344 C   0  0  0  0  0  0
  -26.4489  -31.6606   25.0741 C   0  0  0  0  0  0
  -25.3746  -31.3707   26.1478 C   0  0  0  0  0  0
  -27.0364  -30.3057   24.6152 C   0  0  0  0  0  0
  -27.6060  -32.4336   25.7502 C   0  0  0  0  0  0
  -27.5578  -37.1795   24.8469 C   0  0  0  0  0  0
  -21.4175  -29.3027   22.3707 N   0  0  0  0  0  0
  -26.4300  -37.3793   23.9407 N   0  0  0  0  0  0
  -24.6750  -31.0719   22.1049 N   0  0  0  0  0  0
  -23.4187  -28.8169   23.3036 O   0  0  0  0  0  0
  -28.3067  -26.5318   20.1023 O   0  0  0  0  0  0
  -26.5593  -34.8913   22.4680 O   0  0  0  0  0  0
  -23.5355  -32.1424   23.7484 O   0  0  0  0  0  0
  -29.4640  -20.3195   22.4586 C   0  0  0  0  0  0
  -29.9610  -19.0577   20.0209 C   0  0  0  0  0  0
  -29.7667  -18.9324   22.4348 C   0  0  0  0  0  0
  -29.4381  -21.1071   21.2804 C   0  0  0  0  0  0
  -30.0914  -18.2950   21.2080 C   0  0  0  0  0  0
  -29.6312  -20.4443   20.0441 C   0  0  0  0  0  0
  -25.4681  -24.0819   22.8535 C   0  0  0  0  0  0
  -25.4724  -22.8314   21.9840 C   0  0  0  0  0  0
  -26.3308  -25.1198   22.1516 C   0  0  0  0  0  0
  -26.9016  -22.2907   21.8460 C   0  0  0  0  0  0
  -27.7941  -24.6584   21.9206 C   0  0  2  0  0  0
  -31.0715  -18.4750   24.5676 C   0  0  0  0  0  0
  -26.5602  -20.4228   16.7501 C   0  0  0  0  0  0
  -29.8032  -18.1812   23.7583 C   0  0  0  0  0  0
  -30.8303  -16.9316   21.1559 C   0  0  0  0  0  0
  -29.2895  -22.6589   21.3667 C   0  0  0  0  0  0
  -28.6808  -25.8318   21.3202 C   0  0  0  0  0  0
  -27.3741  -20.8371   17.9808 C   0  0  0  0  0  0
  -28.8889  -20.6720   17.7770 C   0  0  0  0  0  0
  -30.1046  -15.6410   21.0179 N   0  0  0  0  0  0
  -27.9064  -23.2634   21.3018 N   0  3  1  0  0  0
  -29.5837  -21.2070   18.9004 O   0  0  0  0  0  0
  -31.4542  -12.4074   19.1505 H   0  0  0  0  0  0
  -30.2878  -11.3441   19.8827 H   0  0  0  0  0  0
  -29.7417  -11.7600   17.4597 H   0  0  0  0  0  0
  -29.6611  -13.4796   17.7586 H   0  0  0  0  0  0
  -27.8306  -11.3112   18.8415 H   0  0  0  0  0  0
  -27.3669  -12.6232   17.7897 H   0  0  0  0  0  0
  -27.6748  -14.2658   19.5377 H   0  0  0  0  0  0
  -28.6792  -12.0739   21.4136 H   0  0  0  0  0  0
  -28.4586  -13.7503   21.8290 H   0  0  0  0  0  0
  -25.2774   -9.5690   22.4776 H   0  0  0  0  0  0
  -24.0010   -7.4647   22.7486 H   0  0  0  0  0  0
  -21.0863   -8.8796   19.8957 H   0  0  0  0  0  0
  -22.3731  -10.9686   19.6182 H   0  0  0  0  0  0
  -21.2006   -7.6156   23.9724 H   0  0  0  0  0  0
  -21.1479   -6.0528   25.9079 H   0  0  0  0  0  0
  -22.0593   -2.7624   23.2840 H   0  0  0  0  0  0
  -22.4079  -11.9875   22.4775 H   0  0  0  0  0  0
  -21.1099  -13.1267   22.2608 H   0  0  0  0  0  0
  -24.6540  -15.8463   20.5146 H   0  0  0  0  0  0
  -26.2766  -15.6341   20.0917 H   0  0  0  0  0  0
  -26.7108  -32.5533   23.1149 H   0  0  0  0  0  0
  -25.0181  -33.9772   25.0558 H   0  0  0  0  0  0
  -22.7034  -31.3062   21.4097 H   0  0  0  0  0  0
  -23.3772  -35.9608   23.3330 H   0  0  0  0  0  0
  -24.3577  -36.8885   22.2040 H   0  0  0  0  0  0
  -23.7227  -37.6491   23.6644 H   0  0  0  0  0  0
  -26.0696  -31.5787   20.6116 H   0  0  0  0  0  0
  -26.8274  -30.8650   22.0052 H   0  0  0  0  0  0
  -28.0914  -29.0169   21.2564 H   0  0  0  0  0  0
  -26.0782  -26.0163   18.9125 H   0  0  0  0  0  0
  -23.9979  -27.3407   18.9594 H   0  0  0  0  0  0
  -23.7340  -30.6038   19.4051 H   0  0  0  0  0  0
  -22.7505  -29.2447   19.8646 H   0  0  0  0  0  0
  -25.1295  -36.1980   25.0842 H   0  0  0  0  0  0
  -20.9929  -28.3237   24.1439 H   0  0  0  0  0  0
  -20.5731  -26.2264   23.3605 H   0  0  0  0  0  0
  -21.6640  -26.7479   22.1181 H   0  0  0  0  0  0
  -19.6926  -25.6296   21.1252 H   0  0  0  0  0  0
  -19.6714  -27.3191   20.6754 H   0  0  0  0  0  0
  -17.4203  -26.6697   21.3992 H   0  0  0  0  0  0
  -18.0281  -26.0095   22.9024 H   0  0  0  0  0  0
  -19.7947  -30.7256   24.2245 H   0  0  0  0  0  0
  -17.5038  -31.6276   24.5148 H   0  0  0  0  0  0
  -15.5350  -30.2981   23.7707 H   0  0  0  0  0  0
  -15.8671  -28.0836   22.7066 H   0  0  0  0  0  0
  -24.5955  -30.7022   25.7807 H   0  0  0  0  0  0
  -24.8899  -32.2857   26.4892 H   0  0  0  0  0  0
  -25.8092  -30.8909   27.0260 H   0  0  0  0  0  0
  -26.2938  -29.6769   24.1232 H   0  0  0  0  0  0
  -27.4166  -29.7328   25.4618 H   0  0  0  0  0  0
  -27.8749  -30.4396   23.9315 H   0  0  0  0  0  0
  -27.2707  -33.3664   26.2045 H   0  0  0  0  0  0
  -28.3889  -32.6848   25.0339 H   0  0  0  0  0  0
  -28.0713  -31.8488   26.5443 H   0  0  0  0  0  0
  -28.2602  -38.0082   24.7536 H   0  0  0  0  0  0
  -28.1069  -36.2616   24.6312 H   0  0  0  0  0  0
  -27.2279  -37.1464   25.8863 H   0  0  0  0  0  0
  -20.9342  -29.8748   21.6924 H   0  0  0  0  0  0
  -26.0198  -38.2876   24.1419 H   0  0  0  0  0  0
  -29.3009  -20.7973   23.4147 H   0  0  0  0  0  0
  -30.2292  -18.5860   19.0873 H   0  0  0  0  0  0
  -25.8449  -23.8671   23.8541 H   0  0  0  0  0  0
  -24.4509  -24.4584   22.9681 H   0  0  0  0  0  0
  -25.0476  -23.0475   21.0029 H   0  0  0  0  0  0
  -24.8359  -22.0686   22.4350 H   0  0  0  0  0  0
  -26.3050  -26.0591   22.7059 H   0  0  0  0  0  0
  -25.8440  -25.3088   21.2047 H   0  0  0  0  0  0
  -26.8592  -21.4035   21.2117 H   0  0  0  0  0  0
  -27.2270  -21.9578   22.8321 H   0  0  0  0  0  0
  -28.1916  -24.5188   22.9278 H   0  0  0  0  0  0
  -31.0572  -17.9343   25.5145 H   0  0  0  0  0  0
  -31.1573  -19.5380   24.7960 H   0  0  0  0  0  0
  -31.9692  -18.1743   24.0280 H   0  0  0  0  0  0
  -25.4952  -20.5799   16.9195 H   0  0  0  0  0  0
  -26.7063  -19.3684   16.5145 H   0  0  0  0  0  0
  -26.8449  -21.0043   15.8732 H   0  0  0  0  0  0
  -29.7013  -17.1089   23.5938 H   0  0  0  0  0  0
  -28.9257  -18.4667   24.3405 H   0  0  0  0  0  0
  -31.4764  -16.8523   22.0306 H   0  0  0  0  0  0
  -31.5330  -17.0295   20.3259 H   0  0  0  0  0  0
  -29.9066  -23.1142   20.5924 H   0  0  0  0  0  0
  -29.7522  -22.9547   22.3082 H   0  0  0  0  0  0
  -29.6954  -25.4641   21.1676 H   0  0  0  0  0  0
  -28.7859  -26.5915   22.0959 H   0  0  0  0  0  0
  -27.0476  -20.2503   18.8399 H   0  0  0  0  0  0
  -27.1542  -21.8790   18.2149 H   0  0  0  0  0  0
  -29.2005  -21.2426   16.9015 H   0  0  0  0  0  0
  -29.1453  -19.6357   17.5623 H   0  0  0  0  0  0
  -29.1464  -15.5823   21.3254 H   0  0  0  0  0  0
  -27.6942  -23.3597   20.3194 H   0  0  0  0  0  0
  1 25  1  0  0  0
  1 30  2  0  0  0
  1 90  1  0  0  0
  2  3  1  0  0  0
  2 25  1  0  0  0
  2 93  1  0  0  0
  2 94  1  0  0  0
  3  4  1  0  0  0
  3 95  1  0  0  0
  3 96  1  0  0  0
  4  5  1  0  0  0
  4 97  1  0  0  0
  4 98  1  0  0  0
  5  6  1  0  0  0
  5 26  1  0  0  0
  5 99  1  0  0  0
  6 25  1  0  0  0
  6100  1  0  0  0
  6101  1  0  0  0
  7  8  2  0  0  0
  7 26  1  0  0  0
  7 29  1  0  0  0
  8  9  1  0  0  0
  8 22  1  0  0  0
  9 10  1  0  0  0
  9 27  2  0  0  0
 10 11  2  0  0  0
 10 15  1  0  0  0
 11 12  1  0  0  0
 11102  1  0  0  0
 12 13  2  0  0  0
 12103  1  0  0  0
 13 14  1  0  0  0
 13 31  1  0  0  0
 14 15  2  0  0  0
 14104  1  0  0  0
 15105  1  0  0  0
 16 17  2  0  0  0
 16 21  1  0  0  0
 16 31  1  0  0  0
 17 18  1  0  0  0
 17106  1  0  0  0
 18 19  2  0  0  0
 18107  1  0  0  0
 19 20  1  0  0  0
 19 24  1  0  0  0
 20 21  2  0  0  0
 20108  1  0  0  0
 21 23  1  0  0  0
 22 28  1  0  0  0
 22 32  2  0  0  0
 26 27  1  0  0  0
 28109  1  0  0  0
 28110  1  0  0  0
 29111  1  0  0  0
 29112  1  0  0  0
 33 34  1  0  0  0
 33 66  1  0  0  0
 33 70  2  0  0  0
 34 36  1  0  0  0
 34 59  1  0  0  0
 34113  1  0  0  0
 35 44  2  0  0  0
 35 45  1  0  0  0
 35 68  1  0  0  0
 36 56  1  0  0  0
 36114  1  0  0  0
 37 39  1  0  0  0
 37 47  1  0  0  0
 37 66  1  0  0  0
 37115  1  0  0  0
 38 43  2  0  0  0
 38 46  1  0  0  0
 38 47  1  0  0  0
 39 64  1  0  0  0
 39 67  2  0  0  0
 40 52  1  0  0  0
 40 53  2  0  0  0
 40 58  1  0  0  0
 41116  1  0  0  0
 41117  1  0  0  0
 41118  1  0  0  0
 41 48  1  0  0  0
 42 43  1  0  0  0
 42 66  1  0  0  0
 42119  1  0  0  0
 42120  1  0  0  0
 43 44  1  0  0  0
 44121  1  0  0  0
 45 46  2  0  0  0
 45122  1  0  0  0
 46123  1  0  0  0
 47124  1  0  0  0
 47125  1  0  0  0
 48 56  1  0  0  0
 48 65  1  0  0  0
 48126  1  0  0  0
 49 50  1  0  0  0
 49 53  1  0  0  0
 49 64  1  0  0  0
 49127  1  0  0  0
 50 51  1  0  0  0
 50128  1  0  0  0
 50129  1  0  0  0
 51 52  1  0  0  0
 51130  1  0  0  0
 51131  1  0  0  0
 52132  1  0  0  0
 52133  1  0  0  0
 53 54  1  0  0  0
 54 55  2  0  0  0
 54134  1  0  0  0
 55 57  1  0  0  0
 55135  1  0  0  0
 56 69  2  0  0  0
 57 58  2  0  0  0
 57136  1  0  0  0
 58137  1  0  0  0
 59 60  1  0  0  0
 59 61  1  0  0  0
 59 62  1  0  0  0
 60138  1  0  0  0
 60139  1  0  0  0
 60140  1  0  0  0
 61141  1  0  0  0
 61142  1  0  0  0
 61143  1  0  0  0
 62144  1  0  0  0
 62145  1  0  0  0
 62146  1  0  0  0
 63 65  1  0  0  0
 63147  1  0  0  0
 63148  1  0  0  0
 63149  1  0  0  0
 64150  1  0  0  0
 65151  1  0  0  0
 68 87  1  0  0  0
 71 73  2  0  0  0
 71 74  1  0  0  0
 71152  1  0  0  0
 72 75  2  0  0  0
 72 76  1  0  0  0
 72153  1  0  0  0
 73 75  1  0  0  0
 73 84  1  0  0  0
 74 76  2  0  0  0
 74 86  1  0  0  0
 75 85  1  0  0  0
 76 92  1  0  0  0
 77 78  1  0  0  0
 77 79  1  0  0  0
 77154  1  0  0  0
 77155  1  0  0  0
 78 80  1  0  0  0
 78156  1  0  0  0
 78157  1  0  0  0
 79 81  1  0  0  0
 79158  1  0  0  0
 79159  1  0  0  0
 80 91  1  0  0  0
 80160  1  0  0  0
 80161  1  0  0  0
 81 87  1  0  0  0
 81 91  1  0  0  0
 81162  1  0  0  0
 82 84  1  0  0  0
 82163  1  0  0  0
 82164  1  0  0  0
 82165  1  0  0  0
 83 88  1  0  0  0
 83166  1  0  0  0
 83167  1  0  0  0
 83168  1  0  0  0
 84169  1  0  0  0
 84170  1  0  0  0
 85 90  1  0  0  0
 85171  1  0  0  0
 85172  1  0  0  0
 86173  1  0  0  0
 86174  1  0  0  0
 86 91  1  0  0  0
 87175  1  0  0  0
 87176  1  0  0  0
 88 89  1  0  0  0
 88177  1  0  0  0
 88178  1  0  0  0
 89 92  1  0  0  0
 89179  1  0  0  0
 89180  1  0  0  0
 90181  1  0  0  0
 91182  1  0  0  0
M  CHG  1  91   1
M  ISO  4   1 100  68 101  87 101  90 100
M  END
> <chiral flag>
0

> <version>
0

> <s_m_source_file>
/data/baiqing/PycharmProjects/Reinvent-master-3.2/result/LINK_invent/BTK/process_docking_weight1_custom_product_contain_oxygen_bond_distance_aromatic_linkinvent_7_9_3/rearranged_h_0104.sdf

> <i_m_source_file_index>
70

> <r_mmod_Potential_Energy-OPLS-2005>
-37.2593955993652

> <r_mmod_Stretch_Energy-OPLS-2005>
61.7699432373047

> <r_mmod_Bend_Energy-OPLS-2005>
156.068588256836

> <r_mmod_Torsional_Energy-OPLS-2005>
284.999420166016

> <r_mmod_Improper_Torsional_Energy-OPLS-2005>
5.16019725799561

> <r_mmod_Van_der_Waal_Energy-OPLS-2005>
151.481262207031

> <r_mmod_Electrostatic_Energy-OPLS-2005>
-334.454833984375

> <r_mmod_Solvation_Energy-OPLS-2005>
-390.473388671875

> <b_mmod_Minimization_Converged-OPLS-2005>
0

> <r_mmod_RMS_Derivative-OPLS-2005>
2.01663160324097

$$$$
71
                    3D
 Structure written by MMmdl.
163172  0  0  1  0            999 V2000
  -30.5628  -14.7582   20.5047 C   0  0  0  0  0  0
  -30.4469  -12.4712   19.4871 C   0  0  0  0  0  0
  -29.5247  -12.5223   18.2511 C   0  0  0  0  0  0
  -28.0572  -12.2985   18.6725 C   0  0  0  0  0  0
  -27.6423  -13.2149   19.8539 C   0  0  2  0  0  0
  -28.6762  -13.1558   20.9949 C   0  0  0  0  0  0
  -25.2535  -13.8188   20.5712 C   0  0  0  0  0  0
  -24.1816  -13.0441   20.9224 C   0  0  0  0  0  0
  -24.6376  -11.6907   20.8752 C   0  0  0  0  0  0
  -23.9074  -10.4275   21.0405 C   0  0  0  0  0  0
  -24.3626   -9.4193   21.9169 C   0  0  0  0  0  0
  -23.6295   -8.2235   22.0726 C   0  0  0  0  0  0
  -22.4274   -8.0260   21.3541 C   0  0  0  0  0  0
  -21.9922   -9.0241   20.4659 C   0  0  0  0  0  0
  -22.7248  -10.2125   20.3069 C   0  0  0  0  0  0
  -21.6848   -6.0734   22.5292 C   0  0  0  0  0  0
  -21.3995   -6.5636   23.8220 C   0  0  0  0  0  0
  -21.3665   -5.6790   24.9176 C   0  0  0  0  0  0
  -21.6068   -4.3064   24.7226 C   0  0  0  0  0  0
  -21.8822   -3.8149   23.4344 C   0  0  0  0  0  0
  -21.9187   -4.6960   22.3402 C   0  0  0  0  0  0
  -22.7854  -13.5218   21.1909 C   0  0  0  0  0  0
  -22.1668   -4.2144   21.0978 F   0  0  0  0  0  0
  -21.5621   -3.4536   25.7746 F   0  0  0  0  0  0
  -29.9775  -13.5173   20.4185 N   0  0  0  0  0  0
  -26.2927  -12.9324   20.3292 N   0  0  0  0  0  0
  -25.9290  -11.6477   20.5745 N   0  0  0  0  0  0
  -22.0506  -12.8194   22.0472 N   0  0  0  0  0  0
  -25.4279  -15.1893   20.4146 N   0  0  0  0  0  0
  -31.7692  -14.8970   20.2733 O   0  0  0  0  0  0
  -21.6646   -6.8855   21.4241 O   0  0  0  0  0  0
  -22.3539  -14.5519   20.6761 O   0  0  0  0  0  0
  -24.6375  -31.8541   23.1984 C   0  0  0  0  0  0
  -25.9181  -32.4752   23.8340 C   0  0  1  0  0  0
  -27.2004  -27.2328   20.1095 C   0  0  0  0  0  0
  -25.5955  -33.8542   24.2249 N   0  0  0  0  0  0
  -23.4326  -30.4766   21.5439 C   0  0  2  0  0  0
  -24.8769  -28.9220   20.1193 C   0  0  0  0  0  0
  -22.7535  -29.4553   22.4913 C   0  0  0  0  0  0
  -18.0260  -28.1404   22.8517 C   0  0  0  0  0  0
  -24.1496  -36.7285   23.2633 C   0  0  0  0  0  0
  -25.9863  -30.7518   21.3893 C   0  0  0  0  0  0
  -26.0571  -29.3754   20.7259 C   0  0  0  0  0  0
  -27.2296  -28.5426   20.7064 C   0  0  0  0  0  0
  -25.9961  -26.8604   19.4811 C   0  0  0  0  0  0
  -24.8507  -27.6716   19.4894 C   0  0  0  0  0  0
  -23.6535  -29.8172   20.1597 C   0  0  0  0  0  0
  -25.4139  -36.3070   24.0318 C   0  0  1  0  0  0
  -20.5890  -28.3642   23.1194 C   0  0  2  0  0  0
  -20.6729  -26.9363   22.5273 C   0  0  0  0  0  0
  -19.5609  -26.6259   21.5219 C   0  0  0  0  0  0
  -18.1819  -26.7944   22.1664 C   0  0  0  0  0  0
  -19.1545  -28.8856   23.2859 C   0  0  0  0  0  0
  -18.9497  -30.1459   23.8892 C   0  0  0  0  0  0
  -17.6504  -30.6609   24.0566 C   0  0  0  0  0  0
  -25.9082  -34.9440   23.5089 C   0  0  0  0  0  0
  -16.5365  -29.9146   23.6353 C   0  0  0  0  0  0
  -16.7260  -28.6559   23.0370 C   0  0  0  0  0  0
  -26.4531  -31.6610   25.0767 C   0  0  0  0  0  0
  -25.3718  -31.3786   26.1460 C   0  0  0  0  0  0
  -27.0352  -30.2999   24.6314 C   0  0  0  0  0  0
  -27.6074  -32.4377   25.7526 C   0  0  0  0  0  0
  -27.5602  -37.1801   24.8460 C   0  0  0  0  0  0
  -21.4235  -29.2988   22.3637 N   0  0  0  0  0  0
  -26.4324  -37.3782   23.9397 N   0  0  0  0  0  0
  -24.7038  -31.0464   22.0990 N   0  0  0  0  0  0
  -23.4216  -28.8091   23.3027 O   0  0  0  0  0  0
  -28.2584  -26.2938   20.0683 O   0  0  0  0  0  0
  -26.5644  -34.8894   22.4655 O   0  0  0  0  0  0
  -23.5504  -32.1406   23.7248 O   0  0  0  0  0  0
  -29.3111  -19.8116   22.2124 C   0  0  0  0  0  0
  -29.8888  -17.4301   22.3866 C   0  0  0  0  0  0
  -29.4090  -18.4375   20.2254 C   0  0  0  0  0  0
  -29.6707  -18.6874   22.9947 C   0  0  0  0  0  0
  -29.2233  -19.7752   20.7999 C   0  0  0  0  0  0
  -29.7393  -17.2415   20.9957 C   0  0  0  0  0  0
  -28.1759  -23.4806   20.1253 C   0  0  0  0  0  0
  -28.9919  -22.4137   20.5168 C   0  0  0  0  0  0
  -27.1029  -23.0860   19.1817 C   0  0  0  0  0  0
  -29.2473  -19.7493   25.2485 C   0  0  0  0  0  0
  -29.7460  -18.7717   24.4677 C   0  0  0  0  0  0
  -27.3992  -21.9269   18.2255 C   0  0  0  0  0  0
  -28.0581  -20.7077   18.9084 C   0  0  0  0  0  0
  -30.1690  -22.6786   21.4431 C   0  0  0  0  0  0
  -28.0841  -24.9669   20.7784 C   0  0  0  0  0  0
  -28.8773  -21.0171   20.0865 N   0  0  0  0  0  0
  -29.6892  -15.8389   20.4956 N   0  0  0  0  0  0
  -25.9831  -23.5992   19.1483 O   0  0  0  0  0  0
  -31.4844  -12.6238   19.1925 H   0  0  0  0  0  0
  -30.4004  -11.4866   19.9599 H   0  0  0  0  0  0
  -29.8266  -11.7644   17.5309 H   0  0  0  0  0  0
  -29.6311  -13.4874   17.7539 H   0  0  0  0  0  0
  -27.9619  -11.2559   18.9790 H   0  0  0  0  0  0
  -27.3819  -12.4323   17.8274 H   0  0  0  0  0  0
  -27.6353  -14.2305   19.4566 H   0  0  0  0  0  0
  -28.7122  -12.1688   21.4534 H   0  0  0  0  0  0
  -28.3928  -13.8446   21.7913 H   0  0  0  0  0  0
  -25.2748   -9.5661   22.4753 H   0  0  0  0  0  0
  -24.0017   -7.4601   22.7400 H   0  0  0  0  0  0
  -21.0870   -8.8786   19.8914 H   0  0  0  0  0  0
  -22.3705  -10.9690   19.6196 H   0  0  0  0  0  0
  -21.1973   -7.6133   23.9731 H   0  0  0  0  0  0
  -21.1501   -6.0505   25.9093 H   0  0  0  0  0  0
  -22.0594   -2.7607   23.2862 H   0  0  0  0  0  0
  -22.4102  -11.9851   22.4902 H   0  0  0  0  0  0
  -21.1098  -13.1192   22.2624 H   0  0  0  0  0  0
  -24.6632  -15.8466   20.5277 H   0  0  0  0  0  0
  -26.2808  -15.6369   20.1073 H   0  0  0  0  0  0
  -26.7264  -32.5360   23.1079 H   0  0  0  0  0  0
  -25.0047  -33.9704   25.0353 H   0  0  0  0  0  0
  -22.7273  -31.2981   21.4027 H   0  0  0  0  0  0
  -23.3764  -35.9618   23.3317 H   0  0  0  0  0  0
  -24.3571  -36.8891   22.2042 H   0  0  0  0  0  0
  -23.7249  -37.6487   23.6657 H   0  0  0  0  0  0
  -26.1475  -31.5153   20.6287 H   0  0  0  0  0  0
  -26.8570  -30.7882   22.0323 H   0  0  0  0  0  0
  -28.1380  -28.8821   21.1838 H   0  0  0  0  0  0
  -25.9333  -25.9173   18.9685 H   0  0  0  0  0  0
  -23.9477  -27.3173   19.0112 H   0  0  0  0  0  0
  -23.7851  -30.5975   19.4085 H   0  0  0  0  0  0
  -22.7695  -29.2585   19.8448 H   0  0  0  0  0  0
  -25.1326  -36.1928   25.0825 H   0  0  0  0  0  0
  -20.9967  -28.3071   24.1311 H   0  0  0  0  0  0
  -20.5864  -26.2211   23.3473 H   0  0  0  0  0  0
  -21.6510  -26.7495   22.0832 H   0  0  0  0  0  0
  -19.6644  -25.6059   21.1567 H   0  0  0  0  0  0
  -19.6540  -27.2831   20.6563 H   0  0  0  0  0  0
  -17.4043  -26.6787   21.4097 H   0  0  0  0  0  0
  -18.0125  -26.0163   22.9103 H   0  0  0  0  0  0
  -19.8002  -30.7256   24.2195 H   0  0  0  0  0  0
  -17.5051  -31.6265   24.5151 H   0  0  0  0  0  0
  -15.5361  -30.3069   23.7620 H   0  0  0  0  0  0
  -15.8637  -28.0939   22.7065 H   0  0  0  0  0  0
  -24.5878  -30.7180   25.7741 H   0  0  0  0  0  0
  -24.8920  -32.2947   26.4898 H   0  0  0  0  0  0
  -25.7985  -30.8909   27.0228 H   0  0  0  0  0  0
  -26.2923  -29.6767   24.1306 H   0  0  0  0  0  0
  -27.3922  -29.7289   25.4894 H   0  0  0  0  0  0
  -27.8881  -30.4216   23.9636 H   0  0  0  0  0  0
  -27.2681  -33.3665   26.2126 H   0  0  0  0  0  0
  -28.3856  -32.6983   25.0344 H   0  0  0  0  0  0
  -28.0795  -31.8512   26.5415 H   0  0  0  0  0  0
  -28.2632  -38.0083   24.7505 H   0  0  0  0  0  0
  -28.1086  -36.2614   24.6309 H   0  0  0  0  0  0
  -27.2299  -37.1474   25.8854 H   0  0  0  0  0  0
  -20.9509  -29.8676   21.6758 H   0  0  0  0  0  0
  -26.0198  -38.2868   24.1367 H   0  0  0  0  0  0
  -29.0905  -20.7311   22.7247 H   0  0  0  0  0  0
  -30.0962  -16.5807   23.0239 H   0  0  0  0  0  0
  -29.2767  -18.3033   19.1621 H   0  0  0  0  0  0
  -29.3831  -19.7093   26.3208 H   0  0  0  0  0  0
  -28.6984  -20.5954   24.8596 H   0  0  0  0  0  0
  -30.2754  -17.9690   24.9656 H   0  0  0  0  0  0
  -28.0421  -22.3087   17.4318 H   0  0  0  0  0  0
  -26.4805  -21.5992   17.7411 H   0  0  0  0  0  0
  -28.6859  -20.2008   18.1739 H   0  0  0  0  0  0
  -27.2728  -20.0039   19.1929 H   0  0  0  0  0  0
  -30.6855  -23.5915   21.1472 H   0  0  0  0  0  0
  -30.9103  -21.8796   21.3978 H   0  0  0  0  0  0
  -29.8412  -22.8000   22.4774 H   0  0  0  0  0  0
  -28.8412  -24.9993   21.5594 H   0  0  0  0  0  0
  -27.1420  -25.0030   21.3292 H   0  0  0  0  0  0
  -28.7481  -15.5156   20.3331 H   0  0  0  0  0  0
  1 25  1  0  0  0
  1 30  2  0  0  0
  1 87  1  0  0  0
  2  3  1  0  0  0
  2 25  1  0  0  0
  2 89  1  0  0  0
  2 90  1  0  0  0
  3  4  1  0  0  0
  3 91  1  0  0  0
  3 92  1  0  0  0
  4  5  1  0  0  0
  4 93  1  0  0  0
  4 94  1  0  0  0
  5  6  1  0  0  0
  5 26  1  0  0  0
  5 95  1  0  0  0
  6 25  1  0  0  0
  6 96  1  0  0  0
  6 97  1  0  0  0
  7  8  2  0  0  0
  7 26  1  0  0  0
  7 29  1  0  0  0
  8  9  1  0  0  0
  8 22  1  0  0  0
  9 10  1  0  0  0
  9 27  2  0  0  0
 10 11  2  0  0  0
 10 15  1  0  0  0
 11 12  1  0  0  0
 11 98  1  0  0  0
 12 13  2  0  0  0
 12 99  1  0  0  0
 13 14  1  0  0  0
 13 31  1  0  0  0
 14 15  2  0  0  0
 14100  1  0  0  0
 15101  1  0  0  0
 16 17  2  0  0  0
 16 21  1  0  0  0
 16 31  1  0  0  0
 17 18  1  0  0  0
 17102  1  0  0  0
 18 19  2  0  0  0
 18103  1  0  0  0
 19 20  1  0  0  0
 19 24  1  0  0  0
 20 21  2  0  0  0
 20104  1  0  0  0
 21 23  1  0  0  0
 22 28  1  0  0  0
 22 32  2  0  0  0
 26 27  1  0  0  0
 28105  1  0  0  0
 28106  1  0  0  0
 29107  1  0  0  0
 29108  1  0  0  0
 33 34  1  0  0  0
 33 66  1  0  0  0
 33 70  2  0  0  0
 34 36  1  0  0  0
 34 59  1  0  0  0
 34109  1  0  0  0
 35 44  2  0  0  0
 35 45  1  0  0  0
 35 68  1  0  0  0
 36 56  1  0  0  0
 36110  1  0  0  0
 37 39  1  0  0  0
 37 47  1  0  0  0
 37 66  1  0  0  0
 37111  1  0  0  0
 38 43  2  0  0  0
 38 46  1  0  0  0
 38 47  1  0  0  0
 39 64  1  0  0  0
 39 67  2  0  0  0
 40 52  1  0  0  0
 40 53  2  0  0  0
 40 58  1  0  0  0
 41112  1  0  0  0
 41113  1  0  0  0
 41114  1  0  0  0
 41 48  1  0  0  0
 42 43  1  0  0  0
 42 66  1  0  0  0
 42115  1  0  0  0
 42116  1  0  0  0
 43 44  1  0  0  0
 44117  1  0  0  0
 45 46  2  0  0  0
 45118  1  0  0  0
 46119  1  0  0  0
 47120  1  0  0  0
 47121  1  0  0  0
 48 56  1  0  0  0
 48 65  1  0  0  0
 48122  1  0  0  0
 49 50  1  0  0  0
 49 53  1  0  0  0
 49 64  1  0  0  0
 49123  1  0  0  0
 50 51  1  0  0  0
 50124  1  0  0  0
 50125  1  0  0  0
 51 52  1  0  0  0
 51126  1  0  0  0
 51127  1  0  0  0
 52128  1  0  0  0
 52129  1  0  0  0
 53 54  1  0  0  0
 54 55  2  0  0  0
 54130  1  0  0  0
 55 57  1  0  0  0
 55131  1  0  0  0
 56 69  2  0  0  0
 57 58  2  0  0  0
 57132  1  0  0  0
 58133  1  0  0  0
 59 60  1  0  0  0
 59 61  1  0  0  0
 59 62  1  0  0  0
 60134  1  0  0  0
 60135  1  0  0  0
 60136  1  0  0  0
 61137  1  0  0  0
 61138  1  0  0  0
 61139  1  0  0  0
 62140  1  0  0  0
 62141  1  0  0  0
 62142  1  0  0  0
 63 65  1  0  0  0
 63143  1  0  0  0
 63144  1  0  0  0
 63145  1  0  0  0
 64146  1  0  0  0
 65147  1  0  0  0
 68 85  1  0  0  0
 71 74  2  0  0  0
 71 75  1  0  0  0
 71148  1  0  0  0
 72 74  1  0  0  0
 72 76  2  0  0  0
 72149  1  0  0  0
 73 75  2  0  0  0
 73 76  1  0  0  0
 73150  1  0  0  0
 74 81  1  0  0  0
 75 86  1  0  0  0
 76 87  1  0  0  0
 77 78  2  0  0  0
 77 79  1  0  0  0
 77 85  1  0  0  0
 78 84  1  0  0  0
 78 86  1  0  0  0
 79 82  1  0  0  0
 79 88  2  0  0  0
 80 81  2  0  0  0
 80151  1  0  0  0
 80152  1  0  0  0
 81153  1  0  0  0
 82 83  1  0  0  0
 82154  1  0  0  0
 82155  1  0  0  0
 83 86  1  0  0  0
 83156  1  0  0  0
 83157  1  0  0  0
 84158  1  0  0  0
 84159  1  0  0  0
 84160  1  0  0  0
 85161  1  0  0  0
 85162  1  0  0  0
 87163  1  0  0  0
M  ISO  4   1 100  68 101  85 101  87 100
M  END
> <chiral flag>
0

> <version>
0

> <s_m_source_file>
/data/baiqing/PycharmProjects/Reinvent-master-3.2/result/LINK_invent/BTK/process_docking_weight1_custom_product_contain_oxygen_bond_distance_aromatic_linkinvent_7_9_3/rearranged_h_0104.sdf

> <i_m_source_file_index>
71

> <r_mmod_Potential_Energy-OPLS-2005>
318.664245605469

> <r_mmod_Stretch_Energy-OPLS-2005>
148.261123657227

> <r_mmod_Bend_Energy-OPLS-2005>
184.086761474609

> <r_mmod_Torsional_Energy-OPLS-2005>
270.087524414062

> <r_mmod_Improper_Torsional_Energy-OPLS-2005>
13.2183179855347

> <r_mmod_Van_der_Waal_Energy-OPLS-2005>
156.195114135742

> <r_mmod_Electrostatic_Energy-OPLS-2005>
-335.703155517578

> <r_mmod_Solvation_Energy-OPLS-2005>
-221.728149414062

> <b_mmod_Minimization_Converged-OPLS-2005>
0

> <r_mmod_RMS_Derivative-OPLS-2005>
6.21810388565063

$$$$
72
                    3D
 Structure written by MMmdl.
160169  0  0  1  0            999 V2000
  -30.6781  -14.5416   20.5307 C   0  0  0  0  0  0
  -30.4262  -12.3147   19.4348 C   0  0  0  0  0  0
  -29.4988  -12.5116   18.2154 C   0  0  0  0  0  0
  -28.0178  -12.3701   18.6223 C   0  0  0  0  0  0
  -27.6560  -13.2172   19.8721 C   0  0  2  0  0  0
  -28.6910  -13.0191   21.0007 C   0  0  0  0  0  0
  -25.2550  -13.8183   20.5692 C   0  0  0  0  0  0
  -24.1812  -13.0436   20.9176 C   0  0  0  0  0  0
  -24.6389  -11.6916   20.8732 C   0  0  0  0  0  0
  -23.9065  -10.4292   21.0409 C   0  0  0  0  0  0
  -24.3622   -9.4199   21.9181 C   0  0  0  0  0  0
  -23.6295   -8.2234   22.0747 C   0  0  0  0  0  0
  -22.4273   -8.0279   21.3541 C   0  0  0  0  0  0
  -21.9916   -9.0249   20.4635 C   0  0  0  0  0  0
  -22.7242  -10.2130   20.3046 C   0  0  0  0  0  0
  -21.6854   -6.0736   22.5281 C   0  0  0  0  0  0
  -21.4016   -6.5639   23.8220 C   0  0  0  0  0  0
  -21.3661   -5.6792   24.9181 C   0  0  0  0  0  0
  -21.6045   -4.3056   24.7227 C   0  0  0  0  0  0
  -21.8823   -3.8143   23.4349 C   0  0  0  0  0  0
  -21.9194   -4.6961   22.3404 C   0  0  0  0  0  0
  -22.7832  -13.5218   21.1851 C   0  0  0  0  0  0
  -22.1666   -4.2140   21.0979 F   0  0  0  0  0  0
  -21.5625   -3.4539   25.7737 F   0  0  0  0  0  0
  -30.0241  -13.2968   20.4507 N   0  0  0  0  0  0
  -26.2988  -12.9379   20.3343 N   0  0  0  0  0  0
  -25.9312  -11.6525   20.5739 N   0  0  0  0  0  0
  -22.0493  -12.8178   22.0405 N   0  0  0  0  0  0
  -25.4267  -15.1900   20.4138 N   0  0  0  0  0  0
  -31.8106  -14.7607   20.0927 O   0  0  0  0  0  0
  -21.6635   -6.8881   21.4243 O   0  0  0  0  0  0
  -22.3503  -14.5530   20.6727 O   0  0  0  0  0  0
  -24.6207  -31.8653   23.2085 C   0  0  0  0  0  0
  -25.9077  -32.4817   23.8395 C   0  0  1  0  0  0
  -27.2272  -27.3789   20.1008 C   0  0  0  0  0  0
  -25.5915  -33.8621   24.2310 N   0  0  0  0  0  0
  -23.4107  -30.4890   21.5523 C   0  0  2  0  0  0
  -24.8547  -28.9537   20.1140 C   0  0  0  0  0  0
  -22.7445  -29.4636   22.4987 C   0  0  0  0  0  0
  -18.0276  -28.1371   22.8487 C   0  0  0  0  0  0
  -24.1481  -36.7308   23.2636 C   0  0  0  0  0  0
  -25.9472  -30.8139   21.3706 C   0  0  0  0  0  0
  -26.0216  -29.4470   20.7108 C   0  0  0  0  0  0
  -27.2112  -28.6708   20.6944 C   0  0  0  0  0  0
  -26.0352  -26.9205   19.4906 C   0  0  0  0  0  0
  -24.8600  -27.6928   19.4987 C   0  0  0  0  0  0
  -23.6206  -29.8268   20.1658 C   0  0  0  0  0  0
  -25.4109  -36.3108   24.0327 C   0  0  1  0  0  0
  -20.5871  -28.3662   23.1308 C   0  0  2  0  0  0
  -20.6772  -26.9394   22.5411 C   0  0  0  0  0  0
  -19.5751  -26.6381   21.5208 C   0  0  0  0  0  0
  -18.1925  -26.7922   22.1617 C   0  0  0  0  0  0
  -19.1528  -28.8835   23.2887 C   0  0  0  0  0  0
  -18.9458  -30.1445   23.8892 C   0  0  0  0  0  0
  -17.6459  -30.6580   24.0559 C   0  0  0  0  0  0
  -25.9045  -34.9478   23.5114 C   0  0  0  0  0  0
  -16.5347  -29.9076   23.6331 C   0  0  0  0  0  0
  -16.7266  -28.6493   23.0352 C   0  0  0  0  0  0
  -26.4483  -31.6625   25.0750 C   0  0  0  0  0  0
  -25.3725  -31.3758   26.1481 C   0  0  0  0  0  0
  -27.0341  -30.3066   24.6176 C   0  0  0  0  0  0
  -27.6039  -32.4366   25.7523 C   0  0  0  0  0  0
  -27.5578  -37.1805   24.8457 C   0  0  0  0  0  0
  -21.4168  -29.3023   22.3715 N   0  0  0  0  0  0
  -26.4287  -37.3799   23.9410 N   0  0  0  0  0  0
  -24.6783  -31.0710   22.1015 N   0  0  0  0  0  0
  -23.4190  -28.8178   23.3049 O   0  0  0  0  0  0
  -28.3737  -26.5879   20.1329 O   0  0  0  0  0  0
  -26.5607  -34.8930   22.4677 O   0  0  0  0  0  0
  -23.5384  -32.1438   23.7436 O   0  0  0  0  0  0
  -31.2307  -18.9357   21.6261 C   0  0  0  0  0  0
  -29.5734  -17.6554   19.7908 C   0  0  0  0  0  0
  -30.7315  -19.7065   20.5431 C   0  0  0  0  0  0
  -29.8732  -19.0394   19.6179 C   0  0  0  0  0  0
  -30.1377  -16.8843   20.8373 C   0  0  0  0  0  0
  -30.9449  -17.5584   21.7759 C   0  0  0  0  0  0
  -31.3968  -21.0566   20.2828 C   0  0  0  0  0  0
  -30.6094  -24.5734   19.3629 C   0  0  0  0  0  0
  -31.5448  -23.3762   19.5233 C   0  0  0  0  0  0
  -29.3878  -22.7331   20.3117 C   0  0  0  0  0  0
  -29.4799  -24.3014   20.3412 C   0  0  2  0  0  0
  -29.3105  -19.7411   18.3908 C   0  0  0  0  0  0
  -28.1992  -25.1424   20.0270 C   0  0  0  0  0  0
  -30.7526  -22.2399   20.0216 N   0  0  0  0  0  0
  -32.6326  -21.0227   20.2640 O   0  0  0  0  0  0
  -29.8317  -15.5345   20.9887 O   0  0  0  0  0  0
  -31.4725  -16.8753   22.8209 F   0  0  0  0  0  0
  -31.4722  -12.4252   19.1425 H   0  0  0  0  0  0
  -30.3261  -11.3037   19.8328 H   0  0  0  0  0  0
  -29.7404  -11.7917   17.4324 H   0  0  0  0  0  0
  -29.6624  -13.5003   17.7842 H   0  0  0  0  0  0
  -27.8279  -11.3148   18.8213 H   0  0  0  0  0  0
  -27.3716  -12.6400   17.7857 H   0  0  0  0  0  0
  -27.6940  -14.2630   19.5669 H   0  0  0  0  0  0
  -28.6557  -11.9935   21.3702 H   0  0  0  0  0  0
  -28.4620  -13.6515   21.8597 H   0  0  0  0  0  0
  -25.2784   -9.5665   22.4737 H   0  0  0  0  0  0
  -24.0005   -7.4625   22.7463 H   0  0  0  0  0  0
  -21.0850   -8.8769   19.8935 H   0  0  0  0  0  0
  -22.3715  -10.9665   19.6139 H   0  0  0  0  0  0
  -21.2016   -7.6150   23.9720 H   0  0  0  0  0  0
  -21.1481   -6.0523   25.9086 H   0  0  0  0  0  0
  -22.0602   -2.7600   23.2853 H   0  0  0  0  0  0
  -22.4160  -11.9844   22.4762 H   0  0  0  0  0  0
  -21.1114  -13.1187   22.2654 H   0  0  0  0  0  0
  -24.6651  -15.8506   20.5290 H   0  0  0  0  0  0
  -26.2947  -15.6299   20.1352 H   0  0  0  0  0  0
  -26.7146  -32.5500   23.1154 H   0  0  0  0  0  0
  -25.0073  -33.9795   25.0457 H   0  0  0  0  0  0
  -22.7007  -31.3077   21.4148 H   0  0  0  0  0  0
  -23.3757  -35.9627   23.3291 H   0  0  0  0  0  0
  -24.3562  -36.8942   22.2052 H   0  0  0  0  0  0
  -23.7219  -37.6499   23.6671 H   0  0  0  0  0  0
  -26.0699  -31.5817   20.6055 H   0  0  0  0  0  0
  -26.8305  -30.8611   21.9960 H   0  0  0  0  0  0
  -28.1106  -29.0477   21.1613 H   0  0  0  0  0  0
  -25.9824  -25.9593   19.0023 H   0  0  0  0  0  0
  -23.9635  -27.3085   19.0312 H   0  0  0  0  0  0
  -23.7357  -30.6067   19.4122 H   0  0  0  0  0  0
  -22.7415  -29.2546   19.8636 H   0  0  0  0  0  0
  -25.1283  -36.1969   25.0820 H   0  0  0  0  0  0
  -20.9950  -28.3224   24.1437 H   0  0  0  0  0  0
  -20.5692  -26.2261   23.3594 H   0  0  0  0  0  0
  -21.6643  -26.7449   22.1201 H   0  0  0  0  0  0
  -19.6922  -25.6299   21.1226 H   0  0  0  0  0  0
  -19.6697  -27.3203   20.6746 H   0  0  0  0  0  0
  -17.4202  -26.6670   21.4008 H   0  0  0  0  0  0
  -18.0319  -26.0052   22.9003 H   0  0  0  0  0  0
  -19.7934  -30.7256   24.2258 H   0  0  0  0  0  0
  -17.5019  -31.6259   24.5159 H   0  0  0  0  0  0
  -15.5351  -30.2979   23.7664 H   0  0  0  0  0  0
  -15.8663  -28.0814   22.7076 H   0  0  0  0  0  0
  -24.5870  -30.7145   25.7808 H   0  0  0  0  0  0
  -24.8950  -32.2932   26.4936 H   0  0  0  0  0  0
  -25.8049  -30.8909   27.0242 H   0  0  0  0  0  0
  -26.2926  -29.6821   24.1182 H   0  0  0  0  0  0
  -27.4050  -29.7315   25.4671 H   0  0  0  0  0  0
  -27.8781  -30.4390   23.9399 H   0  0  0  0  0  0
  -27.2635  -33.3646   26.2135 H   0  0  0  0  0  0
  -28.3833  -32.6972   25.0349 H   0  0  0  0  0  0
  -28.0736  -31.8481   26.5417 H   0  0  0  0  0  0
  -28.2587  -38.0111   24.7527 H   0  0  0  0  0  0
  -28.1078  -36.2642   24.6261 H   0  0  0  0  0  0
  -27.2290  -37.1428   25.8855 H   0  0  0  0  0  0
  -20.9341  -29.8728   21.6916 H   0  0  0  0  0  0
  -26.0172  -38.2871   24.1431 H   0  0  0  0  0  0
  -31.9105  -19.3928   22.3310 H   0  0  0  0  0  0
  -28.9266  -17.1592   19.0802 H   0  0  0  0  0  0
  -30.2252  -24.6051   18.3419 H   0  0  0  0  0  0
  -31.1087  -25.5243   19.5554 H   0  0  0  0  0  0
  -32.3316  -23.6198   20.2403 H   0  0  0  0  0  0
  -32.0273  -23.1302   18.5754 H   0  0  0  0  0  0
  -28.7198  -22.4078   19.5155 H   0  0  0  0  0  0
  -29.0078  -22.3327   21.2530 H   0  0  0  0  0  0
  -29.8244  -24.5829   21.3375 H   0  0  0  0  0  0
  -29.0648  -19.0229   17.6084 H   0  0  0  0  0  0
  -30.0154  -20.4497   17.9550 H   0  0  0  0  0  0
  -28.3945  -20.2730   18.6473 H   0  0  0  0  0  0
  -27.4101  -24.8308   20.7138 H   0  0  0  0  0  0
  -27.8649  -24.8871   19.0207 H   0  0  0  0  0  0
  1 25  1  0  0  0
  1 30  2  0  0  0
  1 86  1  0  0  0
  2  3  1  0  0  0
  2 25  1  0  0  0
  2 88  1  0  0  0
  2 89  1  0  0  0
  3  4  1  0  0  0
  3 90  1  0  0  0
  3 91  1  0  0  0
  4  5  1  0  0  0
  4 92  1  0  0  0
  4 93  1  0  0  0
  5  6  1  0  0  0
  5 26  1  0  0  0
  5 94  1  0  0  0
  6 25  1  0  0  0
  6 95  1  0  0  0
  6 96  1  0  0  0
  7  8  2  0  0  0
  7 26  1  0  0  0
  7 29  1  0  0  0
  8  9  1  0  0  0
  8 22  1  0  0  0
  9 10  1  0  0  0
  9 27  2  0  0  0
 10 11  2  0  0  0
 10 15  1  0  0  0
 11 12  1  0  0  0
 11 97  1  0  0  0
 12 13  2  0  0  0
 12 98  1  0  0  0
 13 14  1  0  0  0
 13 31  1  0  0  0
 14 15  2  0  0  0
 14 99  1  0  0  0
 15100  1  0  0  0
 16 17  2  0  0  0
 16 21  1  0  0  0
 16 31  1  0  0  0
 17 18  1  0  0  0
 17101  1  0  0  0
 18 19  2  0  0  0
 18102  1  0  0  0
 19 20  1  0  0  0
 19 24  1  0  0  0
 20 21  2  0  0  0
 20103  1  0  0  0
 21 23  1  0  0  0
 22 28  1  0  0  0
 22 32  2  0  0  0
 26 27  1  0  0  0
 28104  1  0  0  0
 28105  1  0  0  0
 29106  1  0  0  0
 29107  1  0  0  0
 33 34  1  0  0  0
 33 66  1  0  0  0
 33 70  2  0  0  0
 34 36  1  0  0  0
 34 59  1  0  0  0
 34108  1  0  0  0
 35 44  2  0  0  0
 35 45  1  0  0  0
 35 68  1  0  0  0
 36 56  1  0  0  0
 36109  1  0  0  0
 37 39  1  0  0  0
 37 47  1  0  0  0
 37 66  1  0  0  0
 37110  1  0  0  0
 38 43  2  0  0  0
 38 46  1  0  0  0
 38 47  1  0  0  0
 39 64  1  0  0  0
 39 67  2  0  0  0
 40 52  1  0  0  0
 40 53  2  0  0  0
 40 58  1  0  0  0
 41111  1  0  0  0
 41112  1  0  0  0
 41113  1  0  0  0
 41 48  1  0  0  0
 42 43  1  0  0  0
 42 66  1  0  0  0
 42114  1  0  0  0
 42115  1  0  0  0
 43 44  1  0  0  0
 44116  1  0  0  0
 45 46  2  0  0  0
 45117  1  0  0  0
 46118  1  0  0  0
 47119  1  0  0  0
 47120  1  0  0  0
 48 56  1  0  0  0
 48 65  1  0  0  0
 48121  1  0  0  0
 49 50  1  0  0  0
 49 53  1  0  0  0
 49 64  1  0  0  0
 49122  1  0  0  0
 50 51  1  0  0  0
 50123  1  0  0  0
 50124  1  0  0  0
 51 52  1  0  0  0
 51125  1  0  0  0
 51126  1  0  0  0
 52127  1  0  0  0
 52128  1  0  0  0
 53 54  1  0  0  0
 54 55  2  0  0  0
 54129  1  0  0  0
 55 57  1  0  0  0
 55130  1  0  0  0
 56 69  2  0  0  0
 57 58  2  0  0  0
 57131  1  0  0  0
 58132  1  0  0  0
 59 60  1  0  0  0
 59 61  1  0  0  0
 59 62  1  0  0  0
 60133  1  0  0  0
 60134  1  0  0  0
 60135  1  0  0  0
 61136  1  0  0  0
 61137  1  0  0  0
 61138  1  0  0  0
 62139  1  0  0  0
 62140  1  0  0  0
 62141  1  0  0  0
 63 65  1  0  0  0
 63142  1  0  0  0
 63143  1  0  0  0
 63144  1  0  0  0
 64145  1  0  0  0
 65146  1  0  0  0
 68 83  1  0  0  0
 71 73  2  0  0  0
 71 76  1  0  0  0
 71147  1  0  0  0
 72 74  2  0  0  0
 72 75  1  0  0  0
 72148  1  0  0  0
 73 74  1  0  0  0
 73 77  1  0  0  0
 74 82  1  0  0  0
 75 76  2  0  0  0
 75 86  1  0  0  0
 76 87  1  0  0  0
 77 84  1  0  0  0
 77 85  2  0  0  0
 78 79  1  0  0  0
 78 81  1  0  0  0
 78149  1  0  0  0
 78150  1  0  0  0
 79 84  1  0  0  0
 79151  1  0  0  0
 79152  1  0  0  0
 80 81  1  0  0  0
 80 84  1  0  0  0
 80153  1  0  0  0
 80154  1  0  0  0
 81 83  1  0  0  0
 81155  1  0  0  0
 82156  1  0  0  0
 82157  1  0  0  0
 82158  1  0  0  0
 83159  1  0  0  0
 83160  1  0  0  0
M  ISO  4   1 100  68 101  83 101  86 100
M  END
> <chiral flag>
0

> <version>
0

> <s_m_source_file>
/data/baiqing/PycharmProjects/Reinvent-master-3.2/result/LINK_invent/BTK/process_docking_weight1_custom_product_contain_oxygen_bond_distance_aromatic_linkinvent_7_9_3/rearranged_h_0104.sdf

> <i_m_source_file_index>
72

> <r_mmod_Potential_Energy-OPLS-2005>
162.609252929688

> <r_mmod_Stretch_Energy-OPLS-2005>
55.7120666503906

> <r_mmod_Bend_Energy-OPLS-2005>
149.029571533203

> <r_mmod_Torsional_Energy-OPLS-2005>
281.069274902344

> <r_mmod_Improper_Torsional_Energy-OPLS-2005>
7.09762191772461

> <r_mmod_Van_der_Waal_Energy-OPLS-2005>
147.055084228516

> <r_mmod_Electrostatic_Energy-OPLS-2005>
-289.744140625

> <r_mmod_Solvation_Energy-OPLS-2005>
-210.402282714844

> <b_mmod_Minimization_Converged-OPLS-2005>
0

> <r_mmod_RMS_Derivative-OPLS-2005>
1.45696640014648

$$$$
73
                    3D
 Structure written by MMmdl.
158166  0  0  1  0            999 V2000
  -30.7034  -14.5330   20.3905 C   0  0  0  0  0  0
  -30.4213  -12.2893   19.4433 C   0  0  0  0  0  0
  -29.4916  -12.3728   18.2135 C   0  0  0  0  0  0
  -28.0093  -12.2858   18.6347 C   0  0  0  0  0  0
  -27.6403  -13.1952   19.8393 C   0  0  2  0  0  0
  -28.6977  -13.1095   20.9607 C   0  0  0  0  0  0
  -25.2511  -13.8055   20.5786 C   0  0  0  0  0  0
  -24.1766  -13.0354   20.9217 C   0  0  0  0  0  0
  -24.6331  -11.6837   20.8759 C   0  0  0  0  0  0
  -23.9008  -10.4244   21.0410 C   0  0  0  0  0  0
  -24.3578   -9.4171   21.9188 C   0  0  0  0  0  0
  -23.6266   -8.2206   22.0746 C   0  0  0  0  0  0
  -22.4251   -8.0245   21.3534 C   0  0  0  0  0  0
  -21.9876   -9.0211   20.4636 C   0  0  0  0  0  0
  -22.7189  -10.2090   20.3055 C   0  0  0  0  0  0
  -21.6837   -6.0713   22.5276 C   0  0  0  0  0  0
  -21.4004   -6.5627   23.8207 C   0  0  0  0  0  0
  -21.3656   -5.6784   24.9175 C   0  0  0  0  0  0
  -21.6045   -4.3045   24.7227 C   0  0  0  0  0  0
  -21.8825   -3.8134   23.4349 C   0  0  0  0  0  0
  -21.9190   -4.6946   22.3401 C   0  0  0  0  0  0
  -22.7804  -13.5179   21.1878 C   0  0  0  0  0  0
  -22.1663   -4.2137   21.0978 F   0  0  0  0  0  0
  -21.5636   -3.4530   25.7739 F   0  0  0  0  0  0
  -30.0239  -13.3517   20.3747 N   0  0  0  0  0  0
  -26.2929  -12.9240   20.3320 N   0  0  0  0  0  0
  -25.9254  -11.6417   20.5802 N   0  0  0  0  0  0
  -22.0426  -12.8193   22.0426 N   0  0  0  0  0  0
  -25.4141  -15.1770   20.4403 N   0  0  0  0  0  0
  -31.9315  -14.6006   20.3149 O   0  0  0  0  0  0
  -21.6619   -6.8843   21.4230 O   0  0  0  0  0  0
  -22.3517  -14.5506   20.6729 O   0  0  0  0  0  0
  -24.6124  -31.8696   23.2127 C   0  0  0  0  0  0
  -25.9027  -32.4829   23.8431 C   0  0  1  0  0  0
  -27.2418  -27.4497   20.1126 C   0  0  0  0  0  0
  -25.5901  -33.8631   24.2356 N   0  0  0  0  0  0
  -23.4011  -30.4907   21.5518 C   0  0  2  0  0  0
  -24.8529  -28.9516   20.1232 C   0  0  0  0  0  0
  -22.7400  -29.4660   22.5007 C   0  0  0  0  0  0
  -18.0269  -28.1379   22.8507 C   0  0  0  0  0  0
  -24.1480  -36.7307   23.2643 C   0  0  0  0  0  0
  -25.9282  -30.8368   21.3683 C   0  0  0  0  0  0
  -26.0084  -29.4701   20.7218 C   0  0  0  0  0  0
  -27.2072  -28.7237   20.7189 C   0  0  0  0  0  0
  -26.0767  -26.9370   19.5100 C   0  0  0  0  0  0
  -24.8789  -27.6805   19.5186 C   0  0  0  0  0  0
  -23.6132  -29.8177   20.1686 C   0  0  0  0  0  0
  -25.4107  -36.3113   24.0343 C   0  0  1  0  0  0
  -20.5854  -28.3667   23.1318 C   0  0  2  0  0  0
  -20.6754  -26.9403   22.5420 C   0  0  0  0  0  0
  -19.5722  -26.6378   21.5227 C   0  0  0  0  0  0
  -18.1899  -26.7928   22.1630 C   0  0  0  0  0  0
  -19.1518  -28.8844   23.2900 C   0  0  0  0  0  0
  -18.9451  -30.1452   23.8907 C   0  0  0  0  0  0
  -17.6450  -30.6587   24.0573 C   0  0  0  0  0  0
  -25.9034  -34.9478   23.5145 C   0  0  0  0  0  0
  -16.5342  -29.9085   23.6338 C   0  0  0  0  0  0
  -16.7257  -28.6497   23.0374 C   0  0  0  0  0  0
  -26.4479  -31.6611   25.0756 C   0  0  0  0  0  0
  -25.3753  -31.3681   26.1506 C   0  0  0  0  0  0
  -27.0366  -30.3074   24.6138 C   0  0  0  0  0  0
  -27.6064  -32.4349   25.7504 C   0  0  0  0  0  0
  -27.5581  -37.1799   24.8468 C   0  0  0  0  0  0
  -21.4133  -29.3029   22.3731 N   0  0  0  0  0  0
  -26.4291  -37.3800   23.9421 N   0  0  0  0  0  0
  -24.6649  -31.0798   22.1029 N   0  0  0  0  0  0
  -23.4174  -28.8204   23.3050 O   0  0  0  0  0  0
  -28.4075  -26.7272   20.0561 O   0  0  0  0  0  0
  -26.5580  -34.8919   22.4698 O   0  0  0  0  0  0
  -23.5314  -32.1452   23.7517 O   0  0  0  0  0  0
  -30.7067  -17.4962   21.3756 C   0  0  0  0  0  0
  -28.5269  -19.1366   20.7726 C   0  0  0  0  0  0
  -29.7204  -16.9927   20.4898 C   0  0  0  0  0  0
  -28.5949  -17.8401   20.2237 C   0  0  0  0  0  0
  -29.5547  -19.6575   21.5867 C   0  0  0  0  0  0
  -30.6277  -18.8001   21.9128 C   0  0  0  0  0  0
  -29.9561  -15.7083   19.7354 C   0  0  0  0  0  0
  -27.4280  -17.4742   19.3125 C   0  0  0  0  0  0
  -28.4046  -24.3890   20.7870 C   0  0  0  0  0  0
  -29.0538  -23.3623   21.7490 C   0  0  0  0  0  0
  -28.6576  -25.8632   21.1674 C   0  0  0  0  0  0
  -28.7042  -21.9044   21.3898 C   0  0  0  0  0  0
  -29.6496  -15.6523   18.5052 N   0  0  0  0  0  0
  -29.5602  -20.9647   22.0520 O   0  0  0  0  0  0
  -31.6265  -19.2484   22.7116 F   0  0  0  0  0  0
  -31.4656  -12.3740   19.1343 H   0  0  0  0  0  0
  -30.3275  -11.3170   19.9302 H   0  0  0  0  0  0
  -29.7218  -11.5534   17.5315 H   0  0  0  0  0  0
  -29.6768  -13.2783   17.6414 H   0  0  0  0  0  0
  -27.8187  -11.2440   18.8941 H   0  0  0  0  0  0
  -27.3610  -12.5051   17.7864 H   0  0  0  0  0  0
  -27.6278  -14.2104   19.4570 H   0  0  0  0  0  0
  -28.6772  -12.1271   21.4346 H   0  0  0  0  0  0
  -28.4821  -13.8381   21.7448 H   0  0  0  0  0  0
  -25.2709   -9.5675   22.4774 H   0  0  0  0  0  0
  -23.9977   -7.4602   22.7474 H   0  0  0  0  0  0
  -21.0801   -8.8721   19.8946 H   0  0  0  0  0  0
  -22.3632  -10.9637   19.6184 H   0  0  0  0  0  0
  -21.1992   -7.6135   23.9707 H   0  0  0  0  0  0
  -21.1477   -6.0514   25.9077 H   0  0  0  0  0  0
  -22.0612   -2.7597   23.2853 H   0  0  0  0  0  0
  -22.4032  -11.9876   22.4869 H   0  0  0  0  0  0
  -21.1051  -13.1249   22.2623 H   0  0  0  0  0  0
  -24.6479  -15.8269   20.5793 H   0  0  0  0  0  0
  -26.2883  -15.6285   20.2137 H   0  0  0  0  0  0
  -26.7103  -32.5560   23.1209 H   0  0  0  0  0  0
  -25.0120  -33.9812   25.0545 H   0  0  0  0  0  0
  -22.6884  -31.3059   21.4102 H   0  0  0  0  0  0
  -23.3754  -35.9629   23.3315 H   0  0  0  0  0  0
  -24.3556  -36.8921   22.2056 H   0  0  0  0  0  0
  -23.7222  -37.6506   23.6663 H   0  0  0  0  0  0
  -26.0400  -31.5992   20.5971 H   0  0  0  0  0  0
  -26.8144  -30.8924   21.9881 H   0  0  0  0  0  0
  -28.1030  -29.1225   21.1757 H   0  0  0  0  0  0
  -26.1008  -25.9671   19.0345 H   0  0  0  0  0  0
  -23.9901  -27.2733   19.0575 H   0  0  0  0  0  0
  -23.7203  -30.5917   19.4084 H   0  0  0  0  0  0
  -22.7385  -29.2351   19.8728 H   0  0  0  0  0  0
  -25.1277  -36.1989   25.0834 H   0  0  0  0  0  0
  -20.9946  -28.3242   24.1439 H   0  0  0  0  0  0
  -20.5685  -26.2278   23.3615 H   0  0  0  0  0  0
  -21.6618  -26.7451   22.1199 H   0  0  0  0  0  0
  -19.6877  -25.6289   21.1251 H   0  0  0  0  0  0
  -19.6651  -27.3191   20.6763 H   0  0  0  0  0  0
  -17.4183  -26.6724   21.4013 H   0  0  0  0  0  0
  -18.0252  -26.0053   22.8999 H   0  0  0  0  0  0
  -19.7931  -30.7272   24.2265 H   0  0  0  0  0  0
  -17.5016  -31.6270   24.5177 H   0  0  0  0  0  0
  -15.5347  -30.3004   23.7653 H   0  0  0  0  0  0
  -15.8657  -28.0822   22.7091 H   0  0  0  0  0  0
  -24.5940  -30.7016   25.7832 H   0  0  0  0  0  0
  -24.8918  -32.2812   26.4983 H   0  0  0  0  0  0
  -25.8110  -30.8837   27.0252 H   0  0  0  0  0  0
  -26.2918  -29.6757   24.1280 H   0  0  0  0  0  0
  -27.4260  -29.7387   25.4594 H   0  0  0  0  0  0
  -27.8685  -30.4434   23.9225 H   0  0  0  0  0  0
  -27.2707  -33.3667   26.2066 H   0  0  0  0  0  0
  -28.3864  -32.6877   25.0312 H   0  0  0  0  0  0
  -28.0746  -31.8492   26.5424 H   0  0  0  0  0  0
  -28.2594  -38.0103   24.7564 H   0  0  0  0  0  0
  -28.1083  -36.2642   24.6250 H   0  0  0  0  0  0
  -27.2295  -37.1401   25.8866 H   0  0  0  0  0  0
  -20.9302  -29.8759   21.6952 H   0  0  0  0  0  0
  -26.0181  -38.2876   24.1449 H   0  0  0  0  0  0
  -31.5877  -16.9143   21.6049 H   0  0  0  0  0  0
  -27.6700  -19.7433   20.5184 H   0  0  0  0  0  0
  -26.4881  -17.7997   19.7609 H   0  0  0  0  0  0
  -27.3259  -16.4123   19.1185 H   0  0  0  0  0  0
  -27.5277  -17.9797   18.3516 H   0  0  0  0  0  0
  -27.3301  -24.2165   20.7193 H   0  0  0  0  0  0
  -28.7988  -24.2139   19.7853 H   0  0  0  0  0  0
  -28.7523  -23.5651   22.7772 H   0  0  0  0  0  0
  -30.1371  -23.4867   21.7162 H   0  0  0  0  0  0
  -29.7034  -25.9929   21.4474 H   0  0  0  0  0  0
  -28.0678  -26.1382   22.0447 H   0  0  0  0  0  0
  -28.7957  -21.7833   20.3088 H   0  0  0  0  0  0
  -27.6642  -21.7088   21.6567 H   0  0  0  0  0  0
  -29.2331  -16.5225   18.2013 H   0  0  0  0  0  0
  1 25  1  0  0  0
  1 30  2  0  0  0
  1 77  1  0  0  0
  2  3  1  0  0  0
  2 25  1  0  0  0
  2 86  1  0  0  0
  2 87  1  0  0  0
  3  4  1  0  0  0
  3 88  1  0  0  0
  3 89  1  0  0  0
  4  5  1  0  0  0
  4 90  1  0  0  0
  4 91  1  0  0  0
  5  6  1  0  0  0
  5 26  1  0  0  0
  5 92  1  0  0  0
  6 25  1  0  0  0
  6 93  1  0  0  0
  6 94  1  0  0  0
  7  8  2  0  0  0
  7 26  1  0  0  0
  7 29  1  0  0  0
  8  9  1  0  0  0
  8 22  1  0  0  0
  9 10  1  0  0  0
  9 27  2  0  0  0
 10 11  2  0  0  0
 10 15  1  0  0  0
 11 12  1  0  0  0
 11 95  1  0  0  0
 12 13  2  0  0  0
 12 96  1  0  0  0
 13 14  1  0  0  0
 13 31  1  0  0  0
 14 15  2  0  0  0
 14 97  1  0  0  0
 15 98  1  0  0  0
 16 17  2  0  0  0
 16 21  1  0  0  0
 16 31  1  0  0  0
 17 18  1  0  0  0
 17 99  1  0  0  0
 18 19  2  0  0  0
 18100  1  0  0  0
 19 20  1  0  0  0
 19 24  1  0  0  0
 20 21  2  0  0  0
 20101  1  0  0  0
 21 23  1  0  0  0
 22 28  1  0  0  0
 22 32  2  0  0  0
 26 27  1  0  0  0
 28102  1  0  0  0
 28103  1  0  0  0
 29104  1  0  0  0
 29105  1  0  0  0
 33 34  1  0  0  0
 33 66  1  0  0  0
 33 70  2  0  0  0
 34 36  1  0  0  0
 34 59  1  0  0  0
 34106  1  0  0  0
 35 44  2  0  0  0
 35 45  1  0  0  0
 35 68  1  0  0  0
 36 56  1  0  0  0
 36107  1  0  0  0
 37 39  1  0  0  0
 37 47  1  0  0  0
 37 66  1  0  0  0
 37108  1  0  0  0
 38 43  2  0  0  0
 38 46  1  0  0  0
 38 47  1  0  0  0
 39 64  1  0  0  0
 39 67  2  0  0  0
 40 52  1  0  0  0
 40 53  2  0  0  0
 40 58  1  0  0  0
 41109  1  0  0  0
 41110  1  0  0  0
 41111  1  0  0  0
 41 48  1  0  0  0
 42 43  1  0  0  0
 42 66  1  0  0  0
 42112  1  0  0  0
 42113  1  0  0  0
 43 44  1  0  0  0
 44114  1  0  0  0
 45 46  2  0  0  0
 45115  1  0  0  0
 46116  1  0  0  0
 47117  1  0  0  0
 47118  1  0  0  0
 48 56  1  0  0  0
 48 65  1  0  0  0
 48119  1  0  0  0
 49 50  1  0  0  0
 49 53  1  0  0  0
 49 64  1  0  0  0
 49120  1  0  0  0
 50 51  1  0  0  0
 50121  1  0  0  0
 50122  1  0  0  0
 51 52  1  0  0  0
 51123  1  0  0  0
 51124  1  0  0  0
 52125  1  0  0  0
 52126  1  0  0  0
 53 54  1  0  0  0
 54 55  2  0  0  0
 54127  1  0  0  0
 55 57  1  0  0  0
 55128  1  0  0  0
 56 69  2  0  0  0
 57 58  2  0  0  0
 57129  1  0  0  0
 58130  1  0  0  0
 59 60  1  0  0  0
 59 61  1  0  0  0
 59 62  1  0  0  0
 60131  1  0  0  0
 60132  1  0  0  0
 60133  1  0  0  0
 61134  1  0  0  0
 61135  1  0  0  0
 61136  1  0  0  0
 62137  1  0  0  0
 62138  1  0  0  0
 62139  1  0  0  0
 63 65  1  0  0  0
 63140  1  0  0  0
 63141  1  0  0  0
 63142  1  0  0  0
 64143  1  0  0  0
 65144  1  0  0  0
 68 81  1  0  0  0
 71 73  2  0  0  0
 71 76  1  0  0  0
 71145  1  0  0  0
 72 74  2  0  0  0
 72 75  1  0  0  0
 72146  1  0  0  0
 73 74  1  0  0  0
 73 77  1  0  0  0
 74 78  1  0  0  0
 75 76  2  0  0  0
 75 84  1  0  0  0
 76 85  1  0  0  0
 77 83  2  0  0  0
 78147  1  0  0  0
 78148  1  0  0  0
 78149  1  0  0  0
 79 80  1  0  0  0
 79 81  1  0  0  0
 79150  1  0  0  0
 79151  1  0  0  0
 80 82  1  0  0  0
 80152  1  0  0  0
 80153  1  0  0  0
 81154  1  0  0  0
 81155  1  0  0  0
 82 84  1  0  0  0
 82156  1  0  0  0
 82157  1  0  0  0
 83158  1  0  0  0
M  ISO  4   1 100  68 101  77 100  81 101
M  END
> <chiral flag>
0

> <version>
0

> <s_m_source_file>
/data/baiqing/PycharmProjects/Reinvent-master-3.2/result/LINK_invent/BTK/process_docking_weight1_custom_product_contain_oxygen_bond_distance_aromatic_linkinvent_7_9_3/rearranged_h_0104.sdf

> <i_m_source_file_index>
73

> <r_mmod_Potential_Energy-OPLS-2005>
243.422485351562

> <r_mmod_Stretch_Energy-OPLS-2005>
41.5536918640137

> <r_mmod_Bend_Energy-OPLS-2005>
106.168037414551

> <r_mmod_Torsional_Energy-OPLS-2005>
285.062438964844

> <r_mmod_Improper_Torsional_Energy-OPLS-2005>
26.0338363647461

> <r_mmod_Van_der_Waal_Energy-OPLS-2005>
159.624557495117

> <r_mmod_Electrostatic_Energy-OPLS-2005>
-213.00325012207

> <r_mmod_Solvation_Energy-OPLS-2005>
-199.130874633789

> <b_mmod_Minimization_Converged-OPLS-2005>
0

> <r_mmod_RMS_Derivative-OPLS-2005>
1.64914774894714

$$$$
74
                    3D
 Structure written by MMmdl.
148155  0  0  1  0            999 V2000
  -30.5354  -15.0461   20.3462 C   0  0  0  0  0  0
  -30.4441  -12.6467   19.4805 C   0  0  0  0  0  0
  -29.5188  -12.4828   18.2528 C   0  0  0  0  0  0
  -28.0554  -12.2665   18.6895 C   0  0  0  0  0  0
  -27.6132  -13.2238   19.8262 C   0  0  2  0  0  0
  -28.6725  -13.3550   20.9409 C   0  0  0  0  0  0
  -25.2462  -13.8120   20.5800 C   0  0  0  0  0  0
  -24.1749  -13.0384   20.9274 C   0  0  0  0  0  0
  -24.6342  -11.6862   20.8807 C   0  0  0  0  0  0
  -23.9027  -10.4256   21.0441 C   0  0  0  0  0  0
  -24.3592   -9.4173   21.9205 C   0  0  0  0  0  0
  -23.6274   -8.2209   22.0759 C   0  0  0  0  0  0
  -22.4258   -8.0258   21.3544 C   0  0  0  0  0  0
  -21.9891   -9.0231   20.4647 C   0  0  0  0  0  0
  -22.7214  -10.2111   20.3070 C   0  0  0  0  0  0
  -21.6841   -6.0725   22.5281 C   0  0  0  0  0  0
  -21.4005   -6.5634   23.8213 C   0  0  0  0  0  0
  -21.3655   -5.6789   24.9177 C   0  0  0  0  0  0
  -21.6044   -4.3052   24.7229 C   0  0  0  0  0  0
  -21.8820   -3.8142   23.4351 C   0  0  0  0  0  0
  -21.9189   -4.6956   22.3405 C   0  0  0  0  0  0
  -22.7780  -13.5191   21.1901 C   0  0  0  0  0  0
  -22.1661   -4.2142   21.0983 F   0  0  0  0  0  0
  -21.5628   -3.4538   25.7742 F   0  0  0  0  0  0
  -29.9233  -13.7828   20.2949 N   0  0  0  0  0  0
  -26.2837  -12.9278   20.3331 N   0  0  0  0  0  0
  -25.9266  -11.6444   20.5822 N   0  0  0  0  0  0
  -22.0411  -12.8193   22.0449 N   0  0  0  0  0  0
  -25.4172  -15.1852   20.4257 N   0  0  0  0  0  0
  -31.7697  -15.0349   20.2859 O   0  0  0  0  0  0
  -21.6623   -6.8861   21.4239 O   0  0  0  0  0  0
  -22.3489  -14.5503   20.6735 O   0  0  0  0  0  0
  -24.6461  -31.8409   23.1854 C   0  0  0  0  0  0
  -25.9219  -32.4679   23.8256 C   0  0  1  0  0  0
  -27.2215  -27.1049   20.1560 C   0  0  0  0  0  0
  -25.5954  -33.8486   24.2169 N   0  0  0  0  0  0
  -23.4522  -30.4589   21.5310 C   0  0  2  0  0  0
  -24.9044  -28.8810   20.1094 C   0  0  0  0  0  0
  -22.7583  -29.4528   22.4840 C   0  0  0  0  0  0
  -18.0308  -28.1401   22.8474 C   0  0  0  0  0  0
  -24.1493  -36.7248   23.2644 C   0  0  0  0  0  0
  -26.0107  -30.7042   21.3903 C   0  0  0  0  0  0
  -26.0824  -29.3125   20.7319 C   0  0  0  0  0  0
  -27.2404  -28.4411   20.7380 C   0  0  0  0  0  0
  -26.0174  -26.7859   19.4880 C   0  0  0  0  0  0
  -24.8868  -27.6322   19.4710 C   0  0  0  0  0  0
  -23.6818  -29.7863   20.1514 C   0  0  0  0  0  0
  -25.4127  -36.3022   24.0312 C   0  0  1  0  0  0
  -20.5922  -28.3730   23.1226 C   0  0  2  0  0  0
  -20.6791  -26.9429   22.5404 C   0  0  0  0  0  0
  -19.5765  -26.6381   21.5213 C   0  0  0  0  0  0
  -18.1946  -26.7937   22.1623 C   0  0  0  0  0  0
  -19.1565  -28.8883   23.2841 C   0  0  0  0  0  0
  -18.9481  -30.1477   23.8871 C   0  0  0  0  0  0
  -17.6477  -30.6595   24.0559 C   0  0  0  0  0  0
  -25.9079  -34.9399   23.5051 C   0  0  0  0  0  0
  -16.5368  -29.9088   23.6338 C   0  0  0  0  0  0
  -16.7292  -28.6506   23.0358 C   0  0  0  0  0  0
  -26.4531  -31.6561   25.0713 C   0  0  0  0  0  0
  -25.3704  -31.3759   26.1398 C   0  0  0  0  0  0
  -27.0403  -30.2951   24.6322 C   0  0  0  0  0  0
  -27.6050  -32.4338   25.7501 C   0  0  0  0  0  0
  -27.5574  -37.1781   24.8465 C   0  0  0  0  0  0
  -21.4271  -29.3049   22.3593 N   0  0  0  0  0  0
  -26.4285  -37.3738   23.9407 N   0  0  0  0  0  0
  -24.7229  -31.0233   22.0905 N   0  0  0  0  0  0
  -23.4210  -28.8078   23.3005 O   0  0  0  0  0  0
  -28.2573  -26.0912   20.2412 O   0  0  0  0  0  0
  -26.5669  -34.8901   22.4634 O   0  0  0  0  0  0
  -23.5571  -32.1300   23.7052 O   0  0  0  0  0  0
  -28.9285  -23.2856   20.4169 C   0  0  0  0  0  0
  -30.0320  -17.6297   20.5828 C   0  0  0  0  0  0
  -28.9272  -16.2628   18.9438 C   0  0  0  0  0  0
  -27.9436  -24.5699   19.9888 C   0  0  0  0  0  0
  -28.6155  -21.6814   20.0401 C   0  0  0  0  0  0
  -29.1836  -18.9960   20.0706 C   0  0  0  0  0  0
  -29.7913  -16.2754   20.1364 N   0  0  0  0  0  0
  -29.9573  -23.5343   21.0553 O   0  0  0  0  0  0
  -30.8980  -17.8428   21.4380 O   0  0  0  0  0  0
  -29.4759  -20.4652   20.5273 O   0  0  0  0  0  0
  -31.4677  -12.8244   19.1464 H   0  0  0  0  0  0
  -30.4751  -11.7295   20.0708 H   0  0  0  0  0  0
  -29.8505  -11.6388   17.6465 H   0  0  0  0  0  0
  -29.5941  -13.3565   17.6062 H   0  0  0  0  0  0
  -27.9723  -11.2353   19.0347 H   0  0  0  0  0  0
  -27.3850  -12.3535   17.8337 H   0  0  0  0  0  0
  -27.5065  -14.1862   19.3473 H   0  0  0  0  0  0
  -28.8020  -12.4152   21.4796 H   0  0  0  0  0  0
  -28.3587  -14.0988   21.6753 H   0  0  0  0  0  0
  -25.2734   -9.5651   22.4784 H   0  0  0  0  0  0
  -23.9983   -7.4595   22.7472 H   0  0  0  0  0  0
  -21.0825   -8.8750   19.8950 H   0  0  0  0  0  0
  -22.3677  -10.9657   19.6186 H   0  0  0  0  0  0
  -21.1995   -7.6142   23.9715 H   0  0  0  0  0  0
  -21.1475   -6.0520   25.9079 H   0  0  0  0  0  0
  -22.0604   -2.7605   23.2854 H   0  0  0  0  0  0
  -22.4019  -11.9853   22.4843 H   0  0  0  0  0  0
  -21.1029  -13.1225   22.2646 H   0  0  0  0  0  0
  -24.6548  -15.8426   20.5496 H   0  0  0  0  0  0
  -26.2797  -15.6261   20.1370 H   0  0  0  0  0  0
  -26.7282  -32.5275   23.0979 H   0  0  0  0  0  0
  -25.0074  -33.9599   25.0297 H   0  0  0  0  0  0
  -22.7563  -31.2856   21.3736 H   0  0  0  0  0  0
  -23.3761  -35.9573   23.3291 H   0  0  0  0  0  0
  -24.3575  -36.8898   22.2061 H   0  0  0  0  0  0
  -23.7244  -37.6436   23.6695 H   0  0  0  0  0  0
  -26.1711  -31.4572   20.6175 H   0  0  0  0  0  0
  -26.8788  -30.7548   22.0358 H   0  0  0  0  0  0
  -28.1346  -28.7656   21.2516 H   0  0  0  0  0  0
  -25.9120  -25.8331   18.9913 H   0  0  0  0  0  0
  -23.9890  -27.2978   18.9695 H   0  0  0  0  0  0
  -23.8209  -30.5603   19.3958 H   0  0  0  0  0  0
  -22.7962  -29.2300   19.8389 H   0  0  0  0  0  0
  -25.1318  -36.1844   25.0803 H   0  0  0  0  0  0
  -21.0013  -28.3326   24.1348 H   0  0  0  0  0  0
  -20.5686  -26.2345   23.3628 H   0  0  0  0  0  0
  -21.6656  -26.7432   22.1202 H   0  0  0  0  0  0
  -19.6929  -25.6285   21.1262 H   0  0  0  0  0  0
  -19.6704  -27.3176   20.6731 H   0  0  0  0  0  0
  -17.4214  -26.6679   21.4027 H   0  0  0  0  0  0
  -18.0346  -26.0087   22.9028 H   0  0  0  0  0  0
  -19.7957  -30.7300   24.2228 H   0  0  0  0  0  0
  -17.5031  -31.6273   24.5167 H   0  0  0  0  0  0
  -15.5367  -30.2982   23.7678 H   0  0  0  0  0  0
  -15.8690  -28.0817   22.7091 H   0  0  0  0  0  0
  -24.5896  -30.7094   25.7715 H   0  0  0  0  0  0
  -24.8878  -32.2942   26.4752 H   0  0  0  0  0  0
  -25.7976  -30.8978   27.0223 H   0  0  0  0  0  0
  -26.3029  -29.6663   24.1317 H   0  0  0  0  0  0
  -27.3988  -29.7264   25.4912 H   0  0  0  0  0  0
  -27.8949  -30.4175   23.9665 H   0  0  0  0  0  0
  -27.2635  -33.3664   26.2005 H   0  0  0  0  0  0
  -28.3898  -32.6860   25.0357 H   0  0  0  0  0  0
  -28.0677  -31.8515   26.5479 H   0  0  0  0  0  0
  -28.2580  -38.0088   24.7511 H   0  0  0  0  0  0
  -28.1082  -36.2615   24.6294 H   0  0  0  0  0  0
  -27.2289  -37.1427   25.8867 H   0  0  0  0  0  0
  -20.9490  -29.8758   21.6763 H   0  0  0  0  0  0
  -26.0149  -38.2804   24.1414 H   0  0  0  0  0  0
  -27.8865  -16.4559   19.2051 H   0  0  0  0  0  0
  -28.9772  -15.3384   18.3750 H   0  0  0  0  0  0
  -29.2373  -17.0059   18.2090 H   0  0  0  0  0  0
  -26.9862  -24.3654   20.4686 H   0  0  0  0  0  0
  -27.7615  -24.4612   18.9198 H   0  0  0  0  0  0
  -28.5966  -21.6309   18.9514 H   0  0  0  0  0  0
  -27.5897  -21.4881   20.3543 H   0  0  0  0  0  0
  -28.1353  -18.7985   20.2944 H   0  0  0  0  0  0
  -29.2509  -19.0263   18.9847 H   0  0  0  0  0  0
  1 25  1  0  0  0
  1 30  2  0  0  0
  1 77  1  0  0  0
  2  3  1  0  0  0
  2 25  1  0  0  0
  2 81  1  0  0  0
  2 82  1  0  0  0
  3  4  1  0  0  0
  3 83  1  0  0  0
  3 84  1  0  0  0
  4  5  1  0  0  0
  4 85  1  0  0  0
  4 86  1  0  0  0
  5  6  1  0  0  0
  5 26  1  0  0  0
  5 87  1  0  0  0
  6 25  1  0  0  0
  6 88  1  0  0  0
  6 89  1  0  0  0
  7  8  2  0  0  0
  7 26  1  0  0  0
  7 29  1  0  0  0
  8  9  1  0  0  0
  8 22  1  0  0  0
  9 10  1  0  0  0
  9 27  2  0  0  0
 10 11  2  0  0  0
 10 15  1  0  0  0
 11 12  1  0  0  0
 11 90  1  0  0  0
 12 13  2  0  0  0
 12 91  1  0  0  0
 13 14  1  0  0  0
 13 31  1  0  0  0
 14 15  2  0  0  0
 14 92  1  0  0  0
 15 93  1  0  0  0
 16 17  2  0  0  0
 16 21  1  0  0  0
 16 31  1  0  0  0
 17 18  1  0  0  0
 17 94  1  0  0  0
 18 19  2  0  0  0
 18 95  1  0  0  0
 19 20  1  0  0  0
 19 24  1  0  0  0
 20 21  2  0  0  0
 20 96  1  0  0  0
 21 23  1  0  0  0
 22 28  1  0  0  0
 22 32  2  0  0  0
 26 27  1  0  0  0
 28 97  1  0  0  0
 28 98  1  0  0  0
 29 99  1  0  0  0
 29100  1  0  0  0
 33 34  1  0  0  0
 33 66  1  0  0  0
 33 70  2  0  0  0
 34 36  1  0  0  0
 34 59  1  0  0  0
 34101  1  0  0  0
 35 44  2  0  0  0
 35 45  1  0  0  0
 35 68  1  0  0  0
 36 56  1  0  0  0
 36102  1  0  0  0
 37 39  1  0  0  0
 37 47  1  0  0  0
 37 66  1  0  0  0
 37103  1  0  0  0
 38 43  2  0  0  0
 38 46  1  0  0  0
 38 47  1  0  0  0
 39 64  1  0  0  0
 39 67  2  0  0  0
 40 52  1  0  0  0
 40 53  2  0  0  0
 40 58  1  0  0  0
 41104  1  0  0  0
 41105  1  0  0  0
 41106  1  0  0  0
 41 48  1  0  0  0
 42 43  1  0  0  0
 42 66  1  0  0  0
 42107  1  0  0  0
 42108  1  0  0  0
 43 44  1  0  0  0
 44109  1  0  0  0
 45 46  2  0  0  0
 45110  1  0  0  0
 46111  1  0  0  0
 47112  1  0  0  0
 47113  1  0  0  0
 48 56  1  0  0  0
 48 65  1  0  0  0
 48114  1  0  0  0
 49 50  1  0  0  0
 49 53  1  0  0  0
 49 64  1  0  0  0
 49115  1  0  0  0
 50 51  1  0  0  0
 50116  1  0  0  0
 50117  1  0  0  0
 51 52  1  0  0  0
 51118  1  0  0  0
 51119  1  0  0  0
 52120  1  0  0  0
 52121  1  0  0  0
 53 54  1  0  0  0
 54 55  2  0  0  0
 54122  1  0  0  0
 55 57  1  0  0  0
 55123  1  0  0  0
 56 69  2  0  0  0
 57 58  2  0  0  0
 57124  1  0  0  0
 58125  1  0  0  0
 59 60  1  0  0  0
 59 61  1  0  0  0
 59 62  1  0  0  0
 60126  1  0  0  0
 60127  1  0  0  0
 60128  1  0  0  0
 61129  1  0  0  0
 61130  1  0  0  0
 61131  1  0  0  0
 62132  1  0  0  0
 62133  1  0  0  0
 62134  1  0  0  0
 63 65  1  0  0  0
 63135  1  0  0  0
 63136  1  0  0  0
 63137  1  0  0  0
 64138  1  0  0  0
 65139  1  0  0  0
 68 74  1  0  0  0
 71 74  1  0  0  0
 71 75  1  0  0  0
 71 78  2  0  0  0
 72 76  1  0  0  0
 72 77  1  0  0  0
 72 79  2  0  0  0
 73 77  1  0  0  0
 73140  1  0  0  0
 73141  1  0  0  0
 73142  1  0  0  0
 74143  1  0  0  0
 74144  1  0  0  0
 75 80  1  0  0  0
 75145  1  0  0  0
 75146  1  0  0  0
 76 80  1  0  0  0
 76147  1  0  0  0
 76148  1  0  0  0
M  ISO  4   1 100  68 101  74 101  77 100
M  END
> <chiral flag>
0

> <version>
0

> <s_m_source_file>
/data/baiqing/PycharmProjects/Reinvent-master-3.2/result/LINK_invent/BTK/process_docking_weight1_custom_product_contain_oxygen_bond_distance_aromatic_linkinvent_7_9_3/rearranged_h_0104.sdf

> <i_m_source_file_index>
74

> <r_mmod_Potential_Energy-OPLS-2005>
793.406372070312

> <r_mmod_Stretch_Energy-OPLS-2005>
324.582824707031

> <r_mmod_Bend_Energy-OPLS-2005>
279.697967529297

> <r_mmod_Torsional_Energy-OPLS-2005>
289.336669921875

> <r_mmod_Improper_Torsional_Energy-OPLS-2005>
9.48603916168213

> <r_mmod_Van_der_Waal_Energy-OPLS-2005>
125.857719421387

> <r_mmod_Electrostatic_Energy-OPLS-2005>
-223.616790771484

> <r_mmod_Solvation_Energy-OPLS-2005>
-267.284271240234

> <b_mmod_Minimization_Converged-OPLS-2005>
0

> <r_mmod_RMS_Derivative-OPLS-2005>
0.268702656030655

$$$$
75
                    3D
 Structure written by MMmdl.
157165  0  0  1  0            999 V2000
  -29.8558  -15.7166   20.3168 C   0  0  0  0  0  0
  -30.3341  -13.3278   19.4804 C   0  0  0  0  0  0
  -29.4927  -12.6399   18.3400 C   0  0  0  0  0  0
  -28.1154  -12.1753   18.8768 C   0  0  0  0  0  0
  -27.5146  -13.2472   19.7871 C   0  0  2  0  0  0
  -28.4898  -13.6210   20.9292 C   0  0  0  0  0  0
  -25.1918  -13.8032   20.5798 C   0  0  0  0  0  0
  -24.1489  -13.0465   20.9342 C   0  0  0  0  0  0
  -24.6077  -11.6801   20.8908 C   0  0  0  0  0  0
  -23.8895  -10.4195   21.0466 C   0  0  0  0  0  0
  -24.3502   -9.4111   21.9238 C   0  0  0  0  0  0
  -23.6228   -8.2193   22.0761 C   0  0  0  0  0  0
  -22.4197   -8.0188   21.3556 C   0  0  0  0  0  0
  -21.9834   -9.0170   20.4656 C   0  0  0  0  0  0
  -22.7124  -10.2051   20.3094 C   0  0  0  0  0  0
  -21.6810   -6.0691   22.5292 C   0  0  0  0  0  0
  -21.3975   -6.5605   23.8209 C   0  0  0  0  0  0
  -21.3647   -5.6777   24.9181 C   0  0  0  0  0  0
  -21.6048   -4.3033   24.7247 C   0  0  0  0  0  0
  -21.8828   -3.8121   23.4359 C   0  0  0  0  0  0
  -21.9175   -4.6931   22.3412 C   0  0  0  0  0  0
  -22.7513  -13.5161   21.1996 C   0  0  0  0  0  0
  -22.1661   -4.2115   21.0993 F   0  0  0  0  0  0
  -21.5637   -3.4533   25.7755 F   0  0  0  0  0  0
  -29.5487  -14.3205   20.2678 N   0  0  0  0  0  0
  -26.2177  -12.9319   20.3146 N   0  0  0  0  0  0
  -25.8892  -11.6345   20.5833 N   0  0  0  0  0  0
  -22.0257  -12.8236   22.0397 N   0  0  0  0  0  0
  -25.3971  -15.1855   20.3987 N   0  0  0  0  0  0
  -31.0487  -15.7903   20.1752 O   0  0  0  0  0  0
  -21.6593   -6.8832   21.4242 O   0  0  0  0  0  0
  -22.3301  -14.5577   20.6711 O   0  0  0  0  0  0
  -24.6023  -31.8434   23.2266 C   0  0  0  0  0  0
  -25.9043  -32.4944   23.8719 C   0  0  1  0  0  0
  -27.2363  -27.5292   20.0464 C   0  0  0  0  0  0
  -25.5580  -33.8612   24.2394 N   0  0  0  0  0  0
  -23.4672  -30.4724   21.5873 C   0  0  2  0  0  0
  -24.8428  -28.9827   20.0545 C   0  0  0  0  0  0
  -22.7524  -29.4490   22.4425 C   0  0  0  0  0  0
  -17.9947  -28.3525   22.7842 C   0  0  0  0  0  0
  -24.1439  -36.7327   23.2681 C   0  0  0  0  0  0
  -25.9264  -30.8893   21.3189 C   0  0  0  0  0  0
  -26.0101  -29.5687   20.5680 C   0  0  0  0  0  0
  -27.2314  -28.8798   20.5006 C   0  0  0  0  0  0
  -26.0967  -27.0226   19.4059 C   0  0  0  0  0  0
  -24.8847  -27.7338   19.3816 C   0  0  0  0  0  0
  -23.5815  -29.7793   20.2200 C   0  0  0  0  0  0
  -25.4054  -36.3237   24.0400 C   0  0  1  0  0  0
  -20.4982  -28.5938   22.7428 C   0  0  2  0  0  0
  -20.7583  -27.0085   22.4653 C   0  0  0  0  0  0
  -19.5917  -26.4736   21.6633 C   0  0  0  0  0  0
  -18.2219  -26.9571   22.1432 C   0  0  0  0  0  0
  -19.1061  -29.0812   23.2217 C   0  0  0  0  0  0
  -18.9318  -30.3494   23.9136 C   0  0  0  0  0  0
  -17.6733  -30.8478   24.3055 C   0  0  0  0  0  0
  -25.8974  -34.9440   23.5240 C   0  0  0  0  0  0
  -16.4905  -30.1979   23.8148 C   0  0  0  0  0  0
  -16.6627  -29.0082   23.0935 C   0  0  0  0  0  0
  -26.4104  -31.6577   25.0692 C   0  0  0  0  0  0
  -25.3653  -31.3761   26.1738 C   0  0  0  0  0  0
  -26.9753  -30.2904   24.5859 C   0  0  0  0  0  0
  -27.5746  -32.4381   25.7247 C   0  0  0  0  0  0
  -27.5566  -37.1710   24.8450 C   0  0  0  0  0  0
  -21.4788  -29.5356   22.2354 N   0  0  0  0  0  0
  -26.4322  -37.3734   23.9401 N   0  0  0  0  0  0
  -24.7018  -31.0515   22.1225 N   0  0  0  0  0  0
  -23.2248  -28.5616   23.1621 O   0  0  0  0  0  0
  -28.0267  -26.5749   20.6690 O   0  0  0  0  0  0
  -26.5485  -34.9025   22.4730 O   0  0  0  0  0  0
  -23.5375  -32.0965   23.7810 O   0  0  0  0  0  0
  -24.4200  -21.4103   20.5562 C   0  0  0  0  0  0
  -24.5401  -20.4456   19.5071 C   0  0  0  0  0  0
  -26.5185  -20.5545   21.3305 C   0  0  0  0  0  0
  -25.4277  -21.5631   21.5201 C   0  0  0  0  0  0
  -25.7445  -19.7256   19.3195 C   0  0  0  0  0  0
  -26.6823  -19.3719   20.3492 C   0  0  0  0  0  0
  -26.9935  -24.9713   22.5870 C   0  0  0  0  0  0
  -26.2053  -20.2040   17.9566 C   0  0  0  0  0  0
  -25.2335  -23.0477   22.4296 C   0  0  0  0  0  0
  -28.0422  -18.2326   20.0074 C   0  0  0  0  0  0
  -27.3628  -26.3812   22.0021 C   0  0  0  0  0  0
  -25.9234  -24.3740   22.1322 N   0  0  0  0  0  0
  -28.7919  -16.8125   20.5666 N   0  0  0  0  0  0
  -27.3667  -24.5898   23.6807 O   0  0  0  0  0  0
  -31.1722  -13.8305   18.9693 H   0  0  0  0  0  0
  -30.7386  -12.6624   20.2416 H   0  0  0  0  0  0
  -30.0953  -11.7973   17.9725 H   0  0  0  0  0  0
  -29.2979  -13.3551   17.5148 H   0  0  0  0  0  0
  -28.2852  -11.2810   19.4912 H   0  0  0  0  0  0
  -27.4114  -11.9092   18.0637 H   0  0  0  0  0  0
  -27.3279  -14.1130   19.1334 H   0  0  0  0  0  0
  -28.9362  -12.7730   21.4372 H   0  0  0  0  0  0
  -27.9980  -14.2594   21.6489 H   0  0  0  0  0  0
  -25.2671   -9.5603   22.4794 H   0  0  0  0  0  0
  -23.9911   -7.4563   22.7503 H   0  0  0  0  0  0
  -21.0758   -8.8679   19.8978 H   0  0  0  0  0  0
  -22.3596  -10.9586   19.6168 H   0  0  0  0  0  0
  -21.1956   -7.6119   23.9696 H   0  0  0  0  0  0
  -21.1465   -6.0518   25.9086 H   0  0  0  0  0  0
  -22.0620   -2.7580   23.2873 H   0  0  0  0  0  0
  -22.3870  -11.9834   22.4734 H   0  0  0  0  0  0
  -21.0911  -13.1244   22.2813 H   0  0  0  0  0  0
  -24.6383  -15.8570   20.4609 H   0  0  0  0  0  0
  -26.2435  -15.5656   19.9986 H   0  0  0  0  0  0
  -26.6649  -32.5857   23.1386 H   0  0  0  0  0  0
  -24.9591  -33.9873   25.0319 H   0  0  0  0  0  0
  -22.7749  -31.3581   21.4802 H   0  0  0  0  0  0
  -23.3705  -35.9647   23.3297 H   0  0  0  0  0  0
  -24.3648  -36.8852   22.2145 H   0  0  0  0  0  0
  -23.7255  -37.6460   23.6674 H   0  0  0  0  0  0
  -26.0285  -31.7037   20.6186 H   0  0  0  0  0  0
  -26.7933  -30.9631   21.9666 H   0  0  0  0  0  0
  -28.1166  -29.2993   21.0167 H   0  0  0  0  0  0
  -26.0730  -25.9454   19.2800 H   0  0  0  0  0  0
  -24.0100  -27.2630   18.9832 H   0  0  0  0  0  0
  -23.6192  -30.6053   19.4818 H   0  0  0  0  0  0
  -22.6982  -29.1652   19.9851 H   0  0  0  0  0  0
  -25.1254  -36.1995   25.0834 H   0  0  0  0  0  0
  -20.1054  -28.7910   21.7987 H   0  0  0  0  0  0
  -20.8648  -26.4025   23.4356 H   0  0  0  0  0  0
  -21.6284  -26.7822   21.9304 H   0  0  0  0  0  0
  -19.6364  -25.3728   21.4952 H   0  0  0  0  0  0
  -19.5601  -27.0471   20.8237 H   0  0  0  0  0  0
  -17.7830  -27.0415   21.1023 H   0  0  0  0  0  0
  -17.9551  -26.2323   22.8494 H   0  0  0  0  0  0
  -19.6237  -31.1586   24.2022 H   0  0  0  0  0  0
  -17.4733  -31.7871   24.8848 H   0  0  0  0  0  0
  -15.4610  -30.6204   24.0014 H   0  0  0  0  0  0
  -15.6793  -28.5885   22.7773 H   0  0  0  0  0  0
  -24.5784  -30.7006   25.8359 H   0  0  0  0  0  0
  -24.8975  -32.2828   26.5633 H   0  0  0  0  0  0
  -25.8549  -30.8879   27.0214 H   0  0  0  0  0  0
  -26.2764  -29.5960   24.0992 H   0  0  0  0  0  0
  -27.3639  -29.7541   25.4505 H   0  0  0  0  0  0
  -27.7888  -30.4482   23.8890 H   0  0  0  0  0  0
  -27.2477  -33.3787   26.1763 H   0  0  0  0  0  0
  -28.3516  -32.6913   25.0022 H   0  0  0  0  0  0
  -28.0392  -31.8623   26.5260 H   0  0  0  0  0  0
  -28.2525  -38.0024   24.7452 H   0  0  0  0  0  0
  -28.1156  -36.2551   24.6343 H   0  0  0  0  0  0
  -27.2279  -37.1346   25.8835 H   0  0  0  0  0  0
  -21.3027  -30.3881   21.6374 H   0  0  0  0  0  0
  -26.0249  -38.2780   24.1210 H   0  0  0  0  0  0
  -23.7940  -22.2720   20.4824 H   0  0  0  0  0  0
  -23.9955  -20.6775   18.6404 H   0  0  0  0  0  0
  -27.3896  -20.7651   21.8504 H   0  0  0  0  0  0
  -25.4400  -20.4623   17.2399 H   0  0  0  0  0  0
  -26.8164  -19.6755   17.2083 H   0  0  0  0  0  0
  -26.6661  -21.1641   18.1820 H   0  0  0  0  0  0
  -24.5491  -23.4397   21.6001 H   0  0  0  0  0  0
  -24.4071  -23.1154   23.2546 H   0  0  0  0  0  0
  -28.8440  -18.9517   19.8591 H   0  0  0  0  0  0
  -27.7777  -17.9457   19.0362 H   0  0  0  0  0  0
  -27.9912  -26.8631   22.7403 H   0  0  0  0  0  0
  -26.4118  -26.9599   22.0268 H   0  0  0  0  0  0
  -25.4058  -25.0728   21.6701 H   0  0  0  0  0  0
  -29.4117  -17.2566   21.2172 H   0  0  0  0  0  0
  1 25  1  0  0  0
  1 30  2  0  0  0
  1 83  1  0  0  0
  2  3  1  0  0  0
  2 25  1  0  0  0
  2 85  1  0  0  0
  2 86  1  0  0  0
  3  4  1  0  0  0
  3 87  1  0  0  0
  3 88  1  0  0  0
  4  5  1  0  0  0
  4 89  1  0  0  0
  4 90  1  0  0  0
  5  6  1  0  0  0
  5 26  1  0  0  0
  5 91  1  0  0  0
  6 25  1  0  0  0
  6 92  1  0  0  0
  6 93  1  0  0  0
  7  8  2  0  0  0
  7 26  1  0  0  0
  7 29  1  0  0  0
  8  9  1  0  0  0
  8 22  1  0  0  0
  9 10  1  0  0  0
  9 27  2  0  0  0
 10 11  2  0  0  0
 10 15  1  0  0  0
 11 12  1  0  0  0
 11 94  1  0  0  0
 12 13  2  0  0  0
 12 95  1  0  0  0
 13 14  1  0  0  0
 13 31  1  0  0  0
 14 15  2  0  0  0
 14 96  1  0  0  0
 15 97  1  0  0  0
 16 17  2  0  0  0
 16 21  1  0  0  0
 16 31  1  0  0  0
 17 18  1  0  0  0
 17 98  1  0  0  0
 18 19  2  0  0  0
 18 99  1  0  0  0
 19 20  1  0  0  0
 19 24  1  0  0  0
 20 21  2  0  0  0
 20100  1  0  0  0
 21 23  1  0  0  0
 22 28  1  0  0  0
 22 32  2  0  0  0
 26 27  1  0  0  0
 28101  1  0  0  0
 28102  1  0  0  0
 29103  1  0  0  0
 29104  1  0  0  0
 33 34  1  0  0  0
 33 66  1  0  0  0
 33 70  2  0  0  0
 34 36  1  0  0  0
 34 59  1  0  0  0
 34105  1  0  0  0
 35 44  2  0  0  0
 35 45  1  0  0  0
 35 68  1  0  0  0
 36 56  1  0  0  0
 36106  1  0  0  0
 37 39  1  0  0  0
 37 47  1  0  0  0
 37 66  1  0  0  0
 37107  1  0  0  0
 38 43  2  0  0  0
 38 46  1  0  0  0
 38 47  1  0  0  0
 39 64  1  0  0  0
 39 67  2  0  0  0
 40 52  1  0  0  0
 40 53  2  0  0  0
 40 58  1  0  0  0
 41108  1  0  0  0
 41109  1  0  0  0
 41110  1  0  0  0
 41 48  1  0  0  0
 42 43  1  0  0  0
 42 66  1  0  0  0
 42111  1  0  0  0
 42112  1  0  0  0
 43 44  1  0  0  0
 44113  1  0  0  0
 45 46  2  0  0  0
 45114  1  0  0  0
 46115  1  0  0  0
 47116  1  0  0  0
 47117  1  0  0  0
 48 56  1  0  0  0
 48 65  1  0  0  0
 48118  1  0  0  0
 49 50  1  0  0  0
 49 53  1  0  0  0
 49 64  1  0  0  0
 49119  1  0  0  0
 50 51  1  0  0  0
 50120  1  0  0  0
 50121  1  0  0  0
 51 52  1  0  0  0
 51122  1  0  0  0
 51123  1  0  0  0
 52124  1  0  0  0
 52125  1  0  0  0
 53 54  1  0  0  0
 54 55  2  0  0  0
 54126  1  0  0  0
 55 57  1  0  0  0
 55127  1  0  0  0
 56 69  2  0  0  0
 57 58  2  0  0  0
 57128  1  0  0  0
 58129  1  0  0  0
 59 60  1  0  0  0
 59 61  1  0  0  0
 59 62  1  0  0  0
 60130  1  0  0  0
 60131  1  0  0  0
 60132  1  0  0  0
 61133  1  0  0  0
 61134  1  0  0  0
 61135  1  0  0  0
 62136  1  0  0  0
 62137  1  0  0  0
 62138  1  0  0  0
 63 65  1  0  0  0
 63139  1  0  0  0
 63140  1  0  0  0
 63141  1  0  0  0
 64142  1  0  0  0
 65143  1  0  0  0
 68 81  1  0  0  0
 71 72  2  0  0  0
 71 74  1  0  0  0
 71144  1  0  0  0
 72 75  1  0  0  0
 72145  1  0  0  0
 73 74  2  0  0  0
 73 76  1  0  0  0
 73146  1  0  0  0
 74 79  1  0  0  0
 75 76  2  0  0  0
 75 78  1  0  0  0
 76 80  1  0  0  0
 77 81  1  0  0  0
 77 82  1  0  0  0
 77 84  2  0  0  0
 78147  1  0  0  0
 78148  1  0  0  0
 78149  1  0  0  0
 79 82  1  0  0  0
 79150  1  0  0  0
 79151  1  0  0  0
 80 83  1  0  0  0
 80152  1  0  0  0
 80153  1  0  0  0
 81154  1  0  0  0
 81155  1  0  0  0
 82156  1  0  0  0
 83157  1  0  0  0
M  ISO  4   1 100  68 101  81 101  83 100
M  END
> <chiral flag>
0

> <version>
0

> <s_m_source_file>
/data/baiqing/PycharmProjects/Reinvent-master-3.2/result/LINK_invent/BTK/process_docking_weight1_custom_product_contain_oxygen_bond_distance_aromatic_linkinvent_7_9_3/rearranged_h_0104.sdf

> <i_m_source_file_index>
75

> <r_mmod_Potential_Energy-OPLS-2005>
2618.30712890625

> <r_mmod_Stretch_Energy-OPLS-2005>
641.463989257812

> <r_mmod_Bend_Energy-OPLS-2005>
905.372375488281

> <r_mmod_Torsional_Energy-OPLS-2005>
493.028839111328

> <r_mmod_Improper_Torsional_Energy-OPLS-2005>
57.8460159301758

> <r_mmod_Van_der_Waal_Energy-OPLS-2005>
223.428100585938

> <r_mmod_Electrostatic_Energy-OPLS-2005>
-450.094146728516

> <r_mmod_Solvation_Energy-OPLS-2005>
-234.763000488281

> <b_mmod_Minimization_Converged-OPLS-2005>
0

> <r_mmod_RMS_Derivative-OPLS-2005>
99.9990005493164

$$$$
76
                    3D
 Structure written by MMmdl.
161170  0  0  1  0            999 V2000
  -30.7702  -14.4775   20.5524 C   0  0  0  0  0  0
  -30.3875  -12.3028   19.4664 C   0  0  0  0  0  0
  -29.4941  -12.4916   18.2281 C   0  0  0  0  0  0
  -28.0110  -12.3778   18.6193 C   0  0  0  0  0  0
  -27.6480  -13.2330   19.8631 C   0  0  2  0  0  0
  -28.6846  -13.0994   21.0015 C   0  0  0  0  0  0
  -25.2474  -13.8236   20.5661 C   0  0  0  0  0  0
  -24.1758  -13.0493   20.9220 C   0  0  0  0  0  0
  -24.6358  -11.6967   20.8729 C   0  0  0  0  0  0
  -23.9042  -10.4333   21.0406 C   0  0  0  0  0  0
  -24.3606   -9.4256   21.9189 C   0  0  0  0  0  0
  -23.6304   -8.2273   22.0749 C   0  0  0  0  0  0
  -22.4283   -8.0285   21.3541 C   0  0  0  0  0  0
  -21.9890   -9.0257   20.4662 C   0  0  0  0  0  0
  -22.7195  -10.2163   20.3082 C   0  0  0  0  0  0
  -21.6875   -6.0705   22.5270 C   0  0  0  0  0  0
  -21.4009   -6.5613   23.8187 C   0  0  0  0  0  0
  -21.3683   -5.6781   24.9167 C   0  0  0  0  0  0
  -21.6070   -4.3036   24.7214 C   0  0  0  0  0  0
  -21.8818   -3.8118   23.4333 C   0  0  0  0  0  0
  -21.9186   -4.6925   22.3400 C   0  0  0  0  0  0
  -22.7772  -13.5269   21.1895 C   0  0  0  0  0  0
  -22.1657   -4.2109   21.0970 F   0  0  0  0  0  0
  -21.5678   -3.4524   25.7736 F   0  0  0  0  0  0
  -30.0186  -13.3469   20.4395 N   0  0  0  0  0  0
  -26.2916  -12.9467   20.3277 N   0  0  0  0  0  0
  -25.9281  -11.6601   20.5732 N   0  0  0  0  0  0
  -22.0412  -12.8315   22.0508 N   0  0  0  0  0  0
  -25.4196  -15.1949   20.4065 N   0  0  0  0  0  0
  -31.9175  -14.5249   20.1042 O   0  0  0  0  0  0
  -21.6677   -6.8852   21.4238 O   0  0  0  0  0  0
  -22.3445  -14.5547   20.6696 O   0  0  0  0  0  0
  -24.6158  -31.8702   23.2147 C   0  0  0  0  0  0
  -25.9053  -32.4839   23.8423 C   0  0  1  0  0  0
  -27.2200  -27.4070   20.0978 C   0  0  0  0  0  0
  -25.5951  -33.8647   24.2364 N   0  0  0  0  0  0
  -23.4041  -30.4943   21.5568 C   0  0  2  0  0  0
  -24.8491  -28.9646   20.1105 C   0  0  0  0  0  0
  -22.7393  -29.4663   22.5001 C   0  0  0  0  0  0
  -18.0265  -28.1398   22.8483 C   0  0  0  0  0  0
  -24.1488  -36.7300   23.2630 C   0  0  0  0  0  0
  -25.9382  -30.8202   21.3818 C   0  0  0  0  0  0
  -26.0086  -29.4559   20.7202 C   0  0  0  0  0  0
  -27.1950  -28.6828   20.7133 C   0  0  0  0  0  0
  -26.0517  -26.9574   19.4428 C   0  0  0  0  0  0
  -24.8672  -27.7151   19.4665 C   0  0  0  0  0  0
  -23.6123  -29.8362   20.1668 C   0  0  0  0  0  0
  -25.4114  -36.3130   24.0342 C   0  0  1  0  0  0
  -20.5846  -28.3710   23.1300 C   0  0  2  0  0  0
  -20.6765  -26.9449   22.5469 C   0  0  0  0  0  0
  -19.5774  -26.6372   21.5253 C   0  0  0  0  0  0
  -18.1952  -26.7908   22.1694 C   0  0  0  0  0  0
  -19.1508  -28.8874   23.2879 C   0  0  0  0  0  0
  -18.9447  -30.1497   23.8859 C   0  0  0  0  0  0
  -17.6452  -30.6639   24.0490 C   0  0  0  0  0  0
  -25.9048  -34.9492   23.5138 C   0  0  0  0  0  0
  -16.5331  -29.9107   23.6323 C   0  0  0  0  0  0
  -16.7251  -28.6514   23.0378 C   0  0  0  0  0  0
  -26.4486  -31.6638   25.0770 C   0  0  0  0  0  0
  -25.3720  -31.3735   26.1484 C   0  0  0  0  0  0
  -27.0284  -30.3059   24.6195 C   0  0  0  0  0  0
  -27.6108  -32.4313   25.7495 C   0  0  0  0  0  0
  -27.5573  -37.1802   24.8464 C   0  0  0  0  0  0
  -21.4133  -29.3043   22.3692 N   0  0  0  0  0  0
  -26.4288  -37.3812   23.9427 N   0  0  0  0  0  0
  -24.6702  -31.0752   22.1088 N   0  0  0  0  0  0
  -23.4124  -28.8234   23.3097 O   0  0  0  0  0  0
  -28.3787  -26.6524   20.1473 O   0  0  0  0  0  0
  -26.5569  -34.8911   22.4669 O   0  0  0  0  0  0
  -23.5343  -32.1489   23.7505 O   0  0  0  0  0  0
  -30.1059  -18.7959   22.4914 C   0  0  0  0  0  0
  -29.7766  -20.1681   22.6063 C   0  0  0  0  0  0
  -30.2243  -19.0325   20.0700 C   0  0  0  0  0  0
  -30.3742  -18.2257   21.2252 C   0  0  0  0  0  0
  -29.6953  -20.9905   21.4582 C   0  0  0  0  0  0
  -29.8895  -20.4029   20.1835 C   0  0  0  0  0  0
  -26.9731  -22.3714   21.9141 C   0  0  0  0  0  0
  -25.8343  -23.3157   22.2340 C   0  0  0  0  0  0
  -26.2957  -24.6136   21.5887 C   0  0  0  0  0  0
  -27.8239  -24.4921   21.3893 C   0  0  2  0  0  0
  -29.4527  -22.5085   21.6085 C   0  0  0  0  0  0
  -31.0381  -16.8463   21.1191 C   0  0  0  0  0  0
  -28.3176  -25.2050   20.0749 C   0  0  0  0  0  0
  -28.0692  -23.0279   21.4722 N   0  0  0  0  0  0
  -30.2182  -15.6115   21.0353 N   0  0  0  0  0  0
  -26.8596  -21.1635   22.1133 O   0  0  0  0  0  0
  -29.8018  -21.1596   19.0623 F   0  0  0  0  0  0
  -31.4417  -12.3336   19.1785 H   0  0  0  0  0  0
  -30.2343  -11.3126   19.8974 H   0  0  0  0  0  0
  -29.7338  -11.7449   17.4699 H   0  0  0  0  0  0
  -29.6969  -13.4662   17.7812 H   0  0  0  0  0  0
  -27.7967  -11.3268   18.8055 H   0  0  0  0  0  0
  -27.3806  -12.6768   17.7785 H   0  0  0  0  0  0
  -27.6747  -14.2714   19.5309 H   0  0  0  0  0  0
  -28.6433  -12.1022   21.4441 H   0  0  0  0  0  0
  -28.4539  -13.7987   21.8074 H   0  0  0  0  0  0
  -25.2727   -9.5760   22.4760 H   0  0  0  0  0  0
  -24.0021   -7.4663   22.7469 H   0  0  0  0  0  0
  -21.0809   -8.8796   19.8976 H   0  0  0  0  0  0
  -22.3623  -10.9720   19.6216 H   0  0  0  0  0  0
  -21.1999   -7.6109   23.9684 H   0  0  0  0  0  0
  -21.1520   -6.0513   25.9085 H   0  0  0  0  0  0
  -22.0568   -2.7562   23.2869 H   0  0  0  0  0  0
  -22.3981  -12.0006   22.4976 H   0  0  0  0  0  0
  -21.1043  -13.1382   22.2712 H   0  0  0  0  0  0
  -24.6637  -15.8616   20.5353 H   0  0  0  0  0  0
  -26.2762  -15.6301   20.0896 H   0  0  0  0  0  0
  -26.7099  -32.5518   23.1159 H   0  0  0  0  0  0
  -25.0155  -33.9861   25.0542 H   0  0  0  0  0  0
  -22.6987  -31.3177   21.4238 H   0  0  0  0  0  0
  -23.3774  -35.9615   23.3320 H   0  0  0  0  0  0
  -24.3540  -36.8858   22.2024 H   0  0  0  0  0  0
  -23.7200  -37.6501   23.6606 H   0  0  0  0  0  0
  -26.0623  -31.5944   20.6212 H   0  0  0  0  0  0
  -26.8212  -30.8583   22.0094 H   0  0  0  0  0  0
  -28.0859  -29.0577   21.1963 H   0  0  0  0  0  0
  -26.0380  -26.0268   18.8962 H   0  0  0  0  0  0
  -23.9816  -27.3467   18.9713 H   0  0  0  0  0  0
  -23.7301  -30.6223   19.4182 H   0  0  0  0  0  0
  -22.7335  -29.2670   19.8547 H   0  0  0  0  0  0
  -25.1276  -36.2007   25.0828 H   0  0  0  0  0  0
  -20.9935  -28.3314   24.1431 H   0  0  0  0  0  0
  -20.5618  -26.2396   23.3719 H   0  0  0  0  0  0
  -21.6672  -26.7437   22.1364 H   0  0  0  0  0  0
  -19.7004  -25.6258   21.1365 H   0  0  0  0  0  0
  -19.6724  -27.3138   20.6747 H   0  0  0  0  0  0
  -17.4194  -26.6485   21.4165 H   0  0  0  0  0  0
  -18.0456  -26.0139   22.9192 H   0  0  0  0  0  0
  -19.7930  -30.7311   24.2219 H   0  0  0  0  0  0
  -17.5008  -31.6354   24.5013 H   0  0  0  0  0  0
  -15.5335  -30.3009   23.7673 H   0  0  0  0  0  0
  -15.8648  -28.0806   22.7164 H   0  0  0  0  0  0
  -24.5929  -30.7074   25.7758 H   0  0  0  0  0  0
  -24.8877  -32.2870   26.4925 H   0  0  0  0  0  0
  -25.8020  -30.8861   27.0235 H   0  0  0  0  0  0
  -26.2819  -29.6885   24.1170 H   0  0  0  0  0  0
  -27.3897  -29.7265   25.4699 H   0  0  0  0  0  0
  -27.8760  -30.4357   23.9465 H   0  0  0  0  0  0
  -27.2809  -33.3599   26.2161 H   0  0  0  0  0  0
  -28.3861  -32.6857   25.0260 H   0  0  0  0  0  0
  -28.0877  -31.8368   26.5304 H   0  0  0  0  0  0
  -28.2615  -38.0079   24.7508 H   0  0  0  0  0  0
  -28.1041  -36.2589   24.6315 H   0  0  0  0  0  0
  -27.2278  -37.1493   25.8866 H   0  0  0  0  0  0
  -20.9321  -29.8636   21.6794 H   0  0  0  0  0  0
  -26.0189  -38.2897   24.1429 H   0  0  0  0  0  0
  -30.2206  -18.2051   23.3940 H   0  0  0  0  0  0
  -29.6318  -20.5973   23.5903 H   0  0  0  0  0  0
  -30.4327  -18.6279   19.0843 H   0  0  0  0  0  0
  -25.7517  -23.4137   23.3197 H   0  0  0  0  0  0
  -24.8786  -22.9651   21.8445 H   0  0  0  0  0  0
  -26.0251  -25.4956   22.1700 H   0  0  0  0  0  0
  -25.7863  -24.6669   20.6284 H   0  0  0  0  0  0
  -28.3339  -24.9407   22.2445 H   0  0  0  0  0  0
  -30.1047  -23.0234   20.9033 H   0  0  0  0  0  0
  -29.8053  -22.8148   22.5966 H   0  0  0  0  0  0
  -31.7161  -16.7356   21.9655 H   0  0  0  0  0  0
  -31.7029  -16.9206   20.2489 H   0  0  0  0  0  0
  -27.7871  -24.8497   19.1903 H   0  0  0  0  0  0
  -29.3499  -24.9074   19.8947 H   0  0  0  0  0  0
  -29.2654  -15.6182   21.3748 H   0  0  0  0  0  0
  1 25  1  0  0  0
  1 30  2  0  0  0
  1 85  1  0  0  0
  2  3  1  0  0  0
  2 25  1  0  0  0
  2 88  1  0  0  0
  2 89  1  0  0  0
  3  4  1  0  0  0
  3 90  1  0  0  0
  3 91  1  0  0  0
  4  5  1  0  0  0
  4 92  1  0  0  0
  4 93  1  0  0  0
  5  6  1  0  0  0
  5 26  1  0  0  0
  5 94  1  0  0  0
  6 25  1  0  0  0
  6 95  1  0  0  0
  6 96  1  0  0  0
  7  8  2  0  0  0
  7 26  1  0  0  0
  7 29  1  0  0  0
  8  9  1  0  0  0
  8 22  1  0  0  0
  9 10  1  0  0  0
  9 27  2  0  0  0
 10 11  2  0  0  0
 10 15  1  0  0  0
 11 12  1  0  0  0
 11 97  1  0  0  0
 12 13  2  0  0  0
 12 98  1  0  0  0
 13 14  1  0  0  0
 13 31  1  0  0  0
 14 15  2  0  0  0
 14 99  1  0  0  0
 15100  1  0  0  0
 16 17  2  0  0  0
 16 21  1  0  0  0
 16 31  1  0  0  0
 17 18  1  0  0  0
 17101  1  0  0  0
 18 19  2  0  0  0
 18102  1  0  0  0
 19 20  1  0  0  0
 19 24  1  0  0  0
 20 21  2  0  0  0
 20103  1  0  0  0
 21 23  1  0  0  0
 22 28  1  0  0  0
 22 32  2  0  0  0
 26 27  1  0  0  0
 28104  1  0  0  0
 28105  1  0  0  0
 29106  1  0  0  0
 29107  1  0  0  0
 33 34  1  0  0  0
 33 66  1  0  0  0
 33 70  2  0  0  0
 34 36  1  0  0  0
 34 59  1  0  0  0
 34108  1  0  0  0
 35 44  2  0  0  0
 35 45  1  0  0  0
 35 68  1  0  0  0
 36 56  1  0  0  0
 36109  1  0  0  0
 37 39  1  0  0  0
 37 47  1  0  0  0
 37 66  1  0  0  0
 37110  1  0  0  0
 38 43  2  0  0  0
 38 46  1  0  0  0
 38 47  1  0  0  0
 39 64  1  0  0  0
 39 67  2  0  0  0
 40 52  1  0  0  0
 40 53  2  0  0  0
 40 58  1  0  0  0
 41111  1  0  0  0
 41112  1  0  0  0
 41113  1  0  0  0
 41 48  1  0  0  0
 42 43  1  0  0  0
 42 66  1  0  0  0
 42114  1  0  0  0
 42115  1  0  0  0
 43 44  1  0  0  0
 44116  1  0  0  0
 45 46  2  0  0  0
 45117  1  0  0  0
 46118  1  0  0  0
 47119  1  0  0  0
 47120  1  0  0  0
 48 56  1  0  0  0
 48 65  1  0  0  0
 48121  1  0  0  0
 49 50  1  0  0  0
 49 53  1  0  0  0
 49 64  1  0  0  0
 49122  1  0  0  0
 50 51  1  0  0  0
 50123  1  0  0  0
 50124  1  0  0  0
 51 52  1  0  0  0
 51125  1  0  0  0
 51126  1  0  0  0
 52127  1  0  0  0
 52128  1  0  0  0
 53 54  1  0  0  0
 54 55  2  0  0  0
 54129  1  0  0  0
 55 57  1  0  0  0
 55130  1  0  0  0
 56 69  2  0  0  0
 57 58  2  0  0  0
 57131  1  0  0  0
 58132  1  0  0  0
 59 60  1  0  0  0
 59 61  1  0  0  0
 59 62  1  0  0  0
 60133  1  0  0  0
 60134  1  0  0  0
 60135  1  0  0  0
 61136  1  0  0  0
 61137  1  0  0  0
 61138  1  0  0  0
 62139  1  0  0  0
 62140  1  0  0  0
 62141  1  0  0  0
 63 65  1  0  0  0
 63142  1  0  0  0
 63143  1  0  0  0
 63144  1  0  0  0
 64145  1  0  0  0
 65146  1  0  0  0
 68 83  1  0  0  0
 71 72  2  0  0  0
 71 74  1  0  0  0
 71147  1  0  0  0
 72 75  1  0  0  0
 72148  1  0  0  0
 73 74  2  0  0  0
 73 76  1  0  0  0
 73149  1  0  0  0
 74 82  1  0  0  0
 75 76  2  0  0  0
 75 81  1  0  0  0
 76 87  1  0  0  0
 77 78  1  0  0  0
 77 84  1  0  0  0
 77 86  2  0  0  0
 78 79  1  0  0  0
 78150  1  0  0  0
 78151  1  0  0  0
 79 80  1  0  0  0
 79152  1  0  0  0
 79153  1  0  0  0
 80 83  1  0  0  0
 80 84  1  0  0  0
 80154  1  0  0  0
 81 84  1  0  0  0
 81155  1  0  0  0
 81156  1  0  0  0
 82 85  1  0  0  0
 82157  1  0  0  0
 82158  1  0  0  0
 83159  1  0  0  0
 83160  1  0  0  0
 85161  1  0  0  0
M  ISO  4   1 100  68 101  83 101  85 100
M  END
> <chiral flag>
0

> <version>
0

> <s_m_source_file>
/data/baiqing/PycharmProjects/Reinvent-master-3.2/result/LINK_invent/BTK/process_docking_weight1_custom_product_contain_oxygen_bond_distance_aromatic_linkinvent_7_9_3/rearranged_h_0104.sdf

> <i_m_source_file_index>
76

> <r_mmod_Potential_Energy-OPLS-2005>
-22.8690662384033

> <r_mmod_Stretch_Energy-OPLS-2005>
47.1397514343262

> <r_mmod_Bend_Energy-OPLS-2005>
146.703521728516

> <r_mmod_Torsional_Energy-OPLS-2005>
254.454772949219

> <r_mmod_Improper_Torsional_Energy-OPLS-2005>
5.8090934753418

> <r_mmod_Van_der_Waal_Energy-OPLS-2005>
153.017562866211

> <r_mmod_Electrostatic_Energy-OPLS-2005>
-434.246887207031

> <r_mmod_Solvation_Energy-OPLS-2005>
-220.594146728516

> <b_mmod_Minimization_Converged-OPLS-2005>
0

> <r_mmod_RMS_Derivative-OPLS-2005>
6.69151067733765

$$$$
77
                    3D
 Structure written by MMmdl.
165173  0  0  1  0            999 V2000
  -30.7418  -14.4620   20.5437 C   0  0  0  0  0  0
  -30.4077  -12.2966   19.4201 C   0  0  0  0  0  0
  -29.4921  -12.4946   18.1977 C   0  0  0  0  0  0
  -28.0137  -12.3609   18.6075 C   0  0  0  0  0  0
  -27.6558  -13.2113   19.8559 C   0  0  2  0  0  0
  -28.6956  -13.0200   20.9786 C   0  0  0  0  0  0
  -25.2565  -13.8175   20.5645 C   0  0  0  0  0  0
  -24.1823  -13.0438   20.9160 C   0  0  0  0  0  0
  -24.6377  -11.6915   20.8713 C   0  0  0  0  0  0
  -23.9054  -10.4297   21.0399 C   0  0  0  0  0  0
  -24.3608   -9.4207   21.9170 C   0  0  0  0  0  0
  -23.6288   -8.2234   22.0736 C   0  0  0  0  0  0
  -22.4273   -8.0263   21.3526 C   0  0  0  0  0  0
  -21.9901   -9.0246   20.4631 C   0  0  0  0  0  0
  -22.7231  -10.2127   20.3049 C   0  0  0  0  0  0
  -21.6858   -6.0726   22.5264 C   0  0  0  0  0  0
  -21.4023   -6.5627   23.8201 C   0  0  0  0  0  0
  -21.3664   -5.6770   24.9158 C   0  0  0  0  0  0
  -21.6043   -4.3030   24.7206 C   0  0  0  0  0  0
  -21.8823   -3.8132   23.4320 C   0  0  0  0  0  0
  -21.9194   -4.6954   22.3383 C   0  0  0  0  0  0
  -22.7843  -13.5238   21.1822 C   0  0  0  0  0  0
  -22.1665   -4.2146   21.0961 F   0  0  0  0  0  0
  -21.5626   -3.4519   25.7721 F   0  0  0  0  0  0
  -30.0259  -13.3079   20.4197 N   0  0  0  0  0  0
  -26.2999  -12.9359   20.3259 N   0  0  0  0  0  0
  -25.9304  -11.6514   20.5693 N   0  0  0  0  0  0
  -22.0488  -12.8264   22.0393 N   0  0  0  0  0  0
  -25.4249  -15.1871   20.4048 N   0  0  0  0  0  0
  -31.8978  -14.5555   20.1181 O   0  0  0  0  0  0
  -21.6624   -6.8875   21.4231 O   0  0  0  0  0  0
  -22.3526  -14.5538   20.6659 O   0  0  0  0  0  0
  -24.6149  -31.8707   23.2128 C   0  0  0  0  0  0
  -25.9055  -32.4830   23.8407 C   0  0  1  0  0  0
  -27.2227  -27.4460   20.0598 C   0  0  0  0  0  0
  -25.5910  -33.8627   24.2336 N   0  0  0  0  0  0
  -23.3991  -30.4986   21.5580 C   0  0  2  0  0  0
  -24.8344  -28.9644   20.1251 C   0  0  0  0  0  0
  -22.7400  -29.4686   22.5035 C   0  0  0  0  0  0
  -18.0270  -28.1381   22.8497 C   0  0  0  0  0  0
  -24.1480  -36.7306   23.2635 C   0  0  0  0  0  0
  -25.9300  -30.8350   21.3659 C   0  0  0  0  0  0
  -26.0006  -29.4710   20.7103 C   0  0  0  0  0  0
  -27.1963  -28.7181   20.6776 C   0  0  0  0  0  0
  -26.0191  -26.9385   19.5121 C   0  0  0  0  0  0
  -24.8354  -27.6928   19.5343 C   0  0  0  0  0  0
  -23.6023  -29.8362   20.1719 C   0  0  0  0  0  0
  -25.4103  -36.3112   24.0335 C   0  0  1  0  0  0
  -20.5857  -28.3663   23.1333 C   0  0  2  0  0  0
  -20.6767  -26.9403   22.5423 C   0  0  0  0  0  0
  -19.5746  -26.6391   21.5219 C   0  0  0  0  0  0
  -18.1922  -26.7926   22.1630 C   0  0  0  0  0  0
  -19.1517  -28.8839   23.2912 C   0  0  0  0  0  0
  -18.9448  -30.1444   23.8919 C   0  0  0  0  0  0
  -17.6453  -30.6586   24.0573 C   0  0  0  0  0  0
  -25.9038  -34.9477   23.5132 C   0  0  0  0  0  0
  -16.5344  -29.9092   23.6324 C   0  0  0  0  0  0
  -16.7260  -28.6510   23.0343 C   0  0  0  0  0  0
  -26.4466  -31.6611   25.0742 C   0  0  0  0  0  0
  -25.3719  -31.3738   26.1489 C   0  0  0  0  0  0
  -27.0285  -30.3046   24.6127 C   0  0  0  0  0  0
  -27.6053  -32.4318   25.7497 C   0  0  0  0  0  0
  -27.5575  -37.1808   24.8467 C   0  0  0  0  0  0
  -21.4133  -29.3033   22.3755 N   0  0  0  0  0  0
  -26.4290  -37.3797   23.9406 N   0  0  0  0  0  0
  -24.6672  -31.0812   22.1036 N   0  0  0  0  0  0
  -23.4181  -28.8222   23.3067 O   0  0  0  0  0  0
  -28.4208  -26.7580   20.0010 O   0  0  0  0  0  0
  -26.5605  -34.8931   22.4695 O   0  0  0  0  0  0
  -23.5353  -32.1462   23.7536 O   0  0  0  0  0  0
  -29.5013  -18.7036   18.6160 C   0  0  0  0  0  0
  -27.3107  -19.7159   18.9275 C   0  0  0  0  0  0
  -27.9925  -17.8098   20.3015 C   0  0  0  0  0  0
  -28.5433  -19.6736   18.2409 C   0  0  0  0  0  0
  -29.2457  -17.7717   19.6513 C   0  0  0  0  0  0
  -27.0383  -18.7899   19.9545 C   0  0  0  0  0  0
  -28.7790  -23.1136   17.2036 C   0  0  0  0  0  0
  -29.9864  -15.9073   22.2949 C   0  0  0  0  0  0
  -28.8471  -20.6179   17.0763 C   0  0  0  0  0  0
  -30.3665  -16.7977   20.0383 C   0  0  0  0  0  0
  -27.8899  -24.3553   17.0649 C   0  0  0  0  0  0
  -28.4075  -25.6184   17.7926 C   0  0  0  0  0  0
  -28.4622  -25.4888   19.3340 C   0  0  0  0  0  0
  -25.8248  -18.8424   20.6349 N   0  0  0  0  0  0
  -28.1741  -21.9191   17.1281 N   0  0  0  0  0  0
  -30.0581  -15.5931   20.8610 N   0  0  0  0  0  0
  -29.9978  -23.2387   17.3388 O   0  0  0  0  0  0
  -31.4551  -12.3624   19.1198 H   0  0  0  0  0  0
  -30.2862  -11.2935   19.8324 H   0  0  0  0  0  0
  -29.7303  -11.7635   17.4239 H   0  0  0  0  0  0
  -29.6671  -13.4748   17.7569 H   0  0  0  0  0  0
  -27.8237  -11.3065   18.8082 H   0  0  0  0  0  0
  -27.3675  -12.6292   17.7704 H   0  0  0  0  0  0
  -27.6958  -14.2561   19.5433 H   0  0  0  0  0  0
  -28.6707  -11.9963   21.3551 H   0  0  0  0  0  0
  -28.4431  -13.6519   21.8268 H   0  0  0  0  0  0
  -25.2763   -9.5676   22.4738 H   0  0  0  0  0  0
  -23.9993   -7.4632   22.7466 H   0  0  0  0  0  0
  -21.0824   -8.8757   19.8960 H   0  0  0  0  0  0
  -22.3678  -10.9653   19.6145 H   0  0  0  0  0  0
  -21.2034   -7.6134   23.9710 H   0  0  0  0  0  0
  -21.1483   -6.0486   25.9056 H   0  0  0  0  0  0
  -22.0609   -2.7601   23.2800 H   0  0  0  0  0  0
  -22.4109  -11.9957   22.4840 H   0  0  0  0  0  0
  -21.1084  -13.1259   22.2573 H   0  0  0  0  0  0
  -24.6509  -15.8348   20.5043 H   0  0  0  0  0  0
  -26.2605  -15.6302   20.0427 H   0  0  0  0  0  0
  -26.7128  -32.5539   23.1176 H   0  0  0  0  0  0
  -25.0046  -33.9787   25.0474 H   0  0  0  0  0  0
  -22.6885  -31.3173   21.4256 H   0  0  0  0  0  0
  -23.3739  -35.9643   23.3323 H   0  0  0  0  0  0
  -24.3565  -36.8894   22.2042 H   0  0  0  0  0  0
  -23.7243  -37.6521   23.6635 H   0  0  0  0  0  0
  -26.0468  -31.6032   20.6000 H   0  0  0  0  0  0
  -26.8180  -30.8826   21.9849 H   0  0  0  0  0  0
  -28.1023  -29.1156   21.1127 H   0  0  0  0  0  0
  -25.9635  -25.9664   19.0471 H   0  0  0  0  0  0
  -23.9311  -27.2887   19.1002 H   0  0  0  0  0  0
  -23.7163  -30.6131   19.4157 H   0  0  0  0  0  0
  -22.7228  -29.2622   19.8733 H   0  0  0  0  0  0
  -25.1278  -36.1977   25.0828 H   0  0  0  0  0  0
  -20.9943  -28.3222   24.1457 H   0  0  0  0  0  0
  -20.5692  -26.2262   23.3601 H   0  0  0  0  0  0
  -21.6638  -26.7467   22.1206 H   0  0  0  0  0  0
  -19.6906  -25.6307   21.1235 H   0  0  0  0  0  0
  -19.6679  -27.3213   20.6756 H   0  0  0  0  0  0
  -17.4189  -26.6669   21.4031 H   0  0  0  0  0  0
  -18.0323  -26.0070   22.9029 H   0  0  0  0  0  0
  -19.7925  -30.7257   24.2294 H   0  0  0  0  0  0
  -17.5010  -31.6265   24.5180 H   0  0  0  0  0  0
  -15.5345  -30.3009   23.7635 H   0  0  0  0  0  0
  -15.8658  -28.0845   22.7041 H   0  0  0  0  0  0
  -24.5891  -30.7083   25.7833 H   0  0  0  0  0  0
  -24.8907  -32.2901   26.4915 H   0  0  0  0  0  0
  -25.8054  -30.8923   27.0265 H   0  0  0  0  0  0
  -26.2832  -29.6836   24.1144 H   0  0  0  0  0  0
  -27.4002  -29.7261   25.4596 H   0  0  0  0  0  0
  -27.8694  -30.4351   23.9313 H   0  0  0  0  0  0
  -27.2685  -33.3619   26.2090 H   0  0  0  0  0  0
  -28.3849  -32.6875   25.0307 H   0  0  0  0  0  0
  -28.0737  -31.8431   26.5397 H   0  0  0  0  0  0
  -28.2616  -38.0084   24.7503 H   0  0  0  0  0  0
  -28.1048  -36.2619   24.6306 H   0  0  0  0  0  0
  -27.2293  -37.1484   25.8872 H   0  0  0  0  0  0
  -20.9299  -29.8748   21.6964 H   0  0  0  0  0  0
  -26.0179  -38.2875   24.1414 H   0  0  0  0  0  0
  -30.4517  -18.6740   18.0982 H   0  0  0  0  0  0
  -26.5666  -20.4528   18.6581 H   0  0  0  0  0  0
  -27.7637  -17.0999   21.0789 H   0  0  0  0  0  0
  -29.3053  -16.7267   22.5180 H   0  0  0  0  0  0
  -30.9658  -16.2151   22.6597 H   0  0  0  0  0  0
  -29.6764  -15.0560   22.9009 H   0  0  0  0  0  0
  -28.5297  -20.1247   16.1576 H   0  0  0  0  0  0
  -29.9250  -20.7451   16.9788 H   0  0  0  0  0  0
  -31.1439  -17.3761   20.5407 H   0  0  0  0  0  0
  -30.8165  -16.5042   19.0860 H   0  0  0  0  0  0
  -26.8819  -24.1267   17.4089 H   0  0  0  0  0  0
  -27.8029  -24.5777   16.0011 H   0  0  0  0  0  0
  -27.7542  -26.4419   17.5068 H   0  0  0  0  0  0
  -29.3902  -25.9011   17.4136 H   0  0  0  0  0  0
  -29.3968  -24.9995   19.6085 H   0  0  0  0  0  0
  -27.6798  -24.8315   19.7134 H   0  0  0  0  0  0
  -25.1124  -19.5359   20.4289 H   0  0  0  0  0  0
  -25.6021  -18.2017   21.3892 H   0  0  0  0  0  0
  -27.1706  -21.9134   16.9984 H   0  0  0  0  0  0
  1 25  1  0  0  0
  1 30  2  0  0  0
  1 86  1  0  0  0
  2  3  1  0  0  0
  2 25  1  0  0  0
  2 88  1  0  0  0
  2 89  1  0  0  0
  3  4  1  0  0  0
  3 90  1  0  0  0
  3 91  1  0  0  0
  4  5  1  0  0  0
  4 92  1  0  0  0
  4 93  1  0  0  0
  5  6  1  0  0  0
  5 26  1  0  0  0
  5 94  1  0  0  0
  6 25  1  0  0  0
  6 95  1  0  0  0
  6 96  1  0  0  0
  7  8  2  0  0  0
  7 26  1  0  0  0
  7 29  1  0  0  0
  8  9  1  0  0  0
  8 22  1  0  0  0
  9 10  1  0  0  0
  9 27  2  0  0  0
 10 11  2  0  0  0
 10 15  1  0  0  0
 11 12  1  0  0  0
 11 97  1  0  0  0
 12 13  2  0  0  0
 12 98  1  0  0  0
 13 14  1  0  0  0
 13 31  1  0  0  0
 14 15  2  0  0  0
 14 99  1  0  0  0
 15100  1  0  0  0
 16 17  2  0  0  0
 16 21  1  0  0  0
 16 31  1  0  0  0
 17 18  1  0  0  0
 17101  1  0  0  0
 18 19  2  0  0  0
 18102  1  0  0  0
 19 20  1  0  0  0
 19 24  1  0  0  0
 20 21  2  0  0  0
 20103  1  0  0  0
 21 23  1  0  0  0
 22 28  1  0  0  0
 22 32  2  0  0  0
 26 27  1  0  0  0
 28104  1  0  0  0
 28105  1  0  0  0
 29106  1  0  0  0
 29107  1  0  0  0
 33 34  1  0  0  0
 33 66  1  0  0  0
 33 70  2  0  0  0
 34 36  1  0  0  0
 34 59  1  0  0  0
 34108  1  0  0  0
 35 44  2  0  0  0
 35 45  1  0  0  0
 35 68  1  0  0  0
 36 56  1  0  0  0
 36109  1  0  0  0
 37 39  1  0  0  0
 37 47  1  0  0  0
 37 66  1  0  0  0
 37110  1  0  0  0
 38 43  2  0  0  0
 38 46  1  0  0  0
 38 47  1  0  0  0
 39 64  1  0  0  0
 39 67  2  0  0  0
 40 52  1  0  0  0
 40 53  2  0  0  0
 40 58  1  0  0  0
 41111  1  0  0  0
 41112  1  0  0  0
 41113  1  0  0  0
 41 48  1  0  0  0
 42 43  1  0  0  0
 42 66  1  0  0  0
 42114  1  0  0  0
 42115  1  0  0  0
 43 44  1  0  0  0
 44116  1  0  0  0
 45 46  2  0  0  0
 45117  1  0  0  0
 46118  1  0  0  0
 47119  1  0  0  0
 47120  1  0  0  0
 48 56  1  0  0  0
 48 65  1  0  0  0
 48121  1  0  0  0
 49 50  1  0  0  0
 49 53  1  0  0  0
 49 64  1  0  0  0
 49122  1  0  0  0
 50 51  1  0  0  0
 50123  1  0  0  0
 50124  1  0  0  0
 51 52  1  0  0  0
 51125  1  0  0  0
 51126  1  0  0  0
 52127  1  0  0  0
 52128  1  0  0  0
 53 54  1  0  0  0
 54 55  2  0  0  0
 54129  1  0  0  0
 55 57  1  0  0  0
 55130  1  0  0  0
 56 69  2  0  0  0
 57 58  2  0  0  0
 57131  1  0  0  0
 58132  1  0  0  0
 59 60  1  0  0  0
 59 61  1  0  0  0
 59 62  1  0  0  0
 60133  1  0  0  0
 60134  1  0  0  0
 60135  1  0  0  0
 61136  1  0  0  0
 61137  1  0  0  0
 61138  1  0  0  0
 62139  1  0  0  0
 62140  1  0  0  0
 62141  1  0  0  0
 63 65  1  0  0  0
 63142  1  0  0  0
 63143  1  0  0  0
 63144  1  0  0  0
 64145  1  0  0  0
 65146  1  0  0  0
 68 83  1  0  0  0
 71 74  2  0  0  0
 71 75  1  0  0  0
 71147  1  0  0  0
 72 74  1  0  0  0
 72 76  2  0  0  0
 72148  1  0  0  0
 73 75  2  0  0  0
 73 76  1  0  0  0
 73149  1  0  0  0
 74 79  1  0  0  0
 75 80  1  0  0  0
 76 84  1  0  0  0
 77 81  1  0  0  0
 77 85  1  0  0  0
 77 87  2  0  0  0
 78 86  1  0  0  0
 78150  1  0  0  0
 78151  1  0  0  0
 78152  1  0  0  0
 79 85  1  0  0  0
 79153  1  0  0  0
 79154  1  0  0  0
 80 86  1  0  0  0
 80155  1  0  0  0
 80156  1  0  0  0
 81 82  1  0  0  0
 81157  1  0  0  0
 81158  1  0  0  0
 82 83  1  0  0  0
 82159  1  0  0  0
 82160  1  0  0  0
 83161  1  0  0  0
 83162  1  0  0  0
 84163  1  0  0  0
 84164  1  0  0  0
 85165  1  0  0  0
M  ISO  4   1 100  68 101  83 101  86 100
M  END
> <chiral flag>
0

> <version>
0

> <s_m_source_file>
/data/baiqing/PycharmProjects/Reinvent-master-3.2/result/LINK_invent/BTK/process_docking_weight1_custom_product_contain_oxygen_bond_distance_aromatic_linkinvent_7_9_3/rearranged_h_0104.sdf

> <i_m_source_file_index>
77

> <r_mmod_Potential_Energy-OPLS-2005>
-83.8447875976562

> <r_mmod_Stretch_Energy-OPLS-2005>
39.5480499267578

> <r_mmod_Bend_Energy-OPLS-2005>
123.945182800293

> <r_mmod_Torsional_Energy-OPLS-2005>
239.445617675781

> <r_mmod_Improper_Torsional_Energy-OPLS-2005>
12.1470966339111

> <r_mmod_Van_der_Waal_Energy-OPLS-2005>
161.966766357422

> <r_mmod_Electrostatic_Energy-OPLS-2005>
-450.010040283203

> <r_mmod_Solvation_Energy-OPLS-2005>
-227.148651123047

> <b_mmod_Minimization_Converged-OPLS-2005>
0

> <r_mmod_RMS_Derivative-OPLS-2005>
2.88212037086487

$$$$
78
                    3D
 Structure written by MMmdl.
160168  0  0  1  0            999 V2000
  -30.7362  -14.4350   20.6528 C   0  0  0  0  0  0
  -30.4213  -12.3194   19.4129 C   0  0  0  0  0  0
  -29.4847  -12.5181   18.2037 C   0  0  0  0  0  0
  -28.0118  -12.3641   18.6234 C   0  0  0  0  0  0
  -27.6567  -13.2090   19.8765 C   0  0  2  0  0  0
  -28.6965  -12.9932   20.9982 C   0  0  0  0  0  0
  -25.2564  -13.8168   20.5672 C   0  0  0  0  0  0
  -24.1817  -13.0427   20.9152 C   0  0  0  0  0  0
  -24.6391  -11.6900   20.8740 C   0  0  0  0  0  0
  -23.9070  -10.4272   21.0408 C   0  0  0  0  0  0
  -24.3621   -9.4198   21.9177 C   0  0  0  0  0  0
  -23.6280   -8.2245   22.0748 C   0  0  0  0  0  0
  -22.4270   -8.0300   21.3539 C   0  0  0  0  0  0
  -21.9934   -9.0258   20.4627 C   0  0  0  0  0  0
  -22.7272  -10.2120   20.3020 C   0  0  0  0  0  0
  -21.6870   -6.0742   22.5255 C   0  0  0  0  0  0
  -21.4032   -6.5626   23.8196 C   0  0  0  0  0  0
  -21.3655   -5.6782   24.9148 C   0  0  0  0  0  0
  -21.6032   -4.3038   24.7210 C   0  0  0  0  0  0
  -21.8823   -3.8136   23.4323 C   0  0  0  0  0  0
  -21.9209   -4.6951   22.3393 C   0  0  0  0  0  0
  -22.7850  -13.5235   21.1815 C   0  0  0  0  0  0
  -22.1674   -4.2136   21.0970 F   0  0  0  0  0  0
  -21.5605   -3.4535   25.7729 F   0  0  0  0  0  0
  -30.0260  -13.2954   20.4389 N   0  0  0  0  0  0
  -26.2992  -12.9337   20.3397 N   0  0  0  0  0  0
  -25.9324  -11.6487   20.5836 N   0  0  0  0  0  0
  -22.0477  -12.8187   22.0325 N   0  0  0  0  0  0
  -25.4236  -15.1896   20.4057 N   0  0  0  0  0  0
  -31.8673  -14.6010   20.1841 O   0  0  0  0  0  0
  -21.6632   -6.8894   21.4231 O   0  0  0  0  0  0
  -22.3543  -14.5589   20.6738 O   0  0  0  0  0  0
  -24.6111  -31.8726   23.2080 C   0  0  0  0  0  0
  -25.9033  -32.4834   23.8337 C   0  0  1  0  0  0
  -27.2167  -27.4688   20.0652 C   0  0  0  0  0  0
  -25.5922  -33.8620   24.2320 N   0  0  0  0  0  0
  -23.3907  -30.4968   21.5544 C   0  0  2  0  0  0
  -24.8289  -28.9572   20.1234 C   0  0  0  0  0  0
  -22.7376  -29.4699   22.5066 C   0  0  0  0  0  0
  -18.0266  -28.1372   22.8490 C   0  0  0  0  0  0
  -24.1486  -36.7305   23.2613 C   0  0  0  0  0  0
  -25.9097  -30.8503   21.3386 C   0  0  0  0  0  0
  -25.9892  -29.4737   20.7156 C   0  0  0  0  0  0
  -27.1916  -28.7317   20.6996 C   0  0  0  0  0  0
  -26.0435  -26.9577   19.4811 C   0  0  0  0  0  0
  -24.8450  -27.6920   19.5143 C   0  0  0  0  0  0
  -23.5912  -29.8247   20.1694 C   0  0  0  0  0  0
  -25.4101  -36.3126   24.0340 C   0  0  1  0  0  0
  -20.5853  -28.3633   23.1359 C   0  0  2  0  0  0
  -20.6763  -26.9390   22.5418 C   0  0  0  0  0  0
  -19.5748  -26.6416   21.5206 C   0  0  0  0  0  0
  -18.1917  -26.7939   22.1595 C   0  0  0  0  0  0
  -19.1514  -28.8825   23.2924 C   0  0  0  0  0  0
  -18.9445  -30.1442   23.8907 C   0  0  0  0  0  0
  -17.6444  -30.6575   24.0582 C   0  0  0  0  0  0
  -25.9054  -34.9493   23.5140 C   0  0  0  0  0  0
  -16.5338  -29.9084   23.6321 C   0  0  0  0  0  0
  -16.7260  -28.6521   23.0313 C   0  0  0  0  0  0
  -26.4473  -31.6515   25.0586 C   0  0  0  0  0  0
  -25.3754  -31.3448   26.1294 C   0  0  0  0  0  0
  -27.0238  -30.3012   24.5725 C   0  0  0  0  0  0
  -27.6074  -32.4118   25.7440 C   0  0  0  0  0  0
  -27.5601  -37.1799   24.8447 C   0  0  0  0  0  0
  -21.4104  -29.3040   22.3807 N   0  0  0  0  0  0
  -26.4267  -37.3836   23.9460 N   0  0  0  0  0  0
  -24.6582  -31.0858   22.0962 N   0  0  0  0  0  0
  -23.4181  -28.8260   23.3080 O   0  0  0  0  0  0
  -28.3556  -26.7257   19.9030 O   0  0  0  0  0  0
  -26.5626  -34.8963   22.4712 O   0  0  0  0  0  0
  -23.5334  -32.1468   23.7530 O   0  0  0  0  0  0
  -29.4270  -18.4177   23.0579 C   0  0  0  0  0  0
  -28.7677  -19.6639   23.1025 C   0  0  0  0  0  0
  -28.5239  -19.6039   20.6871 C   0  0  0  0  0  0
  -29.6681  -17.7574   21.8292 C   0  0  0  0  0  0
  -29.1941  -18.3599   20.6322 C   0  0  0  0  0  0
  -28.3475  -20.2846   21.9089 C   0  0  0  0  0  0
  -30.5617  -16.5395   21.8102 C   0  0  0  0  0  0
  -29.4936  -17.7747   19.2589 C   0  0  0  0  0  0
  -28.3257  -23.9739   21.2402 C   0  0  0  0  0  0
  -29.4953  -24.9484   20.9639 C   0  0  0  0  0  0
  -28.8226  -22.5201   21.3459 C   0  0  0  0  0  0
  -29.1239  -26.4397   21.0498 C   0  0  0  0  0  0
  -27.8457  -21.5947   21.9256 N   0  0  0  0  0  0
  -30.0520  -15.4203   21.2627 N   0  0  0  0  0  0
  -31.6930  -16.6229   22.3010 O   0  0  0  0  0  0
  -31.4629  -12.4301   19.1026 H   0  0  0  0  0  0
  -30.3391  -11.3056   19.8118 H   0  0  0  0  0  0
  -29.7326  -11.8036   17.4173 H   0  0  0  0  0  0
  -29.6292  -13.5106   17.7761 H   0  0  0  0  0  0
  -27.8399  -11.3064   18.8226 H   0  0  0  0  0  0
  -27.3523  -12.6250   17.7950 H   0  0  0  0  0  0
  -27.6963  -14.2583   19.5788 H   0  0  0  0  0  0
  -28.6686  -11.9603   21.3486 H   0  0  0  0  0  0
  -28.4515  -13.5986   21.8730 H   0  0  0  0  0  0
  -25.2750   -9.5661   22.4777 H   0  0  0  0  0  0
  -23.9948   -7.4648   22.7502 H   0  0  0  0  0  0
  -21.0854   -8.8797   19.8956 H   0  0  0  0  0  0
  -22.3759  -10.9644   19.6112 H   0  0  0  0  0  0
  -21.2038   -7.6145   23.9709 H   0  0  0  0  0  0
  -21.1465   -6.0499   25.9056 H   0  0  0  0  0  0
  -22.0620   -2.7593   23.2827 H   0  0  0  0  0  0
  -22.4129  -11.9802   22.4596 H   0  0  0  0  0  0
  -21.1086  -13.1198   22.2575 H   0  0  0  0  0  0
  -24.6432  -15.8327   20.4846 H   0  0  0  0  0  0
  -26.2683  -15.6345   20.0704 H   0  0  0  0  0  0
  -26.7094  -32.5567   23.1095 H   0  0  0  0  0  0
  -25.0066  -33.9768   25.0457 H   0  0  0  0  0  0
  -22.6788  -31.3131   21.4181 H   0  0  0  0  0  0
  -23.3798  -35.9574   23.3152 H   0  0  0  0  0  0
  -24.3634  -36.9028   22.2056 H   0  0  0  0  0  0
  -23.7130  -37.6439   23.6671 H   0  0  0  0  0  0
  -25.9715  -31.5902   20.5388 H   0  0  0  0  0  0
  -26.8198  -30.9479   21.9165 H   0  0  0  0  0  0
  -28.0940  -29.1407   21.1309 H   0  0  0  0  0  0
  -26.0583  -25.9940   18.9918 H   0  0  0  0  0  0
  -23.9514  -27.2888   19.0567 H   0  0  0  0  0  0
  -23.6964  -30.5961   19.4054 H   0  0  0  0  0  0
  -22.7130  -29.2455   19.8769 H   0  0  0  0  0  0
  -25.1266  -36.1971   25.0821 H   0  0  0  0  0  0
  -20.9933  -28.3156   24.1485 H   0  0  0  0  0  0
  -20.5687  -26.2230   23.3579 H   0  0  0  0  0  0
  -21.6626  -26.7473   22.1176 H   0  0  0  0  0  0
  -19.6896  -25.6353   21.1169 H   0  0  0  0  0  0
  -19.6692  -27.3291   20.6787 H   0  0  0  0  0  0
  -17.4216  -26.6757   21.3961 H   0  0  0  0  0  0
  -18.0265  -26.0041   22.8936 H   0  0  0  0  0  0
  -19.7928  -30.7283   24.2247 H   0  0  0  0  0  0
  -17.4996  -31.6258   24.5182 H   0  0  0  0  0  0
  -15.5334  -30.2989   23.7647 H   0  0  0  0  0  0
  -15.8667  -28.0880   22.6940 H   0  0  0  0  0  0
  -24.6247  -30.6429   25.7639 H   0  0  0  0  0  0
  -24.8545  -32.2451   26.4554 H   0  0  0  0  0  0
  -25.8197  -30.8884   27.0147 H   0  0  0  0  0  0
  -26.2654  -29.6814   24.0916 H   0  0  0  0  0  0
  -27.4284  -29.7159   25.3987 H   0  0  0  0  0  0
  -27.8359  -30.4421   23.8584 H   0  0  0  0  0  0
  -27.2819  -33.3541   26.1845 H   0  0  0  0  0  0
  -28.4078  -32.6377   25.0385 H   0  0  0  0  0  0
  -28.0444  -31.8216   26.5505 H   0  0  0  0  0  0
  -28.2480  -38.0238   24.7718 H   0  0  0  0  0  0
  -28.1247  -36.2786   24.5994 H   0  0  0  0  0  0
  -27.2355  -37.1094   25.8846 H   0  0  0  0  0  0
  -20.9256  -29.8805   21.7082 H   0  0  0  0  0  0
  -26.0140  -38.2881   24.1575 H   0  0  0  0  0  0
  -29.7939  -17.9871   23.9776 H   0  0  0  0  0  0
  -28.6425  -20.1570   24.0576 H   0  0  0  0  0  0
  -28.1903  -20.0757   19.7737 H   0  0  0  0  0  0
  -28.9712  -18.3229   18.4762 H   0  0  0  0  0  0
  -29.1794  -16.7351   19.1830 H   0  0  0  0  0  0
  -30.5640  -17.8367   19.0556 H   0  0  0  0  0  0
  -27.5748  -24.0557   20.4503 H   0  0  0  0  0  0
  -27.8336  -24.2650   22.1683 H   0  0  0  0  0  0
  -29.9254  -24.7372   19.9826 H   0  0  0  0  0  0
  -30.2959  -24.7597   21.6791 H   0  0  0  0  0  0
  -29.7115  -22.4948   21.9773 H   0  0  0  0  0  0
  -29.1382  -22.1794   20.3590 H   0  0  0  0  0  0
  -30.0216  -27.0578   21.0181 H   0  0  0  0  0  0
  -28.6019  -26.6654   21.9824 H   0  0  0  0  0  0
  -27.5524  -21.8884   22.8547 H   0  0  0  0  0  0
  -29.0495  -15.3399   21.2478 H   0  0  0  0  0  0
  1 25  1  0  0  0
  1 30  2  0  0  0
  1 84  1  0  0  0
  2  3  1  0  0  0
  2 25  1  0  0  0
  2 86  1  0  0  0
  2 87  1  0  0  0
  3  4  1  0  0  0
  3 88  1  0  0  0
  3 89  1  0  0  0
  4  5  1  0  0  0
  4 90  1  0  0  0
  4 91  1  0  0  0
  5  6  1  0  0  0
  5 26  1  0  0  0
  5 92  1  0  0  0
  6 25  1  0  0  0
  6 93  1  0  0  0
  6 94  1  0  0  0
  7  8  2  0  0  0
  7 26  1  0  0  0
  7 29  1  0  0  0
  8  9  1  0  0  0
  8 22  1  0  0  0
  9 10  1  0  0  0
  9 27  2  0  0  0
 10 11  2  0  0  0
 10 15  1  0  0  0
 11 12  1  0  0  0
 11 95  1  0  0  0
 12 13  2  0  0  0
 12 96  1  0  0  0
 13 14  1  0  0  0
 13 31  1  0  0  0
 14 15  2  0  0  0
 14 97  1  0  0  0
 15 98  1  0  0  0
 16 17  2  0  0  0
 16 21  1  0  0  0
 16 31  1  0  0  0
 17 18  1  0  0  0
 17 99  1  0  0  0
 18 19  2  0  0  0
 18100  1  0  0  0
 19 20  1  0  0  0
 19 24  1  0  0  0
 20 21  2  0  0  0
 20101  1  0  0  0
 21 23  1  0  0  0
 22 28  1  0  0  0
 22 32  2  0  0  0
 26 27  1  0  0  0
 28102  1  0  0  0
 28103  1  0  0  0
 29104  1  0  0  0
 29105  1  0  0  0
 33 34  1  0  0  0
 33 66  1  0  0  0
 33 70  2  0  0  0
 34 36  1  0  0  0
 34 59  1  0  0  0
 34106  1  0  0  0
 35 44  2  0  0  0
 35 45  1  0  0  0
 35 68  1  0  0  0
 36 56  1  0  0  0
 36107  1  0  0  0
 37 39  1  0  0  0
 37 47  1  0  0  0
 37 66  1  0  0  0
 37108  1  0  0  0
 38 43  2  0  0  0
 38 46  1  0  0  0
 38 47  1  0  0  0
 39 64  1  0  0  0
 39 67  2  0  0  0
 40 52  1  0  0  0
 40 53  2  0  0  0
 40 58  1  0  0  0
 41109  1  0  0  0
 41110  1  0  0  0
 41111  1  0  0  0
 41 48  1  0  0  0
 42 43  1  0  0  0
 42 66  1  0  0  0
 42112  1  0  0  0
 42113  1  0  0  0
 43 44  1  0  0  0
 44114  1  0  0  0
 45 46  2  0  0  0
 45115  1  0  0  0
 46116  1  0  0  0
 47117  1  0  0  0
 47118  1  0  0  0
 48 56  1  0  0  0
 48 65  1  0  0  0
 48119  1  0  0  0
 49 50  1  0  0  0
 49 53  1  0  0  0
 49 64  1  0  0  0
 49120  1  0  0  0
 50 51  1  0  0  0
 50121  1  0  0  0
 50122  1  0  0  0
 51 52  1  0  0  0
 51123  1  0  0  0
 51124  1  0  0  0
 52125  1  0  0  0
 52126  1  0  0  0
 53 54  1  0  0  0
 54 55  2  0  0  0
 54127  1  0  0  0
 55 57  1  0  0  0
 55128  1  0  0  0
 56 69  2  0  0  0
 57 58  2  0  0  0
 57129  1  0  0  0
 58130  1  0  0  0
 59 60  1  0  0  0
 59 61  1  0  0  0
 59 62  1  0  0  0
 60131  1  0  0  0
 60132  1  0  0  0
 60133  1  0  0  0
 61134  1  0  0  0
 61135  1  0  0  0
 61136  1  0  0  0
 62137  1  0  0  0
 62138  1  0  0  0
 62139  1  0  0  0
 63 65  1  0  0  0
 63140  1  0  0  0
 63141  1  0  0  0
 63142  1  0  0  0
 64143  1  0  0  0
 65144  1  0  0  0
 68 82  1  0  0  0
 71 72  2  0  0  0
 71 74  1  0  0  0
 71145  1  0  0  0
 72 76  1  0  0  0
 72146  1  0  0  0
 73 75  1  0  0  0
 73 76  2  0  0  0
 73147  1  0  0  0
 74 75  2  0  0  0
 74 77  1  0  0  0
 75 78  1  0  0  0
 76 83  1  0  0  0
 77 84  1  0  0  0
 77 85  2  0  0  0
 78148  1  0  0  0
 78149  1  0  0  0
 78150  1  0  0  0
 79 80  1  0  0  0
 79 81  1  0  0  0
 79151  1  0  0  0
 79152  1  0  0  0
 80 82  1  0  0  0
 80153  1  0  0  0
 80154  1  0  0  0
 81 83  1  0  0  0
 81155  1  0  0  0
 81156  1  0  0  0
 82157  1  0  0  0
 82158  1  0  0  0
 83159  1  0  0  0
 84160  1  0  0  0
M  ISO  4   1 100  68 101  82 101  84 100
M  END
> <chiral flag>
0

> <version>
0

> <s_m_source_file>
/data/baiqing/PycharmProjects/Reinvent-master-3.2/result/LINK_invent/BTK/process_docking_weight1_custom_product_contain_oxygen_bond_distance_aromatic_linkinvent_7_9_3/rearranged_h_0104.sdf

> <i_m_source_file_index>
78

> <r_mmod_Potential_Energy-OPLS-2005>
-75.86181640625

> <r_mmod_Stretch_Energy-OPLS-2005>
33.4902267456055

> <r_mmod_Bend_Energy-OPLS-2005>
93.5622940063477

> <r_mmod_Torsional_Energy-OPLS-2005>
274.333312988281

> <r_mmod_Improper_Torsional_Energy-OPLS-2005>
10.4477767944336

> <r_mmod_Van_der_Waal_Energy-OPLS-2005>
155.201217651367

> <r_mmod_Electrostatic_Energy-OPLS-2005>
-428.372589111328

> <r_mmod_Solvation_Energy-OPLS-2005>
-227.39533996582

> <b_mmod_Minimization_Converged-OPLS-2005>
0

> <r_mmod_RMS_Derivative-OPLS-2005>
4.24932193756104

$$$$
79
                    3D
 Structure written by MMmdl.
163172  0  0  1  0            999 V2000
  -30.7682  -14.3985   20.6800 C   0  0  0  0  0  0
  -30.4194  -12.3089   19.4084 C   0  0  0  0  0  0
  -29.4886  -12.5226   18.2007 C   0  0  0  0  0  0
  -28.0154  -12.3681   18.6194 C   0  0  0  0  0  0
  -27.6655  -13.2049   19.8780 C   0  0  2  0  0  0
  -28.7030  -12.9764   20.9997 C   0  0  0  0  0  0
  -25.2604  -13.8158   20.5667 C   0  0  0  0  0  0
  -24.1846  -13.0437   20.9157 C   0  0  0  0  0  0
  -24.6400  -11.6905   20.8729 C   0  0  0  0  0  0
  -23.9064  -10.4291   21.0400 C   0  0  0  0  0  0
  -24.3615   -9.4208   21.9181 C   0  0  0  0  0  0
  -23.6288   -8.2246   22.0756 C   0  0  0  0  0  0
  -22.4272   -8.0284   21.3545 C   0  0  0  0  0  0
  -21.9907   -9.0256   20.4647 C   0  0  0  0  0  0
  -22.7236  -10.2133   20.3050 C   0  0  0  0  0  0
  -21.6850   -6.0733   22.5276 C   0  0  0  0  0  0
  -21.4015   -6.5638   23.8211 C   0  0  0  0  0  0
  -21.3656   -5.6788   24.9173 C   0  0  0  0  0  0
  -21.6044   -4.3051   24.7223 C   0  0  0  0  0  0
  -21.8821   -3.8145   23.4344 C   0  0  0  0  0  0
  -21.9196   -4.6961   22.3400 C   0  0  0  0  0  0
  -22.7873  -13.5242   21.1821 C   0  0  0  0  0  0
  -22.1664   -4.2148   21.0976 F   0  0  0  0  0  0
  -21.5627   -3.4538   25.7736 F   0  0  0  0  0  0
  -30.0438  -13.2685   20.4598 N   0  0  0  0  0  0
  -26.3043  -12.9326   20.3373 N   0  0  0  0  0  0
  -25.9328  -11.6485   20.5762 N   0  0  0  0  0  0
  -22.0509  -12.8240   22.0380 N   0  0  0  0  0  0
  -25.4341  -15.1868   20.4071 N   0  0  0  0  0  0
  -31.7946  -14.6670   20.0489 O   0  0  0  0  0  0
  -21.6638   -6.8879   21.4239 O   0  0  0  0  0  0
  -22.3569  -14.5553   20.6676 O   0  0  0  0  0  0
  -24.6143  -31.8672   23.2105 C   0  0  0  0  0  0
  -25.9025  -32.4821   23.8397 C   0  0  1  0  0  0
  -27.2396  -27.4402   20.0951 C   0  0  0  0  0  0
  -25.5884  -33.8614   24.2340 N   0  0  0  0  0  0
  -23.4015  -30.4893   21.5502 C   0  0  2  0  0  0
  -24.8469  -28.9504   20.1184 C   0  0  0  0  0  0
  -22.7409  -29.4648   22.5008 C   0  0  0  0  0  0
  -18.0272  -28.1365   22.8493 C   0  0  0  0  0  0
  -24.1490  -36.7318   23.2637 C   0  0  0  0  0  0
  -25.9275  -30.8361   21.3592 C   0  0  0  0  0  0
  -26.0047  -29.4695   20.7078 C   0  0  0  0  0  0
  -27.2017  -28.7207   20.6904 C   0  0  0  0  0  0
  -26.0589  -26.9263   19.5111 C   0  0  0  0  0  0
  -24.8674  -27.6772   19.5206 C   0  0  0  0  0  0
  -23.6088  -29.8161   20.1662 C   0  0  0  0  0  0
  -25.4102  -36.3112   24.0354 C   0  0  1  0  0  0
  -20.5858  -28.3636   23.1325 C   0  0  2  0  0  0
  -20.6758  -26.9370   22.5415 C   0  0  0  0  0  0
  -19.5746  -26.6375   21.5199 C   0  0  0  0  0  0
  -18.1921  -26.7919   22.1603 C   0  0  0  0  0  0
  -19.1520  -28.8823   23.2905 C   0  0  0  0  0  0
  -18.9448  -30.1435   23.8908 C   0  0  0  0  0  0
  -17.6449  -30.6574   24.0562 C   0  0  0  0  0  0
  -25.9028  -34.9471   23.5145 C   0  0  0  0  0  0
  -16.5341  -29.9071   23.6326 C   0  0  0  0  0  0
  -16.7259  -28.6485   23.0351 C   0  0  0  0  0  0
  -26.4471  -31.6602   25.0716 C   0  0  0  0  0  0
  -25.3765  -31.3673   26.1487 C   0  0  0  0  0  0
  -27.0325  -30.3062   24.6070 C   0  0  0  0  0  0
  -27.6059  -32.4313   25.7463 C   0  0  0  0  0  0
  -27.5589  -37.1802   24.8465 C   0  0  0  0  0  0
  -21.4138  -29.3015   22.3748 N   0  0  0  0  0  0
  -26.4299  -37.3786   23.9416 N   0  0  0  0  0  0
  -24.6663  -31.0780   22.0996 N   0  0  0  0  0  0
  -23.4186  -28.8186   23.3038 O   0  0  0  0  0  0
  -28.4424  -26.7647   20.1089 O   0  0  0  0  0  0
  -26.5583  -34.8928   22.4704 O   0  0  0  0  0  0
  -23.5340  -32.1404   23.7524 O   0  0  0  0  0  0
  -30.7280  -20.0149   21.5520 C   0  0  0  0  0  0
  -31.0982  -18.6576   21.4202 C   0  0  0  0  0  0
  -29.1243  -19.4012   23.2752 C   0  0  0  0  0  0
  -29.7751  -20.4034   22.5193 C   0  0  0  0  0  0
  -30.5213  -17.6697   22.2503 C   0  0  0  0  0  0
  -29.4950  -18.0456   23.1447 C   0  0  0  0  0  0
  -28.2054  -24.9234   22.3389 C   0  0  0  0  0  0
  -27.9025  -23.6701   23.1577 C   0  0  0  0  0  0
  -28.4393  -23.0052   20.9294 C   0  0  0  0  0  0
  -27.9124  -24.4623   20.9152 C   0  0  2  0  0  0
  -31.1198  -16.2628   22.2972 C   0  0  0  0  0  0
  -29.5800  -21.8807   22.8685 C   0  0  0  0  0  0
  -28.5153  -25.3655   19.8101 C   0  0  0  0  0  0
  -30.3398  -15.1848   21.6796 N   0  0  0  0  0  0
  -28.3447  -22.5170   22.3349 N   0  3  1  0  0  0
  -28.9138  -17.1152   23.9392 F   0  0  0  0  0  0
  -31.4624  -12.4095   19.1021 H   0  0  0  0  0  0
  -30.3235  -11.2909   19.7892 H   0  0  0  0  0  0
  -29.7293  -11.8102   17.4107 H   0  0  0  0  0  0
  -29.6514  -13.5158   17.7798 H   0  0  0  0  0  0
  -27.8366  -11.3104   18.8177 H   0  0  0  0  0  0
  -27.3578  -12.6366   17.7926 H   0  0  0  0  0  0
  -27.7171  -14.2547   19.5886 H   0  0  0  0  0  0
  -28.6710  -11.9402   21.3398 H   0  0  0  0  0  0
  -28.4455  -13.5744   21.8738 H   0  0  0  0  0  0
  -25.2762   -9.5680   22.4756 H   0  0  0  0  0  0
  -23.9994   -7.4637   22.7476 H   0  0  0  0  0  0
  -21.0841   -8.8775   19.8952 H   0  0  0  0  0  0
  -22.3700  -10.9671   19.6158 H   0  0  0  0  0  0
  -21.2006   -7.6149   23.9712 H   0  0  0  0  0  0
  -21.1474   -6.0521   25.9074 H   0  0  0  0  0  0
  -22.0605   -2.7609   23.2844 H   0  0  0  0  0  0
  -22.4120  -11.9899   22.4763 H   0  0  0  0  0  0
  -21.1125  -13.1274   22.2568 H   0  0  0  0  0  0
  -24.6730  -15.8479   20.5163 H   0  0  0  0  0  0
  -26.2978  -15.6225   20.1069 H   0  0  0  0  0  0
  -26.7094  -32.5545   23.1164 H   0  0  0  0  0  0
  -25.0069  -33.9772   25.0509 H   0  0  0  0  0  0
  -22.6890  -31.3041   21.4088 H   0  0  0  0  0  0
  -23.3756  -35.9649   23.3309 H   0  0  0  0  0  0
  -24.3574  -36.8921   22.2048 H   0  0  0  0  0  0
  -23.7252  -37.6532   23.6639 H   0  0  0  0  0  0
  -26.0342  -31.6033   20.5912 H   0  0  0  0  0  0
  -26.8174  -30.8922   21.9748 H   0  0  0  0  0  0
  -28.1025  -29.1190   21.1365 H   0  0  0  0  0  0
  -26.0406  -25.9539   19.0431 H   0  0  0  0  0  0
  -23.9731  -27.2688   19.0702 H   0  0  0  0  0  0
  -23.7157  -30.5873   19.4018 H   0  0  0  0  0  0
  -22.7338  -29.2315   19.8753 H   0  0  0  0  0  0
  -25.1277  -36.1978   25.0850 H   0  0  0  0  0  0
  -20.9946  -28.3188   24.1447 H   0  0  0  0  0  0
  -20.5647  -26.2225   23.3588 H   0  0  0  0  0  0
  -21.6632  -26.7415   22.1212 H   0  0  0  0  0  0
  -19.6906  -25.6290   21.1215 H   0  0  0  0  0  0
  -19.6718  -27.3200   20.6740 H   0  0  0  0  0  0
  -17.4200  -26.6685   21.3996 H   0  0  0  0  0  0
  -18.0310  -26.0052   22.8978 H   0  0  0  0  0  0
  -19.7929  -30.7243   24.2281 H   0  0  0  0  0  0
  -17.5006  -31.6259   24.5155 H   0  0  0  0  0  0
  -15.5339  -30.2966   23.7661 H   0  0  0  0  0  0
  -15.8656  -28.0808   22.7061 H   0  0  0  0  0  0
  -24.5937  -30.7019   25.7827 H   0  0  0  0  0  0
  -24.8959  -32.2813   26.4980 H   0  0  0  0  0  0
  -25.8145  -30.8816   27.0217 H   0  0  0  0  0  0
  -26.2861  -29.6768   24.1210 H   0  0  0  0  0  0
  -27.4223  -29.7337   25.4496 H   0  0  0  0  0  0
  -27.8629  -30.4409   23.9134 H   0  0  0  0  0  0
  -27.2702  -33.3598   26.2082 H   0  0  0  0  0  0
  -28.3839  -32.6886   25.0270 H   0  0  0  0  0  0
  -28.0766  -31.8416   26.5342 H   0  0  0  0  0  0
  -28.2601  -38.0103   24.7518 H   0  0  0  0  0  0
  -28.1098  -36.2638   24.6287 H   0  0  0  0  0  0
  -27.2309  -37.1451   25.8867 H   0  0  0  0  0  0
  -20.9291  -29.8738   21.6982 H   0  0  0  0  0  0
  -26.0207  -38.2873   24.1408 H   0  0  0  0  0  0
  -31.2419  -20.7634   20.9637 H   0  0  0  0  0  0
  -31.8866  -18.3900   20.7303 H   0  0  0  0  0  0
  -28.3916  -19.6683   24.0231 H   0  0  0  0  0  0
  -29.2560  -25.1979   22.4458 H   0  0  0  0  0  0
  -27.6013  -25.7793   22.6448 H   0  0  0  0  0  0
  -26.8257  -23.5836   23.3071 H   0  0  0  0  0  0
  -28.3521  -23.7163   24.1504 H   0  0  0  0  0  0
  -29.4757  -22.9760   20.5895 H   0  0  0  0  0  0
  -27.8678  -22.3649   20.2560 H   0  0  0  0  0  0
  -26.8285  -24.4329   20.7955 H   0  0  0  0  0  0
  -31.2492  -15.9997   23.3480 H   0  0  0  0  0  0
  -32.1352  -16.3016   21.8990 H   0  0  0  0  0  0
  -30.4602  -22.4600   22.5847 H   0  0  0  0  0  0
  -29.5644  -21.9196   23.9586 H   0  0  0  0  0  0
  -28.0932  -25.1358   18.8316 H   0  0  0  0  0  0
  -29.5794  -25.1454   19.7211 H   0  0  0  0  0  0
  -29.5057  -14.8889   22.1631 H   0  0  0  0  0  0
  -27.6134  -21.8238   22.3899 H   0  0  0  0  0  0
  1 25  1  0  0  0
  1 30  2  0  0  0
  1 84  1  0  0  0
  2  3  1  0  0  0
  2 25  1  0  0  0
  2 87  1  0  0  0
  2 88  1  0  0  0
  3  4  1  0  0  0
  3 89  1  0  0  0
  3 90  1  0  0  0
  4  5  1  0  0  0
  4 91  1  0  0  0
  4 92  1  0  0  0
  5  6  1  0  0  0
  5 26  1  0  0  0
  5 93  1  0  0  0
  6 25  1  0  0  0
  6 94  1  0  0  0
  6 95  1  0  0  0
  7  8  2  0  0  0
  7 26  1  0  0  0
  7 29  1  0  0  0
  8  9  1  0  0  0
  8 22  1  0  0  0
  9 10  1  0  0  0
  9 27  2  0  0  0
 10 11  2  0  0  0
 10 15  1  0  0  0
 11 12  1  0  0  0
 11 96  1  0  0  0
 12 13  2  0  0  0
 12 97  1  0  0  0
 13 14  1  0  0  0
 13 31  1  0  0  0
 14 15  2  0  0  0
 14 98  1  0  0  0
 15 99  1  0  0  0
 16 17  2  0  0  0
 16 21  1  0  0  0
 16 31  1  0  0  0
 17 18  1  0  0  0
 17100  1  0  0  0
 18 19  2  0  0  0
 18101  1  0  0  0
 19 20  1  0  0  0
 19 24  1  0  0  0
 20 21  2  0  0  0
 20102  1  0  0  0
 21 23  1  0  0  0
 22 28  1  0  0  0
 22 32  2  0  0  0
 26 27  1  0  0  0
 28103  1  0  0  0
 28104  1  0  0  0
 29105  1  0  0  0
 29106  1  0  0  0
 33 34  1  0  0  0
 33 66  1  0  0  0
 33 70  2  0  0  0
 34 36  1  0  0  0
 34 59  1  0  0  0
 34107  1  0  0  0
 35 44  2  0  0  0
 35 45  1  0  0  0
 35 68  1  0  0  0
 36 56  1  0  0  0
 36108  1  0  0  0
 37 39  1  0  0  0
 37 47  1  0  0  0
 37 66  1  0  0  0
 37109  1  0  0  0
 38 43  2  0  0  0
 38 46  1  0  0  0
 38 47  1  0  0  0
 39 64  1  0  0  0
 39 67  2  0  0  0
 40 52  1  0  0  0
 40 53  2  0  0  0
 40 58  1  0  0  0
 41110  1  0  0  0
 41111  1  0  0  0
 41112  1  0  0  0
 41 48  1  0  0  0
 42 43  1  0  0  0
 42 66  1  0  0  0
 42113  1  0  0  0
 42114  1  0  0  0
 43 44  1  0  0  0
 44115  1  0  0  0
 45 46  2  0  0  0
 45116  1  0  0  0
 46117  1  0  0  0
 47118  1  0  0  0
 47119  1  0  0  0
 48 56  1  0  0  0
 48 65  1  0  0  0
 48120  1  0  0  0
 49 50  1  0  0  0
 49 53  1  0  0  0
 49 64  1  0  0  0
 49121  1  0  0  0
 50 51  1  0  0  0
 50122  1  0  0  0
 50123  1  0  0  0
 51 52  1  0  0  0
 51124  1  0  0  0
 51125  1  0  0  0
 52126  1  0  0  0
 52127  1  0  0  0
 53 54  1  0  0  0
 54 55  2  0  0  0
 54128  1  0  0  0
 55 57  1  0  0  0
 55129  1  0  0  0
 56 69  2  0  0  0
 57 58  2  0  0  0
 57130  1  0  0  0
 58131  1  0  0  0
 59 60  1  0  0  0
 59 61  1  0  0  0
 59 62  1  0  0  0
 60132  1  0  0  0
 60133  1  0  0  0
 60134  1  0  0  0
 61135  1  0  0  0
 61136  1  0  0  0
 61137  1  0  0  0
 62138  1  0  0  0
 62139  1  0  0  0
 62140  1  0  0  0
 63 65  1  0  0  0
 63141  1  0  0  0
 63142  1  0  0  0
 63143  1  0  0  0
 64144  1  0  0  0
 65145  1  0  0  0
 68 83  1  0  0  0
 71 72  2  0  0  0
 71 74  1  0  0  0
 71146  1  0  0  0
 72 75  1  0  0  0
 72147  1  0  0  0
 73 74  2  0  0  0
 73 76  1  0  0  0
 73148  1  0  0  0
 74 82  1  0  0  0
 75 76  2  0  0  0
 75 81  1  0  0  0
 76 86  1  0  0  0
 77 78  1  0  0  0
 77 80  1  0  0  0
 77149  1  0  0  0
 77150  1  0  0  0
 78 85  1  0  0  0
 78151  1  0  0  0
 78152  1  0  0  0
 79 80  1  0  0  0
 79 85  1  0  0  0
 79153  1  0  0  0
 79154  1  0  0  0
 80 83  1  0  0  0
 80155  1  0  0  0
 81 84  1  0  0  0
 81156  1  0  0  0
 81157  1  0  0  0
 82158  1  0  0  0
 82159  1  0  0  0
 82 85  1  0  0  0
 83160  1  0  0  0
 83161  1  0  0  0
 84162  1  0  0  0
 85163  1  0  0  0
M  CHG  1  85   1
M  ISO  4   1 100  68 101  83 101  84 100
M  END
> <chiral flag>
0

> <version>
0

> <s_m_source_file>
/data/baiqing/PycharmProjects/Reinvent-master-3.2/result/LINK_invent/BTK/process_docking_weight1_custom_product_contain_oxygen_bond_distance_aromatic_linkinvent_7_9_3/rearranged_h_0104.sdf

> <i_m_source_file_index>
79

> <r_mmod_Potential_Energy-OPLS-2005>
-163.636337280273

> <r_mmod_Stretch_Energy-OPLS-2005>
36.1006126403809

> <r_mmod_Bend_Energy-OPLS-2005>
129.24967956543

> <r_mmod_Torsional_Energy-OPLS-2005>
257.739501953125

> <r_mmod_Improper_Torsional_Energy-OPLS-2005>
3.83097982406616

> <r_mmod_Van_der_Waal_Energy-OPLS-2005>
147.937927246094

> <r_mmod_Electrostatic_Energy-OPLS-2005>
-303.404602050781

> <r_mmod_Solvation_Energy-OPLS-2005>
-444.144195556641

> <b_mmod_Minimization_Converged-OPLS-2005>
0

> <r_mmod_RMS_Derivative-OPLS-2005>
1.52369546890259

$$$$
80
                    3D
 Structure written by MMmdl.
158166  0  0  1  0            999 V2000
  -30.6727  -14.7067   20.3624 C   0  0  0  0  0  0
  -30.4257  -12.4103   19.4454 C   0  0  0  0  0  0
  -29.4806  -12.3983   18.2222 C   0  0  0  0  0  0
  -28.0174  -12.2603   18.6707 C   0  0  0  0  0  0
  -27.6367  -13.2146   19.8340 C   0  0  2  0  0  0
  -28.7017  -13.2125   20.9527 C   0  0  0  0  0  0
  -25.2531  -13.8191   20.5778 C   0  0  0  0  0  0
  -24.1780  -13.0453   20.9221 C   0  0  0  0  0  0
  -24.6347  -11.6924   20.8782 C   0  0  0  0  0  0
  -23.9028  -10.4306   21.0432 C   0  0  0  0  0  0
  -24.3586   -9.4223   21.9202 C   0  0  0  0  0  0
  -23.6267   -8.2255   22.0767 C   0  0  0  0  0  0
  -22.4258   -8.0284   21.3550 C   0  0  0  0  0  0
  -21.9882   -9.0259   20.4664 C   0  0  0  0  0  0
  -22.7204  -10.2147   20.3079 C   0  0  0  0  0  0
  -21.6839   -6.0730   22.5275 C   0  0  0  0  0  0
  -21.4018   -6.5638   23.8210 C   0  0  0  0  0  0
  -21.3656   -5.6789   24.9172 C   0  0  0  0  0  0
  -21.6039   -4.3050   24.7221 C   0  0  0  0  0  0
  -21.8819   -3.8141   23.4345 C   0  0  0  0  0  0
  -21.9189   -4.6958   22.3403 C   0  0  0  0  0  0
  -22.7802  -13.5257   21.1847 C   0  0  0  0  0  0
  -22.1664   -4.2141   21.0979 F   0  0  0  0  0  0
  -21.5617   -3.4542   25.7741 F   0  0  0  0  0  0
  -29.9919  -13.5148   20.3221 N   0  0  0  0  0  0
  -26.2935  -12.9368   20.3341 N   0  0  0  0  0  0
  -25.9283  -11.6534   20.5836 N   0  0  0  0  0  0
  -22.0418  -12.8294   22.0418 N   0  0  0  0  0  0
  -25.4249  -15.1923   20.4295 N   0  0  0  0  0  0
  -31.9067  -14.7034   20.3543 O   0  0  0  0  0  0
  -21.6628   -6.8880   21.4239 O   0  0  0  0  0  0
  -22.3517  -14.5556   20.6668 O   0  0  0  0  0  0
  -24.6269  -31.8588   23.2023 C   0  0  0  0  0  0
  -25.9117  -32.4768   23.8340 C   0  0  1  0  0  0
  -27.2263  -27.3102   20.1391 C   0  0  0  0  0  0
  -25.5944  -33.8565   24.2265 N   0  0  0  0  0  0
  -23.4214  -30.4821   21.5437 C   0  0  2  0  0  0
  -24.8719  -28.9383   20.1117 C   0  0  0  0  0  0
  -22.7475  -29.4614   22.4920 C   0  0  0  0  0  0
  -18.0291  -28.1388   22.8486 C   0  0  0  0  0  0
  -24.1492  -36.7277   23.2630 C   0  0  0  0  0  0
  -25.9632  -30.7902   21.3758 C   0  0  0  0  0  0
  -26.0401  -29.4184   20.7163 C   0  0  0  0  0  0
  -27.2216  -28.6177   20.7170 C   0  0  0  0  0  0
  -26.0346  -26.8860   19.5062 C   0  0  0  0  0  0
  -24.8717  -27.6786   19.4957 C   0  0  0  0  0  0
  -23.6382  -29.8172   20.1593 C   0  0  0  0  0  0
  -25.4121  -36.3072   24.0320 C   0  0  1  0  0  0
  -20.5889  -28.3689   23.1282 C   0  0  2  0  0  0
  -20.6785  -26.9408   22.5407 C   0  0  0  0  0  0
  -19.5766  -26.6383   21.5209 C   0  0  0  0  0  0
  -18.1943  -26.7933   22.1616 C   0  0  0  0  0  0
  -19.1539  -28.8856   23.2883 C   0  0  0  0  0  0
  -18.9455  -30.1458   23.8894 C   0  0  0  0  0  0
  -17.6452  -30.6583   24.0558 C   0  0  0  0  0  0
  -25.9054  -34.9449   23.5087 C   0  0  0  0  0  0
  -16.5348  -29.9073   23.6339 C   0  0  0  0  0  0
  -16.7274  -28.6498   23.0350 C   0  0  0  0  0  0
  -26.4505  -31.6583   25.0708 C   0  0  0  0  0  0
  -25.3731  -31.3752   26.1428 C   0  0  0  0  0  0
  -27.0338  -30.2995   24.6179 C   0  0  0  0  0  0
  -27.6059  -32.4324   25.7477 C   0  0  0  0  0  0
  -27.5581  -37.1786   24.8458 C   0  0  0  0  0  0
  -21.4187  -29.3041   22.3664 N   0  0  0  0  0  0
  -26.4297  -37.3766   23.9402 N   0  0  0  0  0  0
  -24.6884  -31.0603   22.0975 N   0  0  0  0  0  0
  -23.4183  -28.8153   23.3006 O   0  0  0  0  0  0
  -28.3309  -26.4439   20.2207 O   0  0  0  0  0  0
  -26.5600  -34.8920   22.4635 O   0  0  0  0  0  0
  -23.5432  -32.1384   23.7355 O   0  0  0  0  0  0
  -30.6243  -19.2072   21.3573 C   0  0  0  0  0  0
  -30.6980  -17.8012   21.1162 C   0  0  0  0  0  0
  -28.7075  -19.3838   19.9390 C   0  0  0  0  0  0
  -28.7671  -17.9750   19.6887 C   0  0  0  0  0  0
  -29.6613  -20.0572   20.7468 C   0  0  0  0  0  0
  -29.8033  -17.1399   20.2327 C   0  0  0  0  0  0
  -28.9923  -22.4359   20.4866 C   0  0  0  0  0  0
  -29.1596  -23.9949   20.6731 C   0  0  0  0  0  0
  -27.7127  -17.4166   18.7485 C   0  0  0  0  0  0
  -31.2076  -16.9667   17.7418 C   0  0  0  0  0  0
  -28.0500  -24.9826   20.1403 C   0  0  0  0  0  0
  -30.3703  -15.7701   18.2512 C   0  0  0  0  0  0
  -29.7512  -21.4823   20.9624 N   0  0  0  0  0  0
  -30.0616  -15.7753   19.7136 N   0  0  0  0  0  0
  -30.1510  -24.4644   21.2511 O   0  0  0  0  0  0
  -31.4616  -12.5248   19.1209 H   0  0  0  0  0  0
  -30.3797  -11.4614   19.9829 H   0  0  0  0  0  0
  -29.7405  -11.5712   17.5596 H   0  0  0  0  0  0
  -29.5789  -13.2938   17.6164 H   0  0  0  0  0  0
  -27.8880  -11.2263   18.9929 H   0  0  0  0  0  0
  -27.3443  -12.4023   17.8245 H   0  0  0  0  0  0
  -27.6172  -14.2130   19.4040 H   0  0  0  0  0  0
  -28.7400  -12.2476   21.4595 H   0  0  0  0  0  0
  -28.4649  -13.9610   21.7106 H   0  0  0  0  0  0
  -25.2729   -9.5702   22.4779 H   0  0  0  0  0  0
  -23.9978   -7.4642   22.7483 H   0  0  0  0  0  0
  -21.0809   -8.8774   19.8968 H   0  0  0  0  0  0
  -22.3652  -10.9686   19.6191 H   0  0  0  0  0  0
  -21.2034   -7.6145   23.9723 H   0  0  0  0  0  0
  -21.1468   -6.0515   25.9072 H   0  0  0  0  0  0
  -22.0602   -2.7605   23.2843 H   0  0  0  0  0  0
  -22.3987  -11.9961   22.4852 H   0  0  0  0  0  0
  -21.1047  -13.1374   22.2592 H   0  0  0  0  0  0
  -24.6681  -15.8488   20.5864 H   0  0  0  0  0  0
  -26.3036  -15.6414   20.2082 H   0  0  0  0  0  0
  -26.7177  -32.5444   23.1078 H   0  0  0  0  0  0
  -25.0169  -33.9707   25.0465 H   0  0  0  0  0  0
  -22.7153  -31.3025   21.4000 H   0  0  0  0  0  0
  -23.3766  -35.9593   23.3296 H   0  0  0  0  0  0
  -24.3590  -36.8886   22.2042 H   0  0  0  0  0  0
  -23.7225  -37.6476   23.6643 H   0  0  0  0  0  0
  -26.1016  -31.5603   20.6153 H   0  0  0  0  0  0
  -26.8399  -30.8333   22.0110 H   0  0  0  0  0  0
  -28.1169  -28.9797   21.2034 H   0  0  0  0  0  0
  -25.9681  -25.9204   19.0284 H   0  0  0  0  0  0
  -23.9763  -27.3001   19.0228 H   0  0  0  0  0  0
  -23.7585  -30.5938   19.4035 H   0  0  0  0  0  0
  -22.7598  -29.2452   19.8551 H   0  0  0  0  0  0
  -25.1303  -36.1923   25.0812 H   0  0  0  0  0  0
  -20.9996  -28.3273   24.1397 H   0  0  0  0  0  0
  -20.5714  -26.2288   23.3600 H   0  0  0  0  0  0
  -21.6651  -26.7454   22.1185 H   0  0  0  0  0  0
  -19.6939  -25.6297   21.1243 H   0  0  0  0  0  0
  -19.6720  -27.3189   20.6740 H   0  0  0  0  0  0
  -17.4213  -26.6677   21.4018 H   0  0  0  0  0  0
  -18.0344  -26.0068   22.9009 H   0  0  0  0  0  0
  -19.7924  -30.7281   24.2260 H   0  0  0  0  0  0
  -17.4998  -31.6268   24.5146 H   0  0  0  0  0  0
  -15.5348  -30.2962   23.7671 H   0  0  0  0  0  0
  -15.8675  -28.0813   22.7066 H   0  0  0  0  0  0
  -24.5899  -30.7103   25.7770 H   0  0  0  0  0  0
  -24.8937  -32.2940   26.4824 H   0  0  0  0  0  0
  -25.8054  -30.8953   27.0214 H   0  0  0  0  0  0
  -26.2924  -29.6752   24.1176 H   0  0  0  0  0  0
  -27.3995  -29.7244   25.4698 H   0  0  0  0  0  0
  -27.8815  -30.4271   23.9438 H   0  0  0  0  0  0
  -27.2659  -33.3618   26.2063 H   0  0  0  0  0  0
  -28.3866  -32.6891   25.0303 H   0  0  0  0  0  0
  -28.0726  -31.8438   26.5388 H   0  0  0  0  0  0
  -28.2591  -38.0091   24.7520 H   0  0  0  0  0  0
  -28.1086  -36.2623   24.6277 H   0  0  0  0  0  0
  -27.2295  -37.1419   25.8858 H   0  0  0  0  0  0
  -20.9358  -29.8744   21.6862 H   0  0  0  0  0  0
  -26.0186  -38.2837   24.1413 H   0  0  0  0  0  0
  -31.3722  -19.6457   22.0041 H   0  0  0  0  0  0
  -31.5175  -17.2527   21.5580 H   0  0  0  0  0  0
  -27.9262  -19.9509   19.4542 H   0  0  0  0  0  0
  -28.1292  -22.1614   19.8765 H   0  0  0  0  0  0
  -26.7461  -17.8889   18.9239 H   0  0  0  0  0  0
  -27.5725  -16.3480   18.8816 H   0  0  0  0  0  0
  -27.9971  -17.6025   17.7122 H   0  0  0  0  0  0
  -31.5006  -16.8110   16.7031 H   0  0  0  0  0  0
  -32.1228  -17.0899   18.3217 H   0  0  0  0  0  0
  -30.6590  -17.9078   17.7701 H   0  0  0  0  0  0
  -27.1581  -24.7721   20.7309 H   0  0  0  0  0  0
  -27.8227  -24.7078   19.1099 H   0  0  0  0  0  0
  -30.9517  -14.8934   17.9585 H   0  0  0  0  0  0
  -29.4499  -15.6911   17.6752 H   0  0  0  0  0  0
  1 25  1  0  0  0
  1 30  2  0  0  0
  1 84  1  0  0  0
  2  3  1  0  0  0
  2 25  1  0  0  0
  2 86  1  0  0  0
  2 87  1  0  0  0
  3  4  1  0  0  0
  3 88  1  0  0  0
  3 89  1  0  0  0
  4  5  1  0  0  0
  4 90  1  0  0  0
  4 91  1  0  0  0
  5  6  1  0  0  0
  5 26  1  0  0  0
  5 92  1  0  0  0
  6 25  1  0  0  0
  6 93  1  0  0  0
  6 94  1  0  0  0
  7  8  2  0  0  0
  7 26  1  0  0  0
  7 29  1  0  0  0
  8  9  1  0  0  0
  8 22  1  0  0  0
  9 10  1  0  0  0
  9 27  2  0  0  0
 10 11  2  0  0  0
 10 15  1  0  0  0
 11 12  1  0  0  0
 11 95  1  0  0  0
 12 13  2  0  0  0
 12 96  1  0  0  0
 13 14  1  0  0  0
 13 31  1  0  0  0
 14 15  2  0  0  0
 14 97  1  0  0  0
 15 98  1  0  0  0
 16 17  2  0  0  0
 16 21  1  0  0  0
 16 31  1  0  0  0
 17 18  1  0  0  0
 17 99  1  0  0  0
 18 19  2  0  0  0
 18100  1  0  0  0
 19 20  1  0  0  0
 19 24  1  0  0  0
 20 21  2  0  0  0
 20101  1  0  0  0
 21 23  1  0  0  0
 22 28  1  0  0  0
 22 32  2  0  0  0
 26 27  1  0  0  0
 28102  1  0  0  0
 28103  1  0  0  0
 29104  1  0  0  0
 29105  1  0  0  0
 33 34  1  0  0  0
 33 66  1  0  0  0
 33 70  2  0  0  0
 34 36  1  0  0  0
 34 59  1  0  0  0
 34106  1  0  0  0
 35 44  2  0  0  0
 35 45  1  0  0  0
 35 68  1  0  0  0
 36 56  1  0  0  0
 36107  1  0  0  0
 37 39  1  0  0  0
 37 47  1  0  0  0
 37 66  1  0  0  0
 37108  1  0  0  0
 38 43  2  0  0  0
 38 46  1  0  0  0
 38 47  1  0  0  0
 39 64  1  0  0  0
 39 67  2  0  0  0
 40 52  1  0  0  0
 40 53  2  0  0  0
 40 58  1  0  0  0
 41109  1  0  0  0
 41110  1  0  0  0
 41111  1  0  0  0
 41 48  1  0  0  0
 42 43  1  0  0  0
 42 66  1  0  0  0
 42112  1  0  0  0
 42113  1  0  0  0
 43 44  1  0  0  0
 44114  1  0  0  0
 45 46  2  0  0  0
 45115  1  0  0  0
 46116  1  0  0  0
 47117  1  0  0  0
 47118  1  0  0  0
 48 56  1  0  0  0
 48 65  1  0  0  0
 48119  1  0  0  0
 49 50  1  0  0  0
 49 53  1  0  0  0
 49 64  1  0  0  0
 49120  1  0  0  0
 50 51  1  0  0  0
 50121  1  0  0  0
 50122  1  0  0  0
 51 52  1  0  0  0
 51123  1  0  0  0
 51124  1  0  0  0
 52125  1  0  0  0
 52126  1  0  0  0
 53 54  1  0  0  0
 54 55  2  0  0  0
 54127  1  0  0  0
 55 57  1  0  0  0
 55128  1  0  0  0
 56 69  2  0  0  0
 57 58  2  0  0  0
 57129  1  0  0  0
 58130  1  0  0  0
 59 60  1  0  0  0
 59 61  1  0  0  0
 59 62  1  0  0  0
 60131  1  0  0  0
 60132  1  0  0  0
 60133  1  0  0  0
 61134  1  0  0  0
 61135  1  0  0  0
 61136  1  0  0  0
 62137  1  0  0  0
 62138  1  0  0  0
 62139  1  0  0  0
 63 65  1  0  0  0
 63140  1  0  0  0
 63141  1  0  0  0
 63142  1  0  0  0
 64143  1  0  0  0
 65144  1  0  0  0
 68 81  1  0  0  0
 71 72  2  0  0  0
 71 75  1  0  0  0
 71145  1  0  0  0
 72 76  1  0  0  0
 72146  1  0  0  0
 73 74  1  0  0  0
 73 75  2  0  0  0
 73147  1  0  0  0
 74 76  2  0  0  0
 74 79  1  0  0  0
 75 83  1  0  0  0
 76 84  1  0  0  0
 77 78  1  0  0  0
 77 83  2  0  0  0
 77148  1  0  0  0
 78 81  1  0  0  0
 78 85  2  0  0  0
 79149  1  0  0  0
 79150  1  0  0  0
 79151  1  0  0  0
 80 82  1  0  0  0
 80152  1  0  0  0
 80153  1  0  0  0
 80154  1  0  0  0
 81155  1  0  0  0
 81156  1  0  0  0
 82 84  1  0  0  0
 82157  1  0  0  0
 82158  1  0  0  0
M  ISO  4   1 100  68 101  81 101  84 100
M  END
> <chiral flag>
0

> <version>
0

> <s_m_source_file>
/data/baiqing/PycharmProjects/Reinvent-master-3.2/result/LINK_invent/BTK/process_docking_weight1_custom_product_contain_oxygen_bond_distance_aromatic_linkinvent_7_9_3/rearranged_h_0104.sdf

> <i_m_source_file_index>
80

> <r_mmod_Potential_Energy-OPLS-2005>
383.251678466797

> <r_mmod_Stretch_Energy-OPLS-2005>
97.669563293457

> <r_mmod_Bend_Energy-OPLS-2005>
160.246490478516

> <r_mmod_Torsional_Energy-OPLS-2005>
318.393157958984

> <r_mmod_Improper_Torsional_Energy-OPLS-2005>
30.7713756561279

> <r_mmod_Van_der_Waal_Energy-OPLS-2005>
150.730850219727

> <r_mmod_Electrostatic_Energy-OPLS-2005>
-230.847564697266

> <r_mmod_Solvation_Energy-OPLS-2005>
-231.659515380859

> <b_mmod_Minimization_Converged-OPLS-2005>
0

> <r_mmod_RMS_Derivative-OPLS-2005>
2.55873775482178

$$$$
81
                    3D
 Structure written by MMmdl.
163172  0  0  1  0            999 V2000
  -30.6468  -14.5550   20.5341 C   0  0  0  0  0  0
  -30.4366  -12.3495   19.4251 C   0  0  0  0  0  0
  -29.5028  -12.5084   18.2057 C   0  0  0  0  0  0
  -28.0233  -12.3569   18.6163 C   0  0  0  0  0  0
  -27.6558  -13.2065   19.8633 C   0  0  2  0  0  0
  -28.7010  -13.0172   20.9855 C   0  0  0  0  0  0
  -25.2570  -13.8149   20.5666 C   0  0  0  0  0  0
  -24.1830  -13.0426   20.9165 C   0  0  0  0  0  0
  -24.6382  -11.6893   20.8708 C   0  0  0  0  0  0
  -23.9043  -10.4290   21.0393 C   0  0  0  0  0  0
  -24.3613   -9.4212   21.9174 C   0  0  0  0  0  0
  -23.6300   -8.2242   22.0750 C   0  0  0  0  0  0
  -22.4281   -8.0278   21.3542 C   0  0  0  0  0  0
  -21.9898   -9.0242   20.4643 C   0  0  0  0  0  0
  -22.7211  -10.2127   20.3047 C   0  0  0  0  0  0
  -21.6847   -6.0736   22.5284 C   0  0  0  0  0  0
  -21.4013   -6.5638   23.8217 C   0  0  0  0  0  0
  -21.3659   -5.6784   24.9171 C   0  0  0  0  0  0
  -21.6044   -4.3052   24.7216 C   0  0  0  0  0  0
  -21.8823   -3.8148   23.4335 C   0  0  0  0  0  0
  -21.9192   -4.6965   22.3395 C   0  0  0  0  0  0
  -22.7858  -13.5238   21.1836 C   0  0  0  0  0  0
  -22.1664   -4.2152   21.0970 F   0  0  0  0  0  0
  -21.5625   -3.4534   25.7727 F   0  0  0  0  0  0
  -30.0233  -13.3465   20.4262 N   0  0  0  0  0  0
  -26.2994  -12.9307   20.3309 N   0  0  0  0  0  0
  -25.9303  -11.6466   20.5719 N   0  0  0  0  0  0
  -22.0486  -12.8252   22.0399 N   0  0  0  0  0  0
  -25.4270  -15.1878   20.4109 N   0  0  0  0  0  0
  -31.8135  -14.7352   20.1693 O   0  0  0  0  0  0
  -21.6639   -6.8882   21.4250 O   0  0  0  0  0  0
  -22.3544  -14.5538   20.6673 O   0  0  0  0  0  0
  -24.6179  -31.8650   23.2060 C   0  0  0  0  0  0
  -25.9057  -32.4808   23.8368 C   0  0  1  0  0  0
  -27.2380  -27.3919   20.1107 C   0  0  0  0  0  0
  -25.5907  -33.8607   24.2312 N   0  0  0  0  0  0
  -23.4094  -30.4845   21.5468 C   0  0  2  0  0  0
  -24.8577  -28.9370   20.1218 C   0  0  0  0  0  0
  -22.7430  -29.4638   22.4973 C   0  0  0  0  0  0
  -18.0269  -28.1371   22.8481 C   0  0  0  0  0  0
  -24.1483  -36.7309   23.2636 C   0  0  0  0  0  0
  -25.9406  -30.8177   21.3616 C   0  0  0  0  0  0
  -26.0209  -29.4458   20.7146 C   0  0  0  0  0  0
  -27.2171  -28.6839   20.6967 C   0  0  0  0  0  0
  -26.0562  -26.9029   19.5172 C   0  0  0  0  0  0
  -24.8725  -27.6659   19.5194 C   0  0  0  0  0  0
  -23.6226  -29.8100   20.1648 C   0  0  0  0  0  0
  -25.4105  -36.3115   24.0337 C   0  0  1  0  0  0
  -20.5865  -28.3658   23.1309 C   0  0  2  0  0  0
  -20.6758  -26.9388   22.5414 C   0  0  0  0  0  0
  -19.5744  -26.6371   21.5208 C   0  0  0  0  0  0
  -18.1921  -26.7913   22.1618 C   0  0  0  0  0  0
  -19.1522  -28.8828   23.2895 C   0  0  0  0  0  0
  -18.9452  -30.1428   23.8906 C   0  0  0  0  0  0
  -17.6456  -30.6580   24.0549 C   0  0  0  0  0  0
  -25.9035  -34.9477   23.5131 C   0  0  0  0  0  0
  -16.5345  -29.9081   23.6323 C   0  0  0  0  0  0
  -16.7262  -28.6495   23.0354 C   0  0  0  0  0  0
  -26.4481  -31.6590   25.0705 C   0  0  0  0  0  0
  -25.3739  -31.3699   26.1450 C   0  0  0  0  0  0
  -27.0301  -30.3023   24.6086 C   0  0  0  0  0  0
  -27.6070  -32.4297   25.7467 C   0  0  0  0  0  0
  -27.5582  -37.1816   24.8467 C   0  0  0  0  0  0
  -21.4146  -29.3040   22.3725 N   0  0  0  0  0  0
  -26.4293  -37.3802   23.9415 N   0  0  0  0  0  0
  -24.6751  -31.0712   22.0972 N   0  0  0  0  0  0
  -23.4189  -28.8176   23.3024 O   0  0  0  0  0  0
  -28.3974  -26.6329   20.0777 O   0  0  0  0  0  0
  -26.5595  -34.8933   22.4689 O   0  0  0  0  0  0
  -23.5360  -32.1410   23.7439 O   0  0  0  0  0  0
  -30.4257  -19.7519   21.5935 C   0  0  0  0  0  0
  -30.7749  -17.4033   22.1954 C   0  0  0  0  0  0
  -29.6032  -17.9776   20.1398 C   0  0  0  0  0  0
  -30.9248  -18.7797   22.4959 C   0  0  0  0  0  0
  -29.7699  -19.3696   20.4068 C   0  0  0  0  0  0
  -30.1088  -16.9821   21.0253 C   0  0  0  0  0  0
  -29.2309  -22.9481   19.8836 C   0  0  0  0  0  0
  -31.6053  -19.1770   23.7624 C   0  0  0  0  0  0
  -26.8984  -23.2426   20.2343 C   0  0  0  0  0  0
  -27.2382  -21.7730   19.9209 C   0  0  0  0  0  0
  -28.1495  -24.0569   19.8671 C   0  0  1  0  0  0
  -31.5956  -20.6557   24.1402 C   0  0  0  0  0  0
  -29.3346  -20.4467   19.3858 C   0  0  0  0  0  0
  -28.3773  -25.3417   20.7479 C   0  0  0  0  0  0
  -28.6936  -21.7042   19.8627 N   0  0  0  0  0  0
  -29.8192  -15.5870   20.8357 N   0  0  0  0  0  0
  -30.4391  -23.1956   19.8367 O   0  0  0  0  0  0
  -32.1546  -18.3713   24.5204 O   0  0  0  0  0  0
  -31.4784  -12.4761   19.1248 H   0  0  0  0  0  0
  -30.3638  -11.3427   19.8397 H   0  0  0  0  0  0
  -29.7551  -11.7719   17.4419 H   0  0  0  0  0  0
  -29.6579  -13.4866   17.7483 H   0  0  0  0  0  0
  -27.8450  -11.3013   18.8225 H   0  0  0  0  0  0
  -27.3736  -12.6147   17.7788 H   0  0  0  0  0  0
  -27.6835  -14.2487   19.5465 H   0  0  0  0  0  0
  -28.6932  -11.9853   21.3399 H   0  0  0  0  0  0
  -28.4597  -13.6290   21.8563 H   0  0  0  0  0  0
  -25.2768   -9.5691   22.4734 H   0  0  0  0  0  0
  -24.0008   -7.4633   22.7468 H   0  0  0  0  0  0
  -21.0826   -8.8759   19.8957 H   0  0  0  0  0  0
  -22.3672  -10.9665   19.6157 H   0  0  0  0  0  0
  -21.2015   -7.6146   23.9723 H   0  0  0  0  0  0
  -21.1477   -6.0509   25.9072 H   0  0  0  0  0  0
  -22.0605   -2.7610   23.2825 H   0  0  0  0  0  0
  -22.4097  -11.9945   22.4852 H   0  0  0  0  0  0
  -21.1100  -13.1296   22.2571 H   0  0  0  0  0  0
  -24.6580  -15.8393   20.5293 H   0  0  0  0  0  0
  -26.2752  -15.6354   20.0880 H   0  0  0  0  0  0
  -26.7127  -32.5496   23.1129 H   0  0  0  0  0  0
  -25.0091  -33.9760   25.0480 H   0  0  0  0  0  0
  -22.6999  -31.3014   21.4018 H   0  0  0  0  0  0
  -23.3754  -35.9635   23.3307 H   0  0  0  0  0  0
  -24.3573  -36.8908   22.2049 H   0  0  0  0  0  0
  -23.7213  -37.6509   23.6634 H   0  0  0  0  0  0
  -26.0516  -31.5766   20.5868 H   0  0  0  0  0  0
  -26.8306  -30.8797   21.9758 H   0  0  0  0  0  0
  -28.1192  -29.0767   21.1450 H   0  0  0  0  0  0
  -26.0503  -25.9316   19.0446 H   0  0  0  0  0  0
  -23.9798  -27.2680   19.0572 H   0  0  0  0  0  0
  -23.7363  -30.5810   19.4025 H   0  0  0  0  0  0
  -22.7467  -29.2320   19.8676 H   0  0  0  0  0  0
  -25.1278  -36.1985   25.0828 H   0  0  0  0  0  0
  -20.9956  -28.3209   24.1434 H   0  0  0  0  0  0
  -20.5653  -26.2257   23.3599 H   0  0  0  0  0  0
  -21.6628  -26.7426   22.1218 H   0  0  0  0  0  0
  -19.6913  -25.6289   21.1227 H   0  0  0  0  0  0
  -19.6690  -27.3179   20.6742 H   0  0  0  0  0  0
  -17.4194  -26.6645   21.4023 H   0  0  0  0  0  0
  -18.0342  -26.0040   22.9007 H   0  0  0  0  0  0
  -19.7927  -30.7236   24.2293 H   0  0  0  0  0  0
  -17.5014  -31.6269   24.5138 H   0  0  0  0  0  0
  -15.5350  -30.2999   23.7642 H   0  0  0  0  0  0
  -15.8651  -28.0824   22.7091 H   0  0  0  0  0  0
  -24.5954  -30.6994   25.7803 H   0  0  0  0  0  0
  -24.8885  -32.2850   26.4856 H   0  0  0  0  0  0
  -25.8102  -30.8924   27.0231 H   0  0  0  0  0  0
  -26.2854  -29.6796   24.1123 H   0  0  0  0  0  0
  -27.4047  -29.7245   25.4542 H   0  0  0  0  0  0
  -27.8700  -30.4338   23.9257 H   0  0  0  0  0  0
  -27.2722  -33.3603   26.2060 H   0  0  0  0  0  0
  -28.3886  -32.6832   25.0294 H   0  0  0  0  0  0
  -28.0727  -31.8386   26.5362 H   0  0  0  0  0  0
  -28.2618  -38.0101   24.7528 H   0  0  0  0  0  0
  -28.1061  -36.2638   24.6286 H   0  0  0  0  0  0
  -27.2300  -37.1466   25.8869 H   0  0  0  0  0  0
  -20.9300  -29.8775   21.6963 H   0  0  0  0  0  0
  -26.0181  -38.2879   24.1421 H   0  0  0  0  0  0
  -30.5578  -20.8069   21.7872 H   0  0  0  0  0  0
  -31.1407  -16.6616   22.8930 H   0  0  0  0  0  0
  -29.0881  -17.6691   19.2406 H   0  0  0  0  0  0
  -26.6768  -23.3408   21.2976 H   0  0  0  0  0  0
  -26.0160  -23.5780   19.6889 H   0  0  0  0  0  0
  -26.8220  -21.4829   18.9539 H   0  0  0  0  0  0
  -26.8381  -21.0922   20.6740 H   0  0  0  0  0  0
  -28.0750  -24.3664   18.8244 H   0  0  0  0  0  0
  -32.1815  -21.2356   23.4280 H   0  0  0  0  0  0
  -32.0213  -20.8019   25.1323 H   0  0  0  0  0  0
  -30.5740  -21.0362   24.1492 H   0  0  0  0  0  0
  -28.6606  -19.9806   18.6658 H   0  0  0  0  0  0
  -30.2220  -20.7090   18.8063 H   0  0  0  0  0  0
  -29.3397  -25.2546   21.2533 H   0  0  0  0  0  0
  -27.6507  -25.3721   21.5612 H   0  0  0  0  0  0
  -28.8557  -15.3205   20.9656 H   0  0  0  0  0  0
  1 25  1  0  0  0
  1 30  2  0  0  0
  1 86  1  0  0  0
  2  3  1  0  0  0
  2 25  1  0  0  0
  2 89  1  0  0  0
  2 90  1  0  0  0
  3  4  1  0  0  0
  3 91  1  0  0  0
  3 92  1  0  0  0
  4  5  1  0  0  0
  4 93  1  0  0  0
  4 94  1  0  0  0
  5  6  1  0  0  0
  5 26  1  0  0  0
  5 95  1  0  0  0
  6 25  1  0  0  0
  6 96  1  0  0  0
  6 97  1  0  0  0
  7  8  2  0  0  0
  7 26  1  0  0  0
  7 29  1  0  0  0
  8  9  1  0  0  0
  8 22  1  0  0  0
  9 10  1  0  0  0
  9 27  2  0  0  0
 10 11  2  0  0  0
 10 15  1  0  0  0
 11 12  1  0  0  0
 11 98  1  0  0  0
 12 13  2  0  0  0
 12 99  1  0  0  0
 13 14  1  0  0  0
 13 31  1  0  0  0
 14 15  2  0  0  0
 14100  1  0  0  0
 15101  1  0  0  0
 16 17  2  0  0  0
 16 21  1  0  0  0
 16 31  1  0  0  0
 17 18  1  0  0  0
 17102  1  0  0  0
 18 19  2  0  0  0
 18103  1  0  0  0
 19 20  1  0  0  0
 19 24  1  0  0  0
 20 21  2  0  0  0
 20104  1  0  0  0
 21 23  1  0  0  0
 22 28  1  0  0  0
 22 32  2  0  0  0
 26 27  1  0  0  0
 28105  1  0  0  0
 28106  1  0  0  0
 29107  1  0  0  0
 29108  1  0  0  0
 33 34  1  0  0  0
 33 66  1  0  0  0
 33 70  2  0  0  0
 34 36  1  0  0  0
 34 59  1  0  0  0
 34109  1  0  0  0
 35 44  2  0  0  0
 35 45  1  0  0  0
 35 68  1  0  0  0
 36 56  1  0  0  0
 36110  1  0  0  0
 37 39  1  0  0  0
 37 47  1  0  0  0
 37 66  1  0  0  0
 37111  1  0  0  0
 38 43  2  0  0  0
 38 46  1  0  0  0
 38 47  1  0  0  0
 39 64  1  0  0  0
 39 67  2  0  0  0
 40 52  1  0  0  0
 40 53  2  0  0  0
 40 58  1  0  0  0
 41112  1  0  0  0
 41113  1  0  0  0
 41114  1  0  0  0
 41 48  1  0  0  0
 42 43  1  0  0  0
 42 66  1  0  0  0
 42115  1  0  0  0
 42116  1  0  0  0
 43 44  1  0  0  0
 44117  1  0  0  0
 45 46  2  0  0  0
 45118  1  0  0  0
 46119  1  0  0  0
 47120  1  0  0  0
 47121  1  0  0  0
 48 56  1  0  0  0
 48 65  1  0  0  0
 48122  1  0  0  0
 49 50  1  0  0  0
 49 53  1  0  0  0
 49 64  1  0  0  0
 49123  1  0  0  0
 50 51  1  0  0  0
 50124  1  0  0  0
 50125  1  0  0  0
 51 52  1  0  0  0
 51126  1  0  0  0
 51127  1  0  0  0
 52128  1  0  0  0
 52129  1  0  0  0
 53 54  1  0  0  0
 54 55  2  0  0  0
 54130  1  0  0  0
 55 57  1  0  0  0
 55131  1  0  0  0
 56 69  2  0  0  0
 57 58  2  0  0  0
 57132  1  0  0  0
 58133  1  0  0  0
 59 60  1  0  0  0
 59 61  1  0  0  0
 59 62  1  0  0  0
 60134  1  0  0  0
 60135  1  0  0  0
 60136  1  0  0  0
 61137  1  0  0  0
 61138  1  0  0  0
 61139  1  0  0  0
 62140  1  0  0  0
 62141  1  0  0  0
 62142  1  0  0  0
 63 65  1  0  0  0
 63143  1  0  0  0
 63144  1  0  0  0
 63145  1  0  0  0
 64146  1  0  0  0
 65147  1  0  0  0
 68 84  1  0  0  0
 71 74  2  0  0  0
 71 75  1  0  0  0
 71148  1  0  0  0
 72 74  1  0  0  0
 72 76  2  0  0  0
 72149  1  0  0  0
 73 75  2  0  0  0
 73 76  1  0  0  0
 73150  1  0  0  0
 74 78  1  0  0  0
 75 83  1  0  0  0
 76 86  1  0  0  0
 77 81  1  0  0  0
 77 85  1  0  0  0
 77 87  2  0  0  0
 78 82  1  0  0  0
 78 88  2  0  0  0
 79 80  1  0  0  0
 79 81  1  0  0  0
 79151  1  0  0  0
 79152  1  0  0  0
 80 85  1  0  0  0
 80153  1  0  0  0
 80154  1  0  0  0
 81 84  1  0  0  0
 81155  1  0  0  0
 82156  1  0  0  0
 82157  1  0  0  0
 82158  1  0  0  0
 83 85  1  0  0  0
 83159  1  0  0  0
 83160  1  0  0  0
 84161  1  0  0  0
 84162  1  0  0  0
 86163  1  0  0  0
M  ISO  4   1 100  68 101  84 101  86 100
M  END
> <chiral flag>
0

> <version>
0

> <s_m_source_file>
/data/baiqing/PycharmProjects/Reinvent-master-3.2/result/LINK_invent/BTK/process_docking_weight1_custom_product_contain_oxygen_bond_distance_aromatic_linkinvent_7_9_3/rearranged_h_0104.sdf

> <i_m_source_file_index>
81

> <r_mmod_Potential_Energy-OPLS-2005>
28.1442928314209

> <r_mmod_Stretch_Energy-OPLS-2005>
50.9198150634766

> <r_mmod_Bend_Energy-OPLS-2005>
136.217239379883

> <r_mmod_Torsional_Energy-OPLS-2005>
311.894989013672

> <r_mmod_Improper_Torsional_Energy-OPLS-2005>
7.77070140838623

> <r_mmod_Van_der_Waal_Energy-OPLS-2005>
136.757385253906

> <r_mmod_Electrostatic_Energy-OPLS-2005>
-392.021362304688

> <r_mmod_Solvation_Energy-OPLS-2005>
-246.837829589844

> <b_mmod_Minimization_Converged-OPLS-2005>
0

> <r_mmod_RMS_Derivative-OPLS-2005>
2.13140869140625

$$$$
82
                    3D
 Structure written by MMmdl.
154162  0  0  1  0            999 V2000
  -30.7315  -14.4510   20.6198 C   0  0  0  0  0  0
  -30.4188  -12.3194   19.4056 C   0  0  0  0  0  0
  -29.4846  -12.5148   18.1953 C   0  0  0  0  0  0
  -28.0093  -12.3689   18.6146 C   0  0  0  0  0  0
  -27.6598  -13.2080   19.8722 C   0  0  2  0  0  0
  -28.7031  -12.9879   20.9890 C   0  0  0  0  0  0
  -25.2582  -13.8168   20.5681 C   0  0  0  0  0  0
  -24.1834  -13.0441   20.9173 C   0  0  0  0  0  0
  -24.6390  -11.6908   20.8736 C   0  0  0  0  0  0
  -23.9059  -10.4292   21.0413 C   0  0  0  0  0  0
  -24.3617   -9.4213   21.9188 C   0  0  0  0  0  0
  -23.6297   -8.2245   22.0752 C   0  0  0  0  0  0
  -22.4278   -8.0284   21.3545 C   0  0  0  0  0  0
  -21.9918   -9.0256   20.4643 C   0  0  0  0  0  0
  -22.7241  -10.2134   20.3054 C   0  0  0  0  0  0
  -21.6856   -6.0738   22.5281 C   0  0  0  0  0  0
  -21.4008   -6.5636   23.8215 C   0  0  0  0  0  0
  -21.3655   -5.6788   24.9177 C   0  0  0  0  0  0
  -21.6041   -4.3056   24.7227 C   0  0  0  0  0  0
  -21.8816   -3.8150   23.4350 C   0  0  0  0  0  0
  -21.9193   -4.6965   22.3404 C   0  0  0  0  0  0
  -22.7857  -13.5243   21.1846 C   0  0  0  0  0  0
  -22.1661   -4.2150   21.0978 F   0  0  0  0  0  0
  -21.5636   -3.4544   25.7743 F   0  0  0  0  0  0
  -30.0325  -13.2980   20.4346 N   0  0  0  0  0  0
  -26.3014  -12.9336   20.3367 N   0  0  0  0  0  0
  -25.9314  -11.6494   20.5769 N   0  0  0  0  0  0
  -22.0491  -12.8226   22.0393 N   0  0  0  0  0  0
  -25.4325  -15.1878   20.4079 N   0  0  0  0  0  0
  -31.8314  -14.6576   20.1000 O   0  0  0  0  0  0
  -21.6642   -6.8882   21.4245 O   0  0  0  0  0  0
  -22.3551  -14.5563   20.6714 O   0  0  0  0  0  0
  -24.6177  -31.8685   23.2117 C   0  0  0  0  0  0
  -25.9062  -32.4823   23.8404 C   0  0  1  0  0  0
  -27.2215  -27.4132   20.0848 C   0  0  0  0  0  0
  -25.5917  -33.8621   24.2338 N   0  0  0  0  0  0
  -23.4041  -30.4960   21.5545 C   0  0  2  0  0  0
  -24.8449  -28.9677   20.1136 C   0  0  0  0  0  0
  -22.7412  -29.4667   22.4997 C   0  0  0  0  0  0
  -18.0270  -28.1374   22.8500 C   0  0  0  0  0  0
  -24.1482  -36.7294   23.2631 C   0  0  0  0  0  0
  -25.9381  -30.8265   21.3690 C   0  0  0  0  0  0
  -26.0117  -29.4626   20.7097 C   0  0  0  0  0  0
  -27.2030  -28.6943   20.6908 C   0  0  0  0  0  0
  -26.0278  -26.9461   19.4793 C   0  0  0  0  0  0
  -24.8497  -27.7093   19.4958 C   0  0  0  0  0  0
  -23.6096  -29.8368   20.1671 C   0  0  0  0  0  0
  -25.4098  -36.3104   24.0344 C   0  0  1  0  0  0
  -20.5865  -28.3657   23.1318 C   0  0  2  0  0  0
  -20.6761  -26.9389   22.5417 C   0  0  0  0  0  0
  -19.5737  -26.6374   21.5218 C   0  0  0  0  0  0
  -18.1912  -26.7924   22.1620 C   0  0  0  0  0  0
  -19.1522  -28.8834   23.2910 C   0  0  0  0  0  0
  -18.9450  -30.1442   23.8918 C   0  0  0  0  0  0
  -17.6453  -30.6583   24.0571 C   0  0  0  0  0  0
  -25.9042  -34.9476   23.5140 C   0  0  0  0  0  0
  -16.5342  -29.9085   23.6335 C   0  0  0  0  0  0
  -16.7259  -28.6500   23.0358 C   0  0  0  0  0  0
  -26.4478  -31.6601   25.0736 C   0  0  0  0  0  0
  -25.3745  -31.3718   26.1493 C   0  0  0  0  0  0
  -27.0282  -30.3030   24.6117 C   0  0  0  0  0  0
  -27.6075  -32.4305   25.7477 C   0  0  0  0  0  0
  -27.5607  -37.1765   24.8438 C   0  0  0  0  0  0
  -21.4138  -29.3041   22.3734 N   0  0  0  0  0  0
  -26.4266  -37.3811   23.9457 N   0  0  0  0  0  0
  -24.6722  -31.0767   22.1034 N   0  0  0  0  0  0
  -23.4181  -28.8189   23.3028 O   0  0  0  0  0  0
  -28.3754  -26.6421   20.1031 O   0  0  0  0  0  0
  -26.5602  -34.8933   22.4702 O   0  0  0  0  0  0
  -23.5368  -32.1446   23.7502 O   0  0  0  0  0  0
  -29.3677  -18.5504   21.3789 C   0  0  0  0  0  0
  -31.7522  -18.6217   20.9308 C   0  0  0  0  0  0
  -29.2528  -19.9020   20.9692 C   0  0  0  0  0  0
  -31.6383  -19.9691   20.5273 C   0  0  0  0  0  0
  -30.6262  -17.9059   21.3909 C   0  0  0  0  0  0
  -30.3958  -20.6371   20.5652 C   0  0  0  0  0  0
  -29.4006  -24.3497   20.1764 C   0  0  0  0  0  0
  -30.8192  -16.5193   22.0191 C   0  0  0  0  0  0
  -29.1474  -22.8264   20.2935 C   0  0  0  0  0  0
  -28.1690  -25.2271   19.8856 C   0  0  0  0  0  0
  -30.3629  -22.0032   20.2178 N   0  0  0  0  0  0
  -30.1407  -15.3793   21.3925 N   0  0  0  0  0  0
  -30.5376  -24.8242   20.2906 O   0  0  0  0  0  0
  -31.4603  -12.4229   19.0977 H   0  0  0  0  0  0
  -30.3275  -11.3069   19.8009 H   0  0  0  0  0  0
  -29.7224  -11.7902   17.4153 H   0  0  0  0  0  0
  -29.6472  -13.5010   17.7569 H   0  0  0  0  0  0
  -27.8247  -11.3123   18.8120 H   0  0  0  0  0  0
  -27.3538  -12.6416   17.7868 H   0  0  0  0  0  0
  -27.7047  -14.2569   19.5776 H   0  0  0  0  0  0
  -28.6828  -11.9497   21.3239 H   0  0  0  0  0  0
  -28.4552  -13.5787   21.8713 H   0  0  0  0  0  0
  -25.2761   -9.5689   22.4767 H   0  0  0  0  0  0
  -24.0009   -7.4634   22.7469 H   0  0  0  0  0  0
  -21.0849   -8.8771   19.8945 H   0  0  0  0  0  0
  -22.3708  -10.9674   19.6159 H   0  0  0  0  0  0
  -21.1988   -7.6139   23.9721 H   0  0  0  0  0  0
  -21.1478   -6.0518   25.9078 H   0  0  0  0  0  0
  -22.0596   -2.7609   23.2856 H   0  0  0  0  0  0
  -22.4093  -11.9867   22.4756 H   0  0  0  0  0  0
  -21.1111  -13.1260   22.2611 H   0  0  0  0  0  0
  -24.6709  -15.8492   20.5123 H   0  0  0  0  0  0
  -26.2909  -15.6211   20.0906 H   0  0  0  0  0  0
  -26.7133  -32.5512   23.1162 H   0  0  0  0  0  0
  -25.0103  -33.9782   25.0511 H   0  0  0  0  0  0
  -22.6942  -31.3150   21.4197 H   0  0  0  0  0  0
  -23.3793  -35.9569   23.3193 H   0  0  0  0  0  0
  -24.3618  -36.9011   22.2068 H   0  0  0  0  0  0
  -23.7155  -37.6432   23.6713 H   0  0  0  0  0  0
  -26.0568  -31.5943   20.6034 H   0  0  0  0  0  0
  -26.8252  -30.8735   21.9890 H   0  0  0  0  0  0
  -28.1030  -29.0728   21.1554 H   0  0  0  0  0  0
  -25.9690  -25.9896   18.9824 H   0  0  0  0  0  0
  -23.9526  -27.3249   19.0294 H   0  0  0  0  0  0
  -23.7162  -30.6162   19.4121 H   0  0  0  0  0  0
  -22.7311  -29.2610   19.8689 H   0  0  0  0  0  0
  -25.1256  -36.1953   25.0829 H   0  0  0  0  0  0
  -20.9965  -28.3216   24.1435 H   0  0  0  0  0  0
  -20.5655  -26.2257   23.3604 H   0  0  0  0  0  0
  -21.6632  -26.7422   22.1207 H   0  0  0  0  0  0
  -19.6896  -25.6289   21.1228 H   0  0  0  0  0  0
  -19.6686  -27.3202   20.6762 H   0  0  0  0  0  0
  -17.4185  -26.6699   21.4014 H   0  0  0  0  0  0
  -18.0295  -26.0042   22.8988 H   0  0  0  0  0  0
  -19.7923  -30.7261   24.2288 H   0  0  0  0  0  0
  -17.4999  -31.6266   24.5162 H   0  0  0  0  0  0
  -15.5345  -30.2995   23.7653 H   0  0  0  0  0  0
  -15.8651  -28.0826   22.7084 H   0  0  0  0  0  0
  -24.5909  -30.7070   25.7837 H   0  0  0  0  0  0
  -24.8954  -32.2880   26.4960 H   0  0  0  0  0  0
  -25.8100  -30.8869   27.0239 H   0  0  0  0  0  0
  -26.2808  -29.6798   24.1190 H   0  0  0  0  0  0
  -27.4056  -29.7263   25.4569 H   0  0  0  0  0  0
  -27.8649  -30.4325   23.9249 H   0  0  0  0  0  0
  -27.2751  -33.3651   26.2006 H   0  0  0  0  0  0
  -28.3911  -32.6782   25.0303 H   0  0  0  0  0  0
  -28.0698  -31.8438   26.5424 H   0  0  0  0  0  0
  -28.2502  -38.0183   24.7694 H   0  0  0  0  0  0
  -28.1235  -36.2742   24.5997 H   0  0  0  0  0  0
  -27.2370  -37.1083   25.8839 H   0  0  0  0  0  0
  -20.9290  -29.8797   21.6990 H   0  0  0  0  0  0
  -26.0144  -38.2851   24.1606 H   0  0  0  0  0  0
  -28.4897  -18.0271   21.7316 H   0  0  0  0  0  0
  -32.7269  -18.1539   20.9257 H   0  0  0  0  0  0
  -28.2781  -20.3673   21.0035 H   0  0  0  0  0  0
  -32.5303  -20.4933   20.2124 H   0  0  0  0  0  0
  -30.4564  -16.5783   23.0460 H   0  0  0  0  0  0
  -31.8867  -16.3115   22.1150 H   0  0  0  0  0  0
  -28.4659  -22.5317   19.4945 H   0  0  0  0  0  0
  -28.6311  -22.6435   21.2365 H   0  0  0  0  0  0
  -27.3553  -24.8723   20.5196 H   0  0  0  0  0  0
  -27.8827  -25.0499   18.8488 H   0  0  0  0  0  0
  -31.2308  -22.5129   20.0629 H   0  0  0  0  0  0
  -29.2188  -15.1554   21.7339 H   0  0  0  0  0  0
  1 25  1  0  0  0
  1 30  2  0  0  0
  1 82  1  0  0  0
  2  3  1  0  0  0
  2 25  1  0  0  0
  2 84  1  0  0  0
  2 85  1  0  0  0
  3  4  1  0  0  0
  3 86  1  0  0  0
  3 87  1  0  0  0
  4  5  1  0  0  0
  4 88  1  0  0  0
  4 89  1  0  0  0
  5  6  1  0  0  0
  5 26  1  0  0  0
  5 90  1  0  0  0
  6 25  1  0  0  0
  6 91  1  0  0  0
  6 92  1  0  0  0
  7  8  2  0  0  0
  7 26  1  0  0  0
  7 29  1  0  0  0
  8  9  1  0  0  0
  8 22  1  0  0  0
  9 10  1  0  0  0
  9 27  2  0  0  0
 10 11  2  0  0  0
 10 15  1  0  0  0
 11 12  1  0  0  0
 11 93  1  0  0  0
 12 13  2  0  0  0
 12 94  1  0  0  0
 13 14  1  0  0  0
 13 31  1  0  0  0
 14 15  2  0  0  0
 14 95  1  0  0  0
 15 96  1  0  0  0
 16 17  2  0  0  0
 16 21  1  0  0  0
 16 31  1  0  0  0
 17 18  1  0  0  0
 17 97  1  0  0  0
 18 19  2  0  0  0
 18 98  1  0  0  0
 19 20  1  0  0  0
 19 24  1  0  0  0
 20 21  2  0  0  0
 20 99  1  0  0  0
 21 23  1  0  0  0
 22 28  1  0  0  0
 22 32  2  0  0  0
 26 27  1  0  0  0
 28100  1  0  0  0
 28101  1  0  0  0
 29102  1  0  0  0
 29103  1  0  0  0
 33 34  1  0  0  0
 33 66  1  0  0  0
 33 70  2  0  0  0
 34 36  1  0  0  0
 34 59  1  0  0  0
 34104  1  0  0  0
 35 44  2  0  0  0
 35 45  1  0  0  0
 35 68  1  0  0  0
 36 56  1  0  0  0
 36105  1  0  0  0
 37 39  1  0  0  0
 37 47  1  0  0  0
 37 66  1  0  0  0
 37106  1  0  0  0
 38 43  2  0  0  0
 38 46  1  0  0  0
 38 47  1  0  0  0
 39 64  1  0  0  0
 39 67  2  0  0  0
 40 52  1  0  0  0
 40 53  2  0  0  0
 40 58  1  0  0  0
 41107  1  0  0  0
 41108  1  0  0  0
 41109  1  0  0  0
 41 48  1  0  0  0
 42 43  1  0  0  0
 42 66  1  0  0  0
 42110  1  0  0  0
 42111  1  0  0  0
 43 44  1  0  0  0
 44112  1  0  0  0
 45 46  2  0  0  0
 45113  1  0  0  0
 46114  1  0  0  0
 47115  1  0  0  0
 47116  1  0  0  0
 48 56  1  0  0  0
 48 65  1  0  0  0
 48117  1  0  0  0
 49 50  1  0  0  0
 49 53  1  0  0  0
 49 64  1  0  0  0
 49118  1  0  0  0
 50 51  1  0  0  0
 50119  1  0  0  0
 50120  1  0  0  0
 51 52  1  0  0  0
 51121  1  0  0  0
 51122  1  0  0  0
 52123  1  0  0  0
 52124  1  0  0  0
 53 54  1  0  0  0
 54 55  2  0  0  0
 54125  1  0  0  0
 55 57  1  0  0  0
 55126  1  0  0  0
 56 69  2  0  0  0
 57 58  2  0  0  0
 57127  1  0  0  0
 58128  1  0  0  0
 59 60  1  0  0  0
 59 61  1  0  0  0
 59 62  1  0  0  0
 60129  1  0  0  0
 60130  1  0  0  0
 60131  1  0  0  0
 61132  1  0  0  0
 61133  1  0  0  0
 61134  1  0  0  0
 62135  1  0  0  0
 62136  1  0  0  0
 62137  1  0  0  0
 63 65  1  0  0  0
 63138  1  0  0  0
 63139  1  0  0  0
 63140  1  0  0  0
 64141  1  0  0  0
 65142  1  0  0  0
 68 80  1  0  0  0
 71 73  2  0  0  0
 71 75  1  0  0  0
 71143  1  0  0  0
 72 74  1  0  0  0
 72 75  2  0  0  0
 72144  1  0  0  0
 73 76  1  0  0  0
 73145  1  0  0  0
 74 76  2  0  0  0
 74146  1  0  0  0
 75 78  1  0  0  0
 76 81  1  0  0  0
 77 79  1  0  0  0
 77 80  1  0  0  0
 77 83  2  0  0  0
 78 82  1  0  0  0
 78147  1  0  0  0
 78148  1  0  0  0
 79 81  1  0  0  0
 79149  1  0  0  0
 79150  1  0  0  0
 80151  1  0  0  0
 80152  1  0  0  0
 81153  1  0  0  0
 82154  1  0  0  0
M  ISO  4   1 100  68 101  80 101  82 100
M  END
> <chiral flag>
0

> <version>
0

> <s_m_source_file>
/data/baiqing/PycharmProjects/Reinvent-master-3.2/result/LINK_invent/BTK/process_docking_weight1_custom_product_contain_oxygen_bond_distance_aromatic_linkinvent_7_9_3/rearranged_h_0104.sdf

> <i_m_source_file_index>
82

> <r_mmod_Potential_Energy-OPLS-2005>
-106.571342468262

> <r_mmod_Stretch_Energy-OPLS-2005>
39.3569984436035

> <r_mmod_Bend_Energy-OPLS-2005>
107.519416809082

> <r_mmod_Torsional_Energy-OPLS-2005>
187.946075439453

> <r_mmod_Improper_Torsional_Energy-OPLS-2005>
3.03998470306396

> <r_mmod_Van_der_Waal_Energy-OPLS-2005>
157.337280273438

> <r_mmod_Electrostatic_Energy-OPLS-2005>
-367.928466796875

> <r_mmod_Solvation_Energy-OPLS-2005>
-247.600692749023

> <b_mmod_Minimization_Converged-OPLS-2005>
0

> <r_mmod_RMS_Derivative-OPLS-2005>
1.22839951515198

$$$$
83
                    3D
 Structure written by MMmdl.
159167  0  0  1  0            999 V2000
  -30.7317  -14.4693   20.5925 C   0  0  0  0  0  0
  -30.4151  -12.3163   19.4261 C   0  0  0  0  0  0
  -29.4912  -12.4808   18.2035 C   0  0  0  0  0  0
  -28.0157  -12.3346   18.6222 C   0  0  0  0  0  0
  -27.6501  -13.2066   19.8543 C   0  0  2  0  0  0
  -28.6909  -13.0308   20.9822 C   0  0  0  0  0  0
  -25.2536  -13.8175   20.5630 C   0  0  0  0  0  0
  -24.1806  -13.0444   20.9189 C   0  0  0  0  0  0
  -24.6369  -11.6911   20.8738 C   0  0  0  0  0  0
  -23.9040  -10.4291   21.0415 C   0  0  0  0  0  0
  -24.3610   -9.4201   21.9174 C   0  0  0  0  0  0
  -23.6285   -8.2237   22.0743 C   0  0  0  0  0  0
  -22.4259   -8.0281   21.3541 C   0  0  0  0  0  0
  -21.9893   -9.0258   20.4637 C   0  0  0  0  0  0
  -22.7227  -10.2134   20.3046 C   0  0  0  0  0  0
  -21.6847   -6.0732   22.5288 C   0  0  0  0  0  0
  -21.4012   -6.5629   23.8226 C   0  0  0  0  0  0
  -21.3657   -5.6785   24.9190 C   0  0  0  0  0  0
  -21.6042   -4.3051   24.7234 C   0  0  0  0  0  0
  -21.8817   -3.8140   23.4360 C   0  0  0  0  0  0
  -21.9189   -4.6956   22.3417 C   0  0  0  0  0  0
  -22.7831  -13.5235   21.1878 C   0  0  0  0  0  0
  -22.1648   -4.2142   21.0988 F   0  0  0  0  0  0
  -21.5638   -3.4528   25.7749 F   0  0  0  0  0  0
  -30.0136  -13.3287   20.4146 N   0  0  0  0  0  0
  -26.2952  -12.9332   20.3250 N   0  0  0  0  0  0
  -25.9287  -11.6497   20.5726 N   0  0  0  0  0  0
  -22.0479  -12.8216   22.0433 N   0  0  0  0  0  0
  -25.4267  -15.1894   20.3986 N   0  0  0  0  0  0
  -31.8962  -14.5676   20.1912 O   0  0  0  0  0  0
  -21.6625   -6.8882   21.4249 O   0  0  0  0  0  0
  -22.3500  -14.5535   20.6734 O   0  0  0  0  0  0
  -24.6115  -31.8696   23.2113 C   0  0  0  0  0  0
  -25.9012  -32.4834   23.8413 C   0  0  1  0  0  0
  -27.2321  -27.4423   20.1130 C   0  0  0  0  0  0
  -25.5876  -33.8633   24.2337 N   0  0  0  0  0  0
  -23.4008  -30.4916   21.5506 C   0  0  2  0  0  0
  -24.8494  -28.9579   20.1190 C   0  0  0  0  0  0
  -22.7391  -29.4658   22.4988 C   0  0  0  0  0  0
  -18.0265  -28.1383   22.8492 C   0  0  0  0  0  0
  -24.1480  -36.7324   23.2637 C   0  0  0  0  0  0
  -25.9266  -30.8414   21.3616 C   0  0  0  0  0  0
  -26.0072  -29.4745   20.7137 C   0  0  0  0  0  0
  -27.2057  -28.7254   20.7051 C   0  0  0  0  0  0
  -26.0619  -26.9368   19.5134 C   0  0  0  0  0  0
  -24.8704  -27.6882   19.5135 C   0  0  0  0  0  0
  -23.6095  -29.8218   20.1658 C   0  0  0  0  0  0
  -25.4100  -36.3124   24.0337 C   0  0  1  0  0  0
  -20.5852  -28.3666   23.1324 C   0  0  2  0  0  0
  -20.6752  -26.9405   22.5418 C   0  0  0  0  0  0
  -19.5733  -26.6393   21.5210 C   0  0  0  0  0  0
  -18.1914  -26.7930   22.1624 C   0  0  0  0  0  0
  -19.1513  -28.8840   23.2909 C   0  0  0  0  0  0
  -18.9444  -30.1445   23.8923 C   0  0  0  0  0  0
  -17.6448  -30.6592   24.0570 C   0  0  0  0  0  0
  -25.9024  -34.9487   23.5142 C   0  0  0  0  0  0
  -16.5339  -29.9091   23.6330 C   0  0  0  0  0  0
  -16.7257  -28.6509   23.0349 C   0  0  0  0  0  0
  -26.4457  -31.6605   25.0728 C   0  0  0  0  0  0
  -25.3727  -31.3700   26.1477 C   0  0  0  0  0  0
  -27.0273  -30.3046   24.6078 C   0  0  0  0  0  0
  -27.6052  -32.4308   25.7476 C   0  0  0  0  0  0
  -27.5577  -37.1809   24.8465 C   0  0  0  0  0  0
  -21.4122  -29.3035   22.3726 N   0  0  0  0  0  0
  -26.4293  -37.3799   23.9407 N   0  0  0  0  0  0
  -24.6646  -31.0807   22.1008 N   0  0  0  0  0  0
  -23.4163  -28.8180   23.3011 O   0  0  0  0  0  0
  -28.3984  -26.7157   20.0750 O   0  0  0  0  0  0
  -26.5600  -34.8933   22.4706 O   0  0  0  0  0  0
  -23.5309  -32.1425   23.7526 O   0  0  0  0  0  0
  -28.5920  -18.1552   21.0604 C   0  0  0  0  0  0
  -30.1826  -20.4353   20.7053 C   0  0  0  0  0  0
  -29.9963  -18.0180   21.1730 C   0  0  0  0  0  0
  -27.9932  -19.4053   20.7666 C   0  0  0  0  0  0
  -30.7938  -19.1886   20.9759 C   0  0  0  0  0  0
  -28.7808  -20.5686   20.6072 C   0  0  0  0  0  0
  -30.6192  -16.6716   21.5187 C   0  0  0  0  0  0
  -26.4872  -19.4975   20.6209 C   0  0  0  0  0  0
  -32.3189  -19.1667   21.0148 C   0  0  0  0  0  0
  -28.0604  -24.2324   20.2160 C   0  0  0  0  0  0
  -28.4530  -25.5561   20.9197 C   0  0  0  0  0  0
  -28.6526  -22.9756   20.9024 C   0  0  0  0  0  0
  -30.0479  -15.5514   21.0264 N   0  0  0  0  0  0
  -31.6453  -16.6373   22.2105 O   0  0  0  0  0  0
  -28.1593  -21.7689   20.2987 O   0  0  0  0  0  0
  -31.4604  -12.4071   19.1284 H   0  0  0  0  0  0
  -30.3192  -11.3165   19.8540 H   0  0  0  0  0  0
  -29.7411  -11.7370   17.4451 H   0  0  0  0  0  0
  -29.6507  -13.4564   17.7418 H   0  0  0  0  0  0
  -27.8498  -11.2819   18.8557 H   0  0  0  0  0  0
  -27.3588  -12.5666   17.7830 H   0  0  0  0  0  0
  -27.6795  -14.2426   19.5179 H   0  0  0  0  0  0
  -28.6698  -12.0053   21.3561 H   0  0  0  0  0  0
  -28.4577  -13.6648   21.8388 H   0  0  0  0  0  0
  -25.2781   -9.5656   22.4722 H   0  0  0  0  0  0
  -24.0001   -7.4612   22.7445 H   0  0  0  0  0  0
  -21.0833   -8.8784   19.8930 H   0  0  0  0  0  0
  -22.3719  -10.9668   19.6130 H   0  0  0  0  0  0
  -21.1999   -7.6138   23.9734 H   0  0  0  0  0  0
  -21.1471   -6.0509   25.9094 H   0  0  0  0  0  0
  -22.0595   -2.7601   23.2869 H   0  0  0  0  0  0
  -22.4102  -11.9889   22.4850 H   0  0  0  0  0  0
  -21.1083  -13.1223   22.2625 H   0  0  0  0  0  0
  -24.6560  -15.8424   20.4918 H   0  0  0  0  0  0
  -26.2576  -15.6145   20.0092 H   0  0  0  0  0  0
  -26.7082  -32.5568   23.1186 H   0  0  0  0  0  0
  -25.0025  -33.9800   25.0476 H   0  0  0  0  0  0
  -22.6890  -31.3071   21.4080 H   0  0  0  0  0  0
  -23.3745  -35.9658   23.3327 H   0  0  0  0  0  0
  -24.3575  -36.8910   22.2049 H   0  0  0  0  0  0
  -23.7231  -37.6531   23.6637 H   0  0  0  0  0  0
  -26.0312  -31.6096   20.5937 H   0  0  0  0  0  0
  -26.8172  -30.9010   21.9758 H   0  0  0  0  0  0
  -28.1044  -29.1240   21.1550 H   0  0  0  0  0  0
  -26.0729  -25.9681   19.0369 H   0  0  0  0  0  0
  -23.9817  -27.2868   19.0453 H   0  0  0  0  0  0
  -23.7152  -30.5953   19.4043 H   0  0  0  0  0  0
  -22.7348  -29.2372   19.8725 H   0  0  0  0  0  0
  -25.1267  -36.2012   25.0830 H   0  0  0  0  0  0
  -20.9948  -28.3256   24.1440 H   0  0  0  0  0  0
  -20.5657  -26.2275   23.3603 H   0  0  0  0  0  0
  -21.6622  -26.7450   22.1205 H   0  0  0  0  0  0
  -19.6906  -25.6309   21.1222 H   0  0  0  0  0  0
  -19.6683  -27.3222   20.6756 H   0  0  0  0  0  0
  -17.4173  -26.6682   21.4035 H   0  0  0  0  0  0
  -18.0335  -26.0065   22.9017 H   0  0  0  0  0  0
  -19.7922  -30.7249   24.2304 H   0  0  0  0  0  0
  -17.5008  -31.6274   24.5162 H   0  0  0  0  0  0
  -15.5339  -30.3004   23.7639 H   0  0  0  0  0  0
  -15.8657  -28.0837   22.7051 H   0  0  0  0  0  0
  -24.5913  -30.7029   25.7819 H   0  0  0  0  0  0
  -24.8896  -32.2843   26.4930 H   0  0  0  0  0  0
  -25.8085  -30.8871   27.0232 H   0  0  0  0  0  0
  -26.2808  -29.6829   24.1114 H   0  0  0  0  0  0
  -27.4027  -29.7257   25.4527 H   0  0  0  0  0  0
  -27.8652  -30.4361   23.9228 H   0  0  0  0  0  0
  -27.2692  -33.3597   26.2095 H   0  0  0  0  0  0
  -28.3836  -32.6881   25.0282 H   0  0  0  0  0  0
  -28.0749  -31.8403   26.5347 H   0  0  0  0  0  0
  -28.2601  -38.0098   24.7499 H   0  0  0  0  0  0
  -28.1059  -36.2626   24.6306 H   0  0  0  0  0  0
  -27.2292  -37.1482   25.8866 H   0  0  0  0  0  0
  -20.9282  -29.8753   21.6947 H   0  0  0  0  0  0
  -26.0199  -38.2877   24.1426 H   0  0  0  0  0  0
  -27.9575  -17.2918   21.2008 H   0  0  0  0  0  0
  -30.8181  -21.2907   20.5341 H   0  0  0  0  0  0
  -26.2375  -19.9096   19.6424 H   0  0  0  0  0  0
  -26.0673  -20.1481   21.3882 H   0  0  0  0  0  0
  -26.0110  -18.5214   20.7080 H   0  0  0  0  0  0
  -32.7502  -20.0984   20.6466 H   0  0  0  0  0  0
  -32.7154  -18.3668   20.3883 H   0  0  0  0  0  0
  -32.6779  -19.0248   22.0351 H   0  0  0  0  0  0
  -28.4014  -24.2605   19.1806 H   0  0  0  0  0  0
  -26.9745  -24.1524   20.1794 H   0  0  0  0  0  0
  -29.4888  -25.4813   21.2524 H   0  0  0  0  0  0
  -27.8610  -25.6996   21.8269 H   0  0  0  0  0  0
  -28.3806  -22.9666   21.9581 H   0  0  0  0  0  0
  -29.7374  -23.0512   20.8640 H   0  0  0  0  0  0
  -29.0550  -15.5589   20.8732 H   0  0  0  0  0  0
  1 25  1  0  0  0
  1 30  2  0  0  0
  1 83  1  0  0  0
  2  3  1  0  0  0
  2 25  1  0  0  0
  2 86  1  0  0  0
  2 87  1  0  0  0
  3  4  1  0  0  0
  3 88  1  0  0  0
  3 89  1  0  0  0
  4  5  1  0  0  0
  4 90  1  0  0  0
  4 91  1  0  0  0
  5  6  1  0  0  0
  5 26  1  0  0  0
  5 92  1  0  0  0
  6 25  1  0  0  0
  6 93  1  0  0  0
  6 94  1  0  0  0
  7  8  2  0  0  0
  7 26  1  0  0  0
  7 29  1  0  0  0
  8  9  1  0  0  0
  8 22  1  0  0  0
  9 10  1  0  0  0
  9 27  2  0  0  0
 10 11  2  0  0  0
 10 15  1  0  0  0
 11 12  1  0  0  0
 11 95  1  0  0  0
 12 13  2  0  0  0
 12 96  1  0  0  0
 13 14  1  0  0  0
 13 31  1  0  0  0
 14 15  2  0  0  0
 14 97  1  0  0  0
 15 98  1  0  0  0
 16 17  2  0  0  0
 16 21  1  0  0  0
 16 31  1  0  0  0
 17 18  1  0  0  0
 17 99  1  0  0  0
 18 19  2  0  0  0
 18100  1  0  0  0
 19 20  1  0  0  0
 19 24  1  0  0  0
 20 21  2  0  0  0
 20101  1  0  0  0
 21 23  1  0  0  0
 22 28  1  0  0  0
 22 32  2  0  0  0
 26 27  1  0  0  0
 28102  1  0  0  0
 28103  1  0  0  0
 29104  1  0  0  0
 29105  1  0  0  0
 33 34  1  0  0  0
 33 66  1  0  0  0
 33 70  2  0  0  0
 34 36  1  0  0  0
 34 59  1  0  0  0
 34106  1  0  0  0
 35 44  2  0  0  0
 35 45  1  0  0  0
 35 68  1  0  0  0
 36 56  1  0  0  0
 36107  1  0  0  0
 37 39  1  0  0  0
 37 47  1  0  0  0
 37 66  1  0  0  0
 37108  1  0  0  0
 38 43  2  0  0  0
 38 46  1  0  0  0
 38 47  1  0  0  0
 39 64  1  0  0  0
 39 67  2  0  0  0
 40 52  1  0  0  0
 40 53  2  0  0  0
 40 58  1  0  0  0
 41109  1  0  0  0
 41110  1  0  0  0
 41111  1  0  0  0
 41 48  1  0  0  0
 42 43  1  0  0  0
 42 66  1  0  0  0
 42112  1  0  0  0
 42113  1  0  0  0
 43 44  1  0  0  0
 44114  1  0  0  0
 45 46  2  0  0  0
 45115  1  0  0  0
 46116  1  0  0  0
 47117  1  0  0  0
 47118  1  0  0  0
 48 56  1  0  0  0
 48 65  1  0  0  0
 48119  1  0  0  0
 49 50  1  0  0  0
 49 53  1  0  0  0
 49 64  1  0  0  0
 49120  1  0  0  0
 50 51  1  0  0  0
 50121  1  0  0  0
 50122  1  0  0  0
 51 52  1  0  0  0
 51123  1  0  0  0
 51124  1  0  0  0
 52125  1  0  0  0
 52126  1  0  0  0
 53 54  1  0  0  0
 54 55  2  0  0  0
 54127  1  0  0  0
 55 57  1  0  0  0
 55128  1  0  0  0
 56 69  2  0  0  0
 57 58  2  0  0  0
 57129  1  0  0  0
 58130  1  0  0  0
 59 60  1  0  0  0
 59 61  1  0  0  0
 59 62  1  0  0  0
 60131  1  0  0  0
 60132  1  0  0  0
 60133  1  0  0  0
 61134  1  0  0  0
 61135  1  0  0  0
 61136  1  0  0  0
 62137  1  0  0  0
 62138  1  0  0  0
 62139  1  0  0  0
 63 65  1  0  0  0
 63140  1  0  0  0
 63141  1  0  0  0
 63142  1  0  0  0
 64143  1  0  0  0
 65144  1  0  0  0
 68 81  1  0  0  0
 71 73  2  0  0  0
 71 74  1  0  0  0
 71145  1  0  0  0
 72 75  2  0  0  0
 72 76  1  0  0  0
 72146  1  0  0  0
 73 75  1  0  0  0
 73 77  1  0  0  0
 74 76  2  0  0  0
 74 78  1  0  0  0
 75 79  1  0  0  0
 76 85  1  0  0  0
 77 83  1  0  0  0
 77 84  2  0  0  0
 78147  1  0  0  0
 78148  1  0  0  0
 78149  1  0  0  0
 79150  1  0  0  0
 79151  1  0  0  0
 79152  1  0  0  0
 80 81  1  0  0  0
 80 82  1  0  0  0
 80153  1  0  0  0
 80154  1  0  0  0
 81155  1  0  0  0
 81156  1  0  0  0
 82 85  1  0  0  0
 82157  1  0  0  0
 82158  1  0  0  0
 83159  1  0  0  0
M  ISO  4   1 100  68 101  81 101  83 100
M  END
> <chiral flag>
0

> <version>
0

> <s_m_source_file>
/data/baiqing/PycharmProjects/Reinvent-master-3.2/result/LINK_invent/BTK/process_docking_weight1_custom_product_contain_oxygen_bond_distance_aromatic_linkinvent_7_9_3/rearranged_h_0104.sdf

> <i_m_source_file_index>
83

> <r_mmod_Potential_Energy-OPLS-2005>
-42.10009765625

> <r_mmod_Stretch_Energy-OPLS-2005>
39.8368530273438

> <r_mmod_Bend_Energy-OPLS-2005>
99.0358734130859

> <r_mmod_Torsional_Energy-OPLS-2005>
281.633850097656

> <r_mmod_Improper_Torsional_Energy-OPLS-2005>
5.05549383163452

> <r_mmod_Van_der_Waal_Energy-OPLS-2005>
161.367263793945

> <r_mmod_Electrostatic_Energy-OPLS-2005>
-430.894927978516

> <r_mmod_Solvation_Energy-OPLS-2005>
-214.805450439453

> <b_mmod_Minimization_Converged-OPLS-2005>
0

> <r_mmod_RMS_Derivative-OPLS-2005>
2.19459271430969

$$$$
84
                    3D
 Structure written by MMmdl.
157166  0  0  1  0            999 V2000
  -30.6820  -14.5599   20.5021 C   0  0  0  0  0  0
  -30.4270  -12.3485   19.4362 C   0  0  0  0  0  0
  -29.5086  -12.5093   18.2087 C   0  0  0  0  0  0
  -28.0289  -12.3524   18.6185 C   0  0  0  0  0  0
  -27.6554  -13.2114   19.8548 C   0  0  2  0  0  0
  -28.7007  -13.0721   20.9835 C   0  0  0  0  0  0
  -25.2625  -13.8135   20.5629 C   0  0  0  0  0  0
  -24.1880  -13.0444   20.9185 C   0  0  0  0  0  0
  -24.6425  -11.6880   20.8730 C   0  0  0  0  0  0
  -23.9058  -10.4276   21.0453 C   0  0  0  0  0  0
  -24.3608   -9.4200   21.9225 C   0  0  0  0  0  0
  -23.6299   -8.2211   22.0765 C   0  0  0  0  0  0
  -22.4274   -8.0248   21.3545 C   0  0  0  0  0  0
  -21.9932   -9.0223   20.4635 C   0  0  0  0  0  0
  -22.7253  -10.2116   20.3081 C   0  0  0  0  0  0
  -21.6855   -6.0711   22.5271 C   0  0  0  0  0  0
  -21.4001   -6.5637   23.8194 C   0  0  0  0  0  0
  -21.3670   -5.6787   24.9157 C   0  0  0  0  0  0
  -21.6067   -4.3047   24.7222 C   0  0  0  0  0  0
  -21.8836   -3.8133   23.4342 C   0  0  0  0  0  0
  -21.9211   -4.6943   22.3398 C   0  0  0  0  0  0
  -22.7913  -13.5255   21.1908 C   0  0  0  0  0  0
  -22.1671   -4.2109   21.0975 F   0  0  0  0  0  0
  -21.5652   -3.4553   25.7753 F   0  0  0  0  0  0
  -30.0179  -13.3737   20.4109 N   0  0  0  0  0  0
  -26.3022  -12.9284   20.3244 N   0  0  0  0  0  0
  -25.9334  -11.6436   20.5659 N   0  0  0  0  0  0
  -22.0575  -12.8183   22.0433 N   0  0  0  0  0  0
  -25.4480  -15.1816   20.3985 N   0  0  0  0  0  0
  -31.8519  -14.6786   20.1309 O   0  0  0  0  0  0
  -21.6636   -6.8846   21.4226 O   0  0  0  0  0  0
  -22.3607  -14.5621   20.6869 O   0  0  0  0  0  0
  -24.6216  -31.8596   23.2055 C   0  0  0  0  0  0
  -25.9076  -32.4793   23.8379 C   0  0  1  0  0  0
  -27.2379  -27.3640   20.0674 C   0  0  0  0  0  0
  -25.5909  -33.8596   24.2319 N   0  0  0  0  0  0
  -23.4162  -30.4826   21.5477 C   0  0  2  0  0  0
  -24.8591  -28.9360   20.1180 C   0  0  0  0  0  0
  -22.7451  -29.4608   22.4947 C   0  0  0  0  0  0
  -18.0263  -28.1355   22.8492 C   0  0  0  0  0  0
  -24.1492  -36.7316   23.2641 C   0  0  0  0  0  0
  -25.9537  -30.7952   21.3725 C   0  0  0  0  0  0
  -26.0263  -29.4254   20.7143 C   0  0  0  0  0  0
  -27.2128  -28.6455   20.6868 C   0  0  0  0  0  0
  -26.0370  -26.8992   19.4827 C   0  0  0  0  0  0
  -24.8604  -27.6718   19.5087 C   0  0  0  0  0  0
  -23.6320  -29.8191   20.1627 C   0  0  0  0  0  0
  -25.4110  -36.3093   24.0336 C   0  0  1  0  0  0
  -20.5865  -28.3653   23.1297 C   0  0  2  0  0  0
  -20.6749  -26.9384   22.5405 C   0  0  0  0  0  0
  -19.5731  -26.6369   21.5198 C   0  0  0  0  0  0
  -18.1910  -26.7902   22.1618 C   0  0  0  0  0  0
  -19.1519  -28.8813   23.2895 C   0  0  0  0  0  0
  -18.9447  -30.1410   23.8925 C   0  0  0  0  0  0
  -17.6459  -30.6570   24.0558 C   0  0  0  0  0  0
  -25.9033  -34.9457   23.5129 C   0  0  0  0  0  0
  -16.5344  -29.9079   23.6317 C   0  0  0  0  0  0
  -16.7253  -28.6477   23.0359 C   0  0  0  0  0  0
  -26.4498  -31.6573   25.0712 C   0  0  0  0  0  0
  -25.3778  -31.3667   26.1479 C   0  0  0  0  0  0
  -27.0329  -30.3012   24.6082 C   0  0  0  0  0  0
  -27.6048  -32.4307   25.7476 C   0  0  0  0  0  0
  -27.5587  -37.1804   24.8468 C   0  0  0  0  0  0
  -21.4153  -29.3045   22.3719 N   0  0  0  0  0  0
  -26.4302  -37.3777   23.9406 N   0  0  0  0  0  0
  -24.6842  -31.0600   22.1013 N   0  0  0  0  0  0
  -23.4181  -28.8127   23.3001 O   0  0  0  0  0  0
  -28.4230  -26.6274   20.0578 O   0  0  0  0  0  0
  -26.5589  -34.8912   22.4686 O   0  0  0  0  0  0
  -23.5385  -32.1420   23.7370 O   0  0  0  0  0  0
  -28.3612  -18.2276   19.6822 C   0  0  0  0  0  0
  -27.9170  -19.5900   19.6685 C   0  0  0  0  0  0
  -29.4850  -18.1631   20.4707 C   0  0  0  0  0  0
  -28.7990  -20.2875   20.4523 C   0  0  0  0  0  0
  -28.1845  -21.7518   22.1557 C   0  0  0  0  0  0
  -28.8999  -22.6682   20.0568 C   0  0  0  0  0  0
  -27.8761  -23.1437   22.7189 C   0  0  0  0  0  0
  -27.6285  -24.1921   21.6334 C   0  0  0  0  0  0
  -28.7359  -24.1451   20.5811 C   0  0  2  0  0  0
  -30.4595  -17.0524   20.8598 C   0  0  0  0  0  0
  -28.5178  -25.2699   19.5066 C   0  0  0  0  0  0
  -28.6360  -21.5902   20.8797 N   0  0  0  0  0  0
  -29.9496  -15.6560   20.8352 N   0  0  0  0  0  0
  -27.9971  -20.8005   22.9287 O   0  0  0  0  0  0
  -29.3041  -22.5121   18.8976 O   0  0  0  0  0  0
  -29.7540  -19.4283   20.9585 O   0  0  0  0  0  0
  -31.4780  -12.4327   19.1485 H   0  0  0  0  0  0
  -30.3146  -11.3486   19.8582 H   0  0  0  0  0  0
  -29.7634  -11.7767   17.4428 H   0  0  0  0  0  0
  -29.6688  -13.4879   17.7537 H   0  0  0  0  0  0
  -27.8530  -11.2964   18.8355 H   0  0  0  0  0  0
  -27.3807  -12.6042   17.7784 H   0  0  0  0  0  0
  -27.6715  -14.2446   19.5098 H   0  0  0  0  0  0
  -28.7079  -12.0594   21.3890 H   0  0  0  0  0  0
  -28.4521  -13.7361   21.8155 H   0  0  0  0  0  0
  -25.2760   -9.5686   22.4788 H   0  0  0  0  0  0
  -24.0011   -7.4600   22.7498 H   0  0  0  0  0  0
  -21.0861   -8.8748   19.8917 H   0  0  0  0  0  0
  -22.3727  -10.9648   19.6160 H   0  0  0  0  0  0
  -21.1942   -7.6129   23.9686 H   0  0  0  0  0  0
  -21.1503   -6.0509   25.9069 H   0  0  0  0  0  0
  -22.0622   -2.7594   23.2855 H   0  0  0  0  0  0
  -22.4110  -11.9678   22.4555 H   0  0  0  0  0  0
  -21.1293  -13.1299   22.2908 H   0  0  0  0  0  0
  -24.7134  -15.8721   20.5010 H   0  0  0  0  0  0
  -26.3145  -15.5778   20.0611 H   0  0  0  0  0  0
  -26.7124  -32.5469   23.1099 H   0  0  0  0  0  0
  -25.0081  -33.9755   25.0482 H   0  0  0  0  0  0
  -22.7106  -31.3036   21.4038 H   0  0  0  0  0  0
  -23.3745  -35.9662   23.3298 H   0  0  0  0  0  0
  -24.3602  -36.8932   22.2065 H   0  0  0  0  0  0
  -23.7254  -37.6519   23.6663 H   0  0  0  0  0  0
  -26.0779  -31.5546   20.6003 H   0  0  0  0  0  0
  -26.8389  -30.8484   21.9942 H   0  0  0  0  0  0
  -28.1145  -29.0203   21.1516 H   0  0  0  0  0  0
  -25.9615  -25.9413   18.9939 H   0  0  0  0  0  0
  -23.9617  -27.2800   19.0524 H   0  0  0  0  0  0
  -23.7681  -30.6004   19.4131 H   0  0  0  0  0  0
  -22.7515  -29.2559   19.8505 H   0  0  0  0  0  0
  -25.1284  -36.1969   25.0830 H   0  0  0  0  0  0
  -20.9947  -28.3193   24.1418 H   0  0  0  0  0  0
  -20.5616  -26.2259   23.3587 H   0  0  0  0  0  0
  -21.6621  -26.7398   22.1222 H   0  0  0  0  0  0
  -19.6897  -25.6284   21.1205 H   0  0  0  0  0  0
  -19.6669  -27.3191   20.6733 H   0  0  0  0  0  0
  -17.4183  -26.6637   21.4020 H   0  0  0  0  0  0
  -18.0321  -26.0036   22.9006 H   0  0  0  0  0  0
  -19.7925  -30.7195   24.2330 H   0  0  0  0  0  0
  -17.5020  -31.6260   24.5141 H   0  0  0  0  0  0
  -15.5350  -30.3001   23.7608 H   0  0  0  0  0  0
  -15.8641  -28.0794   22.7096 H   0  0  0  0  0  0
  -24.5935  -30.7027   25.7835 H   0  0  0  0  0  0
  -24.9014  -32.2826   26.4987 H   0  0  0  0  0  0
  -25.8181  -30.8807   27.0198 H   0  0  0  0  0  0
  -26.2857  -29.6734   24.1218 H   0  0  0  0  0  0
  -27.4208  -29.7275   25.4507 H   0  0  0  0  0  0
  -27.8654  -30.4336   23.9165 H   0  0  0  0  0  0
  -27.2637  -33.3583   26.2083 H   0  0  0  0  0  0
  -28.3845  -32.6903   25.0300 H   0  0  0  0  0  0
  -28.0738  -31.8423   26.5368 H   0  0  0  0  0  0
  -28.2596  -38.0103   24.7496 H   0  0  0  0  0  0
  -28.1080  -36.2628   24.6313 H   0  0  0  0  0  0
  -27.2302  -37.1482   25.8868 H   0  0  0  0  0  0
  -20.9288  -29.8870   21.7040 H   0  0  0  0  0  0
  -26.0188  -38.2854   24.1393 H   0  0  0  0  0  0
  -27.9066  -17.3876   19.1714 H   0  0  0  0  0  0
  -27.0407  -19.9957   19.1784 H   0  0  0  0  0  0
  -28.7172  -23.4364   23.3474 H   0  0  0  0  0  0
  -27.0062  -23.0809   23.3739 H   0  0  0  0  0  0
  -26.6599  -24.0273   21.1580 H   0  0  0  0  0  0
  -27.5867  -25.1774   22.0965 H   0  0  0  0  0  0
  -29.6826  -24.3798   21.0697 H   0  0  0  0  0  0
  -31.3148  -17.1358   20.1837 H   0  0  0  0  0  0
  -30.8728  -17.2449   21.8523 H   0  0  0  0  0  0
  -27.7166  -24.9907   18.8284 H   0  0  0  0  0  0
  -29.3985  -25.2839   18.8640 H   0  0  0  0  0  0
  -28.9852  -15.5164   21.0992 H   0  0  0  0  0  0
  1 25  1  0  0  0
  1 30  2  0  0  0
  1 83  1  0  0  0
  2  3  1  0  0  0
  2 25  1  0  0  0
  2 87  1  0  0  0
  2 88  1  0  0  0
  3  4  1  0  0  0
  3 89  1  0  0  0
  3 90  1  0  0  0
  4  5  1  0  0  0
  4 91  1  0  0  0
  4 92  1  0  0  0
  5  6  1  0  0  0
  5 26  1  0  0  0
  5 93  1  0  0  0
  6 25  1  0  0  0
  6 94  1  0  0  0
  6 95  1  0  0  0
  7  8  2  0  0  0
  7 26  1  0  0  0
  7 29  1  0  0  0
  8  9  1  0  0  0
  8 22  1  0  0  0
  9 10  1  0  0  0
  9 27  2  0  0  0
 10 11  2  0  0  0
 10 15  1  0  0  0
 11 12  1  0  0  0
 11 96  1  0  0  0
 12 13  2  0  0  0
 12 97  1  0  0  0
 13 14  1  0  0  0
 13 31  1  0  0  0
 14 15  2  0  0  0
 14 98  1  0  0  0
 15 99  1  0  0  0
 16 17  2  0  0  0
 16 21  1  0  0  0
 16 31  1  0  0  0
 17 18  1  0  0  0
 17100  1  0  0  0
 18 19  2  0  0  0
 18101  1  0  0  0
 19 20  1  0  0  0
 19 24  1  0  0  0
 20 21  2  0  0  0
 20102  1  0  0  0
 21 23  1  0  0  0
 22 28  1  0  0  0
 22 32  2  0  0  0
 26 27  1  0  0  0
 28103  1  0  0  0
 28104  1  0  0  0
 29105  1  0  0  0
 29106  1  0  0  0
 33 34  1  0  0  0
 33 66  1  0  0  0
 33 70  2  0  0  0
 34 36  1  0  0  0
 34 59  1  0  0  0
 34107  1  0  0  0
 35 44  2  0  0  0
 35 45  1  0  0  0
 35 68  1  0  0  0
 36 56  1  0  0  0
 36108  1  0  0  0
 37 39  1  0  0  0
 37 47  1  0  0  0
 37 66  1  0  0  0
 37109  1  0  0  0
 38 43  2  0  0  0
 38 46  1  0  0  0
 38 47  1  0  0  0
 39 64  1  0  0  0
 39 67  2  0  0  0
 40 52  1  0  0  0
 40 53  2  0  0  0
 40 58  1  0  0  0
 41110  1  0  0  0
 41111  1  0  0  0
 41112  1  0  0  0
 41 48  1  0  0  0
 42 43  1  0  0  0
 42 66  1  0  0  0
 42113  1  0  0  0
 42114  1  0  0  0
 43 44  1  0  0  0
 44115  1  0  0  0
 45 46  2  0  0  0
 45116  1  0  0  0
 46117  1  0  0  0
 47118  1  0  0  0
 47119  1  0  0  0
 48 56  1  0  0  0
 48 65  1  0  0  0
 48120  1  0  0  0
 49 50  1  0  0  0
 49 53  1  0  0  0
 49 64  1  0  0  0
 49121  1  0  0  0
 50 51  1  0  0  0
 50122  1  0  0  0
 50123  1  0  0  0
 51 52  1  0  0  0
 51124  1  0  0  0
 51125  1  0  0  0
 52126  1  0  0  0
 52127  1  0  0  0
 53 54  1  0  0  0
 54 55  2  0  0  0
 54128  1  0  0  0
 55 57  1  0  0  0
 55129  1  0  0  0
 56 69  2  0  0  0
 57 58  2  0  0  0
 57130  1  0  0  0
 58131  1  0  0  0
 59 60  1  0  0  0
 59 61  1  0  0  0
 59 62  1  0  0  0
 60132  1  0  0  0
 60133  1  0  0  0
 60134  1  0  0  0
 61135  1  0  0  0
 61136  1  0  0  0
 61137  1  0  0  0
 62138  1  0  0  0
 62139  1  0  0  0
 62140  1  0  0  0
 63 65  1  0  0  0
 63141  1  0  0  0
 63142  1  0  0  0
 63143  1  0  0  0
 64144  1  0  0  0
 65145  1  0  0  0
 68 81  1  0  0  0
 71 72  1  0  0  0
 71 73  2  0  0  0
 71146  1  0  0  0
 72 74  2  0  0  0
 72147  1  0  0  0
 73 80  1  0  0  0
 73 86  1  0  0  0
 74 82  1  0  0  0
 74 86  1  0  0  0
 75 77  1  0  0  0
 75 82  1  0  0  0
 75 84  2  0  0  0
 76 79  1  0  0  0
 76 82  1  0  0  0
 76 85  2  0  0  0
 77 78  1  0  0  0
 77148  1  0  0  0
 77149  1  0  0  0
 78 79  1  0  0  0
 78150  1  0  0  0
 78151  1  0  0  0
 79 81  1  0  0  0
 79152  1  0  0  0
 80 83  1  0  0  0
 80153  1  0  0  0
 80154  1  0  0  0
 81155  1  0  0  0
 81156  1  0  0  0
 83157  1  0  0  0
M  ISO  4   1 100  68 101  81 101  83 100
M  END
> <chiral flag>
0

> <version>
0

> <s_m_source_file>
/data/baiqing/PycharmProjects/Reinvent-master-3.2/result/LINK_invent/BTK/process_docking_weight1_custom_product_contain_oxygen_bond_distance_aromatic_linkinvent_7_9_3/rearranged_h_0104.sdf

> <i_m_source_file_index>
84

> <r_mmod_Potential_Energy-OPLS-2005>
-87.1486434936523

> <r_mmod_Stretch_Energy-OPLS-2005>
59.671947479248

> <r_mmod_Bend_Energy-OPLS-2005>
130.622024536133

> <r_mmod_Torsional_Energy-OPLS-2005>
235.223495483398

> <r_mmod_Improper_Torsional_Energy-OPLS-2005>
5.3722996711731

> <r_mmod_Van_der_Waal_Energy-OPLS-2005>
145.443466186523

> <r_mmod_Electrostatic_Energy-OPLS-2005>
-456.524505615234

> <r_mmod_Solvation_Energy-OPLS-2005>
-235.703414916992

> <b_mmod_Minimization_Converged-OPLS-2005>
0

> <r_mmod_RMS_Derivative-OPLS-2005>
4.69393730163574

$$$$
85
                    3D
 Structure written by MMmdl.
159167  0  0  1  0            999 V2000
  -30.6978  -14.4426   20.6980 C   0  0  0  0  0  0
  -30.4349  -12.3461   19.3863 C   0  0  0  0  0  0
  -29.4868  -12.5517   18.1871 C   0  0  0  0  0  0
  -28.0094  -12.3923   18.6042 C   0  0  0  0  0  0
  -27.6659  -13.1943   19.8869 C   0  0  2  0  0  0
  -28.7104  -12.9019   20.9848 C   0  0  0  0  0  0
  -25.2619  -13.8120   20.5706 C   0  0  0  0  0  0
  -24.1859  -13.0414   20.9188 C   0  0  0  0  0  0
  -24.6386  -11.6874   20.8717 C   0  0  0  0  0  0
  -23.9037  -10.4278   21.0391 C   0  0  0  0  0  0
  -24.3588   -9.4201   21.9174 C   0  0  0  0  0  0
  -23.6266   -8.2240   22.0738 C   0  0  0  0  0  0
  -22.4249   -8.0268   21.3529 C   0  0  0  0  0  0
  -21.9899   -9.0229   20.4621 C   0  0  0  0  0  0
  -22.7215  -10.2119   20.3029 C   0  0  0  0  0  0
  -21.6842   -6.0731   22.5272 C   0  0  0  0  0  0
  -21.4014   -6.5634   23.8207 C   0  0  0  0  0  0
  -21.3664   -5.6787   24.9170 C   0  0  0  0  0  0
  -21.6044   -4.3056   24.7213 C   0  0  0  0  0  0
  -21.8825   -3.8152   23.4337 C   0  0  0  0  0  0
  -21.9193   -4.6972   22.3386 C   0  0  0  0  0  0
  -22.7885  -13.5216   21.1852 C   0  0  0  0  0  0
  -22.1669   -4.2151   21.0968 F   0  0  0  0  0  0
  -21.5625   -3.4541   25.7730 F   0  0  0  0  0  0
  -30.0329  -13.2761   20.4555 N   0  0  0  0  0  0
  -26.3042  -12.9262   20.3431 N   0  0  0  0  0  0
  -25.9301  -11.6427   20.5756 N   0  0  0  0  0  0
  -22.0548  -12.8180   22.0401 N   0  0  0  0  0  0
  -25.4364  -15.1837   20.4107 N   0  0  0  0  0  0
  -31.7384  -14.7268   20.0923 O   0  0  0  0  0  0
  -21.6623   -6.8871   21.4234 O   0  0  0  0  0  0
  -22.3567  -14.5525   20.6713 O   0  0  0  0  0  0
  -24.6135  -31.8683   23.2043 C   0  0  0  0  0  0
  -25.9013  -32.4814   23.8359 C   0  0  1  0  0  0
  -27.2394  -27.4256   20.0918 C   0  0  0  0  0  0
  -25.5859  -33.8608   24.2293 N   0  0  0  0  0  0
  -23.4014  -30.4899   21.5466 C   0  0  2  0  0  0
  -24.8479  -28.9501   20.1167 C   0  0  0  0  0  0
  -22.7387  -29.4658   22.4972 C   0  0  0  0  0  0
  -18.0260  -28.1374   22.8494 C   0  0  0  0  0  0
  -24.1500  -36.7334   23.2640 C   0  0  0  0  0  0
  -25.9294  -30.8323   21.3546 C   0  0  0  0  0  0
  -26.0068  -29.4622   20.7097 C   0  0  0  0  0  0
  -27.2008  -28.7052   20.6953 C   0  0  0  0  0  0
  -26.0514  -26.9228   19.5081 C   0  0  0  0  0  0
  -24.8638  -27.6799   19.5162 C   0  0  0  0  0  0
  -23.6094  -29.8171   20.1623 C   0  0  0  0  0  0
  -25.4109  -36.3110   24.0342 C   0  0  1  0  0  0
  -20.5847  -28.3678   23.1308 C   0  0  2  0  0  0
  -20.6749  -26.9412   22.5400 C   0  0  0  0  0  0
  -19.5729  -26.6384   21.5197 C   0  0  0  0  0  0
  -18.1910  -26.7925   22.1611 C   0  0  0  0  0  0
  -19.1503  -28.8838   23.2894 C   0  0  0  0  0  0
  -18.9441  -30.1450   23.8884 C   0  0  0  0  0  0
  -17.6449  -30.6603   24.0541 C   0  0  0  0  0  0
  -25.9042  -34.9474   23.5126 C   0  0  0  0  0  0
  -16.5335  -29.9092   23.6319 C   0  0  0  0  0  0
  -16.7253  -28.6496   23.0358 C   0  0  0  0  0  0
  -26.4436  -31.6553   25.0666 C   0  0  0  0  0  0
  -25.3691  -31.3570   26.1379 C   0  0  0  0  0  0
  -27.0290  -30.3027   24.5983 C   0  0  0  0  0  0
  -27.6003  -32.4247   25.7465 C   0  0  0  0  0  0
  -27.5608  -37.1794   24.8452 C   0  0  0  0  0  0
  -21.4112  -29.3054   22.3721 N   0  0  0  0  0  0
  -26.4304  -37.3797   23.9418 N   0  0  0  0  0  0
  -24.6669  -31.0780   22.0947 N   0  0  0  0  0  0
  -23.4158  -28.8204   23.3023 O   0  0  0  0  0  0
  -28.4365  -26.7303   20.1076 O   0  0  0  0  0  0
  -26.5644  -34.8943   22.4709 O   0  0  0  0  0  0
  -23.5330  -32.1429   23.7446 O   0  0  0  0  0  0
  -30.4767  -19.2945   21.9411 C   0  0  0  0  0  0
  -29.1139  -18.6923   20.0340 C   0  0  0  0  0  0
  -30.6873  -17.9275   22.2433 C   0  0  0  0  0  0
  -30.1130  -16.9176   21.4207 C   0  0  0  0  0  0
  -29.6754  -19.6994   20.8539 C   0  0  0  0  0  0
  -29.3289  -17.3246   20.3132 C   0  0  0  0  0  0
  -31.5071  -17.5894   23.4806 C   0  0  0  0  0  0
  -30.1912  -15.4235   21.7951 C   0  0  0  0  0  0
  -28.3229  -22.9373   19.4026 C   0  0  0  0  0  0
  -28.2623  -24.2303   20.2524 C   0  0  0  0  0  0
  -28.1973  -21.5952   20.1665 C   0  0  0  0  0  0
  -28.5760  -25.4878   19.4031 C   0  0  0  0  0  0
  -29.4884  -21.0814   20.6345 N   0  0  0  0  0  0
  -28.7391  -16.3988   19.5197 F   0  0  0  0  0  0
  -31.4713  -12.4897   19.0751 H   0  0  0  0  0  0
  -30.3824  -11.3180   19.7475 H   0  0  0  0  0  0
  -29.7281  -11.8515   17.3855 H   0  0  0  0  0  0
  -29.6411  -13.5500   17.7747 H   0  0  0  0  0  0
  -27.8136  -11.3312   18.7689 H   0  0  0  0  0  0
  -27.3528  -12.6986   17.7874 H   0  0  0  0  0  0
  -27.7244  -14.2504   19.6328 H   0  0  0  0  0  0
  -28.7092  -11.8343   21.2104 H   0  0  0  0  0  0
  -28.4398  -13.3596   21.9320 H   0  0  0  0  0  0
  -25.2731   -9.5710   22.4747 H   0  0  0  0  0  0
  -23.9998   -7.4644   22.7460 H   0  0  0  0  0  0
  -21.0853   -8.8722   19.8913 H   0  0  0  0  0  0
  -22.3653  -10.9648   19.6124 H   0  0  0  0  0  0
  -21.2008   -7.6144   23.9714 H   0  0  0  0  0  0
  -21.1481   -6.0508   25.9069 H   0  0  0  0  0  0
  -22.0600   -2.7612   23.2821 H   0  0  0  0  0  0
  -22.4159  -11.9810   22.4741 H   0  0  0  0  0  0
  -21.1177  -13.1200   22.2624 H   0  0  0  0  0  0
  -24.6746  -15.8433   20.5229 H   0  0  0  0  0  0
  -26.2993  -15.6184   20.1074 H   0  0  0  0  0  0
  -26.7077  -32.5540   23.1127 H   0  0  0  0  0  0
  -24.9868  -33.9754   25.0336 H   0  0  0  0  0  0
  -22.6901  -31.3054   21.4022 H   0  0  0  0  0  0
  -23.3794  -35.9630   23.3218 H   0  0  0  0  0  0
  -24.3609  -36.9048   22.2070 H   0  0  0  0  0  0
  -23.7221  -37.6498   23.6716 H   0  0  0  0  0  0
  -26.0310  -31.5926   20.5783 H   0  0  0  0  0  0
  -26.8209  -30.8966   21.9660 H   0  0  0  0  0  0
  -28.1006  -29.1012   21.1442 H   0  0  0  0  0  0
  -26.0160  -25.9459   19.0516 H   0  0  0  0  0  0
  -23.9667  -27.2785   19.0649 H   0  0  0  0  0  0
  -23.7168  -30.5862   19.3969 H   0  0  0  0  0  0
  -22.7327  -29.2351   19.8707 H   0  0  0  0  0  0
  -25.1267  -36.1981   25.0846 H   0  0  0  0  0  0
  -20.9948  -28.3260   24.1425 H   0  0  0  0  0  0
  -20.5678  -26.2270   23.3581 H   0  0  0  0  0  0
  -21.6623  -26.7470   22.1198 H   0  0  0  0  0  0
  -19.6896  -25.6302   21.1228 H   0  0  0  0  0  0
  -19.6665  -27.3178   20.6719 H   0  0  0  0  0  0
  -17.4188  -26.6688   21.4004 H   0  0  0  0  0  0
  -18.0297  -26.0051   22.8988 H   0  0  0  0  0  0
  -19.7927  -30.7249   24.2242 H   0  0  0  0  0  0
  -17.5019  -31.6299   24.5121 H   0  0  0  0  0  0
  -15.5329  -30.2996   23.7628 H   0  0  0  0  0  0
  -15.8664  -28.0803   22.7081 H   0  0  0  0  0  0
  -24.5921  -30.6883   25.7649 H   0  0  0  0  0  0
  -24.8800  -32.2676   26.4842 H   0  0  0  0  0  0
  -25.8052  -30.8707   27.0113 H   0  0  0  0  0  0
  -26.2812  -29.6780   24.1085 H   0  0  0  0  0  0
  -27.4165  -29.7254   25.4388 H   0  0  0  0  0  0
  -27.8585  -30.4406   23.9042 H   0  0  0  0  0  0
  -27.2637  -33.3571   26.2009 H   0  0  0  0  0  0
  -28.3836  -32.6745   25.0294 H   0  0  0  0  0  0
  -28.0616  -31.8354   26.5400 H   0  0  0  0  0  0
  -28.2530  -38.0189   24.7666 H   0  0  0  0  0  0
  -28.1207  -36.2727   24.6100 H   0  0  0  0  0  0
  -27.2326  -37.1244   25.8848 H   0  0  0  0  0  0
  -20.9251  -29.8819   21.6992 H   0  0  0  0  0  0
  -26.0207  -38.2871   24.1466 H   0  0  0  0  0  0
  -30.9241  -20.0468   22.5773 H   0  0  0  0  0  0
  -28.5110  -18.9421   19.1741 H   0  0  0  0  0  0
  -31.7603  -18.4856   24.0501 H   0  0  0  0  0  0
  -32.4409  -17.0998   23.2005 H   0  0  0  0  0  0
  -30.9505  -16.9360   24.1542 H   0  0  0  0  0  0
  -29.1839  -15.2091   22.1307 H   0  0  0  0  0  0
  -30.8259  -15.2491   22.6606 H   0  0  0  0  0  0
  -29.2269  -22.9326   18.7930 H   0  0  0  0  0  0
  -27.4976  -22.9892   18.6899 H   0  0  0  0  0  0
  -28.9700  -24.1614   21.0791 H   0  0  0  0  0  0
  -27.2725  -24.3235   20.7006 H   0  0  0  0  0  0
  -27.7219  -20.8741   19.5030 H   0  0  0  0  0  0
  -27.5179  -21.7060   21.0136 H   0  0  0  0  0  0
  -28.0198  -25.4900   18.4653 H   0  0  0  0  0  0
  -29.6209  -25.4314   19.0965 H   0  0  0  0  0  0
  -29.9707  -21.6913   21.2912 H   0  0  0  0  0  0
  1 25  1  0  0  0
  1 30  2  0  0  0
  1 78  1  0  0  0
  2  3  1  0  0  0
  2 25  1  0  0  0
  2 85  1  0  0  0
  2 86  1  0  0  0
  3  4  1  0  0  0
  3 87  1  0  0  0
  3 88  1  0  0  0
  4  5  1  0  0  0
  4 89  1  0  0  0
  4 90  1  0  0  0
  5  6  1  0  0  0
  5 26  1  0  0  0
  5 91  1  0  0  0
  6 25  1  0  0  0
  6 92  1  0  0  0
  6 93  1  0  0  0
  7  8  2  0  0  0
  7 26  1  0  0  0
  7 29  1  0  0  0
  8  9  1  0  0  0
  8 22  1  0  0  0
  9 10  1  0  0  0
  9 27  2  0  0  0
 10 11  2  0  0  0
 10 15  1  0  0  0
 11 12  1  0  0  0
 11 94  1  0  0  0
 12 13  2  0  0  0
 12 95  1  0  0  0
 13 14  1  0  0  0
 13 31  1  0  0  0
 14 15  2  0  0  0
 14 96  1  0  0  0
 15 97  1  0  0  0
 16 17  2  0  0  0
 16 21  1  0  0  0
 16 31  1  0  0  0
 17 18  1  0  0  0
 17 98  1  0  0  0
 18 19  2  0  0  0
 18 99  1  0  0  0
 19 20  1  0  0  0
 19 24  1  0  0  0
 20 21  2  0  0  0
 20100  1  0  0  0
 21 23  1  0  0  0
 22 28  1  0  0  0
 22 32  2  0  0  0
 26 27  1  0  0  0
 28101  1  0  0  0
 28102  1  0  0  0
 29103  1  0  0  0
 29104  1  0  0  0
 33 34  1  0  0  0
 33 66  1  0  0  0
 33 70  2  0  0  0
 34 36  1  0  0  0
 34 59  1  0  0  0
 34105  1  0  0  0
 35 44  2  0  0  0
 35 45  1  0  0  0
 35 68  1  0  0  0
 36 56  1  0  0  0
 36106  1  0  0  0
 37 39  1  0  0  0
 37 47  1  0  0  0
 37 66  1  0  0  0
 37107  1  0  0  0
 38 43  2  0  0  0
 38 46  1  0  0  0
 38 47  1  0  0  0
 39 64  1  0  0  0
 39 67  2  0  0  0
 40 52  1  0  0  0
 40 53  2  0  0  0
 40 58  1  0  0  0
 41108  1  0  0  0
 41109  1  0  0  0
 41110  1  0  0  0
 41 48  1  0  0  0
 42 43  1  0  0  0
 42 66  1  0  0  0
 42111  1  0  0  0
 42112  1  0  0  0
 43 44  1  0  0  0
 44113  1  0  0  0
 45 46  2  0  0  0
 45114  1  0  0  0
 46115  1  0  0  0
 47116  1  0  0  0
 47117  1  0  0  0
 48 56  1  0  0  0
 48 65  1  0  0  0
 48118  1  0  0  0
 49 50  1  0  0  0
 49 53  1  0  0  0
 49 64  1  0  0  0
 49119  1  0  0  0
 50 51  1  0  0  0
 50120  1  0  0  0
 50121  1  0  0  0
 51 52  1  0  0  0
 51122  1  0  0  0
 51123  1  0  0  0
 52124  1  0  0  0
 52125  1  0  0  0
 53 54  1  0  0  0
 54 55  2  0  0  0
 54126  1  0  0  0
 55 57  1  0  0  0
 55127  1  0  0  0
 56 69  2  0  0  0
 57 58  2  0  0  0
 57128  1  0  0  0
 58129  1  0  0  0
 59 60  1  0  0  0
 59 61  1  0  0  0
 59 62  1  0  0  0
 60130  1  0  0  0
 60131  1  0  0  0
 60132  1  0  0  0
 61133  1  0  0  0
 61134  1  0  0  0
 61135  1  0  0  0
 62136  1  0  0  0
 62137  1  0  0  0
 62138  1  0  0  0
 63 65  1  0  0  0
 63139  1  0  0  0
 63140  1  0  0  0
 63141  1  0  0  0
 64142  1  0  0  0
 65143  1  0  0  0
 68 82  1  0  0  0
 71 73  2  0  0  0
 71 75  1  0  0  0
 71144  1  0  0  0
 72 75  2  0  0  0
 72 76  1  0  0  0
 72145  1  0  0  0
 73 74  1  0  0  0
 73 77  1  0  0  0
 74 76  2  0  0  0
 74 78  1  0  0  0
 75 83  1  0  0  0
 76 84  1  0  0  0
 77146  1  0  0  0
 77147  1  0  0  0
 77148  1  0  0  0
 78149  1  0  0  0
 78150  1  0  0  0
 79 80  1  0  0  0
 79 81  1  0  0  0
 79151  1  0  0  0
 79152  1  0  0  0
 80 82  1  0  0  0
 80153  1  0  0  0
 80154  1  0  0  0
 81 83  1  0  0  0
 81155  1  0  0  0
 81156  1  0  0  0
 82157  1  0  0  0
 82158  1  0  0  0
 83159  1  0  0  0
M  ISO  4   1 100  68 101  78 100  82 101
M  END
> <chiral flag>
0

> <version>
0

> <s_m_source_file>
/data/baiqing/PycharmProjects/Reinvent-master-3.2/result/LINK_invent/BTK/process_docking_weight1_custom_product_contain_oxygen_bond_distance_aromatic_linkinvent_7_9_3/rearranged_h_0104.sdf

> <i_m_source_file_index>
85

> <r_mmod_Potential_Energy-OPLS-2005>
-27.9630870819092

> <r_mmod_Stretch_Energy-OPLS-2005>
40.6049194335938

> <r_mmod_Bend_Energy-OPLS-2005>
118.590049743652

> <r_mmod_Torsional_Energy-OPLS-2005>
169.243225097656

> <r_mmod_Improper_Torsional_Energy-OPLS-2005>
5.28174066543579

> <r_mmod_Van_der_Waal_Energy-OPLS-2005>
155.125289916992

> <r_mmod_Electrostatic_Energy-OPLS-2005>
-330.745819091797

> <r_mmod_Solvation_Energy-OPLS-2005>
-198.087310791016

> <b_mmod_Minimization_Converged-OPLS-2005>
0

> <r_mmod_RMS_Derivative-OPLS-2005>
2.64030337333679

$$$$
86
                    3D
 Structure written by MMmdl.
161169  0  0  1  0            999 V2000
  -30.7639  -14.4572   20.5257 C   0  0  0  0  0  0
  -30.3967  -12.2884   19.4439 C   0  0  0  0  0  0
  -29.4873  -12.4845   18.2156 C   0  0  0  0  0  0
  -28.0091  -12.3615   18.6259 C   0  0  0  0  0  0
  -27.6545  -13.2223   19.8692 C   0  0  2  0  0  0
  -28.6987  -13.0625   21.0000 C   0  0  0  0  0  0
  -25.2538  -13.8203   20.5703 C   0  0  0  0  0  0
  -24.1810  -13.0460   20.9196 C   0  0  0  0  0  0
  -24.6393  -11.6929   20.8754 C   0  0  0  0  0  0
  -23.9068  -10.4302   21.0408 C   0  0  0  0  0  0
  -24.3616   -9.4214   21.9183 C   0  0  0  0  0  0
  -23.6297   -8.2248   22.0754 C   0  0  0  0  0  0
  -22.4281   -8.0282   21.3544 C   0  0  0  0  0  0
  -21.9914   -9.0252   20.4643 C   0  0  0  0  0  0
  -22.7239  -10.2133   20.3056 C   0  0  0  0  0  0
  -21.6847   -6.0735   22.5280 C   0  0  0  0  0  0
  -21.4012   -6.5639   23.8210 C   0  0  0  0  0  0
  -21.3661   -5.6796   24.9174 C   0  0  0  0  0  0
  -21.6045   -4.3059   24.7223 C   0  0  0  0  0  0
  -21.8819   -3.8149   23.4344 C   0  0  0  0  0  0
  -21.9191   -4.6966   22.3405 C   0  0  0  0  0  0
  -22.7823  -13.5231   21.1854 C   0  0  0  0  0  0
  -22.1656   -4.2152   21.0981 F   0  0  0  0  0  0
  -21.5633   -3.4545   25.7734 F   0  0  0  0  0  0
  -30.0281  -13.3181   20.4310 N   0  0  0  0  0  0
  -26.2986  -12.9410   20.3371 N   0  0  0  0  0  0
  -25.9328  -11.6554   20.5797 N   0  0  0  0  0  0
  -22.0474  -12.8211   22.0400 N   0  0  0  0  0  0
  -25.4253  -15.1924   20.4099 N   0  0  0  0  0  0
  -31.9218  -14.5133   20.1075 O   0  0  0  0  0  0
  -21.6640   -6.8881   21.4241 O   0  0  0  0  0  0
  -22.3506  -14.5537   20.6708 O   0  0  0  0  0  0
  -24.6125  -31.8707   23.2123 C   0  0  0  0  0  0
  -25.9023  -32.4847   23.8415 C   0  0  1  0  0  0
  -27.2215  -27.4381   20.0999 C   0  0  0  0  0  0
  -25.5876  -33.8644   24.2339 N   0  0  0  0  0  0
  -23.4002  -30.4967   21.5530 C   0  0  2  0  0  0
  -24.8479  -28.9752   20.1058 C   0  0  0  0  0  0
  -22.7408  -29.4662   22.4983 C   0  0  0  0  0  0
  -18.0266  -28.1376   22.8472 C   0  0  0  0  0  0
  -24.1494  -36.7317   23.2635 C   0  0  0  0  0  0
  -25.9324  -30.8394   21.3659 C   0  0  0  0  0  0
  -26.0096  -29.4791   20.7044 C   0  0  0  0  0  0
  -27.2044  -28.7210   20.6938 C   0  0  0  0  0  0
  -26.0449  -26.9615   19.4742 C   0  0  0  0  0  0
  -24.8617  -27.7181   19.4830 C   0  0  0  0  0  0
  -23.6068  -29.8363   20.1645 C   0  0  0  0  0  0
  -25.4113  -36.3133   24.0343 C   0  0  1  0  0  0
  -20.5855  -28.3647   23.1314 C   0  0  2  0  0  0
  -20.6777  -26.9380   22.5411 C   0  0  0  0  0  0
  -19.5768  -26.6379   21.5197 C   0  0  0  0  0  0
  -18.1930  -26.7914   22.1599 C   0  0  0  0  0  0
  -19.1517  -28.8824   23.2884 C   0  0  0  0  0  0
  -18.9458  -30.1425   23.8894 C   0  0  0  0  0  0
  -17.6461  -30.6576   24.0560 C   0  0  0  0  0  0
  -25.9030  -34.9490   23.5141 C   0  0  0  0  0  0
  -16.5346  -29.9078   23.6329 C   0  0  0  0  0  0
  -16.7258  -28.6500   23.0335 C   0  0  0  0  0  0
  -26.4447  -31.6618   25.0730 C   0  0  0  0  0  0
  -25.3692  -31.3729   26.1457 C   0  0  0  0  0  0
  -27.0294  -30.3076   24.6096 C   0  0  0  0  0  0
  -27.6036  -32.4321   25.7471 C   0  0  0  0  0  0
  -27.5600  -37.1804   24.8458 C   0  0  0  0  0  0
  -21.4139  -29.3025   22.3732 N   0  0  0  0  0  0
  -26.4307  -37.3810   23.9409 N   0  0  0  0  0  0
  -24.6668  -31.0815   22.1022 N   0  0  0  0  0  0
  -23.4199  -28.8195   23.3003 O   0  0  0  0  0  0
  -28.3499  -26.6451   20.1778 O   0  0  0  0  0  0
  -26.5612  -34.8933   22.4711 O   0  0  0  0  0  0
  -23.5314  -32.1461   23.7504 O   0  0  0  0  0  0
  -30.1865  -19.9879   22.6296 C   0  0  0  0  0  0
  -29.8074  -19.1753   19.9870 C   0  0  0  0  0  0
  -30.4069  -18.6363   22.2839 C   0  0  0  0  0  0
  -30.2363  -18.2253   20.9422 C   0  0  0  0  0  0
  -29.6324  -20.5464   20.3183 C   0  0  0  0  0  0
  -29.8257  -20.9544   21.6661 C   0  0  0  0  0  0
  -30.9251  -17.6772   23.3429 C   0  0  0  0  0  0
  -29.1683  -21.1202   18.0207 C   0  0  0  0  0  0
  -30.7570  -16.8790   20.4335 C   0  0  0  0  0  0
  -29.2170  -24.4474   21.0648 C   0  0  0  0  0  0
  -28.0495  -25.2713   20.4935 C   0  0  0  0  0  0
  -28.7120  -23.1131   21.6663 C   0  0  0  0  0  0
  -30.1361  -15.6058   20.8564 N   0  0  0  0  0  0
  -29.3645  -21.5149   19.3726 O   0  0  0  0  0  0
  -29.7870  -22.2710   22.0909 O   0  0  0  0  0  0
  -31.4459  -12.3321   19.1455 H   0  0  0  0  0  0
  -30.2568  -11.2950   19.8714 H   0  0  0  0  0  0
  -29.7244  -11.7439   17.4503 H   0  0  0  0  0  0
  -29.6696  -13.4618   17.7656 H   0  0  0  0  0  0
  -27.8141  -11.3094   18.8340 H   0  0  0  0  0  0
  -27.3635  -12.6291   17.7892 H   0  0  0  0  0  0
  -27.6830  -14.2627   19.5435 H   0  0  0  0  0  0
  -28.6649  -12.0529   21.4120 H   0  0  0  0  0  0
  -28.4805  -13.7369   21.8301 H   0  0  0  0  0  0
  -25.2761   -9.5686   22.4756 H   0  0  0  0  0  0
  -24.0004   -7.4635   22.7472 H   0  0  0  0  0  0
  -21.0852   -8.8767   19.8943 H   0  0  0  0  0  0
  -22.3701  -10.9671   19.6160 H   0  0  0  0  0  0
  -21.2002   -7.6144   23.9713 H   0  0  0  0  0  0
  -21.1483   -6.0526   25.9077 H   0  0  0  0  0  0
  -22.0599   -2.7611   23.2845 H   0  0  0  0  0  0
  -22.4091  -11.9861   22.4780 H   0  0  0  0  0  0
  -21.1083  -13.1210   22.2611 H   0  0  0  0  0  0
  -24.6638  -15.8526   20.5258 H   0  0  0  0  0  0
  -26.2806  -15.6289   20.0909 H   0  0  0  0  0  0
  -26.7096  -32.5581   23.1184 H   0  0  0  0  0  0
  -25.0007  -33.9804   25.0476 H   0  0  0  0  0  0
  -22.6878  -31.3142   21.4193 H   0  0  0  0  0  0
  -23.3766  -35.9638   23.3305 H   0  0  0  0  0  0
  -24.3585  -36.8927   22.2048 H   0  0  0  0  0  0
  -23.7227  -37.6512   23.6646 H   0  0  0  0  0  0
  -26.0456  -31.6100   20.6023 H   0  0  0  0  0  0
  -26.8197  -30.8886   21.9866 H   0  0  0  0  0  0
  -28.0973  -29.0957   21.1746 H   0  0  0  0  0  0
  -26.0210  -26.0002   18.9834 H   0  0  0  0  0  0
  -23.9716  -27.3276   19.0087 H   0  0  0  0  0  0
  -23.7075  -30.6176   19.4106 H   0  0  0  0  0  0
  -22.7323  -29.2532   19.8697 H   0  0  0  0  0  0
  -25.1282  -36.2008   25.0839 H   0  0  0  0  0  0
  -20.9940  -28.3223   24.1440 H   0  0  0  0  0  0
  -20.5696  -26.2242   23.3590 H   0  0  0  0  0  0
  -21.6654  -26.7453   22.1194 H   0  0  0  0  0  0
  -19.6949  -25.6296   21.1216 H   0  0  0  0  0  0
  -19.6738  -27.3214   20.6740 H   0  0  0  0  0  0
  -17.4207  -26.6642   21.3990 H   0  0  0  0  0  0
  -18.0327  -26.0058   22.9001 H   0  0  0  0  0  0
  -19.7943  -30.7218   24.2291 H   0  0  0  0  0  0
  -17.5029  -31.6268   24.5144 H   0  0  0  0  0  0
  -15.5346  -30.2986   23.7663 H   0  0  0  0  0  0
  -15.8654  -28.0830   22.7048 H   0  0  0  0  0  0
  -24.5854  -30.7098   25.7772 H   0  0  0  0  0  0
  -24.8862  -32.2883   26.4894 H   0  0  0  0  0  0
  -25.7981  -30.8886   27.0239 H   0  0  0  0  0  0
  -26.2860  -29.6824   24.1135 H   0  0  0  0  0  0
  -27.4088  -29.7310   25.4542 H   0  0  0  0  0  0
  -27.8677  -30.4429   23.9255 H   0  0  0  0  0  0
  -27.2700  -33.3633   26.2064 H   0  0  0  0  0  0
  -28.3820  -32.6862   25.0265 H   0  0  0  0  0  0
  -28.0736  -31.8430   26.5362 H   0  0  0  0  0  0
  -28.2589  -38.0130   24.7548 H   0  0  0  0  0  0
  -28.1123  -36.2660   24.6228 H   0  0  0  0  0  0
  -27.2316  -37.1378   25.8858 H   0  0  0  0  0  0
  -20.9280  -29.8734   21.6956 H   0  0  0  0  0  0
  -26.0211  -38.2892   24.1424 H   0  0  0  0  0  0
  -30.3529  -20.3101   23.6480 H   0  0  0  0  0  0
  -29.7116  -18.8438   18.9650 H   0  0  0  0  0  0
  -30.8672  -18.1150   24.3404 H   0  0  0  0  0  0
  -31.9693  -17.4294   23.1499 H   0  0  0  0  0  0
  -30.3484  -16.7531   23.3545 H   0  0  0  0  0  0
  -28.9505  -22.0000   17.4149 H   0  0  0  0  0  0
  -28.3243  -20.4361   17.9231 H   0  0  0  0  0  0
  -30.0613  -20.6529   17.6030 H   0  0  0  0  0  0
  -31.8135  -16.8755   20.7105 H   0  0  0  0  0  0
  -30.7570  -16.8935   19.3419 H   0  0  0  0  0  0
  -29.7370  -25.0199   21.8324 H   0  0  0  0  0  0
  -29.9427  -24.2534   20.2752 H   0  0  0  0  0  0
  -27.2412  -25.2465   21.2287 H   0  0  0  0  0  0
  -27.6829  -24.7578   19.6034 H   0  0  0  0  0  0
  -28.0217  -22.6167   20.9857 H   0  0  0  0  0  0
  -28.1149  -23.3354   22.5515 H   0  0  0  0  0  0
  -29.1710  -15.5905   21.1489 H   0  0  0  0  0  0
  1 25  1  0  0  0
  1 30  2  0  0  0
  1 83  1  0  0  0
  2  3  1  0  0  0
  2 25  1  0  0  0
  2 86  1  0  0  0
  2 87  1  0  0  0
  3  4  1  0  0  0
  3 88  1  0  0  0
  3 89  1  0  0  0
  4  5  1  0  0  0
  4 90  1  0  0  0
  4 91  1  0  0  0
  5  6  1  0  0  0
  5 26  1  0  0  0
  5 92  1  0  0  0
  6 25  1  0  0  0
  6 93  1  0  0  0
  6 94  1  0  0  0
  7  8  2  0  0  0
  7 26  1  0  0  0
  7 29  1  0  0  0
  8  9  1  0  0  0
  8 22  1  0  0  0
  9 10  1  0  0  0
  9 27  2  0  0  0
 10 11  2  0  0  0
 10 15  1  0  0  0
 11 12  1  0  0  0
 11 95  1  0  0  0
 12 13  2  0  0  0
 12 96  1  0  0  0
 13 14  1  0  0  0
 13 31  1  0  0  0
 14 15  2  0  0  0
 14 97  1  0  0  0
 15 98  1  0  0  0
 16 17  2  0  0  0
 16 21  1  0  0  0
 16 31  1  0  0  0
 17 18  1  0  0  0
 17 99  1  0  0  0
 18 19  2  0  0  0
 18100  1  0  0  0
 19 20  1  0  0  0
 19 24  1  0  0  0
 20 21  2  0  0  0
 20101  1  0  0  0
 21 23  1  0  0  0
 22 28  1  0  0  0
 22 32  2  0  0  0
 26 27  1  0  0  0
 28102  1  0  0  0
 28103  1  0  0  0
 29104  1  0  0  0
 29105  1  0  0  0
 33 34  1  0  0  0
 33 66  1  0  0  0
 33 70  2  0  0  0
 34 36  1  0  0  0
 34 59  1  0  0  0
 34106  1  0  0  0
 35 44  2  0  0  0
 35 45  1  0  0  0
 35 68  1  0  0  0
 36 56  1  0  0  0
 36107  1  0  0  0
 37 39  1  0  0  0
 37 47  1  0  0  0
 37 66  1  0  0  0
 37108  1  0  0  0
 38 43  2  0  0  0
 38 46  1  0  0  0
 38 47  1  0  0  0
 39 64  1  0  0  0
 39 67  2  0  0  0
 40 52  1  0  0  0
 40 53  2  0  0  0
 40 58  1  0  0  0
 41109  1  0  0  0
 41110  1  0  0  0
 41111  1  0  0  0
 41 48  1  0  0  0
 42 43  1  0  0  0
 42 66  1  0  0  0
 42112  1  0  0  0
 42113  1  0  0  0
 43 44  1  0  0  0
 44114  1  0  0  0
 45 46  2  0  0  0
 45115  1  0  0  0
 46116  1  0  0  0
 47117  1  0  0  0
 47118  1  0  0  0
 48 56  1  0  0  0
 48 65  1  0  0  0
 48119  1  0  0  0
 49 50  1  0  0  0
 49 53  1  0  0  0
 49 64  1  0  0  0
 49120  1  0  0  0
 50 51  1  0  0  0
 50121  1  0  0  0
 50122  1  0  0  0
 51 52  1  0  0  0
 51123  1  0  0  0
 51124  1  0  0  0
 52125  1  0  0  0
 52126  1  0  0  0
 53 54  1  0  0  0
 54 55  2  0  0  0
 54127  1  0  0  0
 55 57  1  0  0  0
 55128  1  0  0  0
 56 69  2  0  0  0
 57 58  2  0  0  0
 57129  1  0  0  0
 58130  1  0  0  0
 59 60  1  0  0  0
 59 61  1  0  0  0
 59 62  1  0  0  0
 60131  1  0  0  0
 60132  1  0  0  0
 60133  1  0  0  0
 61134  1  0  0  0
 61135  1  0  0  0
 61136  1  0  0  0
 62137  1  0  0  0
 62138  1  0  0  0
 62139  1  0  0  0
 63 65  1  0  0  0
 63140  1  0  0  0
 63141  1  0  0  0
 63142  1  0  0  0
 64143  1  0  0  0
 65144  1  0  0  0
 68 81  1  0  0  0
 71 73  2  0  0  0
 71 76  1  0  0  0
 71145  1  0  0  0
 72 74  2  0  0  0
 72 75  1  0  0  0
 72146  1  0  0  0
 73 74  1  0  0  0
 73 77  1  0  0  0
 74 79  1  0  0  0
 75 76  2  0  0  0
 75 84  1  0  0  0
 76 85  1  0  0  0
 77147  1  0  0  0
 77148  1  0  0  0
 77149  1  0  0  0
 78 84  1  0  0  0
 78150  1  0  0  0
 78151  1  0  0  0
 78152  1  0  0  0
 79 83  1  0  0  0
 79153  1  0  0  0
 79154  1  0  0  0
 80 81  1  0  0  0
 80 82  1  0  0  0
 80155  1  0  0  0
 80156  1  0  0  0
 81157  1  0  0  0
 81158  1  0  0  0
 82 85  1  0  0  0
 82159  1  0  0  0
 82160  1  0  0  0
 83161  1  0  0  0
M  ISO  4   1 100  68 101  81 101  83 100
M  END
> <chiral flag>
0

> <version>
0

> <s_m_source_file>
/data/baiqing/PycharmProjects/Reinvent-master-3.2/result/LINK_invent/BTK/process_docking_weight1_custom_product_contain_oxygen_bond_distance_aromatic_linkinvent_7_9_3/rearranged_h_0104.sdf

> <i_m_source_file_index>
86

> <r_mmod_Potential_Energy-OPLS-2005>
-36.2252731323242

> <r_mmod_Stretch_Energy-OPLS-2005>
38.8104705810547

> <r_mmod_Bend_Energy-OPLS-2005>
119.207405090332

> <r_mmod_Torsional_Energy-OPLS-2005>
241.493881225586

> <r_mmod_Improper_Torsional_Energy-OPLS-2005>
8.48283290863037

> <r_mmod_Van_der_Waal_Energy-OPLS-2005>
173.528350830078

> <r_mmod_Electrostatic_Energy-OPLS-2005>
-427.418914794922

> <r_mmod_Solvation_Energy-OPLS-2005>
-212.588745117188

> <b_mmod_Minimization_Converged-OPLS-2005>
0

> <r_mmod_RMS_Derivative-OPLS-2005>
2.32089996337891

$$$$
87
                    3D
 Structure written by MMmdl.
162171  0  0  1  0            999 V2000
  -30.6109  -14.7374   20.4799 C   0  0  0  0  0  0
  -30.4339  -12.4426   19.4993 C   0  0  0  0  0  0
  -29.5267  -12.5236   18.2524 C   0  0  0  0  0  0
  -28.0484  -12.3482   18.6429 C   0  0  0  0  0  0
  -27.6468  -13.2332   19.8530 C   0  0  2  0  0  0
  -28.6804  -13.1582   20.9958 C   0  0  0  0  0  0
  -25.2554  -13.8187   20.5652 C   0  0  0  0  0  0
  -24.1855  -13.0394   20.9120 C   0  0  0  0  0  0
  -24.6451  -11.6878   20.8645 C   0  0  0  0  0  0
  -23.9107  -10.4272   21.0318 C   0  0  0  0  0  0
  -24.3607   -9.4236   21.9173 C   0  0  0  0  0  0
  -23.6260   -8.2291   22.0757 C   0  0  0  0  0  0
  -22.4267   -8.0311   21.3509 C   0  0  0  0  0  0
  -21.9938   -9.0259   20.4576 C   0  0  0  0  0  0
  -22.7284  -10.2108   20.2959 C   0  0  0  0  0  0
  -21.6824   -6.0803   22.5278 C   0  0  0  0  0  0
  -21.3986   -6.5692   23.8225 C   0  0  0  0  0  0
  -21.3617   -5.6807   24.9190 C   0  0  0  0  0  0
  -21.6036   -4.3085   24.7241 C   0  0  0  0  0  0
  -21.8778   -3.8193   23.4347 C   0  0  0  0  0  0
  -21.9151   -4.7029   22.3391 C   0  0  0  0  0  0
  -22.7893  -13.5153   21.1889 C   0  0  0  0  0  0
  -22.1663   -4.2247   21.1003 F   0  0  0  0  0  0
  -21.5627   -3.4543   25.7723 F   0  0  0  0  0  0
  -29.9922  -13.5051   20.4373 N   0  0  0  0  0  0
  -26.2970  -12.9405   20.3211 N   0  0  0  0  0  0
  -25.9390  -11.6526   20.5644 N   0  0  0  0  0  0
  -22.0845  -12.8268   22.0800 N   0  0  0  0  0  0
  -25.4189  -15.1917   20.4165 N   0  0  0  0  0  0
  -31.7649  -14.8282   20.0461 O   0  0  0  0  0  0
  -21.6586   -6.8943   21.4239 O   0  0  0  0  0  0
  -22.3408  -14.5306   20.6594 O   0  0  0  0  0  0
  -24.6267  -31.8528   23.2055 C   0  0  0  0  0  0
  -25.9095  -32.4759   23.8353 C   0  0  1  0  0  0
  -27.1976  -27.2645   20.1120 C   0  0  0  0  0  0
  -25.5883  -33.8579   24.2191 N   0  0  0  0  0  0
  -23.4232  -30.4756   21.5470 C   0  0  2  0  0  0
  -24.8666  -28.9243   20.1141 C   0  0  0  0  0  0
  -22.7462  -29.4549   22.4919 C   0  0  0  0  0  0
  -18.0297  -28.1351   22.8508 C   0  0  0  0  0  0
  -24.1510  -36.7319   23.2647 C   0  0  0  0  0  0
  -25.9783  -30.7394   21.4196 C   0  0  0  0  0  0
  -26.0373  -29.3765   20.7375 C   0  0  0  0  0  0
  -27.2075  -28.5531   20.7325 C   0  0  0  0  0  0
  -26.0240  -26.8899   19.4311 C   0  0  0  0  0  0
  -24.8610  -27.6833   19.4560 C   0  0  0  0  0  0
  -23.6447  -29.8151   20.1640 C   0  0  0  0  0  0
  -25.4157  -36.3102   24.0293 C   0  0  1  0  0  0
  -20.5880  -28.3649   23.1291 C   0  0  2  0  0  0
  -20.6802  -26.9373   22.5425 C   0  0  0  0  0  0
  -19.5792  -26.6339   21.5235 C   0  0  0  0  0  0
  -18.1958  -26.7899   22.1625 C   0  0  0  0  0  0
  -19.1546  -28.8833   23.2880 C   0  0  0  0  0  0
  -18.9477  -30.1456   23.8859 C   0  0  0  0  0  0
  -17.6471  -30.6567   24.0567 C   0  0  0  0  0  0
  -25.9068  -34.9454   23.5060 C   0  0  0  0  0  0
  -16.5360  -29.9032   23.6376 C   0  0  0  0  0  0
  -16.7283  -28.6452   23.0391 C   0  0  0  0  0  0
  -26.4475  -31.6713   25.0830 C   0  0  0  0  0  0
  -25.3677  -31.3945   26.1542 C   0  0  0  0  0  0
  -27.0433  -30.3087   24.6633 C   0  0  0  0  0  0
  -27.5922  -32.4631   25.7557 C   0  0  0  0  0  0
  -27.5600  -37.1824   24.8436 C   0  0  0  0  0  0
  -21.4176  -29.2983   22.3654 N   0  0  0  0  0  0
  -26.4353  -37.3764   23.9332 N   0  0  0  0  0  0
  -24.6922  -31.0423   22.1085 N   0  0  0  0  0  0
  -23.4160  -28.8077   23.3012 O   0  0  0  0  0  0
  -28.3084  -26.4092   20.0434 O   0  0  0  0  0  0
  -26.5672  -34.8910   22.4651 O   0  0  0  0  0  0
  -23.5410  -32.1415   23.7298 O   0  0  0  0  0  0
  -30.4934  -19.1597   19.0161 C   0  0  0  0  0  0
  -29.9530  -21.5304   19.3860 C   0  0  0  0  0  0
  -28.7651  -19.7789   20.5973 C   0  0  0  0  0  0
  -30.7079  -20.5281   18.7365 C   0  0  0  0  0  0
  -29.5280  -18.7211   19.9482 C   0  0  0  0  0  0
  -28.9537  -21.2083   20.3260 C   0  0  0  0  0  0
  -27.4734  -22.1823   22.0614 C   0  0  0  0  0  0
  -26.3335  -23.1821   22.1471 C   0  0  0  0  0  0
  -26.2838  -23.7198   20.7190 C   0  0  0  0  0  0
  -27.7542  -23.6726   20.2665 C   0  0  2  0  0  0
  -31.7385  -20.9418   17.6987 C   0  0  0  0  0  0
  -29.2533  -17.1417   19.9934 C   0  0  0  0  0  0
  -29.9581  -16.1065   21.0112 C   0  0  0  0  0  0
  -28.3843  -25.0936   20.7601 C   0  0  0  0  0  0
  -28.1892  -22.3435   20.9274 N   0  0  0  0  0  0
  -27.6823  -21.3594   22.9568 O   0  0  0  0  0  0
  -31.4822  -12.5467   19.2136 H   0  0  0  0  0  0
  -30.3594  -11.4626   19.9755 H   0  0  0  0  0  0
  -29.8151  -11.7694   17.5181 H   0  0  0  0  0  0
  -29.6549  -13.4915   17.7614 H   0  0  0  0  0  0
  -27.8905  -11.2948   18.8755 H   0  0  0  0  0  0
  -27.4132  -12.5680   17.7888 H   0  0  0  0  0  0
  -27.6499  -14.2554   19.4834 H   0  0  0  0  0  0
  -28.7047  -12.1573   21.4269 H   0  0  0  0  0  0
  -28.4034  -13.8279   21.8112 H   0  0  0  0  0  0
  -25.2670   -9.5769   22.4811 H   0  0  0  0  0  0
  -23.9891   -7.4689   22.7552 H   0  0  0  0  0  0
  -21.0891   -8.8736   19.8846 H   0  0  0  0  0  0
  -22.3738  -10.9597   19.6055 H   0  0  0  0  0  0
  -21.2004   -7.6186   23.9777 H   0  0  0  0  0  0
  -21.1448   -6.0544   25.9084 H   0  0  0  0  0  0
  -22.0565   -2.7656   23.2783 H   0  0  0  0  0  0
  -22.4916  -12.0281   22.5464 H   0  0  0  0  0  0
  -21.1641  -13.1434   22.3531 H   0  0  0  0  0  0
  -24.6473  -15.8388   20.5250 H   0  0  0  0  0  0
  -26.2807  -15.6444   20.1336 H   0  0  0  0  0  0
  -26.7117  -32.5308   23.1019 H   0  0  0  0  0  0
  -24.9974  -33.9744   25.0295 H   0  0  0  0  0  0
  -22.7220  -31.3006   21.4040 H   0  0  0  0  0  0
  -23.3782  -35.9646   23.3343 H   0  0  0  0  0  0
  -24.3575  -36.8948   22.2061 H   0  0  0  0  0  0
  -23.7269  -37.6514   23.6687 H   0  0  0  0  0  0
  -26.1933  -31.5170   20.6848 H   0  0  0  0  0  0
  -26.8213  -30.7209   22.0970 H   0  0  0  0  0  0
  -28.1066  -28.8911   21.2275 H   0  0  0  0  0  0
  -26.0024  -25.9691   18.8635 H   0  0  0  0  0  0
  -23.9682  -27.3448   18.9443 H   0  0  0  0  0  0
  -23.7827  -30.5959   19.4170 H   0  0  0  0  0  0
  -22.7637  -29.2523   19.8479 H   0  0  0  0  0  0
  -25.1364  -36.1971   25.0795 H   0  0  0  0  0  0
  -21.0011  -28.3272   24.1392 H   0  0  0  0  0  0
  -20.5777  -26.2235   23.3621 H   0  0  0  0  0  0
  -21.6660  -26.7432   22.1176 H   0  0  0  0  0  0
  -19.6962  -25.6236   21.1304 H   0  0  0  0  0  0
  -19.6774  -27.3122   20.6760 H   0  0  0  0  0  0
  -17.4243  -26.6699   21.4013 H   0  0  0  0  0  0
  -18.0337  -26.0003   22.8985 H   0  0  0  0  0  0
  -19.7943  -30.7322   24.2169 H   0  0  0  0  0  0
  -17.5007  -31.6260   24.5153 H   0  0  0  0  0  0
  -15.5350  -30.2921   23.7731 H   0  0  0  0  0  0
  -15.8685  -28.0771   22.7111 H   0  0  0  0  0  0
  -24.5690  -30.7514   25.7844 H   0  0  0  0  0  0
  -24.9101  -32.3196   26.5058 H   0  0  0  0  0  0
  -25.7938  -30.8970   27.0264 H   0  0  0  0  0  0
  -26.3035  -29.6547   24.2026 H   0  0  0  0  0  0
  -27.4316  -29.7702   25.5291 H   0  0  0  0  0  0
  -27.8838  -30.4228   23.9795 H   0  0  0  0  0  0
  -27.2330  -33.3823   26.2185 H   0  0  0  0  0  0
  -28.3612  -32.7473   25.0367 H   0  0  0  0  0  0
  -28.0774  -31.8894   26.5441 H   0  0  0  0  0  0
  -28.2642  -38.0099   24.7439 H   0  0  0  0  0  0
  -28.1085  -36.2621   24.6342 H   0  0  0  0  0  0
  -27.2299  -37.1560   25.8838 H   0  0  0  0  0  0
  -20.9370  -29.8608   21.6784 H   0  0  0  0  0  0
  -26.0268  -38.2875   24.1229 H   0  0  0  0  0  0
  -31.0513  -18.4202   18.4622 H   0  0  0  0  0  0
  -30.1534  -22.5669   19.1602 H   0  0  0  0  0  0
  -27.9877  -19.4709   21.2808 H   0  0  0  0  0  0
  -26.6028  -23.9589   22.8652 H   0  0  0  0  0  0
  -25.3827  -22.7436   22.4495 H   0  0  0  0  0  0
  -25.8392  -24.7077   20.7027 H   0  0  0  0  0  0
  -25.6517  -23.0822   20.0963 H   0  0  0  0  0  0
  -27.8345  -23.5921   19.1804 H   0  0  0  0  0  0
  -32.6252  -21.3622   18.1722 H   0  0  0  0  0  0
  -31.3251  -21.6964   17.0301 H   0  0  0  0  0  0
  -32.0554  -20.1037   17.0777 H   0  0  0  0  0  0
  -29.4743  -16.7750   18.9875 H   0  0  0  0  0  0
  -28.1747  -16.9981   20.0863 H   0  0  0  0  0  0
  -29.2747  -15.8964   21.8300 H   0  0  0  0  0  0
  -30.7754  -16.6389   21.4960 H   0  0  0  0  0  0
  -28.0334  -25.3042   21.7711 H   0  0  0  0  0  0
  -29.4540  -24.9396   20.8743 H   0  0  0  0  0  0
  1 25  1  0  0  0
  1 30  2  0  0  0
  1 83  1  0  0  0
  2  3  1  0  0  0
  2 25  1  0  0  0
  2 87  1  0  0  0
  2 88  1  0  0  0
  3  4  1  0  0  0
  3 89  1  0  0  0
  3 90  1  0  0  0
  4  5  1  0  0  0
  4 91  1  0  0  0
  4 92  1  0  0  0
  5  6  1  0  0  0
  5 26  1  0  0  0
  5 93  1  0  0  0
  6 25  1  0  0  0
  6 94  1  0  0  0
  6 95  1  0  0  0
  7  8  2  0  0  0
  7 26  1  0  0  0
  7 29  1  0  0  0
  8  9  1  0  0  0
  8 22  1  0  0  0
  9 10  1  0  0  0
  9 27  2  0  0  0
 10 11  2  0  0  0
 10 15  1  0  0  0
 11 12  1  0  0  0
 11 96  1  0  0  0
 12 13  2  0  0  0
 12 97  1  0  0  0
 13 14  1  0  0  0
 13 31  1  0  0  0
 14 15  2  0  0  0
 14 98  1  0  0  0
 15 99  1  0  0  0
 16 17  2  0  0  0
 16 21  1  0  0  0
 16 31  1  0  0  0
 17 18  1  0  0  0
 17100  1  0  0  0
 18 19  2  0  0  0
 18101  1  0  0  0
 19 20  1  0  0  0
 19 24  1  0  0  0
 20 21  2  0  0  0
 20102  1  0  0  0
 21 23  1  0  0  0
 22 28  1  0  0  0
 22 32  2  0  0  0
 26 27  1  0  0  0
 28103  1  0  0  0
 28104  1  0  0  0
 29105  1  0  0  0
 29106  1  0  0  0
 33 34  1  0  0  0
 33 66  1  0  0  0
 33 70  2  0  0  0
 34 36  1  0  0  0
 34 59  1  0  0  0
 34107  1  0  0  0
 35 44  2  0  0  0
 35 45  1  0  0  0
 35 68  1  0  0  0
 36 56  1  0  0  0
 36108  1  0  0  0
 37 39  1  0  0  0
 37 47  1  0  0  0
 37 66  1  0  0  0
 37109  1  0  0  0
 38 43  2  0  0  0
 38 46  1  0  0  0
 38 47  1  0  0  0
 39 64  1  0  0  0
 39 67  2  0  0  0
 40 52  1  0  0  0
 40 53  2  0  0  0
 40 58  1  0  0  0
 41110  1  0  0  0
 41111  1  0  0  0
 41112  1  0  0  0
 41 48  1  0  0  0
 42 43  1  0  0  0
 42 66  1  0  0  0
 42113  1  0  0  0
 42114  1  0  0  0
 43 44  1  0  0  0
 44115  1  0  0  0
 45 46  2  0  0  0
 45116  1  0  0  0
 46117  1  0  0  0
 47118  1  0  0  0
 47119  1  0  0  0
 48 56  1  0  0  0
 48 65  1  0  0  0
 48120  1  0  0  0
 49 50  1  0  0  0
 49 53  1  0  0  0
 49 64  1  0  0  0
 49121  1  0  0  0
 50 51  1  0  0  0
 50122  1  0  0  0
 50123  1  0  0  0
 51 52  1  0  0  0
 51124  1  0  0  0
 51125  1  0  0  0
 52126  1  0  0  0
 52127  1  0  0  0
 53 54  1  0  0  0
 54 55  2  0  0  0
 54128  1  0  0  0
 55 57  1  0  0  0
 55129  1  0  0  0
 56 69  2  0  0  0
 57 58  2  0  0  0
 57130  1  0  0  0
 58131  1  0  0  0
 59 60  1  0  0  0
 59 61  1  0  0  0
 59 62  1  0  0  0
 60132  1  0  0  0
 60133  1  0  0  0
 60134  1  0  0  0
 61135  1  0  0  0
 61136  1  0  0  0
 61137  1  0  0  0
 62138  1  0  0  0
 62139  1  0  0  0
 62140  1  0  0  0
 63 65  1  0  0  0
 63141  1  0  0  0
 63142  1  0  0  0
 63143  1  0  0  0
 64144  1  0  0  0
 65145  1  0  0  0
 68 84  1  0  0  0
 71 74  2  0  0  0
 71 75  1  0  0  0
 71146  1  0  0  0
 72 74  1  0  0  0
 72 76  2  0  0  0
 72147  1  0  0  0
 73 75  2  0  0  0
 73 76  1  0  0  0
 73148  1  0  0  0
 74 81  1  0  0  0
 75 82  1  0  0  0
 76 85  1  0  0  0
 77 78  1  0  0  0
 77 85  1  0  0  0
 77 86  2  0  0  0
 78 79  1  0  0  0
 78149  1  0  0  0
 78150  1  0  0  0
 79 80  1  0  0  0
 79151  1  0  0  0
 79152  1  0  0  0
 80 84  1  0  0  0
 80 85  1  0  0  0
 80153  1  0  0  0
 81154  1  0  0  0
 81155  1  0  0  0
 81156  1  0  0  0
 82 83  1  0  0  0
 82157  1  0  0  0
 82158  1  0  0  0
 83159  1  0  0  0
 83160  1  0  0  0
 84161  1  0  0  0
 84162  1  0  0  0
M  ISO  4   1 100  68 101  83 100  84 101
M  END
> <chiral flag>
0

> <version>
0

> <s_m_source_file>
/data/baiqing/PycharmProjects/Reinvent-master-3.2/result/LINK_invent/BTK/process_docking_weight1_custom_product_contain_oxygen_bond_distance_aromatic_linkinvent_7_9_3/rearranged_h_0104.sdf

> <i_m_source_file_index>
87

> <r_mmod_Potential_Energy-OPLS-2005>
323.910675048828

> <r_mmod_Stretch_Energy-OPLS-2005>
134.454086303711

> <r_mmod_Bend_Energy-OPLS-2005>
238.029525756836

> <r_mmod_Torsional_Energy-OPLS-2005>
272.375

> <r_mmod_Improper_Torsional_Energy-OPLS-2005>
3.98781609535217

> <r_mmod_Van_der_Waal_Energy-OPLS-2005>
131.240615844727

> <r_mmod_Electrostatic_Energy-OPLS-2005>
-327.898742675781

> <r_mmod_Solvation_Energy-OPLS-2005>
-208.373931884766

> <b_mmod_Minimization_Converged-OPLS-2005>
0

> <r_mmod_RMS_Derivative-OPLS-2005>
6.81225156784058

$$$$
88
                    3D
 Structure written by MMmdl.
169177  0  0  1  0            999 V2000
  -30.7111  -14.4652   20.6314 C   0  0  0  0  0  0
  -30.4292  -12.3301   19.3949 C   0  0  0  0  0  0
  -29.4907  -12.5422   18.1889 C   0  0  0  0  0  0
  -28.0139  -12.3856   18.6067 C   0  0  0  0  0  0
  -27.6648  -13.2068   19.8720 C   0  0  2  0  0  0
  -28.7053  -12.9507   20.9817 C   0  0  0  0  0  0
  -25.2581  -13.8169   20.5651 C   0  0  0  0  0  0
  -24.1844  -13.0456   20.9146 C   0  0  0  0  0  0
  -24.6407  -11.6914   20.8733 C   0  0  0  0  0  0
  -23.9075  -10.4291   21.0388 C   0  0  0  0  0  0
  -24.3628   -9.4203   21.9164 C   0  0  0  0  0  0
  -23.6301   -8.2243   22.0753 C   0  0  0  0  0  0
  -22.4275   -8.0287   21.3541 C   0  0  0  0  0  0
  -21.9902   -9.0266   20.4643 C   0  0  0  0  0  0
  -22.7239  -10.2132   20.3045 C   0  0  0  0  0  0
  -21.6867   -6.0743   22.5270 C   0  0  0  0  0  0
  -21.4027   -6.5650   23.8202 C   0  0  0  0  0  0
  -21.3655   -5.6801   24.9167 C   0  0  0  0  0  0
  -21.6036   -4.3060   24.7209 C   0  0  0  0  0  0
  -21.8830   -3.8154   23.4333 C   0  0  0  0  0  0
  -21.9195   -4.6975   22.3391 C   0  0  0  0  0  0
  -22.7859  -13.5228   21.1829 C   0  0  0  0  0  0
  -22.1667   -4.2174   21.0964 F   0  0  0  0  0  0
  -21.5612   -3.4527   25.7706 F   0  0  0  0  0  0
  -30.0427  -13.2858   20.4483 N   0  0  0  0  0  0
  -26.3040  -12.9345   20.3337 N   0  0  0  0  0  0
  -25.9334  -11.6508   20.5775 N   0  0  0  0  0  0
  -22.0529  -12.8243   22.0405 N   0  0  0  0  0  0
  -25.4301  -15.1887   20.4035 N   0  0  0  0  0  0
  -31.7566  -14.7275   20.0318 O   0  0  0  0  0  0
  -21.6652   -6.8875   21.4224 O   0  0  0  0  0  0
  -22.3524  -14.5518   20.6651 O   0  0  0  0  0  0
  -24.6103  -31.8727   23.2140 C   0  0  0  0  0  0
  -25.9018  -32.4830   23.8414 C   0  0  1  0  0  0
  -27.2296  -27.4421   20.0700 C   0  0  0  0  0  0
  -25.5903  -33.8639   24.2372 N   0  0  0  0  0  0
  -23.3964  -30.4972   21.5567 C   0  0  2  0  0  0
  -24.8391  -28.9634   20.1211 C   0  0  0  0  0  0
  -22.7372  -29.4695   22.5041 C   0  0  0  0  0  0
  -18.0262  -28.1387   22.8498 C   0  0  0  0  0  0
  -24.1494  -36.7313   23.2633 C   0  0  0  0  0  0
  -25.9245  -30.8387   21.3658 C   0  0  0  0  0  0
  -26.0009  -29.4727   20.7115 C   0  0  0  0  0  0
  -27.1967  -28.7185   20.6821 C   0  0  0  0  0  0
  -26.0328  -26.9387   19.5057 C   0  0  0  0  0  0
  -24.8486  -27.6949   19.5229 C   0  0  0  0  0  0
  -23.6009  -29.8296   20.1727 C   0  0  0  0  0  0
  -25.4104  -36.3119   24.0347 C   0  0  1  0  0  0
  -20.5852  -28.3674   23.1350 C   0  0  2  0  0  0
  -20.6766  -26.9415   22.5450 C   0  0  0  0  0  0
  -19.5753  -26.6390   21.5238 C   0  0  0  0  0  0
  -18.1923  -26.7933   22.1635 C   0  0  0  0  0  0
  -19.1513  -28.8838   23.2923 C   0  0  0  0  0  0
  -18.9436  -30.1450   23.8921 C   0  0  0  0  0  0
  -17.6444  -30.6595   24.0559 C   0  0  0  0  0  0
  -25.9015  -34.9481   23.5135 C   0  0  0  0  0  0
  -16.5337  -29.9095   23.6325 C   0  0  0  0  0  0
  -16.7251  -28.6515   23.0333 C   0  0  0  0  0  0
  -26.4460  -31.6559   25.0710 C   0  0  0  0  0  0
  -25.3718  -31.3645   26.1433 C   0  0  0  0  0  0
  -27.0257  -30.2997   24.6051 C   0  0  0  0  0  0
  -27.6065  -32.4219   25.7469 C   0  0  0  0  0  0
  -27.5588  -37.1794   24.8459 C   0  0  0  0  0  0
  -21.4114  -29.3041   22.3751 N   0  0  0  0  0  0
  -26.4293  -37.3801   23.9406 N   0  0  0  0  0  0
  -24.6621  -31.0831   22.1047 N   0  0  0  0  0  0
  -23.4140  -28.8210   23.3056 O   0  0  0  0  0  0
  -28.4330  -26.7616   20.0294 O   0  0  0  0  0  0
  -26.5586  -34.8911   22.4701 O   0  0  0  0  0  0
  -23.5296  -32.1503   23.7559 O   0  0  0  0  0  0
  -31.5737  -18.0992   20.3207 C   0  0  0  0  0  0
  -29.5498  -19.7532   19.3018 C   0  0  0  0  0  0
  -30.2312  -17.7339   20.5339 C   0  0  0  0  0  0
  -29.2177  -18.5523   19.9741 C   0  0  0  0  0  0
  -30.8953  -20.1563   19.1702 C   0  0  0  0  0  0
  -31.9214  -19.2979   19.6412 C   0  0  0  0  0  0
  -29.9052  -16.6922   21.5371 C   0  0  0  0  0  0
  -30.1100  -15.3528   21.6225 C   0  0  0  0  0  0
  -30.2295  -23.4717   19.5948 C   0  0  0  0  0  0
  -27.7575  -18.1929   20.1452 C   0  0  0  0  0  0
  -35.2466  -18.1515   17.7407 C   0  0  0  0  0  0
  -31.2813  -21.4928   18.5137 C   0  0  0  0  0  0
  -29.8974  -24.9478   19.2976 C   0  0  0  0  0  0
  -34.6529  -17.7353   19.0891 C   0  0  0  0  0  0
  -28.4571  -25.3799   19.6371 C   0  0  0  0  0  0
  -34.3033  -18.9444   19.9758 C   0  0  0  0  0  0
  -30.3357  -22.6186   18.5613 N   0  0  0  0  0  0
  -30.5099  -23.1388   20.7472 O   0  0  0  0  0  0
  -33.2259  -19.7037   19.4302 O   0  0  0  0  0  0
  -31.4719  -12.4430   19.0894 H   0  0  0  0  0  0
  -30.3367  -11.3077   19.7642 H   0  0  0  0  0  0
  -29.7285  -11.8411   17.3861 H   0  0  0  0  0  0
  -29.6448  -13.5429   17.7802 H   0  0  0  0  0  0
  -27.8266  -11.3282   18.7950 H   0  0  0  0  0  0
  -27.3580  -12.6674   17.7843 H   0  0  0  0  0  0
  -27.7181  -14.2591   19.5910 H   0  0  0  0  0  0
  -28.6981  -11.9017   21.2823 H   0  0  0  0  0  0
  -28.4112  -13.4929   21.8780 H   0  0  0  0  0  0
  -25.2789   -9.5700   22.4719 H   0  0  0  0  0  0
  -24.0022   -7.4655   22.7496 H   0  0  0  0  0  0
  -21.0821   -8.8799   19.8973 H   0  0  0  0  0  0
  -22.3707  -10.9677   19.6158 H   0  0  0  0  0  0
  -21.2042   -7.6164   23.9717 H   0  0  0  0  0  0
  -21.1461   -6.0522   25.9068 H   0  0  0  0  0  0
  -22.0612   -2.7625   23.2819 H   0  0  0  0  0  0
  -22.4163  -11.9894   22.4773 H   0  0  0  0  0  0
  -21.1172  -13.1297   22.2643 H   0  0  0  0  0  0
  -24.6633  -15.8459   20.4879 H   0  0  0  0  0  0
  -26.2889  -15.6186   20.0852 H   0  0  0  0  0  0
  -26.7065  -32.5551   23.1153 H   0  0  0  0  0  0
  -25.0024  -33.9815   25.0496 H   0  0  0  0  0  0
  -22.6838  -31.3152   21.4196 H   0  0  0  0  0  0
  -23.3768  -35.9634   23.3295 H   0  0  0  0  0  0
  -24.3588  -36.8922   22.2043 H   0  0  0  0  0  0
  -23.7228  -37.6510   23.6643 H   0  0  0  0  0  0
  -26.0270  -31.6113   20.6024 H   0  0  0  0  0  0
  -26.8167  -30.8963   21.9774 H   0  0  0  0  0  0
  -28.0983  -29.1149   21.1281 H   0  0  0  0  0  0
  -25.9754  -25.9714   19.0334 H   0  0  0  0  0  0
  -23.9478  -27.2949   19.0786 H   0  0  0  0  0  0
  -23.7018  -30.6049   19.4112 H   0  0  0  0  0  0
  -22.7245  -29.2454   19.8830 H   0  0  0  0  0  0
  -25.1271  -36.1990   25.0844 H   0  0  0  0  0  0
  -20.9946  -28.3266   24.1478 H   0  0  0  0  0  0
  -20.5677  -26.2296   23.3640 H   0  0  0  0  0  0
  -21.6633  -26.7467   22.1240 H   0  0  0  0  0  0
  -19.6933  -25.6306   21.1254 H   0  0  0  0  0  0
  -19.6696  -27.3221   20.6780 H   0  0  0  0  0  0
  -17.4195  -26.6684   21.4033 H   0  0  0  0  0  0
  -18.0318  -26.0081   22.9032 H   0  0  0  0  0  0
  -19.7904  -30.7270   24.2304 H   0  0  0  0  0  0
  -17.4983  -31.6277   24.5164 H   0  0  0  0  0  0
  -15.5329  -30.2984   23.7652 H   0  0  0  0  0  0
  -15.8654  -28.0838   22.7024 H   0  0  0  0  0  0
  -24.5955  -30.6930   25.7755 H   0  0  0  0  0  0
  -24.8819  -32.2770   26.4830 H   0  0  0  0  0  0
  -25.8051  -30.8847   27.0212 H   0  0  0  0  0  0
  -26.2819  -29.6819   24.0998 H   0  0  0  0  0  0
  -27.3926  -29.7154   25.4496 H   0  0  0  0  0  0
  -27.8696  -30.4304   23.9275 H   0  0  0  0  0  0
  -27.2760  -33.3543   26.2051 H   0  0  0  0  0  0
  -28.3887  -32.6705   25.0288 H   0  0  0  0  0  0
  -28.0703  -31.8295   26.5359 H   0  0  0  0  0  0
  -28.2571  -38.0129   24.7544 H   0  0  0  0  0  0
  -28.1120  -36.2646   24.6241 H   0  0  0  0  0  0
  -27.2300  -37.1386   25.8864 H   0  0  0  0  0  0
  -20.9288  -29.8716   21.6924 H   0  0  0  0  0  0
  -26.0193  -38.2876   24.1447 H   0  0  0  0  0  0
  -32.3273  -17.4543   20.7427 H   0  0  0  0  0  0
  -28.7630  -20.3927   18.9238 H   0  0  0  0  0  0
  -29.4362  -17.1135   22.4145 H   0  0  0  0  0  0
  -29.7970  -14.8966   22.5481 H   0  0  0  0  0  0
  -27.5922  -17.1371   19.9320 H   0  0  0  0  0  0
  -27.1263  -18.7684   19.4686 H   0  0  0  0  0  0
  -27.4468  -18.3937   21.1690 H   0  0  0  0  0  0
  -35.4868  -17.2712   17.1426 H   0  0  0  0  0  0
  -36.1537  -18.7452   17.8738 H   0  0  0  0  0  0
  -34.5272  -18.7513   17.1832 H   0  0  0  0  0  0
  -31.5115  -21.2979   17.4658 H   0  0  0  0  0  0
  -32.2133  -21.8422   18.9642 H   0  0  0  0  0  0
  -30.1445  -25.2156   18.2679 H   0  0  0  0  0  0
  -30.5850  -25.5285   19.9120 H   0  0  0  0  0  0
  -35.3628  -17.0971   19.6164 H   0  0  0  0  0  0
  -33.7690  -17.1257   18.9108 H   0  0  0  0  0  0
  -28.0483  -24.7852   20.4546 H   0  0  0  0  0  0
  -27.8593  -25.1896   18.7460 H   0  0  0  0  0  0
  -35.1676  -19.6090   20.0286 H   0  0  0  0  0  0
  -34.1013  -18.6437   21.0039 H   0  0  0  0  0  0
  -30.0244  -22.9587   17.6598 H   0  0  0  0  0  0
  1 25  1  0  0  0
  1 30  2  0  0  0
  1 78  1  0  0  0
  2  3  1  0  0  0
  2 25  1  0  0  0
  2 90  1  0  0  0
  2 91  1  0  0  0
  3  4  1  0  0  0
  3 92  1  0  0  0
  3 93  1  0  0  0
  4  5  1  0  0  0
  4 94  1  0  0  0
  4 95  1  0  0  0
  5  6  1  0  0  0
  5 26  1  0  0  0
  5 96  1  0  0  0
  6 25  1  0  0  0
  6 97  1  0  0  0
  6 98  1  0  0  0
  7  8  2  0  0  0
  7 26  1  0  0  0
  7 29  1  0  0  0
  8  9  1  0  0  0
  8 22  1  0  0  0
  9 10  1  0  0  0
  9 27  2  0  0  0
 10 11  2  0  0  0
 10 15  1  0  0  0
 11 12  1  0  0  0
 11 99  1  0  0  0
 12 13  2  0  0  0
 12100  1  0  0  0
 13 14  1  0  0  0
 13 31  1  0  0  0
 14 15  2  0  0  0
 14101  1  0  0  0
 15102  1  0  0  0
 16 17  2  0  0  0
 16 21  1  0  0  0
 16 31  1  0  0  0
 17 18  1  0  0  0
 17103  1  0  0  0
 18 19  2  0  0  0
 18104  1  0  0  0
 19 20  1  0  0  0
 19 24  1  0  0  0
 20 21  2  0  0  0
 20105  1  0  0  0
 21 23  1  0  0  0
 22 28  1  0  0  0
 22 32  2  0  0  0
 26 27  1  0  0  0
 28106  1  0  0  0
 28107  1  0  0  0
 29108  1  0  0  0
 29109  1  0  0  0
 33 34  1  0  0  0
 33 66  1  0  0  0
 33 70  2  0  0  0
 34 36  1  0  0  0
 34 59  1  0  0  0
 34110  1  0  0  0
 35 44  2  0  0  0
 35 45  1  0  0  0
 35 68  1  0  0  0
 36 56  1  0  0  0
 36111  1  0  0  0
 37 39  1  0  0  0
 37 47  1  0  0  0
 37 66  1  0  0  0
 37112  1  0  0  0
 38 43  2  0  0  0
 38 46  1  0  0  0
 38 47  1  0  0  0
 39 64  1  0  0  0
 39 67  2  0  0  0
 40 52  1  0  0  0
 40 53  2  0  0  0
 40 58  1  0  0  0
 41113  1  0  0  0
 41114  1  0  0  0
 41115  1  0  0  0
 41 48  1  0  0  0
 42 43  1  0  0  0
 42 66  1  0  0  0
 42116  1  0  0  0
 42117  1  0  0  0
 43 44  1  0  0  0
 44118  1  0  0  0
 45 46  2  0  0  0
 45119  1  0  0  0
 46120  1  0  0  0
 47121  1  0  0  0
 47122  1  0  0  0
 48 56  1  0  0  0
 48 65  1  0  0  0
 48123  1  0  0  0
 49 50  1  0  0  0
 49 53  1  0  0  0
 49 64  1  0  0  0
 49124  1  0  0  0
 50 51  1  0  0  0
 50125  1  0  0  0
 50126  1  0  0  0
 51 52  1  0  0  0
 51127  1  0  0  0
 51128  1  0  0  0
 52129  1  0  0  0
 52130  1  0  0  0
 53 54  1  0  0  0
 54 55  2  0  0  0
 54131  1  0  0  0
 55 57  1  0  0  0
 55132  1  0  0  0
 56 69  2  0  0  0
 57 58  2  0  0  0
 57133  1  0  0  0
 58134  1  0  0  0
 59 60  1  0  0  0
 59 61  1  0  0  0
 59 62  1  0  0  0
 60135  1  0  0  0
 60136  1  0  0  0
 60137  1  0  0  0
 61138  1  0  0  0
 61139  1  0  0  0
 61140  1  0  0  0
 62141  1  0  0  0
 62142  1  0  0  0
 62143  1  0  0  0
 63 65  1  0  0  0
 63144  1  0  0  0
 63145  1  0  0  0
 63146  1  0  0  0
 64147  1  0  0  0
 65148  1  0  0  0
 68 85  1  0  0  0
 71 73  2  0  0  0
 71 76  1  0  0  0
 71149  1  0  0  0
 72 74  2  0  0  0
 72 75  1  0  0  0
 72150  1  0  0  0
 73 74  1  0  0  0
 73 77  1  0  0  0
 74 80  1  0  0  0
 75 76  2  0  0  0
 75 82  1  0  0  0
 76 89  1  0  0  0
 77 78  2  0  0  0
 77151  1  0  0  0
 78152  1  0  0  0
 79 83  1  0  0  0
 79 87  1  0  0  0
 79 88  2  0  0  0
 80153  1  0  0  0
 80154  1  0  0  0
 80155  1  0  0  0
 81 84  1  0  0  0
 81156  1  0  0  0
 81157  1  0  0  0
 81158  1  0  0  0
 82 87  1  0  0  0
 82159  1  0  0  0
 82160  1  0  0  0
 83 85  1  0  0  0
 83161  1  0  0  0
 83162  1  0  0  0
 84 86  1  0  0  0
 84163  1  0  0  0
 84164  1  0  0  0
 85165  1  0  0  0
 85166  1  0  0  0
 86 89  1  0  0  0
 86167  1  0  0  0
 86168  1  0  0  0
 87169  1  0  0  0
M  ISO  4   1 100  68 101  78 100  85 101
M  END
> <chiral flag>
0

> <version>
0

> <s_m_source_file>
/data/baiqing/PycharmProjects/Reinvent-master-3.2/result/LINK_invent/BTK/process_docking_weight1_custom_product_contain_oxygen_bond_distance_aromatic_linkinvent_7_9_3/rearranged_h_0104.sdf

> <i_m_source_file_index>
88

> <r_mmod_Potential_Energy-OPLS-2005>
-62.414421081543

> <r_mmod_Stretch_Energy-OPLS-2005>
40.8798675537109

> <r_mmod_Bend_Energy-OPLS-2005>
134.798980712891

> <r_mmod_Torsional_Energy-OPLS-2005>
219.246292114258

> <r_mmod_Improper_Torsional_Energy-OPLS-2005>
6.70320081710815

> <r_mmod_Van_der_Waal_Energy-OPLS-2005>
158.08512878418

> <r_mmod_Electrostatic_Energy-OPLS-2005>
-399.952178955078

> <r_mmod_Solvation_Energy-OPLS-2005>
-233.18473815918

> <b_mmod_Minimization_Converged-OPLS-2005>
0

> <r_mmod_RMS_Derivative-OPLS-2005>
4.22509765625

$$$$
89
                    3D
 Structure written by MMmdl.
150158  0  0  1  0            999 V2000
  -30.5075  -15.0552   20.3854 C   0  0  0  0  0  0
  -30.4451  -12.6527   19.5200 C   0  0  0  0  0  0
  -29.5293  -12.5234   18.2778 C   0  0  0  0  0  0
  -28.0736  -12.2775   18.7110 C   0  0  0  0  0  0
  -27.6274  -13.2474   19.8347 C   0  0  2  0  0  0
  -28.6645  -13.3455   20.9758 C   0  0  0  0  0  0
  -25.2479  -13.8225   20.5730 C   0  0  0  0  0  0
  -24.1789  -13.0447   20.9229 C   0  0  0  0  0  0
  -24.6405  -11.6933   20.8774 C   0  0  0  0  0  0
  -23.9089  -10.4301   21.0429 C   0  0  0  0  0  0
  -24.3644   -9.4208   21.9193 C   0  0  0  0  0  0
  -23.6311   -8.2248   22.0753 C   0  0  0  0  0  0
  -22.4288   -8.0299   21.3554 C   0  0  0  0  0  0
  -21.9942   -9.0263   20.4645 C   0  0  0  0  0  0
  -22.7278  -10.2139   20.3058 C   0  0  0  0  0  0
  -21.6855   -6.0749   22.5275 C   0  0  0  0  0  0
  -21.4011   -6.5650   23.8208 C   0  0  0  0  0  0
  -21.3656   -5.6805   24.9171 C   0  0  0  0  0  0
  -21.6042   -4.3064   24.7224 C   0  0  0  0  0  0
  -21.8825   -3.8156   23.4343 C   0  0  0  0  0  0
  -21.9196   -4.6976   22.3402 C   0  0  0  0  0  0
  -22.7805  -13.5206   21.1866 C   0  0  0  0  0  0
  -22.1665   -4.2172   21.0981 F   0  0  0  0  0  0
  -21.5635   -3.4541   25.7727 F   0  0  0  0  0  0
  -29.9297  -13.7766   20.3671 N   0  0  0  0  0  0
  -26.2885  -12.9445   20.3266 N   0  0  0  0  0  0
  -25.9335  -11.6576   20.5758 N   0  0  0  0  0  0
  -22.0462  -12.8180   22.0416 N   0  0  0  0  0  0
  -25.4179  -15.1959   20.4175 N   0  0  0  0  0  0
  -31.7119  -15.1006   20.1069 O   0  0  0  0  0  0
  -21.6651   -6.8901   21.4235 O   0  0  0  0  0  0
  -22.3493  -14.5515   20.6717 O   0  0  0  0  0  0
  -24.6523  -31.8327   23.1818 C   0  0  0  0  0  0
  -25.9255  -32.4625   23.8240 C   0  0  1  0  0  0
  -27.2256  -27.0532   20.1657 C   0  0  0  0  0  0
  -25.5967  -33.8445   24.2138 N   0  0  0  0  0  0
  -23.4615  -30.4493   21.5256 C   0  0  2  0  0  0
  -24.9188  -28.8631   20.1013 C   0  0  0  0  0  0
  -22.7603  -29.4498   22.4806 C   0  0  0  0  0  0
  -18.0350  -28.1408   22.8484 C   0  0  0  0  0  0
  -24.1499  -36.7238   23.2644 C   0  0  0  0  0  0
  -26.0224  -30.6777   21.3984 C   0  0  0  0  0  0
  -26.0939  -29.2830   20.7364 C   0  0  0  0  0  0
  -27.2426  -28.3924   20.7552 C   0  0  0  0  0  0
  -26.0266  -26.7549   19.4814 C   0  0  0  0  0  0
  -24.9022  -27.6152   19.4562 C   0  0  0  0  0  0
  -23.6972  -29.7730   20.1459 C   0  0  0  0  0  0
  -25.4132  -36.2997   24.0302 C   0  0  1  0  0  0
  -20.5961  -28.3742   23.1220 C   0  0  2  0  0  0
  -20.6848  -26.9440   22.5418 C   0  0  0  0  0  0
  -19.5825  -26.6392   21.5217 C   0  0  0  0  0  0
  -18.1993  -26.7951   22.1630 C   0  0  0  0  0  0
  -19.1616  -28.8885   23.2845 C   0  0  0  0  0  0
  -18.9536  -30.1470   23.8867 C   0  0  0  0  0  0
  -17.6545  -30.6607   24.0534 C   0  0  0  0  0  0
  -25.9081  -34.9371   23.5038 C   0  0  0  0  0  0
  -16.5423  -29.9118   23.6331 C   0  0  0  0  0  0
  -16.7342  -28.6515   23.0378 C   0  0  0  0  0  0
  -26.4568  -31.6546   25.0730 C   0  0  0  0  0  0
  -25.3728  -31.3775   26.1407 C   0  0  0  0  0  0
  -27.0455  -30.2927   24.6384 C   0  0  0  0  0  0
  -27.6068  -32.4352   25.7532 C   0  0  0  0  0  0
  -27.5576  -37.1775   24.8467 C   0  0  0  0  0  0
  -21.4290  -29.3068   22.3573 N   0  0  0  0  0  0
  -26.4291  -37.3719   23.9407 N   0  0  0  0  0  0
  -24.7318  -31.0112   22.0907 N   0  0  0  0  0  0
  -23.4207  -28.8043   23.2988 O   0  0  0  0  0  0
  -28.2070  -25.9841   20.3494 O   0  0  0  0  0  0
  -26.5680  -34.8876   22.4627 O   0  0  0  0  0  0
  -23.5618  -32.1257   23.6980 O   0  0  0  0  0  0
  -29.2725  -20.5873   19.9071 C   0  0  0  0  0  0
  -28.2554  -21.7539   21.7589 C   0  0  0  0  0  0
  -28.7126  -19.2873   21.8619 C   0  0  0  0  0  0
  -28.7298  -21.8926   20.4331 C   0  0  0  0  0  0
  -29.3012  -19.2421   20.5818 C   0  0  0  0  0  0
  -28.2237  -20.4956   22.4309 C   0  0  0  0  0  0
  -28.5424  -23.3005   19.6261 C   0  0  0  0  0  0
  -28.3054  -24.7360   19.5622 C   0  0  0  0  0  0
  -29.9883  -17.7944   20.0529 C   0  0  0  0  0  0
  -27.6749  -20.4273   23.7108 N   0  0  0  0  0  0
  -29.7303  -16.2667   20.4958 N   0  0  0  0  0  0
  -31.4751  -12.8213   19.2018 H   0  0  0  0  0  0
  -30.4634  -11.7223   20.0918 H   0  0  0  0  0  0
  -29.8730  -11.7081   17.6399 H   0  0  0  0  0  0
  -29.5893  -13.4328   17.6783 H   0  0  0  0  0  0
  -28.0142  -11.2496   19.0767 H   0  0  0  0  0  0
  -27.4004  -12.3373   17.8555 H   0  0  0  0  0  0
  -27.5738  -14.2293   19.3620 H   0  0  0  0  0  0
  -28.7803  -12.3938   21.4973 H   0  0  0  0  0  0
  -28.3432  -14.0733   21.7237 H   0  0  0  0  0  0
  -25.2786   -9.5685   22.4779 H   0  0  0  0  0  0
  -24.0016   -7.4638   22.7480 H   0  0  0  0  0  0
  -21.0878   -8.8789   19.8941 H   0  0  0  0  0  0
  -22.3743  -10.9683   19.6174 H   0  0  0  0  0  0
  -21.1992   -7.6155   23.9720 H   0  0  0  0  0  0
  -21.1471   -6.0530   25.9081 H   0  0  0  0  0  0
  -22.0607   -2.7618   23.2831 H   0  0  0  0  0  0
  -22.4085  -11.9818   22.4754 H   0  0  0  0  0  0
  -21.1066  -13.1172   22.2627 H   0  0  0  0  0  0
  -24.6530  -15.8508   20.5414 H   0  0  0  0  0  0
  -26.2623  -15.6359   20.0761 H   0  0  0  0  0  0
  -26.7328  -32.5209   23.0961 H   0  0  0  0  0  0
  -25.0078  -33.9552   25.0264 H   0  0  0  0  0  0
  -22.7689  -31.2790   21.3621 H   0  0  0  0  0  0
  -23.3749  -35.9586   23.3299 H   0  0  0  0  0  0
  -24.3567  -36.8893   22.2059 H   0  0  0  0  0  0
  -23.7270  -37.6438   23.6696 H   0  0  0  0  0  0
  -26.1897  -31.4258   20.6241 H   0  0  0  0  0  0
  -26.8867  -30.7286   22.0482 H   0  0  0  0  0  0
  -28.1274  -28.6946   21.2979 H   0  0  0  0  0  0
  -25.9174  -25.7854   19.0164 H   0  0  0  0  0  0
  -24.0059  -27.2824   18.9518 H   0  0  0  0  0  0
  -23.8436  -30.5469   19.3922 H   0  0  0  0  0  0
  -22.8122  -29.2202   19.8293 H   0  0  0  0  0  0
  -25.1332  -36.1814   25.0794 H   0  0  0  0  0  0
  -21.0038  -28.3352   24.1358 H   0  0  0  0  0  0
  -20.5685  -26.2416   23.3681 H   0  0  0  0  0  0
  -21.6732  -26.7382   22.1299 H   0  0  0  0  0  0
  -19.6977  -25.6284   21.1290 H   0  0  0  0  0  0
  -19.6791  -27.3175   20.6737 H   0  0  0  0  0  0
  -17.4253  -26.6679   21.4057 H   0  0  0  0  0  0
  -18.0433  -26.0081   22.9028 H   0  0  0  0  0  0
  -19.8025  -30.7310   24.2181 H   0  0  0  0  0  0
  -17.5095  -31.6298   24.5109 H   0  0  0  0  0  0
  -15.5422  -30.3025   23.7637 H   0  0  0  0  0  0
  -15.8727  -28.0817   22.7140 H   0  0  0  0  0  0
  -24.5898  -30.7134   25.7724 H   0  0  0  0  0  0
  -24.8932  -32.2981   26.4748 H   0  0  0  0  0  0
  -25.7988  -30.8999   27.0237 H   0  0  0  0  0  0
  -26.3100  -29.6615   24.1373 H   0  0  0  0  0  0
  -27.4023  -29.7269   25.5003 H   0  0  0  0  0  0
  -27.9039  -30.4147   23.9766 H   0  0  0  0  0  0
  -27.2621  -33.3665   26.2040 H   0  0  0  0  0  0
  -28.3922  -32.6892   25.0402 H   0  0  0  0  0  0
  -28.0682  -31.8526   26.5514 H   0  0  0  0  0  0
  -28.2591  -38.0071   24.7484 H   0  0  0  0  0  0
  -28.1068  -36.2591   24.6332 H   0  0  0  0  0  0
  -27.2277  -37.1477   25.8866 H   0  0  0  0  0  0
  -20.9509  -29.8803   21.6762 H   0  0  0  0  0  0
  -26.0143  -38.2791   24.1396 H   0  0  0  0  0  0
  -29.6821  -20.6127   18.9080 H   0  0  0  0  0  0
  -27.8440  -22.6270   22.2471 H   0  0  0  0  0  0
  -28.6580  -18.3662   22.4294 H   0  0  0  0  0  0
  -28.5549  -22.9839   18.5914 H   0  0  0  0  0  0
  -28.2092  -25.0691   18.5374 H   0  0  0  0  0  0
  -31.0653  -17.9411   20.1583 H   0  0  0  0  0  0
  -29.8228  -17.7901   18.9751 H   0  0  0  0  0  0
  -27.4461  -21.2611   24.2412 H   0  0  0  0  0  0
  -27.6138  -19.5546   24.2276 H   0  0  0  0  0  0
  -28.7674  -16.0798   20.7344 H   0  0  0  0  0  0
  1 25  1  0  0  0
  1 30  2  0  0  0
  1 81  1  0  0  0
  2  3  1  0  0  0
  2 25  1  0  0  0
  2 82  1  0  0  0
  2 83  1  0  0  0
  3  4  1  0  0  0
  3 84  1  0  0  0
  3 85  1  0  0  0
  4  5  1  0  0  0
  4 86  1  0  0  0
  4 87  1  0  0  0
  5  6  1  0  0  0
  5 26  1  0  0  0
  5 88  1  0  0  0
  6 25  1  0  0  0
  6 89  1  0  0  0
  6 90  1  0  0  0
  7  8  2  0  0  0
  7 26  1  0  0  0
  7 29  1  0  0  0
  8  9  1  0  0  0
  8 22  1  0  0  0
  9 10  1  0  0  0
  9 27  2  0  0  0
 10 11  2  0  0  0
 10 15  1  0  0  0
 11 12  1  0  0  0
 11 91  1  0  0  0
 12 13  2  0  0  0
 12 92  1  0  0  0
 13 14  1  0  0  0
 13 31  1  0  0  0
 14 15  2  0  0  0
 14 93  1  0  0  0
 15 94  1  0  0  0
 16 17  2  0  0  0
 16 21  1  0  0  0
 16 31  1  0  0  0
 17 18  1  0  0  0
 17 95  1  0  0  0
 18 19  2  0  0  0
 18 96  1  0  0  0
 19 20  1  0  0  0
 19 24  1  0  0  0
 20 21  2  0  0  0
 20 97  1  0  0  0
 21 23  1  0  0  0
 22 28  1  0  0  0
 22 32  2  0  0  0
 26 27  1  0  0  0
 28 98  1  0  0  0
 28 99  1  0  0  0
 29100  1  0  0  0
 29101  1  0  0  0
 33 34  1  0  0  0
 33 66  1  0  0  0
 33 70  2  0  0  0
 34 36  1  0  0  0
 34 59  1  0  0  0
 34102  1  0  0  0
 35 44  2  0  0  0
 35 45  1  0  0  0
 35 68  1  0  0  0
 36 56  1  0  0  0
 36103  1  0  0  0
 37 39  1  0  0  0
 37 47  1  0  0  0
 37 66  1  0  0  0
 37104  1  0  0  0
 38 43  2  0  0  0
 38 46  1  0  0  0
 38 47  1  0  0  0
 39 64  1  0  0  0
 39 67  2  0  0  0
 40 52  1  0  0  0
 40 53  2  0  0  0
 40 58  1  0  0  0
 41105  1  0  0  0
 41106  1  0  0  0
 41107  1  0  0  0
 41 48  1  0  0  0
 42 43  1  0  0  0
 42 66  1  0  0  0
 42108  1  0  0  0
 42109  1  0  0  0
 43 44  1  0  0  0
 44110  1  0  0  0
 45 46  2  0  0  0
 45111  1  0  0  0
 46112  1  0  0  0
 47113  1  0  0  0
 47114  1  0  0  0
 48 56  1  0  0  0
 48 65  1  0  0  0
 48115  1  0  0  0
 49 50  1  0  0  0
 49 53  1  0  0  0
 49 64  1  0  0  0
 49116  1  0  0  0
 50 51  1  0  0  0
 50117  1  0  0  0
 50118  1  0  0  0
 51 52  1  0  0  0
 51119  1  0  0  0
 51120  1  0  0  0
 52121  1  0  0  0
 52122  1  0  0  0
 53 54  1  0  0  0
 54 55  2  0  0  0
 54123  1  0  0  0
 55 57  1  0  0  0
 55124  1  0  0  0
 56 69  2  0  0  0
 57 58  2  0  0  0
 57125  1  0  0  0
 58126  1  0  0  0
 59 60  1  0  0  0
 59 61  1  0  0  0
 59 62  1  0  0  0
 60127  1  0  0  0
 60128  1  0  0  0
 60129  1  0  0  0
 61130  1  0  0  0
 61131  1  0  0  0
 61132  1  0  0  0
 62133  1  0  0  0
 62134  1  0  0  0
 62135  1  0  0  0
 63 65  1  0  0  0
 63136  1  0  0  0
 63137  1  0  0  0
 63138  1  0  0  0
 64139  1  0  0  0
 65140  1  0  0  0
 68 78  1  0  0  0
 71 74  2  0  0  0
 71 75  1  0  0  0
 71141  1  0  0  0
 72 74  1  0  0  0
 72 76  2  0  0  0
 72142  1  0  0  0
 73 75  2  0  0  0
 73 76  1  0  0  0
 73143  1  0  0  0
 74 77  1  0  0  0
 75 79  1  0  0  0
 76 80  1  0  0  0
 77 78  2  0  0  0
 77144  1  0  0  0
 78145  1  0  0  0
 79 81  1  0  0  0
 79146  1  0  0  0
 79147  1  0  0  0
 80148  1  0  0  0
 80149  1  0  0  0
 81150  1  0  0  0
M  ISO  4   1 100  68 101  78 101  81 100
M  END
> <chiral flag>
0

> <version>
0

> <s_m_source_file>
/data/baiqing/PycharmProjects/Reinvent-master-3.2/result/LINK_invent/BTK/process_docking_weight1_custom_product_contain_oxygen_bond_distance_aromatic_linkinvent_7_9_3/rearranged_h_0104.sdf

> <i_m_source_file_index>
89

> <r_mmod_Potential_Energy-OPLS-2005>
723.790100097656

> <r_mmod_Stretch_Energy-OPLS-2005>
325.736572265625

> <r_mmod_Bend_Energy-OPLS-2005>
386.733947753906

> <r_mmod_Torsional_Energy-OPLS-2005>
218.520324707031

> <r_mmod_Improper_Torsional_Energy-OPLS-2005>
7.15061616897583

> <r_mmod_Van_der_Waal_Energy-OPLS-2005>
126.505210876465

> <r_mmod_Electrostatic_Energy-OPLS-2005>
-408.539184570312

> <r_mmod_Solvation_Energy-OPLS-2005>
-223.542907714844

> <b_mmod_Minimization_Converged-OPLS-2005>
0

> <r_mmod_RMS_Derivative-OPLS-2005>
3.86710739135742

$$$$
90
                    3D
 Structure written by MMmdl.
160169  0  0  1  0            999 V2000
  -30.6175  -14.6541   20.4934 C   0  0  0  0  0  0
  -30.4447  -12.4013   19.4488 C   0  0  0  0  0  0
  -29.5095  -12.5081   18.2225 C   0  0  0  0  0  0
  -28.0311  -12.3486   18.6340 C   0  0  0  0  0  0
  -27.6539  -13.2183   19.8628 C   0  0  2  0  0  0
  -28.7030  -13.0758   20.9895 C   0  0  0  0  0  0
  -25.2560  -13.8160   20.5694 C   0  0  0  0  0  0
  -24.1829  -13.0417   20.9168 C   0  0  0  0  0  0
  -24.6406  -11.6895   20.8720 C   0  0  0  0  0  0
  -23.9073  -10.4281   21.0396 C   0  0  0  0  0  0
  -24.3622   -9.4202   21.9180 C   0  0  0  0  0  0
  -23.6295   -8.2239   22.0751 C   0  0  0  0  0  0
  -22.4276   -8.0277   21.3542 C   0  0  0  0  0  0
  -21.9914   -9.0252   20.4645 C   0  0  0  0  0  0
  -22.7245  -10.2127   20.3050 C   0  0  0  0  0  0
  -21.6854   -6.0735   22.5281 C   0  0  0  0  0  0
  -21.4017   -6.5639   23.8213 C   0  0  0  0  0  0
  -21.3655   -5.6792   24.9175 C   0  0  0  0  0  0
  -21.6043   -4.3055   24.7227 C   0  0  0  0  0  0
  -21.8820   -3.8147   23.4348 C   0  0  0  0  0  0
  -21.9195   -4.6964   22.3405 C   0  0  0  0  0  0
  -22.7852  -13.5215   21.1839 C   0  0  0  0  0  0
  -22.1664   -4.2150   21.0983 F   0  0  0  0  0  0
  -21.5626   -3.4538   25.7739 F   0  0  0  0  0  0
  -30.0167  -13.4235   20.4228 N   0  0  0  0  0  0
  -26.3002  -12.9356   20.3333 N   0  0  0  0  0  0
  -25.9344  -11.6502   20.5760 N   0  0  0  0  0  0
  -22.0503  -12.8206   22.0401 N   0  0  0  0  0  0
  -25.4206  -15.1886   20.4188 N   0  0  0  0  0  0
  -31.7884  -14.8213   20.1390 O   0  0  0  0  0  0
  -21.6636   -6.8878   21.4242 O   0  0  0  0  0  0
  -22.3525  -14.5521   20.6697 O   0  0  0  0  0  0
  -24.6252  -31.8599   23.2022 C   0  0  0  0  0  0
  -25.9099  -32.4779   23.8351 C   0  0  1  0  0  0
  -27.2284  -27.3144   20.1168 C   0  0  0  0  0  0
  -25.5918  -33.8583   24.2277 N   0  0  0  0  0  0
  -23.4203  -30.4845   21.5436 C   0  0  2  0  0  0
  -24.8686  -28.9385   20.1108 C   0  0  0  0  0  0
  -22.7465  -29.4639   22.4916 C   0  0  0  0  0  0
  -18.0293  -28.1398   22.8499 C   0  0  0  0  0  0
  -24.1490  -36.7287   23.2641 C   0  0  0  0  0  0
  -25.9617  -30.7893   21.3754 C   0  0  0  0  0  0
  -26.0369  -29.4167   20.7166 C   0  0  0  0  0  0
  -27.2181  -28.6151   20.7115 C   0  0  0  0  0  0
  -26.0363  -26.8958   19.4796 C   0  0  0  0  0  0
  -24.8697  -27.6833   19.4852 C   0  0  0  0  0  0
  -23.6370  -29.8199   20.1589 C   0  0  0  0  0  0
  -25.4117  -36.3085   24.0329 C   0  0  1  0  0  0
  -20.5897  -28.3700   23.1276 C   0  0  2  0  0  0
  -20.6773  -26.9422   22.5408 C   0  0  0  0  0  0
  -19.5747  -26.6397   21.5211 C   0  0  0  0  0  0
  -18.1932  -26.7945   22.1632 C   0  0  0  0  0  0
  -19.1546  -28.8864   23.2887 C   0  0  0  0  0  0
  -18.9473  -30.1466   23.8906 C   0  0  0  0  0  0
  -17.6473  -30.6595   24.0577 C   0  0  0  0  0  0
  -25.9046  -34.9452   23.5102 C   0  0  0  0  0  0
  -16.5363  -29.9098   23.6336 C   0  0  0  0  0  0
  -16.7283  -28.6517   23.0354 C   0  0  0  0  0  0
  -26.4484  -31.6591   25.0723 C   0  0  0  0  0  0
  -25.3720  -31.3744   26.1457 C   0  0  0  0  0  0
  -27.0318  -30.3014   24.6182 C   0  0  0  0  0  0
  -27.6047  -32.4321   25.7494 C   0  0  0  0  0  0
  -27.5584  -37.1802   24.8466 C   0  0  0  0  0  0
  -21.4180  -29.3055   22.3651 N   0  0  0  0  0  0
  -26.4292  -37.3784   23.9409 N   0  0  0  0  0  0
  -24.6875  -31.0605   22.0979 N   0  0  0  0  0  0
  -23.4184  -28.8178   23.3002 O   0  0  0  0  0  0
  -28.3470  -26.4612   20.1795 O   0  0  0  0  0  0
  -26.5621  -34.8912   22.4673 O   0  0  0  0  0  0
  -23.5404  -32.1408   23.7330 O   0  0  0  0  0  0
  -28.6128  -19.3044   20.6084 C   0  0  0  0  0  0
  -31.0531  -17.9300   20.7540 C   0  0  0  0  0  0
  -29.7861  -20.0941   20.7333 C   0  0  0  0  0  0
  -29.8677  -17.1527   20.6900 C   0  0  0  0  0  0
  -31.0246  -19.3712   20.7708 C   0  0  0  0  0  0
  -28.6550  -17.8809   20.5939 C   0  0  0  0  0  0
  -29.1903  -23.9697   20.5591 C   0  0  0  0  0  0
  -30.2058  -24.3664   21.4189 C   0  0  0  0  0  0
  -29.0597  -22.5048   20.1957 C   0  0  0  0  0  0
  -31.1237  -23.3117   22.0177 C   0  0  0  0  0  0
  -30.3458  -22.0112   22.2168 C   0  0  0  0  0  0
  -33.4237  -19.4672   21.0156 C   0  0  0  0  0  0
  -28.1501  -25.0028   19.9713 C   0  0  0  0  0  0
  -29.7245  -21.5559   20.9667 N   0  0  0  0  0  0
  -29.7756  -15.6938   20.7841 N   0  0  0  0  0  0
  -30.5275  -25.4864   21.8795 O   0  5  0  0  0  0
  -28.3885  -22.1579   19.2227 O   0  0  0  0  0  0
  -32.1776  -20.1284   20.8331 O   0  0  0  0  0  0
  -27.4950  -17.1874   20.5087 F   0  0  0  0  0  0
  -31.4840  -12.5358   19.1434 H   0  0  0  0  0  0
  -30.3885  -11.4074   19.8946 H   0  0  0  0  0  0
  -29.7735  -11.7541   17.4801 H   0  0  0  0  0  0
  -29.6499  -13.4751   17.7372 H   0  0  0  0  0  0
  -27.8632  -11.2957   18.8616 H   0  0  0  0  0  0
  -27.3783  -12.5843   17.7927 H   0  0  0  0  0  0
  -27.6659  -14.2529   19.5192 H   0  0  0  0  0  0
  -28.7186  -12.0539   21.3718 H   0  0  0  0  0  0
  -28.4495  -13.7073   21.8428 H   0  0  0  0  0  0
  -25.2769   -9.5677   22.4750 H   0  0  0  0  0  0
  -24.0003   -7.4634   22.7473 H   0  0  0  0  0  0
  -21.0842   -8.8778   19.8953 H   0  0  0  0  0  0
  -22.3711  -10.9666   19.6154 H   0  0  0  0  0  0
  -21.2010   -7.6147   23.9718 H   0  0  0  0  0  0
  -21.1476   -6.0520   25.9077 H   0  0  0  0  0  0
  -22.0601   -2.7610   23.2850 H   0  0  0  0  0  0
  -22.4124  -11.9862   22.4777 H   0  0  0  0  0  0
  -21.1127  -13.1235   22.2620 H   0  0  0  0  0  0
  -24.6551  -15.8351   20.5684 H   0  0  0  0  0  0
  -26.2871  -15.6654   20.1943 H   0  0  0  0  0  0
  -26.7172  -32.5460   23.1100 H   0  0  0  0  0  0
  -25.0048  -33.9736   25.0412 H   0  0  0  0  0  0
  -22.7148  -31.3052   21.3986 H   0  0  0  0  0  0
  -23.3747  -35.9626   23.3305 H   0  0  0  0  0  0
  -24.3575  -36.8902   22.2055 H   0  0  0  0  0  0
  -23.7233  -37.6485   23.6655 H   0  0  0  0  0  0
  -26.0952  -31.5542   20.6088 H   0  0  0  0  0  0
  -26.8400  -30.8371   22.0073 H   0  0  0  0  0  0
  -28.1118  -28.9740   21.2021 H   0  0  0  0  0  0
  -25.9789  -25.9410   18.9795 H   0  0  0  0  0  0
  -23.9736  -27.3129   19.0062 H   0  0  0  0  0  0
  -23.7576  -30.5951   19.4015 H   0  0  0  0  0  0
  -22.7566  -29.2515   19.8546 H   0  0  0  0  0  0
  -25.1296  -36.1941   25.0820 H   0  0  0  0  0  0
  -21.0020  -28.3281   24.1385 H   0  0  0  0  0  0
  -20.5663  -26.2315   23.3608 H   0  0  0  0  0  0
  -21.6641  -26.7436   22.1217 H   0  0  0  0  0  0
  -19.6896  -25.6306   21.1244 H   0  0  0  0  0  0
  -19.6684  -27.3198   20.6737 H   0  0  0  0  0  0
  -17.4200  -26.6698   21.4033 H   0  0  0  0  0  0
  -18.0335  -26.0080   22.9030 H   0  0  0  0  0  0
  -19.7945  -30.7282   24.2277 H   0  0  0  0  0  0
  -17.5026  -31.6280   24.5172 H   0  0  0  0  0  0
  -15.5365  -30.3005   23.7644 H   0  0  0  0  0  0
  -15.8686  -28.0831   22.7068 H   0  0  0  0  0  0
  -24.5893  -30.7083   25.7799 H   0  0  0  0  0  0
  -24.8909  -32.2919   26.4864 H   0  0  0  0  0  0
  -25.8056  -30.8945   27.0238 H   0  0  0  0  0  0
  -26.2893  -29.6773   24.1194 H   0  0  0  0  0  0
  -27.3994  -29.7266   25.4687 H   0  0  0  0  0  0
  -27.8773  -30.4284   23.9416 H   0  0  0  0  0  0
  -27.2664  -33.3621   26.2076 H   0  0  0  0  0  0
  -28.3867  -32.6879   25.0332 H   0  0  0  0  0  0
  -28.0702  -31.8434   26.5413 H   0  0  0  0  0  0
  -28.2608  -38.0095   24.7521 H   0  0  0  0  0  0
  -28.1072  -36.2626   24.6286 H   0  0  0  0  0  0
  -27.2300  -37.1453   25.8869 H   0  0  0  0  0  0
  -20.9339  -29.8800   21.6890 H   0  0  0  0  0  0
  -26.0167  -38.2854   24.1419 H   0  0  0  0  0  0
  -27.6482  -19.7882   20.5764 H   0  0  0  0  0  0
  -31.9872  -17.3953   20.8204 H   0  0  0  0  0  0
  -31.5395  -23.6198   22.9803 H   0  0  0  0  0  0
  -31.9735  -23.1355   21.3547 H   0  0  0  0  0  0
  -29.5460  -22.1789   22.9391 H   0  0  0  0  0  0
  -30.9875  -21.2571   22.6696 H   0  0  0  0  0  0
  -34.2214  -20.2076   21.0718 H   0  0  0  0  0  0
  -33.6536  -18.8023   20.1822 H   0  0  0  0  0  0
  -33.4391  -18.8985   21.9467 H   0  0  0  0  0  0
  -27.1967  -24.7064   20.4094 H   0  0  0  0  0  0
  -28.0711  -24.8296   18.8975 H   0  0  0  0  0  0
  -28.8383  -15.3768   20.9792 H   0  0  0  0  0  0
  1 25  1  0  0  0
  1 30  2  0  0  0
  1 85  1  0  0  0
  2  3  1  0  0  0
  2 25  1  0  0  0
  2 90  1  0  0  0
  2 91  1  0  0  0
  3  4  1  0  0  0
  3 92  1  0  0  0
  3 93  1  0  0  0
  4  5  1  0  0  0
  4 94  1  0  0  0
  4 95  1  0  0  0
  5  6  1  0  0  0
  5 26  1  0  0  0
  5 96  1  0  0  0
  6 25  1  0  0  0
  6 97  1  0  0  0
  6 98  1  0  0  0
  7  8  2  0  0  0
  7 26  1  0  0  0
  7 29  1  0  0  0
  8  9  1  0  0  0
  8 22  1  0  0  0
  9 10  1  0  0  0
  9 27  2  0  0  0
 10 11  2  0  0  0
 10 15  1  0  0  0
 11 12  1  0  0  0
 11 99  1  0  0  0
 12 13  2  0  0  0
 12100  1  0  0  0
 13 14  1  0  0  0
 13 31  1  0  0  0
 14 15  2  0  0  0
 14101  1  0  0  0
 15102  1  0  0  0
 16 17  2  0  0  0
 16 21  1  0  0  0
 16 31  1  0  0  0
 17 18  1  0  0  0
 17103  1  0  0  0
 18 19  2  0  0  0
 18104  1  0  0  0
 19 20  1  0  0  0
 19 24  1  0  0  0
 20 21  2  0  0  0
 20105  1  0  0  0
 21 23  1  0  0  0
 22 28  1  0  0  0
 22 32  2  0  0  0
 26 27  1  0  0  0
 28106  1  0  0  0
 28107  1  0  0  0
 29108  1  0  0  0
 29109  1  0  0  0
 33 34  1  0  0  0
 33 66  1  0  0  0
 33 70  2  0  0  0
 34 36  1  0  0  0
 34 59  1  0  0  0
 34110  1  0  0  0
 35 44  2  0  0  0
 35 45  1  0  0  0
 35 68  1  0  0  0
 36 56  1  0  0  0
 36111  1  0  0  0
 37 39  1  0  0  0
 37 47  1  0  0  0
 37 66  1  0  0  0
 37112  1  0  0  0
 38 43  2  0  0  0
 38 46  1  0  0  0
 38 47  1  0  0  0
 39 64  1  0  0  0
 39 67  2  0  0  0
 40 52  1  0  0  0
 40 53  2  0  0  0
 40 58  1  0  0  0
 41113  1  0  0  0
 41114  1  0  0  0
 41115  1  0  0  0
 41 48  1  0  0  0
 42 43  1  0  0  0
 42 66  1  0  0  0
 42116  1  0  0  0
 42117  1  0  0  0
 43 44  1  0  0  0
 44118  1  0  0  0
 45 46  2  0  0  0
 45119  1  0  0  0
 46120  1  0  0  0
 47121  1  0  0  0
 47122  1  0  0  0
 48 56  1  0  0  0
 48 65  1  0  0  0
 48123  1  0  0  0
 49 50  1  0  0  0
 49 53  1  0  0  0
 49 64  1  0  0  0
 49124  1  0  0  0
 50 51  1  0  0  0
 50125  1  0  0  0
 50126  1  0  0  0
 51 52  1  0  0  0
 51127  1  0  0  0
 51128  1  0  0  0
 52129  1  0  0  0
 52130  1  0  0  0
 53 54  1  0  0  0
 54 55  2  0  0  0
 54131  1  0  0  0
 55 57  1  0  0  0
 55132  1  0  0  0
 56 69  2  0  0  0
 57 58  2  0  0  0
 57133  1  0  0  0
 58134  1  0  0  0
 59 60  1  0  0  0
 59 61  1  0  0  0
 59 62  1  0  0  0
 60135  1  0  0  0
 60136  1  0  0  0
 60137  1  0  0  0
 61138  1  0  0  0
 61139  1  0  0  0
 61140  1  0  0  0
 62141  1  0  0  0
 62142  1  0  0  0
 62143  1  0  0  0
 63 65  1  0  0  0
 63144  1  0  0  0
 63145  1  0  0  0
 63146  1  0  0  0
 64147  1  0  0  0
 65148  1  0  0  0
 68 83  1  0  0  0
 71 73  2  0  0  0
 71 76  1  0  0  0
 71149  1  0  0  0
 72 74  1  0  0  0
 72 75  2  0  0  0
 72150  1  0  0  0
 73 75  1  0  0  0
 73 84  1  0  0  0
 74 76  2  0  0  0
 74 85  1  0  0  0
 75 88  1  0  0  0
 76 89  1  0  0  0
 77 78  2  0  0  0
 77 79  1  0  0  0
 77 83  1  0  0  0
 78 80  1  0  0  0
 78 86  1  0  0  0
 79 84  1  0  0  0
 79 87  2  0  0  0
 80 81  1  0  0  0
 80151  1  0  0  0
 80152  1  0  0  0
 81 84  1  0  0  0
 81153  1  0  0  0
 81154  1  0  0  0
 82 88  1  0  0  0
 82155  1  0  0  0
 82156  1  0  0  0
 82157  1  0  0  0
 83158  1  0  0  0
 83159  1  0  0  0
 85160  1  0  0  0
M  CHG  1  86  -1
M  ISO  4   1 100  68 101  83 101  85 100
M  END
> <chiral flag>
0

> <version>
0

> <s_m_source_file>
/data/baiqing/PycharmProjects/Reinvent-master-3.2/result/LINK_invent/BTK/process_docking_weight1_custom_product_contain_oxygen_bond_distance_aromatic_linkinvent_7_9_3/rearranged_h_0104.sdf

> <i_m_source_file_index>
90

> <r_mmod_Potential_Energy-OPLS-2005>
-198.914642333984

> <r_mmod_Stretch_Energy-OPLS-2005>
95.5604858398438

> <r_mmod_Bend_Energy-OPLS-2005>
156.186279296875

> <r_mmod_Torsional_Energy-OPLS-2005>
268.434112548828

> <r_mmod_Improper_Torsional_Energy-OPLS-2005>
5.43950271606445

> <r_mmod_Van_der_Waal_Energy-OPLS-2005>
170.132919311523

> <r_mmod_Electrostatic_Energy-OPLS-2005>
-450.941558837891

> <r_mmod_Solvation_Energy-OPLS-2005>
-496.462097167969

> <b_mmod_Minimization_Converged-OPLS-2005>
0

> <r_mmod_RMS_Derivative-OPLS-2005>
1.44170308113098

$$$$
91
                    3D
 Structure written by MMmdl.
168177  0  0  1  0            999 V2000
  -30.6609  -14.6219   20.5813 C   0  0  0  0  0  0
  -30.4345  -12.4029   19.4364 C   0  0  0  0  0  0
  -29.5093  -12.5298   18.2066 C   0  0  0  0  0  0
  -28.0266  -12.3751   18.6077 C   0  0  0  0  0  0
  -27.6545  -13.2171   19.8542 C   0  0  2  0  0  0
  -28.6964  -13.0334   20.9711 C   0  0  0  0  0  0
  -25.2563  -13.8182   20.5619 C   0  0  0  0  0  0
  -24.1808  -13.0452   20.9142 C   0  0  0  0  0  0
  -24.6384  -11.6924   20.8681 C   0  0  0  0  0  0
  -23.9059  -10.4315   21.0391 C   0  0  0  0  0  0
  -24.3604   -9.4221   21.9157 C   0  0  0  0  0  0
  -23.6269   -8.2263   22.0752 C   0  0  0  0  0  0
  -22.4242   -8.0302   21.3569 C   0  0  0  0  0  0
  -21.9892   -9.0279   20.4665 C   0  0  0  0  0  0
  -22.7239  -10.2152   20.3052 C   0  0  0  0  0  0
  -21.6877   -6.0706   22.5276 C   0  0  0  0  0  0
  -21.4044   -6.5617   23.8215 C   0  0  0  0  0  0
  -21.3669   -5.6763   24.9175 C   0  0  0  0  0  0
  -21.6049   -4.3030   24.7236 C   0  0  0  0  0  0
  -21.8823   -3.8129   23.4352 C   0  0  0  0  0  0
  -21.9199   -4.6938   22.3407 C   0  0  0  0  0  0
  -22.7855  -13.5266   21.1836 C   0  0  0  0  0  0
  -22.1648   -4.2122   21.0974 F   0  0  0  0  0  0
  -21.5634   -3.4506   25.7741 F   0  0  0  0  0  0
  -30.0133  -13.4115   20.4342 N   0  0  0  0  0  0
  -26.2978  -12.9354   20.3236 N   0  0  0  0  0  0
  -25.9320  -11.6510   20.5715 N   0  0  0  0  0  0
  -22.0462  -12.8301   22.0402 N   0  0  0  0  0  0
  -25.4226  -15.1891   20.4008 N   0  0  0  0  0  0
  -31.7522  -14.8140   20.0347 O   0  0  0  0  0  0
  -21.6654   -6.8864   21.4248 O   0  0  0  0  0  0
  -22.3544  -14.5548   20.6666 O   0  0  0  0  0  0
  -24.6313  -31.8560   23.1959 C   0  0  0  0  0  0
  -25.9150  -32.4732   23.8342 C   0  0  1  0  0  0
  -27.2222  -27.2863   20.1112 C   0  0  0  0  0  0
  -25.5946  -33.8536   24.2264 N   0  0  0  0  0  0
  -23.4234  -30.4747   21.5419 C   0  0  2  0  0  0
  -24.8707  -28.9179   20.1154 C   0  0  0  0  0  0
  -22.7470  -29.4570   22.4924 C   0  0  0  0  0  0
  -18.0265  -28.1367   22.8475 C   0  0  0  0  0  0
  -24.1500  -36.7261   23.2640 C   0  0  0  0  0  0
  -25.9708  -30.7743   21.3737 C   0  0  0  0  0  0
  -26.0441  -29.3999   20.7099 C   0  0  0  0  0  0
  -27.2275  -28.5997   20.6850 C   0  0  0  0  0  0
  -26.0250  -26.8486   19.5106 C   0  0  0  0  0  0
  -24.8649  -27.6503   19.5083 C   0  0  0  0  0  0
  -23.6403  -29.8030   20.1602 C   0  0  0  0  0  0
  -25.4126  -36.3034   24.0310 C   0  0  1  0  0  0
  -20.5866  -28.3660   23.1268 C   0  0  2  0  0  0
  -20.6745  -26.9372   22.5425 C   0  0  0  0  0  0
  -19.5733  -26.6366   21.5212 C   0  0  0  0  0  0
  -18.1913  -26.7917   22.1614 C   0  0  0  0  0  0
  -19.1525  -28.8840   23.2867 C   0  0  0  0  0  0
  -18.9455  -30.1445   23.8882 C   0  0  0  0  0  0
  -17.6458  -30.6583   24.0547 C   0  0  0  0  0  0
  -25.9063  -34.9403   23.5087 C   0  0  0  0  0  0
  -16.5341  -29.9082   23.6328 C   0  0  0  0  0  0
  -16.7252  -28.6488   23.0363 C   0  0  0  0  0  0
  -26.4549  -31.6548   25.0717 C   0  0  0  0  0  0
  -25.3759  -31.3696   26.1419 C   0  0  0  0  0  0
  -27.0383  -30.2927   24.6232 C   0  0  0  0  0  0
  -27.6082  -32.4331   25.7497 C   0  0  0  0  0  0
  -27.5580  -37.1786   24.8463 C   0  0  0  0  0  0
  -21.4180  -29.3008   22.3674 N   0  0  0  0  0  0
  -26.4298  -37.3729   23.9395 N   0  0  0  0  0  0
  -24.6934  -31.0548   22.0912 N   0  0  0  0  0  0
  -23.4182  -28.8098   23.3011 O   0  0  0  0  0  0
  -28.3549  -26.4614   20.0656 O   0  0  0  0  0  0
  -26.5638  -34.8874   22.4649 O   0  0  0  0  0  0
  -23.5483  -32.1380   23.7255 O   0  0  0  0  0  0
  -28.5005  -18.7843   19.8888 C   0  0  0  0  0  0
  -28.8706  -17.4130   20.0612 C   0  0  0  0  0  0
  -30.5154  -18.0858   21.6680 C   0  0  0  0  0  0
  -29.0927  -19.8481   20.6335 C   0  0  0  0  0  0
  -29.8660  -17.0107   20.9924 C   0  0  0  0  0  0
  -30.1399  -19.4676   21.5226 C   0  0  0  0  0  0
  -30.0982  -22.5504   19.1593 C   0  0  0  0  0  0
  -30.0841  -23.7152   18.1778 C   0  0  0  0  0  0
  -28.6030  -24.0830   18.1672 C   0  0  0  0  0  0
  -28.1455  -23.7632   19.5968 C   0  0  2  0  0  0
  -28.9588  -15.6360   23.6412 C   0  0  0  0  0  0
  -31.7482  -20.1498   23.1925 C   0  0  0  0  0  0
  -28.4585  -21.3111   20.6576 C   0  0  0  0  0  0
  -28.3326  -25.0494   20.5530 C   0  0  0  0  0  0
  -30.2362  -15.3313   22.8320 C   0  0  0  0  0  0
  -28.9741  -22.5202   19.8989 N   0  0  0  0  0  0
  -30.0900  -15.5960   21.3795 N   0  0  0  0  0  0
  -31.0153  -21.7265   19.1767 O   0  0  0  0  0  0
  -30.7096  -20.4782   22.2721 O   0  0  0  0  0  0
  -31.4775  -12.5184   19.1393 H   0  0  0  0  0  0
  -30.3666  -11.4012   19.8673 H   0  0  0  0  0  0
  -29.7723  -11.7816   17.4550 H   0  0  0  0  0  0
  -29.6620  -13.5024   17.7367 H   0  0  0  0  0  0
  -27.8493  -11.3181   18.8106 H   0  0  0  0  0  0
  -27.3784  -12.6425   17.7718 H   0  0  0  0  0  0
  -27.6866  -14.2625   19.5472 H   0  0  0  0  0  0
  -28.7165  -11.9990   21.3201 H   0  0  0  0  0  0
  -28.4082  -13.6146   21.8326 H   0  0  0  0  0  0
  -25.2773   -9.5718   22.4694 H   0  0  0  0  0  0
  -24.0012   -7.4674   22.7476 H   0  0  0  0  0  0
  -21.0817   -8.8809   19.8963 H   0  0  0  0  0  0
  -22.3704  -10.9667   19.6132 H   0  0  0  0  0  0
  -21.2040   -7.6127   23.9739 H   0  0  0  0  0  0
  -21.1473   -6.0465   25.9073 H   0  0  0  0  0  0
  -22.0580   -2.7586   23.2860 H   0  0  0  0  0  0
  -22.4053  -11.9996   22.4861 H   0  0  0  0  0  0
  -21.1077  -13.1372   22.2557 H   0  0  0  0  0  0
  -24.6524  -15.8422   20.5098 H   0  0  0  0  0  0
  -26.2829  -15.6366   20.1117 H   0  0  0  0  0  0
  -26.7182  -32.5386   23.1068 H   0  0  0  0  0  0
  -25.0099  -33.9708   25.0412 H   0  0  0  0  0  0
  -22.7177  -31.2952   21.3930 H   0  0  0  0  0  0
  -23.3755  -35.9606   23.3309 H   0  0  0  0  0  0
  -24.3599  -36.8890   22.2058 H   0  0  0  0  0  0
  -23.7270  -37.6457   23.6679 H   0  0  0  0  0  0
  -26.1273  -31.5443   20.6175 H   0  0  0  0  0  0
  -26.8387  -30.8070   22.0216 H   0  0  0  0  0  0
  -28.1379  -28.9744   21.1315 H   0  0  0  0  0  0
  -25.9873  -25.8758   19.0371 H   0  0  0  0  0  0
  -23.9584  -27.2826   19.0487 H   0  0  0  0  0  0
  -23.7604  -30.5778   19.4042 H   0  0  0  0  0  0
  -22.7609  -29.2339   19.8534 H   0  0  0  0  0  0
  -25.1319  -36.1877   25.0805 H   0  0  0  0  0  0
  -20.9958  -28.3237   24.1382 H   0  0  0  0  0  0
  -20.5647  -26.2253   23.3614 H   0  0  0  0  0  0
  -21.6609  -26.7417   22.1213 H   0  0  0  0  0  0
  -19.6900  -25.6287   21.1215 H   0  0  0  0  0  0
  -19.6678  -27.3187   20.6742 H   0  0  0  0  0  0
  -17.4183  -26.6658   21.4013 H   0  0  0  0  0  0
  -18.0308  -26.0087   22.9033 H   0  0  0  0  0  0
  -19.7937  -30.7256   24.2260 H   0  0  0  0  0  0
  -17.5008  -31.6250   24.5154 H   0  0  0  0  0  0
  -15.5334  -30.2978   23.7664 H   0  0  0  0  0  0
  -15.8636  -28.0780   22.7126 H   0  0  0  0  0  0
  -24.5977  -30.6996   25.7749 H   0  0  0  0  0  0
  -24.8924  -32.2858   26.4804 H   0  0  0  0  0  0
  -25.8097  -30.8923   27.0209 H   0  0  0  0  0  0
  -26.2947  -29.6659   24.1285 H   0  0  0  0  0  0
  -27.4020  -29.7225   25.4798 H   0  0  0  0  0  0
  -27.8872  -30.4149   23.9494 H   0  0  0  0  0  0
  -27.2657  -33.3658   26.2003 H   0  0  0  0  0  0
  -28.3929  -32.6857   25.0343 H   0  0  0  0  0  0
  -28.0700  -31.8507   26.5483 H   0  0  0  0  0  0
  -28.2584  -38.0098   24.7498 H   0  0  0  0  0  0
  -28.1088  -36.2612   24.6309 H   0  0  0  0  0  0
  -27.2288  -37.1452   25.8867 H   0  0  0  0  0  0
  -20.9366  -29.8724   21.6870 H   0  0  0  0  0  0
  -26.0163  -38.2793   24.1404 H   0  0  0  0  0  0
  -27.6809  -19.0057   19.2169 H   0  0  0  0  0  0
  -28.3127  -16.6593   19.5223 H   0  0  0  0  0  0
  -31.2985  -17.8246   22.3602 H   0  0  0  0  0  0
  -30.4732  -23.4483   17.1934 H   0  0  0  0  0  0
  -30.6810  -24.5395   18.5703 H   0  0  0  0  0  0
  -28.0748  -23.4262   17.4719 H   0  0  0  0  0  0
  -28.4022  -25.1062   17.8553 H   0  0  0  0  0  0
  -27.0880  -23.5023   19.5681 H   0  0  0  0  0  0
  -29.1299  -15.4260   24.6982 H   0  0  0  0  0  0
  -28.1103  -15.0259   23.3357 H   0  0  0  0  0  0
  -28.6514  -16.6781   23.5507 H   0  0  0  0  0  0
  -32.0159  -21.0328   23.7718 H   0  0  0  0  0  0
  -32.6409  -19.8175   22.6626 H   0  0  0  0  0  0
  -31.4522  -19.3796   23.9081 H   0  0  0  0  0  0
  -28.4481  -21.6146   21.7043 H   0  0  0  0  0  0
  -27.4057  -21.1933   20.3999 H   0  0  0  0  0  0
  -27.6145  -24.9805   21.3705 H   0  0  0  0  0  0
  -29.2982  -24.9308   21.0469 H   0  0  0  0  0  0
  -30.5309  -14.2971   23.0281 H   0  0  0  0  0  0
  -31.0638  -15.9121   23.2416 H   0  0  0  0  0  0
  1 25  1  0  0  0
  1 30  2  0  0  0
  1 87  1  0  0  0
  2  3  1  0  0  0
  2 25  1  0  0  0
  2 90  1  0  0  0
  2 91  1  0  0  0
  3  4  1  0  0  0
  3 92  1  0  0  0
  3 93  1  0  0  0
  4  5  1  0  0  0
  4 94  1  0  0  0
  4 95  1  0  0  0
  5  6  1  0  0  0
  5 26  1  0  0  0
  5 96  1  0  0  0
  6 25  1  0  0  0
  6 97  1  0  0  0
  6 98  1  0  0  0
  7  8  2  0  0  0
  7 26  1  0  0  0
  7 29  1  0  0  0
  8  9  1  0  0  0
  8 22  1  0  0  0
  9 10  1  0  0  0
  9 27  2  0  0  0
 10 11  2  0  0  0
 10 15  1  0  0  0
 11 12  1  0  0  0
 11 99  1  0  0  0
 12 13  2  0  0  0
 12100  1  0  0  0
 13 14  1  0  0  0
 13 31  1  0  0  0
 14 15  2  0  0  0
 14101  1  0  0  0
 15102  1  0  0  0
 16 17  2  0  0  0
 16 21  1  0  0  0
 16 31  1  0  0  0
 17 18  1  0  0  0
 17103  1  0  0  0
 18 19  2  0  0  0
 18104  1  0  0  0
 19 20  1  0  0  0
 19 24  1  0  0  0
 20 21  2  0  0  0
 20105  1  0  0  0
 21 23  1  0  0  0
 22 28  1  0  0  0
 22 32  2  0  0  0
 26 27  1  0  0  0
 28106  1  0  0  0
 28107  1  0  0  0
 29108  1  0  0  0
 29109  1  0  0  0
 33 34  1  0  0  0
 33 66  1  0  0  0
 33 70  2  0  0  0
 34 36  1  0  0  0
 34 59  1  0  0  0
 34110  1  0  0  0
 35 44  2  0  0  0
 35 45  1  0  0  0
 35 68  1  0  0  0
 36 56  1  0  0  0
 36111  1  0  0  0
 37 39  1  0  0  0
 37 47  1  0  0  0
 37 66  1  0  0  0
 37112  1  0  0  0
 38 43  2  0  0  0
 38 46  1  0  0  0
 38 47  1  0  0  0
 39 64  1  0  0  0
 39 67  2  0  0  0
 40 52  1  0  0  0
 40 53  2  0  0  0
 40 58  1  0  0  0
 41113  1  0  0  0
 41114  1  0  0  0
 41115  1  0  0  0
 41 48  1  0  0  0
 42 43  1  0  0  0
 42 66  1  0  0  0
 42116  1  0  0  0
 42117  1  0  0  0
 43 44  1  0  0  0
 44118  1  0  0  0
 45 46  2  0  0  0
 45119  1  0  0  0
 46120  1  0  0  0
 47121  1  0  0  0
 47122  1  0  0  0
 48 56  1  0  0  0
 48 65  1  0  0  0
 48123  1  0  0  0
 49 50  1  0  0  0
 49 53  1  0  0  0
 49 64  1  0  0  0
 49124  1  0  0  0
 50 51  1  0  0  0
 50125  1  0  0  0
 50126  1  0  0  0
 51 52  1  0  0  0
 51127  1  0  0  0
 51128  1  0  0  0
 52129  1  0  0  0
 52130  1  0  0  0
 53 54  1  0  0  0
 54 55  2  0  0  0
 54131  1  0  0  0
 55 57  1  0  0  0
 55132  1  0  0  0
 56 69  2  0  0  0
 57 58  2  0  0  0
 57133  1  0  0  0
 58134  1  0  0  0
 59 60  1  0  0  0
 59 61  1  0  0  0
 59 62  1  0  0  0
 60135  1  0  0  0
 60136  1  0  0  0
 60137  1  0  0  0
 61138  1  0  0  0
 61139  1  0  0  0
 61140  1  0  0  0
 62141  1  0  0  0
 62142  1  0  0  0
 62143  1  0  0  0
 63 65  1  0  0  0
 63144  1  0  0  0
 63145  1  0  0  0
 63146  1  0  0  0
 64147  1  0  0  0
 65148  1  0  0  0
 68 84  1  0  0  0
 71 72  2  0  0  0
 71 74  1  0  0  0
 71149  1  0  0  0
 72 75  1  0  0  0
 72150  1  0  0  0
 73 75  2  0  0  0
 73 76  1  0  0  0
 73151  1  0  0  0
 74 76  2  0  0  0
 74 83  1  0  0  0
 75 87  1  0  0  0
 76 89  1  0  0  0
 77 78  1  0  0  0
 77 86  1  0  0  0
 77 88  2  0  0  0
 78 79  1  0  0  0
 78152  1  0  0  0
 78153  1  0  0  0
 79 80  1  0  0  0
 79154  1  0  0  0
 79155  1  0  0  0
 80 84  1  0  0  0
 80 86  1  0  0  0
 80156  1  0  0  0
 81 85  1  0  0  0
 81157  1  0  0  0
 81158  1  0  0  0
 81159  1  0  0  0
 82 89  1  0  0  0
 82160  1  0  0  0
 82161  1  0  0  0
 82162  1  0  0  0
 83 86  1  0  0  0
 83163  1  0  0  0
 83164  1  0  0  0
 84165  1  0  0  0
 84166  1  0  0  0
 85 87  1  0  0  0
 85167  1  0  0  0
 85168  1  0  0  0
M  ISO  4   1 100  68 101  84 101  87 100
M  END
> <chiral flag>
0

> <version>
0

> <s_m_source_file>
/data/baiqing/PycharmProjects/Reinvent-master-3.2/result/LINK_invent/BTK/process_docking_weight1_custom_product_contain_oxygen_bond_distance_aromatic_linkinvent_7_9_3/rearranged_h_0104.sdf

> <i_m_source_file_index>
91

> <r_mmod_Potential_Energy-OPLS-2005>
364.917327880859

> <r_mmod_Stretch_Energy-OPLS-2005>
109.741500854492

> <r_mmod_Bend_Energy-OPLS-2005>
214.233734130859

> <r_mmod_Torsional_Energy-OPLS-2005>
361.705474853516

> <r_mmod_Improper_Torsional_Energy-OPLS-2005>
6.43679094314575

> <r_mmod_Van_der_Waal_Energy-OPLS-2005>
132.936401367188

> <r_mmod_Electrostatic_Energy-OPLS-2005>
-284.636474609375

> <r_mmod_Solvation_Energy-OPLS-2005>
-222.324768066406

> <b_mmod_Minimization_Converged-OPLS-2005>
0

> <r_mmod_RMS_Derivative-OPLS-2005>
5.22232246398926

$$$$
92
                    3D
 Structure written by MMmdl.
142149  0  0  1  0            999 V2000
  -30.1354  -16.0885   20.3365 C   0  0  0  0  0  0
  -30.3890  -13.4329   19.5454 C   0  0  0  0  0  0
  -29.5683  -12.7955   18.3718 C   0  0  0  0  0  0
  -28.1800  -12.3325   18.8318 C   0  0  0  0  0  0
  -27.5855  -13.3560   19.8158 C   0  0  2  0  0  0
  -28.5729  -13.8673   20.9065 C   0  0  0  0  0  0
  -25.2227  -13.8307   20.5851 C   0  0  0  0  0  0
  -24.1676  -13.0396   20.9316 C   0  0  0  0  0  0
  -24.6463  -11.6944   20.8753 C   0  0  0  0  0  0
  -23.9175  -10.4282   21.0380 C   0  0  0  0  0  0
  -24.3686   -9.4203   21.9183 C   0  0  0  0  0  0
  -23.6330   -8.2257   22.0760 C   0  0  0  0  0  0
  -22.4309   -8.0310   21.3552 C   0  0  0  0  0  0
  -21.9964   -9.0284   20.4648 C   0  0  0  0  0  0
  -22.7327  -10.2139   20.3046 C   0  0  0  0  0  0
  -21.6872   -6.0766   22.5285 C   0  0  0  0  0  0
  -21.4047   -6.5672   23.8224 C   0  0  0  0  0  0
  -21.3667   -5.6817   24.9175 C   0  0  0  0  0  0
  -21.6027   -4.3079   24.7216 C   0  0  0  0  0  0
  -21.8812   -3.8175   23.4337 C   0  0  0  0  0  0
  -21.9195   -4.6992   22.3395 C   0  0  0  0  0  0
  -22.7671  -13.5087   21.1926 C   0  0  0  0  0  0
  -22.1668   -4.2184   21.0969 F   0  0  0  0  0  0
  -21.5597   -3.4551   25.7720 F   0  0  0  0  0  0
  -29.6642  -14.6442   20.2224 N   0  0  0  0  0  0
  -26.2778  -12.9761   20.3339 N   0  0  0  0  0  0
  -25.9443  -11.6773   20.5696 N   0  0  0  0  0  0
  -22.0359  -12.8057   22.0494 N   0  0  0  0  0  0
  -25.3668  -15.2044   20.4261 N   0  0  0  0  0  0
  -31.3848  -15.9439   20.2724 O   0  0  0  0  0  0
  -21.6664   -6.8917   21.4252 O   0  0  0  0  0  0
  -22.3320  -14.5367   20.6740 O   0  0  0  0  0  0
  -24.7130  -31.7650   23.1271 C   0  0  0  0  0  0
  -25.9549  -32.4305   23.7940 C   0  0  1  0  0  0
  -27.2422  -26.3894   20.2695 C   0  0  0  0  0  0
  -25.6002  -33.8147   24.1796 N   0  0  0  0  0  0
  -23.5549  -30.3536   21.4873 C   0  0  2  0  0  0
  -25.0164  -28.6240   20.1407 C   0  0  0  0  0  0
  -22.7899  -29.4141   22.4625 C   0  0  0  0  0  0
  -18.0361  -28.1439   22.8441 C   0  0  0  0  0  0
  -24.1505  -36.7117   23.2660 C   0  0  0  0  0  0
  -26.1478  -30.3959   21.4385 C   0  0  0  0  0  0
  -26.2111  -28.9220   20.8051 C   0  0  0  0  0  0
  -27.2971  -27.8468   20.8212 C   0  0  0  0  0  0
  -26.0087  -26.3810   19.5419 C   0  0  0  0  0  0
  -24.9725  -27.3822   19.4819 C   0  0  0  0  0  0
  -23.8302  -29.6202   20.1385 C   0  0  0  0  0  0
  -25.4159  -36.2814   24.0262 C   0  0  1  0  0  0
  -20.6010  -28.3823   23.1079 C   0  0  2  0  0  0
  -20.6817  -26.9455   22.5401 C   0  0  0  0  0  0
  -19.5796  -26.6363   21.5220 C   0  0  0  0  0  0
  -18.1978  -26.7960   22.1616 C   0  0  0  0  0  0
  -19.1631  -28.8958   23.2740 C   0  0  0  0  0  0
  -18.9527  -30.1531   23.8803 C   0  0  0  0  0  0
  -17.6512  -30.6604   24.0547 C   0  0  0  0  0  0
  -25.9150  -34.9202   23.4887 C   0  0  0  0  0  0
  -16.5403  -29.9084   23.6347 C   0  0  0  0  0  0
  -16.7338  -28.6512   23.0359 C   0  0  0  0  0  0
  -26.4627  -31.6464   25.0683 C   0  0  0  0  0  0
  -25.3607  -31.3867   26.1237 C   0  0  0  0  0  0
  -27.0609  -30.2769   24.6800 C   0  0  0  0  0  0
  -27.6015  -32.4400   25.7524 C   0  0  0  0  0  0
  -27.5563  -37.1722   24.8460 C   0  0  0  0  0  0
  -21.4519  -29.3024   22.3375 N   0  0  0  0  0  0
  -26.4276  -37.3594   23.9388 N   0  0  0  0  0  0
  -24.8325  -30.8788   22.0698 N   0  0  0  0  0  0
  -23.4197  -28.7767   23.3095 O   0  0  0  0  0  0
  -28.1894  -25.0440   20.2354 O   0  0  0  0  0  0
  -26.5828  -34.8832   22.4537 O   0  0  0  0  0  0
  -23.6078  -32.0870   23.6025 O   0  0  0  0  0  0
  -28.8043  -21.3285   20.0254 C   0  0  0  0  0  0
  -27.9331  -17.3009   20.3459 C   0  0  0  0  0  0
  -29.3946  -19.4875   20.6449 C   0  0  0  0  0  0
  -28.1773  -23.1631   20.6318 C   0  0  0  0  0  0
  -29.3650  -17.5724   20.3473 N   0  0  0  0  0  0
  -28.8550  -21.3311   18.7922 O   0  0  0  0  0  0
  -31.3387  -13.7719   19.1318 H   0  0  0  0  0  0
  -30.6698  -12.6752   20.2796 H   0  0  0  0  0  0
  -30.1159  -11.9651   17.9236 H   0  0  0  0  0  0
  -29.4515  -13.5458   17.5894 H   0  0  0  0  0  0
  -28.2843  -11.3680   19.3298 H   0  0  0  0  0  0
  -27.5201  -12.1794   17.9771 H   0  0  0  0  0  0
  -27.3875  -14.2184   19.1775 H   0  0  0  0  0  0
  -28.9444  -13.0553   21.5341 H   0  0  0  0  0  0
  -28.0540  -14.5430   21.5870 H   0  0  0  0  0  0
  -25.2820   -9.5673   22.4783 H   0  0  0  0  0  0
  -24.0023   -7.4649   22.7488 H   0  0  0  0  0  0
  -21.0890   -8.8820   19.8959 H   0  0  0  0  0  0
  -22.3791  -10.9684   19.6162 H   0  0  0  0  0  0
  -21.2099   -7.6194   23.9733 H   0  0  0  0  0  0
  -21.1481   -6.0557   25.9076 H   0  0  0  0  0  0
  -22.0581   -2.7638   23.2820 H   0  0  0  0  0  0
  -22.4012  -11.9738   22.4892 H   0  0  0  0  0  0
  -21.0961  -13.1030   22.2707 H   0  0  0  0  0  0
  -24.5845  -15.8396   20.5342 H   0  0  0  0  0  0
  -26.2028  -15.6546   20.0792 H   0  0  0  0  0  0
  -26.7666  -32.4714   23.0680 H   0  0  0  0  0  0
  -25.0018  -33.9139   24.9863 H   0  0  0  0  0  0
  -22.8990  -31.1986   21.2665 H   0  0  0  0  0  0
  -23.3770  -35.9445   23.3260 H   0  0  0  0  0  0
  -24.3566  -36.8858   22.2088 H   0  0  0  0  0  0
  -23.7272  -37.6275   23.6799 H   0  0  0  0  0  0
  -26.3755  -31.0924   20.6304 H   0  0  0  0  0  0
  -26.9909  -30.4862   22.1101 H   0  0  0  0  0  0
  -28.1997  -28.1039   21.3571 H   0  0  0  0  0  0
  -25.7941  -25.4676   19.0053 H   0  0  0  0  0  0
  -24.0819  -27.1396   18.9183 H   0  0  0  0  0  0
  -24.0431  -30.3656   19.3710 H   0  0  0  0  0  0
  -22.9290  -29.1071   19.7988 H   0  0  0  0  0  0
  -25.1389  -36.1558   25.0754 H   0  0  0  0  0  0
  -21.0090  -28.3474   24.1208 H   0  0  0  0  0  0
  -20.5656  -26.2462   23.3691 H   0  0  0  0  0  0
  -21.6674  -26.7353   22.1234 H   0  0  0  0  0  0
  -19.6949  -25.6243   21.1323 H   0  0  0  0  0  0
  -19.6739  -27.3109   20.6696 H   0  0  0  0  0  0
  -17.4249  -26.6701   21.4019 H   0  0  0  0  0  0
  -18.0365  -26.0124   22.9029 H   0  0  0  0  0  0
  -19.7997  -30.7374   24.2141 H   0  0  0  0  0  0
  -17.5048  -31.6268   24.5183 H   0  0  0  0  0  0
  -15.5394  -30.2951   23.7715 H   0  0  0  0  0  0
  -15.8742  -28.0789   22.7123 H   0  0  0  0  0  0
  -24.5852  -30.7155   25.7532 H   0  0  0  0  0  0
  -24.8728  -32.3107   26.4344 H   0  0  0  0  0  0
  -25.7710  -30.9245   27.0223 H   0  0  0  0  0  0
  -26.3372  -29.6277   24.1862 H   0  0  0  0  0  0
  -27.3985  -29.7362   25.5655 H   0  0  0  0  0  0
  -27.9375  -30.3830   24.0409 H   0  0  0  0  0  0
  -27.2503  -33.3800   26.1804 H   0  0  0  0  0  0
  -28.3976  -32.6808   25.0463 H   0  0  0  0  0  0
  -28.0517  -31.8733   26.5688 H   0  0  0  0  0  0
  -28.2537  -38.0053   24.7476 H   0  0  0  0  0  0
  -28.1099  -36.2565   24.6327 H   0  0  0  0  0  0
  -27.2268  -37.1400   25.8860 H   0  0  0  0  0  0
  -20.9891  -29.8656   21.6374 H   0  0  0  0  0  0
  -26.0087  -38.2646   24.1353 H   0  0  0  0  0  0
  -27.3419  -18.1988   20.1712 H   0  0  0  0  0  0
  -27.6339  -16.8977   21.3159 H   0  0  0  0  0  0
  -27.6696  -16.5853   19.5683 H   0  0  0  0  0  0
  -29.0758  -19.5274   21.6870 H   0  0  0  0  0  0
  -30.4699  -19.6515   20.7116 H   0  0  0  0  0  0
  -28.5003  -23.1631   21.6737 H   0  0  0  0  0  0
  -27.1049  -22.9836   20.7051 H   0  0  0  0  0  0
  1 25  1  0  0  0
  1 30  2  0  0  0
  1 75  1  0  0  0
  2  3  1  0  0  0
  2 25  1  0  0  0
  2 77  1  0  0  0
  2 78  1  0  0  0
  3  4  1  0  0  0
  3 79  1  0  0  0
  3 80  1  0  0  0
  4  5  1  0  0  0
  4 81  1  0  0  0
  4 82  1  0  0  0
  5  6  1  0  0  0
  5 26  1  0  0  0
  5 83  1  0  0  0
  6 25  1  0  0  0
  6 84  1  0  0  0
  6 85  1  0  0  0
  7  8  2  0  0  0
  7 26  1  0  0  0
  7 29  1  0  0  0
  8  9  1  0  0  0
  8 22  1  0  0  0
  9 10  1  0  0  0
  9 27  2  0  0  0
 10 11  2  0  0  0
 10 15  1  0  0  0
 11 12  1  0  0  0
 11 86  1  0  0  0
 12 13  2  0  0  0
 12 87  1  0  0  0
 13 14  1  0  0  0
 13 31  1  0  0  0
 14 15  2  0  0  0
 14 88  1  0  0  0
 15 89  1  0  0  0
 16 17  2  0  0  0
 16 21  1  0  0  0
 16 31  1  0  0  0
 17 18  1  0  0  0
 17 90  1  0  0  0
 18 19  2  0  0  0
 18 91  1  0  0  0
 19 20  1  0  0  0
 19 24  1  0  0  0
 20 21  2  0  0  0
 20 92  1  0  0  0
 21 23  1  0  0  0
 22 28  1  0  0  0
 22 32  2  0  0  0
 26 27  1  0  0  0
 28 93  1  0  0  0
 28 94  1  0  0  0
 29 95  1  0  0  0
 29 96  1  0  0  0
 33 34  1  0  0  0
 33 66  1  0  0  0
 33 70  2  0  0  0
 34 36  1  0  0  0
 34 59  1  0  0  0
 34 97  1  0  0  0
 35 44  2  0  0  0
 35 45  1  0  0  0
 35 68  1  0  0  0
 36 56  1  0  0  0
 36 98  1  0  0  0
 37 39  1  0  0  0
 37 47  1  0  0  0
 37 66  1  0  0  0
 37 99  1  0  0  0
 38 43  2  0  0  0
 38 46  1  0  0  0
 38 47  1  0  0  0
 39 64  1  0  0  0
 39 67  2  0  0  0
 40 52  1  0  0  0
 40 53  2  0  0  0
 40 58  1  0  0  0
 41100  1  0  0  0
 41101  1  0  0  0
 41102  1  0  0  0
 41 48  1  0  0  0
 42 43  1  0  0  0
 42 66  1  0  0  0
 42103  1  0  0  0
 42104  1  0  0  0
 43 44  1  0  0  0
 44105  1  0  0  0
 45 46  2  0  0  0
 45106  1  0  0  0
 46107  1  0  0  0
 47108  1  0  0  0
 47109  1  0  0  0
 48 56  1  0  0  0
 48 65  1  0  0  0
 48110  1  0  0  0
 49 50  1  0  0  0
 49 53  1  0  0  0
 49 64  1  0  0  0
 49111  1  0  0  0
 50 51  1  0  0  0
 50112  1  0  0  0
 50113  1  0  0  0
 51 52  1  0  0  0
 51114  1  0  0  0
 51115  1  0  0  0
 52116  1  0  0  0
 52117  1  0  0  0
 53 54  1  0  0  0
 54 55  2  0  0  0
 54118  1  0  0  0
 55 57  1  0  0  0
 55119  1  0  0  0
 56 69  2  0  0  0
 57 58  2  0  0  0
 57120  1  0  0  0
 58121  1  0  0  0
 59 60  1  0  0  0
 59 61  1  0  0  0
 59 62  1  0  0  0
 60122  1  0  0  0
 60123  1  0  0  0
 60124  1  0  0  0
 61125  1  0  0  0
 61126  1  0  0  0
 61127  1  0  0  0
 62128  1  0  0  0
 62129  1  0  0  0
 62130  1  0  0  0
 63 65  1  0  0  0
 63131  1  0  0  0
 63132  1  0  0  0
 63133  1  0  0  0
 64134  1  0  0  0
 65135  1  0  0  0
 68 74  1  0  0  0
 71 73  1  0  0  0
 71 74  1  0  0  0
 71 76  2  0  0  0
 72 75  1  0  0  0
 72136  1  0  0  0
 72137  1  0  0  0
 72138  1  0  0  0
 73 75  1  0  0  0
 73139  1  0  0  0
 73140  1  0  0  0
 74141  1  0  0  0
 74142  1  0  0  0
M  ISO  4   1 100  68 101  74 101  75 100
M  END
> <chiral flag>
0

> <version>
0

> <s_m_source_file>
/data/baiqing/PycharmProjects/Reinvent-master-3.2/result/LINK_invent/BTK/process_docking_weight1_custom_product_contain_oxygen_bond_distance_aromatic_linkinvent_7_9_3/rearranged_h_0104.sdf

> <i_m_source_file_index>
92

> <r_mmod_Potential_Energy-OPLS-2005>
4485.52783203125

> <r_mmod_Stretch_Energy-OPLS-2005>
2001.24487304688

> <r_mmod_Bend_Energy-OPLS-2005>
945.066162109375

> <r_mmod_Torsional_Energy-OPLS-2005>
275.168182373047

> <r_mmod_Improper_Torsional_Energy-OPLS-2005>
5.13763236999512

> <r_mmod_Van_der_Waal_Energy-OPLS-2005>
112.710250854492

> <r_mmod_Electrostatic_Energy-OPLS-2005>
-297.983978271484

> <r_mmod_Solvation_Energy-OPLS-2005>
-243.453277587891

> <b_mmod_Minimization_Converged-OPLS-2005>
0

> <r_mmod_RMS_Derivative-OPLS-2005>
2.30732846260071

$$$$
93
                    3D
 Structure written by MMmdl.
159167  0  0  1  0            999 V2000
  -30.6924  -14.4838   20.6051 C   0  0  0  0  0  0
  -30.4351  -12.3298   19.4181 C   0  0  0  0  0  0
  -29.4952  -12.5239   18.2071 C   0  0  0  0  0  0
  -28.0123  -12.3877   18.6115 C   0  0  0  0  0  0
  -27.6652  -13.1967   19.8886 C   0  0  2  0  0  0
  -28.7082  -12.8890   20.9842 C   0  0  0  0  0  0
  -25.2569  -13.8139   20.5663 C   0  0  0  0  0  0
  -24.1819  -13.0425   20.9148 C   0  0  0  0  0  0
  -24.6380  -11.6882   20.8740 C   0  0  0  0  0  0
  -23.9073  -10.4259   21.0420 C   0  0  0  0  0  0
  -24.3619   -9.4168   21.9199 C   0  0  0  0  0  0
  -23.6282   -8.2213   22.0773 C   0  0  0  0  0  0
  -22.4255   -8.0281   21.3573 C   0  0  0  0  0  0
  -21.9910   -9.0253   20.4662 C   0  0  0  0  0  0
  -22.7256  -10.2118   20.3068 C   0  0  0  0  0  0
  -21.6844   -6.0737   22.5298 C   0  0  0  0  0  0
  -21.4006   -6.5644   23.8229 C   0  0  0  0  0  0
  -21.3660   -5.6810   24.9201 C   0  0  0  0  0  0
  -21.6035   -4.3068   24.7245 C   0  0  0  0  0  0
  -21.8817   -3.8156   23.4370 C   0  0  0  0  0  0
  -21.9186   -4.6967   22.3425 C   0  0  0  0  0  0
  -22.7840  -13.5205   21.1825 C   0  0  0  0  0  0
  -22.1650   -4.2145   21.1002 F   0  0  0  0  0  0
  -21.5632   -3.4553   25.7759 F   0  0  0  0  0  0
  -30.0297  -13.2884   20.4663 N   0  0  0  0  0  0
  -26.3025  -12.9293   20.3441 N   0  0  0  0  0  0
  -25.9297  -11.6455   20.5785 N   0  0  0  0  0  0
  -22.0507  -12.8197   22.0401 N   0  0  0  0  0  0
  -25.4312  -15.1854   20.4023 N   0  0  0  0  0  0
  -31.7984  -14.6688   20.0832 O   0  0  0  0  0  0
  -21.6630   -6.8874   21.4254 O   0  0  0  0  0  0
  -22.3499  -14.5508   20.6674 O   0  0  0  0  0  0
  -24.6171  -31.8680   23.2129 C   0  0  0  0  0  0
  -25.9064  -32.4815   23.8416 C   0  0  1  0  0  0
  -27.2257  -27.4098   20.0684 C   0  0  0  0  0  0
  -25.5923  -33.8625   24.2321 N   0  0  0  0  0  0
  -23.4055  -30.4936   21.5569 C   0  0  2  0  0  0
  -24.8458  -28.9628   20.1147 C   0  0  0  0  0  0
  -22.7410  -29.4657   22.5017 C   0  0  0  0  0  0
  -18.0274  -28.1368   22.8494 C   0  0  0  0  0  0
  -24.1485  -36.7302   23.2628 C   0  0  0  0  0  0
  -25.9431  -30.8153   21.3802 C   0  0  0  0  0  0
  -26.0127  -29.4546   20.7123 C   0  0  0  0  0  0
  -27.2029  -28.6847   20.6884 C   0  0  0  0  0  0
  -26.0323  -26.9492   19.4589 C   0  0  0  0  0  0
  -24.8511  -27.7076   19.4907 C   0  0  0  0  0  0
  -23.6123  -29.8337   20.1700 C   0  0  0  0  0  0
  -25.4108  -36.3104   24.0323 C   0  0  1  0  0  0
  -20.5864  -28.3657   23.1317 C   0  0  2  0  0  0
  -20.6761  -26.9394   22.5409 C   0  0  0  0  0  0
  -19.5737  -26.6369   21.5214 C   0  0  0  0  0  0
  -18.1919  -26.7914   22.1625 C   0  0  0  0  0  0
  -19.1526  -28.8830   23.2899 C   0  0  0  0  0  0
  -18.9450  -30.1443   23.8896 C   0  0  0  0  0  0
  -17.6452  -30.6583   24.0558 C   0  0  0  0  0  0
  -25.9047  -34.9472   23.5115 C   0  0  0  0  0  0
  -16.5342  -29.9073   23.6338 C   0  0  0  0  0  0
  -16.7263  -28.6490   23.0356 C   0  0  0  0  0  0
  -26.4450  -31.6619   25.0787 C   0  0  0  0  0  0
  -25.3674  -31.3737   26.1495 C   0  0  0  0  0  0
  -27.0295  -30.3041   24.6239 C   0  0  0  0  0  0
  -27.5996  -32.4353   25.7581 C   0  0  0  0  0  0
  -27.5581  -37.1806   24.8440 C   0  0  0  0  0  0
  -21.4138  -29.3033   22.3739 N   0  0  0  0  0  0
  -26.4276  -37.3799   23.9412 N   0  0  0  0  0  0
  -24.6736  -31.0733   22.1065 N   0  0  0  0  0  0
  -23.4175  -28.8195   23.3061 O   0  0  0  0  0  0
  -28.3910  -26.6517   20.0794 O   0  0  0  0  0  0
  -26.5619  -34.8917   22.4682 O   0  0  0  0  0  0
  -23.5354  -32.1481   23.7483 O   0  0  0  0  0  0
  -31.8387  -17.2629   21.8375 C   0  0  0  0  0  0
  -31.8167  -19.5935   21.1450 C   0  0  0  0  0  0
  -30.6300  -17.0211   21.1504 C   0  0  0  0  0  0
  -30.0203  -18.0978   20.4247 C   0  0  0  0  0  0
  -30.5996  -19.4030   20.4523 C   0  0  0  0  0  0
  -32.4372  -18.5309   21.8231 C   0  0  0  0  0  0
  -29.9971  -15.6741   21.3266 C   0  0  0  0  0  0
  -28.7382  -17.8771   19.6179 C   0  0  0  0  0  0
  -29.3246  -22.9113   19.5174 C   0  0  0  0  0  0
  -29.4745  -24.3716   20.0384 C   0  0  0  0  0  0
  -30.1274  -21.8541   20.3142 C   0  0  0  0  0  0
  -28.3100  -25.2902   19.6020 C   0  0  0  0  0  0
  -28.9500  -15.6288   22.0384 N   0  0  0  0  0  0
  -29.9664  -20.4867   19.7971 N   0  0  0  0  0  0
  -33.6019  -18.7356   22.4841 F   0  0  0  0  0  0
  -31.4739  -12.4527   19.1082 H   0  0  0  0  0  0
  -30.3694  -11.3076   19.7932 H   0  0  0  0  0  0
  -29.7335  -11.8012   17.4264 H   0  0  0  0  0  0
  -29.6618  -13.5122   17.7740 H   0  0  0  0  0  0
  -27.8095  -11.3297   18.7835 H   0  0  0  0  0  0
  -27.3689  -12.6919   17.7855 H   0  0  0  0  0  0
  -27.7301  -14.2550   19.6368 H   0  0  0  0  0  0
  -28.7078  -11.8161   21.1775 H   0  0  0  0  0  0
  -28.4458  -13.2986   21.9556 H   0  0  0  0  0  0
  -25.2768   -9.5622   22.4776 H   0  0  0  0  0  0
  -23.9994   -7.4594   22.7483 H   0  0  0  0  0  0
  -21.0860   -8.8801   19.8942 H   0  0  0  0  0  0
  -22.3758  -10.9681   19.6183 H   0  0  0  0  0  0
  -21.1991   -7.6154   23.9729 H   0  0  0  0  0  0
  -21.1491   -6.0548   25.9104 H   0  0  0  0  0  0
  -22.0586   -2.7615   23.2896 H   0  0  0  0  0  0
  -22.4147  -11.9863   22.4784 H   0  0  0  0  0  0
  -21.1147  -13.1248   22.2639 H   0  0  0  0  0  0
  -24.6729  -15.8524   20.4988 H   0  0  0  0  0  0
  -26.3134  -15.6184   20.1624 H   0  0  0  0  0  0
  -26.7143  -32.5485   23.1176 H   0  0  0  0  0  0
  -25.0049  -33.9787   25.0447 H   0  0  0  0  0  0
  -22.6963  -31.3137   21.4207 H   0  0  0  0  0  0
  -23.3766  -35.9611   23.3255 H   0  0  0  0  0  0
  -24.3576  -36.8976   22.2052 H   0  0  0  0  0  0
  -23.7211  -37.6474   23.6689 H   0  0  0  0  0  0
  -26.0791  -31.5925   20.6277 H   0  0  0  0  0  0
  -26.8207  -30.8462   22.0150 H   0  0  0  0  0  0
  -28.1023  -29.0589   21.1571 H   0  0  0  0  0  0
  -25.9753  -26.0027   18.9429 H   0  0  0  0  0  0
  -23.9533  -27.3219   19.0273 H   0  0  0  0  0  0
  -23.7236  -30.6136   19.4158 H   0  0  0  0  0  0
  -22.7336  -29.2592   19.8714 H   0  0  0  0  0  0
  -25.1278  -36.1957   25.0808 H   0  0  0  0  0  0
  -20.9935  -28.3210   24.1443 H   0  0  0  0  0  0
  -20.5686  -26.2248   23.3582 H   0  0  0  0  0  0
  -21.6633  -26.7447   22.1196 H   0  0  0  0  0  0
  -19.6895  -25.6284   21.1238 H   0  0  0  0  0  0
  -19.6675  -27.3175   20.6738 H   0  0  0  0  0  0
  -17.4182  -26.6670   21.4033 H   0  0  0  0  0  0
  -18.0323  -26.0051   22.9020 H   0  0  0  0  0  0
  -19.7924  -30.7275   24.2246 H   0  0  0  0  0  0
  -17.5004  -31.6266   24.5157 H   0  0  0  0  0  0
  -15.5341  -30.2975   23.7660 H   0  0  0  0  0  0
  -15.8660  -28.0812   22.7063 H   0  0  0  0  0  0
  -24.5844  -30.7103   25.7803 H   0  0  0  0  0  0
  -24.8866  -32.2898   26.4937 H   0  0  0  0  0  0
  -25.7985  -30.8888   27.0261 H   0  0  0  0  0  0
  -26.2910  -29.6852   24.1132 H   0  0  0  0  0  0
  -27.3834  -29.7237   25.4772 H   0  0  0  0  0  0
  -27.8843  -30.4326   23.9592 H   0  0  0  0  0  0
  -27.2583  -33.3637   26.2165 H   0  0  0  0  0  0
  -28.3818  -32.6937   25.0439 H   0  0  0  0  0  0
  -28.0641  -31.8480   26.5506 H   0  0  0  0  0  0
  -28.2519  -38.0181   24.7596 H   0  0  0  0  0  0
  -28.1163  -36.2718   24.6138 H   0  0  0  0  0  0
  -27.2308  -37.1289   25.8838 H   0  0  0  0  0  0
  -20.9292  -29.8773   21.6976 H   0  0  0  0  0  0
  -26.0152  -38.2856   24.1484 H   0  0  0  0  0  0
  -32.3091  -16.4718   22.4010 H   0  0  0  0  0  0
  -32.3061  -20.5547   21.1671 H   0  0  0  0  0  0
  -28.4813  -16.8267   19.4869 H   0  0  0  0  0  0
  -28.8475  -18.2865   18.6130 H   0  0  0  0  0  0
  -27.8946  -18.3698   20.1015 H   0  0  0  0  0  0
  -29.6210  -22.8849   18.4674 H   0  0  0  0  0  0
  -28.2710  -22.6308   19.5417 H   0  0  0  0  0  0
  -30.4255  -24.7853   19.7003 H   0  0  0  0  0  0
  -29.5172  -24.3638   21.1266 H   0  0  0  0  0  0
  -29.8031  -21.8686   21.3564 H   0  0  0  0  0  0
  -31.1790  -22.1386   20.3034 H   0  0  0  0  0  0
  -27.4043  -24.8145   19.9823 H   0  0  0  0  0  0
  -28.2418  -25.3017   18.5135 H   0  0  0  0  0  0
  -28.7065  -16.5453   22.3952 H   0  0  0  0  0  0
  -29.0849  -20.2819   19.3360 H   0  0  0  0  0  0
  1 25  1  0  0  0
  1 30  2  0  0  0
  1 77  1  0  0  0
  2  3  1  0  0  0
  2 25  1  0  0  0
  2 86  1  0  0  0
  2 87  1  0  0  0
  3  4  1  0  0  0
  3 88  1  0  0  0
  3 89  1  0  0  0
  4  5  1  0  0  0
  4 90  1  0  0  0
  4 91  1  0  0  0
  5  6  1  0  0  0
  5 26  1  0  0  0
  5 92  1  0  0  0
  6 25  1  0  0  0
  6 93  1  0  0  0
  6 94  1  0  0  0
  7  8  2  0  0  0
  7 26  1  0  0  0
  7 29  1  0  0  0
  8  9  1  0  0  0
  8 22  1  0  0  0
  9 10  1  0  0  0
  9 27  2  0  0  0
 10 11  2  0  0  0
 10 15  1  0  0  0
 11 12  1  0  0  0
 11 95  1  0  0  0
 12 13  2  0  0  0
 12 96  1  0  0  0
 13 14  1  0  0  0
 13 31  1  0  0  0
 14 15  2  0  0  0
 14 97  1  0  0  0
 15 98  1  0  0  0
 16 17  2  0  0  0
 16 21  1  0  0  0
 16 31  1  0  0  0
 17 18  1  0  0  0
 17 99  1  0  0  0
 18 19  2  0  0  0
 18100  1  0  0  0
 19 20  1  0  0  0
 19 24  1  0  0  0
 20 21  2  0  0  0
 20101  1  0  0  0
 21 23  1  0  0  0
 22 28  1  0  0  0
 22 32  2  0  0  0
 26 27  1  0  0  0
 28102  1  0  0  0
 28103  1  0  0  0
 29104  1  0  0  0
 29105  1  0  0  0
 33 34  1  0  0  0
 33 66  1  0  0  0
 33 70  2  0  0  0
 34 36  1  0  0  0
 34 59  1  0  0  0
 34106  1  0  0  0
 35 44  2  0  0  0
 35 45  1  0  0  0
 35 68  1  0  0  0
 36 56  1  0  0  0
 36107  1  0  0  0
 37 39  1  0  0  0
 37 47  1  0  0  0
 37 66  1  0  0  0
 37108  1  0  0  0
 38 43  2  0  0  0
 38 46  1  0  0  0
 38 47  1  0  0  0
 39 64  1  0  0  0
 39 67  2  0  0  0
 40 52  1  0  0  0
 40 53  2  0  0  0
 40 58  1  0  0  0
 41109  1  0  0  0
 41110  1  0  0  0
 41111  1  0  0  0
 41 48  1  0  0  0
 42 43  1  0  0  0
 42 66  1  0  0  0
 42112  1  0  0  0
 42113  1  0  0  0
 43 44  1  0  0  0
 44114  1  0  0  0
 45 46  2  0  0  0
 45115  1  0  0  0
 46116  1  0  0  0
 47117  1  0  0  0
 47118  1  0  0  0
 48 56  1  0  0  0
 48 65  1  0  0  0
 48119  1  0  0  0
 49 50  1  0  0  0
 49 53  1  0  0  0
 49 64  1  0  0  0
 49120  1  0  0  0
 50 51  1  0  0  0
 50121  1  0  0  0
 50122  1  0  0  0
 51 52  1  0  0  0
 51123  1  0  0  0
 51124  1  0  0  0
 52125  1  0  0  0
 52126  1  0  0  0
 53 54  1  0  0  0
 54 55  2  0  0  0
 54127  1  0  0  0
 55 57  1  0  0  0
 55128  1  0  0  0
 56 69  2  0  0  0
 57 58  2  0  0  0
 57129  1  0  0  0
 58130  1  0  0  0
 59 60  1  0  0  0
 59 61  1  0  0  0
 59 62  1  0  0  0
 60131  1  0  0  0
 60132  1  0  0  0
 60133  1  0  0  0
 61134  1  0  0  0
 61135  1  0  0  0
 61136  1  0  0  0
 62137  1  0  0  0
 62138  1  0  0  0
 62139  1  0  0  0
 63 65  1  0  0  0
 63140  1  0  0  0
 63141  1  0  0  0
 63142  1  0  0  0
 64143  1  0  0  0
 65144  1  0  0  0
 68 82  1  0  0  0
 71 73  2  0  0  0
 71 76  1  0  0  0
 71145  1  0  0  0
 72 75  1  0  0  0
 72 76  2  0  0  0
 72146  1  0  0  0
 73 74  1  0  0  0
 73 77  1  0  0  0
 74 75  2  0  0  0
 74 78  1  0  0  0
 75 84  1  0  0  0
 76 85  1  0  0  0
 77 83  2  0  0  0
 78147  1  0  0  0
 78148  1  0  0  0
 78149  1  0  0  0
 79 80  1  0  0  0
 79 81  1  0  0  0
 79150  1  0  0  0
 79151  1  0  0  0
 80 82  1  0  0  0
 80152  1  0  0  0
 80153  1  0  0  0
 81 84  1  0  0  0
 81154  1  0  0  0
 81155  1  0  0  0
 82156  1  0  0  0
 82157  1  0  0  0
 83158  1  0  0  0
 84159  1  0  0  0
M  ISO  4   1 100  68 101  77 100  82 101
M  END
> <chiral flag>
0

> <version>
0

> <s_m_source_file>
/data/baiqing/PycharmProjects/Reinvent-master-3.2/result/LINK_invent/BTK/process_docking_weight1_custom_product_contain_oxygen_bond_distance_aromatic_linkinvent_7_9_3/rearranged_h_0104.sdf

> <i_m_source_file_index>
93

> <r_mmod_Potential_Energy-OPLS-2005>
78.9228744506836

> <r_mmod_Stretch_Energy-OPLS-2005>
50.8127937316895

> <r_mmod_Bend_Energy-OPLS-2005>
121.754096984863

> <r_mmod_Torsional_Energy-OPLS-2005>
184.066192626953

> <r_mmod_Improper_Torsional_Energy-OPLS-2005>
5.11800098419189

> <r_mmod_Van_der_Waal_Energy-OPLS-2005>
174.535537719727

> <r_mmod_Electrostatic_Energy-OPLS-2005>
-274.93017578125

> <r_mmod_Solvation_Energy-OPLS-2005>
-197.835418701172

> <b_mmod_Minimization_Converged-OPLS-2005>
0

> <r_mmod_RMS_Derivative-OPLS-2005>
2.75588583946228

$$$$
94
                    3D
 Structure written by MMmdl.
163171  0  0  1  0            999 V2000
  -30.7923  -14.3246   20.7092 C   0  0  0  0  0  0
  -30.4120  -12.2832   19.3813 C   0  0  0  0  0  0
  -29.4779  -12.5329   18.1862 C   0  0  0  0  0  0
  -28.0040  -12.3852   18.6067 C   0  0  0  0  0  0
  -27.6669  -13.2005   19.8821 C   0  0  2  0  0  0
  -28.7063  -12.9229   20.9915 C   0  0  0  0  0  0
  -25.2595  -13.8151   20.5668 C   0  0  0  0  0  0
  -24.1838  -13.0428   20.9159 C   0  0  0  0  0  0
  -24.6387  -11.6899   20.8717 C   0  0  0  0  0  0
  -23.9059  -10.4281   21.0384 C   0  0  0  0  0  0
  -24.3613   -9.4204   21.9167 C   0  0  0  0  0  0
  -23.6290   -8.2243   22.0748 C   0  0  0  0  0  0
  -22.4270   -8.0277   21.3545 C   0  0  0  0  0  0
  -21.9900   -9.0244   20.4645 C   0  0  0  0  0  0
  -22.7230  -10.2119   20.3039 C   0  0  0  0  0  0
  -21.6851   -6.0729   22.5275 C   0  0  0  0  0  0
  -21.4007   -6.5636   23.8205 C   0  0  0  0  0  0
  -21.3666   -5.6795   24.9171 C   0  0  0  0  0  0
  -21.6051   -4.3057   24.7229 C   0  0  0  0  0  0
  -21.8820   -3.8142   23.4350 C   0  0  0  0  0  0
  -21.9188   -4.6955   22.3400 C   0  0  0  0  0  0
  -22.7864  -13.5232   21.1831 C   0  0  0  0  0  0
  -22.1650   -4.2143   21.0979 F   0  0  0  0  0  0
  -21.5638   -3.4541   25.7740 F   0  0  0  0  0  0
  -30.0494  -13.2160   20.4571 N   0  0  0  0  0  0
  -26.3043  -12.9316   20.3392 N   0  0  0  0  0  0
  -25.9316  -11.6482   20.5754 N   0  0  0  0  0  0
  -22.0514  -12.8219   22.0393 N   0  0  0  0  0  0
  -25.4318  -15.1864   20.4074 N   0  0  0  0  0  0
  -31.7959  -14.6326   20.0623 O   0  0  0  0  0  0
  -21.6638   -6.8872   21.4240 O   0  0  0  0  0  0
  -22.3554  -14.5546   20.6694 O   0  0  0  0  0  0
  -24.6096  -31.8713   23.2148 C   0  0  0  0  0  0
  -25.9009  -32.4845   23.8424 C   0  0  1  0  0  0
  -27.2411  -27.4896   20.0841 C   0  0  0  0  0  0
  -25.5890  -33.8647   24.2360 N   0  0  0  0  0  0
  -23.3957  -30.4941   21.5535 C   0  0  2  0  0  0
  -24.8439  -28.9640   20.1206 C   0  0  0  0  0  0
  -22.7380  -29.4666   22.5010 C   0  0  0  0  0  0
  -18.0264  -28.1381   22.8495 C   0  0  0  0  0  0
  -24.1486  -36.7314   23.2639 C   0  0  0  0  0  0
  -25.9184  -30.8526   21.3618 C   0  0  0  0  0  0
  -25.9980  -29.4871   20.7174 C   0  0  0  0  0  0
  -27.2008  -28.7538   20.7026 C   0  0  0  0  0  0
  -26.0769  -26.9670   19.4843 C   0  0  0  0  0  0
  -24.8741  -27.6977   19.5083 C   0  0  0  0  0  0
  -23.6035  -29.8244   20.1682 C   0  0  0  0  0  0
  -25.4109  -36.3128   24.0339 C   0  0  1  0  0  0
  -20.5850  -28.3651   23.1343 C   0  0  2  0  0  0
  -20.6759  -26.9391   22.5432 C   0  0  0  0  0  0
  -19.5744  -26.6391   21.5222 C   0  0  0  0  0  0
  -18.1915  -26.7929   22.1622 C   0  0  0  0  0  0
  -19.1512  -28.8834   23.2917 C   0  0  0  0  0  0
  -18.9437  -30.1443   23.8922 C   0  0  0  0  0  0
  -17.6442  -30.6590   24.0568 C   0  0  0  0  0  0
  -25.9029  -34.9491   23.5146 C   0  0  0  0  0  0
  -16.5333  -29.9094   23.6334 C   0  0  0  0  0  0
  -16.7248  -28.6512   23.0349 C   0  0  0  0  0  0
  -26.4463  -31.6605   25.0726 C   0  0  0  0  0  0
  -25.3734  -31.3685   26.1476 C   0  0  0  0  0  0
  -27.0290  -30.3064   24.6053 C   0  0  0  0  0  0
  -27.6066  -32.4309   25.7462 C   0  0  0  0  0  0
  -27.5578  -37.1813   24.8467 C   0  0  0  0  0  0
  -21.4113  -29.3023   22.3750 N   0  0  0  0  0  0
  -26.4303  -37.3808   23.9398 N   0  0  0  0  0  0
  -24.6590  -31.0856   22.1027 N   0  0  0  0  0  0
  -23.4171  -28.8209   23.3032 O   0  0  0  0  0  0
  -28.4199  -26.7984   20.0194 O   0  0  0  0  0  0
  -26.5585  -34.8934   22.4705 O   0  0  0  0  0  0
  -23.5307  -32.1436   23.7577 O   0  0  0  0  0  0
  -30.8433  -19.7842   20.2746 C   0  0  0  0  0  0
  -31.3183  -17.7602   21.5428 C   0  0  0  0  0  0
  -29.0793  -18.1425   20.6554 C   0  0  0  0  0  0
  -31.7511  -18.9818   20.9921 C   0  0  0  0  0  0
  -29.5012  -19.3751   20.1190 C   0  0  0  0  0  0
  -29.9847  -17.3286   21.3651 C   0  0  0  0  0  0
  -27.9729  -22.0306   21.1015 C   0  0  0  0  0  0
  -33.1860  -19.4310   21.1830 C   0  0  0  0  0  0
  -28.5035  -20.2844   19.4215 C   0  0  0  0  0  0
  -29.5106  -15.9990   21.9323 C   0  0  0  0  0  0
  -28.4018  -23.3908   21.6413 C   0  0  0  0  0  0
  -27.9735  -24.5289   20.7057 C   0  0  0  0  0  0
  -28.6176  -25.8691   21.0733 C   0  0  0  0  0  0
  -28.5638  -21.6306   19.9702 N   0  0  0  0  0  0
  -30.5249  -14.9526   21.8565 N   0  0  0  0  0  0
  -27.1536  -21.3465   21.7162 O   0  0  0  0  0  0
  -31.4559  -12.3793   19.0748 H   0  0  0  0  0  0
  -30.3054  -11.2574   19.7376 H   0  0  0  0  0  0
  -29.7076  -11.8367   17.3786 H   0  0  0  0  0  0
  -29.6491  -13.5350   17.7879 H   0  0  0  0  0  0
  -27.8119  -11.3257   18.7855 H   0  0  0  0  0  0
  -27.3461  -12.6782   17.7872 H   0  0  0  0  0  0
  -27.7291  -14.2554   19.6163 H   0  0  0  0  0  0
  -28.6656  -11.8749   21.2891 H   0  0  0  0  0  0
  -28.4636  -13.4781   21.8965 H   0  0  0  0  0  0
  -25.2764   -9.5686   22.4730 H   0  0  0  0  0  0
  -24.0005   -7.4642   22.7474 H   0  0  0  0  0  0
  -21.0823   -8.8764   19.8962 H   0  0  0  0  0  0
  -22.3691  -10.9650   19.6140 H   0  0  0  0  0  0
  -21.1993   -7.6143   23.9706 H   0  0  0  0  0  0
  -21.1489   -6.0525   25.9076 H   0  0  0  0  0  0
  -22.0594   -2.7605   23.2851 H   0  0  0  0  0  0
  -22.4154  -11.9883   22.4762 H   0  0  0  0  0  0
  -21.1142  -13.1237   22.2630 H   0  0  0  0  0  0
  -24.6622  -15.8399   20.5050 H   0  0  0  0  0  0
  -26.2825  -15.6210   20.0738 H   0  0  0  0  0  0
  -26.7076  -32.5578   23.1197 H   0  0  0  0  0  0
  -25.0061  -33.9822   25.0517 H   0  0  0  0  0  0
  -22.6822  -31.3093   21.4147 H   0  0  0  0  0  0
  -23.3749  -35.9646   23.3335 H   0  0  0  0  0  0
  -24.3585  -36.8903   22.2051 H   0  0  0  0  0  0
  -23.7242  -37.6533   23.6629 H   0  0  0  0  0  0
  -26.0212  -31.6187   20.5912 H   0  0  0  0  0  0
  -26.8112  -30.9120   21.9723 H   0  0  0  0  0  0
  -28.0988  -29.1587   21.1486 H   0  0  0  0  0  0
  -26.1049  -26.0062   18.9904 H   0  0  0  0  0  0
  -23.9865  -27.2889   19.0456 H   0  0  0  0  0  0
  -23.7046  -30.5989   19.4073 H   0  0  0  0  0  0
  -22.7302  -29.2385   19.8751 H   0  0  0  0  0  0
  -25.1286  -36.2017   25.0836 H   0  0  0  0  0  0
  -20.9932  -28.3206   24.1469 H   0  0  0  0  0  0
  -20.5685  -26.2235   23.3598 H   0  0  0  0  0  0
  -21.6623  -26.7458   22.1203 H   0  0  0  0  0  0
  -19.6900  -25.6310   21.1234 H   0  0  0  0  0  0
  -19.6702  -27.3215   20.6766 H   0  0  0  0  0  0
  -17.4188  -26.6687   21.4024 H   0  0  0  0  0  0
  -18.0307  -26.0071   22.9016 H   0  0  0  0  0  0
  -19.7912  -30.7257   24.2298 H   0  0  0  0  0  0
  -17.4999  -31.6272   24.5158 H   0  0  0  0  0  0
  -15.5338  -30.3003   23.7651 H   0  0  0  0  0  0
  -15.8646  -28.0845   22.7053 H   0  0  0  0  0  0
  -24.5918  -30.7027   25.7798 H   0  0  0  0  0  0
  -24.8894  -32.2826   26.4928 H   0  0  0  0  0  0
  -25.8090  -30.8847   27.0227 H   0  0  0  0  0  0
  -26.2811  -29.6830   24.1142 H   0  0  0  0  0  0
  -27.4132  -29.7298   25.4475 H   0  0  0  0  0  0
  -27.8610  -30.4406   23.9135 H   0  0  0  0  0  0
  -27.2715  -33.3608   26.2065 H   0  0  0  0  0  0
  -28.3848  -32.6879   25.0261 H   0  0  0  0  0  0
  -28.0757  -31.8408   26.5345 H   0  0  0  0  0  0
  -28.2621  -38.0088   24.7518 H   0  0  0  0  0  0
  -28.1047  -36.2628   24.6293 H   0  0  0  0  0  0
  -27.2284  -37.1470   25.8868 H   0  0  0  0  0  0
  -20.9251  -29.8728   21.6969 H   0  0  0  0  0  0
  -26.0198  -38.2888   24.1418 H   0  0  0  0  0  0
  -31.1704  -20.7284   19.8605 H   0  0  0  0  0  0
  -32.0189  -17.1541   22.0997 H   0  0  0  0  0  0
  -28.0512  -17.8304   20.5339 H   0  0  0  0  0  0
  -33.3252  -20.4648   20.8658 H   0  0  0  0  0  0
  -33.8619  -18.8037   20.6017 H   0  0  0  0  0  0
  -33.4712  -19.3606   22.2331 H   0  0  0  0  0  0
  -27.4906  -19.8858   19.5005 H   0  0  0  0  0  0
  -28.7382  -20.3241   18.3576 H   0  0  0  0  0  0
  -29.2445  -16.1465   22.9787 H   0  0  0  0  0  0
  -28.5956  -15.6964   21.4222 H   0  0  0  0  0  0
  -29.4862  -23.3820   21.7628 H   0  0  0  0  0  0
  -27.9791  -23.5442   22.6351 H   0  0  0  0  0  0
  -26.8865  -24.6139   20.7240 H   0  0  0  0  0  0
  -28.2450  -24.2909   19.6757 H   0  0  0  0  0  0
  -29.6944  -25.7435   21.1917 H   0  0  0  0  0  0
  -28.2391  -26.2440   22.0266 H   0  0  0  0  0  0
  -29.1954  -22.2753   19.5143 H   0  0  0  0  0  0
  -31.3719  -15.2631   22.3055 H   0  0  0  0  0  0
  1 25  1  0  0  0
  1 30  2  0  0  0
  1 85  1  0  0  0
  2  3  1  0  0  0
  2 25  1  0  0  0
  2 87  1  0  0  0
  2 88  1  0  0  0
  3  4  1  0  0  0
  3 89  1  0  0  0
  3 90  1  0  0  0
  4  5  1  0  0  0
  4 91  1  0  0  0
  4 92  1  0  0  0
  5  6  1  0  0  0
  5 26  1  0  0  0
  5 93  1  0  0  0
  6 25  1  0  0  0
  6 94  1  0  0  0
  6 95  1  0  0  0
  7  8  2  0  0  0
  7 26  1  0  0  0
  7 29  1  0  0  0
  8  9  1  0  0  0
  8 22  1  0  0  0
  9 10  1  0  0  0
  9 27  2  0  0  0
 10 11  2  0  0  0
 10 15  1  0  0  0
 11 12  1  0  0  0
 11 96  1  0  0  0
 12 13  2  0  0  0
 12 97  1  0  0  0
 13 14  1  0  0  0
 13 31  1  0  0  0
 14 15  2  0  0  0
 14 98  1  0  0  0
 15 99  1  0  0  0
 16 17  2  0  0  0
 16 21  1  0  0  0
 16 31  1  0  0  0
 17 18  1  0  0  0
 17100  1  0  0  0
 18 19  2  0  0  0
 18101  1  0  0  0
 19 20  1  0  0  0
 19 24  1  0  0  0
 20 21  2  0  0  0
 20102  1  0  0  0
 21 23  1  0  0  0
 22 28  1  0  0  0
 22 32  2  0  0  0
 26 27  1  0  0  0
 28103  1  0  0  0
 28104  1  0  0  0
 29105  1  0  0  0
 29106  1  0  0  0
 33 34  1  0  0  0
 33 66  1  0  0  0
 33 70  2  0  0  0
 34 36  1  0  0  0
 34 59  1  0  0  0
 34107  1  0  0  0
 35 44  2  0  0  0
 35 45  1  0  0  0
 35 68  1  0  0  0
 36 56  1  0  0  0
 36108  1  0  0  0
 37 39  1  0  0  0
 37 47  1  0  0  0
 37 66  1  0  0  0
 37109  1  0  0  0
 38 43  2  0  0  0
 38 46  1  0  0  0
 38 47  1  0  0  0
 39 64  1  0  0  0
 39 67  2  0  0  0
 40 52  1  0  0  0
 40 53  2  0  0  0
 40 58  1  0  0  0
 41110  1  0  0  0
 41111  1  0  0  0
 41112  1  0  0  0
 41 48  1  0  0  0
 42 43  1  0  0  0
 42 66  1  0  0  0
 42113  1  0  0  0
 42114  1  0  0  0
 43 44  1  0  0  0
 44115  1  0  0  0
 45 46  2  0  0  0
 45116  1  0  0  0
 46117  1  0  0  0
 47118  1  0  0  0
 47119  1  0  0  0
 48 56  1  0  0  0
 48 65  1  0  0  0
 48120  1  0  0  0
 49 50  1  0  0  0
 49 53  1  0  0  0
 49 64  1  0  0  0
 49121  1  0  0  0
 50 51  1  0  0  0
 50122  1  0  0  0
 50123  1  0  0  0
 51 52  1  0  0  0
 51124  1  0  0  0
 51125  1  0  0  0
 52126  1  0  0  0
 52127  1  0  0  0
 53 54  1  0  0  0
 54 55  2  0  0  0
 54128  1  0  0  0
 55 57  1  0  0  0
 55129  1  0  0  0
 56 69  2  0  0  0
 57 58  2  0  0  0
 57130  1  0  0  0
 58131  1  0  0  0
 59 60  1  0  0  0
 59 61  1  0  0  0
 59 62  1  0  0  0
 60132  1  0  0  0
 60133  1  0  0  0
 60134  1  0  0  0
 61135  1  0  0  0
 61136  1  0  0  0
 61137  1  0  0  0
 62138  1  0  0  0
 62139  1  0  0  0
 62140  1  0  0  0
 63 65  1  0  0  0
 63141  1  0  0  0
 63142  1  0  0  0
 63143  1  0  0  0
 64144  1  0  0  0
 65145  1  0  0  0
 68 83  1  0  0  0
 71 74  2  0  0  0
 71 75  1  0  0  0
 71146  1  0  0  0
 72 74  1  0  0  0
 72 76  2  0  0  0
 72147  1  0  0  0
 73 75  2  0  0  0
 73 76  1  0  0  0
 73148  1  0  0  0
 74 78  1  0  0  0
 75 79  1  0  0  0
 76 80  1  0  0  0
 77 81  1  0  0  0
 77 84  1  0  0  0
 77 86  2  0  0  0
 78149  1  0  0  0
 78150  1  0  0  0
 78151  1  0  0  0
 79 84  1  0  0  0
 79152  1  0  0  0
 79153  1  0  0  0
 80 85  1  0  0  0
 80154  1  0  0  0
 80155  1  0  0  0
 81 82  1  0  0  0
 81156  1  0  0  0
 81157  1  0  0  0
 82 83  1  0  0  0
 82158  1  0  0  0
 82159  1  0  0  0
 83160  1  0  0  0
 83161  1  0  0  0
 84162  1  0  0  0
 85163  1  0  0  0
M  ISO  4   1 100  68 101  83 101  85 100
M  END
> <chiral flag>
0

> <version>
0

> <s_m_source_file>
/data/baiqing/PycharmProjects/Reinvent-master-3.2/result/LINK_invent/BTK/process_docking_weight1_custom_product_contain_oxygen_bond_distance_aromatic_linkinvent_7_9_3/rearranged_h_0104.sdf

> <i_m_source_file_index>
94

> <r_mmod_Potential_Energy-OPLS-2005>
-185.484115600586

> <r_mmod_Stretch_Energy-OPLS-2005>
29.5238075256348

> <r_mmod_Bend_Energy-OPLS-2005>
88.4245834350586

> <r_mmod_Torsional_Energy-OPLS-2005>
279.466064453125

> <r_mmod_Improper_Torsional_Energy-OPLS-2005>
10.0872497558594

> <r_mmod_Van_der_Waal_Energy-OPLS-2005>
149.352844238281

> <r_mmod_Electrostatic_Energy-OPLS-2005>
-512.896667480469

> <r_mmod_Solvation_Energy-OPLS-2005>
-236.130035400391

> <b_mmod_Minimization_Converged-OPLS-2005>
0

> <r_mmod_RMS_Derivative-OPLS-2005>
1.61437380313873

$$$$
95
                    3D
 Structure written by MMmdl.
158167  0  0  1  0            999 V2000
  -30.6636  -14.5229   20.5455 C   0  0  0  0  0  0
  -30.4281  -12.3243   19.4511 C   0  0  0  0  0  0
  -29.5129  -12.5082   18.2203 C   0  0  0  0  0  0
  -28.0258  -12.3816   18.6138 C   0  0  0  0  0  0
  -27.6618  -13.2165   19.8729 C   0  0  2  0  0  0
  -28.6977  -13.0035   21.0010 C   0  0  0  0  0  0
  -25.2585  -13.8185   20.5682 C   0  0  0  0  0  0
  -24.1846  -13.0448   20.9187 C   0  0  0  0  0  0
  -24.6407  -11.6923   20.8730 C   0  0  0  0  0  0
  -23.9080  -10.4311   21.0430 C   0  0  0  0  0  0
  -24.3622   -9.4220   21.9212 C   0  0  0  0  0  0
  -23.6306   -8.2249   22.0771 C   0  0  0  0  0  0
  -22.4290   -8.0298   21.3559 C   0  0  0  0  0  0
  -21.9937   -9.0267   20.4644 C   0  0  0  0  0  0
  -22.7270  -10.2145   20.3059 C   0  0  0  0  0  0
  -21.6844   -6.0747   22.5298 C   0  0  0  0  0  0
  -21.4011   -6.5650   23.8231 C   0  0  0  0  0  0
  -21.3651   -5.6793   24.9189 C   0  0  0  0  0  0
  -21.6048   -4.3056   24.7218 C   0  0  0  0  0  0
  -21.8824   -3.8151   23.4339 C   0  0  0  0  0  0
  -21.9194   -4.6976   22.3402 C   0  0  0  0  0  0
  -22.7865  -13.5242   21.1825 C   0  0  0  0  0  0
  -22.1660   -4.2171   21.0974 F   0  0  0  0  0  0
  -21.5622   -3.4528   25.7724 F   0  0  0  0  0  0
  -30.0280  -13.3177   20.4613 N   0  0  0  0  0  0
  -26.3021  -12.9371   20.3320 N   0  0  0  0  0  0
  -25.9332  -11.6516   20.5745 N   0  0  0  0  0  0
  -22.0439  -12.8260   22.0348 N   0  0  0  0  0  0
  -25.4286  -15.1915   20.4149 N   0  0  0  0  0  0
  -31.7913  -14.7061   20.0788 O   0  0  0  0  0  0
  -21.6637   -6.8904   21.4261 O   0  0  0  0  0  0
  -22.3574  -14.5541   20.6656 O   0  0  0  0  0  0
  -24.6174  -31.8651   23.2108 C   0  0  0  0  0  0
  -25.9076  -32.4801   23.8417 C   0  0  1  0  0  0
  -27.2339  -27.4051   20.0912 C   0  0  0  0  0  0
  -25.5953  -33.8619   24.2308 N   0  0  0  0  0  0
  -23.4047  -30.4862   21.5532 C   0  0  2  0  0  0
  -24.8467  -28.9433   20.1154 C   0  0  0  0  0  0
  -22.7412  -29.4642   22.5031 C   0  0  0  0  0  0
  -18.0235  -28.1371   22.8490 C   0  0  0  0  0  0
  -24.1446  -36.7261   23.2634 C   0  0  0  0  0  0
  -25.9369  -30.8145   21.3700 C   0  0  0  0  0  0
  -26.0073  -29.4476   20.7137 C   0  0  0  0  0  0
  -27.1988  -28.6837   20.7013 C   0  0  0  0  0  0
  -26.0494  -26.9156   19.4927 C   0  0  0  0  0  0
  -24.8625  -27.6776   19.5038 C   0  0  0  0  0  0
  -23.6084  -29.8138   20.1698 C   0  0  0  0  0  0
  -25.4083  -36.3082   24.0321 C   0  0  1  0  0  0
  -20.5831  -28.3653   23.1300 C   0  0  2  0  0  0
  -20.6733  -26.9392   22.5402 C   0  0  0  0  0  0
  -19.5706  -26.6364   21.5211 C   0  0  0  0  0  0
  -18.1873  -26.7916   22.1610 C   0  0  0  0  0  0
  -19.1500  -28.8836   23.2870 C   0  0  0  0  0  0
  -18.9449  -30.1454   23.8846 C   0  0  0  0  0  0
  -17.6459  -30.6580   24.0557 C   0  0  0  0  0  0
  -25.9059  -34.9463   23.5102 C   0  0  0  0  0  0
  -16.5330  -29.9079   23.6360 C   0  0  0  0  0  0
  -16.7229  -28.6504   23.0353 C   0  0  0  0  0  0
  -26.4483  -31.6635   25.0792 C   0  0  0  0  0  0
  -25.3743  -31.3803   26.1558 C   0  0  0  0  0  0
  -27.0357  -30.3072   24.6250 C   0  0  0  0  0  0
  -27.5990  -32.4435   25.7603 C   0  0  0  0  0  0
  -27.5547  -37.1776   24.8441 C   0  0  0  0  0  0
  -21.4132  -29.3034   22.3752 N   0  0  0  0  0  0
  -26.4227  -37.3808   23.9443 N   0  0  0  0  0  0
  -24.6724  -31.0697   22.1043 N   0  0  0  0  0  0
  -23.4175  -28.8176   23.3080 O   0  0  0  0  0  0
  -28.4182  -26.6847   20.1259 O   0  0  0  0  0  0
  -26.5573  -34.8903   22.4630 O   0  0  0  0  0  0
  -23.5357  -32.1434   23.7465 O   0  0  0  0  0  0
  -30.1963  -18.8091   19.3696 C   0  0  0  0  0  0
  -30.1662  -17.3789   19.4273 C   0  0  0  0  0  0
  -30.0645  -19.4200   20.5921 C   0  0  0  0  0  0
  -30.0109  -16.8616   20.6933 C   0  0  0  0  0  0
  -28.2549  -21.9746   21.9006 C   0  0  0  0  0  0
  -29.4598  -23.1453   20.1237 C   0  0  0  0  0  0
  -27.1054  -22.9838   21.6966 C   0  0  0  0  0  0
  -28.2411  -24.1029   19.9541 C   0  0  2  0  0  0
  -30.2524  -20.8967   20.9011 C   0  0  0  0  0  0
  -28.5944  -25.4934   19.3249 C   0  0  0  0  0  0
  -29.9423  -15.5446   21.0679 N   0  0  0  0  0  0
  -29.0777  -21.8020   20.6743 N   0  3  1  0  0  0
  -27.6030  -24.2381   21.2230 O   0  0  0  0  0  0
  -29.8307  -18.1944   21.8323 S   0  0  0  0  0  0
  -31.4767  -12.4262   19.1665 H   0  0  0  0  0  0
  -30.3261  -11.3162   19.8578 H   0  0  0  0  0  0
  -29.7689  -11.7754   17.4535 H   0  0  0  0  0  0
  -29.6895  -13.4885   17.7735 H   0  0  0  0  0  0
  -27.8232  -11.3272   18.7971 H   0  0  0  0  0  0
  -27.3921  -12.6757   17.7753 H   0  0  0  0  0  0
  -27.7012  -14.2660   19.5771 H   0  0  0  0  0  0
  -28.6794  -11.9669   21.3419 H   0  0  0  0  0  0
  -28.4529  -13.6045   21.8772 H   0  0  0  0  0  0
  -25.2772   -9.5691   22.4782 H   0  0  0  0  0  0
  -24.0014   -7.4641   22.7499 H   0  0  0  0  0  0
  -21.0865   -8.8793   19.8944 H   0  0  0  0  0  0
  -22.3764  -10.9676   19.6133 H   0  0  0  0  0  0
  -21.1997   -7.6161   23.9750 H   0  0  0  0  0  0
  -21.1463   -6.0506   25.9097 H   0  0  0  0  0  0
  -22.0598   -2.7616   23.2818 H   0  0  0  0  0  0
  -22.3991  -11.9910   22.4768 H   0  0  0  0  0  0
  -21.1035  -13.1327   22.2427 H   0  0  0  0  0  0
  -24.6614  -15.8447   20.5397 H   0  0  0  0  0  0
  -26.2805  -15.6362   20.0962 H   0  0  0  0  0  0
  -26.7155  -32.5441   23.1182 H   0  0  0  0  0  0
  -25.0256  -33.9848   25.0561 H   0  0  0  0  0  0
  -22.6939  -31.3042   21.4150 H   0  0  0  0  0  0
  -23.3749  -35.9547   23.3251 H   0  0  0  0  0  0
  -24.3553  -36.8943   22.2065 H   0  0  0  0  0  0
  -23.7141  -37.6413   23.6699 H   0  0  0  0  0  0
  -26.0549  -31.5808   20.6013 H   0  0  0  0  0  0
  -26.8235  -30.8608   21.9922 H   0  0  0  0  0  0
  -28.0933  -29.0708   21.1678 H   0  0  0  0  0  0
  -26.0128  -25.9416   19.0268 H   0  0  0  0  0  0
  -23.9654  -27.2817   19.0448 H   0  0  0  0  0  0
  -23.7037  -30.5838   19.4037 H   0  0  0  0  0  0
  -22.7298  -29.2309   19.8851 H   0  0  0  0  0  0
  -25.1246  -36.1920   25.0806 H   0  0  0  0  0  0
  -20.9897  -28.3200   24.1432 H   0  0  0  0  0  0
  -20.5616  -26.2287   23.3595 H   0  0  0  0  0  0
  -21.6596  -26.7420   22.1202 H   0  0  0  0  0  0
  -19.6867  -25.6274   21.1230 H   0  0  0  0  0  0
  -19.6628  -27.3174   20.6736 H   0  0  0  0  0  0
  -17.4160  -26.6662   21.3984 H   0  0  0  0  0  0
  -18.0252  -26.0051   22.8989 H   0  0  0  0  0  0
  -19.7952  -30.7276   24.2143 H   0  0  0  0  0  0
  -17.5039  -31.6257   24.5170 H   0  0  0  0  0  0
  -15.5339  -30.2970   23.7751 H   0  0  0  0  0  0
  -15.8616  -28.0834   22.7063 H   0  0  0  0  0  0
  -24.5806  -30.7279   25.7920 H   0  0  0  0  0  0
  -24.9087  -32.3009   26.5091 H   0  0  0  0  0  0
  -25.8093  -30.8892   27.0273 H   0  0  0  0  0  0
  -26.2990  -29.6862   24.1160 H   0  0  0  0  0  0
  -27.3933  -29.7291   25.4774 H   0  0  0  0  0  0
  -27.8879  -30.4368   23.9585 H   0  0  0  0  0  0
  -27.2498  -33.3684   26.2203 H   0  0  0  0  0  0
  -28.3815  -32.7119   25.0505 H   0  0  0  0  0  0
  -28.0656  -31.8610   26.5546 H   0  0  0  0  0  0
  -28.2484  -38.0150   24.7610 H   0  0  0  0  0  0
  -28.1107  -36.2692   24.6093 H   0  0  0  0  0  0
  -27.2286  -37.1217   25.8839 H   0  0  0  0  0  0
  -20.9305  -29.8839   21.7033 H   0  0  0  0  0  0
  -26.0064  -38.2828   24.1584 H   0  0  0  0  0  0
  -30.3627  -19.3298   18.4371 H   0  0  0  0  0  0
  -30.2803  -16.7873   18.5291 H   0  0  0  0  0  0
  -27.8513  -21.0086   22.2071 H   0  0  0  0  0  0
  -28.8908  -22.3262   22.7152 H   0  0  0  0  0  0
  -30.1931  -23.6148   20.7811 H   0  0  0  0  0  0
  -29.9489  -23.0099   19.1575 H   0  0  0  0  0  0
  -26.5933  -23.1548   22.6442 H   0  0  0  0  0  0
  -26.3576  -22.5845   21.0095 H   0  0  0  0  0  0
  -27.5384  -23.6258   19.2688 H   0  0  0  0  0  0
  -31.0784  -21.2456   20.2794 H   0  0  0  0  0  0
  -30.6136  -21.0146   21.9236 H   0  0  0  0  0  0
  -28.1023  -25.6022   18.3586 H   0  0  0  0  0  0
  -29.6513  -25.4759   19.0614 H   0  0  0  0  0  0
  -29.1432  -15.2848   21.6256 H   0  0  0  0  0  0
  -28.5043  -21.3503   19.9748 H   0  0  0  0  0  0
  1 25  1  0  0  0
  1 30  2  0  0  0
  1 81  1  0  0  0
  2  3  1  0  0  0
  2 25  1  0  0  0
  2 85  1  0  0  0
  2 86  1  0  0  0
  3  4  1  0  0  0
  3 87  1  0  0  0
  3 88  1  0  0  0
  4  5  1  0  0  0
  4 89  1  0  0  0
  4 90  1  0  0  0
  5  6  1  0  0  0
  5 26  1  0  0  0
  5 91  1  0  0  0
  6 25  1  0  0  0
  6 92  1  0  0  0
  6 93  1  0  0  0
  7  8  2  0  0  0
  7 26  1  0  0  0
  7 29  1  0  0  0
  8  9  1  0  0  0
  8 22  1  0  0  0
  9 10  1  0  0  0
  9 27  2  0  0  0
 10 11  2  0  0  0
 10 15  1  0  0  0
 11 12  1  0  0  0
 11 94  1  0  0  0
 12 13  2  0  0  0
 12 95  1  0  0  0
 13 14  1  0  0  0
 13 31  1  0  0  0
 14 15  2  0  0  0
 14 96  1  0  0  0
 15 97  1  0  0  0
 16 17  2  0  0  0
 16 21  1  0  0  0
 16 31  1  0  0  0
 17 18  1  0  0  0
 17 98  1  0  0  0
 18 19  2  0  0  0
 18 99  1  0  0  0
 19 20  1  0  0  0
 19 24  1  0  0  0
 20 21  2  0  0  0
 20100  1  0  0  0
 21 23  1  0  0  0
 22 28  1  0  0  0
 22 32  2  0  0  0
 26 27  1  0  0  0
 28101  1  0  0  0
 28102  1  0  0  0
 29103  1  0  0  0
 29104  1  0  0  0
 33 34  1  0  0  0
 33 66  1  0  0  0
 33 70  2  0  0  0
 34 36  1  0  0  0
 34 59  1  0  0  0
 34105  1  0  0  0
 35 44  2  0  0  0
 35 45  1  0  0  0
 35 68  1  0  0  0
 36 56  1  0  0  0
 36106  1  0  0  0
 37 39  1  0  0  0
 37 47  1  0  0  0
 37 66  1  0  0  0
 37107  1  0  0  0
 38 43  2  0  0  0
 38 46  1  0  0  0
 38 47  1  0  0  0
 39 64  1  0  0  0
 39 67  2  0  0  0
 40 52  1  0  0  0
 40 53  2  0  0  0
 40 58  1  0  0  0
 41108  1  0  0  0
 41109  1  0  0  0
 41110  1  0  0  0
 41 48  1  0  0  0
 42 43  1  0  0  0
 42 66  1  0  0  0
 42111  1  0  0  0
 42112  1  0  0  0
 43 44  1  0  0  0
 44113  1  0  0  0
 45 46  2  0  0  0
 45114  1  0  0  0
 46115  1  0  0  0
 47116  1  0  0  0
 47117  1  0  0  0
 48 56  1  0  0  0
 48 65  1  0  0  0
 48118  1  0  0  0
 49 50  1  0  0  0
 49 53  1  0  0  0
 49 64  1  0  0  0
 49119  1  0  0  0
 50 51  1  0  0  0
 50120  1  0  0  0
 50121  1  0  0  0
 51 52  1  0  0  0
 51122  1  0  0  0
 51123  1  0  0  0
 52124  1  0  0  0
 52125  1  0  0  0
 53 54  1  0  0  0
 54 55  2  0  0  0
 54126  1  0  0  0
 55 57  1  0  0  0
 55127  1  0  0  0
 56 69  2  0  0  0
 57 58  2  0  0  0
 57128  1  0  0  0
 58129  1  0  0  0
 59 60  1  0  0  0
 59 61  1  0  0  0
 59 62  1  0  0  0
 60130  1  0  0  0
 60131  1  0  0  0
 60132  1  0  0  0
 61133  1  0  0  0
 61134  1  0  0  0
 61135  1  0  0  0
 62136  1  0  0  0
 62137  1  0  0  0
 62138  1  0  0  0
 63 65  1  0  0  0
 63139  1  0  0  0
 63140  1  0  0  0
 63141  1  0  0  0
 64142  1  0  0  0
 65143  1  0  0  0
 68 80  1  0  0  0
 71 72  1  0  0  0
 71 73  2  0  0  0
 71144  1  0  0  0
 72 74  2  0  0  0
 72145  1  0  0  0
 73 79  1  0  0  0
 73 84  1  0  0  0
 74 81  1  0  0  0
 74 84  1  0  0  0
 75 77  1  0  0  0
 75 82  1  0  0  0
 75146  1  0  0  0
 75147  1  0  0  0
 76 78  1  0  0  0
 76 82  1  0  0  0
 76148  1  0  0  0
 76149  1  0  0  0
 77 83  1  0  0  0
 77150  1  0  0  0
 77151  1  0  0  0
 78 80  1  0  0  0
 78 83  1  0  0  0
 78152  1  0  0  0
 79153  1  0  0  0
 79154  1  0  0  0
 79 82  1  0  0  0
 80155  1  0  0  0
 80156  1  0  0  0
 81157  1  0  0  0
 82158  1  0  0  0
M  CHG  1  82   1
M  ISO  4   1 100  68 101  80 101  81 100
M  END
> <chiral flag>
0

> <version>
0

> <s_m_source_file>
/data/baiqing/PycharmProjects/Reinvent-master-3.2/result/LINK_invent/BTK/process_docking_weight1_custom_product_contain_oxygen_bond_distance_aromatic_linkinvent_7_9_3/rearranged_h_0104.sdf

> <i_m_source_file_index>
95

> <r_mmod_Potential_Energy-OPLS-2005>
-114.692741394043

> <r_mmod_Stretch_Energy-OPLS-2005>
44.6782875061035

> <r_mmod_Bend_Energy-OPLS-2005>
116.812850952148

> <r_mmod_Torsional_Energy-OPLS-2005>
265.708557128906

> <r_mmod_Improper_Torsional_Energy-OPLS-2005>
3.99655675888062

> <r_mmod_Van_der_Waal_Energy-OPLS-2005>
131.150955200195

> <r_mmod_Electrostatic_Energy-OPLS-2005>
-254.001617431641

> <r_mmod_Solvation_Energy-OPLS-2005>
-441.804077148438

> <b_mmod_Minimization_Converged-OPLS-2005>
0

> <r_mmod_RMS_Derivative-OPLS-2005>
3.26742959022522

$$$$
96
                    3D
 Structure written by MMmdl.
164172  0  0  1  0            999 V2000
  -30.6777  -14.8123   20.3188 C   0  0  0  0  0  0
  -30.4374  -12.4667   19.4831 C   0  0  0  0  0  0
  -29.5250  -12.4041   18.2391 C   0  0  0  0  0  0
  -28.0488  -12.2589   18.6822 C   0  0  0  0  0  0
  -27.6256  -13.2035   19.8443 C   0  0  2  0  0  0
  -28.6970  -13.3174   20.9529 C   0  0  0  0  0  0
  -25.2481  -13.7965   20.5903 C   0  0  0  0  0  0
  -24.1708  -13.0272   20.9320 C   0  0  0  0  0  0
  -24.6339  -11.6785   20.8888 C   0  0  0  0  0  0
  -23.8970  -10.4241   21.0469 C   0  0  0  0  0  0
  -24.3549   -9.4226   21.9259 C   0  0  0  0  0  0
  -23.6203   -8.2288   22.0919 C   0  0  0  0  0  0
  -22.4230   -8.0326   21.3643 C   0  0  0  0  0  0
  -21.9809   -9.0244   20.4736 C   0  0  0  0  0  0
  -22.7151  -10.2106   20.3116 C   0  0  0  0  0  0
  -21.6797   -6.0766   22.5259 C   0  0  0  0  0  0
  -21.3986   -6.5647   23.8197 C   0  0  0  0  0  0
  -21.3629   -5.6798   24.9145 C   0  0  0  0  0  0
  -21.6059   -4.3057   24.7206 C   0  0  0  0  0  0
  -21.8768   -3.8182   23.4307 C   0  0  0  0  0  0
  -21.9115   -4.6984   22.3345 C   0  0  0  0  0  0
  -22.7763  -13.5159   21.1858 C   0  0  0  0  0  0
  -22.1601   -4.2224   21.0930 F   0  0  0  0  0  0
  -21.5663   -3.4528   25.7698 F   0  0  0  0  0  0
  -29.9902  -13.6119   20.3068 N   0  0  0  0  0  0
  -26.2918  -12.9147   20.3563 N   0  0  0  0  0  0
  -25.9282  -11.6343   20.6007 N   0  0  0  0  0  0
  -22.0235  -12.8285   22.0397 N   0  0  0  0  0  0
  -25.3967  -15.1676   20.4369 N   0  0  0  0  0  0
  -31.9039  -14.7915   20.2642 O   0  0  0  0  0  0
  -21.6600   -6.8925   21.4274 O   0  0  0  0  0  0
  -22.3542  -14.5478   20.6680 O   0  0  0  0  0  0
  -24.6217  -31.8555   23.2019 C   0  0  0  0  0  0
  -25.9116  -32.4746   23.8285 C   0  0  1  0  0  0
  -27.2176  -27.3017   20.1128 C   0  0  0  0  0  0
  -25.5973  -33.8555   24.2198 N   0  0  0  0  0  0
  -23.4106  -30.4758   21.5442 C   0  0  2  0  0  0
  -24.8545  -28.9303   20.1036 C   0  0  0  0  0  0
  -22.7408  -29.4591   22.4999 C   0  0  0  0  0  0
  -18.0242  -28.1397   22.8466 C   0  0  0  0  0  0
  -24.1476  -36.7277   23.2618 C   0  0  0  0  0  0
  -25.9473  -30.7859   21.3648 C   0  0  0  0  0  0
  -26.0238  -29.4096   20.7105 C   0  0  0  0  0  0
  -27.2063  -28.6059   20.7023 C   0  0  0  0  0  0
  -26.0181  -26.8701   19.4993 C   0  0  0  0  0  0
  -24.8572  -27.6680   19.4874 C   0  0  0  0  0  0
  -23.6157  -29.7991   20.1601 C   0  0  0  0  0  0
  -25.4115  -36.3040   24.0271 C   0  0  1  0  0  0
  -20.5818  -28.3682   23.1321 C   0  0  2  0  0  0
  -20.6780  -26.9439   22.5403 C   0  0  0  0  0  0
  -19.5772  -26.6396   21.5196 C   0  0  0  0  0  0
  -18.1931  -26.7933   22.1587 C   0  0  0  0  0  0
  -19.1499  -28.8845   23.2889 C   0  0  0  0  0  0
  -18.9443  -30.1468   23.8898 C   0  0  0  0  0  0
  -17.6454  -30.6644   24.0526 C   0  0  0  0  0  0
  -25.9065  -34.9432   23.5009 C   0  0  0  0  0  0
  -16.5329  -29.9117   23.6370 C   0  0  0  0  0  0
  -16.7224  -28.6506   23.0408 C   0  0  0  0  0  0
  -26.4506  -31.6609   25.0681 C   0  0  0  0  0  0
  -25.3751  -31.3849   26.1417 C   0  0  0  0  0  0
  -27.0403  -30.3018   24.6242 C   0  0  0  0  0  0
  -27.6043  -32.4340   25.7499 C   0  0  0  0  0  0
  -27.5564  -37.1787   24.8451 C   0  0  0  0  0  0
  -21.4103  -29.3055   22.3729 N   0  0  0  0  0  0
  -26.4277  -37.3754   23.9427 N   0  0  0  0  0  0
  -24.6763  -31.0586   22.0964 N   0  0  0  0  0  0
  -23.4110  -28.8148   23.3111 O   0  0  0  0  0  0
  -28.3475  -26.4666   20.1550 O   0  0  0  0  0  0
  -26.5607  -34.8904   22.4562 O   0  0  0  0  0  0
  -23.5405  -32.1342   23.7378 O   0  0  0  0  0  0
  -29.7381  -18.0122   21.5639 C   0  0  0  0  0  0
  -29.7807  -19.4329   21.7461 C   0  0  0  0  0  0
  -31.2271  -18.2292   19.7069 C   0  0  0  0  0  0
  -30.3962  -17.3684   20.4791 C   0  0  0  0  0  0
  -31.2351  -19.6490   19.8517 C   0  0  0  0  0  0
  -30.4319  -20.2994   20.8212 C   0  0  0  0  0  0
  -27.8879  -16.8439   18.8043 C   0  0  0  0  0  0
  -27.0822  -17.1387   17.5339 C   0  0  0  0  0  0
  -30.0936  -16.4965   17.4378 C   0  0  0  0  0  0
  -29.3525  -24.0669   20.5042 C   0  0  0  0  0  0
  -28.2464  -25.0134   19.8509 C   0  0  0  0  0  0
  -29.2610  -22.4650   20.3937 C   0  0  0  0  0  0
  -29.2538  -16.0859   18.6920 C   0  0  1  0  0  0
  -32.0349  -20.4159   18.9982 N   0  0  0  0  0  0
  -30.0202  -16.0128   19.9936 N   0  0  0  0  0  0
  -27.3861  -17.1800   19.8841 O   0  0  0  0  0  0
  -30.4044  -21.7096   20.9202 O   0  0  0  0  0  0
  -31.4749  -12.5709   19.1671 H   0  0  0  0  0  0
  -30.3751  -11.5410   20.0592 H   0  0  0  0  0  0
  -29.8119  -11.5577   17.6076 H   0  0  0  0  0  0
  -29.6884  -13.2674   17.6003 H   0  0  0  0  0  0
  -27.9409  -11.2265   19.0133 H   0  0  0  0  0  0
  -27.3814  -12.3717   17.8263 H   0  0  0  0  0  0
  -27.5195  -14.1832   19.4051 H   0  0  0  0  0  0
  -28.7658  -12.4239   21.5727 H   0  0  0  0  0  0
  -28.4376  -14.1387   21.6206 H   0  0  0  0  0  0
  -25.2733   -9.5784   22.4775 H   0  0  0  0  0  0
  -23.9811   -7.4789   22.7815 H   0  0  0  0  0  0
  -21.0702   -8.8701   19.9125 H   0  0  0  0  0  0
  -22.3589  -10.9662   19.6245 H   0  0  0  0  0  0
  -21.2090   -7.6169   23.9712 H   0  0  0  0  0  0
  -21.1470   -6.0578   25.9049 H   0  0  0  0  0  0
  -22.0587   -2.7671   23.2751 H   0  0  0  0  0  0
  -22.3467  -11.9928   22.4984 H   0  0  0  0  0  0
  -21.0968  -13.1707   22.2495 H   0  0  0  0  0  0
  -24.5990  -15.7820   20.5669 H   0  0  0  0  0  0
  -26.2520  -15.6811   20.2424 H   0  0  0  0  0  0
  -26.7184  -32.5344   23.1039 H   0  0  0  0  0  0
  -25.0205  -33.9745   25.0378 H   0  0  0  0  0  0
  -22.6986  -31.2927   21.4035 H   0  0  0  0  0  0
  -23.3727  -35.9623   23.3230 H   0  0  0  0  0  0
  -24.3535  -36.8953   22.2037 H   0  0  0  0  0  0
  -23.7251  -37.6458   23.6692 H   0  0  0  0  0  0
  -26.0605  -31.5500   20.5916 H   0  0  0  0  0  0
  -26.8290  -30.8408   21.9925 H   0  0  0  0  0  0
  -28.0959  -28.9693   21.1925 H   0  0  0  0  0  0
  -25.9471  -25.9030   19.0361 H   0  0  0  0  0  0
  -23.9599  -27.2923   19.0164 H   0  0  0  0  0  0
  -23.6976  -30.5605   19.3831 H   0  0  0  0  0  0
  -22.7395  -29.2057   19.8893 H   0  0  0  0  0  0
  -25.1304  -36.1800   25.0763 H   0  0  0  0  0  0
  -20.9887  -28.3238   24.1442 H   0  0  0  0  0  0
  -20.5722  -26.2275   23.3556 H   0  0  0  0  0  0
  -21.6659  -26.7546   22.1195 H   0  0  0  0  0  0
  -19.6968  -25.6287   21.1286 H   0  0  0  0  0  0
  -19.6773  -27.3139   20.6668 H   0  0  0  0  0  0
  -17.4221  -26.6629   21.3981 H   0  0  0  0  0  0
  -18.0391  -26.0076   22.8989 H   0  0  0  0  0  0
  -19.7940  -30.7296   24.2250 H   0  0  0  0  0  0
  -17.5038  -31.6336   24.5129 H   0  0  0  0  0  0
  -15.5351  -30.3048   23.7795 H   0  0  0  0  0  0
  -15.8578  -28.0864   22.7214 H   0  0  0  0  0  0
  -24.5842  -30.7279   25.7794 H   0  0  0  0  0  0
  -24.9067  -32.3081   26.4833 H   0  0  0  0  0  0
  -25.8053  -30.9017   27.0192 H   0  0  0  0  0  0
  -26.3024  -29.6699   24.1269 H   0  0  0  0  0  0
  -27.4053  -29.7381   25.4847 H   0  0  0  0  0  0
  -27.8895  -30.4280   23.9517 H   0  0  0  0  0  0
  -27.2648  -33.3668   26.2020 H   0  0  0  0  0  0
  -28.3950  -32.6822   25.0419 H   0  0  0  0  0  0
  -28.0572  -31.8459   26.5499 H   0  0  0  0  0  0
  -28.2553  -38.0112   24.7528 H   0  0  0  0  0  0
  -28.1088  -36.2636   24.6223 H   0  0  0  0  0  0
  -27.2277  -37.1341   25.8852 H   0  0  0  0  0  0
  -20.9266  -29.8677   21.6882 H   0  0  0  0  0  0
  -26.0075  -38.2786   24.1540 H   0  0  0  0  0  0
  -29.0968  -17.4295   22.2131 H   0  0  0  0  0  0
  -29.2680  -19.8676   22.5953 H   0  0  0  0  0  0
  -31.8078  -17.8030   18.9040 H   0  0  0  0  0  0
  -27.1602  -16.3102   16.8280 H   0  0  0  0  0  0
  -27.4008  -18.0663   17.0592 H   0  0  0  0  0  0
  -26.0276  -17.2796   17.7786 H   0  0  0  0  0  0
  -29.6352  -16.1466   16.5083 H   0  0  0  0  0  0
  -31.0967  -16.0685   17.4469 H   0  0  0  0  0  0
  -30.1759  -17.5798   17.3327 H   0  0  0  0  0  0
  -29.3648  -24.3201   21.5649 H   0  0  0  0  0  0
  -30.3197  -24.3820   20.1115 H   0  0  0  0  0  0
  -28.2820  -24.8966   18.7633 H   0  0  0  0  0  0
  -27.2805  -24.6052   20.1492 H   0  0  0  0  0  0
  -29.1298  -22.1976   19.3440 H   0  0  0  0  0  0
  -28.3667  -22.1136   20.9148 H   0  0  0  0  0  0
  -29.0069  -15.0755   18.4109 H   0  0  0  0  0  0
  -32.8118  -19.9933   18.5015 H   0  0  0  0  0  0
  -32.1340  -21.4129   19.1436 H   0  0  0  0  0  0
  1 25  1  0  0  0
  1 30  2  0  0  0
  1 85  1  0  0  0
  2  3  1  0  0  0
  2 25  1  0  0  0
  2 88  1  0  0  0
  2 89  1  0  0  0
  3  4  1  0  0  0
  3 90  1  0  0  0
  3 91  1  0  0  0
  4  5  1  0  0  0
  4 92  1  0  0  0
  4 93  1  0  0  0
  5  6  1  0  0  0
  5 26  1  0  0  0
  5 94  1  0  0  0
  6 25  1  0  0  0
  6 95  1  0  0  0
  6 96  1  0  0  0
  7  8  2  0  0  0
  7 26  1  0  0  0
  7 29  1  0  0  0
  8  9  1  0  0  0
  8 22  1  0  0  0
  9 10  1  0  0  0
  9 27  2  0  0  0
 10 11  2  0  0  0
 10 15  1  0  0  0
 11 12  1  0  0  0
 11 97  1  0  0  0
 12 13  2  0  0  0
 12 98  1  0  0  0
 13 14  1  0  0  0
 13 31  1  0  0  0
 14 15  2  0  0  0
 14 99  1  0  0  0
 15100  1  0  0  0
 16 17  2  0  0  0
 16 21  1  0  0  0
 16 31  1  0  0  0
 17 18  1  0  0  0
 17101  1  0  0  0
 18 19  2  0  0  0
 18102  1  0  0  0
 19 20  1  0  0  0
 19 24  1  0  0  0
 20 21  2  0  0  0
 20103  1  0  0  0
 21 23  1  0  0  0
 22 28  1  0  0  0
 22 32  2  0  0  0
 26 27  1  0  0  0
 28104  1  0  0  0
 28105  1  0  0  0
 29106  1  0  0  0
 29107  1  0  0  0
 33 34  1  0  0  0
 33 66  1  0  0  0
 33 70  2  0  0  0
 34 36  1  0  0  0
 34 59  1  0  0  0
 34108  1  0  0  0
 35 44  2  0  0  0
 35 45  1  0  0  0
 35 68  1  0  0  0
 36 56  1  0  0  0
 36109  1  0  0  0
 37 39  1  0  0  0
 37 47  1  0  0  0
 37 66  1  0  0  0
 37110  1  0  0  0
 38 43  2  0  0  0
 38 46  1  0  0  0
 38 47  1  0  0  0
 39 64  1  0  0  0
 39 67  2  0  0  0
 40 52  1  0  0  0
 40 53  2  0  0  0
 40 58  1  0  0  0
 41111  1  0  0  0
 41112  1  0  0  0
 41113  1  0  0  0
 41 48  1  0  0  0
 42 43  1  0  0  0
 42 66  1  0  0  0
 42114  1  0  0  0
 42115  1  0  0  0
 43 44  1  0  0  0
 44116  1  0  0  0
 45 46  2  0  0  0
 45117  1  0  0  0
 46118  1  0  0  0
 47119  1  0  0  0
 47120  1  0  0  0
 48 56  1  0  0  0
 48 65  1  0  0  0
 48121  1  0  0  0
 49 50  1  0  0  0
 49 53  1  0  0  0
 49 64  1  0  0  0
 49122  1  0  0  0
 50 51  1  0  0  0
 50123  1  0  0  0
 50124  1  0  0  0
 51 52  1  0  0  0
 51125  1  0  0  0
 51126  1  0  0  0
 52127  1  0  0  0
 52128  1  0  0  0
 53 54  1  0  0  0
 54 55  2  0  0  0
 54129  1  0  0  0
 55 57  1  0  0  0
 55130  1  0  0  0
 56 69  2  0  0  0
 57 58  2  0  0  0
 57131  1  0  0  0
 58132  1  0  0  0
 59 60  1  0  0  0
 59 61  1  0  0  0
 59 62  1  0  0  0
 60133  1  0  0  0
 60134  1  0  0  0
 60135  1  0  0  0
 61136  1  0  0  0
 61137  1  0  0  0
 61138  1  0  0  0
 62139  1  0  0  0
 62140  1  0  0  0
 62141  1  0  0  0
 63 65  1  0  0  0
 63142  1  0  0  0
 63143  1  0  0  0
 63144  1  0  0  0
 64145  1  0  0  0
 65146  1  0  0  0
 68 81  1  0  0  0
 71 72  2  0  0  0
 71 74  1  0  0  0
 71147  1  0  0  0
 72 76  1  0  0  0
 72148  1  0  0  0
 73 74  2  0  0  0
 73 75  1  0  0  0
 73149  1  0  0  0
 74 85  1  0  0  0
 75 76  2  0  0  0
 75 84  1  0  0  0
 76 87  1  0  0  0
 77 78  1  0  0  0
 77 83  1  0  0  0
 77 86  2  0  0  0
 78150  1  0  0  0
 78151  1  0  0  0
 78152  1  0  0  0
 79153  1  0  0  0
 79154  1  0  0  0
 79155  1  0  0  0
 79 83  1  0  0  0
 80 81  1  0  0  0
 80 82  1  0  0  0
 80156  1  0  0  0
 80157  1  0  0  0
 81158  1  0  0  0
 81159  1  0  0  0
 82 87  1  0  0  0
 82160  1  0  0  0
 82161  1  0  0  0
 83 85  1  0  0  0
 83162  1  0  0  0
 84163  1  0  0  0
 84164  1  0  0  0
M  ISO  4   1 100  68 101  81 101  85 100
M  END
> <chiral flag>
0

> <version>
0

> <s_m_source_file>
/data/baiqing/PycharmProjects/Reinvent-master-3.2/result/LINK_invent/BTK/process_docking_weight1_custom_product_contain_oxygen_bond_distance_aromatic_linkinvent_7_9_3/rearranged_h_0104.sdf

> <i_m_source_file_index>
96

> <r_mmod_Potential_Energy-OPLS-2005>
319.259033203125

> <r_mmod_Stretch_Energy-OPLS-2005>
109.349624633789

> <r_mmod_Bend_Energy-OPLS-2005>
174.259506225586

> <r_mmod_Torsional_Energy-OPLS-2005>
383.093017578125

> <r_mmod_Improper_Torsional_Energy-OPLS-2005>
16.8219757080078

> <r_mmod_Van_der_Waal_Energy-OPLS-2005>
145.485687255859

> <r_mmod_Electrostatic_Energy-OPLS-2005>
-413.806457519531

> <r_mmod_Solvation_Energy-OPLS-2005>
-207.109603881836

> <b_mmod_Minimization_Converged-OPLS-2005>
0

> <r_mmod_RMS_Derivative-OPLS-2005>
10.9426374435425

$$$$
97
                    3D
 Structure written by MMmdl.
161170  0  0  1  0            999 V2000
  -30.5681  -14.6912   20.4800 C   0  0  0  0  0  0
  -30.4435  -12.4215   19.4560 C   0  0  0  0  0  0
  -29.5167  -12.5222   18.2229 C   0  0  0  0  0  0
  -28.0333  -12.3576   18.6205 C   0  0  0  0  0  0
  -27.6465  -13.2196   19.8525 C   0  0  2  0  0  0
  -28.6890  -13.0769   20.9832 C   0  0  0  0  0  0
  -25.2520  -13.8150   20.5666 C   0  0  0  0  0  0
  -24.1807  -13.0405   20.9159 C   0  0  0  0  0  0
  -24.6396  -11.6894   20.8706 C   0  0  0  0  0  0
  -23.9072  -10.4273   21.0373 C   0  0  0  0  0  0
  -24.3636   -9.4207   21.9158 C   0  0  0  0  0  0
  -23.6309   -8.2247   22.0744 C   0  0  0  0  0  0
  -22.4293   -8.0267   21.3537 C   0  0  0  0  0  0
  -21.9916   -9.0237   20.4637 C   0  0  0  0  0  0
  -22.7241  -10.2114   20.3024 C   0  0  0  0  0  0
  -21.6851   -6.0743   22.5290 C   0  0  0  0  0  0
  -21.4014   -6.5644   23.8222 C   0  0  0  0  0  0
  -21.3655   -5.6796   24.9178 C   0  0  0  0  0  0
  -21.6043   -4.3060   24.7233 C   0  0  0  0  0  0
  -21.8818   -3.8148   23.4350 C   0  0  0  0  0  0
  -21.9198   -4.6967   22.3408 C   0  0  0  0  0  0
  -22.7830  -13.5189   21.1842 C   0  0  0  0  0  0
  -22.1658   -4.2155   21.0984 F   0  0  0  0  0  0
  -21.5632   -3.4538   25.7736 F   0  0  0  0  0  0
  -29.9997  -13.4425   20.4253 N   0  0  0  0  0  0
  -26.2947  -12.9354   20.3220 N   0  0  0  0  0  0
  -25.9320  -11.6502   20.5668 N   0  0  0  0  0  0
  -22.0492  -12.8192   22.0410 N   0  0  0  0  0  0
  -25.4135  -15.1878   20.4199 N   0  0  0  0  0  0
  -31.7422  -14.8742   20.1418 O   0  0  0  0  0  0
  -21.6640   -6.8884   21.4247 O   0  0  0  0  0  0
  -22.3505  -14.5501   20.6689 O   0  0  0  0  0  0
  -24.6313  -31.8573   23.2051 C   0  0  0  0  0  0
  -25.9152  -32.4747   23.8402 C   0  0  1  0  0  0
  -27.2119  -27.2730   20.1154 C   0  0  0  0  0  0
  -25.5958  -33.8560   24.2305 N   0  0  0  0  0  0
  -23.4258  -30.4835   21.5461 C   0  0  2  0  0  0
  -24.8673  -28.9317   20.1096 C   0  0  0  0  0  0
  -22.7511  -29.4631   22.4947 C   0  0  0  0  0  0
  -18.0302  -28.1412   22.8476 C   0  0  0  0  0  0
  -24.1472  -36.7282   23.2635 C   0  0  0  0  0  0
  -25.9717  -30.7663   21.3884 C   0  0  0  0  0  0
  -26.0370  -29.3930   20.7232 C   0  0  0  0  0  0
  -27.2091  -28.5757   20.7174 C   0  0  0  0  0  0
  -26.0202  -26.8797   19.4659 C   0  0  0  0  0  0
  -24.8626  -27.6824   19.4715 C   0  0  0  0  0  0
  -23.6394  -29.8191   20.1604 C   0  0  0  0  0  0
  -25.4104  -36.3076   24.0332 C   0  0  1  0  0  0
  -20.5899  -28.3724   23.1258 C   0  0  2  0  0  0
  -20.6796  -26.9446   22.5395 C   0  0  0  0  0  0
  -19.5775  -26.6396   21.5208 C   0  0  0  0  0  0
  -18.1953  -26.7953   22.1613 C   0  0  0  0  0  0
  -19.1551  -28.8890   23.2852 C   0  0  0  0  0  0
  -18.9472  -30.1489   23.8874 C   0  0  0  0  0  0
  -17.6471  -30.6601   24.0574 C   0  0  0  0  0  0
  -25.9060  -34.9438   23.5119 C   0  0  0  0  0  0
  -16.5362  -29.9098   23.6344 C   0  0  0  0  0  0
  -16.7287  -28.6522   23.0347 C   0  0  0  0  0  0
  -26.4515  -31.6598   25.0817 C   0  0  0  0  0  0
  -25.3753  -31.3741   26.1557 C   0  0  0  0  0  0
  -27.0361  -30.3008   24.6342 C   0  0  0  0  0  0
  -27.6074  -32.4358   25.7577 C   0  0  0  0  0  0
  -27.5578  -37.1796   24.8463 C   0  0  0  0  0  0
  -21.4222  -29.3065   22.3654 N   0  0  0  0  0  0
  -26.4266  -37.3790   23.9432 N   0  0  0  0  0  0
  -24.6946  -31.0555   22.1002 N   0  0  0  0  0  0
  -23.4225  -28.8172   23.3036 O   0  0  0  0  0  0
  -28.3307  -26.4145   20.1729 O   0  0  0  0  0  0
  -26.5627  -34.8912   22.4686 O   0  0  0  0  0  0
  -23.5470  -32.1380   23.7371 O   0  0  0  0  0  0
  -30.6839  -19.4585   20.6249 C   0  0  0  0  0  0
  -30.7957  -18.0400   20.7887 C   0  0  0  0  0  0
  -28.4143  -19.2288   19.9266 C   0  0  0  0  0  0
  -29.4931  -20.1242   20.1852 C   0  0  0  0  0  0
  -29.7089  -17.1692   20.5244 C   0  0  0  0  0  0
  -28.5130  -17.8120   20.1047 C   0  0  0  0  0  0
  -28.8311  -24.0265   21.0427 C   0  0  0  0  0  0
  -31.8732  -22.3184   19.4032 C   0  0  0  0  0  0
  -31.8669  -23.0089   20.7911 C   0  0  0  0  0  0
  -30.4650  -22.0817   18.7954 C   0  0  0  0  0  0
  -30.6760  -22.5915   21.6868 C   0  0  0  0  0  0
  -29.3841  -21.6961   19.8354 C   0  0  2  0  0  0
  -28.2466  -24.9365   19.8884 C   0  0  0  0  0  0
  -29.4526  -22.7788   20.8985 N   0  0  0  0  0  0
  -29.6898  -15.7164   20.7428 N   0  0  0  0  0  0
  -28.7946  -24.5528   22.1625 O   0  0  0  0  0  0
  -27.4299  -17.0382   19.8478 F   0  0  0  0  0  0
  -31.4839  -12.5655   19.1615 H   0  0  0  0  0  0
  -30.3898  -11.4272   19.9005 H   0  0  0  0  0  0
  -29.7955  -11.7732   17.4805 H   0  0  0  0  0  0
  -29.6557  -13.4922   17.7416 H   0  0  0  0  0  0
  -27.8639  -11.3023   18.8358 H   0  0  0  0  0  0
  -27.3895  -12.6004   17.7725 H   0  0  0  0  0  0
  -27.6534  -14.2542   19.5104 H   0  0  0  0  0  0
  -28.7103  -12.0519   21.3542 H   0  0  0  0  0  0
  -28.4247  -13.7004   21.8391 H   0  0  0  0  0  0
  -25.2791   -9.5700   22.4724 H   0  0  0  0  0  0
  -24.0023   -7.4649   22.7476 H   0  0  0  0  0  0
  -21.0840   -8.8755   19.8958 H   0  0  0  0  0  0
  -22.3694  -10.9652   19.6128 H   0  0  0  0  0  0
  -21.1996   -7.6150   23.9729 H   0  0  0  0  0  0
  -21.1474   -6.0518   25.9087 H   0  0  0  0  0  0
  -22.0602   -2.7609   23.2846 H   0  0  0  0  0  0
  -22.4110  -11.9853   22.4811 H   0  0  0  0  0  0
  -21.1096  -13.1195   22.2604 H   0  0  0  0  0  0
  -24.6416  -15.8295   20.5568 H   0  0  0  0  0  0
  -26.2585  -15.6674   20.1238 H   0  0  0  0  0  0
  -26.7224  -32.5375   23.1148 H   0  0  0  0  0  0
  -25.0142  -33.9698   25.0476 H   0  0  0  0  0  0
  -22.7205  -31.3058   21.4060 H   0  0  0  0  0  0
  -23.3751  -35.9590   23.3262 H   0  0  0  0  0  0
  -24.3569  -36.8945   22.2052 H   0  0  0  0  0  0
  -23.7176  -37.6456   23.6679 H   0  0  0  0  0  0
  -26.1288  -31.5283   20.6254 H   0  0  0  0  0  0
  -26.8432  -30.7983   22.0308 H   0  0  0  0  0  0
  -28.1047  -28.9257   21.2112 H   0  0  0  0  0  0
  -25.9427  -25.9416   18.9413 H   0  0  0  0  0  0
  -23.9676  -27.3319   18.9766 H   0  0  0  0  0  0
  -23.7619  -30.5965   19.4055 H   0  0  0  0  0  0
  -22.7562  -29.2530   19.8586 H   0  0  0  0  0  0
  -25.1263  -36.1924   25.0815 H   0  0  0  0  0  0
  -20.9985  -28.3298   24.1381 H   0  0  0  0  0  0
  -20.5708  -26.2346   23.3606 H   0  0  0  0  0  0
  -21.6664  -26.7488   22.1176 H   0  0  0  0  0  0
  -19.6938  -25.6298   21.1264 H   0  0  0  0  0  0
  -19.6705  -27.3180   20.6717 H   0  0  0  0  0  0
  -17.4224  -26.6699   21.4012 H   0  0  0  0  0  0
  -18.0353  -26.0098   22.9010 H   0  0  0  0  0  0
  -19.7947  -30.7320   24.2220 H   0  0  0  0  0  0
  -17.5023  -31.6273   24.5196 H   0  0  0  0  0  0
  -15.5362  -30.2991   23.7695 H   0  0  0  0  0  0
  -15.8684  -28.0839   22.7069 H   0  0  0  0  0  0
  -24.5929  -30.7073   25.7920 H   0  0  0  0  0  0
  -24.8941  -32.2888   26.5028 H   0  0  0  0  0  0
  -25.8095  -30.8915   27.0324 H   0  0  0  0  0  0
  -26.2954  -29.6771   24.1321 H   0  0  0  0  0  0
  -27.3954  -29.7275   25.4901 H   0  0  0  0  0  0
  -27.8886  -30.4277   23.9667 H   0  0  0  0  0  0
  -27.2689  -33.3671   26.2143 H   0  0  0  0  0  0
  -28.3889  -32.6907   25.0403 H   0  0  0  0  0  0
  -28.0753  -31.8506   26.5507 H   0  0  0  0  0  0
  -28.2573  -38.0121   24.7570 H   0  0  0  0  0  0
  -28.1093  -36.2659   24.6194 H   0  0  0  0  0  0
  -27.2327  -37.1343   25.8873 H   0  0  0  0  0  0
  -20.9447  -29.8735   21.6782 H   0  0  0  0  0  0
  -26.0142  -38.2855   24.1466 H   0  0  0  0  0  0
  -31.5734  -20.0255   20.8393 H   0  0  0  0  0  0
  -31.7322  -17.6287   21.1348 H   0  0  0  0  0  0
  -27.4790  -19.6229   19.5554 H   0  0  0  0  0  0
  -32.4143  -21.3761   19.4633 H   0  0  0  0  0  0
  -32.4599  -22.9177   18.7049 H   0  0  0  0  0  0
  -31.8277  -24.0879   20.6355 H   0  0  0  0  0  0
  -32.8117  -22.8242   21.3043 H   0  0  0  0  0  0
  -30.5148  -21.3346   18.0015 H   0  0  0  0  0  0
  -30.1631  -23.0060   18.3041 H   0  0  0  0  0  0
  -30.6931  -23.1739   22.6082 H   0  0  0  0  0  0
  -30.7574  -21.5728   22.0483 H   0  0  0  0  0  0
  -28.4143  -21.8215   19.3500 H   0  0  0  0  0  0
  -27.2319  -24.5774   19.7413 H   0  0  0  0  0  0
  -28.7821  -24.7318   18.9620 H   0  0  0  0  0  0
  -28.7596  -15.3665   20.9142 H   0  0  0  0  0  0
  1 25  1  0  0  0
  1 30  2  0  0  0
  1 85  1  0  0  0
  2  3  1  0  0  0
  2 25  1  0  0  0
  2 88  1  0  0  0
  2 89  1  0  0  0
  3  4  1  0  0  0
  3 90  1  0  0  0
  3 91  1  0  0  0
  4  5  1  0  0  0
  4 92  1  0  0  0
  4 93  1  0  0  0
  5  6  1  0  0  0
  5 26  1  0  0  0
  5 94  1  0  0  0
  6 25  1  0  0  0
  6 95  1  0  0  0
  6 96  1  0  0  0
  7  8  2  0  0  0
  7 26  1  0  0  0
  7 29  1  0  0  0
  8  9  1  0  0  0
  8 22  1  0  0  0
  9 10  1  0  0  0
  9 27  2  0  0  0
 10 11  2  0  0  0
 10 15  1  0  0  0
 11 12  1  0  0  0
 11 97  1  0  0  0
 12 13  2  0  0  0
 12 98  1  0  0  0
 13 14  1  0  0  0
 13 31  1  0  0  0
 14 15  2  0  0  0
 14 99  1  0  0  0
 15100  1  0  0  0
 16 17  2  0  0  0
 16 21  1  0  0  0
 16 31  1  0  0  0
 17 18  1  0  0  0
 17101  1  0  0  0
 18 19  2  0  0  0
 18102  1  0  0  0
 19 20  1  0  0  0
 19 24  1  0  0  0
 20 21  2  0  0  0
 20103  1  0  0  0
 21 23  1  0  0  0
 22 28  1  0  0  0
 22 32  2  0  0  0
 26 27  1  0  0  0
 28104  1  0  0  0
 28105  1  0  0  0
 29106  1  0  0  0
 29107  1  0  0  0
 33 34  1  0  0  0
 33 66  1  0  0  0
 33 70  2  0  0  0
 34 36  1  0  0  0
 34 59  1  0  0  0
 34108  1  0  0  0
 35 44  2  0  0  0
 35 45  1  0  0  0
 35 68  1  0  0  0
 36 56  1  0  0  0
 36109  1  0  0  0
 37 39  1  0  0  0
 37 47  1  0  0  0
 37 66  1  0  0  0
 37110  1  0  0  0
 38 43  2  0  0  0
 38 46  1  0  0  0
 38 47  1  0  0  0
 39 64  1  0  0  0
 39 67  2  0  0  0
 40 52  1  0  0  0
 40 53  2  0  0  0
 40 58  1  0  0  0
 41111  1  0  0  0
 41112  1  0  0  0
 41113  1  0  0  0
 41 48  1  0  0  0
 42 43  1  0  0  0
 42 66  1  0  0  0
 42114  1  0  0  0
 42115  1  0  0  0
 43 44  1  0  0  0
 44116  1  0  0  0
 45 46  2  0  0  0
 45117  1  0  0  0
 46118  1  0  0  0
 47119  1  0  0  0
 47120  1  0  0  0
 48 56  1  0  0  0
 48 65  1  0  0  0
 48121  1  0  0  0
 49 50  1  0  0  0
 49 53  1  0  0  0
 49 64  1  0  0  0
 49122  1  0  0  0
 50 51  1  0  0  0
 50123  1  0  0  0
 50124  1  0  0  0
 51 52  1  0  0  0
 51125  1  0  0  0
 51126  1  0  0  0
 52127  1  0  0  0
 52128  1  0  0  0
 53 54  1  0  0  0
 54 55  2  0  0  0
 54129  1  0  0  0
 55 57  1  0  0  0
 55130  1  0  0  0
 56 69  2  0  0  0
 57 58  2  0  0  0
 57131  1  0  0  0
 58132  1  0  0  0
 59 60  1  0  0  0
 59 61  1  0  0  0
 59 62  1  0  0  0
 60133  1  0  0  0
 60134  1  0  0  0
 60135  1  0  0  0
 61136  1  0  0  0
 61137  1  0  0  0
 61138  1  0  0  0
 62139  1  0  0  0
 62140  1  0  0  0
 62141  1  0  0  0
 63 65  1  0  0  0
 63142  1  0  0  0
 63143  1  0  0  0
 63144  1  0  0  0
 64145  1  0  0  0
 65146  1  0  0  0
 68 83  1  0  0  0
 71 72  2  0  0  0
 71 74  1  0  0  0
 71147  1  0  0  0
 72 75  1  0  0  0
 72148  1  0  0  0
 73 74  2  0  0  0
 73 76  1  0  0  0
 73149  1  0  0  0
 74 82  1  0  0  0
 75 76  2  0  0  0
 75 85  1  0  0  0
 76 87  1  0  0  0
 77 83  1  0  0  0
 77 84  1  0  0  0
 77 86  2  0  0  0
 78 79  1  0  0  0
 78 80  1  0  0  0
 78150  1  0  0  0
 78151  1  0  0  0
 79 81  1  0  0  0
 79152  1  0  0  0
 79153  1  0  0  0
 80 82  1  0  0  0
 80154  1  0  0  0
 80155  1  0  0  0
 81 84  1  0  0  0
 81156  1  0  0  0
 81157  1  0  0  0
 82 84  1  0  0  0
 82158  1  0  0  0
 83159  1  0  0  0
 83160  1  0  0  0
 85161  1  0  0  0
M  ISO  4   1 100  68 101  83 101  85 100
M  END
> <chiral flag>
0

> <version>
0

> <s_m_source_file>
/data/baiqing/PycharmProjects/Reinvent-master-3.2/result/LINK_invent/BTK/process_docking_weight1_custom_product_contain_oxygen_bond_distance_aromatic_linkinvent_7_9_3/rearranged_h_0104.sdf

> <i_m_source_file_index>
97

> <r_mmod_Potential_Energy-OPLS-2005>
248.542266845703

> <r_mmod_Stretch_Energy-OPLS-2005>
109.676986694336

> <r_mmod_Bend_Energy-OPLS-2005>
189.806930541992

> <r_mmod_Torsional_Energy-OPLS-2005>
310.439453125

> <r_mmod_Improper_Torsional_Energy-OPLS-2005>
7.63512754440308

> <r_mmod_Van_der_Waal_Energy-OPLS-2005>
159.666305541992

> <r_mmod_Electrostatic_Energy-OPLS-2005>
-371.442077636719

> <r_mmod_Solvation_Energy-OPLS-2005>
-226.687515258789

> <b_mmod_Minimization_Converged-OPLS-2005>
0

> <r_mmod_RMS_Derivative-OPLS-2005>
2.94949293136597

$$$$
98
                    3D
 Structure written by MMmdl.
161170  0  0  1  0            999 V2000
  -30.6325  -14.6671   20.4442 C   0  0  0  0  0  0
  -30.4248  -12.3965   19.4723 C   0  0  0  0  0  0
  -29.5072  -12.4976   18.2336 C   0  0  0  0  0  0
  -28.0306  -12.3399   18.6442 C   0  0  0  0  0  0
  -27.6474  -13.2269   19.8598 C   0  0  2  0  0  0
  -28.6905  -13.1264   20.9962 C   0  0  0  0  0  0
  -25.2525  -13.8194   20.5703 C   0  0  0  0  0  0
  -24.1808  -13.0444   20.9209 C   0  0  0  0  0  0
  -24.6395  -11.6920   20.8754 C   0  0  0  0  0  0
  -23.9071  -10.4298   21.0409 C   0  0  0  0  0  0
  -24.3620   -9.4207   21.9188 C   0  0  0  0  0  0
  -23.6293   -8.2242   22.0754 C   0  0  0  0  0  0
  -22.4277   -8.0286   21.3543 C   0  0  0  0  0  0
  -21.9914   -9.0257   20.4644 C   0  0  0  0  0  0
  -22.7241  -10.2136   20.3054 C   0  0  0  0  0  0
  -21.6852   -6.0737   22.5279 C   0  0  0  0  0  0
  -21.4013   -6.5639   23.8215 C   0  0  0  0  0  0
  -21.3660   -5.6789   24.9176 C   0  0  0  0  0  0
  -21.6047   -4.3054   24.7223 C   0  0  0  0  0  0
  -21.8818   -3.8147   23.4345 C   0  0  0  0  0  0
  -21.9192   -4.6964   22.3401 C   0  0  0  0  0  0
  -22.7835  -13.5229   21.1873 C   0  0  0  0  0  0
  -22.1662   -4.2152   21.0979 F   0  0  0  0  0  0
  -21.5628   -3.4538   25.7736 F   0  0  0  0  0  0
  -30.0045  -13.4474   20.4247 N   0  0  0  0  0  0
  -26.2960  -12.9393   20.3315 N   0  0  0  0  0  0
  -25.9326  -11.6542   20.5766 N   0  0  0  0  0  0
  -22.0467  -12.8216   22.0420 N   0  0  0  0  0  0
  -25.4221  -15.1917   20.4115 N   0  0  0  0  0  0
  -31.8093  -14.7722   20.0894 O   0  0  0  0  0  0
  -21.6640   -6.8883   21.4244 O   0  0  0  0  0  0
  -22.3524  -14.5533   20.6717 O   0  0  0  0  0  0
  -24.6289  -31.8574   23.2014 C   0  0  0  0  0  0
  -25.9139  -32.4756   23.8351 C   0  0  1  0  0  0
  -27.2270  -27.3106   20.1018 C   0  0  0  0  0  0
  -25.5950  -33.8559   24.2299 N   0  0  0  0  0  0
  -23.4210  -30.4816   21.5433 C   0  0  2  0  0  0
  -24.8641  -28.9283   20.1108 C   0  0  0  0  0  0
  -22.7478  -29.4634   22.4931 C   0  0  0  0  0  0
  -18.0304  -28.1389   22.8486 C   0  0  0  0  0  0
  -24.1499  -36.7279   23.2638 C   0  0  0  0  0  0
  -25.9642  -30.7796   21.3768 C   0  0  0  0  0  0
  -26.0328  -29.4080   20.7147 C   0  0  0  0  0  0
  -27.2129  -28.6092   20.6987 C   0  0  0  0  0  0
  -26.0289  -26.8709   19.4956 C   0  0  0  0  0  0
  -24.8640  -27.6654   19.4968 C   0  0  0  0  0  0
  -23.6346  -29.8145   20.1582 C   0  0  0  0  0  0
  -25.4124  -36.3074   24.0330 C   0  0  1  0  0  0
  -20.5893  -28.3711   23.1284 C   0  0  2  0  0  0
  -20.6794  -26.9428   22.5422 C   0  0  0  0  0  0
  -19.5779  -26.6401   21.5210 C   0  0  0  0  0  0
  -18.1959  -26.7937   22.1619 C   0  0  0  0  0  0
  -19.1545  -28.8866   23.2888 C   0  0  0  0  0  0
  -18.9456  -30.1464   23.8910 C   0  0  0  0  0  0
  -17.6452  -30.6586   24.0574 C   0  0  0  0  0  0
  -25.9057  -34.9434   23.5115 C   0  0  0  0  0  0
  -16.5351  -29.9071   23.6326 C   0  0  0  0  0  0
  -16.7286  -28.6491   23.0337 C   0  0  0  0  0  0
  -26.4520  -31.6551   25.0715 C   0  0  0  0  0  0
  -25.3763  -31.3655   26.1463 C   0  0  0  0  0  0
  -27.0379  -30.2985   24.6146 C   0  0  0  0  0  0
  -27.6085  -32.4284   25.7482 C   0  0  0  0  0  0
  -27.5582  -37.1801   24.8470 C   0  0  0  0  0  0
  -21.4194  -29.3080   22.3687 N   0  0  0  0  0  0
  -26.4303  -37.3760   23.9405 N   0  0  0  0  0  0
  -24.6893  -31.0590   22.0955 N   0  0  0  0  0  0
  -23.4212  -28.8172   23.3006 O   0  0  0  0  0  0
  -28.3818  -26.5125   20.1399 O   0  0  0  0  0  0
  -26.5620  -34.8895   22.4679 O   0  0  0  0  0  0
  -23.5462  -32.1408   23.7339 O   0  0  0  0  0  0
  -28.5590  -19.1460   20.3715 C   0  0  0  0  0  0
  -28.4077  -20.5645   20.5445 C   0  0  0  0  0  0
  -30.7740  -20.8163   20.3000 C   0  0  0  0  0  0
  -29.8219  -18.5189   20.1618 C   0  0  0  0  0  0
  -30.9364  -19.4074   20.1489 C   0  0  0  0  0  0
  -29.5185  -21.4572   20.5167 C   0  0  0  0  0  0
  -30.2597  -23.4665   21.7236 C   0  0  0  0  0  0
  -29.5858  -24.5881   22.4966 C   0  0  0  0  0  0
  -28.1298  -24.4179   22.0828 C   0  0  0  0  0  0
  -28.2588  -23.8607   20.6624 C   0  0  2  0  0  0
  -32.3464  -18.8791   19.9378 C   0  0  0  0  0  0
  -29.9636  -17.0105   19.6925 C   0  0  0  0  0  0
  -28.4508  -25.1060   19.6579 C   0  0  0  0  0  0
  -29.4393  -22.9166   20.7932 N   0  0  0  0  0  0
  -29.8471  -15.7891   20.5748 N   0  0  0  0  0  0
  -31.4265  -23.1498   21.9734 O   0  0  0  0  0  0
  -31.4708  -12.4934   19.1751 H   0  0  0  0  0  0
  -30.3391  -11.4114   19.9337 H   0  0  0  0  0  0
  -29.7733  -11.7326   17.5029 H   0  0  0  0  0  0
  -29.6555  -13.4584   17.7389 H   0  0  0  0  0  0
  -27.8711  -11.2890   18.8907 H   0  0  0  0  0  0
  -27.3761  -12.5548   17.7981 H   0  0  0  0  0  0
  -27.6526  -14.2549   19.4977 H   0  0  0  0  0  0
  -28.6995  -12.1233   21.4245 H   0  0  0  0  0  0
  -28.4412  -13.8046   21.8136 H   0  0  0  0  0  0
  -25.2762   -9.5685   22.4768 H   0  0  0  0  0  0
  -24.0000   -7.4635   22.7469 H   0  0  0  0  0  0
  -21.0849   -8.8781   19.8945 H   0  0  0  0  0  0
  -22.3706  -10.9680   19.6166 H   0  0  0  0  0  0
  -21.2005   -7.6149   23.9720 H   0  0  0  0  0  0
  -21.1485   -6.0520   25.9079 H   0  0  0  0  0  0
  -22.0596   -2.7611   23.2844 H   0  0  0  0  0  0
  -22.4077  -11.9877   22.4816 H   0  0  0  0  0  0
  -21.1086  -13.1245   22.2613 H   0  0  0  0  0  0
  -24.6523  -15.8432   20.5180 H   0  0  0  0  0  0
  -26.2656  -15.6311   20.0671 H   0  0  0  0  0  0
  -26.7189  -32.5403   23.1073 H   0  0  0  0  0  0
  -25.0097  -33.9700   25.0443 H   0  0  0  0  0  0
  -22.7158  -31.3028   21.3997 H   0  0  0  0  0  0
  -23.3761  -35.9611   23.3315 H   0  0  0  0  0  0
  -24.3602  -36.8900   22.2057 H   0  0  0  0  0  0
  -23.7254  -37.6479   23.6660 H   0  0  0  0  0  0
  -26.1151  -31.5431   20.6130 H   0  0  0  0  0  0
  -26.8379  -30.8156   22.0164 H   0  0  0  0  0  0
  -28.1152  -28.9755   21.1690 H   0  0  0  0  0  0
  -25.9597  -25.9005   19.0304 H   0  0  0  0  0  0
  -23.9627  -27.2899   19.0311 H   0  0  0  0  0  0
  -23.7655  -30.5938   19.4053 H   0  0  0  0  0  0
  -22.7510  -29.2514   19.8524 H   0  0  0  0  0  0
  -25.1301  -36.1948   25.0819 H   0  0  0  0  0  0
  -20.9985  -28.3280   24.1402 H   0  0  0  0  0  0
  -20.5716  -26.2296   23.3615 H   0  0  0  0  0  0
  -21.6656  -26.7492   22.1196 H   0  0  0  0  0  0
  -19.6947  -25.6313   21.1228 H   0  0  0  0  0  0
  -19.6703  -27.3218   20.6742 H   0  0  0  0  0  0
  -17.4224  -26.6686   21.4017 H   0  0  0  0  0  0
  -18.0379  -26.0079   22.9013 H   0  0  0  0  0  0
  -19.7925  -30.7288   24.2274 H   0  0  0  0  0  0
  -17.4995  -31.6261   24.5182 H   0  0  0  0  0  0
  -15.5344  -30.2973   23.7627 H   0  0  0  0  0  0
  -15.8694  -28.0809   22.7027 H   0  0  0  0  0  0
  -24.5902  -30.7038   25.7775 H   0  0  0  0  0  0
  -24.8974  -32.2800   26.4967 H   0  0  0  0  0  0
  -25.8098  -30.8775   27.0206 H   0  0  0  0  0  0
  -26.2957  -29.6714   24.1189 H   0  0  0  0  0  0
  -27.4120  -29.7231   25.4622 H   0  0  0  0  0  0
  -27.8805  -30.4307   23.9349 H   0  0  0  0  0  0
  -27.2705  -33.3542   26.2127 H   0  0  0  0  0  0
  -28.3862  -32.6913   25.0297 H   0  0  0  0  0  0
  -28.0814  -31.8377   26.5327 H   0  0  0  0  0  0
  -28.2600  -38.0093   24.7501 H   0  0  0  0  0  0
  -28.1077  -36.2623   24.6314 H   0  0  0  0  0  0
  -27.2310  -37.1484   25.8877 H   0  0  0  0  0  0
  -20.9376  -29.8823   21.6902 H   0  0  0  0  0  0
  -26.0199  -38.2846   24.1381 H   0  0  0  0  0  0
  -27.6686  -18.5324   20.3641 H   0  0  0  0  0  0
  -27.4162  -20.9585   20.7172 H   0  0  0  0  0  0
  -31.6676  -21.4223   20.2520 H   0  0  0  0  0  0
  -29.9942  -25.5467   22.1741 H   0  0  0  0  0  0
  -29.7251  -24.4828   23.5727 H   0  0  0  0  0  0
  -27.5527  -25.3397   22.1528 H   0  0  0  0  0  0
  -27.6423  -23.6855   22.7287 H   0  0  0  0  0  0
  -27.3526  -23.3165   20.3938 H   0  0  0  0  0  0
  -33.0953  -19.6054   20.2558 H   0  0  0  0  0  0
  -32.5215  -18.6581   18.8855 H   0  0  0  0  0  0
  -32.5133  -17.9676   20.5147 H   0  0  0  0  0  0
  -30.8717  -16.9238   19.0953 H   0  0  0  0  0  0
  -29.1804  -16.8814   18.9450 H   0  0  0  0  0  0
  -27.8248  -24.9615   18.7777 H   0  0  0  0  0  0
  -29.4563  -25.0236   19.2437 H   0  0  0  0  0  0
  -28.9249  -15.6228   20.9480 H   0  0  0  0  0  0
  1 25  1  0  0  0
  1 30  2  0  0  0
  1 85  1  0  0  0
  2  3  1  0  0  0
  2 25  1  0  0  0
  2 87  1  0  0  0
  2 88  1  0  0  0
  3  4  1  0  0  0
  3 89  1  0  0  0
  3 90  1  0  0  0
  4  5  1  0  0  0
  4 91  1  0  0  0
  4 92  1  0  0  0
  5  6  1  0  0  0
  5 26  1  0  0  0
  5 93  1  0  0  0
  6 25  1  0  0  0
  6 94  1  0  0  0
  6 95  1  0  0  0
  7  8  2  0  0  0
  7 26  1  0  0  0
  7 29  1  0  0  0
  8  9  1  0  0  0
  8 22  1  0  0  0
  9 10  1  0  0  0
  9 27  2  0  0  0
 10 11  2  0  0  0
 10 15  1  0  0  0
 11 12  1  0  0  0
 11 96  1  0  0  0
 12 13  2  0  0  0
 12 97  1  0  0  0
 13 14  1  0  0  0
 13 31  1  0  0  0
 14 15  2  0  0  0
 14 98  1  0  0  0
 15 99  1  0  0  0
 16 17  2  0  0  0
 16 21  1  0  0  0
 16 31  1  0  0  0
 17 18  1  0  0  0
 17100  1  0  0  0
 18 19  2  0  0  0
 18101  1  0  0  0
 19 20  1  0  0  0
 19 24  1  0  0  0
 20 21  2  0  0  0
 20102  1  0  0  0
 21 23  1  0  0  0
 22 28  1  0  0  0
 22 32  2  0  0  0
 26 27  1  0  0  0
 28103  1  0  0  0
 28104  1  0  0  0
 29105  1  0  0  0
 29106  1  0  0  0
 33 34  1  0  0  0
 33 66  1  0  0  0
 33 70  2  0  0  0
 34 36  1  0  0  0
 34 59  1  0  0  0
 34107  1  0  0  0
 35 44  2  0  0  0
 35 45  1  0  0  0
 35 68  1  0  0  0
 36 56  1  0  0  0
 36108  1  0  0  0
 37 39  1  0  0  0
 37 47  1  0  0  0
 37 66  1  0  0  0
 37109  1  0  0  0
 38 43  2  0  0  0
 38 46  1  0  0  0
 38 47  1  0  0  0
 39 64  1  0  0  0
 39 67  2  0  0  0
 40 52  1  0  0  0
 40 53  2  0  0  0
 40 58  1  0  0  0
 41110  1  0  0  0
 41111  1  0  0  0
 41112  1  0  0  0
 41 48  1  0  0  0
 42 43  1  0  0  0
 42 66  1  0  0  0
 42113  1  0  0  0
 42114  1  0  0  0
 43 44  1  0  0  0
 44115  1  0  0  0
 45 46  2  0  0  0
 45116  1  0  0  0
 46117  1  0  0  0
 47118  1  0  0  0
 47119  1  0  0  0
 48 56  1  0  0  0
 48 65  1  0  0  0
 48120  1  0  0  0
 49 50  1  0  0  0
 49 53  1  0  0  0
 49 64  1  0  0  0
 49121  1  0  0  0
 50 51  1  0  0  0
 50122  1  0  0  0
 50123  1  0  0  0
 51 52  1  0  0  0
 51124  1  0  0  0
 51125  1  0  0  0
 52126  1  0  0  0
 52127  1  0  0  0
 53 54  1  0  0  0
 54 55  2  0  0  0
 54128  1  0  0  0
 55 57  1  0  0  0
 55129  1  0  0  0
 56 69  2  0  0  0
 57 58  2  0  0  0
 57130  1  0  0  0
 58131  1  0  0  0
 59 60  1  0  0  0
 59 61  1  0  0  0
 59 62  1  0  0  0
 60132  1  0  0  0
 60133  1  0  0  0
 60134  1  0  0  0
 61135  1  0  0  0
 61136  1  0  0  0
 61137  1  0  0  0
 62138  1  0  0  0
 62139  1  0  0  0
 62140  1  0  0  0
 63 65  1  0  0  0
 63141  1  0  0  0
 63142  1  0  0  0
 63143  1  0  0  0
 64144  1  0  0  0
 65145  1  0  0  0
 68 83  1  0  0  0
 71 72  2  0  0  0
 71 74  1  0  0  0
 71146  1  0  0  0
 72 76  1  0  0  0
 72147  1  0  0  0
 73 75  1  0  0  0
 73 76  2  0  0  0
 73148  1  0  0  0
 74 75  2  0  0  0
 74 82  1  0  0  0
 75 81  1  0  0  0
 76 84  1  0  0  0
 77 78  1  0  0  0
 77 84  1  0  0  0
 77 86  2  0  0  0
 78 79  1  0  0  0
 78149  1  0  0  0
 78150  1  0  0  0
 79 80  1  0  0  0
 79151  1  0  0  0
 79152  1  0  0  0
 80 83  1  0  0  0
 80 84  1  0  0  0
 80153  1  0  0  0
 81154  1  0  0  0
 81155  1  0  0  0
 81156  1  0  0  0
 82 85  1  0  0  0
 82157  1  0  0  0
 82158  1  0  0  0
 83159  1  0  0  0
 83160  1  0  0  0
 85161  1  0  0  0
M  ISO  4   1 100  68 101  83 101  85 100
M  END
> <chiral flag>
0

> <version>
0

> <s_m_source_file>
/data/baiqing/PycharmProjects/Reinvent-master-3.2/result/LINK_invent/BTK/process_docking_weight1_custom_product_contain_oxygen_bond_distance_aromatic_linkinvent_7_9_3/rearranged_h_0104.sdf

> <i_m_source_file_index>
98

> <r_mmod_Potential_Energy-OPLS-2005>
195.379531860352

> <r_mmod_Stretch_Energy-OPLS-2005>
97.7504272460938

> <r_mmod_Bend_Energy-OPLS-2005>
205.582489013672

> <r_mmod_Torsional_Energy-OPLS-2005>
305.606231689453

> <r_mmod_Improper_Torsional_Energy-OPLS-2005>
12.4355230331421

> <r_mmod_Van_der_Waal_Energy-OPLS-2005>
145.103866577148

> <r_mmod_Electrostatic_Energy-OPLS-2005>
-400.426025390625

> <r_mmod_Solvation_Energy-OPLS-2005>
-224.328140258789

> <b_mmod_Minimization_Converged-OPLS-2005>
0

> <r_mmod_RMS_Derivative-OPLS-2005>
2.30669832229614

$$$$
